0:0
     RDKit          3D

 39 40  0  0  0  0  0  0  0  0999 V2000
   52.5660   21.3320   47.0690 C   0  0  0  0  0  0  0  0  0  0  0  0
   53.4250   21.1670   45.9610 O   0  0  0  0  0  0  0  0  0  0  0  0
   54.4750   20.2720   46.2780 C   0  0  0  0  0  0  0  0  0  0  0  0
   55.7830   21.0420   46.4740 C   0  0  0  0  0  0  0  0  0  0  0  0
   55.5590   22.4800   46.3360 N   0  0  0  0  0  0  0  0  0  0  0  0
   56.6260   23.4370   46.4310 C   0  0  0  0  0  0  0  0  0  0  0  0
   57.7930   23.0520   46.7130 O   0  0  0  0  0  0  0  0  0  0  0  0
   56.3840   24.8740   46.2120 C   0  0  0  0  0  0  0  0  0  0  0  0
   57.3310   25.8550   45.9900 C   0  0  0  0  0  0  0  0  0  0  0  0
   56.5820   27.0120   45.8610 C   0  0  0  0  0  0  0  0  0  0  0  0
   57.0750   28.3850   45.6080 C   0  0  0  0  0  0  0  0  0  0  0  0
   56.4560   29.1750   44.6260 C   0  0  0  0  0  0  0  0  0  0  0  0
   56.9050   30.4740   44.3720 C   0  0  0  0  0  0  0  0  0  0  0  0
   57.9850   31.0070   45.0970 C   0  0  0  0  0  0  0  0  0  0  0  0
   58.4820   32.3330   44.8720 N   0  0  0  0  0  0  0  0  0  0  0  0
   57.9940   33.7600   45.7300 S   0  0  0  0  0  0  0  0  0  0  0  0
   59.4070   34.7910   46.0570 C   0  0  0  0  0  0  0  0  0  0  0  0
   56.9670   34.5130   44.9330 O   0  0  0  0  0  0  0  0  0  0  0  0
   57.3840   33.3490   47.0390 O   0  0  0  0  0  0  0  0  0  0  0  0
   58.6010   30.2210   46.0770 C   0  0  0  0  0  0  0  0  0  0  0  0
   58.1530   28.9210   46.3330 C   0  0  0  0  0  0  0  0  0  0  0  0
   55.3120   26.7020   46.0010 O   0  0  0  0  0  0  0  0  0  0  0  0
   55.1560   25.4270   46.2150 N   0  0  0  0  0  0  0  0  0  0  0  0
   53.1423   21.2213   47.9994 H   0  0  0  0  0  0  0  0  0  0  0  0
   52.1126   22.3337   47.0355 H   0  0  0  0  0  0  0  0  0  0  0  0
   51.7738   20.5696   47.0355 H   0  0  0  0  0  0  0  0  0  0  0  0
   54.2271   19.7345   47.2052 H   0  0  0  0  0  0  0  0  0  0  0  0
   54.5993   19.5566   45.4517 H   0  0  0  0  0  0  0  0  0  0  0  0
   56.1788   20.8325   47.4787 H   0  0  0  0  0  0  0  0  0  0  0  0
   56.5026   20.7199   45.7069 H   0  0  0  0  0  0  0  0  0  0  0  0
   54.5750   22.8090   46.2270 H   0  0  0  0  0  0  0  0  0  0  0  0
   58.4236   25.7430   45.9299 H   0  0  0  0  0  0  0  0  0  0  0  0
   55.6106   28.7681   44.0518 H   0  0  0  0  0  0  0  0  0  0  0  0
   56.4106   31.0826   43.6006 H   0  0  0  0  0  0  0  0  0  0  0  0
   59.5442   34.8911   47.1438 H   0  0  0  0  0  0  0  0  0  0  0  0
   60.3045   34.3341   45.6147 H   0  0  0  0  0  0  0  0  0  0  0  0
   59.2457   35.7852   45.6147 H   0  0  0  0  0  0  0  0  0  0  0  0
   59.4455   30.6293   46.6515 H   0  0  0  0  0  0  0  0  0  0  0  0
   58.6473   28.3146   47.1063 H   0  0  0  0  0  0  0  0  0  0  0  0
  1  2  1  0
  2  3  1  0
  3  4  1  0
  4  5  1  0
  5  6  1  0
  6  7  2  0
  6  8  1  0
  8  9  1  0
  9 10  2  0
 10 11  1  0
 11 12  2  0
 12 13  1  0
 13 14  2  0
 14 15  1  0
 15 16  1  0
 16 17  1  0
 16 18  2  0
 16 19  2  0
 14 20  1  0
 20 21  2  0
 10 22  1  0
 22 23  1  0
 23  8  2  0
 21 11  1  0
  1 24  1  0
  1 25  1  0
  1 26  1  0
  3 27  1  0
  3 28  1  0
  4 29  1  0
  4 30  1  0
  5 31  1  0
  9 32  1  0
 12 33  1  0
 13 34  1  0
 17 35  1  0
 17 36  1  0
 17 37  1  0
 20 38  1  0
 21 39  1  0
M  CHG  1  15  -1
M  END
>  <UniqueID>  (1) 
1

>  <SMILES>  (1) 
COCCNC(=O)c1cc(-c2ccc([N-]S(C)(=O)=O)cc2)on1

>  <Energy>  (1) 
66.75956009988062

>  <Genealogy>  (1) 
COCCNC(=O)c1cc(-c2ccc([N-]S(C)(=O)=O)cc2)on1 (protonated)
COCCNC(=O)c1cc(-c2ccc([N-]S(C)(=O)=O)cc2)on1 (3D coordinates assigned)
COCCNC(=O)c1cc(-c2ccc([N-]S(C)(=O)=O)cc2)on1 (optimized conformer: 66.75956009988062 kcal/mol)

>  <smiles>  (1) 
COCCNC(=O)c1cc(-c2ccc(NS(C)(=O)=O)cc2)on1

>  <score_type>  (1) 
oracle

>  <origin>  (1) 
adg

>  <m_score__min__energy>  (1) 
-9.0700000000000003

>  <m_primary>  (1) 
energy

$$$$
1:0
     RDKit          3D

 57 60  0  0  0  0  0  0  0  0999 V2000
   59.4630   28.6300   49.0940 O   0  0  0  0  0  0  0  0  0  0  0  0
   59.1830   29.4170   48.1490 C   0  0  0  0  0  0  0  0  0  0  0  0
   58.8620   28.8920   46.8470 N   0  0  0  0  0  0  0  0  0  0  0  0
   58.7430   27.4880   46.5610 C   0  0  0  0  0  0  0  0  0  0  0  0
   59.8980   26.7410   46.2920 C   0  0  0  0  0  0  0  0  0  0  0  0
   59.8070   25.3770   46.0060 C   0  0  0  0  0  0  0  0  0  0  0  0
   58.5580   24.7510   45.9660 C   0  0  0  0  0  0  0  0  0  0  0  0
   57.3930   25.4920   46.1970 C   0  0  0  0  0  0  0  0  0  0  0  0
   55.8190   24.6990   46.1540 S   0  0  0  0  0  0  0  0  0  0  0  0
   54.7650   25.7210   45.8300 O   0  0  0  0  0  0  0  0  0  0  0  0
   55.5130   24.1100   47.5040 O   0  0  0  0  0  0  0  0  0  0  0  0
   55.8190   23.4510   44.9340 N   0  0  0  0  0  0  0  0  0  0  0  0
   56.3250   23.9890   43.6590 C   0  0  0  0  0  0  0  0  0  0  0  0
   56.6260   22.8540   42.6600 C   0  0  0  0  0  0  0  0  0  0  0  0
   56.0500   21.6360   43.0890 O   0  0  0  0  0  0  0  0  0  0  0  0
   56.6610   21.2170   44.2970 C   0  0  0  0  0  0  0  0  0  0  0  0
   56.6520   22.3220   45.3750 C   0  0  0  0  0  0  0  0  0  0  0  0
   57.4870   26.8600   46.4900 C   0  0  0  0  0  0  0  0  0  0  0  0
   59.2030   30.8780   48.4050 C   0  0  0  0  0  0  0  0  0  0  0  0
   59.0490   31.3560   49.7180 C   0  0  0  0  0  0  0  0  0  0  0  0
   59.0720   32.7270   49.9800 C   0  0  0  0  0  0  0  0  0  0  0  0
   59.2620   33.6370   48.9390 C   0  0  0  0  0  0  0  0  0  0  0  0
   59.4400   33.1790   47.6280 C   0  0  0  0  0  0  0  0  0  0  0  0
   59.7230   34.3280   46.3170 S   0  0  0  0  0  0  0  0  0  0  0  0
   61.0010   33.9680   45.6130 O   0  0  0  0  0  0  0  0  0  0  0  0
   59.8870   35.7050   46.8970 O   0  0  0  0  0  0  0  0  0  0  0  0
   58.4100   34.3400   45.1570 N   0  0  0  0  0  0  0  0  0  0  0  0
   57.1840   33.7780   45.7350 C   0  0  0  0  0  0  0  0  0  0  0  0
   57.0610   32.3290   45.2860 C   0  0  0  0  0  0  0  0  0  0  0  0
   58.0760   32.1510   44.1740 C   0  0  0  0  0  0  0  0  0  0  0  0
   58.7300   33.5130   43.9890 C   0  0  0  0  0  0  0  0  0  0  0  0
   59.4060   31.8020   47.3630 C   0  0  0  0  0  0  0  0  0  0  0  0
   58.7590   29.5470   46.0420 H   0  0  0  0  0  0  0  0  0  0  0  0
   60.8822   27.2320   46.3062 H   0  0  0  0  0  0  0  0  0  0  0  0
   60.7197   24.7945   45.8119 H   0  0  0  0  0  0  0  0  0  0  0  0
   58.4903   23.6740   45.7526 H   0  0  0  0  0  0  0  0  0  0  0  0
   55.5674   24.6583   43.2252 H   0  0  0  0  0  0  0  0  0  0  0  0
   57.2575   24.5382   43.8562 H   0  0  0  0  0  0  0  0  0  0  0  0
   56.2120   23.1211   41.6765 H   0  0  0  0  0  0  0  0  0  0  0  0
   57.7163   22.7230   42.5962 H   0  0  0  0  0  0  0  0  0  0  0  0
   56.1171   20.3423   44.6831 H   0  0  0  0  0  0  0  0  0  0  0  0
   57.7105   20.9733   44.0752 H   0  0  0  0  0  0  0  0  0  0  0  0
   56.2448   21.9134   46.3116 H   0  0  0  0  0  0  0  0  0  0  0  0
   57.6810   22.6754   45.5372 H   0  0  0  0  0  0  0  0  0  0  0  0
   56.5724   27.4455   46.6654 H   0  0  0  0  0  0  0  0  0  0  0  0
   58.9093   30.6444   50.5451 H   0  0  0  0  0  0  0  0  0  0  0  0
   58.9400   33.0910   51.0096 H   0  0  0  0  0  0  0  0  0  0  0  0
   59.2719   34.7167   49.1491 H   0  0  0  0  0  0  0  0  0  0  0  0
   57.2362   33.8235   46.8328 H   0  0  0  0  0  0  0  0  0  0  0  0
   56.3092   34.3535   45.3979 H   0  0  0  0  0  0  0  0  0  0  0  0
   57.2853   31.6493   46.1212 H   0  0  0  0  0  0  0  0  0  0  0  0
   56.0417   32.0975   44.9433 H   0  0  0  0  0  0  0  0  0  0  0  0
   58.8280   31.4002   44.4581 H   0  0  0  0  0  0  0  0  0  0  0  0
   57.6025   31.7993   43.2455 H   0  0  0  0  0  0  0  0  0  0  0  0
   59.8203   33.3938   43.9052 H   0  0  0  0  0  0  0  0  0  0  0  0
   58.3560   33.9916   43.0719 H   0  0  0  0  0  0  0  0  0  0  0  0
   59.5391   31.4414   46.3323 H   0  0  0  0  0  0  0  0  0  0  0  0
  1  2  2  0
  2  3  1  0
  3  4  1  0
  4  5  2  0
  5  6  1  0
  6  7  2  0
  7  8  1  0
  8  9  1  0
  9 10  2  0
  9 11  2  0
  9 12  1  0
 12 13  1  0
 13 14  1  0
 14 15  1  0
 15 16  1  0
 16 17  1  0
  8 18  2  0
  2 19  1  0
 19 20  2  0
 20 21  1  0
 21 22  2  0
 22 23  1  0
 23 24  1  0
 24 25  2  0
 24 26  2  0
 24 27  1  0
 27 28  1  0
 28 29  1  0
 29 30  1  0
 30 31  1  0
 23 32  2  0
 18  4  1  0
 32 19  1  0
 17 12  1  0
 31 27  1  0
  3 33  1  0
  5 34  1  0
  6 35  1  0
  7 36  1  0
 13 37  1  0
 13 38  1  0
 14 39  1  0
 14 40  1  0
 16 41  1  0
 16 42  1  0
 17 43  1  0
 17 44  1  0
 18 45  1  0
 20 46  1  0
 21 47  1  0
 22 48  1  0
 28 49  1  0
 28 50  1  0
 29 51  1  0
 29 52  1  0
 30 53  1  0
 30 54  1  0
 31 55  1  0
 31 56  1  0
 32 57  1  0
M  END
>  <UniqueID>  (2) 
2

>  <SMILES>  (2) 
O=C(Nc1cccc(S(=O)(=O)N2CCOCC2)c1)c1cccc(S(=O)(=O)N2CCCC2)c1

>  <Energy>  (2) 
72.61288087662426

>  <Genealogy>  (2) 
O=C(Nc1cccc(S(=O)(=O)N2CCOCC2)c1)c1cccc(S(=O)(=O)N2CCCC2)c1 (3D coordinates assigned)
O=C(Nc1cccc(S(=O)(=O)N2CCOCC2)c1)c1cccc(S(=O)(=O)N2CCCC2)c1 (nonaromatic ring conformer: 72.61288087662426 kcal/mol)

>  <smiles>  (2) 
O=C(Nc1cccc(S(=O)(=O)N2CCOCC2)c1)c1cccc(S(=O)(=O)N2CCCC2)c1

>  <score_type>  (2) 
oracle

>  <origin>  (2) 
adg

>  <m_score__min__energy>  (2) 
-11.220000000000001

>  <m_primary>  (2) 
energy

$$$$
2:0
     RDKit          3D

 51 52  0  0  0  0  0  0  0  0999 V2000
   56.2880   22.6200   42.8060 C   0  0  0  0  0  0  0  0  0  0  0  0
   56.9730   21.3940   43.4210 C   0  0  0  0  0  0  0  0  0  0  0  0
   58.3750   21.7370   43.9430 C   0  0  0  0  0  0  0  0  0  0  0  0
   56.0920   20.6700   44.4680 C   0  0  0  0  0  0  0  0  0  0  0  0
   56.0760   21.2550   45.8990 C   0  0  0  0  0  0  0  0  0  0  0  0
   55.8530   22.7180   45.9280 N   0  0  0  0  0  0  0  0  0  0  0  0
   54.6020   23.2420   45.7110 C   0  0  0  0  0  0  0  0  0  0  0  0
   53.6160   22.4920   45.4800 O   0  0  0  0  0  0  0  0  0  0  0  0
   54.4050   24.5830   45.7340 N   0  0  0  0  0  0  0  0  0  0  0  0
   55.4140   25.4470   45.9930 C   0  0  0  0  0  0  0  0  0  0  0  0
   55.1620   26.8130   45.9630 O   0  0  0  0  0  0  0  0  0  0  0  0
   56.6950   24.9570   46.2650 C   0  0  0  0  0  0  0  0  0  0  0  0
   57.8200   25.8720   46.5560 C   0  0  0  0  0  0  0  0  0  0  0  0
   58.9800   25.3990   46.7000 O   0  0  0  0  0  0  0  0  0  0  0  0
   57.5990   27.3350   46.7950 C   0  0  0  0  0  0  0  0  0  0  0  0
   58.2920   28.0650   45.7910 O   0  0  0  0  0  0  0  0  0  0  0  0
   58.9150   29.2940   46.0240 C   0  0  0  0  0  0  0  0  0  0  0  0
   59.0610   30.1250   45.0870 O   0  0  0  0  0  0  0  0  0  0  0  0
   59.4640   29.5990   47.3570 C   0  0  0  0  0  0  0  0  0  0  0  0
   60.2970   30.6190   47.6080 C   0  0  0  0  0  0  0  0  0  0  0  0
   59.9150   32.0460   47.5370 C   0  0  0  0  0  0  0  0  0  0  0  0
   60.0820   32.8680   48.6590 C   0  0  0  0  0  0  0  0  0  0  0  0
   59.7740   34.2280   48.5870 C   0  0  0  0  0  0  0  0  0  0  0  0
   59.3180   34.7850   47.3880 C   0  0  0  0  0  0  0  0  0  0  0  0
   59.1440   33.9790   46.2520 C   0  0  0  0  0  0  0  0  0  0  0  0
   58.7120   34.6030   44.9490 C   0  0  0  0  0  0  0  0  0  0  0  0
   59.0760   33.7740   43.9030 F   0  0  0  0  0  0  0  0  0  0  0  0
   57.3380   34.7890   44.9120 F   0  0  0  0  0  0  0  0  0  0  0  0
   59.3230   35.8330   44.7850 F   0  0  0  0  0  0  0  0  0  0  0  0
   59.4670   32.6110   46.3290 C   0  0  0  0  0  0  0  0  0  0  0  0
   56.8930   23.5650   46.2340 C   0  0  0  0  0  0  0  0  0  0  0  0
   58.0330   23.0970   46.5130 O   0  0  0  0  0  0  0  0  0  0  0  0
   55.9213   23.2764   43.6089 H   0  0  0  0  0  0  0  0  0  0  0  0
   57.0097   23.1697   42.1839 H   0  0  0  0  0  0  0  0  0  0  0  0
   55.4416   22.2935   42.1839 H   0  0  0  0  0  0  0  0  0  0  0  0
   57.1079   20.6625   42.6107 H   0  0  0  0  0  0  0  0  0  0  0  0
   58.3673   21.7351   45.0430 H   0  0  0  0  0  0  0  0  0  0  0  0
   59.0947   20.9884   43.5801 H   0  0  0  0  0  0  0  0  0  0  0  0
   58.6678   22.7333   43.5801 H   0  0  0  0  0  0  0  0  0  0  0  0
   55.0575   20.6796   44.0943 H   0  0  0  0  0  0  0  0  0  0  0  0
   56.5385   19.6703   44.5738 H   0  0  0  0  0  0  0  0  0  0  0  0
   55.2703   20.7671   46.4672 H   0  0  0  0  0  0  0  0  0  0  0  0
   57.0656   21.0662   46.3406 H   0  0  0  0  0  0  0  0  0  0  0  0
   56.5238   27.5613   46.7431 H   0  0  0  0  0  0  0  0  0  0  0  0
   57.9727   27.6152   47.7909 H   0  0  0  0  0  0  0  0  0  0  0  0
   59.1728   28.9508   48.1966 H   0  0  0  0  0  0  0  0  0  0  0  0
   61.3339   30.3785   47.8853 H   0  0  0  0  0  0  0  0  0  0  0  0
   60.4573   32.4404   49.6004 H   0  0  0  0  0  0  0  0  0  0  0  0
   59.8905   34.8639   49.4770 H   0  0  0  0  0  0  0  0  0  0  0  0
   59.0944   35.8607   47.3348 H   0  0  0  0  0  0  0  0  0  0  0  0
   59.3681   31.9772   45.4354 H   0  0  0  0  0  0  0  0  0  0  0  0
  1  2  1  0
  2  3  1  0
  2  4  1  0
  4  5  1  0
  5  6  1  0
  6  7  1  0
  7  8  2  0
  7  9  1  0
  9 10  1  0
 10 11  1  0
 10 12  2  0
 12 13  1  0
 13 14  2  0
 13 15  1  0
 15 16  1  0
 16 17  1  0
 17 18  2  0
 17 19  1  0
 19 20  2  3
 20 21  1  0
 21 22  2  0
 22 23  1  0
 23 24  2  0
 24 25  1  0
 25 26  1  0
 26 27  1  0
 26 28  1  0
 26 29  1  0
 25 30  2  0
 12 31  1  0
 31 32  2  0
 31  6  1  0
 30 21  1  0
  1 33  1  0
  1 34  1  0
  1 35  1  0
  2 36  1  0
  3 37  1  0
  3 38  1  0
  3 39  1  0
  4 40  1  0
  4 41  1  0
  5 42  1  0
  5 43  1  0
 15 44  1  0
 15 45  1  0
 19 46  1  0
 20 47  1  0
 22 48  1  0
 23 49  1  0
 24 50  1  0
 30 51  1  0
M  CHG  2   9  -1  11  -1
M  END
>  <UniqueID>  (3) 
3

>  <SMILES>  (3) 
CC(C)CCn1c(=O)[n-]c([O-])c(C(=O)COC(=O)C=Cc2cccc(C(F)(F)F)c2)c1=O

>  <Energy>  (3) 
59.01274032767697

>  <Genealogy>  (3) 
CC(C)CCn1c(=O)[n-]c([O-])c(C(=O)COC(=O)C=Cc2cccc(C(F)(F)F)c2)c1=O (protonated)
CC(C)CCn1c(=O)[n-]c([O-])c(C(=O)COC(=O)C=Cc2cccc(C(F)(F)F)c2)c1=O (3D coordinates assigned)
CC(C)CCn1c(=O)[n-]c([O-])c(C(=O)COC(=O)C=Cc2cccc(C(F)(F)F)c2)c1=O (optimized conformer: 59.01274032767697 kcal/mol)

>  <smiles>  (3) 
CC(C)CCn1c(=O)[nH]c(O)c(C(=O)COC(=O)C=Cc2cccc(C(F)(F)F)c2)c1=O

>  <score_type>  (3) 
oracle

>  <origin>  (3) 
adg

>  <m_score__min__energy>  (3) 
-13.609999999999999

>  <m_primary>  (3) 
energy

$$$$
3:0
     RDKit          3D

 73 77  0  0  0  0  0  0  0  0999 V2000
   60.0522   28.1440   50.8573 H   0  0  0  0  0  0  0  0  0  0  0  0
   60.6570   28.5600   50.0380 C   0  0  0  0  0  0  0  0  0  0  0  0
   61.2970   29.8740   50.2430 C   0  0  0  0  0  0  0  0  0  0  0  0
   62.5350   29.9170   50.4730 O   0  0  0  0  0  0  0  0  0  0  0  0
   60.5040   31.0850   50.2540 N   0  0  0  0  0  0  0  0  0  0  0  0
   60.8460   31.7190   49.4950 H   0  0  0  0  0  0  0  0  0  0  0  0
   60.6300   31.8010   51.5420 C   0  0  0  0  0  0  0  0  0  0  0  0
   60.2966   31.1420   52.3572 H   0  0  0  0  0  0  0  0  0  0  0  0
   61.6823   32.0842   51.6915 H   0  0  0  0  0  0  0  0  0  0  0  0
   59.7620   33.0810   51.5340 C   0  0  0  0  0  0  0  0  0  0  0  0
   59.1120   33.0717   52.4214 H   0  0  0  0  0  0  0  0  0  0  0  0
   60.4422   33.9455   51.5392 H   0  0  0  0  0  0  0  0  0  0  0  0
   58.9490   33.1800   50.3760 O   0  0  0  0  0  0  0  0  0  0  0  0
   58.1840   32.0000   50.2150 C   0  0  0  0  0  0  0  0  0  0  0  0
   57.5890   31.8321   51.1249 H   0  0  0  0  0  0  0  0  0  0  0  0
   57.5303   32.1277   49.3396 H   0  0  0  0  0  0  0  0  0  0  0  0
   59.0880   30.7720   49.9720 C   0  0  0  0  0  0  0  0  0  0  0  0
   58.7640   29.9524   50.6303 H   0  0  0  0  0  0  0  0  0  0  0  0
   59.0004   30.4795   48.9152 H   0  0  0  0  0  0  0  0  0  0  0  0
   60.7710   27.8440   48.9090 C   0  0  0  0  0  0  0  0  0  0  0  0
   61.5690   27.0897   48.8435 H   0  0  0  0  0  0  0  0  0  0  0  0
   59.8750   28.0230   47.7530 C   0  0  0  0  0  0  0  0  0  0  0  0
   60.2530   28.8300   46.6700 C   0  0  0  0  0  0  0  0  0  0  0  0
   61.2335   29.3285   46.6728 H   0  0  0  0  0  0  0  0  0  0  0  0
   59.3860   29.0020   45.5870 C   0  0  0  0  0  0  0  0  0  0  0  0
   59.7075   29.5894   44.7143 H   0  0  0  0  0  0  0  0  0  0  0  0
   58.1090   28.4280   45.6110 C   0  0  0  0  0  0  0  0  0  0  0  0
   57.2030   28.6610   44.5240 N   0  0  0  0  0  0  0  0  0  0  0  0
   56.3980   29.8380   44.4060 C   0  0  0  0  0  0  0  0  0  0  0  0
   55.1440   29.7360   44.4870 O   0  0  0  0  0  0  0  0  0  0  0  0
   57.0140   31.1450   44.0980 C   0  0  0  0  0  0  0  0  0  0  0  0
   57.2460   31.4440   42.8960 O   0  0  0  0  0  0  0  0  0  0  0  0
   57.3180   32.0960   45.1350 N   0  0  0  0  0  0  0  0  0  0  0  0
   57.9960   31.6680   46.3680 C   0  0  0  0  0  0  0  0  0  0  0  0
   57.2417   31.3198   47.0890 H   0  0  0  0  0  0  0  0  0  0  0  0
   58.6966   30.8585   46.1152 H   0  0  0  0  0  0  0  0  0  0  0  0
   58.7960   32.8230   46.9980 C   0  0  0  0  0  0  0  0  0  0  0  0
   58.1093   33.4765   47.5560 H   0  0  0  0  0  0  0  0  0  0  0  0
   59.5541   32.4022   47.6749 H   0  0  0  0  0  0  0  0  0  0  0  0
   59.5080   33.6500   45.9040 C   0  0  0  0  0  0  0  0  0  0  0  0
   60.1651   32.9798   45.3304 H   0  0  0  0  0  0  0  0  0  0  0  0
   60.3370   34.7070   46.5240 N   0  0  0  0  0  0  0  0  0  0  0  0
   59.9390   35.6480   46.2920 H   0  0  0  0  0  0  0  0  0  0  0  0
   60.4190   34.5930   47.9920 C   0  0  0  0  0  0  0  0  0  0  0  0
   60.3767   35.6023   48.4275 H   0  0  0  0  0  0  0  0  0  0  0  0
   59.5746   33.9731   48.3276 H   0  0  0  0  0  0  0  0  0  0  0  0
   61.6930   33.9210   48.4480 C   0  0  0  0  0  0  0  0  0  0  0  0
   62.2680   32.8970   47.6780 C   0  0  0  0  0  0  0  0  0  0  0  0
   61.7953   32.5939   46.7321 H   0  0  0  0  0  0  0  0  0  0  0  0
   63.4370   32.2600   48.1050 C   0  0  0  0  0  0  0  0  0  0  0  0
   63.8741   31.4522   47.4997 H   0  0  0  0  0  0  0  0  0  0  0  0
   64.0530   32.6480   49.3020 C   0  0  0  0  0  0  0  0  0  0  0  0
   65.2340   32.0230   49.7340 C   0  0  0  0  0  0  0  0  0  0  0  0
   65.6799   31.2169   49.1329 H   0  0  0  0  0  0  0  0  0  0  0  0
   65.8440   32.4230   50.9260 C   0  0  0  0  0  0  0  0  0  0  0  0
   66.7692   31.9307   51.2601 H   0  0  0  0  0  0  0  0  0  0  0  0
   65.2830   33.4460   51.6950 C   0  0  0  0  0  0  0  0  0  0  0  0
   65.7701   33.7598   52.6300 H   0  0  0  0  0  0  0  0  0  0  0  0
   64.1050   34.0710   51.2790 C   0  0  0  0  0  0  0  0  0  0  0  0
   63.6638   34.8717   51.8907 H   0  0  0  0  0  0  0  0  0  0  0  0
   63.4830   33.6810   50.0840 C   0  0  0  0  0  0  0  0  0  0  0  0
   62.3020   34.3070   49.6540 C   0  0  0  0  0  0  0  0  0  0  0  0
   61.8513   35.1035   50.2643 H   0  0  0  0  0  0  0  0  0  0  0  0
   58.4760   34.2660   44.9170 C   0  0  0  0  0  0  0  0  0  0  0  0
   58.2948   35.3101   45.2121 H   0  0  0  0  0  0  0  0  0  0  0  0
   58.9080   34.1814   43.9089 H   0  0  0  0  0  0  0  0  0  0  0  0
   57.1270   33.5300   44.8880 C   0  0  0  0  0  0  0  0  0  0  0  0
   56.4704   33.9469   45.6659 H   0  0  0  0  0  0  0  0  0  0  0  0
   56.6710   33.6623   43.8957 H   0  0  0  0  0  0  0  0  0  0  0  0
   57.7250   27.6350   46.7020 C   0  0  0  0  0  0  0  0  0  0  0  0
   56.7253   27.1765   46.7218 H   0  0  0  0  0  0  0  0  0  0  0  0
   58.6070   27.4260   47.7620 C   0  0  0  0  0  0  0  0  0  0  0  0
   58.3064   26.7904   48.6080 H   0  0  0  0  0  0  0  0  0  0  0  0
  1  2  1  0
  2  3  1  0
  3  4  2  0
  3  5  1  0
  5  6  1  0
  5  7  1  0
  7  8  1  0
  7  9  1  0
  7 10  1  0
 10 11  1  0
 10 12  1  0
 10 13  1  0
 13 14  1  0
 14 15  1  0
 14 16  1  0
 14 17  1  0
 17 18  1  0
 17 19  1  0
  2 20  2  0
 20 21  1  0
 20 22  1  0
 22 23  2  0
 23 24  1  0
 23 25  1  0
 25 26  1  0
 25 27  2  0
 27 28  1  0
 28 29  1  0
 29 30  2  0
 29 31  1  0
 31 32  2  0
 31 33  1  0
 33 34  1  0
 34 35  1  0
 34 36  1  0
 34 37  1  0
 37 38  1  0
 37 39  1  0
 37 40  1  0
 40 41  1  0
 40 42  1  0
 42 43  1  0
 42 44  1  0
 44 45  1  0
 44 46  1  0
 44 47  1  0
 47 48  2  0
 48 49  1  0
 48 50  1  0
 50 51  1  0
 50 52  2  0
 52 53  1  0
 53 54  1  0
 53 55  2  0
 55 56  1  0
 55 57  1  0
 57 58  1  0
 57 59  2  0
 59 60  1  0
 59 61  1  0
 61 62  2  0
 62 63  1  0
 40 64  1  0
 64 65  1  0
 64 66  1  0
 64 67  1  0
 67 68  1  0
 67 69  1  0
 27 70  1  0
 70 71  1  0
 70 72  2  0
 72 73  1  0
 17  5  1  0
 72 22  1  0
 67 33  1  0
 62 47  1  0
 61 52  1  0
M  CHG  2   5   1  28  -1
M  END
>  <UniqueID>  (4) 
4

>  <SMILES>  (4) 
O=C([N-]c1ccc(/C=C\C(=O)[NH+]2CCOCC2)cc1)C(=O)N1CCC(NCc2ccc3ccccc3c2)CC1

>  <Energy>  (4) 
116.1068658683617

>  <Genealogy>  (4) 
O=C([N-]c1ccc(C=CC(=O)[NH+]2CCOCC2)cc1)C(=O)N1CCC(NCc2ccc3ccccc3c2)CC1 (protonated)
O=C([N-]c1ccc(/C=C\C(=O)[NH+]2CCOCC2)cc1)C(=O)N1CCC(NCc2ccc3ccccc3c2)CC1 (cis-trans isomerization)
O=C([N-]c1ccc(/C=C\C(=O)[NH+]2CCOCC2)cc1)C(=O)N1CCC(NCc2ccc3ccccc3c2)CC1 (3D coordinates assigned)
O=C([N-]c1ccc(/C=C\C(=O)[NH+]2CCOCC2)cc1)C(=O)N1CCC(NCc2ccc3ccccc3c2)CC1 (nonaromatic ring conformer: 116.1068658683617 kcal/mol)

>  <smiles>  (4) 
O=C(Nc1ccc(C=CC(=O)N2CCOCC2)cc1)C(=O)N1CCC(NCc2ccc3ccccc3c2)CC1

>  <score_type>  (4) 
oracle

>  <origin>  (4) 
adg

>  <m_score__min__energy>  (4) 
-11.779999999999999

>  <m_primary>  (4) 
energy

$$$$
4:0
     RDKit          3D

 36 38  0  0  0  0  0  0  0  0999 V2000
   52.8860   30.4670   49.1050 H   0  0  0  0  0  0  0  0  0  0  0  0
   51.9950   30.4290   49.5830 O   0  0  0  0  0  0  0  0  0  0  0  0
   51.7470   31.1970   50.7170 C   0  0  0  0  0  0  0  0  0  0  0  0
   51.0140   32.3210   50.7050 N   0  0  0  0  0  0  0  0  0  0  0  0
   51.0640   32.7250   51.9910 C   0  0  0  0  0  0  0  0  0  0  0  0
   50.4900   33.7700   52.3960 O   0  0  0  0  0  0  0  0  0  0  0  0
   51.7860   31.9290   52.8080 N   0  0  0  0  0  0  0  0  0  0  0  0
   52.1980   30.9390   51.9920 C   0  0  0  0  0  0  0  0  0  0  0  0
   53.1400   29.8780   52.3840 C   0  0  0  0  0  0  0  0  0  0  0  0
   52.7145   28.8915   52.6202 H   0  0  0  0  0  0  0  0  0  0  0  0
   54.4780   30.0090   52.4790 C   0  0  0  0  0  0  0  0  0  0  0  0
   55.1540   31.1030   51.9710 C   0  0  0  0  0  0  0  0  0  0  0  0
   54.7193   31.9241   51.3820 H   0  0  0  0  0  0  0  0  0  0  0  0
   56.4770   30.9710   52.3420 C   0  0  0  0  0  0  0  0  0  0  0  0
   57.5030   32.0050   52.0900 C   0  0  0  0  0  0  0  0  0  0  0  0
   57.3990   33.1220   52.6630 O   0  0  0  0  0  0  0  0  0  0  0  0
   58.6750   31.6840   51.3230 N   0  0  0  0  0  0  0  0  0  0  0  0
   58.7660   31.3520   50.0640 C   0  0  0  0  0  0  0  0  0  0  0  0
   58.9090   29.9940   49.7480 C   0  0  0  0  0  0  0  0  0  0  0  0
   58.9472   29.2431   50.5509 H   0  0  0  0  0  0  0  0  0  0  0  0
   59.0030   29.5950   48.4130 C   0  0  0  0  0  0  0  0  0  0  0  0
   59.1275   28.5304   48.1658 H   0  0  0  0  0  0  0  0  0  0  0  0
   58.9410   30.5180   47.4200 N   0  0  0  0  0  0  0  0  0  0  0  0
   58.7850   31.8410   47.6880 C   0  0  0  0  0  0  0  0  0  0  0  0
   58.7356   32.5650   46.8613 H   0  0  0  0  0  0  0  0  0  0  0  0
   58.6870   32.2860   49.0090 C   0  0  0  0  0  0  0  0  0  0  0  0
   58.5494   33.3558   49.2248 H   0  0  0  0  0  0  0  0  0  0  0  0
   56.6660   29.7970   52.9960 N   0  0  0  0  0  0  0  0  0  0  0  0
   57.9560   29.2650   53.4600 C   0  0  0  0  0  0  0  0  0  0  0  0
   57.9751   29.2571   54.5598 H   0  0  0  0  0  0  0  0  0  0  0  0
   58.0865   28.2397   53.0836 H   0  0  0  0  0  0  0  0  0  0  0  0
   58.7713   29.9003   53.0836 H   0  0  0  0  0  0  0  0  0  0  0  0
   55.4490   29.1950   53.0870 C   0  0  0  0  0  0  0  0  0  0  0  0
   55.2620   27.9610   53.5850 C   0  0  0  0  0  0  0  0  0  0  0  0
   56.1036   27.4182   54.0400 H   0  0  0  0  0  0  0  0  0  0  0  0
   54.2673   27.4937   53.5376 H   0  0  0  0  0  0  0  0  0  0  0  0
  1  2  1  0
  2  3  1  0
  3  4  1  0
  4  5  1  0
  5  6  2  0
  5  7  1  0
  7  8  1  0
  8  9  1  0
  9 10  1  0
  9 11  2  0
 11 12  1  0
 12 13  1  0
 12 14  2  0
 14 15  1  0
 15 16  2  0
 15 17  1  0
 17 18  2  3
 18 19  1  0
 19 20  1  0
 19 21  2  0
 21 22  1  0
 21 23  1  0
 23 24  1  0
 24 25  1  0
 24 26  2  0
 26 27  1  0
 14 28  1  0
 28 29  1  0
 29 30  1  0
 29 31  1  0
 29 32  1  0
 28 33  1  0
 33 34  2  0
 34 35  1  0
 34 36  1  0
  8  3  2  0
 33 11  1  0
 26 18  1  0
M  CHG  3   4  -1   7  -1  23  -1
M  END
>  <UniqueID>  (5) 
5

>  <SMILES>  (5) 
C=c1/c(=C\c2[n-]c(=O)[n-]c2O)cc(C(=O)N=c2cc[n-]cc2)n1C

>  <Energy>  (5) 
118.92938233712015

>  <Genealogy>  (5) 
C=c1c(=Cc2[n-]c(=O)[n-]c2O)cc(C(=O)N=c2cc[n-]cc2)n1C (protonated)
C=c1/c(=C\c2[n-]c(=O)[n-]c2O)cc(C(=O)N=c2cc[n-]cc2)n1C (cis-trans isomerization)
C=c1/c(=C\c2[n-]c(=O)[n-]c2O)cc(C(=O)N=c2cc[n-]cc2)n1C (3D coordinates assigned)
C=c1/c(=C\c2[n-]c(=O)[n-]c2O)cc(C(=O)N=c2cc[n-]cc2)n1C (optimized conformer: 118.92938233712015 kcal/mol)

>  <smiles>  (5) 
C=c1c(=Cc2[nH]c(=O)[nH]c2O)cc(C(=O)N=c2cc[nH]cc2)n1C

>  <score_type>  (5) 
oracle

>  <origin>  (5) 
adg

>  <m_score__min__energy>  (5) 
-13.18

>  <m_primary>  (5) 
energy

$$$$
5:0
     RDKit          3D

 57 60  0  0  0  0  0  0  0  0999 V2000
   58.8450   29.4520   50.6100 O   0  0  0  0  0  0  0  0  0  0  0  0
   59.7290   29.5250   49.7180 C   0  0  0  0  0  0  0  0  0  0  0  0
   60.8350   30.4160   49.9200 N   0  0  0  0  0  0  0  0  0  0  0  0
   61.2500   31.4730   49.0400 C   0  0  0  0  0  0  0  0  0  0  0  0
   62.6100   31.7530   48.8050 C   0  0  0  0  0  0  0  0  0  0  0  0
   62.9760   32.7740   47.9230 C   0  0  0  0  0  0  0  0  0  0  0  0
   61.9920   33.5110   47.2560 C   0  0  0  0  0  0  0  0  0  0  0  0
   60.6350   33.2210   47.4590 C   0  0  0  0  0  0  0  0  0  0  0  0
   59.3910   34.1600   46.6340 S   0  0  0  0  0  0  0  0  0  0  0  0
   59.9740   34.7290   45.3690 O   0  0  0  0  0  0  0  0  0  0  0  0
   58.9980   35.3170   47.5100 O   0  0  0  0  0  0  0  0  0  0  0  0
   57.9660   33.2280   46.2330 N   0  0  0  0  0  0  0  0  0  0  0  0
   58.1570   31.7670   46.3480 C   0  0  0  0  0  0  0  0  0  0  0  0
   58.6160   31.1200   45.0320 C   0  0  0  0  0  0  0  0  0  0  0  0
   57.7600   31.4850   43.9730 O   0  0  0  0  0  0  0  0  0  0  0  0
   57.8550   32.8760   43.7560 C   0  0  0  0  0  0  0  0  0  0  0  0
   57.3240   33.6500   44.9730 C   0  0  0  0  0  0  0  0  0  0  0  0
   60.2710   32.2080   48.3590 C   0  0  0  0  0  0  0  0  0  0  0  0
   59.6310   28.6500   48.5260 C   0  0  0  0  0  0  0  0  0  0  0  0
   60.6560   27.7310   48.2420 C   0  0  0  0  0  0  0  0  0  0  0  0
   60.5690   26.9000   47.1230 C   0  0  0  0  0  0  0  0  0  0  0  0
   59.4640   26.9820   46.2740 C   0  0  0  0  0  0  0  0  0  0  0  0
   58.4400   27.9030   46.5370 C   0  0  0  0  0  0  0  0  0  0  0  0
   57.0250   27.9890   45.4950 S   0  0  0  0  0  0  0  0  0  0  0  0
   57.4140   27.7940   44.0600 O   0  0  0  0  0  0  0  0  0  0  0  0
   56.4180   29.3530   45.6380 O   0  0  0  0  0  0  0  0  0  0  0  0
   55.8360   26.8030   45.9170 N   0  0  0  0  0  0  0  0  0  0  0  0
   55.8780   25.4360   45.4950 C   0  0  0  0  0  0  0  0  0  0  0  0
   57.0190   24.9720   44.8220 C   0  0  0  0  0  0  0  0  0  0  0  0
   57.0910   23.6470   44.3840 C   0  0  0  0  0  0  0  0  0  0  0  0
   56.0000   22.7730   44.5680 C   0  0  0  0  0  0  0  0  0  0  0  0
   56.0630   21.4110   44.1050 N   0  0  0  0  0  0  0  0  0  0  0  0
   55.8780   20.4650   44.8930 O   0  0  0  0  0  0  0  0  0  0  0  0
   56.3180   21.1330   42.7800 O   0  0  0  0  0  0  0  0  0  0  0  0
   54.8420   23.2530   45.2140 C   0  0  0  0  0  0  0  0  0  0  0  0
   54.7840   24.5700   45.6820 C   0  0  0  0  0  0  0  0  0  0  0  0
   58.5330   28.7420   47.6520 C   0  0  0  0  0  0  0  0  0  0  0  0
   63.3869   31.1664   49.3172 H   0  0  0  0  0  0  0  0  0  0  0  0
   64.0395   32.9981   47.7533 H   0  0  0  0  0  0  0  0  0  0  0  0
   62.2833   34.3203   46.5703 H   0  0  0  0  0  0  0  0  0  0  0  0
   58.9167   31.5717   47.1191 H   0  0  0  0  0  0  0  0  0  0  0  0
   57.1844   31.3261   46.6117 H   0  0  0  0  0  0  0  0  0  0  0  0
   59.6382   31.4550   44.8021 H   0  0  0  0  0  0  0  0  0  0  0  0
   58.5900   30.0264   45.1473 H   0  0  0  0  0  0  0  0  0  0  0  0
   58.9084   33.1447   43.5880 H   0  0  0  0  0  0  0  0  0  0  0  0
   57.2503   33.1401   42.8759 H   0  0  0  0  0  0  0  0  0  0  0  0
   57.5161   34.7223   44.8207 H   0  0  0  0  0  0  0  0  0  0  0  0
   56.2475   33.4412   45.0592 H   0  0  0  0  0  0  0  0  0  0  0  0
   59.2069   31.9889   48.5315 H   0  0  0  0  0  0  0  0  0  0  0  0
   61.5315   27.6660   48.9048 H   0  0  0  0  0  0  0  0  0  0  0  0
   61.3726   26.1796   46.9103 H   0  0  0  0  0  0  0  0  0  0  0  0
   59.3964   26.3223   45.3963 H   0  0  0  0  0  0  0  0  0  0  0  0
   57.8613   25.6553   44.6383 H   0  0  0  0  0  0  0  0  0  0  0  0
   58.0052   23.2833   43.8922 H   0  0  0  0  0  0  0  0  0  0  0  0
   53.9776   22.5866   45.3510 H   0  0  0  0  0  0  0  0  0  0  0  0
   53.8813   24.9298   46.1974 H   0  0  0  0  0  0  0  0  0  0  0  0
   57.7409   29.4799   47.8470 H   0  0  0  0  0  0  0  0  0  0  0  0
  1  2  2  0
  2  3  1  0
  3  4  1  0
  4  5  2  0
  5  6  1  0
  6  7  2  0
  7  8  1  0
  8  9  1  0
  9 10  2  0
  9 11  2  0
  9 12  1  0
 12 13  1  0
 13 14  1  0
 14 15  1  0
 15 16  1  0
 16 17  1  0
  8 18  2  0
  2 19  1  0
 19 20  2  0
 20 21  1  0
 21 22  2  0
 22 23  1  0
 23 24  1  0
 24 25  2  0
 24 26  2  0
 24 27  1  0
 27 28  1  0
 28 29  2  0
 29 30  1  0
 30 31  2  0
 31 32  1  0
 32 33  2  0
 32 34  1  0
 31 35  1  0
 35 36  2  0
 23 37  2  0
 18  4  1  0
 37 19  1  0
 17 12  1  0
 36 28  1  0
  5 38  1  0
  6 39  1  0
  7 40  1  0
 13 41  1  0
 13 42  1  0
 14 43  1  0
 14 44  1  0
 16 45  1  0
 16 46  1  0
 17 47  1  0
 17 48  1  0
 18 49  1  0
 20 50  1  0
 21 51  1  0
 22 52  1  0
 29 53  1  0
 30 54  1  0
 35 55  1  0
 36 56  1  0
 37 57  1  0
M  CHG  4   3  -1  27  -1  32   1  34  -1
M  END
>  <UniqueID>  (6) 
6

>  <SMILES>  (6) 
O=C([N-]c1cccc(S(=O)(=O)N2CCOCC2)c1)c1cccc(S(=O)(=O)[N-]c2ccc([N+](=O)[O-])cc2)c1

>  <Energy>  (6) 
79.07631011186882

>  <Genealogy>  (6) 
O=C([N-]c1cccc(S(=O)(=O)N2CCOCC2)c1)c1cccc(S(=O)(=O)[N-]c2ccc([N+](=O)[O-])cc2)c1 (protonated)
O=C([N-]c1cccc(S(=O)(=O)N2CCOCC2)c1)c1cccc(S(=O)(=O)[N-]c2ccc([N+](=O)[O-])cc2)c1 (3D coordinates assigned)
O=C([N-]c1cccc(S(=O)(=O)N2CCOCC2)c1)c1cccc(S(=O)(=O)[N-]c2ccc([N+](=O)[O-])cc2)c1 (nonaromatic ring conformer: 79.07631011186882 kcal/mol)

>  <smiles>  (6) 
O=C(Nc1cccc(S(=O)(=O)N2CCOCC2)c1)c1cccc(S(=O)(=O)Nc2ccc([N+](=O)[O-])cc2)c1

>  <score_type>  (6) 
oracle

>  <origin>  (6) 
adg

>  <m_score__min__energy>  (6) 
-13.94

>  <m_primary>  (6) 
energy

$$$$
6:0
     RDKit          3D

 45 47  0  0  0  0  0  0  0  0999 V2000
   60.0200   34.5150   49.7200 H   0  0  0  0  0  0  0  0  0  0  0  0
   59.6440   34.1390   48.8570 O   0  0  0  0  0  0  0  0  0  0  0  0
   59.8580   32.8140   48.4850 C   0  0  0  0  0  0  0  0  0  0  0  0
   59.0490   31.8060   49.0210 C   0  0  0  0  0  0  0  0  0  0  0  0
   58.2519   32.0635   49.7339 H   0  0  0  0  0  0  0  0  0  0  0  0
   59.2510   30.4730   48.6530 C   0  0  0  0  0  0  0  0  0  0  0  0
   58.6172   29.6843   49.0846 H   0  0  0  0  0  0  0  0  0  0  0  0
   60.2590   30.1350   47.7350 C   0  0  0  0  0  0  0  0  0  0  0  0
   60.4690   28.6960   47.3400 C   0  0  0  0  0  0  0  0  0  0  0  0
   61.3809   28.3173   47.8249 H   0  0  0  0  0  0  0  0  0  0  0  0
   60.5684   28.6393   46.2460 H   0  0  0  0  0  0  0  0  0  0  0  0
   59.3300   27.8780   47.7530 N   0  0  0  0  0  0  0  0  0  0  0  0
   58.2360   27.7230   47.0670 C   0  0  0  0  0  0  0  0  0  0  0  0
   57.7670   28.7560   46.3260 N   0  0  0  0  0  0  0  0  0  0  0  0
   56.6270   28.6220   45.5970 C   0  0  0  0  0  0  0  0  0  0  0  0
   56.1180   29.6990   44.7940 N   0  0  0  0  0  0  0  0  0  0  0  0
   56.7300   30.8020   44.4710 C   0  0  0  0  0  0  0  0  0  0  0  0
   57.0360   31.7450   45.4050 N   0  0  0  0  0  0  0  0  0  0  0  0
   57.6780   32.8950   45.0670 C   0  0  0  0  0  0  0  0  0  0  0  0
   58.0010   33.9050   46.1200 C   0  0  0  0  0  0  0  0  0  0  0  0
   57.8577   33.4568   47.1143 H   0  0  0  0  0  0  0  0  0  0  0  0
   59.0470   34.2273   46.0104 H   0  0  0  0  0  0  0  0  0  0  0  0
   57.3361   34.7744   46.0104 H   0  0  0  0  0  0  0  0  0  0  0  0
   58.0340   33.1200   43.7340 C   0  0  0  0  0  0  0  0  0  0  0  0
   58.5616   34.0396   43.4407 H   0  0  0  0  0  0  0  0  0  0  0  0
   57.7050   32.1510   42.7820 C   0  0  0  0  0  0  0  0  0  0  0  0
   58.0880   32.3360   41.3490 C   0  0  0  0  0  0  0  0  0  0  0  0
   59.0772   32.8138   41.2926 H   0  0  0  0  0  0  0  0  0  0  0  0
   58.1250   31.3564   40.8499 H   0  0  0  0  0  0  0  0  0  0  0  0
   57.3437   32.9739   40.8499 H   0  0  0  0  0  0  0  0  0  0  0  0
   57.0690   31.0140   43.1720 N   0  0  0  0  0  0  0  0  0  0  0  0
   55.9560   27.4430   45.6200 N   0  0  0  0  0  0  0  0  0  0  0  0
   56.4130   26.4040   46.3600 C   0  0  0  0  0  0  0  0  0  0  0  0
   55.7430   25.2900   46.3740 N   0  0  0  0  0  0  0  0  0  0  0  0
   56.3290   23.9530   46.2630 C   0  0  0  0  0  0  0  0  0  0  0  0
   55.7705   23.3810   45.5075 H   0  0  0  0  0  0  0  0  0  0  0  0
   57.3843   24.0649   45.9734 H   0  0  0  0  0  0  0  0  0  0  0  0
   56.2790   23.2140   47.5660 C   0  0  0  0  0  0  0  0  0  0  0  0
   55.3400   23.4020   48.3850 O   0  0  0  0  0  0  0  0  0  0  0  0
   57.3060   22.3370   47.8930 O   0  0  0  0  0  0  0  0  0  0  0  0
   57.5580   26.5440   47.0820 N   0  0  0  0  0  0  0  0  0  0  0  0
   61.0760   31.1480   47.2080 C   0  0  0  0  0  0  0  0  0  0  0  0
   61.8765   30.8925   46.4981 H   0  0  0  0  0  0  0  0  0  0  0  0
   60.8760   32.4800   47.5820 C   0  0  0  0  0  0  0  0  0  0  0  0
   61.5201   33.2687   47.1659 H   0  0  0  0  0  0  0  0  0  0  0  0
  1  2  1  0
  2  3  1  0
  3  4  2  0
  4  5  1  0
  4  6  1  0
  6  7  1  0
  6  8  2  0
  8  9  1  0
  9 10  1  0
  9 11  1  0
  9 12  1  0
 12 13  2  0
 13 14  1  0
 14 15  1  0
 15 16  1  0
 16 17  2  3
 17 18  1  0
 18 19  2  0
 19 20  1  0
 20 21  1  0
 20 22  1  0
 20 23  1  0
 19 24  1  0
 24 25  1  0
 24 26  2  0
 26 27  1  0
 27 28  1  0
 27 29  1  0
 27 30  1  0
 26 31  1  0
 15 32  2  0
 32 33  1  0
 33 34  2  3
 34 35  1  0
 35 36  1  0
 35 37  1  0
 35 38  1  0
 38 39  2  0
 38 40  1  0
 33 41  1  0
  8 42  1  0
 42 43  1  0
 42 44  2  0
 44 45  1  0
 44  3  1  0
 41 13  1  0
 31 17  1  0
M  CHG  4  14  -1  31  -1  40  -1  41  -1
M  END
>  <UniqueID>  (7) 
7

>  <SMILES>  (7) 
Cc1cc(C)[n-]c(=Nc2nc(=NCC(=O)[O-])[n-]/c(=N\Cc3ccc(O)cc3)[n-]2)n1

>  <Energy>  (7) 
45.910523608054575

>  <Genealogy>  (7) 
Cc1cc(C)[n-]c(=Nc2nc(=NCC(=O)[O-])[n-]c(=NCc3ccc(O)cc3)[n-]2)n1 (protonated)
Cc1cc(C)[n-]c(=Nc2nc(=NCC(=O)[O-])[n-]/c(=N\Cc3ccc(O)cc3)[n-]2)n1 (cis-trans isomerization)
Cc1cc(C)[n-]c(=Nc2nc(=NCC(=O)[O-])[n-]/c(=N\Cc3ccc(O)cc3)[n-]2)n1 (3D coordinates assigned)
Cc1cc(C)[n-]c(=Nc2nc(=NCC(=O)[O-])[n-]/c(=N\Cc3ccc(O)cc3)[n-]2)n1 (optimized conformer: 45.910523608054575 kcal/mol)

>  <smiles>  (7) 
Cc1cc(C)[nH]c(=Nc2nc(=NCC(=O)O)[nH]c(=NCc3ccc(O)cc3)[nH]2)n1

>  <score_type>  (7) 
oracle

>  <origin>  (7) 
adg

>  <m_score__min__energy>  (7) 
-14.109999999999999

>  <m_primary>  (7) 
energy

$$$$
7:0
     RDKit          3D

 39 41  0  0  0  0  0  0  0  0999 V2000
   56.6630   22.9980   41.7470 H   0  0  0  0  0  0  0  0  0  0  0  0
   55.8860   22.7720   42.4080 N   0  0  0  0  0  0  0  0  0  0  0  0
   56.0500   22.7460   43.6920 C   0  0  0  0  0  0  0  0  0  0  0  0
   55.8520   21.5830   44.3660 N   0  0  0  0  0  0  0  0  0  0  0  0
   56.0020   21.4980   45.7130 C   0  0  0  0  0  0  0  0  0  0  0  0
   55.8330   20.5382   46.2231 H   0  0  0  0  0  0  0  0  0  0  0  0
   56.3710   22.6270   46.4560 C   0  0  0  0  0  0  0  0  0  0  0  0
   56.5810   22.5130   48.2040 S   0  0  0  0  0  0  0  0  0  0  0  0
   57.3150   21.2470   48.5430 O   0  0  0  0  0  0  0  0  0  0  0  0
   57.3790   23.6830   48.7100 O   0  0  0  0  0  0  0  0  0  0  0  0
   54.9870   22.5160   48.9950 C   0  0  0  0  0  0  0  0  0  0  0  0
   55.1196   22.5158   50.0870 H   0  0  0  0  0  0  0  0  0  0  0  0
   54.4297   23.4152   48.6935 H   0  0  0  0  0  0  0  0  0  0  0  0
   54.4264   21.6189   48.6935 H   0  0  0  0  0  0  0  0  0  0  0  0
   56.6040   23.8400   45.7850 C   0  0  0  0  0  0  0  0  0  0  0  0
   56.9680   24.9760   46.5220 O   0  0  0  0  0  0  0  0  0  0  0  0
   57.1880   26.2550   45.9890 C   0  0  0  0  0  0  0  0  0  0  0  0
   58.4820   26.7380   45.7320 C   0  0  0  0  0  0  0  0  0  0  0  0
   59.3545   26.1004   45.9373 H   0  0  0  0  0  0  0  0  0  0  0  0
   58.6670   28.0240   45.2170 C   0  0  0  0  0  0  0  0  0  0  0  0
   59.6848   28.3862   45.0097 H   0  0  0  0  0  0  0  0  0  0  0  0
   57.5650   28.8600   44.9610 C   0  0  0  0  0  0  0  0  0  0  0  0
   57.7610   30.2260   44.4130 C   0  0  0  0  0  0  0  0  0  0  0  0
   57.3680   30.7080   43.1710 C   0  0  0  0  0  0  0  0  0  0  0  0
   56.8504   30.1215   42.3976 H   0  0  0  0  0  0  0  0  0  0  0  0
   57.7180   32.0040   43.0590 N   0  0  0  0  0  0  0  0  0  0  0  0
   58.3300   32.3500   44.1810 N   0  0  0  0  0  0  0  0  0  0  0  0
   58.8030   33.6980   44.4650 C   0  0  0  0  0  0  0  0  0  0  0  0
   58.8551   33.8465   45.5537 H   0  0  0  0  0  0  0  0  0  0  0  0
   59.8030   33.8354   44.0279 H   0  0  0  0  0  0  0  0  0  0  0  0
   58.1081   34.4301   44.0279 H   0  0  0  0  0  0  0  0  0  0  0  0
   58.3650   31.3080   45.0310 C   0  0  0  0  0  0  0  0  0  0  0  0
   58.7984   31.3143   46.0420 H   0  0  0  0  0  0  0  0  0  0  0  0
   56.2720   28.3770   45.2400 C   0  0  0  0  0  0  0  0  0  0  0  0
   55.3985   29.0188   45.0530 H   0  0  0  0  0  0  0  0  0  0  0  0
   56.0880   27.0880   45.7530 C   0  0  0  0  0  0  0  0  0  0  0  0
   54.8020   26.6340   46.0260 O   0  0  0  0  0  0  0  0  0  0  0  0
   56.4260   23.9000   44.3930 C   0  0  0  0  0  0  0  0  0  0  0  0
   56.5808   24.8474   43.8560 H   0  0  0  0  0  0  0  0  0  0  0  0
  1  2  1  0
  2  3  2  0
  3  4  1  0
  4  5  1  0
  5  6  1  0
  5  7  2  0
  7  8  1  0
  8  9  2  0
  8 10  2  0
  8 11  1  0
 11 12  1  0
 11 13  1  0
 11 14  1  0
  7 15  1  0
 15 16  1  0
 16 17  1  0
 17 18  2  0
 18 19  1  0
 18 20  1  0
 20 21  1  0
 20 22  2  0
 22 23  1  0
 23 24  1  0
 24 25  1  0
 24 26  2  0
 26 27  1  0
 27 28  1  0
 28 29  1  0
 28 30  1  0
 28 31  1  0
 27 32  1  0
 32 33  1  0
 22 34  1  0
 34 35  1  0
 34 36  2  0
 36 37  1  0
 15 38  2  0
 38 39  1  0
 38  3  1  0
 36 17  1  0
 32 23  2  0
M  CHG  2   4  -1  37  -1
M  END
>  <UniqueID>  (8) 
8

>  <SMILES>  (8) 
[H]/N=c1\cc(Oc2ccc(-c3cnn(C)c3)cc2[O-])c(S(C)(=O)=O)c[n-]1

>  <Energy>  (8) 
77.52111379233338

>  <Genealogy>  (8) 
Cn1cc(-c2ccc(Oc3cc(=N)[n-]cc3S(C)(=O)=O)c([O-])c2)cn1 (protonated)
[H]/N=c1\cc(Oc2ccc(-c3cnn(C)c3)cc2[O-])c(S(C)(=O)=O)c[n-]1 (cis-trans isomerization)
[H]/N=c1\cc(Oc2ccc(-c3cnn(C)c3)cc2[O-])c(S(C)(=O)=O)c[n-]1 (3D coordinates assigned)
[H]/N=c1\cc(Oc2ccc(-c3cnn(C)c3)cc2[O-])c(S(C)(=O)=O)c[n-]1 (optimized conformer: 77.52111379233338 kcal/mol)

>  <smiles>  (8) 
Cn1cc(-c2ccc(Oc3cc(=N)[nH]cc3S(C)(=O)=O)c(O)c2)cn1

>  <score_type>  (8) 
oracle

>  <origin>  (8) 
adg

>  <m_score__min__energy>  (8) 
-12.470000000000001

>  <m_primary>  (8) 
energy

$$$$
8:0
     RDKit          3D

 38 39  0  0  0  0  0  0  0  0999 V2000
   55.9060   29.8120   43.0670 C   0  0  0  0  0  0  0  0  0  0  0  0
   56.6590   29.5720   44.1420 C   0  0  0  0  0  0  0  0  0  0  0  0
   56.5200   28.4370   44.8690 N   0  0  0  0  0  0  0  0  0  0  0  0
   57.4490   28.5390   45.8410 C   0  0  0  0  0  0  0  0  0  0  0  0
   57.6660   27.6230   46.7970 C   0  0  0  0  0  0  0  0  0  0  0  0
   57.1690   26.2350   46.7260 C   0  0  0  0  0  0  0  0  0  0  0  0
   57.8910   25.1330   47.0040 N   0  0  0  0  0  0  0  0  0  0  0  0
   57.0160   24.1250   46.7980 C   0  0  0  0  0  0  0  0  0  0  0  0
   57.3240   22.9160   46.9570 O   0  0  0  0  0  0  0  0  0  0  0  0
   55.7830   24.5150   46.4070 N   0  0  0  0  0  0  0  0  0  0  0  0
   55.8990   25.8520   46.3670 C   0  0  0  0  0  0  0  0  0  0  0  0
   54.8620   26.7060   46.0090 O   0  0  0  0  0  0  0  0  0  0  0  0
   58.1300   29.7250   45.6820 C   0  0  0  0  0  0  0  0  0  0  0  0
   59.0830   30.1320   46.4010 O   0  0  0  0  0  0  0  0  0  0  0  0
   57.6320   30.3940   44.6260 N   0  0  0  0  0  0  0  0  0  0  0  0
   58.1250   31.6770   44.1040 C   0  0  0  0  0  0  0  0  0  0  0  0
   57.7850   32.8000   45.0480 C   0  0  0  0  0  0  0  0  0  0  0  0
   56.5720   33.0060   45.3160 O   0  0  0  0  0  0  0  0  0  0  0  0
   58.8120   33.6530   45.6120 N   0  0  0  0  0  0  0  0  0  0  0  0
   59.2410   34.8460   44.8730 C   0  0  0  0  0  0  0  0  0  0  0  0
   59.4290   33.3580   46.9230 C   0  0  0  0  0  0  0  0  0  0  0  0
   58.4150   32.7360   47.8900 C   0  0  0  0  0  0  0  0  0  0  0  0
   60.0920   34.6060   47.5210 C   0  0  0  0  0  0  0  0  0  0  0  0
   56.0421   30.7428   42.4968 H   0  0  0  0  0  0  0  0  0  0  0  0
   55.1491   29.0791   42.7509 H   0  0  0  0  0  0  0  0  0  0  0  0
   58.2461   27.9228   47.6822 H   0  0  0  0  0  0  0  0  0  0  0  0
   59.2172   31.6230   43.9851 H   0  0  0  0  0  0  0  0  0  0  0  0
   57.6454   31.8725   43.1335 H   0  0  0  0  0  0  0  0  0  0  0  0
   59.5249   35.6356   45.5843 H   0  0  0  0  0  0  0  0  0  0  0  0
   60.1050   34.5944   44.2404 H   0  0  0  0  0  0  0  0  0  0  0  0
   58.4147   35.2023   44.2404 H   0  0  0  0  0  0  0  0  0  0  0  0
   60.2220   32.6135   46.7588 H   0  0  0  0  0  0  0  0  0  0  0  0
   58.7301   32.9293   48.9260 H   0  0  0  0  0  0  0  0  0  0  0  0
   57.4240   33.1818   47.7189 H   0  0  0  0  0  0  0  0  0  0  0  0
   58.3633   31.6506   47.7189 H   0  0  0  0  0  0  0  0  0  0  0  0
   60.0608   34.5473   48.6190 H   0  0  0  0  0  0  0  0  0  0  0  0
   61.1384   34.6613   47.1863 H   0  0  0  0  0  0  0  0  0  0  0  0
   59.5521   35.5040   47.1863 H   0  0  0  0  0  0  0  0  0  0  0  0
  1  2  2  0
  2  3  1  0
  3  4  1  0
  4  5  2  3
  5  6  1  0
  6  7  1  0
  7  8  1  0
  8  9  2  0
  8 10  1  0
 10 11  1  0
 11 12  1  0
  4 13  1  0
 13 14  2  0
 13 15  1  0
 15 16  1  0
 16 17  1  0
 17 18  2  0
 17 19  1  0
 19 20  1  0
 19 21  1  0
 21 22  1  0
 21 23  1  0
 15  2  1  0
 11  6  2  0
  1 24  1  0
  1 25  1  0
  5 26  1  0
 16 27  1  0
 16 28  1  0
 20 29  1  0
 20 30  1  0
 20 31  1  0
 21 32  1  0
 22 33  1  0
 22 34  1  0
 22 35  1  0
 23 36  1  0
 23 37  1  0
 23 38  1  0
M  CHG  4   3  -1   7  -1  10  -1  12  -1
M  END
>  <UniqueID>  (9) 
9

>  <SMILES>  (9) 
C=c1[n-]c(=Cc2[n-]c(=O)[n-]c2[O-])c(=O)n1CC(=O)N(C)C(C)C

>  <Energy>  (9) 
96.93480060010656

>  <Genealogy>  (9) 
C=c1[n-]c(=Cc2[n-]c(=O)[n-]c2[O-])c(=O)n1CC(=O)N(C)C(C)C (protonated)
C=c1[n-]c(=Cc2[n-]c(=O)[n-]c2[O-])c(=O)n1CC(=O)N(C)C(C)C (3D coordinates assigned)
C=c1[n-]c(=Cc2[n-]c(=O)[n-]c2[O-])c(=O)n1CC(=O)N(C)C(C)C (optimized conformer: 96.93480060010656 kcal/mol)

>  <smiles>  (9) 
C=c1[nH]c(=Cc2[nH]c(=O)[nH]c2O)c(=O)n1CC(=O)N(C)C(C)C

>  <score_type>  (9) 
oracle

>  <origin>  (9) 
adg

>  <m_score__min__energy>  (9) 
-16

>  <m_primary>  (9) 
energy

$$$$
9:0
     RDKit          3D

 73 75  0  0  0  0  0  0  0  0999 V2000
   55.5700   28.5630   45.2020 N   0  0  0  0  0  0  0  0  0  0  0  0
   56.7920   29.2950   45.2290 C   0  0  0  0  0  0  0  0  0  0  0  0
   56.8030   30.5140   44.9100 O   0  0  0  0  0  0  0  0  0  0  0  0
   58.0720   28.5980   45.5750 C   0  0  0  0  0  0  0  0  0  0  0  0
   57.9880   27.9280   46.9600 C   0  0  2  0  0  0  0  0  0  0  0  0
   59.1600   28.2680   47.7680 N   0  0  0  0  0  0  0  0  0  0  0  0
   59.8180   29.5420   47.7890 C   0  0  0  0  0  0  0  0  0  0  0  0
   60.2760   30.0380   46.7210 O   0  0  0  0  0  0  0  0  0  0  0  0
   59.9230   30.2970   49.0910 C   0  0  1  0  0  0  0  0  0  0  0  0
   58.7430   29.9890   50.0310 C   0  0  0  0  0  0  0  0  0  0  0  0
   58.4070   31.1390   50.9490 C   0  0  0  0  0  0  0  0  0  0  0  0
   58.9860   32.4000   50.7450 C   0  0  0  0  0  0  0  0  0  0  0  0
   58.6600   33.4660   51.5900 C   0  0  0  0  0  0  0  0  0  0  0  0
   57.7520   33.2770   52.6400 C   0  0  0  0  0  0  0  0  0  0  0  0
   57.1770   32.0230   52.8540 C   0  0  0  0  0  0  0  0  0  0  0  0
   57.5010   30.9560   52.0090 C   0  0  0  0  0  0  0  0  0  0  0  0
   61.1860   30.0230   49.7750 N   0  0  0  0  0  0  0  0  0  0  0  0
   61.9720   31.0170   50.4460 C   0  0  0  0  0  0  0  0  0  0  0  0
   61.6100   31.4760   51.5630 O   0  0  0  0  0  0  0  0  0  0  0  0
   63.2380   31.5050   49.8140 C   0  0  0  0  0  0  0  0  0  0  0  0
   62.9460   32.3470   48.6040 C   0  0  0  0  0  0  0  0  0  0  0  0
   63.9890   32.9800   47.9200 C   0  0  0  0  0  0  0  0  0  0  0  0
   63.7150   33.7700   46.8020 C   0  0  0  0  0  0  0  0  0  0  0  0
   62.4000   33.9500   46.3690 C   0  0  0  0  0  0  0  0  0  0  0  0
   61.3360   33.3110   47.0320 C   0  0  0  0  0  0  0  0  0  0  0  0
   59.9280   33.5020   46.5760 C   0  0  0  0  0  0  0  0  0  0  0  0
   58.8450   33.0310   47.3510 C   0  0  0  0  0  0  0  0  0  0  0  0
   57.5290   33.1920   46.9110 C   0  0  0  0  0  0  0  0  0  0  0  0
   57.2710   33.8410   45.7000 C   0  0  0  0  0  0  0  0  0  0  0  0
   58.3300   34.3180   44.9230 C   0  0  0  0  0  0  0  0  0  0  0  0
   59.6490   34.1530   45.3550 C   0  0  0  0  0  0  0  0  0  0  0  0
   61.6270   32.4950   48.1440 C   0  0  0  0  0  0  0  0  0  0  0  0
   57.8190   26.4310   46.8700 C   0  0  0  0  0  0  0  0  0  0  0  0
   58.8250   25.6720   46.8630 O   0  0  0  0  0  0  0  0  0  0  0  0
   56.5000   25.8840   46.7590 N   0  0  0  0  0  0  0  0  0  0  0  0
   56.1200   24.6400   46.0880 C   0  0  2  0  0  0  0  0  0  0  0  0
   57.1030   24.2920   44.9520 C   0  0  0  0  0  0  0  0  0  0  0  0
   57.2330   22.7820   44.6890 C   0  0  0  0  0  0  0  0  0  0  0  0
   56.3860   22.3340   43.5380 C   0  0  0  0  0  0  0  0  0  0  0  0
   56.0590   23.1460   42.6330 O   0  0  0  0  0  0  0  0  0  0  0  0
   55.9570   21.0160   43.4620 O   0  0  0  0  0  0  0  0  0  0  0  0
   54.6900   24.7010   45.6280 C   0  0  0  0  0  0  0  0  0  0  0  0
   53.9550   25.9130   45.7740 N   0  0  0  0  0  0  0  0  0  0  0  0
   54.1340   23.6900   45.1180 O   0  0  0  0  0  0  0  0  0  0  0  0
   55.5480   27.5430   45.4220 H   0  0  0  0  0  0  0  0  0  0  0  0
   58.2772   27.8283   44.8165 H   0  0  0  0  0  0  0  0  0  0  0  0
   58.8787   29.3454   45.5992 H   0  0  0  0  0  0  0  0  0  0  0  0
   57.0868   28.3218   47.4527 H   0  0  0  0  0  0  0  0  0  0  0  0
   59.8895   31.3655   48.8319 H   0  0  0  0  0  0  0  0  0  0  0  0
   57.8583   29.7581   49.4195 H   0  0  0  0  0  0  0  0  0  0  0  0
   59.0378   29.1380   50.6626 H   0  0  0  0  0  0  0  0  0  0  0  0
   59.6973   32.5509   49.9196 H   0  0  0  0  0  0  0  0  0  0  0  0
   59.1170   34.4537   51.4299 H   0  0  0  0  0  0  0  0  0  0  0  0
   57.4913   34.1192   53.2978 H   0  0  0  0  0  0  0  0  0  0  0  0
   56.4713   31.8742   53.6845 H   0  0  0  0  0  0  0  0  0  0  0  0
   57.0448   29.9689   52.1746 H   0  0  0  0  0  0  0  0  0  0  0  0
   63.7961   32.1078   50.5455 H   0  0  0  0  0  0  0  0  0  0  0  0
   63.8314   30.6337   49.4998 H   0  0  0  0  0  0  0  0  0  0  0  0
   65.0265   32.8552   48.2634 H   0  0  0  0  0  0  0  0  0  0  0  0
   64.5403   34.2536   46.2589 H   0  0  0  0  0  0  0  0  0  0  0  0
   62.1941   34.5962   45.5030 H   0  0  0  0  0  0  0  0  0  0  0  0
   59.0401   32.5319   48.3116 H   0  0  0  0  0  0  0  0  0  0  0  0
   56.6955   32.8080   47.5175 H   0  0  0  0  0  0  0  0  0  0  0  0
   56.2341   33.9762   45.3586 H   0  0  0  0  0  0  0  0  0  0  0  0
   58.1250   34.8249   43.9685 H   0  0  0  0  0  0  0  0  0  0  0  0
   60.4765   34.5336   44.7383 H   0  0  0  0  0  0  0  0  0  0  0  0
   60.8104   31.9671   48.6583 H   0  0  0  0  0  0  0  0  0  0  0  0
   56.1871   23.8152   46.8127 H   0  0  0  0  0  0  0  0  0  0  0  0
   56.7526   24.7766   44.0287 H   0  0  0  0  0  0  0  0  0  0  0  0
   58.0950   24.6511   45.2635 H   0  0  0  0  0  0  0  0  0  0  0  0
   58.2850   22.5504   44.4661 H   0  0  0  0  0  0  0  0  0  0  0  0
   56.8886   22.2513   45.5888 H   0  0  0  0  0  0  0  0  0  0  0  0
   54.3270   26.6950   46.3530 H   0  0  0  0  0  0  0  0  0  0  0  0
  1  2  1  0
  2  3  2  0
  2  4  1  0
  4  5  1  0
  5  6  1  0
  6  7  1  0
  7  8  2  0
  7  9  1  0
  9 10  1  0
 10 11  1  0
 11 12  2  0
 12 13  1  0
 13 14  2  0
 14 15  1  0
 15 16  2  0
  9 17  1  0
 17 18  1  0
 18 19  2  0
 18 20  1  0
 20 21  1  0
 21 22  2  0
 22 23  1  0
 23 24  2  0
 24 25  1  0
 25 26  1  0
 26 27  2  0
 27 28  1  0
 28 29  2  0
 29 30  1  0
 30 31  2  0
 25 32  2  0
  5 33  1  0
 33 34  2  0
 33 35  1  0
 35 36  1  0
 36 37  1  0
 37 38  1  0
 38 39  1  0
 39 40  2  0
 39 41  1  0
 36 42  1  0
 42 43  1  0
 42 44  2  0
 16 11  1  0
 32 21  1  0
 31 26  1  0
  1 45  1  0
  4 46  1  0
  4 47  1  0
  5 48  1  1
  9 49  1  6
 10 50  1  0
 10 51  1  0
 12 52  1  0
 13 53  1  0
 14 54  1  0
 15 55  1  0
 16 56  1  0
 20 57  1  0
 20 58  1  0
 22 59  1  0
 23 60  1  0
 24 61  1  0
 27 62  1  0
 28 63  1  0
 29 64  1  0
 30 65  1  0
 31 66  1  0
 32 67  1  0
 36 68  1  1
 37 69  1  0
 37 70  1  0
 38 71  1  0
 38 72  1  0
 43 73  1  0
M  CHG  6   1  -1   6  -1  17  -1  35  -1  41  -1  43  -1
M  END
>  <UniqueID>  (10) 
10

>  <SMILES>  (10) 
[NH-]C(=O)C[C@H]([N-]C(=O)[C@@H](Cc1ccccc1)[N-]C(=O)Cc1cccc(-c2ccccc2)c1)C(=O)[N-]C(CCC(=O)[O-])C([NH-])=O

>  <Energy>  (10) 
63.786274666632025

>  <Genealogy>  (10) 
[NH-]C(=O)CC([N-]C(=O)C(Cc1ccccc1)[N-]C(=O)Cc1cccc(-c2ccccc2)c1)C(=O)[N-]C(CCC(=O)[O-])C([NH-])=O (protonated)
[NH-]C(=O)C[C@H]([N-]C(=O)[C@@H](Cc1ccccc1)[N-]C(=O)Cc1cccc(-c2ccccc2)c1)C(=O)[N-]C(CCC(=O)[O-])C([NH-])=O (chirality)
[NH-]C(=O)C[C@H]([N-]C(=O)[C@@H](Cc1ccccc1)[N-]C(=O)Cc1cccc(-c2ccccc2)c1)C(=O)[N-]C(CCC(=O)[O-])C([NH-])=O (3D coordinates assigned)
[NH-]C(=O)C[C@H]([N-]C(=O)[C@@H](Cc1ccccc1)[N-]C(=O)Cc1cccc(-c2ccccc2)c1)C(=O)[N-]C(CCC(=O)[O-])C([NH-])=O (optimized conformer: 63.786274666632025 kcal/mol)

>  <smiles>  (10) 
NC(=O)CC(NC(=O)C(Cc1ccccc1)NC(=O)Cc1cccc(-c2ccccc2)c1)C(=O)NC(CCC(=O)O)C(N)=O

>  <score_type>  (10) 
oracle

>  <origin>  (10) 
adg

>  <m_score__min__energy>  (10) 
-22.449999999999999

>  <m_primary>  (10) 
energy

$$$$
10:0
     RDKit          3D

 50 52  0  0  0  0  0  0  0  0999 V2000
   56.2660   26.0290   46.3930 C   0  0  0  0  0  0  0  0  0  0  0  0
   56.7070   27.0600   45.6810 C   0  0  0  0  0  0  0  0  0  0  0  0
   55.9240   28.1180   45.2470 O   0  0  0  0  0  0  0  0  0  0  0  0
   56.7570   28.9870   44.5350 C   0  0  0  0  0  0  0  0  0  0  0  0
   56.2690   30.2430   43.8860 C   0  0  0  0  0  0  0  0  0  0  0  0
   56.4670   31.3590   44.7510 O   0  0  0  0  0  0  0  0  0  0  0  0
   57.3950   32.3770   44.4940 C   0  0  0  0  0  0  0  0  0  0  0  0
   57.3930   32.9670   43.3780 O   0  0  0  0  0  0  0  0  0  0  0  0
   58.3480   32.7430   45.5080 N   0  0  0  0  0  0  0  0  0  0  0  0
   59.3610   33.7810   45.2530 C   0  0  0  0  0  0  0  0  0  0  0  0
   59.6240   34.6390   46.5090 C   0  0  0  0  0  0  0  0  0  0  0  0
   59.3410   33.9280   47.7780 N   0  0  0  0  0  0  0  0  0  0  0  0
   60.0080   34.5300   48.9530 C   0  0  0  0  0  0  0  0  0  0  0  0
   61.1760   33.6820   49.5190 C   0  0  0  0  0  0  0  0  0  0  0  0
   62.4920   34.0280   48.9360 N   0  0  0  0  0  0  0  0  0  0  0  0
   63.6610   33.6350   49.7510 C   0  0  0  0  0  0  0  0  0  0  0  0
   64.2580   32.2660   49.3420 C   0  0  0  0  0  0  0  0  0  0  0  0
   63.6530   31.7150   48.1900 O   0  0  0  0  0  0  0  0  0  0  0  0
   63.6400   32.6770   47.1620 C   0  0  0  0  0  0  0  0  0  0  0  0
   62.6190   33.7770   47.4830 C   0  0  0  0  0  0  0  0  0  0  0  0
   59.4940   32.4680   47.6810 C   0  0  0  0  0  0  0  0  0  0  0  0
   58.4260   31.9290   46.7300 C   0  0  0  0  0  0  0  0  0  0  0  0
   58.0180   28.5530   44.4860 C   0  0  0  0  0  0  0  0  0  0  0  0
   58.0580   27.2970   45.2160 C   0  0  0  0  0  0  0  0  0  0  0  0
   59.0680   26.5670   45.4010 O   0  0  0  0  0  0  0  0  0  0  0  0
   56.9610   25.2316   46.6949 H   0  0  0  0  0  0  0  0  0  0  0  0
   55.2058   25.9726   46.6807 H   0  0  0  0  0  0  0  0  0  0  0  0
   56.8239   30.4067   42.9504 H   0  0  0  0  0  0  0  0  0  0  0  0
   55.1942   30.1413   43.6753 H   0  0  0  0  0  0  0  0  0  0  0  0
   60.3003   33.2960   44.9489 H   0  0  0  0  0  0  0  0  0  0  0  0
   58.9844   34.4413   44.4579 H   0  0  0  0  0  0  0  0  0  0  0  0
   60.6811   34.9433   46.5082 H   0  0  0  0  0  0  0  0  0  0  0  0
   58.9427   35.5013   46.4613 H   0  0  0  0  0  0  0  0  0  0  0  0
   60.4050   35.5129   48.6594 H   0  0  0  0  0  0  0  0  0  0  0  0
   59.2507   34.5989   49.7479 H   0  0  0  0  0  0  0  0  0  0  0  0
   61.2249   33.8383   50.6067 H   0  0  0  0  0  0  0  0  0  0  0  0
   60.9714   32.6333   49.2577 H   0  0  0  0  0  0  0  0  0  0  0  0
   64.4398   34.4036   49.6384 H   0  0  0  0  0  0  0  0  0  0  0  0
   63.3176   33.5437   50.7920 H   0  0  0  0  0  0  0  0  0  0  0  0
   65.3317   32.3985   49.1432 H   0  0  0  0  0  0  0  0  0  0  0  0
   64.0737   31.5686   50.1724 H   0  0  0  0  0  0  0  0  0  0  0  0
   64.6405   33.1247   47.0698 H   0  0  0  0  0  0  0  0  0  0  0  0
   63.3597   32.1900   46.2163 H   0  0  0  0  0  0  0  0  0  0  0  0
   62.9374   34.7079   46.9910 H   0  0  0  0  0  0  0  0  0  0  0  0
   61.6385   33.4395   47.1159 H   0  0  0  0  0  0  0  0  0  0  0  0
   60.4937   32.2250   47.2918 H   0  0  0  0  0  0  0  0  0  0  0  0
   59.3782   32.0107   48.6747 H   0  0  0  0  0  0  0  0  0  0  0  0
   58.6773   30.8935   46.4568 H   0  0  0  0  0  0  0  0  0  0  0  0
   57.4518   31.9680   47.2394 H   0  0  0  0  0  0  0  0  0  0  0  0
   58.8640   29.0501   43.9889 H   0  0  0  0  0  0  0  0  0  0  0  0
  1  2  2  0
  2  3  1  0
  3  4  1  0
  4  5  1  0
  5  6  1  0
  6  7  1  0
  7  8  2  0
  7  9  1  0
  9 10  1  0
 10 11  1  0
 11 12  1  0
 12 13  1  0
 13 14  1  0
 14 15  1  0
 15 16  1  0
 16 17  1  0
 17 18  1  0
 18 19  1  0
 19 20  1  0
 12 21  1  0
 21 22  1  0
  4 23  2  0
 23 24  1  0
 24 25  2  0
 24  2  1  0
 22  9  1  0
 20 15  1  0
  1 26  1  0
  1 27  1  0
  5 28  1  0
  5 29  1  0
 10 30  1  0
 10 31  1  0
 11 32  1  0
 11 33  1  0
 13 34  1  0
 13 35  1  0
 14 36  1  0
 14 37  1  0
 16 38  1  0
 16 39  1  0
 17 40  1  0
 17 41  1  0
 19 42  1  0
 19 43  1  0
 20 44  1  0
 20 45  1  0
 21 46  1  0
 21 47  1  0
 22 48  1  0
 22 49  1  0
 23 50  1  0
M  END
>  <UniqueID>  (11) 
11

>  <SMILES>  (11) 
C=C1OC(COC(=O)N2CCN(CCN3CCOCC3)CC2)=CC1=O

>  <Energy>  (11) 
95.32056463520045

>  <Genealogy>  (11) 
C=C1OC(COC(=O)N2CCN(CCN3CCOCC3)CC2)=CC1=O (3D coordinates assigned)
C=C1OC(COC(=O)N2CCN(CCN3CCOCC3)CC2)=CC1=O (nonaromatic ring conformer: 95.32056463520045 kcal/mol)

>  <smiles>  (11) 
C=C1OC(COC(=O)N2CCN(CCN3CCOCC3)CC2)=CC1=O

>  <score_type>  (11) 
oracle

>  <origin>  (11) 
adg

>  <m_score__min__energy>  (11) 
-8.2200000000000006

>  <m_primary>  (11) 
energy

$$$$
11:0
     RDKit          3D

 46 48  0  0  0  0  0  0  0  0999 V2000
   58.0950   27.3130   43.2230 C   0  0  0  0  0  0  0  0  0  0  0  0
   58.3000   27.8300   44.4400 C   0  0  0  0  0  0  0  0  0  0  0  0
   58.5730   29.1390   44.6180 N   0  0  0  0  0  0  0  0  0  0  0  0
   58.5320   29.3790   45.9440 C   0  0  0  0  0  0  0  0  0  0  0  0
   58.7380   30.7040   46.5710 C   0  0  0  0  0  0  0  0  0  0  0  0
   58.4770   30.8340   47.7990 O   0  0  0  0  0  0  0  0  0  0  0  0
   59.1770   31.8430   45.7830 N   0  0  2  0  0  0  0  0  0  0  0  0
   59.0940   33.1310   46.4860 C   0  0  0  0  0  0  0  0  0  0  0  0
   59.0600   34.2120   45.4130 C   0  0  0  0  0  0  0  0  0  0  0  0
   58.6360   33.5080   44.1300 C   0  0  0  0  0  0  0  0  0  0  0  0
   58.4570   32.0290   44.5030 C   0  0  2  0  0  0  0  0  0  0  0  0
   56.9550   31.6420   44.5390 C   0  0  0  0  0  0  0  0  0  0  0  0
   56.6790   30.6230   43.6010 O   0  0  0  0  0  0  0  0  0  0  0  0
   55.5420   29.9010   44.0120 C   0  0  0  0  0  0  0  0  0  0  0  0
   58.2400   28.2150   46.6300 C   0  0  0  0  0  0  0  0  0  0  0  0
   58.1280   27.2090   45.6860 C   0  0  0  0  0  0  0  0  0  0  0  0
   57.9080   25.9200   46.0090 C   0  0  0  0  0  0  0  0  0  0  0  0
   56.7700   25.1060   45.5570 C   0  0  0  0  0  0  0  0  0  0  0  0
   56.8510   23.8040   45.2010 N   0  0  0  0  0  0  0  0  0  0  0  0
   55.5620   23.4410   45.0160 C   0  0  0  0  0  0  0  0  0  0  0  0
   55.2220   22.2760   44.6810 O   0  0  0  0  0  0  0  0  0  0  0  0
   54.6810   24.4380   45.2440 N   0  0  0  0  0  0  0  0  0  0  0  0
   53.2240   24.3590   45.2520 C   0  0  0  0  0  0  0  0  0  0  0  0
   55.4440   25.4760   45.6190 C   0  0  0  0  0  0  0  0  0  0  0  0
   54.9540   26.7120   46.0240 O   0  0  0  0  0  0  0  0  0  0  0  0
   57.8743   26.2412   43.1108 H   0  0  0  0  0  0  0  0  0  0  0  0
   58.1472   27.9598   42.3348 H   0  0  0  0  0  0  0  0  0  0  0  0
   58.7280   29.8400   43.8590 H   0  0  0  0  0  0  0  0  0  0  0  0
   60.1920   31.7010   45.5610 H   0  0  0  0  0  0  0  0  0  0  0  0
   58.1792   33.1724   47.0954 H   0  0  0  0  0  0  0  0  0  0  0  0
   59.9510   33.2698   47.1615 H   0  0  0  0  0  0  0  0  0  0  0  0
   58.3334   34.9938   45.6794 H   0  0  0  0  0  0  0  0  0  0  0  0
   60.0377   34.7037   45.3016 H   0  0  0  0  0  0  0  0  0  0  0  0
   57.6890   33.9266   43.7585 H   0  0  0  0  0  0  0  0  0  0  0  0
   59.3824   33.6366   43.3323 H   0  0  0  0  0  0  0  0  0  0  0  0
   58.8816   31.3454   43.7531 H   0  0  0  0  0  0  0  0  0  0  0  0
   56.6985   31.2839   45.5470 H   0  0  0  0  0  0  0  0  0  0  0  0
   56.3554   32.5284   44.2846 H   0  0  0  0  0  0  0  0  0  0  0  0
   55.5015   29.8753   45.1110 H   0  0  0  0  0  0  0  0  0  0  0  0
   54.6367   30.3901   43.6231 H   0  0  0  0  0  0  0  0  0  0  0  0
   55.5996   28.8737   43.6231 H   0  0  0  0  0  0  0  0  0  0  0  0
   58.1196   28.1086   47.7182 H   0  0  0  0  0  0  0  0  0  0  0  0
   58.6431   25.4344   46.6677 H   0  0  0  0  0  0  0  0  0  0  0  0
   52.8636   24.3395   46.2911 H   0  0  0  0  0  0  0  0  0  0  0  0
   52.8064   25.2358   44.7355 H   0  0  0  0  0  0  0  0  0  0  0  0
   52.9037   23.4422   44.7355 H   0  0  0  0  0  0  0  0  0  0  0  0
  1  2  2  0
  2  3  1  0
  3  4  1  0
  4  5  1  0
  5  6  2  0
  5  7  1  0
  7  8  1  0
  8  9  1  0
  9 10  1  0
 10 11  1  0
 11 12  1  0
 12 13  1  0
 13 14  1  0
  4 15  2  0
 15 16  1  0
 16 17  2  3
 17 18  1  0
 18 19  1  0
 19 20  1  0
 20 21  2  0
 20 22  1  0
 22 23  1  0
 22 24  1  0
 24 25  1  0
 16  2  1  0
 24 18  2  0
 11  7  1  0
  1 26  1  0
  1 27  1  0
  3 28  1  0
  7 29  1  6
  8 30  1  0
  8 31  1  0
  9 32  1  0
  9 33  1  0
 10 34  1  0
 10 35  1  0
 11 36  1  6
 12 37  1  0
 12 38  1  0
 14 39  1  0
 14 40  1  0
 14 41  1  0
 15 42  1  0
 17 43  1  0
 23 44  1  0
 23 45  1  0
 23 46  1  0
M  CHG  3   7   1  19  -1  25  -1
M  END
>  <UniqueID>  (12) 
12

>  <SMILES>  (12) 
C=c1[nH]c(C(=O)[N@@H+]2CCC[C@@H]2COC)cc1=Cc1[n-]c(=O)n(C)c1[O-]

>  <Energy>  (12) 
125.62162570533697

>  <Genealogy>  (12) 
C=c1[nH]c(C(=O)[NH+]2CCCC2COC)cc1=Cc1[n-]c(=O)n(C)c1[O-] (protonated)
C=c1[nH]c(C(=O)[N@@H+]2CCC[C@@H]2COC)cc1=Cc1[n-]c(=O)n(C)c1[O-] (chirality)
C=c1[nH]c(C(=O)[N@@H+]2CCC[C@@H]2COC)cc1=Cc1[n-]c(=O)n(C)c1[O-] (3D coordinates assigned)
C=c1[nH]c(C(=O)[N@@H+]2CCC[C@@H]2COC)cc1=Cc1[n-]c(=O)n(C)c1[O-] (nonaromatic ring conformer: 125.62162570533697 kcal/mol)

>  <smiles>  (12) 
C=c1[nH]c(C(=O)N2CCCC2COC)cc1=Cc1[nH]c(=O)n(C)c1O

>  <score_type>  (12) 
oracle

>  <origin>  (12) 
adg

>  <m_score__min__energy>  (12) 
-11.65

>  <m_primary>  (12) 
energy

$$$$
12:0
     RDKit          3D

 40 41  0  0  0  0  0  0  0  0999 V2000
   58.7897   24.8398   47.6634 H   0  0  0  0  0  0  0  0  0  0  0  0
   58.3190   25.6670   47.1120 C   0  0  0  0  0  0  0  0  0  0  0  0
   59.1020   26.7140   46.6190 C   0  0  0  0  0  0  0  0  0  0  0  0
   60.1895   26.7106   46.7844 H   0  0  0  0  0  0  0  0  0  0  0  0
   58.5070   27.7660   45.9160 C   0  0  0  0  0  0  0  0  0  0  0  0
   59.1280   28.5879   45.5303 H   0  0  0  0  0  0  0  0  0  0  0  0
   57.1150   27.7770   45.7000 C   0  0  0  0  0  0  0  0  0  0  0  0
   56.4680   28.8100   44.9990 O   0  0  0  0  0  0  0  0  0  0  0  0
   56.6560   29.1140   43.6170 C   0  0  0  0  0  0  0  0  0  0  0  0
   55.8303   28.6779   43.0355 H   0  0  0  0  0  0  0  0  0  0  0  0
   57.6174   28.6919   43.2891 H   0  0  0  0  0  0  0  0  0  0  0  0
   56.6810   30.5950   43.4010 C   0  0  0  0  0  0  0  0  0  0  0  0
   56.9420   31.0460   42.2540 O   0  0  0  0  0  0  0  0  0  0  0  0
   56.3810   31.4690   44.5010 N   0  0  0  0  0  0  0  0  0  0  0  0
   57.2240   32.0660   45.2910 C   0  0  0  0  0  0  0  0  0  0  0  0
   57.7720   31.4400   46.3530 N   0  0  0  0  0  0  0  0  0  0  0  0
   58.6370   32.2410   47.0350 C   0  0  0  0  0  0  0  0  0  0  0  0
   59.3570   31.7320   48.2440 C   0  0  0  0  0  0  0  0  0  0  0  0
   58.8492   32.0910   49.1514 H   0  0  0  0  0  0  0  0  0  0  0  0
   59.3571   30.6320   48.2347 H   0  0  0  0  0  0  0  0  0  0  0  0
   60.3940   32.0988   48.2347 H   0  0  0  0  0  0  0  0  0  0  0  0
   58.7830   33.5340   46.5050 C   0  0  0  0  0  0  0  0  0  0  0  0
   59.6340   34.6350   46.9950 C   0  0  0  0  0  0  0  0  0  0  0  0
   59.7290   35.6920   46.3130 O   0  0  0  0  0  0  0  0  0  0  0  0
   60.3380   34.5200   48.2350 N   0  0  0  0  0  0  0  0  0  0  0  0
   61.6800   33.9590   48.3580 C   0  0  0  0  0  0  0  0  0  0  0  0
   61.6881   33.2249   49.1772 H   0  0  0  0  0  0  0  0  0  0  0  0
   62.3825   34.7798   48.5650 H   0  0  0  0  0  0  0  0  0  0  0  0
   62.1130   33.2660   47.0620 C   0  0  0  0  0  0  0  0  0  0  0  0
   61.3121   33.3758   46.3161 H   0  0  0  0  0  0  0  0  0  0  0  0
   62.3022   32.2067   47.2904 H   0  0  0  0  0  0  0  0  0  0  0  0
   63.4000   33.8630   46.4950 C   0  0  0  0  0  0  0  0  0  0  0  0
   64.0580   34.1682   47.3220 H   0  0  0  0  0  0  0  0  0  0  0  0
   63.9122   33.1105   45.8774 H   0  0  0  0  0  0  0  0  0  0  0  0
   63.1564   34.7401   45.8774 H   0  0  0  0  0  0  0  0  0  0  0  0
   57.7960   33.6460   45.1430 S   0  0  0  0  0  0  0  0  0  0  0  0
   56.3370   26.7220   46.2010 C   0  0  0  0  0  0  0  0  0  0  0  0
   54.9620   26.7150   46.0020 O   0  0  0  0  0  0  0  0  0  0  0  0
   56.9390   25.6720   46.9040 C   0  0  0  0  0  0  0  0  0  0  0  0
   56.3226   24.8484   47.2936 H   0  0  0  0  0  0  0  0  0  0  0  0
  1  2  1  0
  2  3  2  0
  3  4  1  0
  3  5  1  0
  5  6  1  0
  5  7  2  0
  7  8  1  0
  8  9  1  0
  9 10  1  0
  9 11  1  0
  9 12  1  0
 12 13  2  0
 12 14  1  0
 14 15  2  0
 15 16  1  0
 16 17  1  0
 17 18  1  0
 18 19  1  0
 18 20  1  0
 18 21  1  0
 17 22  2  0
 22 23  1  0
 23 24  2  0
 23 25  1  0
 25 26  1  0
 26 27  1  0
 26 28  1  0
 26 29  1  0
 29 30  1  0
 29 31  1  0
 29 32  1  0
 32 33  1  0
 32 34  1  0
 32 35  1  0
 22 36  1  0
  7 37  1  0
 37 38  1  0
 37 39  2  0
 39 40  1  0
 39  2  1  0
 36 15  1  0
M  CHG  3  16  -1  25  -1  38  -1
M  END
>  <UniqueID>  (13) 
13

>  <SMILES>  (13) 
CCC[N-]C(=O)c1s/c(=N\C(=O)COc2ccccc2[O-])[n-]c1C

>  <Energy>  (13) 
65.68195461820449

>  <Genealogy>  (13) 
CCC[N-]C(=O)c1sc(=NC(=O)COc2ccccc2[O-])[n-]c1C (protonated)
CCC[N-]C(=O)c1s/c(=N\C(=O)COc2ccccc2[O-])[n-]c1C (cis-trans isomerization)
CCC[N-]C(=O)c1s/c(=N\C(=O)COc2ccccc2[O-])[n-]c1C (3D coordinates assigned)
CCC[N-]C(=O)c1s/c(=N\C(=O)COc2ccccc2[O-])[n-]c1C (optimized conformer: 65.68195461820449 kcal/mol)

>  <smiles>  (13) 
CCCNC(=O)c1sc(=NC(=O)COc2ccccc2O)[nH]c1C

>  <score_type>  (13) 
oracle

>  <origin>  (13) 
adg

>  <m_score__min__energy>  (13) 
-13.81

>  <m_primary>  (13) 
energy

$$$$
13:0
     RDKit          3D

 73 78  0  0  0  0  0  0  0  0999 V2000
   58.9053   34.1027   48.8919 H   0  0  0  0  0  0  0  0  0  0  0  0
   59.5740   33.7690   49.6990 C   0  0  0  0  0  0  0  0  0  0  0  0
   60.8410   34.2110   49.6610 C   0  0  0  0  0  0  0  0  0  0  0  0
   61.1471   34.9403   50.4254 H   0  0  0  0  0  0  0  0  0  0  0  0
   61.8530   33.7950   48.6750 C   0  0  0  0  0  0  0  0  0  0  0  0
   61.5950   33.5150   47.3770 N   0  0  0  0  0  0  0  0  0  0  0  0
   60.3210   33.3970   46.7250 C   0  0  0  0  0  0  0  0  0  0  0  0
   59.7420   34.5130   46.1040 C   0  0  0  0  0  0  0  0  0  0  0  0
   60.2601   35.4831   46.1256 H   0  0  0  0  0  0  0  0  0  0  0  0
   58.5090   34.3960   45.4580 C   0  0  0  0  0  0  0  0  0  0  0  0
   58.0542   35.2764   44.9803 H   0  0  0  0  0  0  0  0  0  0  0  0
   57.8520   33.1640   45.4170 C   0  0  0  0  0  0  0  0  0  0  0  0
   56.8774   33.0815   44.9137 H   0  0  0  0  0  0  0  0  0  0  0  0
   58.4270   32.0290   46.0140 C   0  0  0  0  0  0  0  0  0  0  0  0
   57.7440   30.7140   45.9580 C   0  0  0  0  0  0  0  0  0  0  0  0
   58.0760   29.7910   46.7510 O   0  0  0  0  0  0  0  0  0  0  0  0
   56.7050   30.4840   44.9990 N   0  0  0  0  0  0  0  0  0  0  0  0
   56.6560   29.3220   44.1200 C   0  0  0  0  0  0  0  0  0  0  0  0
   55.6787   29.2990   43.6157 H   0  0  0  0  0  0  0  0  0  0  0  0
   57.4765   29.4108   43.3928 H   0  0  0  0  0  0  0  0  0  0  0  0
   56.8420   28.0390   44.8750 C   0  0  0  0  0  0  0  0  0  0  0  0
   55.8820   27.4680   45.5650 O   0  0  0  0  0  0  0  0  0  0  0  0
   56.3400   26.3510   46.0810 C   0  0  0  0  0  0  0  0  0  0  0  0
   55.7596   25.6582   46.7081 H   0  0  0  0  0  0  0  0  0  0  0  0
   57.6580   26.1780   45.7180 C   0  0  0  0  0  0  0  0  0  0  0  0
   58.3157   25.3417   45.9974 H   0  0  0  0  0  0  0  0  0  0  0  0
   57.9870   27.2640   44.9340 C   0  0  0  0  0  0  0  0  0  0  0  0
   58.9559   27.4707   44.4560 H   0  0  0  0  0  0  0  0  0  0  0  0
   59.6700   32.1580   46.6610 C   0  0  0  0  0  0  0  0  0  0  0  0
   60.1364   31.2750   47.1223 H   0  0  0  0  0  0  0  0  0  0  0  0
   62.7990   33.4590   46.7720 C   0  0  0  0  0  0  0  0  0  0  0  0
   62.9742   33.2492   45.7065 H   0  0  0  0  0  0  0  0  0  0  0  0
   63.7720   33.7090   47.7140 C   0  0  0  0  0  0  0  0  0  0  0  0
   64.8561   33.7225   47.5284 H   0  0  0  0  0  0  0  0  0  0  0  0
   63.1760   33.9340   48.8990 N   0  0  0  0  0  0  0  0  0  0  0  0
   63.6430   34.2130   49.7900 H   0  0  0  0  0  0  0  0  0  0  0  0
   58.9920   32.8740   50.7260 C   0  0  0  0  0  0  0  0  0  0  0  0
   58.7000   33.3050   52.0330 C   0  0  0  0  0  0  0  0  0  0  0  0
   58.8966   34.3483   52.3208 H   0  0  0  0  0  0  0  0  0  0  0  0
   58.1620   32.4170   52.9680 C   0  0  0  0  0  0  0  0  0  0  0  0
   57.9435   32.7646   53.9885 H   0  0  0  0  0  0  0  0  0  0  0  0
   57.8980   31.0830   52.6140 C   0  0  0  0  0  0  0  0  0  0  0  0
   57.3260   30.1430   53.6030 C   0  0  0  0  0  0  0  0  0  0  0  0
   58.0760   29.6260   54.4770 O   0  0  0  0  0  0  0  0  0  0  0  0
   55.9260   29.8240   53.5990 N   0  0  0  0  0  0  0  0  0  0  0  0
   55.2750   29.3280   52.3760 C   0  0  0  0  0  0  0  0  0  0  0  0
   55.9144   29.5514   51.5092 H   0  0  0  0  0  0  0  0  0  0  0  0
   55.1264   28.2419   52.4670 H   0  0  0  0  0  0  0  0  0  0  0  0
   53.9100   30.0020   52.1840 C   0  0  0  0  0  0  0  0  0  0  0  0
   54.0603   30.9823   51.7081 H   0  0  0  0  0  0  0  0  0  0  0  0
   53.2906   29.3480   51.5527 H   0  0  0  0  0  0  0  0  0  0  0  0
   53.2130   30.1960   53.4660 N   0  0  0  0  0  0  0  0  0  0  0  0
   52.0970   31.1060   53.5420 C   0  0  0  0  0  0  0  0  0  0  0  0
   51.5360   31.6450   52.3700 C   0  0  0  0  0  0  0  0  0  0  0  0
   51.9401   31.3559   51.3886 H   0  0  0  0  0  0  0  0  0  0  0  0
   50.4680   32.5460   52.4430 C   0  0  0  0  0  0  0  0  0  0  0  0
   50.0342   32.9611   51.5213 H   0  0  0  0  0  0  0  0  0  0  0  0
   49.9530   32.9180   53.6870 C   0  0  0  0  0  0  0  0  0  0  0  0
   49.1129   33.6258   53.7451 H   0  0  0  0  0  0  0  0  0  0  0  0
   50.5050   32.3910   54.8580 C   0  0  0  0  0  0  0  0  0  0  0  0
   50.0980   32.6843   55.8369 H   0  0  0  0  0  0  0  0  0  0  0  0
   51.5720   31.4930   54.7880 C   0  0  0  0  0  0  0  0  0  0  0  0
   52.0048   31.0856   55.7136 H   0  0  0  0  0  0  0  0  0  0  0  0
   53.7120   29.5080   54.6650 C   0  0  0  0  0  0  0  0  0  0  0  0
   53.1351   29.8353   55.5425 H   0  0  0  0  0  0  0  0  0  0  0  0
   53.6002   28.4211   54.5377 H   0  0  0  0  0  0  0  0  0  0  0  0
   55.1910   29.8490   54.8700 C   0  0  0  0  0  0  0  0  0  0  0  0
   55.2693   30.8544   55.3093 H   0  0  0  0  0  0  0  0  0  0  0  0
   55.6311   29.0958   55.5401 H   0  0  0  0  0  0  0  0  0  0  0  0
   58.1380   30.6690   51.2930 C   0  0  0  0  0  0  0  0  0  0  0  0
   57.9024   29.6373   50.9928 H   0  0  0  0  0  0  0  0  0  0  0  0
   58.6730   31.5570   50.3590 C   0  0  0  0  0  0  0  0  0  0  0  0
   58.8464   31.2220   49.3257 H   0  0  0  0  0  0  0  0  0  0  0  0
  1  2  1  0
  2  3  2  0
  3  4  1  0
  3  5  1  0
  5  6  1  0
  6  7  1  0
  7  8  2  0
  8  9  1  0
  8 10  1  0
 10 11  1  0
 10 12  2  0
 12 13  1  0
 12 14  1  0
 14 15  1  0
 15 16  2  0
 15 17  1  0
 17 18  1  0
 18 19  1  0
 18 20  1  0
 18 21  1  0
 21 22  1  0
 22 23  1  0
 23 24  1  0
 23 25  2  0
 25 26  1  0
 25 27  1  0
 27 28  1  0
 14 29  2  0
 29 30  1  0
  6 31  1  0
 31 32  1  0
 31 33  2  0
 33 34  1  0
 33 35  1  0
 35 36  1  0
  2 37  1  0
 37 38  2  0
 38 39  1  0
 38 40  1  0
 40 41  1  0
 40 42  2  0
 42 43  1  0
 43 44  2  0
 43 45  1  0
 45 46  1  0
 46 47  1  0
 46 48  1  0
 46 49  1  0
 49 50  1  0
 49 51  1  0
 49 52  1  0
 52 53  1  0
 53 54  2  0
 54 55  1  0
 54 56  1  0
 56 57  1  0
 56 58  2  0
 58 59  1  0
 58 60  1  0
 60 61  1  0
 60 62  2  0
 62 63  1  0
 52 64  1  0
 64 65  1  0
 64 66  1  0
 64 67  1  0
 67 68  1  0
 67 69  1  0
 42 70  1  0
 70 71  1  0
 70 72  2  0
 72 73  1  0
 35  5  2  0
 72 37  1  0
 29  7  1  0
 67 45  1  0
 27 21  2  0
 62 53  1  0
M  CHG  2  17  -1  35   1
M  END
>  <UniqueID>  (14) 
14

>  <SMILES>  (14) 
O=C([N-]Cc1ccco1)c1cccc(-n2cc[nH+]c2/C=C\c2ccc(C(=O)N3CCN(c4ccccc4)CC3)cc2)c1

>  <Energy>  (14) 
159.2385346332461

>  <Genealogy>  (14) 
O=C([N-]Cc1ccco1)c1cccc(-n2cc[nH+]c2C=Cc2ccc(C(=O)N3CCN(c4ccccc4)CC3)cc2)c1 (protonated)
O=C([N-]Cc1ccco1)c1cccc(-n2cc[nH+]c2/C=C\c2ccc(C(=O)N3CCN(c4ccccc4)CC3)cc2)c1 (cis-trans isomerization)
O=C([N-]Cc1ccco1)c1cccc(-n2cc[nH+]c2/C=C\c2ccc(C(=O)N3CCN(c4ccccc4)CC3)cc2)c1 (3D coordinates assigned)
O=C([N-]Cc1ccco1)c1cccc(-n2cc[nH+]c2/C=C\c2ccc(C(=O)N3CCN(c4ccccc4)CC3)cc2)c1 (nonaromatic ring conformer: 159.2385346332461 kcal/mol)

>  <smiles>  (14) 
O=C(NCc1ccco1)c1cccc(-n2ccnc2C=Cc2ccc(C(=O)N3CCN(c4ccccc4)CC3)cc2)c1

>  <score_type>  (14) 
oracle

>  <origin>  (14) 
adg

>  <m_score__min__energy>  (14) 
-10.789999999999999

>  <m_primary>  (14) 
energy

$$$$
14:0
     RDKit          3D

 49 52  0  0  0  0  0  0  0  0999 V2000
   57.6198   31.0200   43.2201 H   0  0  0  0  0  0  0  0  0  0  0  0
   57.8410   30.1000   43.7810 C   0  0  0  0  0  0  0  0  0  0  0  0
   57.7068   29.1186   43.3027 H   0  0  0  0  0  0  0  0  0  0  0  0
   58.2750   30.1750   45.0500 C   0  0  0  0  0  0  0  0  0  0  0  0
   58.5940   29.0960   45.8810 C   0  0  0  0  0  0  0  0  0  0  0  0
   58.4900   27.7840   45.5940 C   0  0  0  0  0  0  0  0  0  0  0  0
   59.3674   27.2782   45.1646 H   0  0  0  0  0  0  0  0  0  0  0  0
   57.2730   26.9850   45.8200 C   0  0  0  0  0  0  0  0  0  0  0  0
   57.2840   25.7690   46.3930 N   0  0  0  0  0  0  0  0  0  0  0  0
   55.9750   25.4500   46.4800 C   0  0  0  0  0  0  0  0  0  0  0  0
   55.5740   24.3570   46.9600 O   0  0  0  0  0  0  0  0  0  0  0  0
   55.1280   26.3970   46.0240 N   0  0  0  0  0  0  0  0  0  0  0  0
   55.9630   27.3680   45.6200 C   0  0  0  0  0  0  0  0  0  0  0  0
   55.5340   28.5940   45.1270 O   0  0  0  0  0  0  0  0  0  0  0  0
   58.9900   29.6450   47.0920 C   0  0  0  0  0  0  0  0  0  0  0  0
   59.3195   29.0942   47.9854 H   0  0  0  0  0  0  0  0  0  0  0  0
   58.8910   31.0150   46.9600 C   0  0  0  0  0  0  0  0  0  0  0  0
   59.1990   31.9670   48.0450 C   0  0  0  0  0  0  0  0  0  0  0  0
   58.2420   32.5860   48.5860 O   0  0  0  0  0  0  0  0  0  0  0  0
   60.5530   32.2250   48.4730 N   0  0  0  0  0  0  0  0  0  0  0  0
   60.7840   32.7160   49.8400 C   0  0  0  0  0  0  0  0  0  0  0  0
   60.0815   33.5372   50.0454 H   0  0  0  0  0  0  0  0  0  0  0  0
   60.6290   31.8756   50.5326 H   0  0  0  0  0  0  0  0  0  0  0  0
   62.2160   33.2300   50.0340 C   0  0  0  0  0  0  0  0  0  0  0  0
   62.3221   34.2004   49.5270 H   0  0  0  0  0  0  0  0  0  0  0  0
   62.4081   33.3366   51.1118 H   0  0  0  0  0  0  0  0  0  0  0  0
   63.1930   32.2850   49.4740 N   0  0  0  0  0  0  0  0  0  0  0  0
   64.4880   32.1230   50.0940 C   0  0  0  0  0  0  0  0  0  0  0  0
   64.7170   31.0860   51.0180 C   0  0  0  0  0  0  0  0  0  0  0  0
   63.9044   30.3883   51.2687 H   0  0  0  0  0  0  0  0  0  0  0  0
   65.9700   30.9370   51.6190 C   0  0  0  0  0  0  0  0  0  0  0  0
   66.1395   30.1229   52.3390 H   0  0  0  0  0  0  0  0  0  0  0  0
   67.0080   31.8190   51.3080 C   0  0  0  0  0  0  0  0  0  0  0  0
   68.2210   31.6710   51.8940 F   0  0  0  0  0  0  0  0  0  0  0  0
   66.7920   32.8550   50.3950 C   0  0  0  0  0  0  0  0  0  0  0  0
   67.7980   33.7110   50.0900 F   0  0  0  0  0  0  0  0  0  0  0  0
   65.5390   33.0080   49.7910 C   0  0  0  0  0  0  0  0  0  0  0  0
   65.3746   33.8260   49.0742 H   0  0  0  0  0  0  0  0  0  0  0  0
   62.9230   31.6260   48.1860 C   0  0  0  0  0  0  0  0  0  0  0  0
   63.7838   31.7810   47.5189 H   0  0  0  0  0  0  0  0  0  0  0  0
   62.7597   30.5550   48.3763 H   0  0  0  0  0  0  0  0  0  0  0  0
   61.6660   32.1890   47.5140 C   0  0  0  0  0  0  0  0  0  0  0  0
   61.8707   33.2088   47.1560 H   0  0  0  0  0  0  0  0  0  0  0  0
   61.3906   31.5430   46.6674 H   0  0  0  0  0  0  0  0  0  0  0  0
   58.4780   31.3420   45.7120 N   0  0  0  0  0  0  0  0  0  0  0  0
   58.3420   32.6930   45.1560 C   0  0  0  0  0  0  0  0  0  0  0  0
   58.2686   33.4216   45.9768 H   0  0  0  0  0  0  0  0  0  0  0  0
   59.2213   32.9251   44.5372 H   0  0  0  0  0  0  0  0  0  0  0  0
   57.4341   32.7451   44.5372 H   0  0  0  0  0  0  0  0  0  0  0  0
  1  2  1  0
  2  3  1  0
  2  4  2  0
  4  5  1  0
  5  6  2  0
  6  7  1  0
  6  8  1  0
  8  9  1  0
  9 10  1  0
 10 11  2  0
 10 12  1  0
 12 13  1  0
 13 14  1  0
  5 15  1  0
 15 16  1  0
 15 17  2  0
 17 18  1  0
 18 19  2  0
 18 20  1  0
 20 21  1  0
 21 22  1  0
 21 23  1  0
 21 24  1  0
 24 25  1  0
 24 26  1  0
 24 27  1  0
 27 28  1  0
 28 29  2  0
 29 30  1  0
 29 31  1  0
 31 32  1  0
 31 33  2  0
 33 34  1  0
 33 35  1  0
 35 36  1  0
 35 37  2  0
 37 38  1  0
 27 39  1  0
 39 40  1  0
 39 41  1  0
 39 42  1  0
 42 43  1  0
 42 44  1  0
 17 45  1  0
 45 46  1  0
 46 47  1  0
 46 48  1  0
 46 49  1  0
 45  4  1  0
 13  8  2  0
 42 20  1  0
 37 28  1  0
M  CHG  3   9  -1  12  -1  14  -1
M  END
>  <UniqueID>  (15) 
15

>  <SMILES>  (15) 
C=c1/c(=C/c2[n-]c(=O)[n-]c2[O-])cc(C(=O)N2CCN(c3ccc(F)c(F)c3)CC2)n1C

>  <Energy>  (15) 
126.95194048540114

>  <Genealogy>  (15) 
C=c1c(=Cc2[n-]c(=O)[n-]c2[O-])cc(C(=O)N2CCN(c3ccc(F)c(F)c3)CC2)n1C (protonated)
C=c1/c(=C/c2[n-]c(=O)[n-]c2[O-])cc(C(=O)N2CCN(c3ccc(F)c(F)c3)CC2)n1C (cis-trans isomerization)
C=c1/c(=C/c2[n-]c(=O)[n-]c2[O-])cc(C(=O)N2CCN(c3ccc(F)c(F)c3)CC2)n1C (3D coordinates assigned)
C=c1/c(=C/c2[n-]c(=O)[n-]c2[O-])cc(C(=O)N2CCN(c3ccc(F)c(F)c3)CC2)n1C (nonaromatic ring conformer: 126.95194048540114 kcal/mol)

>  <smiles>  (15) 
C=c1c(=Cc2[nH]c(=O)[nH]c2O)cc(C(=O)N2CCN(c3ccc(F)c(F)c3)CC2)n1C

>  <score_type>  (15) 
oracle

>  <origin>  (15) 
adg

>  <m_score__min__energy>  (15) 
-17.190000000000001

>  <m_primary>  (15) 
energy

$$$$
15:0
     RDKit          3D

 58 61  0  0  0  0  0  0  0  0999 V2000
   53.8050   29.7710   54.8050 C   0  0  0  0  0  0  0  0  0  0  0  0
   54.3770   30.3180   53.7160 C   0  0  0  0  0  0  0  0  0  0  0  0
   53.7270   30.6150   52.5080 C   0  0  0  0  0  0  0  0  0  0  0  0
   52.4220   30.4150   52.2160 C   0  0  0  0  0  0  0  0  0  0  0  0
   51.7510   30.8020   50.9530 C   0  0  0  0  0  0  0  0  0  0  0  0
   51.6660   30.0480   49.8380 N   0  0  0  0  0  0  0  0  0  0  0  0
   51.0060   30.8440   48.9690 C   0  0  0  0  0  0  0  0  0  0  0  0
   50.7250   30.4810   47.7970 O   0  0  0  0  0  0  0  0  0  0  0  0
   50.6700   32.0610   49.4580 N   0  0  0  0  0  0  0  0  0  0  0  0
   51.1500   32.0170   50.7120 C   0  0  0  0  0  0  0  0  0  0  0  0
   51.0220   33.0590   51.6240 O   0  0  0  0  0  0  0  0  0  0  0  0
   54.7020   31.1300   51.6630 C   0  0  0  0  0  0  0  0  0  0  0  0
   55.8810   31.1430   52.3780 C   0  0  0  0  0  0  0  0  0  0  0  0
   57.1980   31.5890   51.8190 C   0  0  0  0  0  0  0  0  0  0  0  0
   55.6930   30.6550   53.6270 N   0  0  0  0  0  0  0  0  0  0  0  0
   56.7470   30.5200   54.6470 C   0  0  0  0  0  0  0  0  0  0  0  0
   57.9420   29.7650   54.0970 C   0  0  0  0  0  0  0  0  0  0  0  0
   59.1470   30.4500   53.8930 C   0  0  0  0  0  0  0  0  0  0  0  0
   60.2610   29.7940   53.3690 C   0  0  0  0  0  0  0  0  0  0  0  0
   60.1760   28.4320   53.0360 C   0  0  0  0  0  0  0  0  0  0  0  0
   61.2980   27.7180   52.4570 N   0  0  0  0  0  0  0  0  0  0  0  0
   61.4800   26.2730   52.6810 C   0  0  0  0  0  0  0  0  0  0  0  0
   62.6720   25.7140   51.8830 C   0  0  0  0  0  0  0  0  0  0  0  0
   63.9060   26.5200   52.0240 N   0  0  0  0  0  0  0  0  0  0  0  0
   64.8930   25.9700   53.3580 S   0  0  0  0  0  0  0  0  0  0  0  0
   66.6170   26.0130   52.9220 C   0  0  0  0  0  0  0  0  0  0  0  0
   64.5100   24.5690   53.7420 O   0  0  0  0  0  0  0  0  0  0  0  0
   64.6880   26.8760   54.5410 O   0  0  0  0  0  0  0  0  0  0  0  0
   63.6950   27.9870   52.1010 C   0  0  0  0  0  0  0  0  0  0  0  0
   62.2990   28.4190   51.6440 C   0  0  0  0  0  0  0  0  0  0  0  0
   58.9920   27.7900   53.2270 N   0  0  0  0  0  0  0  0  0  0  0  0
   57.8840   28.3970   53.7350 C   0  0  0  0  0  0  0  0  0  0  0  0
   56.6280   27.5800   53.8530 C   0  0  0  0  0  0  0  0  0  0  0  0
   54.4078   29.5784   55.7048 H   0  0  0  0  0  0  0  0  0  0  0  0
   52.7349   29.5167   54.7951 H   0  0  0  0  0  0  0  0  0  0  0  0
   51.8053   29.9225   52.9822 H   0  0  0  0  0  0  0  0  0  0  0  0
   54.5608   31.4631   50.6242 H   0  0  0  0  0  0  0  0  0  0  0  0
   57.8866   31.8222   52.6445 H   0  0  0  0  0  0  0  0  0  0  0  0
   57.6251   30.7854   51.2011 H   0  0  0  0  0  0  0  0  0  0  0  0
   57.0489   32.4868   51.2011 H   0  0  0  0  0  0  0  0  0  0  0  0
   57.0701   31.5222   54.9653 H   0  0  0  0  0  0  0  0  0  0  0  0
   56.3394   29.9576   55.4999 H   0  0  0  0  0  0  0  0  0  0  0  0
   59.2154   31.5176   54.1490 H   0  0  0  0  0  0  0  0  0  0  0  0
   61.2029   30.3415   53.2171 H   0  0  0  0  0  0  0  0  0  0  0  0
   61.6564   26.0987   53.7527 H   0  0  0  0  0  0  0  0  0  0  0  0
   60.5699   25.7579   52.3400 H   0  0  0  0  0  0  0  0  0  0  0  0
   62.8802   24.6935   52.2368 H   0  0  0  0  0  0  0  0  0  0  0  0
   62.3897   25.7371   50.8201 H   0  0  0  0  0  0  0  0  0  0  0  0
   67.2265   26.0282   53.8376 H   0  0  0  0  0  0  0  0  0  0  0  0
   66.8677   25.1208   52.3294 H   0  0  0  0  0  0  0  0  0  0  0  0
   66.8229   26.9166   52.3294 H   0  0  0  0  0  0  0  0  0  0  0  0
   63.8361   28.3065   53.1441 H   0  0  0  0  0  0  0  0  0  0  0  0
   64.4219   28.4584   51.4233 H   0  0  0  0  0  0  0  0  0  0  0  0
   62.1867   29.5054   51.7748 H   0  0  0  0  0  0  0  0  0  0  0  0
   62.1593   28.1698   50.5818 H   0  0  0  0  0  0  0  0  0  0  0  0
   56.3898   27.4251   54.9157 H   0  0  0  0  0  0  0  0  0  0  0  0
   55.7977   28.1114   53.3648 H   0  0  0  0  0  0  0  0  0  0  0  0
   56.7772   26.6056   53.3648 H   0  0  0  0  0  0  0  0  0  0  0  0
  1  2  2  0
  2  3  1  0
  3  4  2  3
  4  5  1  0
  5  6  1  0
  6  7  1  0
  7  8  2  0
  7  9  1  0
  9 10  1  0
 10 11  1  0
  3 12  1  0
 12 13  2  0
 13 14  1  0
 13 15  1  0
 15 16  1  0
 16 17  1  0
 17 18  2  0
 18 19  1  0
 19 20  2  0
 20 21  1  0
 21 22  1  0
 22 23  1  0
 23 24  1  0
 24 25  1  0
 25 26  1  0
 25 27  2  0
 25 28  2  0
 24 29  1  0
 29 30  1  0
 20 31  1  0
 31 32  2  0
 32 33  1  0
 15  2  1  0
 32 17  1  0
 10  5  2  0
 30 21  1  0
  1 34  1  0
  1 35  1  0
  4 36  1  0
 12 37  1  0
 14 38  1  0
 14 39  1  0
 14 40  1  0
 16 41  1  0
 16 42  1  0
 18 43  1  0
 19 44  1  0
 22 45  1  0
 22 46  1  0
 23 47  1  0
 23 48  1  0
 26 49  1  0
 26 50  1  0
 26 51  1  0
 29 52  1  0
 29 53  1  0
 30 54  1  0
 30 55  1  0
 33 56  1  0
 33 57  1  0
 33 58  1  0
M  CHG  3   6  -1   9  -1  11  -1
M  END
>  <UniqueID>  (16) 
16

>  <SMILES>  (16) 
C=c1c(=Cc2[n-]c(=O)[n-]c2[O-])cc(C)n1Cc1ccc(N2CCN(S(C)(=O)=O)CC2)nc1C

>  <Energy>  (16) 
128.72485982820447

>  <Genealogy>  (16) 
C=c1c(=Cc2[n-]c(=O)[n-]c2[O-])cc(C)n1Cc1ccc(N2CCN(S(C)(=O)=O)CC2)nc1C (protonated)
C=c1c(=Cc2[n-]c(=O)[n-]c2[O-])cc(C)n1Cc1ccc(N2CCN(S(C)(=O)=O)CC2)nc1C (3D coordinates assigned)
C=c1c(=Cc2[n-]c(=O)[n-]c2[O-])cc(C)n1Cc1ccc(N2CCN(S(C)(=O)=O)CC2)nc1C (nonaromatic ring conformer: 128.72485982820447 kcal/mol)

>  <smiles>  (16) 
C=c1c(=Cc2[nH]c(=O)[nH]c2O)cc(C)n1Cc1ccc(N2CCN(S(C)(=O)=O)CC2)nc1C

>  <score_type>  (16) 
oracle

>  <origin>  (16) 
adg

>  <m_score__min__energy>  (16) 
-18.039999999999999

>  <m_primary>  (16) 
energy

$$$$
16:0
     RDKit          3D

 49 52  0  0  0  0  0  0  0  0999 V2000
   59.6880   34.6020   47.7360 C   0  0  0  0  0  0  0  0  0  0  0  0
   59.9580   33.3710   47.2940 C   0  0  0  0  0  0  0  0  0  0  0  0
   59.0110   32.5620   46.1630 S   0  0  0  0  0  0  0  0  0  0  0  0
   59.9440   31.1540   46.1990 C   0  0  0  0  0  0  0  0  0  0  0  0
   59.7610   30.0450   45.4640 C   0  0  0  0  0  0  0  0  0  0  0  0
   58.5690   29.1730   45.5540 C   0  0  0  0  0  0  0  0  0  0  0  0
   57.3400   29.6480   45.0760 C   0  0  0  0  0  0  0  0  0  0  0  0
   56.2040   28.8370   45.1180 C   0  0  0  0  0  0  0  0  0  0  0  0
   56.2870   27.5360   45.6230 C   0  0  0  0  0  0  0  0  0  0  0  0
   55.1460   26.7430   45.6520 O   0  0  0  0  0  0  0  0  0  0  0  0
   57.5170   27.0380   46.0850 C   0  0  0  0  0  0  0  0  0  0  0  0
   57.6350   25.3840   46.6900 S   0  0  0  0  0  0  0  0  0  0  0  0
   58.5600   25.3350   47.8750 O   0  0  0  0  0  0  0  0  0  0  0  0
   56.2680   24.9390   47.1290 O   0  0  0  0  0  0  0  0  0  0  0  0
   58.2270   24.3490   45.4070 N   0  0  0  0  0  0  0  0  0  0  0  0
   58.1350   22.9160   45.7670 C   0  0  0  0  0  0  0  0  0  0  0  0
   56.9090   22.2240   45.1460 C   0  0  0  0  0  0  0  0  0  0  0  0
   55.8350   23.1320   45.0420 O   0  0  0  0  0  0  0  0  0  0  0  0
   56.1200   24.1160   44.0620 C   0  0  0  0  0  0  0  0  0  0  0  0
   57.5720   24.6490   44.1210 C   0  0  0  0  0  0  0  0  0  0  0  0
   58.6560   27.8550   46.0350 C   0  0  0  0  0  0  0  0  0  0  0  0
   60.9930   31.3690   47.0980 C   0  0  0  0  0  0  0  0  0  0  0  0
   61.8830   30.5040   47.3260 O   0  0  0  0  0  0  0  0  0  0  0  0
   60.9980   32.5930   47.7070 N   0  0  0  0  0  0  0  0  0  0  0  0
   62.0090   32.9960   48.6490 C   0  0  0  0  0  0  0  0  0  0  0  0
   61.6460   33.3870   49.9480 C   0  0  0  0  0  0  0  0  0  0  0  0
   62.6240   33.7900   50.8610 C   0  0  0  0  0  0  0  0  0  0  0  0
   63.9700   33.8090   50.4820 C   0  0  0  0  0  0  0  0  0  0  0  0
   64.3390   33.4250   49.1890 C   0  0  0  0  0  0  0  0  0  0  0  0
   63.3630   33.0210   48.2720 C   0  0  0  0  0  0  0  0  0  0  0  0
   63.7350   32.6390   47.0250 F   0  0  0  0  0  0  0  0  0  0  0  0
   60.3473   35.0771   48.4773 H   0  0  0  0  0  0  0  0  0  0  0  0
   58.8063   35.1408   47.3587 H   0  0  0  0  0  0  0  0  0  0  0  0
   60.5487   29.7667   44.7484 H   0  0  0  0  0  0  0  0  0  0  0  0
   57.2699   30.6660   44.6652 H   0  0  0  0  0  0  0  0  0  0  0  0
   55.2409   29.2230   44.7526 H   0  0  0  0  0  0  0  0  0  0  0  0
   59.0433   22.4057   45.4139 H   0  0  0  0  0  0  0  0  0  0  0  0
   58.0321   22.8546   46.8605 H   0  0  0  0  0  0  0  0  0  0  0  0
   57.1701   21.8543   44.1434 H   0  0  0  0  0  0  0  0  0  0  0  0
   56.6072   21.3850   45.7902 H   0  0  0  0  0  0  0  0  0  0  0  0
   55.9516   23.6756   43.0682 H   0  0  0  0  0  0  0  0  0  0  0  0
   55.4553   24.9698   44.2602 H   0  0  0  0  0  0  0  0  0  0  0  0
   58.1528   24.1833   43.3112 H   0  0  0  0  0  0  0  0  0  0  0  0
   57.5334   25.7428   44.0105 H   0  0  0  0  0  0  0  0  0  0  0  0
   59.6252   27.4612   46.3749 H   0  0  0  0  0  0  0  0  0  0  0  0
   60.5877   33.3760   50.2479 H   0  0  0  0  0  0  0  0  0  0  0  0
   62.3350   34.0925   51.8784 H   0  0  0  0  0  0  0  0  0  0  0  0
   64.7391   34.1263   51.2016 H   0  0  0  0  0  0  0  0  0  0  0  0
   65.3982   33.4407   48.8926 H   0  0  0  0  0  0  0  0  0  0  0  0
  1  2  2  0
  2  3  1  0
  3  4  1  0
  4  5  2  3
  5  6  1  0
  6  7  2  0
  7  8  1  0
  8  9  2  0
  9 10  1  0
  9 11  1  0
 11 12  1  0
 12 13  2  0
 12 14  2  0
 12 15  1  0
 15 16  1  0
 16 17  1  0
 17 18  1  0
 18 19  1  0
 19 20  1  0
 11 21  2  0
  4 22  1  0
 22 23  2  0
 22 24  1  0
 24 25  1  0
 25 26  2  0
 26 27  1  0
 27 28  2  0
 28 29  1  0
 29 30  2  0
 30 31  1  0
 24  2  1  0
 30 25  1  0
 21  6  1  0
 20 15  1  0
  1 32  1  0
  1 33  1  0
  5 34  1  0
  7 35  1  0
  8 36  1  0
 16 37  1  0
 16 38  1  0
 17 39  1  0
 17 40  1  0
 19 41  1  0
 19 42  1  0
 20 43  1  0
 20 44  1  0
 21 45  1  0
 26 46  1  0
 27 47  1  0
 28 48  1  0
 29 49  1  0
M  CHG  1  10  -1
M  END
>  <UniqueID>  (17) 
17

>  <SMILES>  (17) 
C=c1sc(=Cc2ccc([O-])c(S(=O)(=O)N3CCOCC3)c2)c(=O)n1-c1ccccc1F

>  <Energy>  (17) 
109.48331831036715

>  <Genealogy>  (17) 
C=c1sc(=Cc2ccc([O-])c(S(=O)(=O)N3CCOCC3)c2)c(=O)n1-c1ccccc1F (protonated)
C=c1sc(=Cc2ccc([O-])c(S(=O)(=O)N3CCOCC3)c2)c(=O)n1-c1ccccc1F (3D coordinates assigned)
C=c1sc(=Cc2ccc([O-])c(S(=O)(=O)N3CCOCC3)c2)c(=O)n1-c1ccccc1F (nonaromatic ring conformer: 109.48331831036715 kcal/mol)

>  <smiles>  (17) 
C=c1sc(=Cc2ccc(O)c(S(=O)(=O)N3CCOCC3)c2)c(=O)n1-c1ccccc1F

>  <score_type>  (17) 
oracle

>  <origin>  (17) 
adg

>  <m_score__min__energy>  (17) 
-11.69

>  <m_primary>  (17) 
energy

$$$$
17:0
     RDKit          3D

 48 50  0  0  0  0  0  0  0  0999 V2000
   60.0650   34.2290   49.6910 C   0  0  0  0  0  0  0  0  0  0  0  0
   59.2630   33.5440   50.7580 C   0  0  0  0  0  0  0  0  0  0  0  0
   59.2220   34.0680   52.0560 C   0  0  0  0  0  0  0  0  0  0  0  0
   58.5010   33.4140   53.0550 C   0  0  0  0  0  0  0  0  0  0  0  0
   57.8130   32.2260   52.7780 C   0  0  0  0  0  0  0  0  0  0  0  0
   57.0230   31.6310   53.8180 N   0  0  0  0  0  0  0  0  0  0  0  0
   57.5340   30.6040   54.6810 C   0  0  0  0  0  0  0  0  0  0  0  0
   58.7180   30.1890   54.5510 O   0  0  0  0  0  0  0  0  0  0  0  0
   56.6530   30.0090   55.7380 C   0  0  0  0  0  0  0  0  0  0  0  0
   56.4090   28.5790   55.4500 N   0  0  0  0  0  0  0  0  0  0  0  0
   56.4760   28.2750   53.9950 C   0  0  0  0  0  0  0  0  0  0  0  0
   55.0960   28.1430   53.3190 C   0  0  0  0  0  0  0  0  0  0  0  0
   54.1040   28.9690   54.0160 N   0  0  0  0  0  0  0  0  0  0  0  0
   53.3290   29.9590   53.3130 C   0  0  0  0  0  0  0  0  0  0  0  0
   53.5420   30.1870   51.9410 C   0  0  0  0  0  0  0  0  0  0  0  0
   52.7780   31.1370   51.2560 C   0  0  0  0  0  0  0  0  0  0  0  0
   51.7910   31.8620   51.9290 C   0  0  0  0  0  0  0  0  0  0  0  0
   51.0330   32.8050   51.2460 O   0  0  0  0  0  0  0  0  0  0  0  0
   51.5650   31.6350   53.2900 C   0  0  0  0  0  0  0  0  0  0  0  0
   52.3280   30.6870   53.9790 C   0  0  0  0  0  0  0  0  0  0  0  0
   53.9210   28.7750   55.4580 C   0  0  0  0  0  0  0  0  0  0  0  0
   55.1570   28.0970   56.0740 C   0  0  0  0  0  0  0  0  0  0  0  0
   57.9020   31.6510   51.4860 C   0  0  0  0  0  0  0  0  0  0  0  0
   57.3250   30.3670   51.1890 N   0  0  0  0  0  0  0  0  0  0  0  0
   56.1620   30.0970   51.5540 O   0  0  0  0  0  0  0  0  0  0  0  0
   58.1020   29.3660   50.6530 O   0  0  0  0  0  0  0  0  0  0  0  0
   58.6170   32.3300   50.4830 C   0  0  0  0  0  0  0  0  0  0  0  0
   60.8218   34.8754   50.1593 H   0  0  0  0  0  0  0  0  0  0  0  0
   60.5639   33.4740   49.0657 H   0  0  0  0  0  0  0  0  0  0  0  0
   59.3973   34.8398   49.0657 H   0  0  0  0  0  0  0  0  0  0  0  0
   59.7603   34.9987   52.2886 H   0  0  0  0  0  0  0  0  0  0  0  0
   58.4725   33.8356   54.0706 H   0  0  0  0  0  0  0  0  0  0  0  0
   55.9920   31.8020   53.8130 H   0  0  0  0  0  0  0  0  0  0  0  0
   57.1446   30.1042   56.7174 H   0  0  0  0  0  0  0  0  0  0  0  0
   55.6916   30.5435   55.7484 H   0  0  0  0  0  0  0  0  0  0  0  0
   57.0292   29.0850   53.4972 H   0  0  0  0  0  0  0  0  0  0  0  0
   56.9744   27.2994   53.8957 H   0  0  0  0  0  0  0  0  0  0  0  0
   55.1719   28.4735   52.2726 H   0  0  0  0  0  0  0  0  0  0  0  0
   54.7773   27.0910   53.3610 H   0  0  0  0  0  0  0  0  0  0  0  0
   54.3134   29.6151   51.4045 H   0  0  0  0  0  0  0  0  0  0  0  0
   52.9544   31.3140   50.1848 H   0  0  0  0  0  0  0  0  0  0  0  0
   50.7859   32.2029   53.8196 H   0  0  0  0  0  0  0  0  0  0  0  0
   52.1436   30.5099   55.0489 H   0  0  0  0  0  0  0  0  0  0  0  0
   53.7682   29.7529   55.9379 H   0  0  0  0  0  0  0  0  0  0  0  0
   53.0447   28.1304   55.6208 H   0  0  0  0  0  0  0  0  0  0  0  0
   55.1864   28.3186   57.1510 H   0  0  0  0  0  0  0  0  0  0  0  0
   55.0793   27.0139   55.8983 H   0  0  0  0  0  0  0  0  0  0  0  0
   58.6701   31.9036   49.4704 H   0  0  0  0  0  0  0  0  0  0  0  0
  1  2  1  0
  2  3  2  0
  3  4  1  0
  4  5  2  0
  5  6  1  0
  6  7  1  0
  7  8  2  0
  7  9  1  0
  9 10  1  0
 10 11  1  0
 11 12  1  0
 12 13  1  0
 13 14  1  0
 14 15  2  0
 15 16  1  0
 16 17  2  0
 17 18  1  0
 17 19  1  0
 19 20  2  0
 13 21  1  0
 21 22  1  0
  5 23  1  0
 23 24  1  0
 24 25  2  0
 24 26  1  0
 23 27  2  0
 27  2  1  0
 22 10  1  0
 20 14  1  0
  1 28  1  0
  1 29  1  0
  1 30  1  0
  3 31  1  0
  4 32  1  0
  6 33  1  0
  9 34  1  0
  9 35  1  0
 11 36  1  0
 11 37  1  0
 12 38  1  0
 12 39  1  0
 15 40  1  0
 16 41  1  0
 19 42  1  0
 20 43  1  0
 21 44  1  0
 21 45  1  0
 22 46  1  0
 22 47  1  0
 27 48  1  0
M  CHG  3  18  -1  24   1  26  -1
M  END
>  <UniqueID>  (18) 
18

>  <SMILES>  (18) 
Cc1ccc(NC(=O)CN2CCN(c3ccc([O-])cc3)CC2)c([N+](=O)[O-])c1

>  <Energy>  (18) 
68.08279834394249

>  <Genealogy>  (18) 
Cc1ccc(NC(=O)CN2CCN(c3ccc([O-])cc3)CC2)c([N+](=O)[O-])c1 (protonated)
Cc1ccc(NC(=O)CN2CCN(c3ccc([O-])cc3)CC2)c([N+](=O)[O-])c1 (3D coordinates assigned)
Cc1ccc(NC(=O)CN2CCN(c3ccc([O-])cc3)CC2)c([N+](=O)[O-])c1 (nonaromatic ring conformer: 68.08279834394249 kcal/mol)

>  <smiles>  (18) 
Cc1ccc(NC(=O)CN2CCN(c3ccc(O)cc3)CC2)c([N+](=O)[O-])c1

>  <score_type>  (18) 
oracle

>  <origin>  (18) 
adg

>  <m_score__min__energy>  (18) 
-10.49

>  <m_primary>  (18) 
energy

$$$$
18:0
     RDKit          3D

 48 50  0  0  0  0  0  0  0  0999 V2000
   63.2570   33.7500   47.8500 C   0  0  0  0  0  0  0  0  0  0  0  0
   61.7390   34.1680   48.7610 S   0  0  0  0  0  0  0  0  0  0  0  0
   60.7070   33.0960   47.7620 C   0  0  0  0  0  0  0  0  0  0  0  0
   59.6950   33.6390   46.9630 C   0  0  0  0  0  0  0  0  0  0  0  0
   58.9030   32.8050   46.1680 C   0  0  0  0  0  0  0  0  0  0  0  0
   59.1250   31.4180   46.1580 C   0  0  0  0  0  0  0  0  0  0  0  0
   58.3110   30.5430   45.2930 C   0  0  0  0  0  0  0  0  0  0  0  0
   58.7690   29.3940   44.7500 N   0  0  0  0  0  0  0  0  0  0  0  0
   57.7170   28.9440   44.0420 C   0  0  0  0  0  0  0  0  0  0  0  0
   57.7620   27.7270   43.1700 C   0  0  0  0  0  0  0  0  0  0  0  0
   57.8300   26.1970   44.1710 S   0  0  0  0  0  0  0  0  0  0  0  0
   57.3290   26.9400   45.7730 C   0  0  0  0  0  0  0  0  0  0  0  0
   56.2510   26.1470   46.4650 C   0  0  0  0  0  0  0  0  0  0  0  0
   56.5230   25.4730   47.4940 O   0  0  0  0  0  0  0  0  0  0  0  0
   54.9080   26.1160   45.9670 N   0  0  0  0  0  0  0  0  0  0  0  0
   54.1660   24.9160   45.5920 C   0  0  0  0  0  0  0  0  0  0  0  0
   55.0970   23.8380   45.0980 C   0  0  0  0  0  0  0  0  0  0  0  0
   55.5140   23.8420   43.7540 C   0  0  0  0  0  0  0  0  0  0  0  0
   56.4030   22.8710   43.2850 C   0  0  0  0  0  0  0  0  0  0  0  0
   56.9000   21.8990   44.1530 C   0  0  0  0  0  0  0  0  0  0  0  0
   56.5060   21.8920   45.4920 C   0  0  0  0  0  0  0  0  0  0  0  0
   55.5960   22.8430   45.9690 C   0  0  0  0  0  0  0  0  0  0  0  0
   55.1160   22.7630   47.6600 Cl  0  0  0  0  0  0  0  0  0  0  0  0
   56.6680   29.8280   44.1820 C   0  0  0  0  0  0  0  0  0  0  0  0
   55.3190   29.7470   43.5470 C   0  0  0  0  0  0  0  0  0  0  0  0
   57.0670   30.8060   44.9550 O   0  0  0  0  0  0  0  0  0  0  0  0
   60.1340   30.8770   46.9720 C   0  0  0  0  0  0  0  0  0  0  0  0
   60.9130   31.7130   47.7770 C   0  0  0  0  0  0  0  0  0  0  0  0
   64.0637   33.5279   48.5640 H   0  0  0  0  0  0  0  0  0  0  0  0
   63.0742   32.8688   47.2175 H   0  0  0  0  0  0  0  0  0  0  0  0
   63.5511   34.6006   47.2175 H   0  0  0  0  0  0  0  0  0  0  0  0
   59.5219   34.7253   46.9603 H   0  0  0  0  0  0  0  0  0  0  0  0
   58.1032   33.2365   45.5482 H   0  0  0  0  0  0  0  0  0  0  0  0
   56.8606   27.7037   42.5400 H   0  0  0  0  0  0  0  0  0  0  0  0
   58.6685   27.7772   42.5489 H   0  0  0  0  0  0  0  0  0  0  0  0
   58.2095   26.9871   46.4307 H   0  0  0  0  0  0  0  0  0  0  0  0
   56.9254   27.9419   45.5649 H   0  0  0  0  0  0  0  0  0  0  0  0
   53.6174   24.5433   46.4696 H   0  0  0  0  0  0  0  0  0  0  0  0
   53.4676   25.1743   44.7823 H   0  0  0  0  0  0  0  0  0  0  0  0
   55.1376   24.6149   43.0677 H   0  0  0  0  0  0  0  0  0  0  0  0
   56.7114   22.8733   42.2291 H   0  0  0  0  0  0  0  0  0  0  0  0
   57.6024   21.1380   43.7824 H   0  0  0  0  0  0  0  0  0  0  0  0
   56.9133   21.1340   46.1772 H   0  0  0  0  0  0  0  0  0  0  0  0
   54.5475   29.7007   44.3297 H   0  0  0  0  0  0  0  0  0  0  0  0
   55.1540   30.6369   42.9217 H   0  0  0  0  0  0  0  0  0  0  0  0
   55.2617   28.8438   42.9217 H   0  0  0  0  0  0  0  0  0  0  0  0
   60.3117   29.7915   46.9759 H   0  0  0  0  0  0  0  0  0  0  0  0
   61.6906   31.2816   48.4244 H   0  0  0  0  0  0  0  0  0  0  0  0
  1  2  1  0
  2  3  1  0
  3  4  2  0
  4  5  1  0
  5  6  2  0
  6  7  1  0
  7  8  2  0
  8  9  1  0
  9 10  1  0
 10 11  1  0
 11 12  1  0
 12 13  1  0
 13 14  2  0
 13 15  1  0
 15 16  1  0
 16 17  1  0
 17 18  2  0
 18 19  1  0
 19 20  2  0
 20 21  1  0
 21 22  2  0
 22 23  1  0
  9 24  2  0
 24 25  1  0
 24 26  1  0
  6 27  1  0
 27 28  2  0
 28  3  1  0
 26  7  1  0
 22 17  1  0
  1 29  1  0
  1 30  1  0
  1 31  1  0
  4 32  1  0
  5 33  1  0
 10 34  1  0
 10 35  1  0
 12 36  1  0
 12 37  1  0
 16 38  1  0
 16 39  1  0
 18 40  1  0
 19 41  1  0
 20 42  1  0
 21 43  1  0
 25 44  1  0
 25 45  1  0
 25 46  1  0
 27 47  1  0
 28 48  1  0
M  CHG  1  15  -1
M  END
>  <UniqueID>  (19) 
19

>  <SMILES>  (19) 
CSc1ccc(-c2nc(CSCC(=O)[N-]Cc3ccccc3Cl)c(C)o2)cc1

>  <Energy>  (19) 
65.46160674560518

>  <Genealogy>  (19) 
CSc1ccc(-c2nc(CSCC(=O)[N-]Cc3ccccc3Cl)c(C)o2)cc1 (protonated)
CSc1ccc(-c2nc(CSCC(=O)[N-]Cc3ccccc3Cl)c(C)o2)cc1 (3D coordinates assigned)
CSc1ccc(-c2nc(CSCC(=O)[N-]Cc3ccccc3Cl)c(C)o2)cc1 (optimized conformer: 65.46160674560518 kcal/mol)

>  <smiles>  (19) 
CSc1ccc(-c2nc(CSCC(=O)NCc3ccccc3Cl)c(C)o2)cc1

>  <score_type>  (19) 
oracle

>  <origin>  (19) 
adg

>  <m_score__min__energy>  (19) 
-10.43

>  <m_primary>  (19) 
energy

$$$$
19:0
     RDKit          3D

 52 54  0  0  0  0  0  0  0  0999 V2000
   57.7390   32.1930   41.3850 C   0  0  0  0  0  0  0  0  0  0  0  0
   57.8490   32.1430   42.8800 C   0  0  0  0  0  0  0  0  0  0  0  0
   57.3150   31.0580   43.5900 C   0  0  0  0  0  0  0  0  0  0  0  0
   57.3750   31.0320   44.9850 C   0  0  0  0  0  0  0  0  0  0  0  0
   57.9690   32.0880   45.6810 C   0  0  0  0  0  0  0  0  0  0  0  0
   58.5120   33.1820   44.9860 C   0  0  0  0  0  0  0  0  0  0  0  0
   59.1370   34.2990   45.7340 C   0  0  0  0  0  0  0  0  0  0  0  0
   59.2300   35.4300   45.1870 O   0  0  0  0  0  0  0  0  0  0  0  0
   59.6970   34.1260   47.0430 N   0  0  0  0  0  0  0  0  0  0  0  0
   61.0570   33.7860   47.3630 C   0  0  0  0  0  0  0  0  0  0  0  0
   62.0670   33.8070   46.3840 C   0  0  0  0  0  0  0  0  0  0  0  0
   63.3790   33.4610   46.7180 C   0  0  0  0  0  0  0  0  0  0  0  0
   63.6940   33.0790   48.0240 C   0  0  0  0  0  0  0  0  0  0  0  0
   62.6920   33.0260   48.9960 C   0  0  0  0  0  0  0  0  0  0  0  0
   61.3710   33.3580   48.6670 C   0  0  0  0  0  0  0  0  0  0  0  0
   60.0950   33.2370   49.9320 S   0  0  0  0  0  0  0  0  0  0  0  0
   60.3000   31.4400   50.1970 C   0  0  0  0  0  0  0  0  0  0  0  0
   59.9270   30.6770   48.9680 C   0  0  0  0  0  0  0  0  0  0  0  0
   58.7160   30.5970   48.6220 O   0  0  0  0  0  0  0  0  0  0  0  0
   60.9550   30.1000   48.1550 N   0  0  0  0  0  0  0  0  0  0  0  0
   60.7910   29.7970   46.7390 C   0  0  0  0  0  0  0  0  0  0  0  0
   59.7440   28.7330   46.5520 C   0  0  0  0  0  0  0  0  0  0  0  0
   59.3530   27.9360   47.6390 C   0  0  0  0  0  0  0  0  0  0  0  0
   58.3700   26.9560   47.4780 C   0  0  0  0  0  0  0  0  0  0  0  0
   57.7620   26.7670   46.2290 C   0  0  0  0  0  0  0  0  0  0  0  0
   56.5050   25.5510   46.0280 S   0  0  0  0  0  0  0  0  0  0  0  0
   54.9660   26.3330   45.9430 N   0  0  0  0  0  0  0  0  0  0  0  0
   56.7470   24.7750   44.7650 O   0  0  0  0  0  0  0  0  0  0  0  0
   56.5210   24.6000   47.1910 O   0  0  0  0  0  0  0  0  0  0  0  0
   58.1400   27.5710   45.1460 C   0  0  0  0  0  0  0  0  0  0  0  0
   59.1250   28.5510   45.3060 C   0  0  0  0  0  0  0  0  0  0  0  0
   58.4250   33.2130   43.5820 C   0  0  0  0  0  0  0  0  0  0  0  0
   56.7710   32.6330   41.1031 H   0  0  0  0  0  0  0  0  0  0  0  0
   58.5543   32.8090   40.9777 H   0  0  0  0  0  0  0  0  0  0  0  0
   57.8110   31.1737   40.9777 H   0  0  0  0  0  0  0  0  0  0  0  0
   56.8471   30.2242   43.0461 H   0  0  0  0  0  0  0  0  0  0  0  0
   56.9539   30.1787   45.5368 H   0  0  0  0  0  0  0  0  0  0  0  0
   58.0118   32.0628   46.7799 H   0  0  0  0  0  0  0  0  0  0  0  0
   61.8230   34.0970   45.3514 H   0  0  0  0  0  0  0  0  0  0  0  0
   64.1661   33.4896   45.9501 H   0  0  0  0  0  0  0  0  0  0  0  0
   64.7302   32.8201   48.2870 H   0  0  0  0  0  0  0  0  0  0  0  0
   62.9410   32.7225   50.0236 H   0  0  0  0  0  0  0  0  0  0  0  0
   61.3503   31.2298   50.4472 H   0  0  0  0  0  0  0  0  0  0  0  0
   59.6406   31.1273   51.0201 H   0  0  0  0  0  0  0  0  0  0  0  0
   60.4819   30.7083   46.2061 H   0  0  0  0  0  0  0  0  0  0  0  0
   61.7480   29.4327   46.3373 H   0  0  0  0  0  0  0  0  0  0  0  0
   59.8227   28.0835   48.6227 H   0  0  0  0  0  0  0  0  0  0  0  0
   58.0726   26.3314   48.3332 H   0  0  0  0  0  0  0  0  0  0  0  0
   55.1380   27.3590   46.0280 H   0  0  0  0  0  0  0  0  0  0  0  0
   57.6604   27.4311   44.1660 H   0  0  0  0  0  0  0  0  0  0  0  0
   59.4153   29.1811   44.4523 H   0  0  0  0  0  0  0  0  0  0  0  0
   58.8115   34.0827   43.0303 H   0  0  0  0  0  0  0  0  0  0  0  0
  1  2  1  0
  2  3  2  0
  3  4  1  0
  4  5  2  0
  5  6  1  0
  6  7  1  0
  7  8  2  0
  7  9  1  0
  9 10  1  0
 10 11  2  0
 11 12  1  0
 12 13  2  0
 13 14  1  0
 14 15  2  0
 15 16  1  0
 16 17  1  0
 17 18  1  0
 18 19  2  0
 18 20  1  0
 20 21  1  0
 21 22  1  0
 22 23  2  0
 23 24  1  0
 24 25  2  0
 25 26  1  0
 26 27  1  0
 26 28  2  0
 26 29  2  0
 25 30  1  0
 30 31  2  0
  6 32  2  0
 32  2  1  0
 15 10  1  0
 31 22  1  0
  1 33  1  0
  1 34  1  0
  1 35  1  0
  3 36  1  0
  4 37  1  0
  5 38  1  0
 11 39  1  0
 12 40  1  0
 13 41  1  0
 14 42  1  0
 17 43  1  0
 17 44  1  0
 21 45  1  0
 21 46  1  0
 23 47  1  0
 24 48  1  0
 27 49  1  0
 30 50  1  0
 31 51  1  0
 32 52  1  0
M  CHG  3   9  -1  20  -1  27  -1
M  END
>  <UniqueID>  (20) 
20

>  <SMILES>  (20) 
Cc1cccc(C(=O)[N-]c2ccccc2SCC(=O)[N-]Cc2ccc(S([NH-])(=O)=O)cc2)c1

>  <Energy>  (20) 
51.76302444919317

>  <Genealogy>  (20) 
Cc1cccc(C(=O)[N-]c2ccccc2SCC(=O)[N-]Cc2ccc(S([NH-])(=O)=O)cc2)c1 (protonated)
Cc1cccc(C(=O)[N-]c2ccccc2SCC(=O)[N-]Cc2ccc(S([NH-])(=O)=O)cc2)c1 (3D coordinates assigned)
Cc1cccc(C(=O)[N-]c2ccccc2SCC(=O)[N-]Cc2ccc(S([NH-])(=O)=O)cc2)c1 (optimized conformer: 51.76302444919317 kcal/mol)

>  <smiles>  (20) 
Cc1cccc(C(=O)Nc2ccccc2SCC(=O)NCc2ccc(S(N)(=O)=O)cc2)c1

>  <score_type>  (20) 
oracle

>  <origin>  (20) 
adg

>  <m_score__min__energy>  (20) 
-14.07

>  <m_primary>  (20) 
energy

$$$$
20:0
     RDKit          3D

 35 37  0  0  0  0  0  0  0  0999 V2000
   57.2558   30.7131   41.7042 H   0  0  0  0  0  0  0  0  0  0  0  0
   57.2570   31.2450   42.6670 C   0  0  0  0  0  0  0  0  0  0  0  0
   58.1260   32.6380   43.0270 S   0  0  0  0  0  0  0  0  0  0  0  0
   57.5420   32.7250   44.6070 C   0  0  0  0  0  0  0  0  0  0  0  0
   57.8320   33.6290   45.4970 N   0  0  0  0  0  0  0  0  0  0  0  0
   58.6280   33.4700   46.6850 C   0  0  0  0  0  0  0  0  0  0  0  0
   58.7600   34.4160   47.5090 O   0  0  0  0  0  0  0  0  0  0  0  0
   59.3050   32.1870   46.9530 C   0  0  0  0  0  0  0  0  0  0  0  0
   58.8360   31.0500   46.3680 N   0  0  0  0  0  0  0  0  0  0  0  0
   59.4040   29.8280   46.5690 C   0  0  0  0  0  0  0  0  0  0  0  0
   58.8320   28.6390   45.8870 C   0  0  0  0  0  0  0  0  0  0  0  0
   59.3520   28.2290   44.6470 C   0  0  0  0  0  0  0  0  0  0  0  0
   60.1825   28.7887   44.1920 H   0  0  0  0  0  0  0  0  0  0  0  0
   58.8240   27.1190   43.9890 C   0  0  0  0  0  0  0  0  0  0  0  0
   59.2433   26.8054   43.0216 H   0  0  0  0  0  0  0  0  0  0  0  0
   57.7660   26.4040   44.5520 C   0  0  0  0  0  0  0  0  0  0  0  0
   57.3594   25.5262   44.0285 H   0  0  0  0  0  0  0  0  0  0  0  0
   57.2170   26.7990   45.7840 C   0  0  0  0  0  0  0  0  0  0  0  0
   56.1160   26.0670   46.3560 N   0  0  0  0  0  0  0  0  0  0  0  0
   56.3170   25.1830   47.2150 O   0  0  0  0  0  0  0  0  0  0  0  0
   54.8240   26.3280   45.9630 O   0  0  0  0  0  0  0  0  0  0  0  0
   57.7550   27.9210   46.4440 C   0  0  0  0  0  0  0  0  0  0  0  0
   57.3290   28.2408   47.4064 H   0  0  0  0  0  0  0  0  0  0  0  0
   60.5330   29.7320   47.4020 C   0  0  0  0  0  0  0  0  0  0  0  0
   61.0171   28.7584   47.5684 H   0  0  0  0  0  0  0  0  0  0  0  0
   61.0350   30.8800   48.0160 C   0  0  0  0  0  0  0  0  0  0  0  0
   61.9143   30.8117   48.6734 H   0  0  0  0  0  0  0  0  0  0  0  0
   60.4230   32.1140   47.7970 C   0  0  0  0  0  0  0  0  0  0  0  0
   60.8133   33.0212   48.2814 H   0  0  0  0  0  0  0  0  0  0  0  0
   56.6910   31.7110   44.8740 N   0  0  0  0  0  0  0  0  0  0  0  0
   56.5390   30.8840   43.8040 C   0  0  0  0  0  0  0  0  0  0  0  0
   55.6140   29.7110   43.8400 C   0  0  0  0  0  0  0  0  0  0  0  0
   55.4025   29.4428   44.8856 H   0  0  0  0  0  0  0  0  0  0  0  0
   54.6740   29.9695   43.3304 H   0  0  0  0  0  0  0  0  0  0  0  0
   56.0845   28.8572   43.3304 H   0  0  0  0  0  0  0  0  0  0  0  0
  1  2  1  0
  2  3  1  0
  3  4  1  0
  4  5  2  0
  5  6  1  0
  6  7  2  0
  6  8  1  0
  8  9  2  0
  9 10  1  0
 10 11  1  0
 11 12  2  0
 12 13  1  0
 12 14  1  0
 14 15  1  0
 14 16  2  0
 16 17  1  0
 16 18  1  0
 18 19  1  0
 19 20  2  0
 19 21  1  0
 18 22  2  0
 22 23  1  0
 10 24  2  0
 24 25  1  0
 24 26  1  0
 26 27  1  0
 26 28  2  0
 28 29  1  0
  4 30  1  0
 30 31  1  0
 31 32  1  0
 32 33  1  0
 32 34  1  0
 32 35  1  0
 31  2  2  0
 28  8  1  0
 22 11  1  0
M  CHG  3  19   1  21  -1  30  -1
M  END
>  <UniqueID>  (21) 
21

>  <SMILES>  (21) 
Cc1cs/c(=N\C(=O)c2cccc(-c3cccc([N+](=O)[O-])c3)n2)[n-]1

>  <Energy>  (21) 
75.29175137034768

>  <Genealogy>  (21) 
Cc1csc(=NC(=O)c2cccc(-c3cccc([N+](=O)[O-])c3)n2)[n-]1 (protonated)
Cc1cs/c(=N\C(=O)c2cccc(-c3cccc([N+](=O)[O-])c3)n2)[n-]1 (cis-trans isomerization)
Cc1cs/c(=N\C(=O)c2cccc(-c3cccc([N+](=O)[O-])c3)n2)[n-]1 (3D coordinates assigned)
Cc1cs/c(=N\C(=O)c2cccc(-c3cccc([N+](=O)[O-])c3)n2)[n-]1 (optimized conformer: 75.29175137034768 kcal/mol)

>  <smiles>  (21) 
Cc1csc(=NC(=O)c2cccc(-c3cccc([N+](=O)[O-])c3)n2)[nH]1

>  <score_type>  (21) 
oracle

>  <origin>  (21) 
adg

>  <m_score__min__energy>  (21) 
-10.81

>  <m_primary>  (21) 
energy

$$$$
21:0
     RDKit          3D

 35 36  0  0  0  0  0  0  0  0999 V2000
   57.0230   31.0530   42.4310 C   0  0  0  0  0  0  0  0  0  0  0  0
   56.6270   29.9350   43.0390 C   0  0  0  0  0  0  0  0  0  0  0  0
   56.2870   29.8900   44.4690 C   0  0  0  0  0  0  0  0  0  0  0  0
   55.2250   29.3330   44.8620 O   0  0  0  0  0  0  0  0  0  0  0  0
   57.1770   30.4880   45.4140 N   0  0  0  0  0  0  0  0  0  0  0  0
   57.5450   31.8970   45.3710 C   0  0  0  0  0  0  0  0  0  0  0  0
   58.9000   32.0820   46.0000 C   0  0  0  0  0  0  0  0  0  0  0  0
   59.4650   31.0340   46.7430 C   0  0  0  0  0  0  0  0  0  0  0  0
   60.7100   31.1860   47.3540 C   0  0  0  0  0  0  0  0  0  0  0  0
   61.4140   32.3970   47.2500 C   0  0  0  0  0  0  0  0  0  0  0  0
   62.7410   32.5660   47.8900 C   0  0  0  0  0  0  0  0  0  0  0  0
   63.7830   32.2500   47.2520 O   0  0  0  0  0  0  0  0  0  0  0  0
   62.8590   33.1240   49.2090 N   0  0  0  0  0  0  0  0  0  0  0  0
   64.0510   33.0160   50.0060 C   0  0  0  0  0  0  0  0  0  0  0  0
   64.9590   31.9810   49.7490 C   0  0  0  0  0  0  0  0  0  0  0  0
   66.1260   31.8660   50.5070 C   0  0  0  0  0  0  0  0  0  0  0  0
   66.3840   32.8020   51.5080 C   0  0  0  0  0  0  0  0  0  0  0  0
   65.5130   33.8210   51.7290 N   0  0  0  0  0  0  0  0  0  0  0  0
   64.3680   33.9580   51.0070 C   0  0  0  0  0  0  0  0  0  0  0  0
   63.6160   34.9440   51.2280 O   0  0  0  0  0  0  0  0  0  0  0  0
   60.8470   33.4490   46.5090 C   0  0  0  0  0  0  0  0  0  0  0  0
   59.5980   33.3030   45.8940 C   0  0  0  0  0  0  0  0  0  0  0  0
   58.8850   34.8030   44.9320 Br  0  0  0  0  0  0  0  0  0  0  0  0
   57.2671   31.0390   41.3585 H   0  0  0  0  0  0  0  0  0  0  0  0
   57.1058   31.9897   43.0017 H   0  0  0  0  0  0  0  0  0  0  0  0
   56.5516   29.0102   42.4483 H   0  0  0  0  0  0  0  0  0  0  0  0
   57.5772   32.2356   44.3249 H   0  0  0  0  0  0  0  0  0  0  0  0
   56.8003   32.4872   45.9251 H   0  0  0  0  0  0  0  0  0  0  0  0
   58.9209   30.0834   46.8446 H   0  0  0  0  0  0  0  0  0  0  0  0
   61.1441   30.3501   47.9222 H   0  0  0  0  0  0  0  0  0  0  0  0
   62.1190   33.7880   49.5300 H   0  0  0  0  0  0  0  0  0  0  0  0
   64.7521   31.2565   48.9476 H   0  0  0  0  0  0  0  0  0  0  0  0
   66.8341   31.0460   50.3166 H   0  0  0  0  0  0  0  0  0  0  0  0
   67.2942   32.7152   52.1196 H   0  0  0  0  0  0  0  0  0  0  0  0
   61.3922   34.3994   46.4113 H   0  0  0  0  0  0  0  0  0  0  0  0
  1  2  2  0
  2  3  1  0
  3  4  2  0
  3  5  1  0
  5  6  1  0
  6  7  1  0
  7  8  2  0
  8  9  1  0
  9 10  2  0
 10 11  1  0
 11 12  2  0
 11 13  1  0
 13 14  1  0
 14 15  2  0
 15 16  1  0
 16 17  2  0
 17 18  1  0
 18 19  1  0
 19 20  2  0
 10 21  1  0
 21 22  2  0
 22 23  1  0
 22  7  1  0
 19 14  1  0
  1 24  1  0
  1 25  1  0
  2 26  1  0
  6 27  1  0
  6 28  1  0
  8 29  1  0
  9 30  1  0
 13 31  1  0
 15 32  1  0
 16 33  1  0
 17 34  1  0
 21 35  1  0
M  CHG  2   5  -1  18  -1
M  END
>  <UniqueID>  (22) 
22

>  <SMILES>  (22) 
C=CC(=O)[N-]Cc1ccc(C(=O)Nc2ccc[n-]c2=O)cc1Br

>  <Energy>  (22) 
40.242509795792905

>  <Genealogy>  (22) 
C=CC(=O)[N-]Cc1ccc(C(=O)Nc2ccc[n-]c2=O)cc1Br (protonated)
C=CC(=O)[N-]Cc1ccc(C(=O)Nc2ccc[n-]c2=O)cc1Br (3D coordinates assigned)
C=CC(=O)[N-]Cc1ccc(C(=O)Nc2ccc[n-]c2=O)cc1Br (optimized conformer: 40.242509795792905 kcal/mol)

>  <smiles>  (22) 
C=CC(=O)NCc1ccc(C(=O)Nc2ccc[nH]c2=O)cc1Br

>  <score_type>  (22) 
oracle

>  <origin>  (22) 
adg

>  <m_score__min__energy>  (22) 
-10.130000000000001

>  <m_primary>  (22) 
energy

$$$$
22:0
     RDKit          3D

 37 39  0  0  0  0  0  0  0  0999 V2000
   58.1484   31.7184   53.5162 H   0  0  0  0  0  0  0  0  0  0  0  0
   57.1940   32.1410   53.1690 C   0  0  0  0  0  0  0  0  0  0  0  0
   57.0434   33.2306   53.1668 H   0  0  0  0  0  0  0  0  0  0  0  0
   56.2180   31.3310   52.7500 C   0  0  0  0  0  0  0  0  0  0  0  0
   55.0290   31.8100   52.3150 N   0  0  0  0  0  0  0  0  0  0  0  0
   54.3260   30.7110   51.9700 C   0  0  0  0  0  0  0  0  0  0  0  0
   53.0690   30.7160   51.5020 C   0  0  0  0  0  0  0  0  0  0  0  0
   52.8387   30.0761   50.6374 H   0  0  0  0  0  0  0  0  0  0  0  0
   51.9760   31.5250   52.0730 C   0  0  0  0  0  0  0  0  0  0  0  0
   51.6460   31.4850   53.3760 N   0  0  0  0  0  0  0  0  0  0  0  0
   50.5810   32.3140   53.4610 C   0  0  0  0  0  0  0  0  0  0  0  0
   49.9890   32.5480   54.5460 O   0  0  0  0  0  0  0  0  0  0  0  0
   50.2000   32.8640   52.2900 N   0  0  0  0  0  0  0  0  0  0  0  0
   51.0820   32.3500   51.4180 C   0  0  0  0  0  0  0  0  0  0  0  0
   51.0340   32.5940   50.0510 O   0  0  0  0  0  0  0  0  0  0  0  0
   55.0970   29.5960   52.2130 C   0  0  0  0  0  0  0  0  0  0  0  0
   54.7620   28.4000   52.0010 O   0  0  0  0  0  0  0  0  0  0  0  0
   56.2890   29.9740   52.7090 N   0  0  0  0  0  0  0  0  0  0  0  0
   57.4150   29.0840   53.0150 C   0  0  0  0  0  0  0  0  0  0  0  0
   57.6385   28.4629   52.1351 H   0  0  0  0  0  0  0  0  0  0  0  0
   58.2952   29.6901   53.2757 H   0  0  0  0  0  0  0  0  0  0  0  0
   57.0640   28.1950   54.1770 C   0  0  0  0  0  0  0  0  0  0  0  0
   57.9590   27.7910   54.9080 O   0  0  0  0  0  0  0  0  0  0  0  0
   55.6800   27.8680   54.4610 N   0  0  0  0  0  0  0  0  0  0  0  0
   55.1260   27.8690   53.5720 H   0  0  0  0  0  0  0  0  0  0  0  0
   55.0640   28.8260   55.3850 C   0  0  0  0  0  0  0  0  0  0  0  0
   55.8062   29.1789   56.1161 H   0  0  0  0  0  0  0  0  0  0  0  0
   54.6816   29.7059   54.8469 H   0  0  0  0  0  0  0  0  0  0  0  0
   53.9400   28.0860   56.0940 C   0  0  0  0  0  0  0  0  0  0  0  0
   53.9289   28.3391   57.1644 H   0  0  0  0  0  0  0  0  0  0  0  0
   52.9542   28.3584   55.6889 H   0  0  0  0  0  0  0  0  0  0  0  0
   54.2390   26.6060   55.9010 C   0  0  0  0  0  0  0  0  0  0  0  0
   54.3761   26.1117   56.8741 H   0  0  0  0  0  0  0  0  0  0  0  0
   53.4145   26.0869   55.3905 H   0  0  0  0  0  0  0  0  0  0  0  0
   55.5270   26.5520   55.0910 C   0  0  0  0  0  0  0  0  0  0  0  0
   56.3823   26.3452   55.7511 H   0  0  0  0  0  0  0  0  0  0  0  0
   55.4885   25.7525   54.3365 H   0  0  0  0  0  0  0  0  0  0  0  0
  1  2  1  0
  2  3  1  0
  2  4  2  0
  4  5  1  0
  5  6  1  0
  6  7  2  0
  7  8  1  0
  7  9  1  0
  9 10  1  0
 10 11  1  0
 11 12  2  0
 11 13  1  0
 13 14  1  0
 14 15  1  0
  6 16  1  0
 16 17  2  0
 16 18  1  0
 18 19  1  0
 19 20  1  0
 19 21  1  0
 19 22  1  0
 22 23  2  0
 22 24  1  0
 24 25  1  0
 24 26  1  0
 26 27  1  0
 26 28  1  0
 26 29  1  0
 29 30  1  0
 29 31  1  0
 29 32  1  0
 32 33  1  0
 32 34  1  0
 32 35  1  0
 35 36  1  0
 35 37  1  0
 18  4  1  0
 35 24  1  0
 14  9  2  0
M  CHG  5   5  -1  10  -1  13  -1  15  -1  24   1
M  END
>  <UniqueID>  (23) 
23

>  <SMILES>  (23) 
C=c1[n-]/c(=C\c2[n-]c(=O)[n-]c2[O-])c(=O)n1CC(=O)[NH+]1CCCC1

>  <Energy>  (23) 
106.41785874349223

>  <Genealogy>  (23) 
C=c1[n-]c(=Cc2[n-]c(=O)[n-]c2[O-])c(=O)n1CC(=O)[NH+]1CCCC1 (protonated)
C=c1[n-]/c(=C\c2[n-]c(=O)[n-]c2[O-])c(=O)n1CC(=O)[NH+]1CCCC1 (cis-trans isomerization)
C=c1[n-]/c(=C\c2[n-]c(=O)[n-]c2[O-])c(=O)n1CC(=O)[NH+]1CCCC1 (3D coordinates assigned)
C=c1[n-]/c(=C\c2[n-]c(=O)[n-]c2[O-])c(=O)n1CC(=O)[NH+]1CCCC1 (nonaromatic ring conformer: 106.41785874349223 kcal/mol)

>  <smiles>  (23) 
C=c1[nH]c(=Cc2[nH]c(=O)[nH]c2O)c(=O)n1CC(=O)N1CCCC1

>  <score_type>  (23) 
oracle

>  <origin>  (23) 
adg

>  <m_score__min__energy>  (23) 
-15.640000000000001

>  <m_primary>  (23) 
energy

$$$$
23:0
     RDKit          3D

 60 63  0  0  0  0  0  0  0  0999 V2000
   62.6490   34.2320   48.6280 C   0  0  0  0  0  0  0  0  0  0  0  0
   61.5570   33.2770   48.8560 N   0  0  0  0  0  0  0  0  0  0  0  0
   60.2270   33.9110   48.9950 C   0  0  0  0  0  0  0  0  0  0  0  0
   59.4810   34.1020   47.6890 C   0  0  0  0  0  0  0  0  0  0  0  0
   59.9930   34.9440   46.6830 C   0  0  0  0  0  0  0  0  0  0  0  0
   59.2960   35.1210   45.4830 C   0  0  0  0  0  0  0  0  0  0  0  0
   58.0670   34.4850   45.2890 C   0  0  0  0  0  0  0  0  0  0  0  0
   57.5280   33.6800   46.2990 C   0  0  0  0  0  0  0  0  0  0  0  0
   58.2270   33.4940   47.4960 C   0  0  0  0  0  0  0  0  0  0  0  0
   61.6020   31.9410   47.7240 S   0  0  0  0  0  0  0  0  0  0  0  0
   61.2610   32.4540   46.3540 O   0  0  0  0  0  0  0  0  0  0  0  0
   62.9930   31.3770   47.6750 O   0  0  0  0  0  0  0  0  0  0  0  0
   60.4660   30.6520   48.1220 C   0  0  0  0  0  0  0  0  0  0  0  0
   59.4020   30.8160   49.0020 C   0  0  0  0  0  0  0  0  0  0  0  0
   58.5720   29.3560   49.0980 S   0  0  0  0  0  0  0  0  0  0  0  0
   59.5760   28.4990   48.0590 C   0  0  0  0  0  0  0  0  0  0  0  0
   59.3760   27.1020   47.6480 C   0  0  0  0  0  0  0  0  0  0  0  0
   59.3720   26.1940   48.5240 O   0  0  0  0  0  0  0  0  0  0  0  0
   59.1810   26.7670   46.2660 N   0  0  0  0  0  0  0  0  0  0  0  0
   58.6150   25.5100   45.8580 C   0  0  0  0  0  0  0  0  0  0  0  0
   59.4710   24.4100   45.6870 C   0  0  0  0  0  0  0  0  0  0  0  0
   58.9530   23.1540   45.3610 C   0  0  0  0  0  0  0  0  0  0  0  0
   57.5810   22.9870   45.1960 C   0  0  0  0  0  0  0  0  0  0  0  0
   56.7180   24.0780   45.3350 C   0  0  0  0  0  0  0  0  0  0  0  0
   57.2220   25.3550   45.6430 C   0  0  0  0  0  0  0  0  0  0  0  0
   56.2880   26.5040   45.6710 C   0  0  0  0  0  0  0  0  0  0  0  0
   55.0780   26.3330   45.9860 O   0  0  0  0  0  0  0  0  0  0  0  0
   56.7660   27.8160   45.3630 N   0  0  0  0  0  0  0  0  0  0  0  0
   55.8810   28.9420   45.1010 C   0  0  0  0  0  0  0  0  0  0  0  0
   56.6440   30.0010   44.3620 C   0  0  0  0  0  0  0  0  0  0  0  0
   56.2950   30.3380   43.0420 C   0  0  0  0  0  0  0  0  0  0  0  0
   57.0450   31.2850   42.3340 C   0  0  0  0  0  0  0  0  0  0  0  0
   58.1530   31.8900   42.9330 C   0  0  0  0  0  0  0  0  0  0  0  0
   58.5150   31.5490   44.2410 C   0  0  0  0  0  0  0  0  0  0  0  0
   57.7670   30.6050   44.9540 C   0  0  0  0  0  0  0  0  0  0  0  0
   60.5820   29.3510   47.6170 C   0  0  0  0  0  0  0  0  0  0  0  0
   63.0429   34.5765   49.5956 H   0  0  0  0  0  0  0  0  0  0  0  0
   63.4523   33.7414   48.0588 H   0  0  0  0  0  0  0  0  0  0  0  0
   62.2698   35.0935   48.0588 H   0  0  0  0  0  0  0  0  0  0  0  0
   59.6122   33.2787   49.6524 H   0  0  0  0  0  0  0  0  0  0  0  0
   60.4016   34.9167   49.4051 H   0  0  0  0  0  0  0  0  0  0  0  0
   60.9479   35.4663   46.8419 H   0  0  0  0  0  0  0  0  0  0  0  0
   59.7153   35.7606   44.6924 H   0  0  0  0  0  0  0  0  0  0  0  0
   57.5230   34.6171   44.3421 H   0  0  0  0  0  0  0  0  0  0  0  0
   56.5529   33.1928   46.1511 H   0  0  0  0  0  0  0  0  0  0  0  0
   57.7940   32.8690   48.2909 H   0  0  0  0  0  0  0  0  0  0  0  0
   59.1472   31.7400   49.5417 H   0  0  0  0  0  0  0  0  0  0  0  0
   59.6560   27.3530   45.5420 H   0  0  0  0  0  0  0  0  0  0  0  0
   60.5565   24.5380   45.8105 H   0  0  0  0  0  0  0  0  0  0  0  0
   59.6301   22.2963   45.2346 H   0  0  0  0  0  0  0  0  0  0  0  0
   57.1746   21.9935   44.9555 H   0  0  0  0  0  0  0  0  0  0  0  0
   55.6352   23.9368   45.2024 H   0  0  0  0  0  0  0  0  0  0  0  0
   55.0292   28.6074   44.4907 H   0  0  0  0  0  0  0  0  0  0  0  0
   55.5060   29.3491   46.0516 H   0  0  0  0  0  0  0  0  0  0  0  0
   55.4296   29.8558   42.5639 H   0  0  0  0  0  0  0  0  0  0  0  0
   56.7617   31.5529   41.3054 H   0  0  0  0  0  0  0  0  0  0  0  0
   58.7409   32.6346   42.3762 H   0  0  0  0  0  0  0  0  0  0  0  0
   59.3894   32.0239   44.7099 H   0  0  0  0  0  0  0  0  0  0  0  0
   58.0584   30.3351   45.9798 H   0  0  0  0  0  0  0  0  0  0  0  0
   61.3882   29.0348   46.9387 H   0  0  0  0  0  0  0  0  0  0  0  0
  1  2  1  0
  2  3  1  0
  3  4  1  0
  4  5  2  0
  5  6  1  0
  6  7  2  0
  7  8  1  0
  8  9  2  0
  2 10  1  0
 10 11  2  0
 10 12  2  0
 10 13  1  0
 13 14  2  0
 14 15  1  0
 15 16  1  0
 16 17  1  0
 17 18  2  0
 17 19  1  0
 19 20  1  0
 20 21  2  0
 21 22  1  0
 22 23  2  0
 23 24  1  0
 24 25  2  0
 25 26  1  0
 26 27  2  0
 26 28  1  0
 28 29  1  0
 29 30  1  0
 30 31  2  0
 31 32  1  0
 32 33  2  0
 33 34  1  0
 34 35  2  0
 16 36  2  0
  9  4  1  0
 36 13  1  0
 25 20  1  0
 35 30  1  0
  1 37  1  0
  1 38  1  0
  1 39  1  0
  3 40  1  0
  3 41  1  0
  5 42  1  0
  6 43  1  0
  7 44  1  0
  8 45  1  0
  9 46  1  0
 14 47  1  0
 19 48  1  0
 21 49  1  0
 22 50  1  0
 23 51  1  0
 24 52  1  0
 29 53  1  0
 29 54  1  0
 31 55  1  0
 32 56  1  0
 33 57  1  0
 34 58  1  0
 35 59  1  0
 36 60  1  0
M  CHG  1  28  -1
M  END
>  <UniqueID>  (24) 
24

>  <SMILES>  (24) 
CN(Cc1ccccc1)S(=O)(=O)c1csc(C(=O)Nc2ccccc2C(=O)[N-]Cc2ccccc2)c1

>  <Energy>  (24) 
96.38255351390424

>  <Genealogy>  (24) 
CN(Cc1ccccc1)S(=O)(=O)c1csc(C(=O)Nc2ccccc2C(=O)[N-]Cc2ccccc2)c1 (protonated)
CN(Cc1ccccc1)S(=O)(=O)c1csc(C(=O)Nc2ccccc2C(=O)[N-]Cc2ccccc2)c1 (3D coordinates assigned)
CN(Cc1ccccc1)S(=O)(=O)c1csc(C(=O)Nc2ccccc2C(=O)[N-]Cc2ccccc2)c1 (optimized conformer: 96.38255351390424 kcal/mol)

>  <smiles>  (24) 
CN(Cc1ccccc1)S(=O)(=O)c1csc(C(=O)Nc2ccccc2C(=O)NCc2ccccc2)c1

>  <score_type>  (24) 
oracle

>  <origin>  (24) 
adg

>  <m_score__min__energy>  (24) 
-11.960000000000001

>  <m_primary>  (24) 
energy

$$$$
24:0
     RDKit          3D

 48 51  0  0  0  0  0  0  0  0999 V2000
   59.1096   25.7430   46.1755 H   0  0  0  0  0  0  0  0  0  0  0  0
   59.2290   26.8250   46.3340 C   0  0  0  0  0  0  0  0  0  0  0  0
   60.2170   27.2600   47.1270 C   0  0  0  0  0  0  0  0  0  0  0  0
   61.2499   26.9914   46.8604 H   0  0  0  0  0  0  0  0  0  0  0  0
   60.0030   28.0800   48.3400 C   0  0  0  0  0  0  0  0  0  0  0  0
   59.1440   29.1350   48.2570 N   0  0  0  0  0  0  0  0  0  0  0  0
   58.8910   29.9490   49.3160 C   0  0  0  0  0  0  0  0  0  0  0  0
   58.1870   30.7873   49.2082 H   0  0  0  0  0  0  0  0  0  0  0  0
   59.5230   29.7230   50.5400 C   0  0  0  0  0  0  0  0  0  0  0  0
   59.3176   30.3749   51.4019 H   0  0  0  0  0  0  0  0  0  0  0  0
   60.4190   28.6590   50.6560 C   0  0  0  0  0  0  0  0  0  0  0  0
   60.9287   28.4707   51.6124 H   0  0  0  0  0  0  0  0  0  0  0  0
   60.6680   27.8340   49.5580 C   0  0  0  0  0  0  0  0  0  0  0  0
   61.3780   26.9981   49.6427 H   0  0  0  0  0  0  0  0  0  0  0  0
   58.2980   27.7510   45.6680 C   0  0  0  0  0  0  0  0  0  0  0  0
   58.6960   28.7960   44.9040 N   0  0  0  0  0  0  0  0  0  0  0  0
   57.5420   29.3650   44.5130 C   0  0  0  0  0  0  0  0  0  0  0  0
   57.4580   30.6260   43.7120 C   0  0  0  0  0  0  0  0  0  0  0  0
   56.4191   30.7831   43.3864 H   0  0  0  0  0  0  0  0  0  0  0  0
   58.1137   30.5417   42.8328 H   0  0  0  0  0  0  0  0  0  0  0  0
   57.9000   31.7930   44.5500 C   0  0  0  0  0  0  0  0  0  0  0  0
   57.4030   33.0790   44.2920 C   0  0  0  0  0  0  0  0  0  0  0  0
   56.7027   33.2390   43.4589 H   0  0  0  0  0  0  0  0  0  0  0  0
   57.7940   34.1570   45.0890 C   0  0  0  0  0  0  0  0  0  0  0  0
   57.4131   35.1660   44.8725 H   0  0  0  0  0  0  0  0  0  0  0  0
   58.6680   33.9570   46.1610 C   0  0  0  0  0  0  0  0  0  0  0  0
   58.9810   34.8124   46.7777 H   0  0  0  0  0  0  0  0  0  0  0  0
   59.1490   32.6720   46.4560 C   0  0  0  0  0  0  0  0  0  0  0  0
   60.0600   32.4950   47.5530 N   0  0  0  0  0  0  0  0  0  0  0  0
   59.8080   32.9200   48.4740 H   0  0  0  0  0  0  0  0  0  0  0  0
   61.2390   31.6760   47.4870 C   0  0  0  0  0  0  0  0  0  0  0  0
   61.2850   30.7130   46.6720 O   0  0  0  0  0  0  0  0  0  0  0  0
   62.3870   31.9190   48.3960 C   0  0  0  0  0  0  0  0  0  0  0  0
   62.5090   31.1900   49.5950 C   0  0  0  0  0  0  0  0  0  0  0  0
   61.7445   30.4454   49.8615 H   0  0  0  0  0  0  0  0  0  0  0  0
   63.5950   31.4060   50.4490 C   0  0  0  0  0  0  0  0  0  0  0  0
   63.6800   30.8339   51.3846 H   0  0  0  0  0  0  0  0  0  0  0  0
   64.5720   32.3470   50.1160 C   0  0  0  0  0  0  0  0  0  0  0  0
   65.4240   32.5184   50.7904 H   0  0  0  0  0  0  0  0  0  0  0  0
   64.4660   33.0700   48.9260 C   0  0  0  0  0  0  0  0  0  0  0  0
   65.2368   33.8095   48.6633 H   0  0  0  0  0  0  0  0  0  0  0  0
   63.3830   32.8570   48.0670 C   0  0  0  0  0  0  0  0  0  0  0  0
   63.3094   33.4262   47.1286 H   0  0  0  0  0  0  0  0  0  0  0  0
   58.7690   31.5940   45.6350 C   0  0  0  0  0  0  0  0  0  0  0  0
   59.1563   30.5861   45.8451 H   0  0  0  0  0  0  0  0  0  0  0  0
   56.4960   28.6680   45.0630 C   0  0  0  0  0  0  0  0  0  0  0  0
   55.1490   28.9750   44.9220 O   0  0  0  0  0  0  0  0  0  0  0  0
   56.9560   27.6390   45.7910 N   0  0  0  0  0  0  0  0  0  0  0  0
  1  2  1  0
  2  3  2  0
  3  4  1  0
  3  5  1  0
  5  6  2  0
  6  7  1  0
  7  8  1  0
  7  9  2  0
  9 10  1  0
  9 11  1  0
 11 12  1  0
 11 13  2  0
 13 14  1  0
  2 15  1  0
 15 16  2  0
 16 17  1  0
 17 18  1  0
 18 19  1  0
 18 20  1  0
 18 21  1  0
 21 22  2  0
 22 23  1  0
 22 24  1  0
 24 25  1  0
 24 26  2  0
 26 27  1  0
 26 28  1  0
 28 29  1  0
 29 30  1  0
 29 31  1  0
 31 32  2  0
 31 33  1  0
 33 34  2  0
 34 35  1  0
 34 36  1  0
 36 37  1  0
 36 38  2  0
 38 39  1  0
 38 40  1  0
 40 41  1  0
 40 42  2  0
 42 43  1  0
 28 44  2  0
 44 45  1  0
 17 46  2  0
 46 47  1  0
 46 48  1  0
 13  5  1  0
 48 15  1  0
 44 21  1  0
 42 33  1  0
M  CHG  2  47  -1  48  -1
M  END
>  <UniqueID>  (25) 
25

>  <SMILES>  (25) 
O=C(Nc1cccc(Cc2nc(/C=C/c3ccccn3)[n-]c2[O-])c1)c1ccccc1

>  <Energy>  (25) 
86.603124280609

>  <Genealogy>  (25) 
O=C(Nc1cccc(Cc2nc(C=Cc3ccccn3)[n-]c2[O-])c1)c1ccccc1 (protonated)
O=C(Nc1cccc(Cc2nc(/C=C/c3ccccn3)[n-]c2[O-])c1)c1ccccc1 (cis-trans isomerization)
O=C(Nc1cccc(Cc2nc(/C=C/c3ccccn3)[n-]c2[O-])c1)c1ccccc1 (3D coordinates assigned)
O=C(Nc1cccc(Cc2nc(/C=C/c3ccccn3)[n-]c2[O-])c1)c1ccccc1 (optimized conformer: 86.603124280609 kcal/mol)

>  <smiles>  (25) 
O=C(Nc1cccc(Cc2nc(C=Cc3ccccn3)[nH]c2O)c1)c1ccccc1

>  <score_type>  (25) 
oracle

>  <origin>  (25) 
adg

>  <m_score__min__energy>  (25) 
-13.800000000000001

>  <m_primary>  (25) 
energy

$$$$
25:0
     RDKit          3D

 48 50  0  0  0  0  0  0  0  0999 V2000
   64.5300   32.7000   46.7790 H   0  0  0  0  0  0  0  0  0  0  0  0
   63.7710   33.3870   46.5740 N   0  0  0  0  0  0  0  0  0  0  0  0
   62.4350   32.9800   47.5910 S   0  0  0  0  0  0  0  0  0  0  0  0
   62.4940   33.7950   48.8520 O   0  0  0  0  0  0  0  0  0  0  0  0
   62.5060   31.5230   47.9540 O   0  0  0  0  0  0  0  0  0  0  0  0
   60.9310   33.3160   46.7390 C   0  0  0  0  0  0  0  0  0  0  0  0
   60.6400   34.6200   46.3230 C   0  0  0  0  0  0  0  0  0  0  0  0
   61.3477   35.4346   46.5367 H   0  0  0  0  0  0  0  0  0  0  0  0
   59.4550   34.8900   45.6380 C   0  0  0  0  0  0  0  0  0  0  0  0
   59.2288   35.9176   45.3173 H   0  0  0  0  0  0  0  0  0  0  0  0
   58.5540   33.8580   45.3580 C   0  0  0  0  0  0  0  0  0  0  0  0
   57.6214   34.0781   44.8178 H   0  0  0  0  0  0  0  0  0  0  0  0
   58.8330   32.5400   45.7630 C   0  0  0  0  0  0  0  0  0  0  0  0
   57.8860   31.4390   45.4730 C   0  0  0  0  0  0  0  0  0  0  0  0
   56.8120   31.5690   44.6580 N   0  0  0  0  0  0  0  0  0  0  0  0
   56.0940   30.4540   44.5320 N   0  0  0  0  0  0  0  0  0  0  0  0
   56.5830   29.4190   45.2460 C   0  0  0  0  0  0  0  0  0  0  0  0
   56.0130   28.2490   45.2450 N   0  0  0  0  0  0  0  0  0  0  0  0
   56.6450   26.9680   45.3920 C   0  0  0  0  0  0  0  0  0  0  0  0
   57.7910   26.7490   44.9110 O   0  0  0  0  0  0  0  0  0  0  0  0
   55.9730   25.9490   46.1450 N   0  0  0  0  0  0  0  0  0  0  0  0
   55.1680   26.2450   46.7420 H   0  0  0  0  0  0  0  0  0  0  0  0
   56.4080   24.5790   46.2230 C   0  0  0  0  0  0  0  0  0  0  0  0
   56.9880   23.9780   45.0970 C   0  0  0  0  0  0  0  0  0  0  0  0
   57.0953   24.5529   44.1654 H   0  0  0  0  0  0  0  0  0  0  0  0
   57.4310   22.6530   45.1500 C   0  0  0  0  0  0  0  0  0  0  0  0
   57.8732   22.1874   44.2569 H   0  0  0  0  0  0  0  0  0  0  0  0
   57.3140   21.9140   46.3380 C   0  0  0  0  0  0  0  0  0  0  0  0
   57.7630   20.4770   46.3910 C   0  0  0  0  0  0  0  0  0  0  0  0
   58.4393   20.3501   47.2492 H   0  0  0  0  0  0  0  0  0  0  0  0
   58.2683   20.2494   45.4408 H   0  0  0  0  0  0  0  0  0  0  0  0
   56.5870   19.4980   46.5410 C   0  0  0  0  0  0  0  0  0  0  0  0
   56.2009   19.5729   47.5683 H   0  0  0  0  0  0  0  0  0  0  0  0
   56.9719   18.4935   46.3112 H   0  0  0  0  0  0  0  0  0  0  0  0
   55.4260   19.7730   45.5620 C   0  0  0  0  0  0  0  0  0  0  0  0
   55.4349   20.8404   45.2964 H   0  0  0  0  0  0  0  0  0  0  0  0
   54.4912   19.4872   46.0664 H   0  0  0  0  0  0  0  0  0  0  0  0
   55.5290   18.9490   44.2790 C   0  0  0  0  0  0  0  0  0  0  0  0
   55.6617   17.8874   44.5347 H   0  0  0  0  0  0  0  0  0  0  0  0
   54.6085   19.0719   43.6894 H   0  0  0  0  0  0  0  0  0  0  0  0
   56.3909   19.2947   43.6894 H   0  0  0  0  0  0  0  0  0  0  0  0
   56.7580   22.5220   47.4730 C   0  0  0  0  0  0  0  0  0  0  0  0
   56.6693   21.9529   48.4102 H   0  0  0  0  0  0  0  0  0  0  0  0
   56.3160   23.8470   47.4200 C   0  0  0  0  0  0  0  0  0  0  0  0
   55.8940   24.3195   48.3193 H   0  0  0  0  0  0  0  0  0  0  0  0
   57.9770   29.8670   46.0890 S   0  0  0  0  0  0  0  0  0  0  0  0
   60.0310   32.2790   46.4530 C   0  0  0  0  0  0  0  0  0  0  0  0
   60.2640   31.2521   46.7711 H   0  0  0  0  0  0  0  0  0  0  0  0
  1  2  1  0
  2  3  1  0
  3  4  2  0
  3  5  2  0
  3  6  1  0
  6  7  2  0
  7  8  1  0
  7  9  1  0
  9 10  1  0
  9 11  2  0
 11 12  1  0
 11 13  1  0
 13 14  1  0
 14 15  2  0
 15 16  1  0
 16 17  1  0
 17 18  2  0
 18 19  1  0
 19 20  2  0
 19 21  1  0
 21 22  1  0
 21 23  1  0
 23 24  2  0
 24 25  1  0
 24 26  1  0
 26 27  1  0
 26 28  2  0
 28 29  1  0
 29 30  1  0
 29 31  1  0
 29 32  1  0
 32 33  1  0
 32 34  1  0
 32 35  1  0
 35 36  1  0
 35 37  1  0
 35 38  1  0
 38 39  1  0
 38 40  1  0
 38 41  1  0
 28 42  1  0
 42 43  1  0
 42 44  2  0
 44 45  1  0
 17 46  1  0
 13 47  2  0
 47 48  1  0
 47  6  1  0
 46 14  1  0
 44 23  1  0
M  CHG  2   2  -1  16  -1
M  END
>  <UniqueID>  (26) 
26

>  <SMILES>  (26) 
CCCCc1ccc(NC(=O)/N=c2/[n-]nc(-c3cccc(S([NH-])(=O)=O)c3)s2)cc1

>  <Energy>  (26) 
86.82819914510029

>  <Genealogy>  (26) 
CCCCc1ccc(NC(=O)N=c2[n-]nc(-c3cccc(S([NH-])(=O)=O)c3)s2)cc1 (protonated)
CCCCc1ccc(NC(=O)/N=c2/[n-]nc(-c3cccc(S([NH-])(=O)=O)c3)s2)cc1 (cis-trans isomerization)
CCCCc1ccc(NC(=O)/N=c2/[n-]nc(-c3cccc(S([NH-])(=O)=O)c3)s2)cc1 (3D coordinates assigned)
CCCCc1ccc(NC(=O)/N=c2/[n-]nc(-c3cccc(S([NH-])(=O)=O)c3)s2)cc1 (optimized conformer: 86.82819914510029 kcal/mol)

>  <smiles>  (26) 
CCCCc1ccc(NC(=O)N=c2[nH]nc(-c3cccc(S(N)(=O)=O)c3)s2)cc1

>  <score_type>  (26) 
oracle

>  <origin>  (26) 
adg

>  <m_score__min__energy>  (26) 
-12.32

>  <m_primary>  (26) 
energy

$$$$
26:0
     RDKit          3D

 49 52  0  0  0  0  0  0  0  0999 V2000
   56.6420   32.1380   44.8460 N   0  0  0  0  0  0  0  0  0  0  0  0
   57.8870   32.7730   45.1360 C   0  0  0  0  0  0  0  0  0  0  0  0
   58.2160   33.8100   44.5020 O   0  0  0  0  0  0  0  0  0  0  0  0
   58.8340   32.2040   46.1660 C   0  0  1  0  0  0  0  0  0  0  0  0
   58.1940   32.0050   47.5490 C   0  0  0  0  0  0  0  0  0  0  0  0
   59.1420   31.2990   48.4950 C   0  0  0  0  0  0  0  0  0  0  0  0
   58.8900   31.3530   49.8740 C   0  0  0  0  0  0  0  0  0  0  0  0
   59.7140   30.6690   50.7720 C   0  0  0  0  0  0  0  0  0  0  0  0
   60.7920   29.9180   50.3010 C   0  0  0  0  0  0  0  0  0  0  0  0
   61.0490   29.8440   48.9300 C   0  0  0  0  0  0  0  0  0  0  0  0
   60.2220   30.5140   48.0140 C   0  0  0  0  0  0  0  0  0  0  0  0
   60.5570   30.4550   46.5410 C   0  0  0  0  0  0  0  0  0  0  0  0
   59.4270   30.9300   45.7360 N   0  0  0  0  0  0  0  0  0  0  0  0
   58.6940   29.9780   44.9380 C   0  0  0  0  0  0  0  0  0  0  0  0
   58.4140   30.2590   43.7400 O   0  0  0  0  0  0  0  0  0  0  0  0
   58.2630   28.6790   45.5060 C   0  0  0  0  0  0  0  0  0  0  0  0
   59.2020   27.7890   46.0540 C   0  0  0  0  0  0  0  0  0  0  0  0
   58.7930   26.5630   46.5810 C   0  0  0  0  0  0  0  0  0  0  0  0
   57.4380   26.2000   46.5750 C   0  0  0  0  0  0  0  0  0  0  0  0
   57.0230   24.8550   47.1140 C   0  0  0  0  0  0  0  0  0  0  0  0
   56.8020   23.8940   45.9850 C   0  0  0  0  0  0  0  0  0  0  0  0
   55.8750   24.1810   44.9710 C   0  0  0  0  0  0  0  0  0  0  0  0
   55.7180   23.2690   43.9260 C   0  0  0  0  0  0  0  0  0  0  0  0
   54.8920   23.5020   43.0040 O   0  0  0  0  0  0  0  0  0  0  0  0
   56.4840   22.1010   43.9110 C   0  0  0  0  0  0  0  0  0  0  0  0
   56.3440   21.1760   42.8780 O   0  0  0  0  0  0  0  0  0  0  0  0
   57.3920   21.8830   44.9540 C   0  0  0  0  0  0  0  0  0  0  0  0
   57.5180   22.7720   45.9360 O   0  0  0  0  0  0  0  0  0  0  0  0
   56.4950   27.0780   46.0070 C   0  0  0  0  0  0  0  0  0  0  0  0
   55.1470   26.7400   45.9620 O   0  0  0  0  0  0  0  0  0  0  0  0
   56.9080   28.3060   45.4800 C   0  0  0  0  0  0  0  0  0  0  0  0
   56.6090   31.1500   44.5130 H   0  0  0  0  0  0  0  0  0  0  0  0
   59.6214   32.9666   46.2578 H   0  0  0  0  0  0  0  0  0  0  0  0
   57.9342   32.9880   47.9688 H   0  0  0  0  0  0  0  0  0  0  0  0
   57.2941   31.3837   47.4300 H   0  0  0  0  0  0  0  0  0  0  0  0
   58.0380   31.9377   50.2511 H   0  0  0  0  0  0  0  0  0  0  0  0
   59.5125   30.7226   51.8521 H   0  0  0  0  0  0  0  0  0  0  0  0
   61.4404   29.3834   51.0107 H   0  0  0  0  0  0  0  0  0  0  0  0
   61.9049   29.2570   48.5655 H   0  0  0  0  0  0  0  0  0  0  0  0
   61.4336   31.0896   46.3438 H   0  0  0  0  0  0  0  0  0  0  0  0
   60.7737   29.4117   46.2678 H   0  0  0  0  0  0  0  0  0  0  0  0
   60.2679   28.0606   46.0678 H   0  0  0  0  0  0  0  0  0  0  0  0
   59.5397   25.8754   47.0048 H   0  0  0  0  0  0  0  0  0  0  0  0
   57.8141   24.4670   47.7726 H   0  0  0  0  0  0  0  0  0  0  0  0
   56.0866   24.9671   47.6801 H   0  0  0  0  0  0  0  0  0  0  0  0
   55.2830   25.1077   44.9993 H   0  0  0  0  0  0  0  0  0  0  0  0
   55.5230   21.1670   42.2830 H   0  0  0  0  0  0  0  0  0  0  0  0
   58.0057   20.9702   44.9618 H   0  0  0  0  0  0  0  0  0  0  0  0
   56.1645   28.9872   45.0405 H   0  0  0  0  0  0  0  0  0  0  0  0
  1  2  1  0
  2  3  2  0
  2  4  1  0
  4  5  1  0
  5  6  1  0
  6  7  2  0
  7  8  1  0
  8  9  2  0
  9 10  1  0
 10 11  2  0
 11 12  1  0
 12 13  1  0
 13 14  1  0
 14 15  2  0
 14 16  1  0
 16 17  2  0
 17 18  1  0
 18 19  2  0
 19 20  1  0
 20 21  1  0
 21 22  2  0
 22 23  1  0
 23 24  2  0
 23 25  1  0
 25 26  1  0
 25 27  2  0
 27 28  1  0
 19 29  1  0
 29 30  1  0
 29 31  2  0
 13  4  1  0
 31 16  1  0
 11  6  1  0
 28 21  1  0
  1 32  1  0
  4 33  1  1
  5 34  1  0
  5 35  1  0
  7 36  1  0
  8 37  1  0
  9 38  1  0
 10 39  1  0
 12 40  1  0
 12 41  1  0
 17 42  1  0
 18 43  1  0
 20 44  1  0
 20 45  1  0
 22 46  1  0
 26 47  1  0
 27 48  1  0
 31 49  1  0
M  CHG  2   1  -1  30  -1
M  END
>  <UniqueID>  (27) 
27

>  <SMILES>  (27) 
[NH-]C(=O)[C@H]1Cc2ccccc2CN1C(=O)c1ccc(Cc2cc(=O)c(O)co2)c([O-])c1

>  <Energy>  (27) 
63.74095475985901

>  <Genealogy>  (27) 
[NH-]C(=O)C1Cc2ccccc2CN1C(=O)c1ccc(Cc2cc(=O)c(O)co2)c([O-])c1 (protonated)
[NH-]C(=O)[C@H]1Cc2ccccc2CN1C(=O)c1ccc(Cc2cc(=O)c(O)co2)c([O-])c1 (chirality)
[NH-]C(=O)[C@H]1Cc2ccccc2CN1C(=O)c1ccc(Cc2cc(=O)c(O)co2)c([O-])c1 (3D coordinates assigned)
[NH-]C(=O)[C@H]1Cc2ccccc2CN1C(=O)c1ccc(Cc2cc(=O)c(O)co2)c([O-])c1 (nonaromatic ring conformer: 63.74095475985901 kcal/mol)

>  <smiles>  (27) 
NC(=O)C1Cc2ccccc2CN1C(=O)c1ccc(Cc2cc(=O)c(O)co2)c(O)c1

>  <score_type>  (27) 
oracle

>  <origin>  (27) 
adg

>  <m_score__min__energy>  (27) 
-13.75

>  <m_primary>  (27) 
energy

$$$$
27:0
     RDKit          3D

 59 62  0  0  0  0  0  0  0  0999 V2000
   65.9720   30.4070   53.2540 C   0  0  0  0  0  0  0  0  0  0  0  0
   65.5630   31.1410   52.0110 C   0  0  0  0  0  0  0  0  0  0  0  0
   66.4590   32.0170   51.3810 C   0  0  0  0  0  0  0  0  0  0  0  0
   66.0900   32.6730   50.2020 C   0  0  0  0  0  0  0  0  0  0  0  0
   64.8350   32.4410   49.6210 C   0  0  0  0  0  0  0  0  0  0  0  0
   64.4700   33.1470   48.4220 N   0  0  0  0  0  0  0  0  0  0  0  0
   63.1190   33.4650   48.0470 C   0  0  0  0  0  0  0  0  0  0  0  0
   62.2040   33.8590   49.0330 C   0  0  0  0  0  0  0  0  0  0  0  0
   60.8930   34.2010   48.6870 C   0  0  0  0  0  0  0  0  0  0  0  0
   60.4790   34.1570   47.3470 C   0  0  0  0  0  0  0  0  0  0  0  0
   59.0790   34.5600   46.9710 C   0  0  0  0  0  0  0  0  0  0  0  0
   58.8220   34.2890   45.4790 C   0  0  0  0  0  0  0  0  0  0  0  0
   57.8710   33.1880   45.2650 N   0  0  0  0  0  0  0  0  0  0  0  0
   58.4530   31.8720   45.5740 C   0  0  0  0  0  0  0  0  0  0  0  0
   58.0620   30.8240   44.5070 C   0  0  2  0  0  0  0  0  0  0  0  0
   56.5340   30.5080   44.5410 C   0  0  0  0  0  0  0  0  0  0  0  0
   56.1980   29.0160   44.3840 C   0  0  0  0  0  0  0  0  0  0  0  0
   57.0120   28.1920   45.3560 C   0  0  0  0  0  0  0  0  0  0  0  0
   56.4750   27.1190   46.1130 C   0  0  0  0  0  0  0  0  0  0  0  0
   55.1580   26.6760   45.9750 O   0  0  0  0  0  0  0  0  0  0  0  0
   57.2910   26.4520   47.0360 C   0  0  0  0  0  0  0  0  0  0  0  0
   58.6350   26.8000   47.1800 C   0  0  0  0  0  0  0  0  0  0  0  0
   59.1830   27.8140   46.3980 C   0  0  0  0  0  0  0  0  0  0  0  0
   58.3780   28.5120   45.4880 C   0  0  0  0  0  0  0  0  0  0  0  0
   58.9680   29.5700   44.5920 C   0  0  0  0  0  0  0  0  0  0  0  0
   61.4040   33.8000   46.3540 C   0  0  0  0  0  0  0  0  0  0  0  0
   62.7150   33.4590   46.7000 C   0  0  0  0  0  0  0  0  0  0  0  0
   63.9370   31.5660   50.2570 C   0  0  0  0  0  0  0  0  0  0  0  0
   64.3050   30.9100   51.4350 C   0  0  0  0  0  0  0  0  0  0  0  0
   65.6537   30.9782   54.1386 H   0  0  0  0  0  0  0  0  0  0  0  0
   65.4965   29.4152   53.2674 H   0  0  0  0  0  0  0  0  0  0  0  0
   67.0656   30.2895   53.2674 H   0  0  0  0  0  0  0  0  0  0  0  0
   67.4549   32.1887   51.8154 H   0  0  0  0  0  0  0  0  0  0  0  0
   66.7897   33.3763   49.7269 H   0  0  0  0  0  0  0  0  0  0  0  0
   65.2390   33.4500   47.7820 H   0  0  0  0  0  0  0  0  0  0  0  0
   62.5193   33.8994   50.0861 H   0  0  0  0  0  0  0  0  0  0  0  0
   60.1825   34.5061   49.4694 H   0  0  0  0  0  0  0  0  0  0  0  0
   58.3621   33.9818   47.5725 H   0  0  0  0  0  0  0  0  0  0  0  0
   58.9551   35.6359   47.1633 H   0  0  0  0  0  0  0  0  0  0  0  0
   58.4151   35.2017   45.0191 H   0  0  0  0  0  0  0  0  0  0  0  0
   59.7792   33.9992   45.0210 H   0  0  0  0  0  0  0  0  0  0  0  0
   57.5510   33.2060   44.2680 H   0  0  0  0  0  0  0  0  0  0  0  0
   59.5489   31.9623   45.6037 H   0  0  0  0  0  0  0  0  0  0  0  0
   58.0649   31.5393   46.5480 H   0  0  0  0  0  0  0  0  0  0  0  0
   58.2453   31.2570   43.5125 H   0  0  0  0  0  0  0  0  0  0  0  0
   56.1312   30.8533   45.5046 H   0  0  0  0  0  0  0  0  0  0  0  0
   56.0836   31.0267   43.6819 H   0  0  0  0  0  0  0  0  0  0  0  0
   55.1275   28.8616   44.5845 H   0  0  0  0  0  0  0  0  0  0  0  0
   56.4374   28.7004   43.3578 H   0  0  0  0  0  0  0  0  0  0  0  0
   54.5100   26.5820   46.7440 H   0  0  0  0  0  0  0  0  0  0  0  0
   56.8682   25.6458   47.6535 H   0  0  0  0  0  0  0  0  0  0  0  0
   59.2629   26.2722   47.9129 H   0  0  0  0  0  0  0  0  0  0  0  0
   60.2491   28.0672   46.4949 H   0  0  0  0  0  0  0  0  0  0  0  0
   59.9497   29.8665   44.9900 H   0  0  0  0  0  0  0  0  0  0  0  0
   59.0621   29.1475   43.5808 H   0  0  0  0  0  0  0  0  0  0  0  0
   61.0961   33.7884   45.2980 H   0  0  0  0  0  0  0  0  0  0  0  0
   63.4343   33.1845   45.9144 H   0  0  0  0  0  0  0  0  0  0  0  0
   62.9395   31.3968   49.8252 H   0  0  0  0  0  0  0  0  0  0  0  0
   63.6047   30.2091   51.9128 H   0  0  0  0  0  0  0  0  0  0  0  0
  1  2  1  0
  2  3  2  0
  3  4  1  0
  4  5  2  0
  5  6  1  0
  6  7  1  0
  7  8  2  0
  8  9  1  0
  9 10  2  0
 10 11  1  0
 11 12  1  0
 12 13  1  0
 13 14  1  0
 14 15  1  0
 15 16  1  0
 16 17  1  0
 17 18  1  0
 18 19  2  0
 19 20  1  0
 19 21  1  0
 21 22  2  0
 22 23  1  0
 23 24  2  0
 24 25  1  0
 10 26  1  0
 26 27  2  0
  5 28  1  0
 28 29  2  0
 29  2  1  0
 27  7  1  0
 25 15  1  0
 24 18  1  0
  1 30  1  0
  1 31  1  0
  1 32  1  0
  3 33  1  0
  4 34  1  0
  6 35  1  0
  8 36  1  0
  9 37  1  0
 11 38  1  0
 11 39  1  0
 12 40  1  0
 12 41  1  0
 13 42  1  0
 14 43  1  0
 14 44  1  0
 15 45  1  6
 16 46  1  0
 16 47  1  0
 17 48  1  0
 17 49  1  0
 20 50  1  0
 21 51  1  0
 22 52  1  0
 23 53  1  0
 25 54  1  0
 25 55  1  0
 26 56  1  0
 27 57  1  0
 28 58  1  0
 29 59  1  0
M  END
>  <UniqueID>  (28) 
28

>  <SMILES>  (28) 
Cc1ccc(Nc2ccc(CCNC[C@@H]3CCc4c(O)cccc4C3)cc2)cc1

>  <Energy>  (28) 
72.62148520668542

>  <Genealogy>  (28) 
Cc1ccc(Nc2ccc(CCNC[C@@H]3CCc4c(O)cccc4C3)cc2)cc1 (chirality)
Cc1ccc(Nc2ccc(CCNC[C@@H]3CCc4c(O)cccc4C3)cc2)cc1 (3D coordinates assigned)
Cc1ccc(Nc2ccc(CCNC[C@@H]3CCc4c(O)cccc4C3)cc2)cc1 (nonaromatic ring conformer: 72.62148520668542 kcal/mol)

>  <smiles>  (28) 
Cc1ccc(Nc2ccc(CCNCC3CCc4c(O)cccc4C3)cc2)cc1

>  <score_type>  (28) 
oracle

>  <origin>  (28) 
adg

>  <m_score__min__energy>  (28) 
-10.17

>  <m_primary>  (28) 
energy

$$$$
28:0
     RDKit          3D

 51 54  0  0  0  0  0  0  0  0999 V2000
   55.9090   30.0160   43.4350 C   0  0  0  0  0  0  0  0  0  0  0  0
   56.7310   30.0940   44.4860 C   0  0  0  0  0  0  0  0  0  0  0  0
   57.0340   31.2370   45.0560 O   0  0  0  0  0  0  0  0  0  0  0  0
   57.8520   31.0160   46.0560 C   0  0  0  0  0  0  0  0  0  0  0  0
   58.1100   29.6640   46.1580 C   0  0  0  0  0  0  0  0  0  0  0  0
   58.8170   29.0570   47.3010 C   0  0  0  0  0  0  0  0  0  0  0  0
   58.1290   28.5150   48.2100 O   0  0  0  0  0  0  0  0  0  0  0  0
   60.2650   28.9370   47.2920 N   0  0  0  0  0  0  0  0  0  0  0  0
   60.8170   29.2360   48.6290 C   0  0  0  0  0  0  0  0  0  0  0  0
   60.6840   30.7310   49.0050 C   0  0  0  0  0  0  0  0  0  0  0  0
   60.5540   31.6130   47.8190 N   0  0  0  0  0  0  0  0  0  0  0  0
   60.8280   33.0520   48.1010 C   0  0  0  0  0  0  0  0  0  0  0  0
   61.2800   33.7560   46.8130 C   0  0  0  0  0  0  0  0  0  0  0  0
   60.0090   34.2510   46.1250 C   0  0  0  0  0  0  0  0  0  0  0  0
   58.9020   34.2160   47.1730 C   0  0  0  0  0  0  0  0  0  0  0  0
   59.5860   33.8740   48.4850 C   0  0  0  0  0  0  0  0  0  0  0  0
   61.4320   31.1090   46.7420 C   0  0  0  0  0  0  0  0  0  0  0  0
   60.9060   29.7560   46.2280 C   0  0  0  0  0  0  0  0  0  0  0  0
   57.3950   29.0470   45.1300 C   0  0  0  0  0  0  0  0  0  0  0  0
   57.3560   27.7410   44.7900 C   0  0  0  0  0  0  0  0  0  0  0  0
   57.3520   26.6190   45.7540 C   0  0  0  0  0  0  0  0  0  0  0  0
   56.1610   26.1560   46.3370 C   0  0  0  0  0  0  0  0  0  0  0  0
   54.9350   26.7150   45.9910 O   0  0  0  0  0  0  0  0  0  0  0  0
   56.2000   25.1640   47.2630 N   0  0  0  0  0  0  0  0  0  0  0  0
   57.3790   24.6180   47.6560 C   0  0  0  0  0  0  0  0  0  0  0  0
   57.3890   23.6950   48.5100 O   0  0  0  0  0  0  0  0  0  0  0  0
   58.5460   25.0700   47.1320 N   0  0  0  0  0  0  0  0  0  0  0  0
   58.5610   26.0610   46.2020 C   0  0  0  0  0  0  0  0  0  0  0  0
   59.6630   26.4620   45.7440 O   0  0  0  0  0  0  0  0  0  0  0  0
   55.6809   29.0378   42.9866 H   0  0  0  0  0  0  0  0  0  0  0  0
   55.4606   30.9300   43.0184 H   0  0  0  0  0  0  0  0  0  0  0  0
   58.2700   31.7914   46.7148 H   0  0  0  0  0  0  0  0  0  0  0  0
   60.4970   27.9360   47.0940 H   0  0  0  0  0  0  0  0  0  0  0  0
   60.2772   28.6352   49.3758 H   0  0  0  0  0  0  0  0  0  0  0  0
   61.8891   28.9905   48.6102 H   0  0  0  0  0  0  0  0  0  0  0  0
   59.7917   30.8567   49.6359 H   0  0  0  0  0  0  0  0  0  0  0  0
   61.6029   31.0221   49.5350 H   0  0  0  0  0  0  0  0  0  0  0  0
   61.5617   33.0223   48.9201 H   0  0  0  0  0  0  0  0  0  0  0  0
   61.9377   34.6043   47.0535 H   0  0  0  0  0  0  0  0  0  0  0  0
   61.8464   33.0734   46.1624 H   0  0  0  0  0  0  0  0  0  0  0  0
   60.1517   35.2782   45.7584 H   0  0  0  0  0  0  0  0  0  0  0  0
   59.7556   33.6201   45.2603 H   0  0  0  0  0  0  0  0  0  0  0  0
   58.4088   35.1968   47.2423 H   0  0  0  0  0  0  0  0  0  0  0  0
   58.1251   33.4804   46.9173 H   0  0  0  0  0  0  0  0  0  0  0  0
   59.8814   34.7916   49.0148 H   0  0  0  0  0  0  0  0  0  0  0  0
   58.9196   33.3148   49.1582 H   0  0  0  0  0  0  0  0  0  0  0  0
   61.4464   31.8332   45.9141 H   0  0  0  0  0  0  0  0  0  0  0  0
   62.4500   30.9758   47.1368 H   0  0  0  0  0  0  0  0  0  0  0  0
   60.1646   29.9459   45.4379 H   0  0  0  0  0  0  0  0  0  0  0  0
   61.7708   29.1887   45.8534 H   0  0  0  0  0  0  0  0  0  0  0  0
   57.3250   27.4934   43.7187 H   0  0  0  0  0  0  0  0  0  0  0  0
  1  2  2  0
  2  3  1  0
  3  4  1  0
  4  5  2  0
  5  6  1  0
  6  7  2  0
  6  8  1  0
  8  9  1  0
  9 10  1  0
 10 11  1  0
 11 12  1  0
 12 13  1  0
 13 14  1  0
 14 15  1  0
 15 16  1  0
 11 17  1  0
 17 18  1  0
  5 19  1  0
 19 20  2  3
 20 21  1  0
 21 22  2  0
 22 23  1  0
 22 24  1  0
 24 25  1  0
 25 26  2  0
 25 27  1  0
 27 28  1  0
 28 29  2  0
 19  2  1  0
 28 21  1  0
 18  8  1  0
 16 12  1  0
  1 30  1  0
  1 31  1  0
  4 32  1  0
  8 33  1  0
  9 34  1  0
  9 35  1  0
 10 36  1  0
 10 37  1  0
 12 38  1  0
 13 39  1  0
 13 40  1  0
 14 41  1  0
 14 42  1  0
 15 43  1  0
 15 44  1  0
 16 45  1  0
 16 46  1  0
 17 47  1  0
 17 48  1  0
 18 49  1  0
 18 50  1  0
 20 51  1  0
M  CHG  4   8   1  23  -1  24  -1  27  -1
M  END
>  <UniqueID>  (29) 
29

>  <SMILES>  (29) 
C=c1occ(C(=O)[NH+]2CCN(C3CCCC3)CC2)c1=Cc1c([O-])[n-]c(=O)[n-]c1=O

>  <Energy>  (29) 
117.77628956947825

>  <Genealogy>  (29) 
C=c1occ(C(=O)[NH+]2CCN(C3CCCC3)CC2)c1=Cc1c([O-])[n-]c(=O)[n-]c1=O (protonated)
C=c1occ(C(=O)[NH+]2CCN(C3CCCC3)CC2)c1=Cc1c([O-])[n-]c(=O)[n-]c1=O (3D coordinates assigned)
C=c1occ(C(=O)[NH+]2CCN(C3CCCC3)CC2)c1=Cc1c([O-])[n-]c(=O)[n-]c1=O (nonaromatic ring conformer: 117.77628956947825 kcal/mol)

>  <smiles>  (29) 
C=c1occ(C(=O)N2CCN(C3CCCC3)CC2)c1=Cc1c(O)[nH]c(=O)[nH]c1=O

>  <score_type>  (29) 
oracle

>  <origin>  (29) 
adg

>  <m_score__min__energy>  (29) 
-15.52

>  <m_primary>  (29) 
energy

$$$$
29:0
     RDKit          3D

 63 67  0  0  0  0  0  0  0  0999 V2000
   59.2020   28.8310   44.2800 H   0  0  0  0  0  0  0  0  0  0  0  0
   59.3020   27.9680   44.7970 O   0  0  0  0  0  0  0  0  0  0  0  0
   58.1920   27.2870   45.2920 C   0  0  0  0  0  0  0  0  0  0  0  0
   58.2150   26.0710   45.9480 C   0  0  0  0  0  0  0  0  0  0  0  0
   59.4350   25.2510   46.2360 C   0  0  0  0  0  0  0  0  0  0  0  0
   59.7585   24.7455   45.3141 H   0  0  0  0  0  0  0  0  0  0  0  0
   59.1917   24.5065   47.0084 H   0  0  0  0  0  0  0  0  0  0  0  0
   60.5420   26.1250   46.7340 C   0  0  0  0  0  0  0  0  0  0  0  0
   61.5700   26.2960   46.0250 O   0  0  0  0  0  0  0  0  0  0  0  0
   60.4400   26.7260   48.0310 N   0  0  0  0  0  0  0  0  0  0  0  0
   60.2860   28.1260   48.2960 C   0  0  0  0  0  0  0  0  0  0  0  0
   60.1200   28.6190   49.6040 C   0  0  0  0  0  0  0  0  0  0  0  0
   60.0735   27.9197   50.4518 H   0  0  0  0  0  0  0  0  0  0  0  0
   60.0140   29.9960   49.8290 C   0  0  0  0  0  0  0  0  0  0  0  0
   59.8755   30.3771   50.8515 H   0  0  0  0  0  0  0  0  0  0  0  0
   60.0840   30.8870   48.7550 C   0  0  0  0  0  0  0  0  0  0  0  0
   59.9949   31.9690   48.9319 H   0  0  0  0  0  0  0  0  0  0  0  0
   60.2670   30.4050   47.4570 C   0  0  0  0  0  0  0  0  0  0  0  0
   60.3239   31.1081   46.6129 H   0  0  0  0  0  0  0  0  0  0  0  0
   60.3780   29.0300   47.2290 C   0  0  0  0  0  0  0  0  0  0  0  0
   60.5383   28.6559   46.2071 H   0  0  0  0  0  0  0  0  0  0  0  0
   56.9660   25.6940   46.2970 N   0  0  0  0  0  0  0  0  0  0  0  0
   56.1620   26.6840   45.8550 C   0  0  0  0  0  0  0  0  0  0  0  0
   54.7920   26.6990   46.0790 O   0  0  0  0  0  0  0  0  0  0  0  0
   56.8740   27.6790   45.2120 C   0  0  0  0  0  0  0  0  0  0  0  0
   56.3510   28.9330   44.6460 C   0  0  0  0  0  0  0  0  0  0  0  0
   55.1440   29.2350   44.8340 O   0  0  0  0  0  0  0  0  0  0  0  0
   57.1810   29.8310   43.9010 N   0  0  0  0  0  0  0  0  0  0  0  0
   56.8300   31.2140   43.5960 C   0  0  0  0  0  0  0  0  0  0  0  0
   57.1133   31.4443   42.5584 H   0  0  0  0  0  0  0  0  0  0  0  0
   55.7458   31.3537   43.7186 H   0  0  0  0  0  0  0  0  0  0  0  0
   57.5630   32.1320   44.5310 C   0  0  0  0  0  0  0  0  0  0  0  0
   57.4760   31.9490   45.9200 C   0  0  0  0  0  0  0  0  0  0  0  0
   56.8829   31.1167   46.3268 H   0  0  0  0  0  0  0  0  0  0  0  0
   58.1400   32.8200   46.7880 C   0  0  0  0  0  0  0  0  0  0  0  0
   58.0610   32.6745   47.8755 H   0  0  0  0  0  0  0  0  0  0  0  0
   58.9060   33.8780   46.2800 C   0  0  0  0  0  0  0  0  0  0  0  0
   59.5570   34.8170   47.2160 C   0  0  0  0  0  0  0  0  0  0  0  0
   59.0586   35.7823   47.3888 H   0  0  0  0  0  0  0  0  0  0  0  0
   60.7060   34.5920   47.8740 C   0  0  0  0  0  0  0  0  0  0  0  0
   61.6421   34.8244   47.3452 H   0  0  0  0  0  0  0  0  0  0  0  0
   60.8210   34.0560   49.2550 C   0  0  0  0  0  0  0  0  0  0  0  0
   59.8440   34.1310   50.0460 O   0  0  0  0  0  0  0  0  0  0  0  0
   62.0390   33.4490   49.7190 N   0  0  0  0  0  0  0  0  0  0  0  0
   63.3380   33.5130   49.1240 C   0  0  0  0  0  0  0  0  0  0  0  0
   63.6320   34.1830   48.0980 O   0  0  0  0  0  0  0  0  0  0  0  0
   64.2760   32.7730   49.9280 C   0  0  0  0  0  0  0  0  0  0  0  0
   65.6400   32.5450   49.7510 C   0  0  0  0  0  0  0  0  0  0  0  0
   66.1744   32.9528   48.8803 H   0  0  0  0  0  0  0  0  0  0  0  0
   66.3110   31.7790   50.7180 C   0  0  0  0  0  0  0  0  0  0  0  0
   67.3866   31.5774   50.6062 H   0  0  0  0  0  0  0  0  0  0  0  0
   65.6140   31.2670   51.8310 C   0  0  0  0  0  0  0  0  0  0  0  0
   66.1486   30.6675   52.5826 H   0  0  0  0  0  0  0  0  0  0  0  0
   64.2400   31.5180   51.9860 C   0  0  0  0  0  0  0  0  0  0  0  0
   63.6907   31.1233   52.8535 H   0  0  0  0  0  0  0  0  0  0  0  0
   63.5880   32.2790   51.0150 C   0  0  0  0  0  0  0  0  0  0  0  0
   62.1440   32.6870   50.9690 C   0  0  0  0  0  0  0  0  0  0  0  0
   61.8858   33.3150   51.8344 H   0  0  0  0  0  0  0  0  0  0  0  0
   61.4566   31.8290   51.0050 H   0  0  0  0  0  0  0  0  0  0  0  0
   58.9520   34.0920   44.8930 C   0  0  0  0  0  0  0  0  0  0  0  0
   59.5120   34.9481   44.4886 H   0  0  0  0  0  0  0  0  0  0  0  0
   58.2880   33.2200   44.0240 C   0  0  0  0  0  0  0  0  0  0  0  0
   58.3347   33.3885   42.9380 H   0  0  0  0  0  0  0  0  0  0  0  0
  1  2  1  0
  2  3  1  0
  3  4  2  0
  4  5  1  0
  5  6  1  0
  5  7  1  0
  5  8  1  0
  8  9  2  0
  8 10  1  0
 10 11  1  0
 11 12  2  0
 12 13  1  0
 12 14  1  0
 14 15  1  0
 14 16  2  0
 16 17  1  0
 16 18  1  0
 18 19  1  0
 18 20  2  0
 20 21  1  0
  4 22  1  0
 22 23  1  0
 23 24  1  0
 23 25  2  0
 25 26  1  0
 26 27  2  0
 26 28  1  0
 28 29  1  0
 29 30  1  0
 29 31  1  0
 29 32  1  0
 32 33  2  0
 33 34  1  0
 33 35  1  0
 35 36  1  0
 35 37  2  0
 37 38  1  0
 38 39  1  0
 38 40  2  0
 40 41  1  0
 40 42  1  0
 42 43  2  0
 42 44  1  0
 44 45  1  0
 45 46  2  0
 45 47  1  0
 47 48  2  0
 48 49  1  0
 48 50  1  0
 50 51  1  0
 50 52  2  0
 52 53  1  0
 52 54  1  0
 54 55  1  0
 54 56  2  0
 56 57  1  0
 57 58  1  0
 57 59  1  0
 37 60  1  0
 60 61  1  0
 60 62  2  0
 62 63  1  0
 25  3  1  0
 62 32  1  0
 20 11  1  0
 57 44  1  0
 56 47  1  0
M  CHG  4  10  -1  22  -1  24  -1  28  -1
M  END
>  <UniqueID>  (30) 
30

>  <SMILES>  (30) 
O=C(Cc1[n-]c([O-])c(C(=O)[N-]Cc2ccc(/C=C\C(=O)N3Cc4ccccc4C3=O)cc2)c1O)[N-]c1ccccc1

>  <Energy>  (30) 
133.99889563384767

>  <Genealogy>  (30) 
O=C(Cc1[n-]c([O-])c(C(=O)[N-]Cc2ccc(C=CC(=O)N3Cc4ccccc4C3=O)cc2)c1O)[N-]c1ccccc1 (protonated)
O=C(Cc1[n-]c([O-])c(C(=O)[N-]Cc2ccc(/C=C\C(=O)N3Cc4ccccc4C3=O)cc2)c1O)[N-]c1ccccc1 (cis-trans isomerization)
O=C(Cc1[n-]c([O-])c(C(=O)[N-]Cc2ccc(/C=C\C(=O)N3Cc4ccccc4C3=O)cc2)c1O)[N-]c1ccccc1 (3D coordinates assigned)
O=C(Cc1[n-]c([O-])c(C(=O)[N-]Cc2ccc(/C=C\C(=O)N3Cc4ccccc4C3=O)cc2)c1O)[N-]c1ccccc1 (nonaromatic ring conformer: 133.99889563384767 kcal/mol)

>  <smiles>  (30) 
O=C(Cc1[nH]c(O)c(C(=O)NCc2ccc(C=CC(=O)N3Cc4ccccc4C3=O)cc2)c1O)Nc1ccccc1

>  <score_type>  (30) 
oracle

>  <origin>  (30) 
adg

>  <m_score__min__energy>  (30) 
-17.850000000000001

>  <m_primary>  (30) 
energy

$$$$
30:0
     RDKit          3D

 54 57  0  0  0  0  0  0  0  0999 V2000
   64.0890   33.7990   52.5550 C   0  0  0  0  0  0  0  0  0  0  0  0
   64.9140   32.5760   52.4830 N   0  0  0  0  0  0  0  0  0  0  0  0
   66.0240   32.7210   51.4960 C   0  0  0  0  0  0  0  0  0  0  0  0
   65.7790   31.9820   50.1660 C   0  0  0  0  0  0  0  0  0  0  0  0
   64.3480   31.9660   49.8500 N   0  0  0  0  0  0  0  0  0  0  0  0
   63.8410   32.6940   48.7130 C   0  0  0  0  0  0  0  0  0  0  0  0
   64.4840   33.6830   48.2670 O   0  0  0  0  0  0  0  0  0  0  0  0
   62.5640   32.3340   48.0660 C   0  0  0  0  0  0  0  0  0  0  0  0
   62.0260   31.0620   48.0340 C   0  0  0  0  0  0  0  0  0  0  0  0
   60.8210   31.1650   47.3600 C   0  0  0  0  0  0  0  0  0  0  0  0
   59.9390   30.0290   47.0160 C   0  0  0  0  0  0  0  0  0  0  0  0
   59.3180   29.2890   48.0350 C   0  0  0  0  0  0  0  0  0  0  0  0
   58.4820   28.2130   47.7210 C   0  0  0  0  0  0  0  0  0  0  0  0
   58.2670   27.8560   46.3840 C   0  0  0  0  0  0  0  0  0  0  0  0
   57.1960   26.5130   46.0000 S   0  0  0  0  0  0  0  0  0  0  0  0
   55.5590   27.0660   45.9520 N   0  0  0  0  0  0  0  0  0  0  0  0
   57.3130   25.4400   47.0480 O   0  0  0  0  0  0  0  0  0  0  0  0
   57.5730   25.9440   44.6620 O   0  0  0  0  0  0  0  0  0  0  0  0
   58.8950   28.5830   45.3640 C   0  0  0  0  0  0  0  0  0  0  0  0
   59.7320   29.6580   45.6780 C   0  0  0  0  0  0  0  0  0  0  0  0
   60.6670   32.5120   47.0330 C   0  0  0  0  0  0  0  0  0  0  0  0
   59.4990   33.1510   46.3920 C   0  0  0  0  0  0  0  0  0  0  0  0
   59.6910   34.1860   45.4630 C   0  0  0  0  0  0  0  0  0  0  0  0
   58.5930   34.8020   44.8550 C   0  0  0  0  0  0  0  0  0  0  0  0
   57.2950   34.3950   45.1750 C   0  0  0  0  0  0  0  0  0  0  0  0
   56.2310   34.9850   44.5730 F   0  0  0  0  0  0  0  0  0  0  0  0
   57.0930   33.3800   46.1150 C   0  0  0  0  0  0  0  0  0  0  0  0
   58.1890   32.7640   46.7250 C   0  0  0  0  0  0  0  0  0  0  0  0
   61.7360   33.2090   47.4660 N   0  0  0  0  0  0  0  0  0  0  0  0
   63.4310   31.3930   50.8460 C   0  0  0  0  0  0  0  0  0  0  0  0
   64.0800   31.3760   52.2430 C   0  0  0  0  0  0  0  0  0  0  0  0
   63.9125   34.0607   53.6087 H   0  0  0  0  0  0  0  0  0  0  0  0
   64.6146   34.6258   52.0549 H   0  0  0  0  0  0  0  0  0  0  0  0
   63.1255   33.6213   52.0549 H   0  0  0  0  0  0  0  0  0  0  0  0
   65.3470   32.4580   53.4300 H   0  0  0  0  0  0  0  0  0  0  0  0
   66.1559   33.7911   51.2782 H   0  0  0  0  0  0  0  0  0  0  0  0
   66.9172   32.2690   51.9520 H   0  0  0  0  0  0  0  0  0  0  0  0
   66.3231   32.4957   49.3597 H   0  0  0  0  0  0  0  0  0  0  0  0
   66.1365   30.9460   50.2608 H   0  0  0  0  0  0  0  0  0  0  0  0
   62.4673   30.1487   48.4595 H   0  0  0  0  0  0  0  0  0  0  0  0
   59.4904   29.5576   49.0877 H   0  0  0  0  0  0  0  0  0  0  0  0
   57.9921   27.6456   48.5260 H   0  0  0  0  0  0  0  0  0  0  0  0
   55.5190   27.8420   45.2520 H   0  0  0  0  0  0  0  0  0  0  0  0
   58.7289   28.3069   44.3122 H   0  0  0  0  0  0  0  0  0  0  0  0
   60.2311   30.2162   44.8722 H   0  0  0  0  0  0  0  0  0  0  0  0
   60.7106   34.5140   45.2122 H   0  0  0  0  0  0  0  0  0  0  0  0
   58.7511   35.6083   44.1236 H   0  0  0  0  0  0  0  0  0  0  0  0
   56.0711   33.0662   46.3745 H   0  0  0  0  0  0  0  0  0  0  0  0
   58.0258   31.9715   47.4702 H   0  0  0  0  0  0  0  0  0  0  0  0
   61.8560   34.2430   47.4130 H   0  0  0  0  0  0  0  0  0  0  0  0
   62.5137   31.9990   50.8821 H   0  0  0  0  0  0  0  0  0  0  0  0
   63.1961   30.3587   50.5543 H   0  0  0  0  0  0  0  0  0  0  0  0
   63.2856   31.3380   53.0030 H   0  0  0  0  0  0  0  0  0  0  0  0
   64.7319   30.4921   52.3036 H   0  0  0  0  0  0  0  0  0  0  0  0
  1  2  1  0
  2  3  1  0
  3  4  1  0
  4  5  1  0
  5  6  1  0
  6  7  2  0
  6  8  1  0
  8  9  2  0
  9 10  1  0
 10 11  1  0
 11 12  2  0
 12 13  1  0
 13 14  2  0
 14 15  1  0
 15 16  1  0
 15 17  2  0
 15 18  2  0
 14 19  1  0
 19 20  2  0
 10 21  2  0
 21 22  1  0
 22 23  2  0
 23 24  1  0
 24 25  2  0
 25 26  1  0
 25 27  1  0
 27 28  2  0
 21 29  1  0
  5 30  1  0
 30 31  1  0
 31  2  1  0
 29  8  1  0
 20 11  1  0
 28 22  1  0
  1 32  1  0
  1 33  1  0
  1 34  1  0
  2 35  1  0
  3 36  1  0
  3 37  1  0
  4 38  1  0
  4 39  1  0
  9 40  1  0
 12 41  1  0
 13 42  1  0
 16 43  1  0
 19 44  1  0
 20 45  1  0
 23 46  1  0
 24 47  1  0
 27 48  1  0
 28 49  1  0
 29 50  1  0
 30 51  1  0
 30 52  1  0
 31 53  1  0
 31 54  1  0
M  CHG  2   2   1  16  -1
M  END
>  <UniqueID>  (31) 
31

>  <SMILES>  (31) 
C[NH+]1CCN(C(=O)c2cc(-c3ccc(S([NH-])(=O)=O)cc3)c(-c3ccc(F)cc3)[nH]2)CC1

>  <Energy>  (31) 
101.90784033502202

>  <Genealogy>  (31) 
C[NH+]1CCN(C(=O)c2cc(-c3ccc(S([NH-])(=O)=O)cc3)c(-c3ccc(F)cc3)[nH]2)CC1 (protonated)
C[NH+]1CCN(C(=O)c2cc(-c3ccc(S([NH-])(=O)=O)cc3)c(-c3ccc(F)cc3)[nH]2)CC1 (3D coordinates assigned)
C[NH+]1CCN(C(=O)c2cc(-c3ccc(S([NH-])(=O)=O)cc3)c(-c3ccc(F)cc3)[nH]2)CC1 (nonaromatic ring conformer: 101.90784033502202 kcal/mol)

>  <smiles>  (31) 
CN1CCN(C(=O)c2cc(-c3ccc(S(N)(=O)=O)cc3)c(-c3ccc(F)cc3)[nH]2)CC1

>  <score_type>  (31) 
oracle

>  <origin>  (31) 
adg

>  <m_score__min__energy>  (31) 
-10.32

>  <m_primary>  (31) 
energy

$$$$
31:0
     RDKit          3D

 47 49  0  0  0  0  0  0  0  0999 V2000
   60.0110   26.9390   46.5150 C   0  0  0  0  0  0  0  0  0  0  0  0
   59.0130   27.6720   46.0220 C   0  0  0  0  0  0  0  0  0  0  0  0
   59.2330   28.8220   45.3430 N   0  0  0  0  0  0  0  0  0  0  0  0
   58.0040   29.2340   44.9680 C   0  0  0  0  0  0  0  0  0  0  0  0
   57.7420   30.3580   44.2860 C   0  0  0  0  0  0  0  0  0  0  0  0
   57.9350   31.7160   44.8250 C   0  0  0  0  0  0  0  0  0  0  0  0
   57.7880   32.8260   44.0690 N   0  0  0  0  0  0  0  0  0  0  0  0
   58.1190   33.8340   44.9040 C   0  0  0  0  0  0  0  0  0  0  0  0
   58.0940   35.0440   44.5530 O   0  0  0  0  0  0  0  0  0  0  0  0
   58.4890   33.4210   46.1340 N   0  0  0  0  0  0  0  0  0  0  0  0
   58.9100   34.2540   47.2650 C   0  0  0  0  0  0  0  0  0  0  0  0
   60.3870   34.0970   47.5100 C   0  0  0  0  0  0  0  0  0  0  0  0
   61.2560   33.8410   46.4350 C   0  0  0  0  0  0  0  0  0  0  0  0
   62.6280   33.6980   46.6570 C   0  0  0  0  0  0  0  0  0  0  0  0
   63.1450   33.8120   47.9510 C   0  0  0  0  0  0  0  0  0  0  0  0
   62.2890   34.0680   49.0260 C   0  0  0  0  0  0  0  0  0  0  0  0
   62.7910   34.1750   50.2810 F   0  0  0  0  0  0  0  0  0  0  0  0
   60.9140   34.2110   48.8080 C   0  0  0  0  0  0  0  0  0  0  0  0
   58.3780   32.0810   46.0830 C   0  0  0  0  0  0  0  0  0  0  0  0
   58.7110   31.2110   47.1190 O   0  0  0  0  0  0  0  0  0  0  0  0
   57.0710   28.3320   45.4330 C   0  0  0  0  0  0  0  0  0  0  0  0
   55.8260   28.3950   45.2520 O   0  0  0  0  0  0  0  0  0  0  0  0
   57.6950   27.3500   46.1110 N   0  0  0  0  0  0  0  0  0  0  0  0
   57.0670   26.1700   46.7200 C   0  0  0  0  0  0  0  0  0  0  0  0
   56.0140   25.5680   45.8210 C   0  0  0  0  0  0  0  0  0  0  0  0
   54.8310   25.9940   45.9240 O   0  0  0  0  0  0  0  0  0  0  0  0
   56.3060   24.5040   44.8870 N   0  0  0  0  0  0  0  0  0  0  0  0
   55.1940   23.8610   44.1750 C   0  0  0  0  0  0  0  0  0  0  0  0
   57.6810   24.0400   44.6630 C   0  0  0  0  0  0  0  0  0  0  0  0
   59.7929   26.0097   47.0616 H   0  0  0  0  0  0  0  0  0  0  0  0
   61.0528   27.2634   46.3753 H   0  0  0  0  0  0  0  0  0  0  0  0
   57.3589   30.2606   43.2595 H   0  0  0  0  0  0  0  0  0  0  0  0
   58.6896   35.3081   47.0408 H   0  0  0  0  0  0  0  0  0  0  0  0
   58.3629   33.9372   48.1652 H   0  0  0  0  0  0  0  0  0  0  0  0
   60.8541   33.7529   45.4148 H   0  0  0  0  0  0  0  0  0  0  0  0
   63.3026   33.4954   45.8121 H   0  0  0  0  0  0  0  0  0  0  0  0
   64.2257   33.7002   48.1232 H   0  0  0  0  0  0  0  0  0  0  0  0
   60.2430   34.4134   49.6558 H   0  0  0  0  0  0  0  0  0  0  0  0
   59.0170   30.2640   46.9400 H   0  0  0  0  0  0  0  0  0  0  0  0
   57.8426   25.4148   46.9151 H   0  0  0  0  0  0  0  0  0  0  0  0
   56.5790   26.4862   47.6538 H   0  0  0  0  0  0  0  0  0  0  0  0
   54.4811   23.4488   44.9043 H   0  0  0  0  0  0  0  0  0  0  0  0
   54.6844   24.6038   43.5437 H   0  0  0  0  0  0  0  0  0  0  0  0
   55.5836   23.0488   43.5437 H   0  0  0  0  0  0  0  0  0  0  0  0
   58.1743   23.8736   45.6320 H   0  0  0  0  0  0  0  0  0  0  0  0
   57.6622   23.0984   44.0946 H   0  0  0  0  0  0  0  0  0  0  0  0
   58.2366   24.8004   44.0946 H   0  0  0  0  0  0  0  0  0  0  0  0
  1  2  2  0
  2  3  1  0
  3  4  1  0
  4  5  2  3
  5  6  1  0
  6  7  1  0
  7  8  1  0
  8  9  2  0
  8 10  1  0
 10 11  1  0
 11 12  1  0
 12 13  2  0
 13 14  1  0
 14 15  2  0
 15 16  1  0
 16 17  1  0
 16 18  2  0
 10 19  1  0
 19 20  1  0
  4 21  1  0
 21 22  2  0
 21 23  1  0
 23 24  1  0
 24 25  1  0
 25 26  2  0
 25 27  1  0
 27 28  1  0
 27 29  1  0
 23  2  1  0
 19  6  2  0
 18 12  1  0
  1 30  1  0
  1 31  1  0
  5 32  1  0
 11 33  1  0
 11 34  1  0
 13 35  1  0
 14 36  1  0
 15 37  1  0
 18 38  1  0
 20 39  1  0
 24 40  1  0
 24 41  1  0
 28 42  1  0
 28 43  1  0
 28 44  1  0
 29 45  1  0
 29 46  1  0
 29 47  1  0
M  CHG  2   3  -1   7  -1
M  END
>  <UniqueID>  (32) 
32

>  <SMILES>  (32) 
C=c1[n-]c(=Cc2[n-]c(=O)n(Cc3cccc(F)c3)c2O)c(=O)n1CC(=O)N(C)C

>  <Energy>  (32) 
113.87643484357739

>  <Genealogy>  (32) 
C=c1[n-]c(=Cc2[n-]c(=O)n(Cc3cccc(F)c3)c2O)c(=O)n1CC(=O)N(C)C (protonated)
C=c1[n-]c(=Cc2[n-]c(=O)n(Cc3cccc(F)c3)c2O)c(=O)n1CC(=O)N(C)C (3D coordinates assigned)
C=c1[n-]c(=Cc2[n-]c(=O)n(Cc3cccc(F)c3)c2O)c(=O)n1CC(=O)N(C)C (optimized conformer: 113.87643484357739 kcal/mol)

>  <smiles>  (32) 
C=c1[nH]c(=Cc2[nH]c(=O)n(Cc3cccc(F)c3)c2O)c(=O)n1CC(=O)N(C)C

>  <score_type>  (32) 
oracle

>  <origin>  (32) 
adg

>  <m_score__min__energy>  (32) 
-11.69

>  <m_primary>  (32) 
energy

$$$$
32:0
     RDKit          3D

 39 41  0  0  0  0  0  0  0  0999 V2000
   53.5410   24.0540   45.2400 H   0  0  0  0  0  0  0  0  0  0  0  0
   54.4540   23.6610   45.0430 O   0  0  0  0  0  0  0  0  0  0  0  0
   55.6290   24.3930   45.2110 C   0  0  0  0  0  0  0  0  0  0  0  0
   56.8530   23.7970   44.8990 C   0  0  0  0  0  0  0  0  0  0  0  0
   56.8786   22.7632   44.5240 H   0  0  0  0  0  0  0  0  0  0  0  0
   58.0460   24.5080   45.0610 C   0  0  0  0  0  0  0  0  0  0  0  0
   59.0039   24.0367   44.7960 H   0  0  0  0  0  0  0  0  0  0  0  0
   58.0280   25.8200   45.5600 C   0  0  0  0  0  0  0  0  0  0  0  0
   59.3030   26.5560   45.6910 C   0  0  0  0  0  0  0  0  0  0  0  0
   60.1414   26.2502   45.0479 H   0  0  0  0  0  0  0  0  0  0  0  0
   59.5050   27.5740   46.5440 C   0  0  0  0  0  0  0  0  0  0  0  0
   59.3310   27.5410   48.2240 S   0  0  0  0  0  0  0  0  0  0  0  0
   59.8170   29.1390   48.4330 C   0  0  0  0  0  0  0  0  0  0  0  0
   59.8560   29.7510   49.6180 C   0  0  0  0  0  0  0  0  0  0  0  0
   60.1840   30.7988   49.6853 H   0  0  0  0  0  0  0  0  0  0  0  0
   59.5602   29.2077   50.5276 H   0  0  0  0  0  0  0  0  0  0  0  0
   60.1340   29.7110   47.2400 N   0  0  0  0  0  0  0  0  0  0  0  0
   60.5750   31.0670   47.0650 C   0  0  0  0  0  0  0  0  0  0  0  0
   62.1760   31.5500   47.1950 S   0  0  0  0  0  0  0  0  0  0  0  0
   61.8980   33.1600   46.8030 C   0  0  0  0  0  0  0  0  0  0  0  0
   62.9710   34.2010   46.7430 C   0  0  0  0  0  0  0  0  0  0  0  0
   63.2638   34.4851   47.7646 H   0  0  0  0  0  0  0  0  0  0  0  0
   63.8444   33.7970   46.2102 H   0  0  0  0  0  0  0  0  0  0  0  0
   62.5936   35.0863   46.2102 H   0  0  0  0  0  0  0  0  0  0  0  0
   60.5290   33.3500   46.5750 C   0  0  0  0  0  0  0  0  0  0  0  0
   59.9320   34.6870   46.2260 C   0  0  0  0  0  0  0  0  0  0  0  0
   59.6885   35.2322   47.1498 H   0  0  0  0  0  0  0  0  0  0  0  0
   60.6557   35.2691   45.6366 H   0  0  0  0  0  0  0  0  0  0  0  0
   59.0155   34.5367   45.6366 H   0  0  0  0  0  0  0  0  0  0  0  0
   59.7730   32.1590   46.7170 C   0  0  0  0  0  0  0  0  0  0  0  0
   58.3030   32.0650   46.5560 C   0  0  0  0  0  0  0  0  0  0  0  0
   57.5510   33.0030   46.9290 O   0  0  0  0  0  0  0  0  0  0  0  0
   57.7300   30.9340   45.9870 O   0  0  0  0  0  0  0  0  0  0  0  0
   59.9580   28.8490   46.1940 C   0  0  0  0  0  0  0  0  0  0  0  0
   60.1970   29.1860   45.0020 O   0  0  0  0  0  0  0  0  0  0  0  0
   56.7920   26.4270   45.8470 C   0  0  0  0  0  0  0  0  0  0  0  0
   56.7636   27.4675   46.2027 H   0  0  0  0  0  0  0  0  0  0  0  0
   55.5990   25.7160   45.6830 C   0  0  0  0  0  0  0  0  0  0  0  0
   54.3890   26.3320   45.9830 O   0  0  0  0  0  0  0  0  0  0  0  0
  1  2  1  0
  2  3  1  0
  3  4  2  0
  4  5  1  0
  4  6  1  0
  6  7  1  0
  6  8  2  0
  8  9  1  0
  9 10  1  0
  9 11  2  0
 11 12  1  0
 12 13  1  0
 13 14  2  0
 14 15  1  0
 14 16  1  0
 13 17  1  0
 17 18  1  0
 18 19  1  0
 19 20  1  0
 20 21  1  0
 21 22  1  0
 21 23  1  0
 21 24  1  0
 20 25  2  0
 25 26  1  0
 26 27  1  0
 26 28  1  0
 26 29  1  0
 25 30  1  0
 30 31  1  0
 31 32  2  0
 31 33  1  0
 17 34  1  0
 34 35  2  0
  8 36  1  0
 36 37  1  0
 36 38  2  0
 38 39  1  0
 38  3  1  0
 34 11  1  0
 30 18  2  0
M  CHG  2  33  -1  39  -1
M  END
>  <UniqueID>  (33) 
33

>  <SMILES>  (33) 
C=c1s/c(=C\c2ccc(O)c([O-])c2)c(=O)n1-c1sc(C)c(C)c1C(=O)[O-]

>  <Energy>  (33) 
114.48160447471672

>  <Genealogy>  (33) 
C=c1sc(=Cc2ccc(O)c([O-])c2)c(=O)n1-c1sc(C)c(C)c1C(=O)[O-] (protonated)
C=c1s/c(=C\c2ccc(O)c([O-])c2)c(=O)n1-c1sc(C)c(C)c1C(=O)[O-] (cis-trans isomerization)
C=c1s/c(=C\c2ccc(O)c([O-])c2)c(=O)n1-c1sc(C)c(C)c1C(=O)[O-] (3D coordinates assigned)
C=c1s/c(=C\c2ccc(O)c([O-])c2)c(=O)n1-c1sc(C)c(C)c1C(=O)[O-] (optimized conformer: 114.48160447471672 kcal/mol)

>  <smiles>  (33) 
C=c1sc(=Cc2ccc(O)c(O)c2)c(=O)n1-c1sc(C)c(C)c1C(=O)O

>  <score_type>  (33) 
oracle

>  <origin>  (33) 
adg

>  <m_score__min__energy>  (33) 
-12.48

>  <m_primary>  (33) 
energy

$$$$
33:0
     RDKit          3D

 48 51  0  0  0  0  0  0  0  0999 V2000
   60.6328   28.1439   47.0252 H   0  0  0  0  0  0  0  0  0  0  0  0
   59.8300   27.6280   46.4780 C   0  0  0  0  0  0  0  0  0  0  0  0
   59.6094   26.5718   46.6918 H   0  0  0  0  0  0  0  0  0  0  0  0
   59.1200   28.2870   45.5500 C   0  0  0  0  0  0  0  0  0  0  0  0
   58.0700   27.7740   44.7700 C   0  0  0  0  0  0  0  0  0  0  0  0
   57.6340   26.5120   44.5900 C   0  0  0  0  0  0  0  0  0  0  0  0
   57.6684   26.1105   43.5665 H   0  0  0  0  0  0  0  0  0  0  0  0
   57.1160   25.6240   45.6420 C   0  0  0  0  0  0  0  0  0  0  0  0
   57.7180   24.4930   46.0570 N   0  0  0  0  0  0  0  0  0  0  0  0
   56.8190   23.9560   46.9100 C   0  0  0  0  0  0  0  0  0  0  0  0
   57.0300   22.8790   47.5260 O   0  0  0  0  0  0  0  0  0  0  0  0
   55.6730   24.6570   47.0400 N   0  0  0  0  0  0  0  0  0  0  0  0
   55.8720   25.7010   46.2200 C   0  0  0  0  0  0  0  0  0  0  0  0
   54.9350   26.7020   45.9990 O   0  0  0  0  0  0  0  0  0  0  0  0
   57.5040   28.8590   44.1240 C   0  0  0  0  0  0  0  0  0  0  0  0
   56.6265   28.8410   43.4609 H   0  0  0  0  0  0  0  0  0  0  0  0
   58.2480   29.9660   44.4690 C   0  0  0  0  0  0  0  0  0  0  0  0
   58.0160   31.3440   43.9220 C   0  0  0  0  0  0  0  0  0  0  0  0
   57.8965   32.0535   44.7541 H   0  0  0  0  0  0  0  0  0  0  0  0
   58.8764   31.6434   43.3055 H   0  0  0  0  0  0  0  0  0  0  0  0
   57.1050   31.3452   43.3055 H   0  0  0  0  0  0  0  0  0  0  0  0
   59.2360   29.6240   45.3290 N   0  0  0  0  0  0  0  0  0  0  0  0
   60.1950   30.5490   45.9560 C   0  0  0  0  0  0  0  0  0  0  0  0
   61.1768   30.0574   46.0218 H   0  0  0  0  0  0  0  0  0  0  0  0
   60.2561   31.4576   45.3390 H   0  0  0  0  0  0  0  0  0  0  0  0
   59.7480   30.9430   47.3430 C   0  0  0  0  0  0  0  0  0  0  0  0
   58.9530   32.0860   47.5310 C   0  0  0  0  0  0  0  0  0  0  0  0
   58.6673   32.7009   46.6648 H   0  0  0  0  0  0  0  0  0  0  0  0
   58.5230   32.4470   48.8090 C   0  0  0  0  0  0  0  0  0  0  0  0
   57.9093   33.3498   48.9446 H   0  0  0  0  0  0  0  0  0  0  0  0
   58.8690   31.6650   49.9220 C   0  0  0  0  0  0  0  0  0  0  0  0
   58.4330   32.0460   51.2390 N   0  0  0  0  0  0  0  0  0  0  0  0
   57.6150   31.1640   52.0310 C   0  0  0  0  0  0  0  0  0  0  0  0
   57.1670   30.0910   51.5440 O   0  0  0  0  0  0  0  0  0  0  0  0
   57.2100   31.5740   53.4180 C   0  0  0  0  0  0  0  0  0  0  0  0
   57.1764   30.6803   54.0584 H   0  0  0  0  0  0  0  0  0  0  0  0
   56.2220   32.0540   53.3590 H   0  0  0  0  0  0  0  0  0  0  0  0
   58.1190   32.5030   53.9750 O   0  0  0  0  0  0  0  0  0  0  0  0
   58.2350   33.6300   53.1280 C   0  0  0  0  0  0  0  0  0  0  0  0
   58.7791   34.4271   53.6557 H   0  0  0  0  0  0  0  0  0  0  0  0
   57.2285   33.9804   52.8556 H   0  0  0  0  0  0  0  0  0  0  0  0
   58.9970   33.2550   51.8530 C   0  0  0  0  0  0  0  0  0  0  0  0
   60.0519   33.0717   52.1052 H   0  0  0  0  0  0  0  0  0  0  0  0
   58.9106   34.0849   51.1363 H   0  0  0  0  0  0  0  0  0  0  0  0
   59.6530   30.5160   49.7350 C   0  0  0  0  0  0  0  0  0  0  0  0
   59.9297   29.8961   50.6005 H   0  0  0  0  0  0  0  0  0  0  0  0
   60.0840   30.1550   48.4560 C   0  0  0  0  0  0  0  0  0  0  0  0
   60.6906   29.2475   48.3198 H   0  0  0  0  0  0  0  0  0  0  0  0
  1  2  1  0
  2  3  1  0
  2  4  2  0
  4  5  1  0
  5  6  2  0
  6  7  1  0
  6  8  1  0
  8  9  1  0
  9 10  1  0
 10 11  2  0
 10 12  1  0
 12 13  1  0
 13 14  1  0
  5 15  1  0
 15 16  1  0
 15 17  2  0
 17 18  1  0
 18 19  1  0
 18 20  1  0
 18 21  1  0
 17 22  1  0
 22 23  1  0
 23 24  1  0
 23 25  1  0
 23 26  1  0
 26 27  2  0
 27 28  1  0
 27 29  1  0
 29 30  1  0
 29 31  2  0
 31 32  1  0
 32 33  1  0
 33 34  2  0
 33 35  1  0
 35 36  1  0
 35 37  1  0
 35 38  1  0
 38 39  1  0
 39 40  1  0
 39 41  1  0
 39 42  1  0
 42 43  1  0
 42 44  1  0
 31 45  1  0
 45 46  1  0
 45 47  2  0
 47 48  1  0
 22  4  1  0
 47 26  1  0
 13  8  2  0
 42 32  1  0
M  CHG  3   9  -1  12  -1  14  -1
M  END
>  <UniqueID>  (34) 
34

>  <SMILES>  (34) 
C=c1/c(=C\c2[n-]c(=O)[n-]c2[O-])cc(C)n1Cc1ccc(N2CCOCC2=O)cc1

>  <Energy>  (34) 
128.0042129475211

>  <Genealogy>  (34) 
C=c1c(=Cc2[n-]c(=O)[n-]c2[O-])cc(C)n1Cc1ccc(N2CCOCC2=O)cc1 (protonated)
C=c1/c(=C\c2[n-]c(=O)[n-]c2[O-])cc(C)n1Cc1ccc(N2CCOCC2=O)cc1 (cis-trans isomerization)
C=c1/c(=C\c2[n-]c(=O)[n-]c2[O-])cc(C)n1Cc1ccc(N2CCOCC2=O)cc1 (3D coordinates assigned)
C=c1/c(=C\c2[n-]c(=O)[n-]c2[O-])cc(C)n1Cc1ccc(N2CCOCC2=O)cc1 (nonaromatic ring conformer: 128.0042129475211 kcal/mol)

>  <smiles>  (34) 
C=c1c(=Cc2[nH]c(=O)[nH]c2O)cc(C)n1Cc1ccc(N2CCOCC2=O)cc1

>  <score_type>  (34) 
oracle

>  <origin>  (34) 
adg

>  <m_score__min__energy>  (34) 
-16.670000000000002

>  <m_primary>  (34) 
energy

$$$$
34:0
     RDKit          3D

 52 55  0  0  0  0  0  0  0  0999 V2000
   57.2580   33.7380   46.7030 C   0  0  0  0  0  0  0  0  0  0  0  0
   58.5680   33.2280   47.1350 N   0  0  1  0  0  0  0  0  0  0  0  0
   58.4420   32.5690   48.4560 C   0  0  0  0  0  0  0  0  0  0  0  0
   59.7820   32.2900   49.0980 C   0  0  0  0  0  0  0  0  0  0  0  0
   59.8930   31.3490   50.1370 C   0  0  0  0  0  0  0  0  0  0  0  0
   61.1330   31.0980   50.7320 C   0  0  0  0  0  0  0  0  0  0  0  0
   62.2710   31.7770   50.2920 C   0  0  0  0  0  0  0  0  0  0  0  0
   62.1770   32.6920   49.2370 C   0  0  0  0  0  0  0  0  0  0  0  0
   60.9390   32.9390   48.6320 C   0  0  0  0  0  0  0  0  0  0  0  0
   63.4050   33.3430   48.7550 C   0  0  0  0  0  0  0  0  0  0  0  0
   64.5680   33.1570   49.3880 C   0  0  0  0  0  0  0  0  0  0  0  0
   64.6560   32.3790   50.6900 C   0  0  0  0  0  0  0  0  0  0  0  0
   65.9110   31.4990   50.6730 C   0  0  0  0  0  0  0  0  0  0  0  0
   64.7290   33.3720   51.8580 C   0  0  0  0  0  0  0  0  0  0  0  0
   63.5140   31.5300   50.8830 O   0  0  0  0  0  0  0  0  0  0  0  0
   59.2170   32.1420   45.9200 S   0  0  0  0  0  0  0  0  0  0  0  0
   58.8430   32.6360   44.5490 O   0  0  0  0  0  0  0  0  0  0  0  0
   60.7180   32.1350   46.0090 O   0  0  0  0  0  0  0  0  0  0  0  0
   58.6120   30.4940   46.1070 C   0  0  0  0  0  0  0  0  0  0  0  0
   57.6200   29.9990   45.2520 C   0  0  0  0  0  0  0  0  0  0  0  0
   57.1490   28.6910   45.3970 C   0  0  0  0  0  0  0  0  0  0  0  0
   57.6590   27.8570   46.4090 C   0  0  0  0  0  0  0  0  0  0  0  0
   57.1730   26.4680   46.5880 C   0  0  0  0  0  0  0  0  0  0  0  0
   57.9700   25.4430   46.9430 N   0  0  0  0  0  0  0  0  0  0  0  0
   57.1350   24.3820   46.9760 C   0  0  0  0  0  0  0  0  0  0  0  0
   57.5230   23.2230   47.2770 O   0  0  0  0  0  0  0  0  0  0  0  0
   55.8560   24.6620   46.6530 N   0  0  0  0  0  0  0  0  0  0  0  0
   55.8920   25.9810   46.4060 C   0  0  0  0  0  0  0  0  0  0  0  0
   54.7840   26.7080   45.9900 O   0  0  0  0  0  0  0  0  0  0  0  0
   58.6290   28.3720   47.2870 C   0  0  0  0  0  0  0  0  0  0  0  0
   59.1000   29.6800   47.1370 C   0  0  0  0  0  0  0  0  0  0  0  0
   56.6475   33.9757   47.5866 H   0  0  0  0  0  0  0  0  0  0  0  0
   57.3992   34.6468   46.0996 H   0  0  0  0  0  0  0  0  0  0  0  0
   56.7475   32.9729   46.0996 H   0  0  0  0  0  0  0  0  0  0  0  0
   59.2150   34.0470   47.2070 H   0  0  0  0  0  0  0  0  0  0  0  0
   57.8619   33.2243   49.1224 H   0  0  0  0  0  0  0  0  0  0  0  0
   57.9406   31.6026   48.2991 H   0  0  0  0  0  0  0  0  0  0  0  0
   59.0001   30.8079   50.4832 H   0  0  0  0  0  0  0  0  0  0  0  0
   61.2122   30.3645   51.5479 H   0  0  0  0  0  0  0  0  0  0  0  0
   60.8712   33.6430   47.7895 H   0  0  0  0  0  0  0  0  0  0  0  0
   63.3661   33.9889   47.8654 H   0  0  0  0  0  0  0  0  0  0  0  0
   65.4865   33.5790   48.9541 H   0  0  0  0  0  0  0  0  0  0  0  0
   66.2206   31.2819   51.7060 H   0  0  0  0  0  0  0  0  0  0  0  0
   65.6909   30.5564   50.1504 H   0  0  0  0  0  0  0  0  0  0  0  0
   66.7221   32.0272   50.1504 H   0  0  0  0  0  0  0  0  0  0  0  0
   64.6886   32.8221   52.8098 H   0  0  0  0  0  0  0  0  0  0  0  0
   65.6711   33.9369   51.8006 H   0  0  0  0  0  0  0  0  0  0  0  0
   63.8796   34.0686   51.8006 H   0  0  0  0  0  0  0  0  0  0  0  0
   57.2087   30.6435   44.4612 H   0  0  0  0  0  0  0  0  0  0  0  0
   56.3741   28.3109   44.7151 H   0  0  0  0  0  0  0  0  0  0  0  0
   59.0205   27.7408   48.0984 H   0  0  0  0  0  0  0  0  0  0  0  0
   59.8577   30.0717   47.8316 H   0  0  0  0  0  0  0  0  0  0  0  0
  1  2  1  0
  2  3  1  0
  3  4  1  0
  4  5  2  0
  5  6  1  0
  6  7  2  0
  7  8  1  0
  8  9  2  0
  8 10  1  0
 10 11  2  0
 11 12  1  0
 12 13  1  0
 12 14  1  0
 12 15  1  0
  2 16  1  0
 16 17  2  0
 16 18  2  0
 16 19  1  0
 19 20  2  0
 20 21  1  0
 21 22  2  0
 22 23  1  0
 23 24  1  0
 24 25  1  0
 25 26  2  0
 25 27  1  0
 27 28  1  0
 28 29  1  0
 22 30  1  0
 30 31  2  0
  9  4  1  0
 31 19  1  0
 15  7  1  0
 28 23  2  0
  1 32  1  0
  1 33  1  0
  1 34  1  0
  2 35  1  1
  3 36  1  0
  3 37  1  0
  5 38  1  0
  6 39  1  0
  9 40  1  0
 10 41  1  0
 11 42  1  0
 13 43  1  0
 13 44  1  0
 13 45  1  0
 14 46  1  0
 14 47  1  0
 14 48  1  0
 20 49  1  0
 21 50  1  0
 30 51  1  0
 31 52  1  0
M  CHG  4   2   1  24  -1  27  -1  29  -1
M  END
>  <UniqueID>  (35) 
35

>  <SMILES>  (35) 
C[N@@H+](Cc1ccc2c(c1)C=CC(C)(C)O2)S(=O)(=O)c1ccc(-c2[n-]c(=O)[n-]c2[O-])cc1

>  <Energy>  (35) 
85.54013245795308

>  <Genealogy>  (35) 
C[NH+](Cc1ccc2c(c1)C=CC(C)(C)O2)S(=O)(=O)c1ccc(-c2[n-]c(=O)[n-]c2[O-])cc1 (protonated)
C[N@@H+](Cc1ccc2c(c1)C=CC(C)(C)O2)S(=O)(=O)c1ccc(-c2[n-]c(=O)[n-]c2[O-])cc1 (chirality)
C[N@@H+](Cc1ccc2c(c1)C=CC(C)(C)O2)S(=O)(=O)c1ccc(-c2[n-]c(=O)[n-]c2[O-])cc1 (3D coordinates assigned)
C[N@@H+](Cc1ccc2c(c1)C=CC(C)(C)O2)S(=O)(=O)c1ccc(-c2[n-]c(=O)[n-]c2[O-])cc1 (nonaromatic ring conformer: 85.54013245795308 kcal/mol)

>  <smiles>  (35) 
CN(Cc1ccc2c(c1)C=CC(C)(C)O2)S(=O)(=O)c1ccc(-c2[nH]c(=O)[nH]c2O)cc1

>  <score_type>  (35) 
oracle

>  <origin>  (35) 
adg

>  <m_score__min__energy>  (35) 
-15.32

>  <m_primary>  (35) 
energy

$$$$
35:0
     RDKit          3D

 27 28  0  0  0  0  0  0  0  0999 V2000
   59.5190   28.9490   44.7990 O   0  0  0  0  0  0  0  0  0  0  0  0
   58.3700   29.0790   45.3000 C   0  0  0  0  0  0  0  0  0  0  0  0
   57.8080   30.3890   45.4700 N   0  0  0  0  0  0  0  0  0  0  0  0
   58.6100   31.6070   45.2910 C   0  0  0  0  0  0  0  0  0  0  0  0
   57.9000   32.6010   44.3780 C   0  0  0  0  0  0  0  0  0  0  0  0
   56.9970   33.4270   45.2860 C   0  0  0  0  0  0  0  0  0  0  0  0
   57.5440   33.2760   46.7050 C   0  0  0  0  0  0  0  0  0  0  0  0
   58.7500   32.3480   46.6160 C   0  0  0  0  0  0  0  0  0  0  0  0
   57.6020   27.8710   45.6910 C   0  0  0  0  0  0  0  0  0  0  0  0
   56.1970   27.8430   45.6160 C   0  0  0  0  0  0  0  0  0  0  0  0
   55.4790   28.9590   45.2020 O   0  0  0  0  0  0  0  0  0  0  0  0
   55.5200   26.7220   45.9780 N   0  0  0  0  0  0  0  0  0  0  0  0
   56.1730   25.6210   46.4250 C   0  0  0  0  0  0  0  0  0  0  0  0
   55.5230   24.5950   46.7530 O   0  0  0  0  0  0  0  0  0  0  0  0
   57.5270   25.6250   46.5220 N   0  0  0  0  0  0  0  0  0  0  0  0
   58.2530   26.7180   46.1710 C   0  0  0  0  0  0  0  0  0  0  0  0
   59.5080   26.6770   46.2660 O   0  0  0  0  0  0  0  0  0  0  0  0
   56.7870   30.4690   45.6790 H   0  0  0  0  0  0  0  0  0  0  0  0
   59.5767   31.2823   44.8786 H   0  0  0  0  0  0  0  0  0  0  0  0
   58.6323   33.2489   43.8741 H   0  0  0  0  0  0  0  0  0  0  0  0
   57.3250   32.0895   43.5920 H   0  0  0  0  0  0  0  0  0  0  0  0
   57.0185   34.4839   44.9820 H   0  0  0  0  0  0  0  0  0  0  0  0
   55.9540   33.0829   45.2255 H   0  0  0  0  0  0  0  0  0  0  0  0
   57.8490   34.2565   47.0995 H   0  0  0  0  0  0  0  0  0  0  0  0
   56.7794   32.8656   47.3810 H   0  0  0  0  0  0  0  0  0  0  0  0
   59.6830   32.9305   46.6320 H   0  0  0  0  0  0  0  0  0  0  0  0
   58.7872   31.6513   47.4664 H   0  0  0  0  0  0  0  0  0  0  0  0
  1  2  2  0
  2  3  1  0
  3  4  1  0
  4  5  1  0
  5  6  1  0
  6  7  1  0
  7  8  1  0
  2  9  1  0
  9 10  2  0
 10 11  1  0
 10 12  1  0
 12 13  1  0
 13 14  2  0
 13 15  1  0
 15 16  1  0
 16 17  2  0
  8  4  1  0
 16  9  1  0
  3 18  1  0
  4 19  1  0
  5 20  1  0
  5 21  1  0
  6 22  1  0
  6 23  1  0
  7 24  1  0
  7 25  1  0
  8 26  1  0
  8 27  1  0
M  CHG  3  11  -1  12  -1  15  -1
M  END
>  <UniqueID>  (36) 
36

>  <SMILES>  (36) 
O=C(NC1CCCC1)c1c([O-])[n-]c(=O)[n-]c1=O

>  <Energy>  (36) 
31.756401850705924

>  <Genealogy>  (36) 
O=C(NC1CCCC1)c1c([O-])[n-]c(=O)[n-]c1=O (protonated)
O=C(NC1CCCC1)c1c([O-])[n-]c(=O)[n-]c1=O (3D coordinates assigned)
O=C(NC1CCCC1)c1c([O-])[n-]c(=O)[n-]c1=O (nonaromatic ring conformer: 31.756401850705924 kcal/mol)

>  <smiles>  (36) 
O=C(NC1CCCC1)c1c(O)[nH]c(=O)[nH]c1=O

>  <score_type>  (36) 
oracle

>  <origin>  (36) 
adg

>  <m_score__min__energy>  (36) 
-13.199999999999999

>  <m_primary>  (36) 
energy

$$$$
36:0
     RDKit          3D

 41 43  0  0  1  0  0  0  0  0999 V2000
   58.5120   34.0380   46.8470 C   0  0  0  0  0  0  0  0  0  0  0  0
   57.8480   33.1920   45.8110 C   0  0  0  0  0  0  0  0  0  0  0  0
   58.5360   33.3480   44.4730 C   0  0  0  0  0  0  0  0  0  0  0  0
   57.7840   31.7810   46.1720 N   0  0  0  0  0  0  0  0  0  0  0  0
   57.5120   30.8670   45.3060 C   0  0  0  0  0  0  0  0  0  0  0  0
   56.4490   31.0290   44.4860 N   0  0  0  0  0  0  0  0  0  0  0  0
   56.1380   30.0910   43.5530 C   0  0  0  0  0  0  0  0  0  0  0  0
   56.9050   28.9830   43.4480 N   0  0  0  0  0  0  0  0  0  0  0  0
   57.9740   28.7810   44.2450 C   0  0  0  0  0  0  0  0  0  0  0  0
   58.8890   27.7970   44.3490 N   0  0  0  0  0  0  0  0  0  0  0  0
   59.7780   28.0990   45.3390 C   0  0  0  0  0  0  0  0  0  0  0  0
   59.4060   29.3250   45.8810 C   0  0  0  0  0  0  0  0  0  0  0  0
   60.1270   29.9380   46.9790 C   0  0  0  0  0  0  0  0  0  0  0  0
   60.1210   29.4740   48.2740 C   0  0  0  0  0  0  0  0  0  0  0  0
   60.8100   30.0940   49.2950 C   0  0  0  0  0  0  0  0  0  0  0  0
   61.5350   31.2280   48.9870 C   0  0  0  0  0  0  0  0  0  0  0  0
   61.5720   31.7340   47.6870 C   0  0  0  0  0  0  0  0  0  0  0  0
   62.5080   33.1770   47.3580 S   0  0  0  0  0  0  0  0  0  0  0  0
   62.6990   34.0430   48.8970 C   0  0  0  0  0  0  0  0  0  0  0  0
   61.7310   34.0350   46.4260 O   0  0  0  0  0  0  0  0  0  0  0  0
   63.8490   32.7900   46.7900 O   0  0  0  0  0  0  0  0  0  0  0  0
   60.8620   31.0820   46.6810 C   0  0  0  0  0  0  0  0  0  0  0  0
   58.2880   29.7340   45.1930 C   0  0  0  0  0  0  0  0  0  0  0  0
   58.2308   33.6797   47.8483 H   0  0  0  0  0  0  0  0  0  0  0  0
   59.6037   33.9742   46.7279 H   0  0  0  0  0  0  0  0  0  0  0  0
   58.1906   35.0832   46.7279 H   0  0  0  0  0  0  0  0  0  0  0  0
   56.8113   33.5533   45.7422 H   0  0  0  0  0  0  0  0  0  0  0  0
   59.5975   33.5887   44.6324 H   0  0  0  0  0  0  0  0  0  0  0  0
   58.4540   32.4085   43.9068 H   0  0  0  0  0  0  0  0  0  0  0  0
   58.0568   34.1603   43.9068 H   0  0  0  0  0  0  0  0  0  0  0  0
   55.2714   30.2320   42.8904 H   0  0  0  0  0  0  0  0  0  0  0  0
   56.6600   28.2550   42.7200 H   0  0  0  0  0  0  0  0  0  0  0  0
   58.8870   26.9330   43.7380 H   0  0  0  0  0  0  0  0  0  0  0  0
   60.6345   27.4839   45.6521 H   0  0  0  0  0  0  0  0  0  0  0  0
   59.5410   28.5684   48.5053 H   0  0  0  0  0  0  0  0  0  0  0  0
   60.7829   29.6982   50.3210 H   0  0  0  0  0  0  0  0  0  0  0  0
   62.0945   31.7427   49.7820 H   0  0  0  0  0  0  0  0  0  0  0  0
   62.5449   33.3443   49.7325 H   0  0  0  0  0  0  0  0  0  0  0  0
   63.7123   34.4671   48.9558 H   0  0  0  0  0  0  0  0  0  0  0  0
   61.9581   34.8540   48.9558 H   0  0  0  0  0  0  0  0  0  0  0  0
   60.8822   31.4709   45.6522 H   0  0  0  0  0  0  0  0  0  0  0  0
  1  2  1  0
  2  3  1  0
  2  4  1  0
  4  5  2  0
  5  6  1  0
  6  7  2  0
  7  8  1  0
  8  9  1  0
  9 10  1  0
 10 11  1  0
 11 12  2  0
 12 13  1  0
 13 14  2  0
 14 15  1  0
 15 16  2  0
 16 17  1  0
 17 18  1  0
 18 19  1  0
 18 20  2  0
 18 21  2  0
 17 22  2  0
 12 23  1  0
 23  5  1  0
 23  9  2  0
 22 13  1  0
  1 24  1  0
  1 25  1  0
  1 26  1  0
  2 27  1  0
  3 28  1  0
  3 29  1  0
  3 30  1  0
  7 31  1  0
  8 32  1  0
 10 33  1  0
 11 34  1  0
 14 35  1  0
 15 36  1  0
 16 37  1  0
 19 38  1  0
 19 39  1  0
 19 40  1  0
 22 41  1  0
M  END
>  <smiles>  (37) 
CC(C)N=c1nc[nH]c2[nH]cc(-c3cccc(S(C)(=O)=O)c3)c12

>  <score_type>  (37) 
oracle

>  <origin>  (37) 
adg

>  <m_score__min__energy>  (37) 
-8.1199999999999992

>  <m_primary>  (37) 
energy

$$$$
37:0
     RDKit          3D

 58 60  0  0  0  0  0  0  0  0999 V2000
   57.0150   30.9030   42.5560 C   0  0  0  0  0  0  0  0  0  0  0  0
   57.5780   31.5160   43.8130 C   0  0  0  0  0  0  0  0  0  0  0  0
   57.9870   32.8580   43.7990 C   0  0  0  0  0  0  0  0  0  0  0  0
   58.5150   33.4700   44.9480 C   0  0  0  0  0  0  0  0  0  0  0  0
   58.9310   34.9180   44.8730 C   0  0  0  0  0  0  0  0  0  0  0  0
   58.6430   32.7150   46.1390 C   0  0  0  0  0  0  0  0  0  0  0  0
   59.2160   33.2900   47.4200 C   0  0  0  0  0  0  0  0  0  0  0  0
   60.5560   32.7290   47.6980 N   0  0  0  0  0  0  0  0  0  0  0  0
   61.6110   33.4210   46.9120 C   0  0  0  0  0  0  0  0  0  0  0  0
   62.9820   33.3660   47.5950 C   0  0  0  0  0  0  0  0  0  0  0  0
   62.9250   34.1110   48.9430 C   0  0  0  0  0  0  0  0  0  0  0  0
   64.1080   33.7630   49.8130 C   0  0  0  0  0  0  0  0  0  0  0  0
   64.0980   34.1010   51.0280 O   0  0  0  0  0  0  0  0  0  0  0  0
   65.2220   33.0270   49.2840 N   0  0  0  0  0  0  0  0  0  0  0  0
   66.1980   32.3700   50.1580 C   0  0  2  0  0  0  0  0  0  0  0  0
   65.4800   31.5960   51.2700 C   0  0  0  0  0  0  0  0  0  0  0  0
   67.1160   33.4070   50.7540 C   0  0  0  0  0  0  0  0  0  0  0  0
   66.8330   33.9870   52.0000 C   0  0  0  0  0  0  0  0  0  0  0  0
   67.7160   34.9300   52.5310 C   0  0  0  0  0  0  0  0  0  0  0  0
   68.8610   35.2880   51.8180 C   0  0  0  0  0  0  0  0  0  0  0  0
   69.1090   34.6970   50.5790 C   0  0  0  0  0  0  0  0  0  0  0  0
   68.2410   33.7800   50.0790 N   0  0  0  0  0  0  0  0  0  0  0  0
   61.5840   33.8840   49.6860 C   0  0  0  0  0  0  0  0  0  0  0  0
   60.8260   32.6570   49.1580 C   0  0  0  0  0  0  0  0  0  0  0  0
   58.2130   31.3780   46.1540 C   0  0  0  0  0  0  0  0  0  0  0  0
   57.6750   30.7720   45.0100 C   0  0  0  0  0  0  0  0  0  0  0  0
   57.2430   29.3290   45.0740 C   0  0  0  0  0  0  0  0  0  0  0  0
   56.2932   30.1170   42.8228 H   0  0  0  0  0  0  0  0  0  0  0  0
   56.5090   31.6799   41.9640 H   0  0  0  0  0  0  0  0  0  0  0  0
   57.8320   30.4648   41.9640 H   0  0  0  0  0  0  0  0  0  0  0  0
   57.8925   33.4416   42.8714 H   0  0  0  0  0  0  0  0  0  0  0  0
   59.0464   35.3195   45.8906 H   0  0  0  0  0  0  0  0  0  0  0  0
   59.8882   34.9972   44.3369 H   0  0  0  0  0  0  0  0  0  0  0  0
   58.1618   35.4932   44.3369 H   0  0  0  0  0  0  0  0  0  0  0  0
   59.2968   34.3824   47.3197 H   0  0  0  0  0  0  0  0  0  0  0  0
   58.5463   33.0287   48.2526 H   0  0  0  0  0  0  0  0  0  0  0  0
   61.6886   32.9403   45.9256 H   0  0  0  0  0  0  0  0  0  0  0  0
   61.3231   34.4790   46.8244 H   0  0  0  0  0  0  0  0  0  0  0  0
   63.2610   32.3164   47.7696 H   0  0  0  0  0  0  0  0  0  0  0  0
   63.7299   33.8459   46.9466 H   0  0  0  0  0  0  0  0  0  0  0  0
   62.9805   35.1860   48.7165 H   0  0  0  0  0  0  0  0  0  0  0  0
   65.2500   32.8180   48.2610 H   0  0  0  0  0  0  0  0  0  0  0  0
   66.7911   31.6573   49.5662 H   0  0  0  0  0  0  0  0  0  0  0  0
   65.8198   31.9623   52.2500 H   0  0  0  0  0  0  0  0  0  0  0  0
   64.3941   31.7460   51.1789 H   0  0  0  0  0  0  0  0  0  0  0  0
   65.7110   30.5244   51.1789 H   0  0  0  0  0  0  0  0  0  0  0  0
   65.9256   33.7021   52.5526 H   0  0  0  0  0  0  0  0  0  0  0  0
   67.5094   35.3894   53.5089 H   0  0  0  0  0  0  0  0  0  0  0  0
   69.5617   36.0296   52.2293 H   0  0  0  0  0  0  0  0  0  0  0  0
   70.0071   34.9736   50.0073 H   0  0  0  0  0  0  0  0  0  0  0  0
   61.7928   33.7375   50.7560 H   0  0  0  0  0  0  0  0  0  0  0  0
   60.9519   34.7684   49.5177 H   0  0  0  0  0  0  0  0  0  0  0  0
   61.4279   31.7587   49.3599 H   0  0  0  0  0  0  0  0  0  0  0  0
   59.8543   32.6223   49.6724 H   0  0  0  0  0  0  0  0  0  0  0  0
   58.3001   30.7944   47.0824 H   0  0  0  0  0  0  0  0  0  0  0  0
   57.1506   29.0202   46.1257 H   0  0  0  0  0  0  0  0  0  0  0  0
   56.2712   29.2146   44.5715 H   0  0  0  0  0  0  0  0  0  0  0  0
   57.9920   28.6994   44.5715 H   0  0  0  0  0  0  0  0  0  0  0  0
  1  2  1  0
  2  3  2  0
  3  4  1  0
  4  5  1  0
  4  6  2  0
  6  7  1  0
  7  8  1  0
  8  9  1  0
  9 10  1  0
 10 11  1  0
 11 12  1  0
 12 13  2  0
 12 14  1  0
 14 15  1  0
 15 16  1  0
 15 17  1  0
 17 18  2  0
 18 19  1  0
 19 20  2  0
 20 21  1  0
 21 22  2  0
 11 23  1  0
 23 24  1  0
  6 25  1  0
 25 26  2  0
 26 27  1  0
 26  2  1  0
 24  8  1  0
 22 17  1  0
  1 28  1  0
  1 29  1  0
  1 30  1  0
  3 31  1  0
  5 32  1  0
  5 33  1  0
  5 34  1  0
  7 35  1  0
  7 36  1  0
  9 37  1  0
  9 38  1  0
 10 39  1  0
 10 40  1  0
 11 41  1  0
 14 42  1  0
 15 43  1  6
 16 44  1  0
 16 45  1  0
 16 46  1  0
 18 47  1  0
 19 48  1  0
 20 49  1  0
 21 50  1  0
 23 51  1  0
 23 52  1  0
 24 53  1  0
 24 54  1  0
 25 55  1  0
 27 56  1  0
 27 57  1  0
 27 58  1  0
M  END
>  <UniqueID>  (38) 
37

>  <SMILES>  (38) 
Cc1cc(C)c(CN2CCC(C(=O)N[C@H](C)c3ccccn3)CC2)cc1C

>  <Energy>  (38) 
65.18885949219708

>  <Genealogy>  (38) 
Cc1cc(C)c(CN2CCC(C(=O)N[C@H](C)c3ccccn3)CC2)cc1C (chirality)
Cc1cc(C)c(CN2CCC(C(=O)N[C@H](C)c3ccccn3)CC2)cc1C (3D coordinates assigned)
Cc1cc(C)c(CN2CCC(C(=O)N[C@H](C)c3ccccn3)CC2)cc1C (nonaromatic ring conformer: 65.18885949219708 kcal/mol)

>  <smiles>  (38) 
Cc1cc(C)c(CN2CCC(C(=O)NC(C)c3ccccn3)CC2)cc1C

>  <score_type>  (38) 
oracle

>  <origin>  (38) 
adg

>  <m_score__min__energy>  (38) 
-8.6300000000000008

>  <m_primary>  (38) 
energy

$$$$
38:0
     RDKit          3D

 50 52  0  0  0  0  0  0  0  0999 V2000
   57.2680   29.6130   44.7200 C   0  0  0  0  0  0  0  0  0  0  0  0
   58.0190   29.2490   45.7700 C   0  0  0  0  0  0  0  0  0  0  0  0
   58.4870   27.9580   46.0670 C   0  0  0  0  0  0  0  0  0  0  0  0
   58.1800   26.7590   45.5320 C   0  0  0  0  0  0  0  0  0  0  0  0
   57.4830   25.6650   46.2270 C   0  0  0  0  0  0  0  0  0  0  0  0
   58.0660   24.5120   46.6070 N   0  0  0  0  0  0  0  0  0  0  0  0
   57.0320   23.7730   47.0610 C   0  0  0  0  0  0  0  0  0  0  0  0
   57.1790   22.6130   47.5260 O   0  0  0  0  0  0  0  0  0  0  0  0
   55.8250   24.3710   46.9680 N   0  0  0  0  0  0  0  0  0  0  0  0
   56.1240   25.5620   46.4250 C   0  0  0  0  0  0  0  0  0  0  0  0
   55.1690   26.5290   46.1200 O   0  0  0  0  0  0  0  0  0  0  0  0
   59.3750   28.0990   47.1180 C   0  0  0  0  0  0  0  0  0  0  0  0
   59.3820   29.4330   47.4590 C   0  0  0  0  0  0  0  0  0  0  0  0
   60.1790   29.9920   48.5600 C   0  0  0  0  0  0  0  0  0  0  0  0
   59.9180   29.6670   49.7490 O   0  0  0  0  0  0  0  0  0  0  0  0
   61.2820   30.8550   48.2890 N   0  0  0  0  0  0  0  0  0  0  0  0
   62.2420   31.6610   49.0640 C   0  0  0  0  0  0  0  0  0  0  0  0
   63.0600   32.1020   47.8960 C   0  0  0  0  0  0  0  0  0  0  0  0
   62.0830   31.2770   47.1240 C   0  0  0  0  0  0  0  0  0  0  0  0
   58.5540   30.1370   46.6520 N   0  0  0  0  0  0  0  0  0  0  0  0
   58.2010   31.5580   46.8060 C   0  0  0  0  0  0  0  0  0  0  0  0
   59.1480   32.4320   45.9640 C   0  0  0  0  0  0  0  0  0  0  0  0
   58.4480   33.4570   45.0230 C   0  0  0  0  0  0  0  0  0  0  0  0
   58.2140   32.8540   43.6210 C   0  0  0  0  0  0  0  0  0  0  0  0
   57.0780   33.8130   45.6360 C   0  0  0  0  0  0  0  0  0  0  0  0
   59.2770   34.7540   44.8950 C   0  0  0  0  0  0  0  0  0  0  0  0
   56.9644   30.6633   44.5987 H   0  0  0  0  0  0  0  0  0  0  0  0
   56.9557   28.8612   43.9802 H   0  0  0  0  0  0  0  0  0  0  0  0
   58.4757   26.5837   44.4871 H   0  0  0  0  0  0  0  0  0  0  0  0
   54.3890   26.7110   46.7390 H   0  0  0  0  0  0  0  0  0  0  0  0
   59.9631   27.2987   47.5909 H   0  0  0  0  0  0  0  0  0  0  0  0
   61.7642   32.5013   49.5889 H   0  0  0  0  0  0  0  0  0  0  0  0
   62.7726   31.1553   49.8842 H   0  0  0  0  0  0  0  0  0  0  0  0
   63.0418   33.1813   47.6841 H   0  0  0  0  0  0  0  0  0  0  0  0
   64.1515   31.9826   47.8305 H   0  0  0  0  0  0  0  0  0  0  0  0
   61.5028   31.8704   46.4020 H   0  0  0  0  0  0  0  0  0  0  0  0
   62.4933   30.4827   46.4832 H   0  0  0  0  0  0  0  0  0  0  0  0
   57.1656   31.7144   46.4691 H   0  0  0  0  0  0  0  0  0  0  0  0
   58.2964   31.8402   47.8649 H   0  0  0  0  0  0  0  0  0  0  0  0
   59.7967   32.9919   46.6537 H   0  0  0  0  0  0  0  0  0  0  0  0
   59.6957   31.7407   45.3067 H   0  0  0  0  0  0  0  0  0  0  0  0
   57.8177   31.8329   43.7225 H   0  0  0  0  0  0  0  0  0  0  0  0
   57.4915   33.4747   43.0708 H   0  0  0  0  0  0  0  0  0  0  0  0
   59.1661   32.8248   43.0708 H   0  0  0  0  0  0  0  0  0  0  0  0
   57.1512   33.7940   46.7334 H   0  0  0  0  0  0  0  0  0  0  0  0
   56.7788   34.8187   45.3059 H   0  0  0  0  0  0  0  0  0  0  0  0
   56.3270   33.0802   45.3059 H   0  0  0  0  0  0  0  0  0  0  0  0
   59.5201   35.1343   45.8981 H   0  0  0  0  0  0  0  0  0  0  0  0
   60.2074   34.5420   44.3479 H   0  0  0  0  0  0  0  0  0  0  0  0
   58.6939   35.5094   44.3479 H   0  0  0  0  0  0  0  0  0  0  0  0
  1  2  2  0
  2  3  1  0
  3  4  2  3
  4  5  1  0
  5  6  1  0
  6  7  1  0
  7  8  2  0
  7  9  1  0
  9 10  1  0
 10 11  1  0
  3 12  1  0
 12 13  2  0
 13 14  1  0
 14 15  2  0
 14 16  1  0
 16 17  1  0
 17 18  1  0
 18 19  1  0
 13 20  1  0
 20 21  1  0
 21 22  1  0
 22 23  1  0
 23 24  1  0
 23 25  1  0
 23 26  1  0
 20  2  1  0
 10  5  2  0
 19 16  1  0
  1 27  1  0
  1 28  1  0
  4 29  1  0
 11 30  1  0
 12 31  1  0
 17 32  1  0
 17 33  1  0
 18 34  1  0
 18 35  1  0
 19 36  1  0
 19 37  1  0
 21 38  1  0
 21 39  1  0
 22 40  1  0
 22 41  1  0
 24 42  1  0
 24 43  1  0
 24 44  1  0
 25 45  1  0
 25 46  1  0
 25 47  1  0
 26 48  1  0
 26 49  1  0
 26 50  1  0
M  CHG  2   6  -1   9  -1
M  END
>  <UniqueID>  (39) 
38

>  <SMILES>  (39) 
C=c1c(=Cc2[n-]c(=O)[n-]c2O)cc(C(=O)N2CCC2)n1CCC(C)(C)C

>  <Energy>  (39) 
161.286575554735

>  <Genealogy>  (39) 
C=c1c(=Cc2[n-]c(=O)[n-]c2O)cc(C(=O)N2CCC2)n1CCC(C)(C)C (protonated)
C=c1c(=Cc2[n-]c(=O)[n-]c2O)cc(C(=O)N2CCC2)n1CCC(C)(C)C (3D coordinates assigned)
C=c1c(=Cc2[n-]c(=O)[n-]c2O)cc(C(=O)N2CCC2)n1CCC(C)(C)C (nonaromatic ring conformer: 161.286575554735 kcal/mol)

>  <smiles>  (39) 
C=c1c(=Cc2[nH]c(=O)[nH]c2O)cc(C(=O)N2CCC2)n1CCC(C)(C)C

>  <score_type>  (39) 
oracle

>  <origin>  (39) 
adg

>  <m_score__min__energy>  (39) 
-12.619999999999999

>  <m_primary>  (39) 
energy

$$$$
39:0
     RDKit          3D

 66 69  0  0  0  0  0  0  0  0999 V2000
   51.6120   22.8770   45.9450 C   0  0  0  0  0  0  0  0  0  0  0  0
   52.8620   22.4540   45.4100 O   0  0  0  0  0  0  0  0  0  0  0  0
   53.9880   23.2810   45.2750 C   0  0  0  0  0  0  0  0  0  0  0  0
   54.0020   24.6130   45.7200 C   0  0  0  0  0  0  0  0  0  0  0  0
   55.1450   25.3990   45.5600 C   0  0  0  0  0  0  0  0  0  0  0  0
   55.1240   26.7190   46.0000 O   0  0  0  0  0  0  0  0  0  0  0  0
   56.3000   24.8650   44.9570 C   0  0  0  0  0  0  0  0  0  0  0  0
   57.5110   25.7440   44.7630 C   0  0  0  0  0  0  0  0  0  0  0  0
   58.4980   25.4390   45.7910 N   0  0  0  0  0  0  0  0  0  0  0  0
   58.5580   26.0930   47.0620 C   0  0  0  0  0  0  0  0  0  0  0  0
   57.7510   25.7510   47.9660 O   0  0  0  0  0  0  0  0  0  0  0  0
   59.4940   27.1550   47.3110 N   0  0  0  0  0  0  0  0  0  0  0  0
   60.7710   26.8090   47.9510 C   0  0  0  0  0  0  0  0  0  0  0  0
   60.7960   27.3260   49.3540 C   0  0  0  0  0  0  0  0  0  0  0  0
   60.6610   28.6560   49.7320 C   0  0  0  0  0  0  0  0  0  0  0  0
   60.8180   28.8560   51.1070 C   0  0  0  0  0  0  0  0  0  0  0  0
   61.0890   27.6890   51.8130 C   0  0  0  0  0  0  0  0  0  0  0  0
   61.1420   26.4110   50.7210 S   0  0  0  0  0  0  0  0  0  0  0  0
   59.2790   28.4620   46.6620 C   0  0  0  0  0  0  0  0  0  0  0  0
   57.7860   28.8820   46.7160 C   0  0  0  0  0  0  0  0  0  0  0  0
   57.1170   28.8960   45.3310 C   0  0  0  0  0  0  0  0  0  0  0  0
   57.8660   29.7010   44.3350 N   0  0  0  0  0  0  0  0  0  0  0  0
   57.2720   31.0190   44.0170 C   0  0  0  0  0  0  0  0  0  0  0  0
   57.8570   32.1630   44.8210 C   0  0  0  0  0  0  0  0  0  0  0  0
   57.8720   32.1140   46.2270 C   0  0  0  0  0  0  0  0  0  0  0  0
   58.4090   33.1720   46.9670 C   0  0  0  0  0  0  0  0  0  0  0  0
   58.9540   34.2800   46.3120 C   0  0  0  0  0  0  0  0  0  0  0  0
   58.9710   34.3270   44.9160 C   0  0  0  0  0  0  0  0  0  0  0  0
   58.4330   33.2710   44.1720 C   0  0  0  0  0  0  0  0  0  0  0  0
   59.3390   29.7270   44.4970 C   0  0  0  0  0  0  0  0  0  0  0  0
   59.8510   28.4860   45.2300 C   0  0  0  0  0  0  0  0  0  0  0  0
   56.2910   23.5290   44.5000 C   0  0  0  0  0  0  0  0  0  0  0  0
   57.4430   23.0040   43.8850 O   0  0  0  0  0  0  0  0  0  0  0  0
   57.7570   21.6170   43.8110 C   0  0  0  0  0  0  0  0  0  0  0  0
   55.1300   22.7490   44.6700 C   0  0  0  0  0  0  0  0  0  0  0  0
   51.6592   22.8610   47.0439 H   0  0  0  0  0  0  0  0  0  0  0  0
   51.3935   23.8991   45.6022 H   0  0  0  0  0  0  0  0  0  0  0  0
   50.8177   22.1976   45.6022 H   0  0  0  0  0  0  0  0  0  0  0  0
   53.1074   25.0395   46.1973 H   0  0  0  0  0  0  0  0  0  0  0  0
   57.9453   25.5570   43.7698 H   0  0  0  0  0  0  0  0  0  0  0  0
   57.2149   26.8007   44.8388 H   0  0  0  0  0  0  0  0  0  0  0  0
   60.8877   25.7153   47.9636 H   0  0  0  0  0  0  0  0  0  0  0  0
   61.5951   27.2654   47.3830 H   0  0  0  0  0  0  0  0  0  0  0  0
   60.4518   29.4694   49.0216 H   0  0  0  0  0  0  0  0  0  0  0  0
   60.7350   29.8432   51.5850 H   0  0  0  0  0  0  0  0  0  0  0  0
   61.2424   27.6145   52.8997 H   0  0  0  0  0  0  0  0  0  0  0  0
   59.8395   29.2169   47.2330 H   0  0  0  0  0  0  0  0  0  0  0  0
   57.2451   28.1728   47.3598 H   0  0  0  0  0  0  0  0  0  0  0  0
   57.7460   29.9075   47.1120 H   0  0  0  0  0  0  0  0  0  0  0  0
   57.0473   27.8611   44.9647 H   0  0  0  0  0  0  0  0  0  0  0  0
   56.1252   29.3569   45.4487 H   0  0  0  0  0  0  0  0  0  0  0  0
   57.4371   31.2254   42.9492 H   0  0  0  0  0  0  0  0  0  0  0  0
   56.2040   30.9598   44.2739 H   0  0  0  0  0  0  0  0  0  0  0  0
   57.4586   31.2376   46.7476 H   0  0  0  0  0  0  0  0  0  0  0  0
   58.4025   33.1322   48.0663 H   0  0  0  0  0  0  0  0  0  0  0  0
   59.3694   35.1147   46.8957 H   0  0  0  0  0  0  0  0  0  0  0  0
   59.4079   35.1952   44.4009 H   0  0  0  0  0  0  0  0  0  0  0  0
   58.4605   33.3071   43.0729 H   0  0  0  0  0  0  0  0  0  0  0  0
   59.8061   29.7711   43.5021 H   0  0  0  0  0  0  0  0  0  0  0  0
   59.6019   30.6112   45.0962 H   0  0  0  0  0  0  0  0  0  0  0  0
   59.5285   27.5828   44.6912 H   0  0  0  0  0  0  0  0  0  0  0  0
   60.9497   28.5138   45.2746 H   0  0  0  0  0  0  0  0  0  0  0  0
   57.8497   21.2073   44.8276 H   0  0  0  0  0  0  0  0  0  0  0  0
   56.9559   21.0878   43.2741 H   0  0  0  0  0  0  0  0  0  0  0  0
   58.7079   21.4845   43.2741 H   0  0  0  0  0  0  0  0  0  0  0  0
   55.1223   21.7058   44.3213 H   0  0  0  0  0  0  0  0  0  0  0  0
  1  2  1  0
  2  3  1  0
  3  4  2  0
  4  5  1  0
  5  6  1  0
  5  7  2  0
  7  8  1  0
  8  9  1  0
  9 10  1  0
 10 11  2  0
 10 12  1  0
 12 13  1  0
 13 14  1  0
 14 15  2  0
 15 16  1  0
 16 17  2  0
 17 18  1  0
 12 19  1  0
 19 20  1  0
 20 21  1  0
 21 22  1  0
 22 23  1  0
 23 24  1  0
 24 25  2  0
 25 26  1  0
 26 27  2  0
 27 28  1  0
 28 29  2  0
 22 30  1  0
 30 31  1  0
  7 32  1  0
 32 33  1  0
 33 34  1  0
 32 35  2  0
 35  3  1  0
 18 14  1  0
 31 19  1  0
 29 24  1  0
  1 36  1  0
  1 37  1  0
  1 38  1  0
  4 39  1  0
  8 40  1  0
  8 41  1  0
 13 42  1  0
 13 43  1  0
 15 44  1  0
 16 45  1  0
 17 46  1  0
 19 47  1  0
 20 48  1  0
 20 49  1  0
 21 50  1  0
 21 51  1  0
 23 52  1  0
 23 53  1  0
 25 54  1  0
 26 55  1  0
 27 56  1  0
 28 57  1  0
 29 58  1  0
 30 59  1  0
 30 60  1  0
 31 61  1  0
 31 62  1  0
 34 63  1  0
 34 64  1  0
 34 65  1  0
 35 66  1  0
M  CHG  2   6  -1   9  -1
M  END
>  <UniqueID>  (40) 
39

>  <SMILES>  (40) 
COc1cc([O-])c(C[N-]C(=O)N(Cc2cccs2)C2CCN(Cc3ccccc3)CC2)c(OC)c1

>  <Energy>  (40) 
104.15314548744708

>  <Genealogy>  (40) 
COc1cc([O-])c(C[N-]C(=O)N(Cc2cccs2)C2CCN(Cc3ccccc3)CC2)c(OC)c1 (protonated)
COc1cc([O-])c(C[N-]C(=O)N(Cc2cccs2)C2CCN(Cc3ccccc3)CC2)c(OC)c1 (3D coordinates assigned)
COc1cc([O-])c(C[N-]C(=O)N(Cc2cccs2)C2CCN(Cc3ccccc3)CC2)c(OC)c1 (nonaromatic ring conformer: 104.15314548744708 kcal/mol)

>  <smiles>  (40) 
COc1cc(O)c(CNC(=O)N(Cc2cccs2)C2CCN(Cc3ccccc3)CC2)c(OC)c1

>  <score_type>  (40) 
oracle

>  <origin>  (40) 
adg

>  <m_score__min__energy>  (40) 
-13.279999999999999

>  <m_primary>  (40) 
energy

$$$$
40:0
     RDKit          3D

 53 56  0  0  0  0  0  0  0  0999 V2000
   60.4450   26.8750   46.1620 C   0  0  0  0  0  0  0  0  0  0  0  0
   59.6560   27.8300   45.6650 C   0  0  0  0  0  0  0  0  0  0  0  0
   60.0570   28.6420   44.7140 O   0  0  0  0  0  0  0  0  0  0  0  0
   59.0860   29.4750   44.4230 C   0  0  0  0  0  0  0  0  0  0  0  0
   57.9830   29.2070   45.2090 C   0  0  0  0  0  0  0  0  0  0  0  0
   56.6730   29.8490   45.0070 C   0  0  0  0  0  0  0  0  0  0  0  0
   55.6100   29.1900   45.1650 O   0  0  0  0  0  0  0  0  0  0  0  0
   56.6260   31.2280   44.6210 N   0  0  0  0  0  0  0  0  0  0  0  0
   57.3830   32.3110   45.1810 C   0  0  0  0  0  0  0  0  0  0  0  0
   57.5880   33.4540   44.4010 C   0  0  0  0  0  0  0  0  0  0  0  0
   58.2900   34.5450   44.9160 C   0  0  0  0  0  0  0  0  0  0  0  0
   58.7760   34.5100   46.2230 C   0  0  0  0  0  0  0  0  0  0  0  0
   58.5650   33.3870   47.0290 C   0  0  0  0  0  0  0  0  0  0  0  0
   59.0580   33.4150   48.3420 O   0  0  0  0  0  0  0  0  0  0  0  0
   59.2960   32.2600   49.1440 C   0  0  0  0  0  0  0  0  0  0  0  0
   60.5400   31.5120   48.6300 C   0  0  0  0  0  0  0  0  0  0  0  0
   61.7460   32.3540   48.4640 N   0  0  0  0  0  0  0  0  0  0  0  0
   62.9840   31.7510   48.9850 C   0  0  0  0  0  0  0  0  0  0  0  0
   64.1210   32.7980   48.9650 C   0  0  0  0  0  0  0  0  0  0  0  0
   63.8140   33.9320   48.1700 O   0  0  0  0  0  0  0  0  0  0  0  0
   63.3000   33.5220   46.9170 C   0  0  0  0  0  0  0  0  0  0  0  0
   61.9200   32.8610   47.0870 C   0  0  0  0  0  0  0  0  0  0  0  0
   57.8640   32.2840   46.5040 C   0  0  0  0  0  0  0  0  0  0  0  0
   58.3490   28.1460   46.0460 C   0  0  0  0  0  0  0  0  0  0  0  0
   57.6480   27.5560   47.0390 C   0  0  0  0  0  0  0  0  0  0  0  0
   57.1110   26.1870   46.9990 C   0  0  0  0  0  0  0  0  0  0  0  0
   57.6710   25.1570   47.6590 N   0  0  0  0  0  0  0  0  0  0  0  0
   56.8280   24.1310   47.4120 C   0  0  0  0  0  0  0  0  0  0  0  0
   57.0240   22.9700   47.8570 O   0  0  0  0  0  0  0  0  0  0  0  0
   55.7520   24.4490   46.6600 N   0  0  0  0  0  0  0  0  0  0  0  0
   55.9330   25.7580   46.4190 C   0  0  0  0  0  0  0  0  0  0  0  0
   55.0180   26.5370   45.7140 O   0  0  0  0  0  0  0  0  0  0  0  0
   60.0733   26.2138   46.9587 H   0  0  0  0  0  0  0  0  0  0  0  0
   61.4669   26.7492   45.7749 H   0  0  0  0  0  0  0  0  0  0  0  0
   59.1424   30.2698   43.6646 H   0  0  0  0  0  0  0  0  0  0  0  0
   57.1934   33.4933   43.3750 H   0  0  0  0  0  0  0  0  0  0  0  0
   58.4602   35.4336   44.2903 H   0  0  0  0  0  0  0  0  0  0  0  0
   59.3295   35.3725   46.6227 H   0  0  0  0  0  0  0  0  0  0  0  0
   59.4607   32.5679   50.1871 H   0  0  0  0  0  0  0  0  0  0  0  0
   58.4231   31.5931   49.0865 H   0  0  0  0  0  0  0  0  0  0  0  0
   60.7777   30.7111   49.3456 H   0  0  0  0  0  0  0  0  0  0  0  0
   60.2839   31.1370   47.6281 H   0  0  0  0  0  0  0  0  0  0  0  0
   62.8185   31.4104   50.0178 H   0  0  0  0  0  0  0  0  0  0  0  0
   63.2658   30.8946   48.3547 H   0  0  0  0  0  0  0  0  0  0  0  0
   64.3081   33.1326   49.9961 H   0  0  0  0  0  0  0  0  0  0  0  0
   65.0058   32.3157   48.5239 H   0  0  0  0  0  0  0  0  0  0  0  0
   63.2019   34.4001   46.2617 H   0  0  0  0  0  0  0  0  0  0  0  0
   63.9910   32.7906   46.4726 H   0  0  0  0  0  0  0  0  0  0  0  0
   61.1363   33.6030   46.8744 H   0  0  0  0  0  0  0  0  0  0  0  0
   61.8464   32.0147   46.3882 H   0  0  0  0  0  0  0  0  0  0  0  0
   57.6914   31.3967   47.1309 H   0  0  0  0  0  0  0  0  0  0  0  0
   57.4643   28.1458   47.9491 H   0  0  0  0  0  0  0  0  0  0  0  0
   55.1480   27.5340   45.5970 H   0  0  0  0  0  0  0  0  0  0  0  0
  1  2  2  0
  2  3  1  0
  3  4  1  0
  4  5  2  0
  5  6  1  0
  6  7  2  0
  6  8  1  0
  8  9  1  0
  9 10  2  0
 10 11  1  0
 11 12  2  0
 12 13  1  0
 13 14  1  0
 14 15  1  0
 15 16  1  0
 16 17  1  0
 17 18  1  0
 18 19  1  0
 19 20  1  0
 20 21  1  0
 21 22  1  0
 13 23  2  0
  5 24  1  0
 24 25  2  3
 25 26  1  0
 26 27  1  0
 27 28  1  0
 28 29  2  0
 28 30  1  0
 30 31  1  0
 31 32  1  0
 24  2  1  0
 31 26  2  0
 23  9  1  0
 22 17  1  0
  1 33  1  0
  1 34  1  0
  4 35  1  0
 10 36  1  0
 11 37  1  0
 12 38  1  0
 15 39  1  0
 15 40  1  0
 16 41  1  0
 16 42  1  0
 18 43  1  0
 18 44  1  0
 19 45  1  0
 19 46  1  0
 21 47  1  0
 21 48  1  0
 22 49  1  0
 22 50  1  0
 23 51  1  0
 25 52  1  0
 32 53  1  0
M  CHG  3   8  -1  27  -1  30  -1
M  END
>  <UniqueID>  (41) 
40

>  <SMILES>  (41) 
C=c1occ(C(=O)[N-]c2cccc(OCCN3CCOCC3)c2)c1=Cc1[n-]c(=O)[n-]c1O

>  <Energy>  (41) 
141.5722629566129

>  <Genealogy>  (41) 
C=c1occ(C(=O)[N-]c2cccc(OCCN3CCOCC3)c2)c1=Cc1[n-]c(=O)[n-]c1O (protonated)
C=c1occ(C(=O)[N-]c2cccc(OCCN3CCOCC3)c2)c1=Cc1[n-]c(=O)[n-]c1O (3D coordinates assigned)
C=c1occ(C(=O)[N-]c2cccc(OCCN3CCOCC3)c2)c1=Cc1[n-]c(=O)[n-]c1O (nonaromatic ring conformer: 141.5722629566129 kcal/mol)

>  <smiles>  (41) 
C=c1occ(C(=O)Nc2cccc(OCCN3CCOCC3)c2)c1=Cc1[nH]c(=O)[nH]c1O

>  <score_type>  (41) 
oracle

>  <origin>  (41) 
adg

>  <m_score__min__energy>  (41) 
-15.529999999999999

>  <m_primary>  (41) 
energy

$$$$
41:0
     RDKit          3D

 51 54  0  0  0  0  0  0  0  0999 V2000
   61.7060   32.9150   49.5400 C   0  0  0  0  0  0  0  0  0  0  0  0
   61.5100   33.8900   48.3720 C   0  0  0  0  0  0  0  0  0  0  0  0
   60.1340   34.5850   48.4770 C   0  0  0  0  0  0  0  0  0  0  0  0
   59.6780   35.1120   47.1090 C   0  0  0  0  0  0  0  0  0  0  0  0
   59.5570   34.0430   46.0860 N   0  0  0  0  0  0  0  0  0  0  0  0
   57.8850   33.6040   45.8280 S   0  0  0  0  0  0  0  0  0  0  0  0
   57.1100   33.7650   47.1060 O   0  0  0  0  0  0  0  0  0  0  0  0
   57.2910   34.4970   44.7740 O   0  0  0  0  0  0  0  0  0  0  0  0
   57.7850   31.9220   45.3180 C   0  0  0  0  0  0  0  0  0  0  0  0
   57.4290   31.5970   44.0020 C   0  0  0  0  0  0  0  0  0  0  0  0
   57.3530   30.2600   43.6030 C   0  0  0  0  0  0  0  0  0  0  0  0
   57.6170   29.2280   44.5220 C   0  0  0  0  0  0  0  0  0  0  0  0
   57.5700   27.8440   44.1300 N   0  0  0  0  0  0  0  0  0  0  0  0
   58.3510   26.8110   44.7530 C   0  0  0  0  0  0  0  0  0  0  0  0
   59.3630   27.1110   45.4420 O   0  0  0  0  0  0  0  0  0  0  0  0
   58.0110   25.3880   44.5620 C   0  0  0  0  0  0  0  0  0  0  0  0
   57.2860   24.8580   43.4920 C   0  0  0  0  0  0  0  0  0  0  0  0
   57.2070   23.5060   43.7520 C   0  0  0  0  0  0  0  0  0  0  0  0
   56.6000   22.4790   43.0320 C   0  0  0  0  0  0  0  0  0  0  0  0
   56.6810   21.1760   43.5540 C   0  0  0  0  0  0  0  0  0  0  0  0
   57.3590   20.9330   44.7700 C   0  0  0  0  0  0  0  0  0  0  0  0
   57.9600   21.9930   45.4740 C   0  0  0  0  0  0  0  0  0  0  0  0
   57.8630   23.2730   44.9310 C   0  0  0  0  0  0  0  0  0  0  0  0
   58.3570   24.4140   45.4380 N   0  0  0  0  0  0  0  0  0  0  0  0
   57.9890   29.5600   45.8330 C   0  0  0  0  0  0  0  0  0  0  0  0
   58.0630   30.8980   46.2310 C   0  0  0  0  0  0  0  0  0  0  0  0
   60.3540   32.8290   46.3680 C   0  0  0  0  0  0  0  0  0  0  0  0
   61.7030   33.1800   47.0080 C   0  0  0  0  0  0  0  0  0  0  0  0
   61.5972   33.4561   50.4915 H   0  0  0  0  0  0  0  0  0  0  0  0
   60.9501   32.1179   49.4830 H   0  0  0  0  0  0  0  0  0  0  0  0
   62.7112   32.4719   49.4830 H   0  0  0  0  0  0  0  0  0  0  0  0
   62.2832   34.6700   48.4335 H   0  0  0  0  0  0  0  0  0  0  0  0
   59.3932   33.8619   48.8491 H   0  0  0  0  0  0  0  0  0  0  0  0
   60.2230   35.4359   49.1684 H   0  0  0  0  0  0  0  0  0  0  0  0
   58.6970   35.5951   47.2288 H   0  0  0  0  0  0  0  0  0  0  0  0
   60.4438   35.8188   46.7570 H   0  0  0  0  0  0  0  0  0  0  0  0
   57.2086   32.3975   43.2804 H   0  0  0  0  0  0  0  0  0  0  0  0
   57.0854   30.0131   42.5650 H   0  0  0  0  0  0  0  0  0  0  0  0
   57.0130   27.5980   43.2820 H   0  0  0  0  0  0  0  0  0  0  0  0
   56.8693   25.4004   42.6305 H   0  0  0  0  0  0  0  0  0  0  0  0
   56.0749   22.6809   42.0867 H   0  0  0  0  0  0  0  0  0  0  0  0
   56.2137   20.3403   43.0125 H   0  0  0  0  0  0  0  0  0  0  0  0
   57.4173   19.9094   45.1685 H   0  0  0  0  0  0  0  0  0  0  0  0
   58.4892   21.8171   46.4221 H   0  0  0  0  0  0  0  0  0  0  0  0
   58.8970   24.5230   46.3270 H   0  0  0  0  0  0  0  0  0  0  0  0
   58.2241   28.7621   46.5528 H   0  0  0  0  0  0  0  0  0  0  0  0
   58.3408   31.1472   47.2658 H   0  0  0  0  0  0  0  0  0  0  0  0
   59.7894   32.1822   47.0556 H   0  0  0  0  0  0  0  0  0  0  0  0
   60.5469   32.3131   45.4158 H   0  0  0  0  0  0  0  0  0  0  0  0
   62.2776   32.2550   47.1634 H   0  0  0  0  0  0  0  0  0  0  0  0
   62.2406   33.8627   46.3336 H   0  0  0  0  0  0  0  0  0  0  0  0
  1  2  1  0
  2  3  1  0
  3  4  1  0
  4  5  1  0
  5  6  1  0
  6  7  2  0
  6  8  2  0
  6  9  1  0
  9 10  2  0
 10 11  1  0
 11 12  2  0
 12 13  1  0
 13 14  1  0
 14 15  2  0
 14 16  1  0
 16 17  2  0
 17 18  1  0
 18 19  2  0
 19 20  1  0
 20 21  2  0
 21 22  1  0
 22 23  2  0
 23 24  1  0
 12 25  1  0
 25 26  2  0
  5 27  1  0
 27 28  1  0
 28  2  1  0
 26  9  1  0
 24 16  1  0
 23 18  1  0
  1 29  1  0
  1 30  1  0
  1 31  1  0
  2 32  1  0
  3 33  1  0
  3 34  1  0
  4 35  1  0
  4 36  1  0
 10 37  1  0
 11 38  1  0
 13 39  1  0
 17 40  1  0
 19 41  1  0
 20 42  1  0
 21 43  1  0
 22 44  1  0
 24 45  1  0
 25 46  1  0
 26 47  1  0
 27 48  1  0
 27 49  1  0
 28 50  1  0
 28 51  1  0
M  END
>  <UniqueID>  (42) 
41

>  <SMILES>  (42) 
CC1CCN(S(=O)(=O)c2ccc(NC(=O)c3cc4ccccc4[nH]3)cc2)CC1

>  <Energy>  (42) 
94.22810997948616

>  <Genealogy>  (42) 
CC1CCN(S(=O)(=O)c2ccc(NC(=O)c3cc4ccccc4[nH]3)cc2)CC1 (3D coordinates assigned)
CC1CCN(S(=O)(=O)c2ccc(NC(=O)c3cc4ccccc4[nH]3)cc2)CC1 (nonaromatic ring conformer: 94.22810997948616 kcal/mol)

>  <smiles>  (42) 
CC1CCN(S(=O)(=O)c2ccc(NC(=O)c3cc4ccccc4[nH]3)cc2)CC1

>  <score_type>  (42) 
oracle

>  <origin>  (42) 
adg

>  <m_score__min__energy>  (42) 
-9.5600000000000005

>  <m_primary>  (42) 
energy

$$$$
42:0
     RDKit          3D

 46 49  0  0  1  0  0  0  0  0999 V2000
   59.8900   25.2340   46.0000 C   0  0  0  0  0  0  0  0  0  0  0  0
   57.0500   31.1600   42.4630 C   0  0  0  0  0  0  0  0  0  0  0  0
   58.1250   31.2470   43.2660 N   0  0  0  0  0  0  0  0  0  0  0  0
   58.2220   30.6140   44.4510 C   0  0  0  0  0  0  0  0  0  0  0  0
   57.1320   29.0840   46.1050 C   0  0  0  0  0  0  0  0  0  0  0  0
   57.1950   29.8410   44.8810 C   0  0  0  0  0  0  0  0  0  0  0  0
   56.0800   29.7560   44.0400 C   0  0  0  0  0  0  0  0  0  0  0  0
   54.9660   28.9910   44.3820 O   0  0  0  0  0  0  0  0  0  0  0  0
   56.0210   30.4020   42.8640 N   0  0  0  0  0  0  0  0  0  0  0  0
   58.8400   26.0190   46.0050 C   0  0  0  0  0  0  0  0  0  0  0  0
   57.0260   31.7850   41.3570 O   0  0  0  0  0  0  0  0  0  0  0  0
   58.8470   27.3780   46.0780 N   0  0  0  0  0  0  0  0  0  0  0  0
   57.5770   27.8110   46.0570 C   0  0  0  0  0  0  0  0  0  0  0  0
   59.2520   30.7690   45.1440 N   0  0  0  0  0  0  0  0  0  0  0  0
   59.5540   31.8290   46.0130 C   0  0  0  0  0  0  0  0  0  0  0  0
   58.8200   33.0150   45.8200 C   0  0  0  0  0  0  0  0  0  0  0  0
   59.0830   34.1220   46.6120 C   0  0  0  0  0  0  0  0  0  0  0  0
   60.0510   34.0990   47.5930 C   0  0  0  0  0  0  0  0  0  0  0  0
   60.7680   32.9270   47.7760 C   0  0  0  0  0  0  0  0  0  0  0  0
   60.5150   31.8190   46.9950 C   0  0  0  0  0  0  0  0  0  0  0  0
   61.2190   30.6700   47.1740 F   0  0  0  0  0  0  0  0  0  0  0  0
   56.7740   26.6730   45.9680 C   0  0  0  0  0  0  0  0  0  0  0  0
   55.5080   26.6740   45.9230 O   0  0  0  0  0  0  0  0  0  0  0  0
   57.5720   25.5710   45.9360 N   0  0  0  0  0  0  0  0  0  0  0  0
   57.0560   24.2670   45.8480 C   0  0  0  0  0  0  0  0  0  0  0  0
   56.4580   23.7200   46.9730 C   0  0  0  0  0  0  0  0  0  0  0  0
   55.9280   22.4440   46.9610 C   0  0  0  0  0  0  0  0  0  0  0  0
   56.0090   21.7240   45.7950 C   0  0  0  0  0  0  0  0  0  0  0  0
   56.6100   22.2720   44.6630 C   0  0  0  0  0  0  0  0  0  0  0  0
   57.1360   23.5430   44.6780 C   0  0  0  0  0  0  0  0  0  0  0  0
   59.7611   24.1434   45.9371 H   0  0  0  0  0  0  0  0  0  0  0  0
   60.8999   25.6660   46.0587 H   0  0  0  0  0  0  0  0  0  0  0  0
   58.9160   31.8370   42.9450 H   0  0  0  0  0  0  0  0  0  0  0  0
   56.7399   29.5227   47.0344 H   0  0  0  0  0  0  0  0  0  0  0  0
   55.1510   28.1180   44.8960 H   0  0  0  0  0  0  0  0  0  0  0  0
   55.2000   30.3440   42.2390 H   0  0  0  0  0  0  0  0  0  0  0  0
   59.7140   27.9350   46.1430 H   0  0  0  0  0  0  0  0  0  0  0  0
   58.0415   33.0629   45.0444 H   0  0  0  0  0  0  0  0  0  0  0  0
   58.5036   35.0435   46.4533 H   0  0  0  0  0  0  0  0  0  0  0  0
   60.2489   34.9857   48.2131 H   0  0  0  0  0  0  0  0  0  0  0  0
   61.5464   32.8803   48.5518 H   0  0  0  0  0  0  0  0  0  0  0  0
   56.4043   24.3155   47.8963 H   0  0  0  0  0  0  0  0  0  0  0  0
   55.4556   22.0181   47.8584 H   0  0  0  0  0  0  0  0  0  0  0  0
   55.5959   20.7054   45.7536 H   0  0  0  0  0  0  0  0  0  0  0  0
   56.6647   21.6765   43.7397 H   0  0  0  0  0  0  0  0  0  0  0  0
   57.6076   23.9699   43.7806 H   0  0  0  0  0  0  0  0  0  0  0  0
  1  2  2  0
  2  3  1  0
  3  4  1  0
  4  5  2  0
  5  6  1  0
  6  7  2  0
  7  8  1  0
  7  9  1  0
  9 10  1  0
 10 11  2  0
 10 12  1  0
 12 13  1  0
 13 14  2  0
 14 15  1  0
 15 16  2  0
 16 17  1  0
 17 18  2  0
 18 19  1  0
 19 20  2  0
 20 21  1  0
  4 22  1  0
 22 23  2  0
 22 24  1  0
 24 25  1  0
 25 26  2  0
 26 27  1  0
 27 28  2  0
 28 29  1  0
 29 30  2  0
 24  2  1  0
 30 25  1  0
 13  6  1  0
 20 15  1  0
  1 31  1  0
  1 32  1  0
  3 33  1  0
  5 34  1  0
  8 35  1  0
  9 36  1  0
 12 37  1  0
 16 38  1  0
 17 39  1  0
 18 40  1  0
 19 41  1  0
 26 42  1  0
 27 43  1  0
 28 44  1  0
 29 45  1  0
 30 46  1  0
M  END
>  <smiles>  (43) 
C=c1[nH]c(=Cc2c(O)[nH]c(=O)[nH]c2=Nc2ccccc2F)c(=O)n1-c1ccccc1

>  <score_type>  (43) 
oracle

>  <origin>  (43) 
adg

>  <m_score__min__energy>  (43) 
-8.6600000000000001

>  <m_primary>  (43) 
energy

$$$$
43:0
     RDKit          3D

 52 55  0  0  0  0  0  0  0  0999 V2000
   57.0210   25.3800   44.3210 N   0  0  0  0  0  0  0  0  0  0  0  0
   56.6360   26.4430   45.6310 S   0  0  0  0  0  0  0  0  0  0  0  0
   57.4320   26.0560   46.8450 O   0  0  0  0  0  0  0  0  0  0  0  0
   55.1730   26.3320   45.9580 O   0  0  0  0  0  0  0  0  0  0  0  0
   57.0240   28.0980   45.1710 C   0  0  0  0  0  0  0  0  0  0  0  0
   58.3560   28.5060   45.0610 C   0  0  0  0  0  0  0  0  0  0  0  0
   58.6560   29.8130   44.6780 C   0  0  0  0  0  0  0  0  0  0  0  0
   57.6090   30.7110   44.3890 C   0  0  0  0  0  0  0  0  0  0  0  0
   57.8230   31.9470   44.0350 N   0  0  0  0  0  0  0  0  0  0  0  0
   57.8480   33.0950   44.8940 C   0  0  0  0  0  0  0  0  0  0  0  0
   57.2270   34.1320   44.5370 O   0  0  0  0  0  0  0  0  0  0  0  0
   58.6400   33.1130   46.1010 N   0  0  0  0  0  0  0  0  0  0  0  0
   59.8080   32.2330   46.2560 C   0  0  0  0  0  0  0  0  0  0  0  0
   60.9720   33.0020   46.8830 C   0  0  0  0  0  0  0  0  0  0  0  0
   60.4980   33.7450   48.0550 N   0  0  0  0  0  0  0  0  0  0  0  0
   61.1540   33.6200   49.3300 C   0  0  0  0  0  0  0  0  0  0  0  0
   60.4020   33.5100   50.5070 C   0  0  0  0  0  0  0  0  0  0  0  0
   61.0570   33.4110   51.7330 C   0  0  0  0  0  0  0  0  0  0  0  0
   62.4150   33.4200   51.7840 N   0  0  0  0  0  0  0  0  0  0  0  0
   63.1840   33.5220   50.6640 C   0  0  0  0  0  0  0  0  0  0  0  0
   64.6640   33.5270   50.7980 C   0  0  0  0  0  0  0  0  0  0  0  0
   65.3160   34.4080   51.6860 C   0  0  0  0  0  0  0  0  0  0  0  0
   66.7110   34.4080   51.7860 C   0  0  0  0  0  0  0  0  0  0  0  0
   67.4700   33.5350   51.0040 C   0  0  0  0  0  0  0  0  0  0  0  0
   66.8370   32.6650   50.1150 C   0  0  0  0  0  0  0  0  0  0  0  0
   65.4430   32.6620   50.0070 C   0  0  0  0  0  0  0  0  0  0  0  0
   62.5540   33.6330   49.4120 C   0  0  0  0  0  0  0  0  0  0  0  0
   59.3580   34.6490   47.8760 C   0  0  0  0  0  0  0  0  0  0  0  0
   58.1870   33.8770   47.2720 C   0  0  0  0  0  0  0  0  0  0  0  0
   56.3240   30.2870   44.5180 N   0  0  0  0  0  0  0  0  0  0  0  0
   56.0100   29.0180   44.8910 C   0  0  0  0  0  0  0  0  0  0  0  0
   56.2590   24.6650   44.2740 H   0  0  0  0  0  0  0  0  0  0  0  0
   56.9570   25.9450   43.4440 H   0  0  0  0  0  0  0  0  0  0  0  0
   59.1681   27.7961   45.2766 H   0  0  0  0  0  0  0  0  0  0  0  0
   59.7032   30.1409   44.6020 H   0  0  0  0  0  0  0  0  0  0  0  0
   59.5408   31.3862   46.9052 H   0  0  0  0  0  0  0  0  0  0  0  0
   60.1138   31.8661   45.2651 H   0  0  0  0  0  0  0  0  0  0  0  0
   61.7549   32.2934   47.1911 H   0  0  0  0  0  0  0  0  0  0  0  0
   61.3825   33.7074   46.1455 H   0  0  0  0  0  0  0  0  0  0  0  0
   59.3029   33.5018   50.4637 H   0  0  0  0  0  0  0  0  0  0  0  0
   60.4735   33.3254   52.6616 H   0  0  0  0  0  0  0  0  0  0  0  0
   64.7237   35.0992   52.3036 H   0  0  0  0  0  0  0  0  0  0  0  0
   67.2113   35.0972   52.4822 H   0  0  0  0  0  0  0  0  0  0  0  0
   68.5667   33.5330   51.0886 H   0  0  0  0  0  0  0  0  0  0  0  0
   67.4364   31.9798   49.4976 H   0  0  0  0  0  0  0  0  0  0  0  0
   64.9516   31.9787   49.2987 H   0  0  0  0  0  0  0  0  0  0  0  0
   63.1583   33.7299   48.4980 H   0  0  0  0  0  0  0  0  0  0  0  0
   59.0609   35.0622   48.8512 H   0  0  0  0  0  0  0  0  0  0  0  0
   59.6431   35.4700   47.2017 H   0  0  0  0  0  0  0  0  0  0  0  0
   57.7805   33.1846   48.0239 H   0  0  0  0  0  0  0  0  0  0  0  0
   57.4078   34.5881   46.9602 H   0  0  0  0  0  0  0  0  0  0  0  0
   54.9558   28.7148   44.9726 H   0  0  0  0  0  0  0  0  0  0  0  0
  1  2  1  0
  2  3  2  0
  2  4  2  0
  2  5  1  0
  5  6  1  0
  6  7  2  0
  7  8  1  0
  8  9  2  3
  9 10  1  0
 10 11  2  0
 10 12  1  0
 12 13  1  0
 13 14  1  0
 14 15  1  0
 15 16  1  0
 16 17  2  0
 17 18  1  0
 18 19  2  0
 19 20  1  0
 20 21  1  0
 21 22  2  0
 22 23  1  0
 23 24  2  0
 24 25  1  0
 25 26  2  0
 20 27  2  0
 15 28  1  0
 28 29  1  0
  8 30  1  0
 30 31  1  0
 31  5  2  0
 29 12  1  0
 27 16  1  0
 26 21  1  0
  1 32  1  0
  1 33  1  0
  6 34  1  0
  7 35  1  0
 13 36  1  0
 13 37  1  0
 14 38  1  0
 14 39  1  0
 17 40  1  0
 18 41  1  0
 22 42  1  0
 23 43  1  0
 24 44  1  0
 25 45  1  0
 26 46  1  0
 27 47  1  0
 28 48  1  0
 28 49  1  0
 29 50  1  0
 29 51  1  0
 31 52  1  0
M  CHG  1  30  -1
M  END
>  <UniqueID>  (44) 
42

>  <SMILES>  (44) 
NS(=O)(=O)c1ccc(=NC(=O)N2CCN(c3ccnc(-c4ccccc4)c3)CC2)[n-]c1

>  <Energy>  (44) 
72.55276354930822

>  <Genealogy>  (44) 
NS(=O)(=O)c1ccc(=NC(=O)N2CCN(c3ccnc(-c4ccccc4)c3)CC2)[n-]c1 (protonated)
NS(=O)(=O)c1ccc(=NC(=O)N2CCN(c3ccnc(-c4ccccc4)c3)CC2)[n-]c1 (3D coordinates assigned)
NS(=O)(=O)c1ccc(=NC(=O)N2CCN(c3ccnc(-c4ccccc4)c3)CC2)[n-]c1 (nonaromatic ring conformer: 72.55276354930822 kcal/mol)

>  <smiles>  (44) 
NS(=O)(=O)c1ccc(=NC(=O)N2CCN(c3ccnc(-c4ccccc4)c3)CC2)[nH]c1

>  <score_type>  (44) 
oracle

>  <origin>  (44) 
adg

>  <m_score__min__energy>  (44) 
-10.630000000000001

>  <m_primary>  (44) 
energy

$$$$
44:0
     RDKit          3D

 34 35  0  0  0  0  0  0  0  0999 V2000
   58.6105   30.8314   45.7167 H   0  0  0  0  0  0  0  0  0  0  0  0
   58.0950   30.0660   45.1180 C   0  0  0  0  0  0  0  0  0  0  0  0
   57.2230   30.4930   44.1860 C   0  0  0  0  0  0  0  0  0  0  0  0
   57.5810   31.6400   43.3910 C   0  0  0  0  0  0  0  0  0  0  0  0
   57.8680   32.5610   42.7520 N   0  0  0  0  0  0  0  0  0  0  0  0
   55.9430   29.8180   43.8760 C   0  0  0  0  0  0  0  0  0  0  0  0
   55.5260   29.7270   42.6910 O   0  0  0  0  0  0  0  0  0  0  0  0
   55.1490   29.3370   44.9100 O   0  0  0  0  0  0  0  0  0  0  0  0
   58.4160   28.6500   45.4020 C   0  0  0  0  0  0  0  0  0  0  0  0
   57.4960   27.6800   45.7620 C   0  0  0  0  0  0  0  0  0  0  0  0
   56.4009   27.7837   45.7717 H   0  0  0  0  0  0  0  0  0  0  0  0
   58.2230   26.5550   46.1070 C   0  0  0  0  0  0  0  0  0  0  0  0
   57.6810   25.3340   46.7350 C   0  0  0  0  0  0  0  0  0  0  0  0
   58.1875   24.9638   47.6386 H   0  0  0  0  0  0  0  0  0  0  0  0
   56.6130   24.6330   46.2910 C   0  0  0  0  0  0  0  0  0  0  0  0
   55.2900   25.2480   45.9880 C   0  0  0  0  0  0  0  0  0  0  0  0
   55.1480   26.4960   45.9100 O   0  0  0  0  0  0  0  0  0  0  0  0
   54.1650   24.4130   45.7070 N   0  0  0  0  0  0  0  0  0  0  0  0
   54.3020   22.9980   45.5890 C   0  0  0  0  0  0  0  0  0  0  0  0
   53.2880   22.2900   45.3550 O   0  0  0  0  0  0  0  0  0  0  0  0
   55.5870   22.3900   45.7220 N   0  0  0  0  0  0  0  0  0  0  0  0
   55.6850   21.3580   45.5900 H   0  0  0  0  0  0  0  0  0  0  0  0
   56.7420   23.1720   46.0490 C   0  0  0  0  0  0  0  0  0  0  0  0
   57.8600   22.5980   46.1470 O   0  0  0  0  0  0  0  0  0  0  0  0
   59.5630   26.8970   45.9900 C   0  0  0  0  0  0  0  0  0  0  0  0
   60.7290   26.0270   46.3640 C   0  0  0  0  0  0  0  0  0  0  0  0
   60.8067   25.9691   47.4597 H   0  0  0  0  0  0  0  0  0  0  0  0
   60.5800   25.0176   45.9531 H   0  0  0  0  0  0  0  0  0  0  0  0
   61.6542   26.4573   45.9531 H   0  0  0  0  0  0  0  0  0  0  0  0
   59.6740   28.1700   45.5450 N   0  0  0  0  0  0  0  0  0  0  0  0
   60.9120   28.9370   45.4010 C   0  0  0  0  0  0  0  0  0  0  0  0
   61.3089   29.1829   46.3970 H   0  0  0  0  0  0  0  0  0  0  0  0
   61.6518   28.3388   44.8489 H   0  0  0  0  0  0  0  0  0  0  0  0
   60.7058   29.8658   44.8489 H   0  0  0  0  0  0  0  0  0  0  0  0
  1  2  1  0
  2  3  2  3
  3  4  1  0
  4  5  3  0
  3  6  1  0
  6  7  2  0
  6  8  1  0
  2  9  1  0
  9 10  2  0
 10 11  1  0
 10 12  1  0
 12 13  1  0
 13 14  1  0
 13 15  2  0
 15 16  1  0
 16 17  2  0
 16 18  1  0
 18 19  1  0
 19 20  2  0
 19 21  1  0
 21 22  1  0
 21 23  1  0
 23 24  2  0
 12 25  2  0
 25 26  1  0
 26 27  1  0
 26 28  1  0
 26 29  1  0
 25 30  1  0
 30 31  1  0
 31 32  1  0
 31 33  1  0
 31 34  1  0
 30  9  1  0
 23 15  1  0
M  CHG  2   8  -1  18  -1
M  END
>  <UniqueID>  (45) 
43

>  <SMILES>  (45) 
Cc1c(/C=C2\C(=O)[N-]C(=O)NC2=O)cc(C=C(C#N)C(=O)[O-])n1C

>  <Energy>  (45) 
73.16139087008989

>  <Genealogy>  (45) 
Cc1c(C=C2C(=O)[N-]C(=O)NC2=O)cc(C=C(C#N)C(=O)[O-])n1C (protonated)
Cc1c(/C=C2\C(=O)[N-]C(=O)NC2=O)cc(C=C(C#N)C(=O)[O-])n1C (cis-trans isomerization)
Cc1c(/C=C2\C(=O)[N-]C(=O)NC2=O)cc(C=C(C#N)C(=O)[O-])n1C (3D coordinates assigned)
Cc1c(/C=C2\C(=O)[N-]C(=O)NC2=O)cc(C=C(C#N)C(=O)[O-])n1C (nonaromatic ring conformer: 73.16139087008989 kcal/mol)

>  <smiles>  (45) 
Cc1c(C=C2C(=O)NC(=O)NC2=O)cc(C=C(C#N)C(=O)O)n1C

>  <score_type>  (45) 
oracle

>  <origin>  (45) 
adg

>  <m_score__min__energy>  (45) 
-11.98

>  <m_primary>  (45) 
energy

$$$$
45:0
     RDKit          3D

 49 52  0  0  0  0  0  0  0  0999 V2000
   58.1090   32.4020   42.7710 C   0  0  0  0  0  0  0  0  0  0  0  0
   58.1890   32.9510   44.1680 C   0  0  0  0  0  0  0  0  0  0  0  0
   59.1710   33.9060   44.4890 C   0  0  0  0  0  0  0  0  0  0  0  0
   59.2330   34.4490   45.7740 C   0  0  0  0  0  0  0  0  0  0  0  0
   58.3200   34.0470   46.7490 C   0  0  0  0  0  0  0  0  0  0  0  0
   57.3490   33.0890   46.4490 C   0  0  0  0  0  0  0  0  0  0  0  0
   57.2750   32.5270   45.1600 C   0  0  0  0  0  0  0  0  0  0  0  0
   56.2690   31.5560   44.8250 N   0  0  0  0  0  0  0  0  0  0  0  0
   56.5920   29.9060   44.3870 S   0  0  0  0  0  0  0  0  0  0  0  0
   55.4730   29.0350   44.8820 O   0  0  0  0  0  0  0  0  0  0  0  0
   56.6690   29.8060   42.8880 O   0  0  0  0  0  0  0  0  0  0  0  0
   58.1070   29.3790   45.1150 C   0  0  0  0  0  0  0  0  0  0  0  0
   59.2560   29.2460   44.3240 C   0  0  0  0  0  0  0  0  0  0  0  0
   60.4790   28.9100   44.9140 C   0  0  0  0  0  0  0  0  0  0  0  0
   60.5570   28.7000   46.2950 C   0  0  0  0  0  0  0  0  0  0  0  0
   59.4080   28.8030   47.0890 C   0  0  0  0  0  0  0  0  0  0  0  0
   59.5020   28.6420   48.5480 C   0  0  0  0  0  0  0  0  0  0  0  0
   60.0250   27.5910   49.0020 O   0  0  0  0  0  0  0  0  0  0  0  0
   59.0170   29.6310   49.4730 N   0  0  0  0  0  0  0  0  0  0  0  0
   59.7620   30.7130   50.1270 C   0  0  2  0  0  0  0  0  0  0  0  0
   58.8370   31.8220   50.6840 C   0  0  0  0  0  0  0  0  0  0  0  0
   59.2580   33.1460   50.0130 C   0  0  0  0  0  0  0  0  0  0  0  0
   60.3900   32.7670   49.1320 C   0  0  0  0  0  0  0  0  0  0  0  0
   61.1330   33.6190   48.3080 C   0  0  0  0  0  0  0  0  0  0  0  0
   60.8460   34.9410   48.2400 F   0  0  0  0  0  0  0  0  0  0  0  0
   62.1780   33.0760   47.5390 C   0  0  0  0  0  0  0  0  0  0  0  0
   62.4610   31.7000   47.6020 C   0  0  0  0  0  0  0  0  0  0  0  0
   61.7040   30.8620   48.4360 C   0  0  0  0  0  0  0  0  0  0  0  0
   60.6640   31.4200   49.1860 C   0  0  0  0  0  0  0  0  0  0  0  0
   58.1860   29.1530   46.4970 C   0  0  0  0  0  0  0  0  0  0  0  0
   57.9505   31.3143   42.8130 H   0  0  0  0  0  0  0  0  0  0  0  0
   57.2702   32.8745   42.2388 H   0  0  0  0  0  0  0  0  0  0  0  0
   59.0477   32.6155   42.2388 H   0  0  0  0  0  0  0  0  0  0  0  0
   59.8935   34.2265   43.7240 H   0  0  0  0  0  0  0  0  0  0  0  0
   60.0034   35.1953   46.0179 H   0  0  0  0  0  0  0  0  0  0  0  0
   58.3649   34.4857   47.7568 H   0  0  0  0  0  0  0  0  0  0  0  0
   56.6371   32.7713   47.2250 H   0  0  0  0  0  0  0  0  0  0  0  0
   59.1961   29.4061   43.2374 H   0  0  0  0  0  0  0  0  0  0  0  0
   61.3804   28.8108   44.2914 H   0  0  0  0  0  0  0  0  0  0  0  0
   61.5236   28.4533   46.7585 H   0  0  0  0  0  0  0  0  0  0  0  0
   60.3160   30.2048   50.9300 H   0  0  0  0  0  0  0  0  0  0  0  0
   57.7881   31.5942   50.4433 H   0  0  0  0  0  0  0  0  0  0  0  0
   58.9266   31.8926   51.7781 H   0  0  0  0  0  0  0  0  0  0  0  0
   58.4290   33.5650   49.4237 H   0  0  0  0  0  0  0  0  0  0  0  0
   59.5358   33.9184   50.7453 H   0  0  0  0  0  0  0  0  0  0  0  0
   62.7756   33.7295   46.8865 H   0  0  0  0  0  0  0  0  0  0  0  0
   63.2773   31.2793   46.9965 H   0  0  0  0  0  0  0  0  0  0  0  0
   61.9249   29.7862   48.4984 H   0  0  0  0  0  0  0  0  0  0  0  0
   57.2846   29.2508   47.1198 H   0  0  0  0  0  0  0  0  0  0  0  0
  1  2  1  0
  2  3  2  0
  3  4  1  0
  4  5  2  0
  5  6  1  0
  6  7  2  0
  7  8  1  0
  8  9  1  0
  9 10  2  0
  9 11  2  0
  9 12  1  0
 12 13  2  0
 13 14  1  0
 14 15  2  0
 15 16  1  0
 16 17  1  0
 17 18  2  0
 17 19  1  0
 19 20  1  0
 20 21  1  0
 21 22  1  0
 22 23  1  0
 23 24  2  0
 24 25  1  0
 24 26  1  0
 26 27  2  0
 27 28  1  0
 28 29  2  0
 16 30  2  0
  7  2  1  0
 30 12  1  0
 29 20  1  0
 29 23  1  0
  1 31  1  0
  1 32  1  0
  1 33  1  0
  3 34  1  0
  4 35  1  0
  5 36  1  0
  6 37  1  0
 13 38  1  0
 14 39  1  0
 15 40  1  0
 20 41  1  1
 21 42  1  0
 21 43  1  0
 22 44  1  0
 22 45  1  0
 26 46  1  0
 27 47  1  0
 28 48  1  0
 30 49  1  0
M  CHG  2   8  -1  19  -1
M  END
>  <UniqueID>  (46) 
44

>  <SMILES>  (46) 
Cc1ccccc1[N-]S(=O)(=O)c1cccc(C(=O)[N-][C@@H]2CCc3c(F)cccc32)c1

>  <Energy>  (46) 
66.83997135726698

>  <Genealogy>  (46) 
Cc1ccccc1[N-]S(=O)(=O)c1cccc(C(=O)[N-]C2CCc3c(F)cccc32)c1 (protonated)
Cc1ccccc1[N-]S(=O)(=O)c1cccc(C(=O)[N-][C@@H]2CCc3c(F)cccc32)c1 (chirality)
Cc1ccccc1[N-]S(=O)(=O)c1cccc(C(=O)[N-][C@@H]2CCc3c(F)cccc32)c1 (3D coordinates assigned)
Cc1ccccc1[N-]S(=O)(=O)c1cccc(C(=O)[N-][C@@H]2CCc3c(F)cccc32)c1 (nonaromatic ring conformer: 66.83997135726698 kcal/mol)

>  <smiles>  (46) 
Cc1ccccc1NS(=O)(=O)c1cccc(C(=O)NC2CCc3c(F)cccc32)c1

>  <score_type>  (46) 
oracle

>  <origin>  (46) 
adg

>  <m_score__min__energy>  (46) 
-12.869999999999999

>  <m_primary>  (46) 
energy

$$$$
46:0
     RDKit          3D

 60 63  0  0  0  0  0  0  0  0999 V2000
   62.1340   30.7530   46.7190 O   0  0  0  0  0  0  0  0  0  0  0  0
   61.1160   30.4420   47.3890 C   0  0  0  0  0  0  0  0  0  0  0  0
   61.0050   30.9170   48.7380 N   0  0  0  0  0  0  0  0  0  0  0  0
   60.3600   32.1630   49.1480 C   0  0  0  0  0  0  0  0  0  0  0  0
   60.3070   33.1360   48.0030 C   0  0  0  0  0  0  0  0  0  0  0  0
   61.3910   33.8750   47.5620 C   0  0  0  0  0  0  0  0  0  0  0  0
   60.9890   34.5150   46.4080 C   0  0  0  0  0  0  0  0  0  0  0  0
   59.6810   34.1420   46.1850 C   0  0  0  0  0  0  0  0  0  0  0  0
   59.2560   33.3180   47.1660 N   0  0  0  0  0  0  0  0  0  0  0  0
   57.9330   32.6850   47.2170 C   0  0  0  0  0  0  0  0  0  0  0  0
   57.0610   32.9770   45.9700 C   0  0  0  0  0  0  0  0  0  0  0  0
   57.3310   32.1560   44.7700 N   0  0  0  0  0  0  0  0  0  0  0  0
   57.6810   32.9170   43.5580 C   0  0  0  0  0  0  0  0  0  0  0  0
   58.1010   31.9410   42.4540 C   0  0  0  0  0  0  0  0  0  0  0  0
   57.0630   31.0140   42.1880 O   0  0  0  0  0  0  0  0  0  0  0  0
   56.8030   30.2350   43.3430 C   0  0  0  0  0  0  0  0  0  0  0  0
   56.3200   31.1210   44.4980 C   0  0  0  0  0  0  0  0  0  0  0  0
   60.0820   29.5920   46.7710 C   0  0  0  0  0  0  0  0  0  0  0  0
   58.8010   29.5230   47.3360 C   0  0  0  0  0  0  0  0  0  0  0  0
   57.8140   28.7240   46.7490 C   0  0  0  0  0  0  0  0  0  0  0  0
   58.1080   27.9580   45.6110 C   0  0  0  0  0  0  0  0  0  0  0  0
   57.1150   27.1240   44.9980 N   0  0  0  0  0  0  0  0  0  0  0  0
   56.3770   25.7790   45.8110 S   0  0  0  0  0  0  0  0  0  0  0  0
   56.9530   25.6020   47.1910 O   0  0  0  0  0  0  0  0  0  0  0  0
   54.8960   26.0240   45.9170 O   0  0  0  0  0  0  0  0  0  0  0  0
   56.6990   24.3170   44.8830 C   0  0  0  0  0  0  0  0  0  0  0  0
   55.8970   24.0150   43.7710 C   0  0  0  0  0  0  0  0  0  0  0  0
   56.1450   22.8640   43.0160 C   0  0  0  0  0  0  0  0  0  0  0  0
   57.1960   22.0090   43.3670 C   0  0  0  0  0  0  0  0  0  0  0  0
   57.4410   20.8980   42.6270 F   0  0  0  0  0  0  0  0  0  0  0  0
   57.9980   22.3070   44.4760 C   0  0  0  0  0  0  0  0  0  0  0  0
   57.7520   23.4580   45.2330 C   0  0  0  0  0  0  0  0  0  0  0  0
   59.3880   28.0350   45.0450 C   0  0  0  0  0  0  0  0  0  0  0  0
   60.3730   28.8370   45.6270 C   0  0  0  0  0  0  0  0  0  0  0  0
   59.3356   31.9455   49.4847 H   0  0  0  0  0  0  0  0  0  0  0  0
   60.9437   32.6108   49.9658 H   0  0  0  0  0  0  0  0  0  0  0  0
   62.3802   33.9394   48.0388 H   0  0  0  0  0  0  0  0  0  0  0  0
   61.5944   35.1913   45.7867 H   0  0  0  0  0  0  0  0  0  0  0  0
   59.0709   34.4690   45.3301 H   0  0  0  0  0  0  0  0  0  0  0  0
   58.0704   31.5967   47.2990 H   0  0  0  0  0  0  0  0  0  0  0  0
   57.4061   33.1050   48.0865 H   0  0  0  0  0  0  0  0  0  0  0  0
   56.0097   32.8199   46.2530 H   0  0  0  0  0  0  0  0  0  0  0  0
   57.3059   34.0089   45.6783 H   0  0  0  0  0  0  0  0  0  0  0  0
   56.8087   33.4976   43.2234 H   0  0  0  0  0  0  0  0  0  0  0  0
   58.5113   33.6037   43.7797 H   0  0  0  0  0  0  0  0  0  0  0  0
   58.3248   32.5063   41.5373 H   0  0  0  0  0  0  0  0  0  0  0  0
   58.9925   31.3898   42.7876 H   0  0  0  0  0  0  0  0  0  0  0  0
   56.0268   29.4913   43.1096 H   0  0  0  0  0  0  0  0  0  0  0  0
   57.7334   29.7334   43.6477 H   0  0  0  0  0  0  0  0  0  0  0  0
   55.3688   31.5995   44.2217 H   0  0  0  0  0  0  0  0  0  0  0  0
   56.1697   30.5060   45.3975 H   0  0  0  0  0  0  0  0  0  0  0  0
   58.5710   30.0993   48.2443 H   0  0  0  0  0  0  0  0  0  0  0  0
   56.8030   28.6962   47.1816 H   0  0  0  0  0  0  0  0  0  0  0  0
   57.0410   27.1280   43.9520 H   0  0  0  0  0  0  0  0  0  0  0  0
   55.0708   24.6858   43.4926 H   0  0  0  0  0  0  0  0  0  0  0  0
   55.5137   22.6307   42.1459 H   0  0  0  0  0  0  0  0  0  0  0  0
   58.8234   21.6345   44.7526 H   0  0  0  0  0  0  0  0  0  0  0  0
   58.3843   23.6895   46.1028 H   0  0  0  0  0  0  0  0  0  0  0  0
   59.6187   27.4599   44.1361 H   0  0  0  0  0  0  0  0  0  0  0  0
   61.3799   28.8758   45.1858 H   0  0  0  0  0  0  0  0  0  0  0  0
  1  2  2  0
  2  3  1  0
  3  4  1  0
  4  5  1  0
  5  6  2  0
  6  7  1  0
  7  8  2  0
  8  9  1  0
  9 10  1  0
 10 11  1  0
 11 12  1  0
 12 13  1  0
 13 14  1  0
 14 15  1  0
 15 16  1  0
 16 17  1  0
  2 18  1  0
 18 19  2  0
 19 20  1  0
 20 21  2  0
 21 22  1  0
 22 23  1  0
 23 24  2  0
 23 25  2  0
 23 26  1  0
 26 27  2  0
 27 28  1  0
 28 29  2  0
 29 30  1  0
 29 31  1  0
 31 32  2  0
 21 33  1  0
 33 34  2  0
  9  5  1  0
 17 12  1  0
 34 18  1  0
 32 26  1  0
  4 35  1  0
  4 36  1  0
  6 37  1  0
  7 38  1  0
  8 39  1  0
 10 40  1  0
 10 41  1  0
 11 42  1  0
 11 43  1  0
 13 44  1  0
 13 45  1  0
 14 46  1  0
 14 47  1  0
 16 48  1  0
 16 49  1  0
 17 50  1  0
 17 51  1  0
 19 52  1  0
 20 53  1  0
 22 54  1  0
 27 55  1  0
 28 56  1  0
 31 57  1  0
 32 58  1  0
 33 59  1  0
 34 60  1  0
M  CHG  1   3  -1
M  END
>  <UniqueID>  (47) 
45

>  <SMILES>  (47) 
O=C([N-]Cc1cccn1CCN1CCOCC1)c1ccc(NS(=O)(=O)c2ccc(F)cc2)cc1

>  <Energy>  (47) 
102.70492078528521

>  <Genealogy>  (47) 
O=C([N-]Cc1cccn1CCN1CCOCC1)c1ccc(NS(=O)(=O)c2ccc(F)cc2)cc1 (protonated)
O=C([N-]Cc1cccn1CCN1CCOCC1)c1ccc(NS(=O)(=O)c2ccc(F)cc2)cc1 (3D coordinates assigned)
O=C([N-]Cc1cccn1CCN1CCOCC1)c1ccc(NS(=O)(=O)c2ccc(F)cc2)cc1 (nonaromatic ring conformer: 102.70492078528521 kcal/mol)

>  <smiles>  (47) 
O=C(NCc1cccn1CCN1CCOCC1)c1ccc(NS(=O)(=O)c2ccc(F)cc2)cc1

>  <score_type>  (47) 
oracle

>  <origin>  (47) 
adg

>  <m_score__min__energy>  (47) 
-11.640000000000001

>  <m_primary>  (47) 
energy

$$$$
47:0
     RDKit          3D

 58 60  0  0  0  0  0  0  0  0999 V2000
   63.7320   32.8890   46.8680 C   0  0  0  0  0  0  0  0  0  0  0  0
   62.5470   33.8330   47.0970 C   0  0  0  0  0  0  0  0  0  0  0  0
   61.9650   33.7960   48.5400 C   0  0  0  0  0  0  0  0  0  0  0  0
   62.9390   34.4840   49.5260 C   0  0  0  0  0  0  0  0  0  0  0  0
   61.8040   32.3240   48.9670 C   0  0  0  0  0  0  0  0  0  0  0  0
   60.5940   34.4520   48.5760 C   0  0  0  0  0  0  0  0  0  0  0  0
   60.0330   34.7040   49.6780 O   0  0  0  0  0  0  0  0  0  0  0  0
   59.8990   34.7020   47.3460 N   0  0  0  0  0  0  0  0  0  0  0  0
   59.0740   33.7670   46.6390 C   0  0  0  0  0  0  0  0  0  0  0  0
   58.5680   32.6580   47.3280 C   0  0  0  0  0  0  0  0  0  0  0  0
   57.7750   31.7160   46.6690 C   0  0  0  0  0  0  0  0  0  0  0  0
   57.4740   31.8670   45.3100 C   0  0  0  0  0  0  0  0  0  0  0  0
   56.6820   30.8550   44.6630 N   0  0  0  0  0  0  0  0  0  0  0  0
   56.8890   29.5700   44.6700 C   0  0  0  0  0  0  0  0  0  0  0  0
   57.8430   29.0040   43.8900 N   0  0  0  0  0  0  0  0  0  0  0  0
   58.0380   27.6620   43.8970 C   0  0  0  0  0  0  0  0  0  0  0  0
   58.9320   27.1700   43.1560 O   0  0  0  0  0  0  0  0  0  0  0  0
   57.2680   26.8580   44.6980 N   0  0  0  0  0  0  0  0  0  0  0  0
   57.4640   25.3970   44.6990 C   0  0  0  0  0  0  0  0  0  0  0  0
   57.6420   24.9010   46.1000 C   0  0  0  0  0  0  0  0  0  0  0  0
   56.9890   23.8990   46.4980 O   0  0  0  0  0  0  0  0  0  0  0  0
   58.5230   25.5950   46.9890 N   0  0  0  0  0  0  0  0  0  0  0  0
   59.9290   25.8470   46.6980 C   0  0  0  0  0  0  0  0  0  0  0  0
   60.1910   27.3280   46.6270 C   0  0  0  0  0  0  0  0  0  0  0  0
   59.9090   28.1430   47.7360 C   0  0  0  0  0  0  0  0  0  0  0  0
   60.1330   29.5220   47.6710 C   0  0  0  0  0  0  0  0  0  0  0  0
   60.6400   30.0950   46.5010 C   0  0  0  0  0  0  0  0  0  0  0  0
   60.8590   31.4320   46.4400 F   0  0  0  0  0  0  0  0  0  0  0  0
   60.9220   29.2900   45.3930 C   0  0  0  0  0  0  0  0  0  0  0  0
   60.6970   27.9110   45.4530 C   0  0  0  0  0  0  0  0  0  0  0  0
   56.2810   27.4340   45.4550 C   0  0  0  0  0  0  0  0  0  0  0  0
   55.5230   26.7290   46.1760 O   0  0  0  0  0  0  0  0  0  0  0  0
   56.1030   28.7790   45.4370 N   0  0  0  0  0  0  0  0  0  0  0  0
   58.0320   32.9490   44.6010 C   0  0  0  0  0  0  0  0  0  0  0  0
   58.8210   33.8940   45.2630 C   0  0  0  0  0  0  0  0  0  0  0  0
   64.1368   32.5665   47.8386 H   0  0  0  0  0  0  0  0  0  0  0  0
   63.3953   32.0089   46.3005 H   0  0  0  0  0  0  0  0  0  0  0  0
   64.5146   33.4139   46.3005 H   0  0  0  0  0  0  0  0  0  0  0  0
   62.8797   34.8601   46.8865 H   0  0  0  0  0  0  0  0  0  0  0  0
   61.7433   33.4965   46.4256 H   0  0  0  0  0  0  0  0  0  0  0  0
   62.6300   34.2657   50.5589 H   0  0  0  0  0  0  0  0  0  0  0  0
   63.9579   34.1041   49.3600 H   0  0  0  0  0  0  0  0  0  0  0  0
   62.9215   35.5713   49.3600 H   0  0  0  0  0  0  0  0  0  0  0  0
   61.7969   32.2594   50.0651 H   0  0  0  0  0  0  0  0  0  0  0  0
   60.8573   31.9286   48.5703 H   0  0  0  0  0  0  0  0  0  0  0  0
   62.6429   31.7333   48.5703 H   0  0  0  0  0  0  0  0  0  0  0  0
   58.7967   32.5278   48.3960 H   0  0  0  0  0  0  0  0  0  0  0  0
   57.3840   30.8490   47.2217 H   0  0  0  0  0  0  0  0  0  0  0  0
   56.5844   24.9119   44.2507 H   0  0  0  0  0  0  0  0  0  0  0  0
   58.3643   25.1549   44.1151 H   0  0  0  0  0  0  0  0  0  0  0  0
   60.5486   25.4066   47.4931 H   0  0  0  0  0  0  0  0  0  0  0  0
   60.1807   25.3924   45.7285 H   0  0  0  0  0  0  0  0  0  0  0  0
   59.5108   27.6951   48.6584 H   0  0  0  0  0  0  0  0  0  0  0  0
   59.9100   30.1564   48.5415 H   0  0  0  0  0  0  0  0  0  0  0  0
   61.3213   29.7419   44.4730 H   0  0  0  0  0  0  0  0  0  0  0  0
   60.9168   27.2809   44.5785 H   0  0  0  0  0  0  0  0  0  0  0  0
   57.8459   33.0506   43.5216 H   0  0  0  0  0  0  0  0  0  0  0  0
   59.2457   34.7409   44.7041 H   0  0  0  0  0  0  0  0  0  0  0  0
  1  2  1  0
  2  3  1  0
  3  4  1  0
  3  5  1  0
  3  6  1  0
  6  7  2  0
  6  8  1  0
  8  9  1  0
  9 10  2  0
 10 11  1  0
 11 12  2  0
 12 13  1  0
 13 14  2  3
 14 15  1  0
 15 16  1  0
 16 17  2  0
 16 18  1  0
 18 19  1  0
 19 20  1  0
 20 21  2  0
 20 22  1  0
 22 23  1  0
 23 24  1  0
 24 25  2  0
 25 26  1  0
 26 27  2  0
 27 28  1  0
 27 29  1  0
 29 30  2  0
 18 31  1  0
 31 32  2  0
 31 33  1  0
 12 34  1  0
 34 35  2  0
 35  9  1  0
 33 14  1  0
 30 24  1  0
  1 36  1  0
  1 37  1  0
  1 38  1  0
  2 39  1  0
  2 40  1  0
  4 41  1  0
  4 42  1  0
  4 43  1  0
  5 44  1  0
  5 45  1  0
  5 46  1  0
 10 47  1  0
 11 48  1  0
 19 49  1  0
 19 50  1  0
 23 51  1  0
 23 52  1  0
 25 53  1  0
 26 54  1  0
 29 55  1  0
 30 56  1  0
 34 57  1  0
 35 58  1  0
M  CHG  4   8  -1  15  -1  22  -1  33  -1
M  END
>  <UniqueID>  (48) 
46

>  <SMILES>  (48) 
CCC(C)(C)C(=O)[N-]c1ccc(N=c2[n-]c(=O)n(CC(=O)[N-]Cc3ccc(F)cc3)c(=O)[n-]2)cc1

>  <Energy>  (48) 
65.83804800351074

>  <Genealogy>  (48) 
CCC(C)(C)C(=O)[N-]c1ccc(N=c2[n-]c(=O)n(CC(=O)[N-]Cc3ccc(F)cc3)c(=O)[n-]2)cc1 (protonated)
CCC(C)(C)C(=O)[N-]c1ccc(N=c2[n-]c(=O)n(CC(=O)[N-]Cc3ccc(F)cc3)c(=O)[n-]2)cc1 (3D coordinates assigned)
CCC(C)(C)C(=O)[N-]c1ccc(N=c2[n-]c(=O)n(CC(=O)[N-]Cc3ccc(F)cc3)c(=O)[n-]2)cc1 (optimized conformer: 65.83804800351074 kcal/mol)

>  <smiles>  (48) 
CCC(C)(C)C(=O)Nc1ccc(N=c2[nH]c(=O)n(CC(=O)NCc3ccc(F)cc3)c(=O)[nH]2)cc1

>  <score_type>  (48) 
oracle

>  <origin>  (48) 
adg

>  <m_score__min__energy>  (48) 
-13.460000000000001

>  <m_primary>  (48) 
energy

$$$$
48:0
     RDKit          3D

 40 41  0  0  0  0  0  0  0  0999 V2000
   64.1030   32.6430   47.2540 N   0  0  0  0  0  0  0  0  0  0  0  0
   63.0700   32.2870   48.5940 S   0  0  0  0  0  0  0  0  0  0  0  0
   62.5030   33.5650   49.1430 O   0  0  0  0  0  0  0  0  0  0  0  0
   63.8760   31.6000   49.6600 O   0  0  0  0  0  0  0  0  0  0  0  0
   61.7540   31.2410   48.0700 C   0  0  0  0  0  0  0  0  0  0  0  0
   61.1480   30.3590   48.9750 C   0  0  0  0  0  0  0  0  0  0  0  0
   60.0980   29.5350   48.5590 C   0  0  0  0  0  0  0  0  0  0  0  0
   59.6370   29.5890   47.2310 C   0  0  0  0  0  0  0  0  0  0  0  0
   58.5870   28.7850   46.7640 O   0  0  0  0  0  0  0  0  0  0  0  0
   58.2500   28.6180   45.3900 C   0  0  0  0  0  0  0  0  0  0  0  0
   56.8330   29.0560   45.1710 C   0  0  0  0  0  0  0  0  0  0  0  0
   55.9070   28.2070   45.2340 O   0  0  0  0  0  0  0  0  0  0  0  0
   56.5080   30.4170   44.8620 N   0  0  0  0  0  0  0  0  0  0  0  0
   57.4830   31.4220   44.4560 C   0  0  0  0  0  0  0  0  0  0  0  0
   57.0530   32.8050   44.9470 C   0  0  0  0  0  0  0  0  0  0  0  0
   58.0970   33.4170   45.8470 C   0  0  0  0  0  0  0  0  0  0  0  0
   58.9420   34.4310   45.3670 C   0  0  0  0  0  0  0  0  0  0  0  0
   59.8880   35.0180   46.2120 C   0  0  0  0  0  0  0  0  0  0  0  0
   59.9920   34.6020   47.5440 C   0  0  0  0  0  0  0  0  0  0  0  0
   59.1470   33.6000   48.0330 C   0  0  0  0  0  0  0  0  0  0  0  0
   59.2720   33.0870   49.7050 Cl  0  0  0  0  0  0  0  0  0  0  0  0
   58.1990   33.0110   47.1890 C   0  0  0  0  0  0  0  0  0  0  0  0
   60.2430   30.4760   46.3330 C   0  0  0  0  0  0  0  0  0  0  0  0
   61.2940   31.3000   46.7500 C   0  0  0  0  0  0  0  0  0  0  0  0
   64.9610   33.0960   47.6400 H   0  0  0  0  0  0  0  0  0  0  0  0
   64.4030   31.7290   46.8470 H   0  0  0  0  0  0  0  0  0  0  0  0
   61.4998   30.3149   50.0163 H   0  0  0  0  0  0  0  0  0  0  0  0
   59.6303   28.8414   49.2732 H   0  0  0  0  0  0  0  0  0  0  0  0
   58.9232   29.2279   44.7697 H   0  0  0  0  0  0  0  0  0  0  0  0
   58.3560   27.5594   45.1104 H   0  0  0  0  0  0  0  0  0  0  0  0
   58.4634   31.1720   44.8876 H   0  0  0  0  0  0  0  0  0  0  0  0
   57.5479   31.4356   43.3580 H   0  0  0  0  0  0  0  0  0  0  0  0
   56.8997   33.4618   44.0781 H   0  0  0  0  0  0  0  0  0  0  0  0
   56.1214   32.6949   45.5214 H   0  0  0  0  0  0  0  0  0  0  0  0
   58.8590   34.7645   44.3221 H   0  0  0  0  0  0  0  0  0  0  0  0
   60.5514   35.8077   45.8296 H   0  0  0  0  0  0  0  0  0  0  0  0
   60.7387   35.0632   48.2071 H   0  0  0  0  0  0  0  0  0  0  0  0
   57.5313   32.2276   47.5769 H   0  0  0  0  0  0  0  0  0  0  0  0
   59.8903   30.5254   45.2923 H   0  0  0  0  0  0  0  0  0  0  0  0
   61.7602   31.9966   46.0377 H   0  0  0  0  0  0  0  0  0  0  0  0
  1  2  1  0
  2  3  2  0
  2  4  2  0
  2  5  1  0
  5  6  2  0
  6  7  1  0
  7  8  2  0
  8  9  1  0
  9 10  1  0
 10 11  1  0
 11 12  2  0
 11 13  1  0
 13 14  1  0
 14 15  1  0
 15 16  1  0
 16 17  2  0
 17 18  1  0
 18 19  2  0
 19 20  1  0
 20 21  1  0
 20 22  2  0
  8 23  1  0
 23 24  2  0
 24  5  1  0
 22 16  1  0
  1 25  1  0
  1 26  1  0
  6 27  1  0
  7 28  1  0
 10 29  1  0
 10 30  1  0
 14 31  1  0
 14 32  1  0
 15 33  1  0
 15 34  1  0
 17 35  1  0
 18 36  1  0
 19 37  1  0
 22 38  1  0
 23 39  1  0
 24 40  1  0
M  CHG  1  13  -1
M  END
>  <UniqueID>  (49) 
47

>  <SMILES>  (49) 
NS(=O)(=O)c1ccc(OCC(=O)[N-]CCc2cccc(Cl)c2)cc1

>  <Energy>  (49) 
32.46654325906491

>  <Genealogy>  (49) 
NS(=O)(=O)c1ccc(OCC(=O)[N-]CCc2cccc(Cl)c2)cc1 (protonated)
NS(=O)(=O)c1ccc(OCC(=O)[N-]CCc2cccc(Cl)c2)cc1 (3D coordinates assigned)
NS(=O)(=O)c1ccc(OCC(=O)[N-]CCc2cccc(Cl)c2)cc1 (optimized conformer: 32.46654325906491 kcal/mol)

>  <smiles>  (49) 
NS(=O)(=O)c1ccc(OCC(=O)NCCc2cccc(Cl)c2)cc1

>  <score_type>  (49) 
oracle

>  <origin>  (49) 
adg

>  <m_score__min__energy>  (49) 
-10.720000000000001

>  <m_primary>  (49) 
energy

$$$$
49:0
     RDKit          3D

 50 53  0  0  0  0  0  0  0  0999 V2000
   59.3720   35.0718   44.0584 H   0  0  0  0  0  0  0  0  0  0  0  0
   58.9290   34.1760   44.5180 C   0  0  0  0  0  0  0  0  0  0  0  0
   57.9520   33.0460   43.7430 S   0  0  0  0  0  0  0  0  0  0  0  0
   57.7830   32.0920   45.1230 C   0  0  0  0  0  0  0  0  0  0  0  0
   57.0440   31.0290   45.2430 N   0  0  0  0  0  0  0  0  0  0  0  0
   56.9210   29.9590   44.2930 C   0  0  0  0  0  0  0  0  0  0  0  0
   55.5030   29.7410   43.4890 S   0  0  0  0  0  0  0  0  0  0  0  0
   58.1180   29.3730   43.7520 N   0  0  0  0  0  0  0  0  0  0  0  0
   58.8130   30.1330   43.5660 H   0  0  0  0  0  0  0  0  0  0  0  0
   57.9100   28.8930   42.8450 H   0  0  0  0  0  0  0  0  0  0  0  0
   58.6560   28.4090   44.6820 C   0  0  0  0  0  0  0  0  0  0  0  0
   57.8130   27.4540   45.2800 C   0  0  0  0  0  0  0  0  0  0  0  0
   56.7493   27.4129   45.0028 H   0  0  0  0  0  0  0  0  0  0  0  0
   58.3210   26.5570   46.2250 C   0  0  0  0  0  0  0  0  0  0  0  0
   57.6576   25.8105   46.6861 H   0  0  0  0  0  0  0  0  0  0  0  0
   59.6700   26.6080   46.5840 C   0  0  0  0  0  0  0  0  0  0  0  0
   60.0685   25.8986   47.3243 H   0  0  0  0  0  0  0  0  0  0  0  0
   60.5140   27.5590   46.0040 C   0  0  0  0  0  0  0  0  0  0  0  0
   61.5755   27.5987   46.2896 H   0  0  0  0  0  0  0  0  0  0  0  0
   60.0100   28.4600   45.0610 C   0  0  0  0  0  0  0  0  0  0  0  0
   60.6756   29.2126   44.6131 H   0  0  0  0  0  0  0  0  0  0  0  0
   58.4360   32.6220   46.1730 N   0  0  0  0  0  0  0  0  0  0  0  0
   59.0780   33.7760   45.8470 C   0  0  0  0  0  0  0  0  0  0  0  0
   59.7860   34.5790   46.8620 C   0  0  0  0  0  0  0  0  0  0  0  0
   59.6090   35.8270   46.9100 O   0  0  0  0  0  0  0  0  0  0  0  0
   60.6150   33.9440   47.8500 N   0  0  0  0  0  0  0  0  0  0  0  0
   61.6650   33.0010   47.4850 C   0  0  0  0  0  0  0  0  0  0  0  0
   61.6451   32.8379   46.3973 H   0  0  0  0  0  0  0  0  0  0  0  0
   62.6394   33.4144   47.7844 H   0  0  0  0  0  0  0  0  0  0  0  0
   61.4460   31.6600   48.2040 C   0  0  0  0  0  0  0  0  0  0  0  0
   61.0296   30.9424   47.4817 H   0  0  0  0  0  0  0  0  0  0  0  0
   62.4233   31.3413   48.5956 H   0  0  0  0  0  0  0  0  0  0  0  0
   60.5230   31.7490   49.3610 N   0  0  0  0  0  0  0  0  0  0  0  0
   59.2140   31.0610   49.1770 C   0  0  0  0  0  0  0  0  0  0  0  0
   58.5621   31.9320   49.3393 H   0  0  0  0  0  0  0  0  0  0  0  0
   59.1560   30.2270   47.8980 C   0  0  0  0  0  0  0  0  0  0  0  0
   58.3191   30.4831   47.2317 H   0  0  0  0  0  0  0  0  0  0  0  0
   59.9764   30.2691   47.1665 H   0  0  0  0  0  0  0  0  0  0  0  0
   58.9270   28.9720   48.7320 C   0  0  0  0  0  0  0  0  0  0  0  0
   57.9599   28.4817   48.5467 H   0  0  0  0  0  0  0  0  0  0  0  0
   59.5900   28.1019   48.6162 H   0  0  0  0  0  0  0  0  0  0  0  0
   58.9670   29.8020   50.0100 C   0  0  0  0  0  0  0  0  0  0  0  0
   58.0204   29.8116   50.5702 H   0  0  0  0  0  0  0  0  0  0  0  0
   59.6482   29.5322   50.8305 H   0  0  0  0  0  0  0  0  0  0  0  0
   60.5830   33.0150   50.1370 C   0  0  0  0  0  0  0  0  0  0  0  0
   59.7519   33.0206   50.8576 H   0  0  0  0  0  0  0  0  0  0  0  0
   61.5658   33.0438   50.6303 H   0  0  0  0  0  0  0  0  0  0  0  0
   60.4790   34.2830   49.2630 C   0  0  0  0  0  0  0  0  0  0  0  0
   59.5004   34.7573   49.4287 H   0  0  0  0  0  0  0  0  0  0  0  0
   61.2881   34.9740   49.5420 H   0  0  0  0  0  0  0  0  0  0  0  0
  1  2  1  0
  2  3  1  0
  3  4  1  0
  4  5  2  0
  5  6  1  0
  6  7  2  0
  6  8  1  0
  8  9  1  0
  8 10  1  0
  8 11  1  0
 11 12  2  0
 12 13  1  0
 12 14  1  0
 14 15  1  0
 14 16  2  0
 16 17  1  0
 16 18  1  0
 18 19  1  0
 18 20  2  0
 20 21  1  0
  4 22  1  0
 22 23  1  0
 23 24  1  0
 24 25  2  0
 24 26  1  0
 26 27  1  0
 27 28  1  0
 27 29  1  0
 27 30  1  0
 30 31  1  0
 30 32  1  0
 30 33  1  0
 33 34  1  0
 34 35  1  0
 34 36  1  0
 36 37  1  0
 36 38  1  0
 36 39  1  0
 39 40  1  0
 39 41  1  0
 39 42  1  0
 42 43  1  0
 42 44  1  0
 33 45  1  0
 45 46  1  0
 45 47  1  0
 45 48  1  0
 48 49  1  0
 48 50  1  0
 23  2  2  0
 48 26  1  0
 20 11  1  0
 42 34  1  0
M  CHG  2   8   1  22  -1
M  END
>  <UniqueID>  (50) 
48

>  <SMILES>  (50) 
O=C(c1cs/c(=N\C(=S)[NH2+]c2ccccc2)[n-]1)N1CCN(C2CCC2)CC1

>  <Energy>  (50) 
168.7209134659421

>  <Genealogy>  (50) 
O=C(c1csc(=NC(=S)[NH2+]c2ccccc2)[n-]1)N1CCN(C2CCC2)CC1 (protonated)
O=C(c1cs/c(=N\C(=S)[NH2+]c2ccccc2)[n-]1)N1CCN(C2CCC2)CC1 (cis-trans isomerization)
O=C(c1cs/c(=N\C(=S)[NH2+]c2ccccc2)[n-]1)N1CCN(C2CCC2)CC1 (3D coordinates assigned)
O=C(c1cs/c(=N\C(=S)[NH2+]c2ccccc2)[n-]1)N1CCN(C2CCC2)CC1 (nonaromatic ring conformer: 168.7209134659421 kcal/mol)

>  <smiles>  (50) 
O=C(c1csc(=NC(=S)Nc2ccccc2)[nH]1)N1CCN(C2CCC2)CC1

>  <score_type>  (50) 
oracle

>  <origin>  (50) 
adg

>  <m_score__min__energy>  (50) 
-8.5899999999999999

>  <m_primary>  (50) 
energy

$$$$
50:0
     RDKit          3D

 46 48  0  0  0  0  0  0  0  0999 V2000
   66.3060   33.4650   50.8540 C   0  0  0  0  0  0  0  0  0  0  0  0
   65.8280   32.7930   49.8070 C   0  0  0  0  0  0  0  0  0  0  0  0
   64.3950   32.7740   49.4640 C   0  0  0  0  0  0  0  0  0  0  0  0
   63.9610   31.9670   48.5960 O   0  0  0  0  0  0  0  0  0  0  0  0
   63.5050   33.7080   50.0950 N   0  0  0  0  0  0  0  0  0  0  0  0
   62.0710   33.6360   50.0160 C   0  0  0  0  0  0  0  0  0  0  0  0
   61.3620   32.9520   51.0150 C   0  0  0  0  0  0  0  0  0  0  0  0
   59.9690   32.8660   50.9580 C   0  0  0  0  0  0  0  0  0  0  0  0
   59.2730   33.4380   49.8920 C   0  0  0  0  0  0  0  0  0  0  0  0
   59.9650   34.0800   48.8560 C   0  0  0  0  0  0  0  0  0  0  0  0
   59.2260   34.6630   47.7690 N   0  0  0  0  0  0  0  0  0  0  0  0
   58.7960   33.9350   46.6090 C   0  0  0  0  0  0  0  0  0  0  0  0
   59.1390   32.5870   46.4640 C   0  0  0  0  0  0  0  0  0  0  0  0
   58.7460   31.8690   45.3250 C   0  0  0  0  0  0  0  0  0  0  0  0
   59.0990   30.6120   45.2700 N   0  0  0  0  0  0  0  0  0  0  0  0
   59.2440   29.6740   46.3420 C   0  0  0  0  0  0  0  0  0  0  0  0
   60.3220   29.8080   47.2300 C   0  0  0  0  0  0  0  0  0  0  0  0
   60.4960   28.8900   48.2680 C   0  0  0  0  0  0  0  0  0  0  0  0
   59.6030   27.8260   48.4160 C   0  0  0  0  0  0  0  0  0  0  0  0
   58.5400   27.6710   47.5240 C   0  0  0  0  0  0  0  0  0  0  0  0
   58.3600   28.5840   46.4710 C   0  0  0  0  0  0  0  0  0  0  0  0
   57.0100   28.3770   45.3480 S   0  0  0  0  0  0  0  0  0  0  0  0
   55.9310   27.1490   45.9110 N   0  0  0  0  0  0  0  0  0  0  0  0
   57.5330   27.9730   43.9980 O   0  0  0  0  0  0  0  0  0  0  0  0
   56.2580   29.6710   45.2290 O   0  0  0  0  0  0  0  0  0  0  0  0
   58.0070   32.5500   44.3150 C   0  0  0  0  0  0  0  0  0  0  0  0
   57.4560   31.8340   42.8020 Cl  0  0  0  0  0  0  0  0  0  0  0  0
   57.6990   33.9030   44.5020 C   0  0  0  0  0  0  0  0  0  0  0  0
   58.0970   34.5550   45.6220 N   0  0  0  0  0  0  0  0  0  0  0  0
   61.3670   34.1880   48.9300 C   0  0  0  0  0  0  0  0  0  0  0  0
   67.3842   33.4502   51.0714 H   0  0  0  0  0  0  0  0  0  0  0  0
   65.6223   34.0344   51.5008 H   0  0  0  0  0  0  0  0  0  0  0  0
   66.5305   32.2307   49.1743 H   0  0  0  0  0  0  0  0  0  0  0  0
   63.9270   34.5380   50.5710 H   0  0  0  0  0  0  0  0  0  0  0  0
   61.9058   32.4811   51.8472 H   0  0  0  0  0  0  0  0  0  0  0  0
   59.4188   32.3458   51.7559 H   0  0  0  0  0  0  0  0  0  0  0  0
   58.1746   33.3846   49.8648 H   0  0  0  0  0  0  0  0  0  0  0  0
   58.9150   35.6570   47.8700 H   0  0  0  0  0  0  0  0  0  0  0  0
   59.7222   32.0853   47.2502 H   0  0  0  0  0  0  0  0  0  0  0  0
   61.0325   30.6389   47.1082 H   0  0  0  0  0  0  0  0  0  0  0  0
   61.3360   29.0048   48.9689 H   0  0  0  0  0  0  0  0  0  0  0  0
   59.7377   27.1077   49.2382 H   0  0  0  0  0  0  0  0  0  0  0  0
   57.8406   26.8308   47.6460 H   0  0  0  0  0  0  0  0  0  0  0  0
   55.1510   27.0850   45.2190 H   0  0  0  0  0  0  0  0  0  0  0  0
   57.1281   34.4426   43.7320 H   0  0  0  0  0  0  0  0  0  0  0  0
   61.9166   34.7084   48.1318 H   0  0  0  0  0  0  0  0  0  0  0  0
  1  2  2  0
  2  3  1  0
  3  4  2  0
  3  5  1  0
  5  6  1  0
  6  7  2  0
  7  8  1  0
  8  9  2  0
  9 10  1  0
 10 11  1  0
 11 12  1  0
 12 13  2  0
 13 14  1  0
 14 15  2  3
 15 16  1  0
 16 17  2  0
 17 18  1  0
 18 19  2  0
 19 20  1  0
 20 21  2  0
 21 22  1  0
 22 23  1  0
 22 24  2  0
 22 25  2  0
 14 26  1  0
 26 27  1  0
 26 28  2  0
 28 29  1  0
 10 30  2  0
 30  6  1  0
 29 12  1  0
 21 16  1  0
  1 31  1  0
  1 32  1  0
  2 33  1  0
  5 34  1  0
  7 35  1  0
  8 36  1  0
  9 37  1  0
 11 38  1  0
 13 39  1  0
 17 40  1  0
 18 41  1  0
 19 42  1  0
 20 43  1  0
 23 44  1  0
 28 45  1  0
 30 46  1  0
M  CHG  2  23  -1  29  -1
M  END
>  <UniqueID>  (51) 
49

>  <SMILES>  (51) 
C=CC(=O)Nc1cccc(Nc2cc(=Nc3ccccc3S([NH-])(=O)=O)c(Cl)c[n-]2)c1

>  <Energy>  (51) 
71.1288105758835

>  <Genealogy>  (51) 
C=CC(=O)Nc1cccc(Nc2cc(=Nc3ccccc3S([NH-])(=O)=O)c(Cl)c[n-]2)c1 (protonated)
C=CC(=O)Nc1cccc(Nc2cc(=Nc3ccccc3S([NH-])(=O)=O)c(Cl)c[n-]2)c1 (3D coordinates assigned)
C=CC(=O)Nc1cccc(Nc2cc(=Nc3ccccc3S([NH-])(=O)=O)c(Cl)c[n-]2)c1 (optimized conformer: 71.1288105758835 kcal/mol)

>  <smiles>  (51) 
C=CC(=O)Nc1cccc(Nc2cc(=Nc3ccccc3S(N)(=O)=O)c(Cl)c[nH]2)c1

>  <score_type>  (51) 
oracle

>  <origin>  (51) 
adg

>  <m_score__min__energy>  (51) 
-13.34

>  <m_primary>  (51) 
energy

$$$$
51:0
     RDKit          3D

 69 73  0  0  0  0  0  0  0  0999 V2000
   57.3520   28.5210   43.8000 C   0  0  0  0  0  0  0  0  0  0  0  0
   57.7100   29.3820   44.7670 C   0  0  0  0  0  0  0  0  0  0  0  0
   58.0020   29.0740   46.1050 C   0  0  0  0  0  0  0  0  0  0  0  0
   57.8160   27.9430   46.8130 C   0  0  0  0  0  0  0  0  0  0  0  0
   57.5830   26.6060   46.2440 C   0  0  0  0  0  0  0  0  0  0  0  0
   58.5600   25.7350   45.9040 N   0  0  0  0  0  0  0  0  0  0  0  0
   57.8880   24.7100   45.3320 C   0  0  0  0  0  0  0  0  0  0  0  0
   58.4590   23.6720   44.9060 O   0  0  0  0  0  0  0  0  0  0  0  0
   56.5540   24.9090   45.2640 N   0  0  0  0  0  0  0  0  0  0  0  0
   55.5320   23.9830   44.7760 C   0  0  0  0  0  0  0  0  0  0  0  0
   54.7250   23.4670   45.9230 C   0  0  0  0  0  0  0  0  0  0  0  0
   55.2220   23.1030   47.1690 C   0  0  0  0  0  0  0  0  0  0  0  0
   54.2410   22.5760   48.0190 C   0  0  0  0  0  0  0  0  0  0  0  0
   52.9790   22.5120   47.4420 C   0  0  0  0  0  0  0  0  0  0  0  0
   53.0830   23.1060   45.8710 S   0  0  0  0  0  0  0  0  0  0  0  0
   56.3660   26.1070   45.8390 C   0  0  0  0  0  0  0  0  0  0  0  0
   55.1300   26.7240   45.9970 O   0  0  0  0  0  0  0  0  0  0  0  0
   58.5660   30.2140   46.6490 C   0  0  0  0  0  0  0  0  0  0  0  0
   58.5360   31.1860   45.6710 C   0  0  0  0  0  0  0  0  0  0  0  0
   59.1000   32.5730   45.8440 C   0  0  0  0  0  0  0  0  0  0  0  0
   59.1230   33.0170   47.2880 C   0  0  0  0  0  0  0  0  0  0  0  0
   58.0700   33.4840   47.8060 O   0  0  0  0  0  0  0  0  0  0  0  0
   60.3270   32.9380   48.0870 N   0  0  0  0  0  0  0  0  0  0  0  0
   60.3380   33.6050   49.4010 C   0  0  0  0  0  0  0  0  0  0  0  0
   61.6940   33.4640   50.1050 C   0  0  0  0  0  0  0  0  0  0  0  0
   62.8370   33.7820   49.1210 C   0  0  0  0  0  0  0  0  0  0  0  0
   64.1580   33.8050   49.8060 N   0  0  0  0  0  0  0  0  0  0  0  0
   64.8830   32.5240   49.6720 C   0  0  0  0  0  0  0  0  0  0  0  0
   66.3700   32.7110   50.0220 C   0  0  0  0  0  0  0  0  0  0  0  0
   66.5920   33.7790   51.1080 C   0  0  0  0  0  0  0  0  0  0  0  0
   65.3700   33.9080   52.0190 C   0  0  0  0  0  0  0  0  0  0  0  0
   64.1190   34.3020   51.2070 C   0  0  0  0  0  0  0  0  0  0  0  0
   62.8000   32.8670   47.8590 C   0  0  0  0  0  0  0  0  0  0  0  0
   61.4760   32.1030   47.6930 C   0  0  0  0  0  0  0  0  0  0  0  0
   58.0040   30.6880   44.5280 N   0  0  0  0  0  0  0  0  0  0  0  0
   57.9210   31.3760   43.2340 C   0  0  0  0  0  0  0  0  0  0  0  0
   57.1484   28.8891   42.7836 H   0  0  0  0  0  0  0  0  0  0  0  0
   57.2625   27.4479   44.0246 H   0  0  0  0  0  0  0  0  0  0  0  0
   57.8404   28.0260   47.9096 H   0  0  0  0  0  0  0  0  0  0  0  0
   54.8704   24.5081   44.0713 H   0  0  0  0  0  0  0  0  0  0  0  0
   56.0208   23.1387   44.2678 H   0  0  0  0  0  0  0  0  0  0  0  0
   56.2772   23.2170   47.4580 H   0  0  0  0  0  0  0  0  0  0  0  0
   54.4504   22.2441   49.0466 H   0  0  0  0  0  0  0  0  0  0  0  0
   52.0669   22.1369   47.9291 H   0  0  0  0  0  0  0  0  0  0  0  0
   58.9633   30.3244   47.6688 H   0  0  0  0  0  0  0  0  0  0  0  0
   60.1290   32.5855   45.4555 H   0  0  0  0  0  0  0  0  0  0  0  0
   58.4489   33.2676   45.2931 H   0  0  0  0  0  0  0  0  0  0  0  0
   60.1211   34.6740   49.2586 H   0  0  0  0  0  0  0  0  0  0  0  0
   59.5755   33.1253   50.0323 H   0  0  0  0  0  0  0  0  0  0  0  0
   61.7384   34.1637   50.9527 H   0  0  0  0  0  0  0  0  0  0  0  0
   61.8066   32.4311   50.4661 H   0  0  0  0  0  0  0  0  0  0  0  0
   62.6765   34.8019   48.7416 H   0  0  0  0  0  0  0  0  0  0  0  0
   64.4402   31.7836   50.3545 H   0  0  0  0  0  0  0  0  0  0  0  0
   64.8020   32.1748   48.6320 H   0  0  0  0  0  0  0  0  0  0  0  0
   66.7702   31.7523   50.3835 H   0  0  0  0  0  0  0  0  0  0  0  0
   66.8869   33.0487   49.1116 H   0  0  0  0  0  0  0  0  0  0  0  0
   67.4639   33.4959   51.7160 H   0  0  0  0  0  0  0  0  0  0  0  0
   66.7601   34.7471   50.6135 H   0  0  0  0  0  0  0  0  0  0  0  0
   65.1879   32.9439   52.5164 H   0  0  0  0  0  0  0  0  0  0  0  0
   65.5676   34.6927   52.7641 H   0  0  0  0  0  0  0  0  0  0  0  0
   63.2317   33.8824   51.7037 H   0  0  0  0  0  0  0  0  0  0  0  0
   64.0844   35.4007   51.1665 H   0  0  0  0  0  0  0  0  0  0  0  0
   62.9533   33.4951   46.9691 H   0  0  0  0  0  0  0  0  0  0  0  0
   63.5937   32.1153   47.9814 H   0  0  0  0  0  0  0  0  0  0  0  0
   61.3612   31.8084   46.6394 H   0  0  0  0  0  0  0  0  0  0  0  0
   61.5015   31.2157   48.3427 H   0  0  0  0  0  0  0  0  0  0  0  0
   57.7908   32.4555   43.4004 H   0  0  0  0  0  0  0  0  0  0  0  0
   58.8467   31.2016   42.6660 H   0  0  0  0  0  0  0  0  0  0  0  0
   57.0633   30.9865   42.6660 H   0  0  0  0  0  0  0  0  0  0  0  0
  1  2  2  0
  2  3  1  0
  3  4  2  3
  4  5  1  0
  5  6  1  0
  6  7  1  0
  7  8  2  0
  7  9  1  0
  9 10  1  0
 10 11  1  0
 11 12  2  0
 12 13  1  0
 13 14  2  0
 14 15  1  0
  9 16  1  0
 16 17  1  0
  3 18  1  0
 18 19  2  0
 19 20  1  0
 20 21  1  0
 21 22  2  0
 21 23  1  0
 23 24  1  0
 24 25  1  0
 25 26  1  0
 26 27  1  0
 27 28  1  0
 28 29  1  0
 29 30  1  0
 30 31  1  0
 31 32  1  0
 26 33  1  0
 33 34  1  0
 19 35  1  0
 35 36  1  0
 35  2  1  0
 16  5  2  0
 34 23  1  0
 15 11  1  0
 32 27  1  0
  1 37  1  0
  1 38  1  0
  4 39  1  0
 10 40  1  0
 10 41  1  0
 12 42  1  0
 13 43  1  0
 14 44  1  0
 18 45  1  0
 20 46  1  0
 20 47  1  0
 24 48  1  0
 24 49  1  0
 25 50  1  0
 25 51  1  0
 26 52  1  0
 28 53  1  0
 28 54  1  0
 29 55  1  0
 29 56  1  0
 30 57  1  0
 30 58  1  0
 31 59  1  0
 31 60  1  0
 32 61  1  0
 32 62  1  0
 33 63  1  0
 33 64  1  0
 34 65  1  0
 34 66  1  0
 36 67  1  0
 36 68  1  0
 36 69  1  0
M  CHG  2   6  -1  17  -1
M  END
>  <UniqueID>  (52) 
50

>  <SMILES>  (52) 
C=c1c(=Cc2[n-]c(=O)n(Cc3cccs3)c2[O-])cc(CC(=O)N2CCC(N3CCCCC3)CC2)n1C

>  <Energy>  (52) 
181.20883476051125

>  <Genealogy>  (52) 
C=c1c(=Cc2[n-]c(=O)n(Cc3cccs3)c2[O-])cc(CC(=O)N2CCC(N3CCCCC3)CC2)n1C (protonated)
C=c1c(=Cc2[n-]c(=O)n(Cc3cccs3)c2[O-])cc(CC(=O)N2CCC(N3CCCCC3)CC2)n1C (3D coordinates assigned)
C=c1c(=Cc2[n-]c(=O)n(Cc3cccs3)c2[O-])cc(CC(=O)N2CCC(N3CCCCC3)CC2)n1C (nonaromatic ring conformer: 181.20883476051125 kcal/mol)

>  <smiles>  (52) 
C=c1c(=Cc2[nH]c(=O)n(Cc3cccs3)c2O)cc(CC(=O)N2CCC(N3CCCCC3)CC2)n1C

>  <score_type>  (52) 
oracle

>  <origin>  (52) 
adg

>  <m_score__min__energy>  (52) 
-16.07

>  <m_primary>  (52) 
energy

$$$$
52:0
     RDKit          3D

 29 30  0  0  0  0  0  0  0  0999 V2000
   54.9380   24.1620   47.2260 H   0  0  0  0  0  0  0  0  0  0  0  0
   55.9490   24.2420   47.1980 O   0  0  0  0  0  0  0  0  0  0  0  0
   56.5870   25.3850   46.7220 C   0  0  0  0  0  0  0  0  0  0  0  0
   57.9750   25.4980   46.8570 C   0  0  0  0  0  0  0  0  0  0  0  0
   58.5449   24.6889   47.3370 H   0  0  0  0  0  0  0  0  0  0  0  0
   58.6420   26.6320   46.3860 C   0  0  0  0  0  0  0  0  0  0  0  0
   59.7313   26.7192   46.5120 H   0  0  0  0  0  0  0  0  0  0  0  0
   57.9280   27.6580   45.7540 C   0  0  0  0  0  0  0  0  0  0  0  0
   58.6460   28.8700   45.3030 C   0  0  0  0  0  0  0  0  0  0  0  0
   59.5869   28.7173   44.7540 H   0  0  0  0  0  0  0  0  0  0  0  0
   58.2490   30.1610   45.5050 C   0  0  0  0  0  0  0  0  0  0  0  0
   57.4220   30.8460   44.5590 C   0  0  0  0  0  0  0  0  0  0  0  0
   57.0240   30.3340   43.3820 C   0  0  0  0  0  0  0  0  0  0  0  0
   57.3116   29.3098   43.1023 H   0  0  0  0  0  0  0  0  0  0  0  0
   56.4106   30.9391   42.6982 H   0  0  0  0  0  0  0  0  0  0  0  0
   57.0240   32.1140   44.8250 N   0  0  0  0  0  0  0  0  0  0  0  0
   57.3920   32.7800   45.9400 C   0  0  0  0  0  0  0  0  0  0  0  0
   56.9700   33.9560   46.1130 O   0  0  0  0  0  0  0  0  0  0  0  0
   58.2050   32.1850   46.8620 N   0  0  0  0  0  0  0  0  0  0  0  0
   58.5770   32.9100   48.0900 C   0  0  0  0  0  0  0  0  0  0  0  0
   58.2751   32.3215   48.9689 H   0  0  0  0  0  0  0  0  0  0  0  0
   59.6659   33.0648   48.1088 H   0  0  0  0  0  0  0  0  0  0  0  0
   58.0677   33.8848   48.1088 H   0  0  0  0  0  0  0  0  0  0  0  0
   58.5940   30.8800   46.6900 C   0  0  0  0  0  0  0  0  0  0  0  0
   59.2260   30.3080   47.6220 O   0  0  0  0  0  0  0  0  0  0  0  0
   56.5290   27.5620   45.6420 C   0  0  0  0  0  0  0  0  0  0  0  0
   55.8140   28.5720   45.0830 F   0  0  0  0  0  0  0  0  0  0  0  0
   55.8620   26.4250   46.1150 C   0  0  0  0  0  0  0  0  0  0  0  0
   54.4800   26.3350   45.9860 O   0  0  0  0  0  0  0  0  0  0  0  0
  1  2  1  0
  2  3  1  0
  3  4  2  0
  4  5  1  0
  4  6  1  0
  6  7  1  0
  6  8  2  0
  8  9  1  0
  9 10  1  0
  9 11  2  0
 11 12  1  0
 12 13  2  0
 13 14  1  0
 13 15  1  0
 12 16  1  0
 16 17  1  0
 17 18  2  0
 17 19  1  0
 19 20  1  0
 20 21  1  0
 20 22  1  0
 20 23  1  0
 19 24  1  0
 24 25  2  0
  8 26  1  0
 26 27  1  0
 26 28  2  0
 28 29  1  0
 28  3  1  0
 24 11  1  0
M  CHG  2  16  -1  29  -1
M  END
>  <UniqueID>  (53) 
51

>  <SMILES>  (53) 
C=c1[n-]c(=O)n(C)c(=O)/c1=C\c1ccc(O)c([O-])c1F

>  <Energy>  (53) 
55.4995676610303

>  <Genealogy>  (53) 
C=c1[n-]c(=O)n(C)c(=O)c1=Cc1ccc(O)c([O-])c1F (protonated)
C=c1[n-]c(=O)n(C)c(=O)/c1=C\c1ccc(O)c([O-])c1F (cis-trans isomerization)
C=c1[n-]c(=O)n(C)c(=O)/c1=C\c1ccc(O)c([O-])c1F (3D coordinates assigned)
C=c1[n-]c(=O)n(C)c(=O)/c1=C\c1ccc(O)c([O-])c1F (optimized conformer: 55.4995676610303 kcal/mol)

>  <smiles>  (53) 
C=c1[nH]c(=O)n(C)c(=O)c1=Cc1ccc(O)c(O)c1F

>  <score_type>  (53) 
oracle

>  <origin>  (53) 
adg

>  <m_score__min__energy>  (53) 
-11.67

>  <m_primary>  (53) 
energy

$$$$
53:0
     RDKit          3D

 51 53  0  0  0  0  0  0  0  0999 V2000
   56.4990   30.7280   44.0160 C   0  0  0  0  0  0  0  0  0  0  0  0
   57.4000   31.6410   44.7930 C   0  0  0  0  0  0  0  0  0  0  0  0
   57.0310   32.9730   45.0350 C   0  0  0  0  0  0  0  0  0  0  0  0
   57.8690   33.8130   45.7750 C   0  0  0  0  0  0  0  0  0  0  0  0
   59.0770   33.3250   46.2870 C   0  0  0  0  0  0  0  0  0  0  0  0
   60.1550   34.4070   47.2260 S   0  0  0  0  0  0  0  0  0  0  0  0
   60.3680   33.2030   48.5370 C   0  0  0  0  0  0  0  0  0  0  0  0
   61.6520   32.8700   48.9820 C   0  0  0  0  0  0  0  0  0  0  0  0
   61.8190   31.9090   49.9820 C   0  0  0  0  0  0  0  0  0  0  0  0
   60.7030   31.2840   50.5470 C   0  0  0  0  0  0  0  0  0  0  0  0
   59.4090   31.6340   50.1290 C   0  0  0  0  0  0  0  0  0  0  0  0
   58.2240   30.9630   50.6980 C   0  0  0  0  0  0  0  0  0  0  0  0
   58.2430   29.7130   50.8410 O   0  0  0  0  0  0  0  0  0  0  0  0
   57.0440   31.6830   51.0740 N   0  0  0  0  0  0  0  0  0  0  0  0
   56.5690   31.8550   52.4420 C   0  0  0  0  0  0  0  0  0  0  0  0
   55.7880   30.6400   52.8550 C   0  0  0  0  0  0  0  0  0  0  0  0
   56.3110   29.8560   53.6920 O   0  0  0  0  0  0  0  0  0  0  0  0
   54.4540   30.3800   52.3500 N   0  0  0  0  0  0  0  0  0  0  0  0
   53.8980   29.0160   52.3870 C   0  0  0  0  0  0  0  0  0  0  0  0
   52.4740   29.0150   52.9660 C   0  0  0  0  0  0  0  0  0  0  0  0
   51.6330   30.2460   52.5640 C   0  0  0  0  0  0  0  0  0  0  0  0
   52.2400   31.0060   51.3730 C   0  0  1  0  0  0  0  0  0  0  0  0
   51.3850   32.1870   51.0050 C   0  0  0  0  0  0  0  0  0  0  0  0
   51.0280   32.3630   49.8090 O   0  0  0  0  0  0  0  0  0  0  0  0
   50.9920   33.1040   51.9750 O   0  0  0  0  0  0  0  0  0  0  0  0
   53.6720   31.4590   51.7200 C   0  0  0  0  0  0  0  0  0  0  0  0
   59.2500   32.5850   49.1090 C   0  0  0  0  0  0  0  0  0  0  0  0
   59.4450   31.9950   46.0560 C   0  0  0  0  0  0  0  0  0  0  0  0
   58.6100   31.1550   45.3130 C   0  0  0  0  0  0  0  0  0  0  0  0
   55.9013   30.1223   44.7131 H   0  0  0  0  0  0  0  0  0  0  0  0
   55.8282   31.3269   43.3825 H   0  0  0  0  0  0  0  0  0  0  0  0
   57.1067   30.0651   43.3825 H   0  0  0  0  0  0  0  0  0  0  0  0
   56.0788   33.3579   44.6411 H   0  0  0  0  0  0  0  0  0  0  0  0
   57.5786   34.8586   45.9550 H   0  0  0  0  0  0  0  0  0  0  0  0
   62.5310   33.3655   48.5439 H   0  0  0  0  0  0  0  0  0  0  0  0
   62.8297   31.6436   50.3254 H   0  0  0  0  0  0  0  0  0  0  0  0
   60.8393   30.5152   51.3219 H   0  0  0  0  0  0  0  0  0  0  0  0
   57.4289   31.9851   53.1155 H   0  0  0  0  0  0  0  0  0  0  0  0
   55.9232   32.7437   52.4979 H   0  0  0  0  0  0  0  0  0  0  0  0
   53.8705   28.6113   51.3645 H   0  0  0  0  0  0  0  0  0  0  0  0
   54.5378   28.3950   53.0312 H   0  0  0  0  0  0  0  0  0  0  0  0
   51.9567   28.1115   52.6110 H   0  0  0  0  0  0  0  0  0  0  0  0
   52.5751   29.0418   54.0610 H   0  0  0  0  0  0  0  0  0  0  0  0
   50.6222   29.9093   52.2903 H   0  0  0  0  0  0  0  0  0  0  0  0
   51.6099   30.9321   53.4235 H   0  0  0  0  0  0  0  0  0  0  0  0
   52.2796   30.3326   50.5041 H   0  0  0  0  0  0  0  0  0  0  0  0
   54.1793   31.7724   50.7957 H   0  0  0  0  0  0  0  0  0  0  0  0
   53.6015   32.2909   52.4363 H   0  0  0  0  0  0  0  0  0  0  0  0
   58.2410   32.8461   48.7572 H   0  0  0  0  0  0  0  0  0  0  0  0
   60.3929   31.6096   46.4596 H   0  0  0  0  0  0  0  0  0  0  0  0
   58.9023   30.1095   45.1353 H   0  0  0  0  0  0  0  0  0  0  0  0
  1  2  1  0
  2  3  2  0
  3  4  1  0
  4  5  2  0
  5  6  1  0
  6  7  1  0
  7  8  2  0
  8  9  1  0
  9 10  2  0
 10 11  1  0
 11 12  1  0
 12 13  2  0
 12 14  1  0
 14 15  1  0
 15 16  1  0
 16 17  2  0
 16 18  1  0
 18 19  1  0
 19 20  1  0
 20 21  1  0
 21 22  1  0
 22 23  1  0
 23 24  2  0
 23 25  1  0
 22 26  1  0
 11 27  2  0
  5 28  1  0
 28 29  2  0
 29  2  1  0
 27  7  1  0
 26 18  1  0
  1 30  1  0
  1 31  1  0
  1 32  1  0
  3 33  1  0
  4 34  1  0
  8 35  1  0
  9 36  1  0
 10 37  1  0
 15 38  1  0
 15 39  1  0
 19 40  1  0
 19 41  1  0
 20 42  1  0
 20 43  1  0
 21 44  1  0
 21 45  1  0
 22 46  1  6
 26 47  1  0
 26 48  1  0
 27 49  1  0
 28 50  1  0
 29 51  1  0
M  CHG  2  14  -1  25  -1
M  END
>  <UniqueID>  (54) 
52

>  <SMILES>  (54) 
Cc1ccc(Sc2cccc(C(=O)[N-]CC(=O)N3CCC[C@@H](C(=O)[O-])C3)c2)cc1

>  <Energy>  (54) 
51.41906801535687

>  <Genealogy>  (54) 
Cc1ccc(Sc2cccc(C(=O)[N-]CC(=O)N3CCCC(C(=O)[O-])C3)c2)cc1 (protonated)
Cc1ccc(Sc2cccc(C(=O)[N-]CC(=O)N3CCC[C@@H](C(=O)[O-])C3)c2)cc1 (chirality)
Cc1ccc(Sc2cccc(C(=O)[N-]CC(=O)N3CCC[C@@H](C(=O)[O-])C3)c2)cc1 (3D coordinates assigned)
Cc1ccc(Sc2cccc(C(=O)[N-]CC(=O)N3CCC[C@@H](C(=O)[O-])C3)c2)cc1 (nonaromatic ring conformer: 51.41906801535687 kcal/mol)

>  <smiles>  (54) 
Cc1ccc(Sc2cccc(C(=O)NCC(=O)N3CCCC(C(=O)O)C3)c2)cc1

>  <score_type>  (54) 
oracle

>  <origin>  (54) 
adg

>  <m_score__min__energy>  (54) 
-14.449999999999999

>  <m_primary>  (54) 
energy

$$$$
54:0
     RDKit          3D

 47 49  0  0  0  0  0  0  0  0999 V2000
   54.5800   24.8800   45.6070 C   0  0  0  0  0  0  0  0  0  0  0  0
   55.1080   26.1440   45.9940 O   0  0  0  0  0  0  0  0  0  0  0  0
   56.4180   26.3040   46.4580 C   0  0  0  0  0  0  0  0  0  0  0  0
   56.9920   25.3610   47.0690 O   0  0  0  0  0  0  0  0  0  0  0  0
   57.1290   27.5830   46.2310 C   0  0  0  0  0  0  0  0  0  0  0  0
   56.8610   28.3490   45.0820 C   0  0  0  0  0  0  0  0  0  0  0  0
   57.5330   29.5520   44.8610 C   0  0  0  0  0  0  0  0  0  0  0  0
   58.4790   30.0080   45.7810 C   0  0  0  0  0  0  0  0  0  0  0  0
   58.7570   29.2620   46.9370 C   0  0  0  0  0  0  0  0  0  0  0  0
   59.7980   29.7470   47.9090 C   0  0  0  0  0  0  0  0  0  0  0  0
   59.2280   29.8440   49.2510 N   0  0  0  0  0  0  0  0  0  0  0  0
   58.8270   31.0970   49.8270 C   0  0  0  0  0  0  0  0  0  0  0  0
   59.0460   32.1720   49.2020 O   0  0  0  0  0  0  0  0  0  0  0  0
   58.1560   31.1360   51.1440 C   0  0  0  0  0  0  0  0  0  0  0  0
   58.8640   31.4730   52.3080 C   0  0  0  0  0  0  0  0  0  0  0  0
   58.1920   31.5120   53.5300 C   0  0  0  0  0  0  0  0  0  0  0  0
   56.8300   31.2140   53.5890 C   0  0  0  0  0  0  0  0  0  0  0  0
   56.1450   30.8710   52.4110 C   0  0  0  0  0  0  0  0  0  0  0  0
   54.6930   30.5510   52.4140 C   0  0  0  0  0  0  0  0  0  0  0  0
   54.2200   29.3060   52.8570 C   0  0  0  0  0  0  0  0  0  0  0  0
   52.8540   29.0220   52.8430 C   0  0  0  0  0  0  0  0  0  0  0  0
   51.9360   29.9690   52.3820 C   0  0  0  0  0  0  0  0  0  0  0  0
   50.5860   29.6380   52.3880 O   0  0  0  0  0  0  0  0  0  0  0  0
   52.3850   31.2270   51.9190 C   0  0  0  0  0  0  0  0  0  0  0  0
   51.4450   32.2660   51.4140 C   0  0  0  0  0  0  0  0  0  0  0  0
   51.0580   32.3110   50.0430 N   0  0  0  0  0  0  0  0  0  0  0  0
   50.9730   33.1280   52.2050 O   0  0  0  0  0  0  0  0  0  0  0  0
   53.7680   31.4990   51.9390 C   0  0  0  0  0  0  0  0  0  0  0  0
   56.8280   30.8500   51.2330 N   0  0  0  0  0  0  0  0  0  0  0  0
   58.0830   28.0490   47.1540 C   0  0  0  0  0  0  0  0  0  0  0  0
   54.3353   24.2942   46.5053 H   0  0  0  0  0  0  0  0  0  0  0  0
   53.6696   25.0307   45.0083 H   0  0  0  0  0  0  0  0  0  0  0  0
   55.3271   24.3383   45.0083 H   0  0  0  0  0  0  0  0  0  0  0  0
   56.1165   27.9973   44.3526 H   0  0  0  0  0  0  0  0  0  0  0  0
   57.3166   30.1430   43.9588 H   0  0  0  0  0  0  0  0  0  0  0  0
   59.0082   30.9551   45.5993 H   0  0  0  0  0  0  0  0  0  0  0  0
   60.6405   29.0399   47.9222 H   0  0  0  0  0  0  0  0  0  0  0  0
   60.1477   30.7414   47.5945 H   0  0  0  0  0  0  0  0  0  0  0  0
   59.1110   28.9610   49.7960 H   0  0  0  0  0  0  0  0  0  0  0  0
   59.9382   31.7041   52.2573 H   0  0  0  0  0  0  0  0  0  0  0  0
   58.7364   31.7780   54.4481 H   0  0  0  0  0  0  0  0  0  0  0  0
   56.2966   31.2474   54.5504 H   0  0  0  0  0  0  0  0  0  0  0  0
   54.9314   28.5486   53.2179 H   0  0  0  0  0  0  0  0  0  0  0  0
   52.4967   28.0441   53.1980 H   0  0  0  0  0  0  0  0  0  0  0  0
   50.0510   32.3380   49.7670 H   0  0  0  0  0  0  0  0  0  0  0  0
   54.1313   32.4717   51.5760 H   0  0  0  0  0  0  0  0  0  0  0  0
   58.3033   27.4574   48.0548 H   0  0  0  0  0  0  0  0  0  0  0  0
  1  2  1  0
  2  3  1  0
  3  4  2  0
  3  5  1  0
  5  6  2  0
  6  7  1  0
  7  8  2  0
  8  9  1  0
  9 10  1  0
 10 11  1  0
 11 12  1  0
 12 13  2  0
 12 14  1  0
 14 15  2  0
 15 16  1  0
 16 17  2  0
 17 18  1  0
 18 19  1  0
 19 20  2  0
 20 21  1  0
 21 22  2  0
 22 23  1  0
 22 24  1  0
 24 25  1  0
 25 26  1  0
 25 27  2  0
 24 28  2  0
 18 29  2  0
  9 30  2  0
 30  5  1  0
 29 14  1  0
 28 19  1  0
  1 31  1  0
  1 32  1  0
  1 33  1  0
  6 34  1  0
  7 35  1  0
  8 36  1  0
 10 37  1  0
 10 38  1  0
 11 39  1  0
 15 40  1  0
 16 41  1  0
 17 42  1  0
 20 43  1  0
 21 44  1  0
 26 45  1  0
 28 46  1  0
 30 47  1  0
M  CHG  2  23  -1  26  -1
M  END
>  <UniqueID>  (55) 
53

>  <SMILES>  (55) 
COC(=O)c1cccc(CNC(=O)c2cccc(-c3ccc([O-])c(C([NH-])=O)c3)n2)c1

>  <Energy>  (55) 
52.32472489640564

>  <Genealogy>  (55) 
COC(=O)c1cccc(CNC(=O)c2cccc(-c3ccc([O-])c(C([NH-])=O)c3)n2)c1 (protonated)
COC(=O)c1cccc(CNC(=O)c2cccc(-c3ccc([O-])c(C([NH-])=O)c3)n2)c1 (3D coordinates assigned)
COC(=O)c1cccc(CNC(=O)c2cccc(-c3ccc([O-])c(C([NH-])=O)c3)n2)c1 (optimized conformer: 52.32472489640564 kcal/mol)

>  <smiles>  (55) 
COC(=O)c1cccc(CNC(=O)c2cccc(-c3ccc(O)c(C(N)=O)c3)n2)c1

>  <score_type>  (55) 
oracle

>  <origin>  (55) 
adg

>  <m_score__min__energy>  (55) 
-15.82

>  <m_primary>  (55) 
energy

$$$$
55:0
     RDKit          3D

 48 50  0  0  0  0  0  0  0  0999 V2000
   58.3460   34.5870   45.6180 C   0  0  0  0  0  0  0  0  0  0  0  0
   58.2930   33.1290   45.2450 C   0  0  0  0  0  0  0  0  0  0  0  0
   57.7700   32.7670   43.9920 C   0  0  0  0  0  0  0  0  0  0  0  0
   57.7270   31.4300   43.5980 C   0  0  0  0  0  0  0  0  0  0  0  0
   58.2240   30.4260   44.4340 C   0  0  0  0  0  0  0  0  0  0  0  0
   58.1530   29.0550   44.0070 N   0  0  0  0  0  0  0  0  0  0  0  0
   57.9630   27.9450   44.9000 C   0  0  0  0  0  0  0  0  0  0  0  0
   58.0510   28.1020   46.1480 O   0  0  0  0  0  0  0  0  0  0  0  0
   57.7490   26.5680   44.3500 C   0  0  0  0  0  0  0  0  0  0  0  0
   57.3780   25.6160   45.4580 C   0  0  0  0  0  0  0  0  0  0  0  0
   58.2150   24.5350   45.7660 C   0  0  0  0  0  0  0  0  0  0  0  0
   57.8670   23.6580   46.7430 N   0  0  0  0  0  0  0  0  0  0  0  0
   56.7080   23.8040   47.4320 C   0  0  0  0  0  0  0  0  0  0  0  0
   56.3140   22.7360   48.6020 S   0  0  0  0  0  0  0  0  0  0  0  0
   55.8730   24.8370   47.1480 N   0  0  0  0  0  0  0  0  0  0  0  0
   56.1760   25.7400   46.1790 C   0  0  0  0  0  0  0  0  0  0  0  0
   55.3740   26.6800   45.9410 O   0  0  0  0  0  0  0  0  0  0  0  0
   58.7340   30.7750   45.6950 C   0  0  0  0  0  0  0  0  0  0  0  0
   58.7860   32.1180   46.1060 C   0  0  0  0  0  0  0  0  0  0  0  0
   59.4740   32.5010   47.6940 S   0  0  0  0  0  0  0  0  0  0  0  0
   58.8590   33.7770   48.1960 O   0  0  0  0  0  0  0  0  0  0  0  0
   59.1610   31.4030   48.6750 O   0  0  0  0  0  0  0  0  0  0  0  0
   61.2060   32.6850   47.5660 N   0  0  0  0  0  0  0  0  0  0  0  0
   61.7880   32.8850   48.9100 C   0  0  0  0  0  0  0  0  0  0  0  0
   63.2580   33.3610   48.8520 C   0  0  0  0  0  0  0  0  0  0  0  0
   63.8680   33.1430   47.4650 C   0  0  0  0  0  0  0  0  0  0  0  0
   63.0380   33.8510   46.3820 C   0  0  0  0  0  0  0  0  0  0  0  0
   61.5270   33.8160   46.6800 C   0  0  0  0  0  0  0  0  0  0  0  0
   58.3496   34.6853   46.7136 H   0  0  0  0  0  0  0  0  0  0  0  0
   59.2611   35.0377   45.2064 H   0  0  0  0  0  0  0  0  0  0  0  0
   57.4660   35.1030   45.2064 H   0  0  0  0  0  0  0  0  0  0  0  0
   57.3905   33.5464   43.3149 H   0  0  0  0  0  0  0  0  0  0  0  0
   57.2982   31.1631   42.6208 H   0  0  0  0  0  0  0  0  0  0  0  0
   58.3440   28.8450   43.0020 H   0  0  0  0  0  0  0  0  0  0  0  0
   56.9376   26.5954   43.6078 H   0  0  0  0  0  0  0  0  0  0  0  0
   58.6798   26.2222   43.8768 H   0  0  0  0  0  0  0  0  0  0  0  0
   59.1568   24.3963   45.2148 H   0  0  0  0  0  0  0  0  0  0  0  0
   59.0977   29.9865   46.3703 H   0  0  0  0  0  0  0  0  0  0  0  0
   61.1929   33.6408   49.4435 H   0  0  0  0  0  0  0  0  0  0  0  0
   61.7700   31.9161   49.4304 H   0  0  0  0  0  0  0  0  0  0  0  0
   63.2955   34.4335   49.0936 H   0  0  0  0  0  0  0  0  0  0  0  0
   63.8382   32.7734   49.5786 H   0  0  0  0  0  0  0  0  0  0  0  0
   64.8916   33.5456   47.4546 H   0  0  0  0  0  0  0  0  0  0  0  0
   63.8768   32.0640   47.2511 H   0  0  0  0  0  0  0  0  0  0  0  0
   63.3611   34.9006   46.3198 H   0  0  0  0  0  0  0  0  0  0  0  0
   63.2040   33.3199   45.4331 H   0  0  0  0  0  0  0  0  0  0  0  0
   61.2321   34.7556   47.1700 H   0  0  0  0  0  0  0  0  0  0  0  0
   60.9789   33.6956   45.7339 H   0  0  0  0  0  0  0  0  0  0  0  0
  1  2  1  0
  2  3  2  0
  3  4  1  0
  4  5  2  0
  5  6  1  0
  6  7  1  0
  7  8  2  0
  7  9  1  0
  9 10  1  0
 10 11  2  0
 11 12  1  0
 12 13  1  0
 13 14  2  0
 13 15  1  0
 15 16  1  0
 16 17  2  0
  5 18  1  0
 18 19  2  0
 19 20  1  0
 20 21  2  0
 20 22  2  0
 20 23  1  0
 23 24  1  0
 24 25  1  0
 25 26  1  0
 26 27  1  0
 27 28  1  0
 19  2  1  0
 28 23  1  0
 16 10  1  0
  1 29  1  0
  1 30  1  0
  1 31  1  0
  3 32  1  0
  4 33  1  0
  6 34  1  0
  9 35  1  0
  9 36  1  0
 11 37  1  0
 18 38  1  0
 24 39  1  0
 24 40  1  0
 25 41  1  0
 25 42  1  0
 26 43  1  0
 26 44  1  0
 27 45  1  0
 27 46  1  0
 28 47  1  0
 28 48  1  0
M  CHG  2  12  -1  15  -1
M  END
>  <UniqueID>  (56) 
54

>  <SMILES>  (56) 
Cc1ccc(NC(=O)Cc2c[n-]c(=S)[n-]c2=O)cc1S(=O)(=O)N1CCCCC1

>  <Energy>  (56) 
55.56886174981856

>  <Genealogy>  (56) 
Cc1ccc(NC(=O)Cc2c[n-]c(=S)[n-]c2=O)cc1S(=O)(=O)N1CCCCC1 (protonated)
Cc1ccc(NC(=O)Cc2c[n-]c(=S)[n-]c2=O)cc1S(=O)(=O)N1CCCCC1 (3D coordinates assigned)
Cc1ccc(NC(=O)Cc2c[n-]c(=S)[n-]c2=O)cc1S(=O)(=O)N1CCCCC1 (nonaromatic ring conformer: 55.56886174981856 kcal/mol)

>  <smiles>  (56) 
Cc1ccc(NC(=O)Cc2c[nH]c(=S)[nH]c2=O)cc1S(=O)(=O)N1CCCCC1

>  <score_type>  (56) 
oracle

>  <origin>  (56) 
adg

>  <m_score__min__energy>  (56) 
-13.130000000000001

>  <m_primary>  (56) 
energy

$$$$
56:0
     RDKit          3D

 26 27  0  0  0  0  0  0  0  0999 V2000
   58.1500   31.3750   52.9530 N   0  0  0  0  0  0  0  0  0  0  0  0
   57.3940   30.0320   52.1690 S   0  0  0  0  0  0  0  0  0  0  0  0
   57.7290   30.0540   50.7040 O   0  0  0  0  0  0  0  0  0  0  0  0
   57.9090   28.7510   52.7620 O   0  0  0  0  0  0  0  0  0  0  0  0
   55.6480   30.1280   52.3830 C   0  0  0  0  0  0  0  0  0  0  0  0
   55.0050   29.2860   53.3010 C   0  0  0  0  0  0  0  0  0  0  0  0
   53.6180   29.3490   53.4610 C   0  0  0  0  0  0  0  0  0  0  0  0
   52.8580   30.2580   52.7060 C   0  0  0  0  0  0  0  0  0  0  0  0
   51.3620   30.2980   52.8470 C   0  0  0  0  0  0  0  0  0  0  0  0
   50.8990   31.7100   53.0360 C   0  0  0  0  0  0  0  0  0  0  0  0
   50.7240   32.4820   54.5220 S   0  0  0  0  0  0  0  0  0  0  0  0
   50.3040   33.9480   53.8110 C   0  0  0  0  0  0  0  0  0  0  0  0
   49.9490   35.3060   54.6430 S   0  0  0  0  0  0  0  0  0  0  0  0
   50.3040   33.8820   52.4630 N   0  0  0  0  0  0  0  0  0  0  0  0
   50.6430   32.6390   52.0310 C   0  0  0  0  0  0  0  0  0  0  0  0
   50.7250   32.3340   50.6780 O   0  0  0  0  0  0  0  0  0  0  0  0
   53.5040   31.0850   51.7740 C   0  0  0  0  0  0  0  0  0  0  0  0
   54.8910   31.0210   51.6150 C   0  0  0  0  0  0  0  0  0  0  0  0
   58.8880   30.9850   53.5810 H   0  0  0  0  0  0  0  0  0  0  0  0
   57.4290   31.8120   53.5710 H   0  0  0  0  0  0  0  0  0  0  0  0
   55.5939   28.5735   53.8973 H   0  0  0  0  0  0  0  0  0  0  0  0
   53.1192   28.6839   54.1813 H   0  0  0  0  0  0  0  0  0  0  0  0
   50.9000   29.8823   51.9394 H   0  0  0  0  0  0  0  0  0  0  0  0
   51.0676   29.7028   53.7239 H   0  0  0  0  0  0  0  0  0  0  0  0
   52.9154   31.7873   51.1654 H   0  0  0  0  0  0  0  0  0  0  0  0
   55.3897   31.6744   50.8840 H   0  0  0  0  0  0  0  0  0  0  0  0
  1  2  1  0
  2  3  2  0
  2  4  2  0
  2  5  1  0
  5  6  2  0
  6  7  1  0
  7  8  2  0
  8  9  1  0
  9 10  1  0
 10 11  1  0
 11 12  1  0
 12 13  2  0
 12 14  1  0
 14 15  1  0
 15 16  1  0
  8 17  1  0
 17 18  2  0
 18  5  1  0
 15 10  2  0
  1 19  1  0
  1 20  1  0
  6 21  1  0
  7 22  1  0
  9 23  1  0
  9 24  1  0
 17 25  1  0
 18 26  1  0
M  CHG  2  14  -1  16  -1
M  END
>  <UniqueID>  (57) 
55

>  <SMILES>  (57) 
NS(=O)(=O)c1ccc(Cc2sc(=S)[n-]c2[O-])cc1

>  <Energy>  (57) 
53.50986438389982

>  <Genealogy>  (57) 
NS(=O)(=O)c1ccc(Cc2sc(=S)[n-]c2[O-])cc1 (protonated)
NS(=O)(=O)c1ccc(Cc2sc(=S)[n-]c2[O-])cc1 (3D coordinates assigned)
NS(=O)(=O)c1ccc(Cc2sc(=S)[n-]c2[O-])cc1 (optimized conformer: 53.50986438389982 kcal/mol)

>  <smiles>  (57) 
NS(=O)(=O)c1ccc(Cc2sc(=S)[nH]c2O)cc1

>  <score_type>  (57) 
oracle

>  <origin>  (57) 
adg

>  <m_score__min__energy>  (57) 
-13.4

>  <m_primary>  (57) 
energy

$$$$
57:0
     RDKit          3D

 51 54  0  0  0  0  0  0  0  0999 V2000
   55.1440   29.8240   44.9800 O   0  0  0  0  0  0  0  0  0  0  0  0
   56.0780   28.9860   44.8650 C   0  0  0  0  0  0  0  0  0  0  0  0
   57.1870   29.2440   43.8790 C   0  0  0  0  0  0  0  0  0  0  0  0
   57.3850   30.7140   43.6510 C   0  0  0  0  0  0  0  0  0  0  0  0
   57.4300   31.3620   42.4200 C   0  0  0  0  0  0  0  0  0  0  0  0
   57.7100   32.6740   42.5850 N   0  0  0  0  0  0  0  0  0  0  0  0
   57.8610   32.8580   43.9090 C   0  0  0  0  0  0  0  0  0  0  0  0
   58.1770   34.0450   44.5680 C   0  0  0  0  0  0  0  0  0  0  0  0
   58.2890   34.0100   45.9700 C   0  0  0  0  0  0  0  0  0  0  0  0
   58.0960   32.8000   46.6730 C   0  0  0  0  0  0  0  0  0  0  0  0
   57.7920   31.6130   45.9800 C   0  0  0  0  0  0  0  0  0  0  0  0
   57.6730   31.6830   44.5910 C   0  0  0  0  0  0  0  0  0  0  0  0
   55.9950   27.7680   45.6160 N   0  0  0  0  0  0  0  0  0  0  0  0
   56.8800   26.6160   45.4900 C   0  0  0  0  0  0  0  0  0  0  0  0
   57.7790   26.5000   46.6910 C   0  0  0  0  0  0  0  0  0  0  0  0
   57.4770   25.6600   47.5820 O   0  0  0  0  0  0  0  0  0  0  0  0
   58.9590   27.3240   46.8470 N   0  0  0  0  0  0  0  0  0  0  0  0
   59.3270   28.3120   45.8150 C   0  0  0  0  0  0  0  0  0  0  0  0
   60.6220   29.0490   46.1710 C   0  0  0  0  0  0  0  0  0  0  0  0
   60.5660   29.4850   47.5710 N   0  0  0  0  0  0  0  0  0  0  0  0
   60.6800   30.8810   47.9050 C   0  0  0  0  0  0  0  0  0  0  0  0
   61.5580   31.7090   47.1820 C   0  0  0  0  0  0  0  0  0  0  0  0
   61.6680   33.0680   47.4910 C   0  0  0  0  0  0  0  0  0  0  0  0
   60.9010   33.6130   48.5250 C   0  0  0  0  0  0  0  0  0  0  0  0
   60.0220   32.8030   49.2460 C   0  0  0  0  0  0  0  0  0  0  0  0
   59.9100   31.4410   48.9440 C   0  0  0  0  0  0  0  0  0  0  0  0
   59.0720   30.6700   49.6820 F   0  0  0  0  0  0  0  0  0  0  0  0
   60.2050   28.5150   48.6160 C   0  0  0  0  0  0  0  0  0  0  0  0
   59.8340   27.1510   48.0200 C   0  0  0  0  0  0  0  0  0  0  0  0
   58.1208   28.8133   44.2696 H   0  0  0  0  0  0  0  0  0  0  0  0
   56.9138   28.7784   42.9206 H   0  0  0  0  0  0  0  0  0  0  0  0
   57.2613   30.8745   41.4485 H   0  0  0  0  0  0  0  0  0  0  0  0
   57.8170   33.3910   41.8320 H   0  0  0  0  0  0  0  0  0  0  0  0
   58.3338   34.9796   44.0095 H   0  0  0  0  0  0  0  0  0  0  0  0
   58.5284   34.9307   46.5223 H   0  0  0  0  0  0  0  0  0  0  0  0
   58.1839   32.7852   47.7694 H   0  0  0  0  0  0  0  0  0  0  0  0
   57.6529   30.6621   46.5152 H   0  0  0  0  0  0  0  0  0  0  0  0
   56.2732   25.7026   45.4040 H   0  0  0  0  0  0  0  0  0  0  0  0
   57.5038   26.7466   44.5935 H   0  0  0  0  0  0  0  0  0  0  0  0
   59.4656   27.7909   44.8562 H   0  0  0  0  0  0  0  0  0  0  0  0
   58.5180   29.0542   45.7475 H   0  0  0  0  0  0  0  0  0  0  0  0
   61.4789   28.3736   46.0310 H   0  0  0  0  0  0  0  0  0  0  0  0
   60.7369   29.9263   45.5174 H   0  0  0  0  0  0  0  0  0  0  0  0
   62.1626   31.2839   46.3673 H   0  0  0  0  0  0  0  0  0  0  0  0
   62.3575   33.7080   46.9210 H   0  0  0  0  0  0  0  0  0  0  0  0
   60.9903   34.6815   48.7707 H   0  0  0  0  0  0  0  0  0  0  0  0
   59.4152   33.2368   50.0544 H   0  0  0  0  0  0  0  0  0  0  0  0
   61.0613   28.3866   49.2944 H   0  0  0  0  0  0  0  0  0  0  0  0
   59.3289   28.9030   49.1563 H   0  0  0  0  0  0  0  0  0  0  0  0
   60.7517   26.6276   47.7136 H   0  0  0  0  0  0  0  0  0  0  0  0
   59.2994   26.5628   48.7804 H   0  0  0  0  0  0  0  0  0  0  0  0
  1  2  2  0
  2  3  1  0
  3  4  1  0
  4  5  2  0
  5  6  1  0
  6  7  1  0
  7  8  2  0
  8  9  1  0
  9 10  2  0
 10 11  1  0
 11 12  2  0
  2 13  1  0
 13 14  1  0
 14 15  1  0
 15 16  2  0
 15 17  1  0
 17 18  1  0
 18 19  1  0
 19 20  1  0
 20 21  1  0
 21 22  2  0
 22 23  1  0
 23 24  2  0
 24 25  1  0
 25 26  2  0
 26 27  1  0
 20 28  1  0
 28 29  1  0
 12  4  1  0
 29 17  1  0
 12  7  1  0
 26 21  1  0
  3 30  1  0
  3 31  1  0
  5 32  1  0
  6 33  1  0
  8 34  1  0
  9 35  1  0
 10 36  1  0
 11 37  1  0
 14 38  1  0
 14 39  1  0
 18 40  1  0
 18 41  1  0
 19 42  1  0
 19 43  1  0
 22 44  1  0
 23 45  1  0
 24 46  1  0
 25 47  1  0
 28 48  1  0
 28 49  1  0
 29 50  1  0
 29 51  1  0
M  CHG  1  13  -1
M  END
>  <UniqueID>  (58) 
56

>  <SMILES>  (58) 
O=C(Cc1c[nH]c2ccccc12)[N-]CC(=O)N1CCN(c2ccccc2F)CC1

>  <Energy>  (58) 
90.96200126470895

>  <Genealogy>  (58) 
O=C(Cc1c[nH]c2ccccc12)[N-]CC(=O)N1CCN(c2ccccc2F)CC1 (protonated)
O=C(Cc1c[nH]c2ccccc12)[N-]CC(=O)N1CCN(c2ccccc2F)CC1 (3D coordinates assigned)
O=C(Cc1c[nH]c2ccccc12)[N-]CC(=O)N1CCN(c2ccccc2F)CC1 (nonaromatic ring conformer: 90.96200126470895 kcal/mol)

>  <smiles>  (58) 
O=C(Cc1c[nH]c2ccccc12)NCC(=O)N1CCN(c2ccccc2F)CC1

>  <score_type>  (58) 
oracle

>  <origin>  (58) 
adg

>  <m_score__min__energy>  (58) 
-10.67

>  <m_primary>  (58) 
energy

$$$$
58:0
     RDKit          3D

 44 45  0  0  0  0  0  0  0  0999 V2000
   60.4680   30.5720   46.4130 C   0  0  0  0  0  0  0  0  0  0  0  0
   60.0780   30.3920   47.8800 C   0  0  0  0  0  0  0  0  0  0  0  0
   60.4280   28.9980   48.4190 C   0  0  0  0  0  0  0  0  0  0  0  0
   59.2590   28.0090   48.3090 C   0  0  0  0  0  0  0  0  0  0  0  0
   58.7970   27.9330   46.9200 N   0  0  0  0  0  0  0  0  0  0  0  0
   57.8360   28.7760   46.5270 N   0  0  0  0  0  0  0  0  0  0  0  0
   57.3990   28.8300   45.2420 C   0  0  0  0  0  0  0  0  0  0  0  0
   56.3370   29.7780   44.8730 C   0  0  0  0  0  0  0  0  0  0  0  0
   55.1450   29.3760   44.8290 O   0  0  0  0  0  0  0  0  0  0  0  0
   56.6190   31.1530   44.5830 N   0  0  0  0  0  0  0  0  0  0  0  0
   57.3920   32.0370   45.4520 C   0  0  0  0  0  0  0  0  0  0  0  0
   57.4130   33.4570   44.8820 C   0  0  0  0  0  0  0  0  0  0  0  0
   58.7510   34.0370   44.9920 N   0  0  0  0  0  0  0  0  0  0  0  0
   59.4500   34.0830   46.0870 C   0  0  0  0  0  0  0  0  0  0  0  0
   60.7750   33.7830   46.0450 N   0  0  0  0  0  0  0  0  0  0  0  0
   61.5480   33.8270   47.1640 C   0  0  0  0  0  0  0  0  0  0  0  0
   63.0080   33.4920   47.0860 C   0  0  0  0  0  0  0  0  0  0  0  0
   63.1940   32.1200   47.1050 F   0  0  0  0  0  0  0  0  0  0  0  0
   63.6720   34.0470   48.1650 F   0  0  0  0  0  0  0  0  0  0  0  0
   63.5390   33.9970   45.9140 F   0  0  0  0  0  0  0  0  0  0  0  0
   60.9690   34.1910   48.3850 C   0  0  0  0  0  0  0  0  0  0  0  0
   59.6100   34.4970   48.4130 C   0  0  0  0  0  0  0  0  0  0  0  0
   58.8780   34.4380   47.2720 N   0  0  0  0  0  0  0  0  0  0  0  0
   57.9560   27.9670   44.2970 C   0  0  0  0  0  0  0  0  0  0  0  0
   58.9550   27.0830   44.6900 C   0  0  0  0  0  0  0  0  0  0  0  0
   59.3780   27.0780   46.0200 C   0  0  0  0  0  0  0  0  0  0  0  0
   60.2950   26.2880   46.3750 O   0  0  0  0  0  0  0  0  0  0  0  0
   61.4652   31.0323   46.3525 H   0  0  0  0  0  0  0  0  0  0  0  0
   60.4861   29.5912   45.9154 H   0  0  0  0  0  0  0  0  0  0  0  0
   59.7333   31.2221   45.9154 H   0  0  0  0  0  0  0  0  0  0  0  0
   60.6094   31.1451   48.4804 H   0  0  0  0  0  0  0  0  0  0  0  0
   58.9868   30.5114   47.9509 H   0  0  0  0  0  0  0  0  0  0  0  0
   61.2788   28.6023   47.8450 H   0  0  0  0  0  0  0  0  0  0  0  0
   60.6720   29.1063   49.4861 H   0  0  0  0  0  0  0  0  0  0  0  0
   59.5918   27.0133   48.6374 H   0  0  0  0  0  0  0  0  0  0  0  0
   58.4320   28.3544   48.9467 H   0  0  0  0  0  0  0  0  0  0  0  0
   56.9340   32.0542   46.4520 H   0  0  0  0  0  0  0  0  0  0  0  0
   58.4241   31.6621   45.5166 H   0  0  0  0  0  0  0  0  0  0  0  0
   57.1188   33.4255   43.8225 H   0  0  0  0  0  0  0  0  0  0  0  0
   56.7091   34.0790   45.4545 H   0  0  0  0  0  0  0  0  0  0  0  0
   61.5738   34.2346   49.3028 H   0  0  0  0  0  0  0  0  0  0  0  0
   59.1306   34.7863   49.3598 H   0  0  0  0  0  0  0  0  0  0  0  0
   57.6088   27.9859   43.2534 H   0  0  0  0  0  0  0  0  0  0  0  0
   59.4070   26.3950   43.9604 H   0  0  0  0  0  0  0  0  0  0  0  0
  1  2  1  0
  2  3  1  0
  3  4  1  0
  4  5  1  0
  5  6  1  0
  6  7  2  0
  7  8  1  0
  8  9  2  0
  8 10  1  0
 10 11  1  0
 11 12  1  0
 12 13  1  0
 13 14  2  3
 14 15  1  0
 15 16  2  0
 16 17  1  0
 17 18  1  0
 17 19  1  0
 17 20  1  0
 16 21  1  0
 21 22  2  0
 22 23  1  0
  7 24  1  0
 24 25  2  0
 25 26  1  0
 26 27  2  0
 26  5  1  0
 23 14  1  0
  1 28  1  0
  1 29  1  0
  1 30  1  0
  2 31  1  0
  2 32  1  0
  3 33  1  0
  3 34  1  0
  4 35  1  0
  4 36  1  0
 11 37  1  0
 11 38  1  0
 12 39  1  0
 12 40  1  0
 21 41  1  0
 22 42  1  0
 24 43  1  0
 25 44  1  0
M  CHG  2  10  -1  23  -1
M  END
>  <UniqueID>  (59) 
57

>  <SMILES>  (59) 
CCCCn1nc(C(=O)[N-]CCN=c2nc(C(F)(F)F)cc[n-]2)ccc1=O

>  <Energy>  (59) 
38.787543187585335

>  <Genealogy>  (59) 
CCCCn1nc(C(=O)[N-]CCN=c2nc(C(F)(F)F)cc[n-]2)ccc1=O (protonated)
CCCCn1nc(C(=O)[N-]CCN=c2nc(C(F)(F)F)cc[n-]2)ccc1=O (3D coordinates assigned)
CCCCn1nc(C(=O)[N-]CCN=c2nc(C(F)(F)F)cc[n-]2)ccc1=O (optimized conformer: 38.787543187585335 kcal/mol)

>  <smiles>  (59) 
CCCCn1nc(C(=O)NCCN=c2nc(C(F)(F)F)cc[nH]2)ccc1=O

>  <score_type>  (59) 
oracle

>  <origin>  (59) 
adg

>  <m_score__min__energy>  (59) 
-10.359999999999999

>  <m_primary>  (59) 
energy

$$$$
59:0
     RDKit          3D

 48 50  0  0  0  0  0  0  0  0999 V2000
   64.1330   33.2730   48.7930 C   0  0  0  0  0  0  0  0  0  0  0  0
   63.8160   32.4540   47.6060 N   0  0  0  0  0  0  0  0  0  0  0  0
   63.7200   33.2820   46.3830 C   0  0  0  0  0  0  0  0  0  0  0  0
   62.4790   34.2030   46.3830 C   0  0  0  0  0  0  0  0  0  0  0  0
   61.4340   33.7350   47.3150 N   0  0  0  0  0  0  0  0  0  0  0  0
   59.9040   34.4740   46.9190 S   0  0  0  0  0  0  0  0  0  0  0  0
   60.1300   35.6430   46.0010 O   0  0  0  0  0  0  0  0  0  0  0  0
   59.2280   34.9700   48.1680 O   0  0  0  0  0  0  0  0  0  0  0  0
   58.8720   33.3030   46.1030 C   0  0  0  0  0  0  0  0  0  0  0  0
   58.5840   33.4280   44.7420 C   0  0  0  0  0  0  0  0  0  0  0  0
   57.7480   32.5030   44.1160 C   0  0  0  0  0  0  0  0  0  0  0  0
   57.2020   31.4400   44.8660 C   0  0  0  0  0  0  0  0  0  0  0  0
   56.4330   30.5250   44.3440 N   0  0  0  0  0  0  0  0  0  0  0  0
   56.6460   29.7450   43.1210 C   0  0  0  0  0  0  0  0  0  0  0  0
   57.3900   28.4350   43.4200 C   0  0  0  0  0  0  0  0  0  0  0  0
   58.2850   28.5450   44.6250 C   0  0  0  0  0  0  0  0  0  0  0  0
   57.8400   28.1180   45.8860 C   0  0  0  0  0  0  0  0  0  0  0  0
   58.6690   28.2750   46.9980 C   0  0  0  0  0  0  0  0  0  0  0  0
   59.9000   28.8350   46.8580 N   0  0  0  0  0  0  0  0  0  0  0  0
   60.3580   29.2560   45.6490 C   0  0  0  0  0  0  0  0  0  0  0  0
   59.5590   29.1200   44.5110 C   0  0  0  0  0  0  0  0  0  0  0  0
   57.4890   31.3580   46.1930 N   0  0  0  0  0  0  0  0  0  0  0  0
   58.2960   32.2520   46.8220 C   0  0  0  0  0  0  0  0  0  0  0  0
   61.3130   32.2740   47.2730 C   0  0  0  0  0  0  0  0  0  0  0  0
   62.6020   31.6200   47.8120 C   0  0  0  0  0  0  0  0  0  0  0  0
   63.9108   32.6989   49.7046 H   0  0  0  0  0  0  0  0  0  0  0  0
   65.1998   33.5409   48.7793 H   0  0  0  0  0  0  0  0  0  0  0  0
   63.5246   34.1893   48.7793 H   0  0  0  0  0  0  0  0  0  0  0  0
   64.6270   31.8030   47.4710 H   0  0  0  0  0  0  0  0  0  0  0  0
   64.6222   33.9070   46.3093 H   0  0  0  0  0  0  0  0  0  0  0  0
   63.6274   32.5992   45.5256 H   0  0  0  0  0  0  0  0  0  0  0  0
   62.7899   35.2156   46.6797 H   0  0  0  0  0  0  0  0  0  0  0  0
   62.0536   34.1945   45.3686 H   0  0  0  0  0  0  0  0  0  0  0  0
   59.0170   34.2570   44.1629 H   0  0  0  0  0  0  0  0  0  0  0  0
   57.5162   32.6017   43.0452 H   0  0  0  0  0  0  0  0  0  0  0  0
   55.6702   29.5088   42.6716 H   0  0  0  0  0  0  0  0  0  0  0  0
   57.2575   30.3426   42.4289 H   0  0  0  0  0  0  0  0  0  0  0  0
   56.6497   27.6418   43.6012 H   0  0  0  0  0  0  0  0  0  0  0  0
   58.0242   28.2040   42.5514 H   0  0  0  0  0  0  0  0  0  0  0  0
   56.8448   27.6628   45.9971 H   0  0  0  0  0  0  0  0  0  0  0  0
   58.3257   27.9450   47.9896 H   0  0  0  0  0  0  0  0  0  0  0  0
   61.3591   29.7043   45.5668 H   0  0  0  0  0  0  0  0  0  0  0  0
   59.9267   29.4616   43.5322 H   0  0  0  0  0  0  0  0  0  0  0  0
   58.4963   32.1484   47.8986 H   0  0  0  0  0  0  0  0  0  0  0  0
   60.4597   31.9616   47.8929 H   0  0  0  0  0  0  0  0  0  0  0  0
   61.1556   31.9554   46.2320 H   0  0  0  0  0  0  0  0  0  0  0  0
   62.4789   31.4432   48.8907 H   0  0  0  0  0  0  0  0  0  0  0  0
   62.7509   30.6846   47.2527 H   0  0  0  0  0  0  0  0  0  0  0  0
  1  2  1  0
  2  3  1  0
  3  4  1  0
  4  5  1  0
  5  6  1  0
  6  7  2  0
  6  8  2  0
  6  9  1  0
  9 10  1  0
 10 11  2  0
 11 12  1  0
 12 13  2  3
 13 14  1  0
 14 15  1  0
 15 16  1  0
 16 17  2  0
 17 18  1  0
 18 19  2  0
 19 20  1  0
 20 21  2  0
 12 22  1  0
 22 23  1  0
  5 24  1  0
 24 25  1  0
 25  2  1  0
 23  9  2  0
 21 16  1  0
  1 26  1  0
  1 27  1  0
  1 28  1  0
  2 29  1  0
  3 30  1  0
  3 31  1  0
  4 32  1  0
  4 33  1  0
 10 34  1  0
 11 35  1  0
 14 36  1  0
 14 37  1  0
 15 38  1  0
 15 39  1  0
 17 40  1  0
 18 41  1  0
 20 42  1  0
 21 43  1  0
 23 44  1  0
 24 45  1  0
 24 46  1  0
 25 47  1  0
 25 48  1  0
M  CHG  2   2   1  22  -1
M  END
>  <UniqueID>  (60) 
58

>  <SMILES>  (60) 
C[NH+]1CCN(S(=O)(=O)c2ccc(=NCCc3ccncc3)[n-]c2)CC1

>  <Energy>  (60) 
59.10479044240459

>  <Genealogy>  (60) 
C[NH+]1CCN(S(=O)(=O)c2ccc(=NCCc3ccncc3)[n-]c2)CC1 (protonated)
C[NH+]1CCN(S(=O)(=O)c2ccc(=NCCc3ccncc3)[n-]c2)CC1 (3D coordinates assigned)
C[NH+]1CCN(S(=O)(=O)c2ccc(=NCCc3ccncc3)[n-]c2)CC1 (nonaromatic ring conformer: 59.10479044240459 kcal/mol)

>  <smiles>  (60) 
CN1CCN(S(=O)(=O)c2ccc(=NCCc3ccncc3)[nH]c2)CC1

>  <score_type>  (60) 
oracle

>  <origin>  (60) 
adg

>  <m_score__min__energy>  (60) 
-8.3300000000000001

>  <m_primary>  (60) 
energy

$$$$
60:0
     RDKit          3D

 46 48  0  0  0  0  0  0  0  0999 V2000
   60.0040   28.0780   46.1920 C   0  0  0  0  0  0  0  0  0  0  0  0
   58.8980   28.6230   45.6590 C   0  0  0  0  0  0  0  0  0  0  0  0
   57.9240   27.9650   44.8890 C   0  0  0  0  0  0  0  0  0  0  0  0
   57.7420   26.6590   44.6150 C   0  0  0  0  0  0  0  0  0  0  0  0
   57.1830   25.6580   45.5360 C   0  0  0  0  0  0  0  0  0  0  0  0
   57.8610   24.5960   46.0080 N   0  0  0  0  0  0  0  0  0  0  0  0
   57.0040   24.0500   46.8970 C   0  0  0  0  0  0  0  0  0  0  0  0
   57.2780   23.0100   47.5510 O   0  0  0  0  0  0  0  0  0  0  0  0
   55.8350   24.7110   47.0380 N   0  0  0  0  0  0  0  0  0  0  0  0
   55.9680   25.7350   46.1790 C   0  0  0  0  0  0  0  0  0  0  0  0
   54.9930   26.7100   45.9900 O   0  0  0  0  0  0  0  0  0  0  0  0
   57.1070   28.9520   44.3710 C   0  0  0  0  0  0  0  0  0  0  0  0
   57.5600   30.1530   44.8720 C   0  0  0  0  0  0  0  0  0  0  0  0
   56.9900   31.4880   44.5010 C   0  0  0  0  0  0  0  0  0  0  0  0
   58.6410   29.9610   45.6650 N   0  0  0  0  0  0  0  0  0  0  0  0
   59.4970   31.0390   46.1910 C   0  0  0  0  0  0  0  0  0  0  0  0
   58.8960   31.5790   47.4500 C   0  0  0  0  0  0  0  0  0  0  0  0
   58.7400   30.8250   48.4480 O   0  0  0  0  0  0  0  0  0  0  0  0
   58.4120   32.9240   47.4820 N   0  0  0  0  0  0  0  0  0  0  0  0
   59.1390   34.0300   46.8740 C   0  0  0  0  0  0  0  0  0  0  0  0
   60.5820   33.9830   47.3200 C   0  0  0  0  0  0  0  0  0  0  0  0
   61.5830   33.8250   46.3460 C   0  0  0  0  0  0  0  0  0  0  0  0
   62.9220   33.6900   46.7170 C   0  0  0  0  0  0  0  0  0  0  0  0
   63.2800   33.7110   48.0640 C   0  0  0  0  0  0  0  0  0  0  0  0
   62.3000   33.8600   49.0460 C   0  0  0  0  0  0  0  0  0  0  0  0
   60.9440   33.9770   48.6930 C   0  0  0  0  0  0  0  0  0  0  0  0
   59.9230   34.1460   49.7860 C   0  0  0  0  0  0  0  0  0  0  0  0
   60.6954   28.7000   46.7795 H   0  0  0  0  0  0  0  0  0  0  0  0
   60.2183   27.0097   46.0410 H   0  0  0  0  0  0  0  0  0  0  0  0
   58.0374   26.3104   43.6144 H   0  0  0  0  0  0  0  0  0  0  0  0
   55.1400   27.4850   45.3540 H   0  0  0  0  0  0  0  0  0  0  0  0
   56.2567   28.8065   43.6885 H   0  0  0  0  0  0  0  0  0  0  0  0
   56.7497   32.0509   45.4150 H   0  0  0  0  0  0  0  0  0  0  0  0
   57.7269   32.0493   43.9078 H   0  0  0  0  0  0  0  0  0  0  0  0
   56.0749   31.3440   43.9078 H   0  0  0  0  0  0  0  0  0  0  0  0
   60.4999   30.6406   46.4042 H   0  0  0  0  0  0  0  0  0  0  0  0
   59.5749   31.8441   45.4455 H   0  0  0  0  0  0  0  0  0  0  0  0
   59.0898   33.9442   45.7785 H   0  0  0  0  0  0  0  0  0  0  0  0
   58.6876   34.9836   47.1852 H   0  0  0  0  0  0  0  0  0  0  0  0
   61.3086   33.8076   45.2809 H   0  0  0  0  0  0  0  0  0  0  0  0
   63.6959   33.5668   45.9450 H   0  0  0  0  0  0  0  0  0  0  0  0
   64.3365   33.6100   48.3532 H   0  0  0  0  0  0  0  0  0  0  0  0
   62.5910   33.8862   50.1065 H   0  0  0  0  0  0  0  0  0  0  0  0
   60.4173   34.0642   50.7653 H   0  0  0  0  0  0  0  0  0  0  0  0
   59.4495   35.1347   49.6957 H   0  0  0  0  0  0  0  0  0  0  0  0
   59.1561   33.3626   49.6957 H   0  0  0  0  0  0  0  0  0  0  0  0
  1  2  2  0
  2  3  1  0
  3  4  2  3
  4  5  1  0
  5  6  1  0
  6  7  1  0
  7  8  2  0
  7  9  1  0
  9 10  1  0
 10 11  1  0
  3 12  1  0
 12 13  2  0
 13 14  1  0
 13 15  1  0
 15 16  1  0
 16 17  1  0
 17 18  2  0
 17 19  1  0
 19 20  1  0
 20 21  1  0
 21 22  2  0
 22 23  1  0
 23 24  2  0
 24 25  1  0
 25 26  2  0
 26 27  1  0
 15  2  1  0
 26 21  1  0
 10  5  2  0
  1 28  1  0
  1 29  1  0
  4 30  1  0
 11 31  1  0
 12 32  1  0
 14 33  1  0
 14 34  1  0
 14 35  1  0
 16 36  1  0
 16 37  1  0
 20 38  1  0
 20 39  1  0
 22 40  1  0
 23 41  1  0
 24 42  1  0
 25 43  1  0
 27 44  1  0
 27 45  1  0
 27 46  1  0
M  CHG  3   6  -1   9  -1  19  -1
M  END
>  <UniqueID>  (61) 
59

>  <SMILES>  (61) 
C=c1c(=Cc2[n-]c(=O)[n-]c2O)cc(C)n1CC(=O)[N-]Cc1ccccc1C

>  <Energy>  (61) 
108.9777696896604

>  <Genealogy>  (61) 
C=c1c(=Cc2[n-]c(=O)[n-]c2O)cc(C)n1CC(=O)[N-]Cc1ccccc1C (protonated)
C=c1c(=Cc2[n-]c(=O)[n-]c2O)cc(C)n1CC(=O)[N-]Cc1ccccc1C (3D coordinates assigned)
C=c1c(=Cc2[n-]c(=O)[n-]c2O)cc(C)n1CC(=O)[N-]Cc1ccccc1C (optimized conformer: 108.9777696896604 kcal/mol)

>  <smiles>  (61) 
C=c1c(=Cc2[nH]c(=O)[nH]c2O)cc(C)n1CC(=O)NCc1ccccc1C

>  <score_type>  (61) 
oracle

>  <origin>  (61) 
adg

>  <m_score__min__energy>  (61) 
-13.84

>  <m_primary>  (61) 
energy

$$$$
61:0
     RDKit          3D

 52 55  0  0  0  0  0  0  0  0999 V2000
   54.0630   28.2330   53.5130 C   0  0  0  0  0  0  0  0  0  0  0  0
   54.6200   29.2690   52.8610 C   0  0  0  0  0  0  0  0  0  0  0  0
   53.9200   30.3310   52.2800 C   0  0  0  0  0  0  0  0  0  0  0  0
   52.5840   30.4690   52.1680 C   0  0  0  0  0  0  0  0  0  0  0  0
   51.8950   30.9050   50.9410 C   0  0  0  0  0  0  0  0  0  0  0  0
   51.7610   30.1260   49.8550 N   0  0  0  0  0  0  0  0  0  0  0  0
   51.0160   30.8800   49.0160 C   0  0  0  0  0  0  0  0  0  0  0  0
   50.6840   30.4890   47.8680 O   0  0  0  0  0  0  0  0  0  0  0  0
   50.6450   32.0800   49.5100 N   0  0  0  0  0  0  0  0  0  0  0  0
   51.1980   32.0770   50.7350 C   0  0  0  0  0  0  0  0  0  0  0  0
   51.0220   33.1040   51.6580 O   0  0  0  0  0  0  0  0  0  0  0  0
   54.8780   31.1990   51.7770 C   0  0  0  0  0  0  0  0  0  0  0  0
   56.1160   30.6530   52.0670 C   0  0  0  0  0  0  0  0  0  0  0  0
   57.3990   31.3150   51.7310 C   0  0  0  0  0  0  0  0  0  0  0  0
   57.9910   31.9960   52.6120 O   0  0  0  0  0  0  0  0  0  0  0  0
   57.9530   31.2100   50.4140 N   0  0  0  0  0  0  0  0  0  0  0  0
   58.4870   32.2750   49.6160 C   0  0  0  0  0  0  0  0  0  0  0  0
   59.4280   33.1880   50.1240 C   0  0  0  0  0  0  0  0  0  0  0  0
   59.9660   34.1730   49.2920 C   0  0  0  0  0  0  0  0  0  0  0  0
   59.5810   34.2510   47.9520 C   0  0  0  0  0  0  0  0  0  0  0  0
   58.6430   33.3450   47.4350 C   0  0  0  0  0  0  0  0  0  0  0  0
   58.1480   33.4400   45.7430 S   0  0  0  0  0  0  0  0  0  0  0  0
   58.6630   34.7290   45.1650 O   0  0  0  0  0  0  0  0  0  0  0  0
   56.6460   33.4780   45.6720 O   0  0  0  0  0  0  0  0  0  0  0  0
   58.7640   32.1130   44.7740 N   0  0  0  0  0  0  0  0  0  0  0  0
   57.9720   31.8750   43.5530 C   0  0  0  0  0  0  0  0  0  0  0  0
   56.7000   31.0350   43.8150 C   0  0  0  0  0  0  0  0  0  0  0  0
   56.6470   30.4910   45.1200 O   0  0  0  0  0  0  0  0  0  0  0  0
   57.8660   29.8530   45.4190 C   0  0  0  0  0  0  0  0  0  0  0  0
   58.9970   30.8860   45.5690 C   0  0  0  0  0  0  0  0  0  0  0  0
   58.1130   32.3520   48.2690 C   0  0  0  0  0  0  0  0  0  0  0  0
   55.9610   29.4600   52.7030 N   0  0  0  0  0  0  0  0  0  0  0  0
   57.0480   28.5590   53.1070 C   0  0  0  0  0  0  0  0  0  0  0  0
   54.7005   27.4432   53.9371 H   0  0  0  0  0  0  0  0  0  0  0  0
   52.9700   28.1754   53.6222 H   0  0  0  0  0  0  0  0  0  0  0  0
   51.9679   30.2412   53.0503 H   0  0  0  0  0  0  0  0  0  0  0  0
   54.6890   32.1442   51.2470 H   0  0  0  0  0  0  0  0  0  0  0  0
   59.7407   33.1267   51.1768 H   0  0  0  0  0  0  0  0  0  0  0  0
   60.6963   34.8905   49.6944 H   0  0  0  0  0  0  0  0  0  0  0  0
   60.0141   35.0244   47.3006 H   0  0  0  0  0  0  0  0  0  0  0  0
   57.6709   32.8469   43.1349 H   0  0  0  0  0  0  0  0  0  0  0  0
   58.6045   31.3073   42.8547 H   0  0  0  0  0  0  0  0  0  0  0  0
   55.8202   31.6791   43.6693 H   0  0  0  0  0  0  0  0  0  0  0  0
   56.7168   30.1903   43.1106 H   0  0  0  0  0  0  0  0  0  0  0  0
   57.7599   29.2942   46.3605 H   0  0  0  0  0  0  0  0  0  0  0  0
   58.1186   29.1684   44.5959 H   0  0  0  0  0  0  0  0  0  0  0  0
   59.0793   31.1652   46.6298 H   0  0  0  0  0  0  0  0  0  0  0  0
   59.9213   30.4208   45.1959 H   0  0  0  0  0  0  0  0  0  0  0  0
   57.3953   31.6250   47.8612 H   0  0  0  0  0  0  0  0  0  0  0  0
   57.0997   28.5161   54.2049 H   0  0  0  0  0  0  0  0  0  0  0  0
   56.8561   27.5515   52.7093 H   0  0  0  0  0  0  0  0  0  0  0  0
   58.0024   28.9345   52.7093 H   0  0  0  0  0  0  0  0  0  0  0  0
  1  2  2  0
  2  3  1  0
  3  4  2  3
  4  5  1  0
  5  6  1  0
  6  7  1  0
  7  8  2  0
  7  9  1  0
  9 10  1  0
 10 11  1  0
  3 12  1  0
 12 13  2  0
 13 14  1  0
 14 15  2  0
 14 16  1  0
 16 17  1  0
 17 18  2  0
 18 19  1  0
 19 20  2  0
 20 21  1  0
 21 22  1  0
 22 23  2  0
 22 24  2  0
 22 25  1  0
 25 26  1  0
 26 27  1  0
 27 28  1  0
 28 29  1  0
 29 30  1  0
 21 31  2  0
 13 32  1  0
 32 33  1  0
 32  2  1  0
 10  5  2  0
 31 17  1  0
 30 25  1  0
  1 34  1  0
  1 35  1  0
  4 36  1  0
 12 37  1  0
 18 38  1  0
 19 39  1  0
 20 40  1  0
 26 41  1  0
 26 42  1  0
 27 43  1  0
 27 44  1  0
 29 45  1  0
 29 46  1  0
 30 47  1  0
 30 48  1  0
 31 49  1  0
 33 50  1  0
 33 51  1  0
 33 52  1  0
M  CHG  4   6  -1   9  -1  11  -1  16  -1
M  END
>  <UniqueID>  (62) 
60

>  <SMILES>  (62) 
C=c1c(=Cc2[n-]c(=O)[n-]c2[O-])cc(C(=O)[N-]c2cccc(S(=O)(=O)N3CCOCC3)c2)n1C

>  <Energy>  (62) 
138.6094338604578

>  <Genealogy>  (62) 
C=c1c(=Cc2[n-]c(=O)[n-]c2[O-])cc(C(=O)[N-]c2cccc(S(=O)(=O)N3CCOCC3)c2)n1C (protonated)
C=c1c(=Cc2[n-]c(=O)[n-]c2[O-])cc(C(=O)[N-]c2cccc(S(=O)(=O)N3CCOCC3)c2)n1C (3D coordinates assigned)
C=c1c(=Cc2[n-]c(=O)[n-]c2[O-])cc(C(=O)[N-]c2cccc(S(=O)(=O)N3CCOCC3)c2)n1C (nonaromatic ring conformer: 138.6094338604578 kcal/mol)

>  <smiles>  (62) 
C=c1c(=Cc2[nH]c(=O)[nH]c2O)cc(C(=O)Nc2cccc(S(=O)(=O)N3CCOCC3)c2)n1C

>  <score_type>  (62) 
oracle

>  <origin>  (62) 
adg

>  <m_score__min__energy>  (62) 
-21.149999999999999

>  <m_primary>  (62) 
energy

$$$$
62:0
     RDKit          3D

 36 38  0  0  0  0  0  0  0  0999 V2000
   55.8770   27.0160   46.7380 H   0  0  0  0  0  0  0  0  0  0  0  0
   55.1450   26.6900   46.1200 O   0  0  0  0  0  0  0  0  0  0  0  0
   55.1010   25.3880   45.6210 C   0  0  0  0  0  0  0  0  0  0  0  0
   53.9700   24.6580   45.8060 N   0  0  0  0  0  0  0  0  0  0  0  0
   53.8660   23.3860   45.3430 C   0  0  0  0  0  0  0  0  0  0  0  0
   52.8040   22.7370   45.5260 O   0  0  0  0  0  0  0  0  0  0  0  0
   54.9070   22.8150   44.6860 N   0  0  0  0  0  0  0  0  0  0  0  0
   56.0610   23.4960   44.4740 C   0  0  0  0  0  0  0  0  0  0  0  0
   57.0150   22.9240   43.8820 O   0  0  0  0  0  0  0  0  0  0  0  0
   56.1870   24.8220   44.9250 C   0  0  0  0  0  0  0  0  0  0  0  0
   57.4470   25.5740   44.7410 C   0  0  0  0  0  0  0  0  0  0  0  0
   58.1965   25.1642   44.0479 H   0  0  0  0  0  0  0  0  0  0  0  0
   57.7320   26.7260   45.3680 C   0  0  0  0  0  0  0  0  0  0  0  0
   58.0210   26.7860   46.6850 N   0  0  0  0  0  0  0  0  0  0  0  0
   58.2300   28.1020   46.9310 C   0  0  0  0  0  0  0  0  0  0  0  0
   58.5930   28.5500   48.1340 C   0  0  0  0  0  0  0  0  0  0  0  0
   58.7534   29.6263   48.2947 H   0  0  0  0  0  0  0  0  0  0  0  0
   58.7319   27.8431   48.9652 H   0  0  0  0  0  0  0  0  0  0  0  0
   58.0750   28.8770   45.8260 N   0  0  0  0  0  0  0  0  0  0  0  0
   58.1740   30.3070   45.7000 C   0  0  0  0  0  0  0  0  0  0  0  0
   59.1560   31.0110   46.4110 C   0  0  0  0  0  0  0  0  0  0  0  0
   59.8426   30.4686   47.0775 H   0  0  0  0  0  0  0  0  0  0  0  0
   59.2680   32.3990   46.2780 C   0  0  0  0  0  0  0  0  0  0  0  0
   60.0366   32.9434   46.8461 H   0  0  0  0  0  0  0  0  0  0  0  0
   58.4010   33.1020   45.4200 C   0  0  0  0  0  0  0  0  0  0  0  0
   58.4730   34.4920   45.2520 O   0  0  0  0  0  0  0  0  0  0  0  0
   59.5570   35.3000   45.6960 C   0  0  0  0  0  0  0  0  0  0  0  0
   59.5769   35.3148   46.7957 H   0  0  0  0  0  0  0  0  0  0  0  0
   60.5028   34.8848   45.3177 H   0  0  0  0  0  0  0  0  0  0  0  0
   59.4293   36.3250   45.3177 H   0  0  0  0  0  0  0  0  0  0  0  0
   57.4310   32.3930   44.7010 C   0  0  0  0  0  0  0  0  0  0  0  0
   56.7519   32.9320   44.0240 H   0  0  0  0  0  0  0  0  0  0  0  0
   57.3180   31.0060   44.8360 C   0  0  0  0  0  0  0  0  0  0  0  0
   56.5544   30.4604   44.2621 H   0  0  0  0  0  0  0  0  0  0  0  0
   57.7620   28.0080   44.8480 C   0  0  0  0  0  0  0  0  0  0  0  0
   57.4920   28.3450   43.6630 O   0  0  0  0  0  0  0  0  0  0  0  0
  1  2  1  0
  2  3  1  0
  3  4  1  0
  4  5  1  0
  5  6  2  0
  5  7  1  0
  7  8  1  0
  8  9  2  0
  8 10  1  0
 10 11  1  0
 11 12  1  0
 11 13  2  0
 13 14  1  0
 14 15  1  0
 15 16  2  0
 16 17  1  0
 16 18  1  0
 15 19  1  0
 19 20  1  0
 20 21  2  0
 21 22  1  0
 21 23  1  0
 23 24  1  0
 23 25  2  0
 25 26  1  0
 26 27  1  0
 27 28  1  0
 27 29  1  0
 27 30  1  0
 25 31  1  0
 31 32  1  0
 31 33  2  0
 33 34  1  0
 19 35  1  0
 35 36  2  0
 10  3  2  0
 35 13  1  0
 33 20  1  0
M  CHG  3   4  -1   7  -1  14  -1
M  END
>  <UniqueID>  (63) 
61

>  <SMILES>  (63) 
C=c1[n-]/c(=C/c2c(O)[n-]c(=O)[n-]c2=O)c(=O)n1-c1ccc(OC)cc1

>  <Energy>  (63) 
88.32281870991902

>  <Genealogy>  (63) 
C=c1[n-]c(=Cc2c(O)[n-]c(=O)[n-]c2=O)c(=O)n1-c1ccc(OC)cc1 (protonated)
C=c1[n-]/c(=C/c2c(O)[n-]c(=O)[n-]c2=O)c(=O)n1-c1ccc(OC)cc1 (cis-trans isomerization)
C=c1[n-]/c(=C/c2c(O)[n-]c(=O)[n-]c2=O)c(=O)n1-c1ccc(OC)cc1 (3D coordinates assigned)
C=c1[n-]/c(=C/c2c(O)[n-]c(=O)[n-]c2=O)c(=O)n1-c1ccc(OC)cc1 (optimized conformer: 88.32281870991902 kcal/mol)

>  <smiles>  (63) 
C=c1[nH]c(=Cc2c(O)[nH]c(=O)[nH]c2=O)c(=O)n1-c1ccc(OC)cc1

>  <score_type>  (63) 
oracle

>  <origin>  (63) 
adg

>  <m_score__min__energy>  (63) 
-12.6

>  <m_primary>  (63) 
energy

$$$$
63:0
     RDKit          3D

 55 58  0  0  0  0  0  0  0  0999 V2000
   55.8940   29.3600   42.6790 N   0  0  0  0  0  0  0  0  0  0  0  0
   56.2340   29.8160   43.9910 C   0  0  0  0  0  0  0  0  0  0  0  0
   55.6190   30.8050   44.4710 O   0  0  0  0  0  0  0  0  0  0  0  0
   57.2850   29.1480   44.7930 C   0  0  0  0  0  0  0  0  0  0  0  0
   58.0490   29.8680   45.7430 C   0  0  0  0  0  0  0  0  0  0  0  0
   59.0220   29.2170   46.5170 C   0  0  0  0  0  0  0  0  0  0  0  0
   59.2230   27.8470   46.3340 C   0  0  0  0  0  0  0  0  0  0  0  0
   58.4950   27.1420   45.4110 C   0  0  0  0  0  0  0  0  0  0  0  0
   57.5160   27.7650   44.6340 C   0  0  0  0  0  0  0  0  0  0  0  0
   58.8690   25.7100   45.3780 C   0  0  0  0  0  0  0  0  0  0  0  0
   59.9940   25.5920   46.4250 C   0  0  0  0  0  0  0  0  0  0  0  0
   60.1770   26.9840   47.0730 C   0  0  2  0  0  0  0  0  0  0  0  0
   59.8130   26.9540   48.4880 N   0  0  0  0  0  0  0  0  0  0  0  0
   60.4350   27.7530   49.5000 C   0  0  0  0  0  0  0  0  0  0  0  0
   61.1690   27.1960   50.3590 O   0  0  0  0  0  0  0  0  0  0  0  0
   60.1980   29.1660   49.5760 N   0  0  0  0  0  0  0  0  0  0  0  0
   59.7100   29.7390   50.8330 C   0  0  0  0  0  0  0  0  0  0  0  0
   58.8420   30.9660   50.5470 C   0  0  0  0  0  0  0  0  0  0  0  0
   59.5290   31.8660   49.6040 N   0  0  0  0  0  0  0  0  0  0  0  0
   59.6140   33.2880   49.8740 C   0  0  0  0  0  0  0  0  0  0  0  0
   59.2360   33.7350   50.9960 O   0  0  0  0  0  0  0  0  0  0  0  0
   60.1620   34.2800   48.8750 C   0  0  0  0  0  0  0  0  0  0  0  0
   59.5150   34.1270   47.5160 C   0  0  0  0  0  0  0  0  0  0  0  0
   58.1300   33.8940   47.4140 C   0  0  0  0  0  0  0  0  0  0  0  0
   57.5230   33.7690   46.1610 C   0  0  0  0  0  0  0  0  0  0  0  0
   58.2860   33.8920   44.9980 C   0  0  0  0  0  0  0  0  0  0  0  0
   59.6570   34.1500   45.0840 C   0  0  0  0  0  0  0  0  0  0  0  0
   60.2720   34.2750   46.3340 C   0  0  0  0  0  0  0  0  0  0  0  0
   61.5960   34.5630   46.3920 F   0  0  0  0  0  0  0  0  0  0  0  0
   59.9690   31.2640   48.3350 C   0  0  0  0  0  0  0  0  0  0  0  0
   60.8640   30.0590   48.6260 C   0  0  0  0  0  0  0  0  0  0  0  0
   55.1710   29.8690   42.1230 H   0  0  0  0  0  0  0  0  0  0  0  0
   56.2920   28.4790   42.2840 H   0  0  0  0  0  0  0  0  0  0  0  0
   57.8785   30.9466   45.8755 H   0  0  0  0  0  0  0  0  0  0  0  0
   59.6160   29.7760   47.2550 H   0  0  0  0  0  0  0  0  0  0  0  0
   56.9312   27.1839   43.9058 H   0  0  0  0  0  0  0  0  0  0  0  0
   58.0126   25.0762   45.6517 H   0  0  0  0  0  0  0  0  0  0  0  0
   59.1860   25.3790   44.3780 H   0  0  0  0  0  0  0  0  0  0  0  0
   59.7164   24.8545   47.1925 H   0  0  0  0  0  0  0  0  0  0  0  0
   60.9297   25.2603   45.9512 H   0  0  0  0  0  0  0  0  0  0  0  0
   61.2187   27.3335   47.0203 H   0  0  0  0  0  0  0  0  0  0  0  0
   59.1121   28.9867   51.3683 H   0  0  0  0  0  0  0  0  0  0  0  0
   60.5694   30.0407   51.4498 H   0  0  0  0  0  0  0  0  0  0  0  0
   57.8866   30.6413   50.1090 H   0  0  0  0  0  0  0  0  0  0  0  0
   58.6594   31.5042   51.4888 H   0  0  0  0  0  0  0  0  0  0  0  0
   59.9745   35.2986   49.2456 H   0  0  0  0  0  0  0  0  0  0  0  0
   61.2399   34.0913   48.7629 H   0  0  0  0  0  0  0  0  0  0  0  0
   57.5216   33.8098   48.3265 H   0  0  0  0  0  0  0  0  0  0  0  0
   56.4428   33.5735   46.0911 H   0  0  0  0  0  0  0  0  0  0  0  0
   57.8076   33.7857   44.0132 H   0  0  0  0  0  0  0  0  0  0  0  0
   60.2540   34.2550   44.1661 H   0  0  0  0  0  0  0  0  0  0  0  0
   59.0900   30.9375   47.7598 H   0  0  0  0  0  0  0  0  0  0  0  0
   60.5329   32.0075   47.7525 H   0  0  0  0  0  0  0  0  0  0  0  0
   61.0609   29.5156   47.6901 H   0  0  0  0  0  0  0  0  0  0  0  0
   61.8136   30.4072   49.0585 H   0  0  0  0  0  0  0  0  0  0  0  0
  1  2  1  0
  2  3  2  0
  2  4  1  0
  4  5  2  0
  5  6  1  0
  6  7  2  0
  7  8  1  0
  8  9  2  0
  8 10  1  0
 10 11  1  0
 11 12  1  0
 12 13  1  0
 13 14  1  0
 14 15  2  0
 14 16  1  0
 16 17  1  0
 17 18  1  0
 18 19  1  0
 19 20  1  0
 20 21  2  0
 20 22  1  0
 22 23  1  0
 23 24  2  0
 24 25  1  0
 25 26  2  0
 26 27  1  0
 27 28  2  0
 28 29  1  0
 19 30  1  0
 30 31  1  0
  9  4  1  0
 31 16  1  0
 12  7  1  0
 28 23  1  0
  1 32  1  0
  1 33  1  0
  5 34  1  0
  6 35  1  0
  9 36  1  0
 10 37  1  0
 10 38  1  0
 11 39  1  0
 11 40  1  0
 12 41  1  1
 17 42  1  0
 17 43  1  0
 18 44  1  0
 18 45  1  0
 22 46  1  0
 22 47  1  0
 24 48  1  0
 25 49  1  0
 26 50  1  0
 27 51  1  0
 30 52  1  0
 30 53  1  0
 31 54  1  0
 31 55  1  0
M  CHG  1  13  -1
M  END
>  <UniqueID>  (64) 
62

>  <SMILES>  (64) 
NC(=O)c1ccc2c(c1)CC[C@@H]2[N-]C(=O)N1CCN(C(=O)Cc2ccccc2F)CC1

>  <Energy>  (64) 
70.10458379629831

>  <Genealogy>  (64) 
NC(=O)c1ccc2c(c1)CCC2[N-]C(=O)N1CCN(C(=O)Cc2ccccc2F)CC1 (protonated)
NC(=O)c1ccc2c(c1)CC[C@@H]2[N-]C(=O)N1CCN(C(=O)Cc2ccccc2F)CC1 (chirality)
NC(=O)c1ccc2c(c1)CC[C@@H]2[N-]C(=O)N1CCN(C(=O)Cc2ccccc2F)CC1 (3D coordinates assigned)
NC(=O)c1ccc2c(c1)CC[C@@H]2[N-]C(=O)N1CCN(C(=O)Cc2ccccc2F)CC1 (nonaromatic ring conformer: 70.10458379629831 kcal/mol)

>  <smiles>  (64) 
NC(=O)c1ccc2c(c1)CCC2NC(=O)N1CCN(C(=O)Cc2ccccc2F)CC1

>  <score_type>  (64) 
oracle

>  <origin>  (64) 
adg

>  <m_score__min__energy>  (64) 
-11.210000000000001

>  <m_primary>  (64) 
energy

$$$$
64:0
     RDKit          3D

 69 73  0  0  0  0  0  0  0  0999 V2000
   59.7610   23.0040   45.2870 C   0  0  0  0  0  0  0  0  0  0  0  0
   58.4280   23.0630   45.4290 C   0  0  0  0  0  0  0  0  0  0  0  0
   57.7540   21.8850   45.3640 N   0  0  0  0  0  0  0  0  0  0  0  0
   56.4090   21.7940   45.4880 C   0  0  0  0  0  0  0  0  0  0  0  0
   55.6410   22.9390   45.7000 C   0  0  0  0  0  0  0  0  0  0  0  0
   54.1770   22.7840   45.8080 C   0  0  0  0  0  0  0  0  0  0  0  0
   53.4690   23.0160   44.7900 O   0  0  0  0  0  0  0  0  0  0  0  0
   53.5500   22.4040   47.0520 N   0  0  0  0  0  0  0  0  0  0  0  0
   52.0970   22.5840   47.2020 C   0  0  0  0  0  0  0  0  0  0  0  0
   51.5960   22.0670   48.5560 C   0  0  0  0  0  0  0  0  0  0  0  0
   52.4960   22.5060   49.6330 N   0  0  0  0  0  0  0  0  0  0  0  0
   51.9690   23.1120   50.8370 C   0  0  0  0  0  0  0  0  0  0  0  0
   50.7390   23.3820   50.9150 O   0  0  0  0  0  0  0  0  0  0  0  0
   52.8240   23.3830   51.9630 N   0  0  0  0  0  0  0  0  0  0  0  0
   52.4690   24.2720   53.0350 C   0  0  0  0  0  0  0  0  0  0  0  0
   53.1660   25.4810   53.1870 C   0  0  0  0  0  0  0  0  0  0  0  0
   52.8250   26.3710   54.2100 C   0  0  0  0  0  0  0  0  0  0  0  0
   51.7730   26.0700   55.0790 C   0  0  0  0  0  0  0  0  0  0  0  0
   51.4410   26.9360   56.0670 F   0  0  0  0  0  0  0  0  0  0  0  0
   51.0590   24.8790   54.9230 C   0  0  0  0  0  0  0  0  0  0  0  0
   51.3990   23.9840   53.9030 C   0  0  0  0  0  0  0  0  0  0  0  0
   53.9460   22.3050   49.4820 C   0  0  0  0  0  0  0  0  0  0  0  0
   54.3060   21.7190   48.1120 C   0  0  0  0  0  0  0  0  0  0  0  0
   56.2830   24.1960   45.7740 C   0  0  0  0  0  0  0  0  0  0  0  0
   55.5390   25.3770   45.9520 C   0  0  0  0  0  0  0  0  0  0  0  0
   56.1640   26.6180   45.9990 C   0  0  0  0  0  0  0  0  0  0  0  0
   57.5610   26.7260   45.8730 C   0  0  0  0  0  0  0  0  0  0  0  0
   58.1980   27.9180   45.9130 C   0  0  0  0  0  0  0  0  0  0  0  0
   58.2730   28.8940   44.7670 C   0  0  0  0  0  0  0  0  0  0  0  0
   57.3750   30.0810   45.0070 C   0  0  0  0  0  0  0  0  0  0  0  0
   56.1300   29.9370   44.8680 O   0  0  0  0  0  0  0  0  0  0  0  0
   57.9010   31.3630   45.4090 N   0  0  0  0  0  0  0  0  0  0  0  0
   57.2970   32.5850   44.8660 C   0  0  0  0  0  0  0  0  0  0  0  0
   57.4820   33.7450   45.8490 C   0  0  0  0  0  0  0  0  0  0  0  0
   58.8350   33.8680   46.2370 O   0  0  0  0  0  0  0  0  0  0  0  0
   59.2250   32.7220   46.9690 C   0  0  0  0  0  0  0  0  0  0  0  0
   59.2010   31.4750   46.0800 C   0  0  0  0  0  0  0  0  0  0  0  0
   58.3140   25.5490   45.6940 C   0  0  0  0  0  0  0  0  0  0  0  0
   57.6980   24.2740   45.6350 C   0  0  0  0  0  0  0  0  0  0  0  0
   60.3601   23.9255   45.3306 H   0  0  0  0  0  0  0  0  0  0  0  0
   60.2547   22.0341   45.1270 H   0  0  0  0  0  0  0  0  0  0  0  0
   55.9189   20.8115   45.4212 H   0  0  0  0  0  0  0  0  0  0  0  0
   51.8606   23.6552   47.1203 H   0  0  0  0  0  0  0  0  0  0  0  0
   51.5974   22.0073   46.4096 H   0  0  0  0  0  0  0  0  0  0  0  0
   50.5860   22.4603   48.7438 H   0  0  0  0  0  0  0  0  0  0  0  0
   51.5732   20.9675   48.5337 H   0  0  0  0  0  0  0  0  0  0  0  0
   53.6980   22.8260   52.0760 H   0  0  0  0  0  0  0  0  0  0  0  0
   53.9857   25.7298   52.4969 H   0  0  0  0  0  0  0  0  0  0  0  0
   53.3857   27.3096   54.3309 H   0  0  0  0  0  0  0  0  0  0  0  0
   50.2275   24.6446   55.6039 H   0  0  0  0  0  0  0  0  0  0  0  0
   50.8282   23.0519   53.7789 H   0  0  0  0  0  0  0  0  0  0  0  0
   54.4527   23.2745   49.5976 H   0  0  0  0  0  0  0  0  0  0  0  0
   54.2716   21.5909   50.2527 H   0  0  0  0  0  0  0  0  0  0  0  0
   55.3833   21.8499   47.9325 H   0  0  0  0  0  0  0  0  0  0  0  0
   54.0507   20.6491   48.1009 H   0  0  0  0  0  0  0  0  0  0  0  0
   54.4455   25.3174   46.0556 H   0  0  0  0  0  0  0  0  0  0  0  0
   55.5589   27.5263   46.1364 H   0  0  0  0  0  0  0  0  0  0  0  0
   58.6989   28.1962   46.8520 H   0  0  0  0  0  0  0  0  0  0  0  0
   59.3104   29.2438   44.6600 H   0  0  0  0  0  0  0  0  0  0  0  0
   57.9413   28.3839   43.8506 H   0  0  0  0  0  0  0  0  0  0  0  0
   57.7811   32.8367   43.9109 H   0  0  0  0  0  0  0  0  0  0  0  0
   56.2218   32.4154   44.7073 H   0  0  0  0  0  0  0  0  0  0  0  0
   57.1593   34.6798   45.3673 H   0  0  0  0  0  0  0  0  0  0  0  0
   56.8768   33.5450   46.7455 H   0  0  0  0  0  0  0  0  0  0  0  0
   60.2443   32.8702   47.3550 H   0  0  0  0  0  0  0  0  0  0  0  0
   58.5186   32.5767   47.7996 H   0  0  0  0  0  0  0  0  0  0  0  0
   59.9961   31.5513   45.3237 H   0  0  0  0  0  0  0  0  0  0  0  0
   59.3639   30.5835   46.7034 H   0  0  0  0  0  0  0  0  0  0  0  0
   59.4074   25.6213   45.5976 H   0  0  0  0  0  0  0  0  0  0  0  0
  1  2  2  0
  2  3  1  0
  3  4  2  0
  4  5  1  0
  5  6  1  0
  6  7  2  0
  6  8  1  0
  8  9  1  0
  9 10  1  0
 10 11  1  0
 11 12  1  0
 12 13  2  0
 12 14  1  0
 14 15  1  0
 15 16  2  0
 16 17  1  0
 17 18  2  0
 18 19  1  0
 18 20  1  0
 20 21  2  0
 11 22  1  0
 22 23  1  0
  5 24  2  0
 24 25  1  0
 25 26  2  0
 26 27  1  0
 27 28  2  3
 28 29  1  0
 29 30  1  0
 30 31  2  0
 30 32  1  0
 32 33  1  0
 33 34  1  0
 34 35  1  0
 35 36  1  0
 36 37  1  0
 27 38  1  0
 38 39  2  0
 39  2  1  0
 23  8  1  0
 39 24  1  0
 21 15  1  0
 37 32  1  0
  1 40  1  0
  1 41  1  0
  4 42  1  0
  9 43  1  0
  9 44  1  0
 10 45  1  0
 10 46  1  0
 14 47  1  0
 16 48  1  0
 17 49  1  0
 20 50  1  0
 21 51  1  0
 22 52  1  0
 22 53  1  0
 23 54  1  0
 23 55  1  0
 25 56  1  0
 26 57  1  0
 28 58  1  0
 29 59  1  0
 29 60  1  0
 33 61  1  0
 33 62  1  0
 34 63  1  0
 34 64  1  0
 36 65  1  0
 36 66  1  0
 37 67  1  0
 37 68  1  0
 38 69  1  0
M  END
>  <UniqueID>  (65) 
63

>  <SMILES>  (65) 
C=c1ncc(C(=O)N2CCN(C(=O)Nc3ccc(F)cc3)CC2)c2ccc(=CCC(=O)N3CCOCC3)cc12

>  <Energy>  (65) 
100.2023790663749

>  <Genealogy>  (65) 
C=c1ncc(C(=O)N2CCN(C(=O)Nc3ccc(F)cc3)CC2)c2ccc(=CCC(=O)N3CCOCC3)cc12 (3D coordinates assigned)
C=c1ncc(C(=O)N2CCN(C(=O)Nc3ccc(F)cc3)CC2)c2ccc(=CCC(=O)N3CCOCC3)cc12 (nonaromatic ring conformer: 100.2023790663749 kcal/mol)

>  <smiles>  (65) 
C=c1ncc(C(=O)N2CCN(C(=O)Nc3ccc(F)cc3)CC2)c2ccc(=CCC(=O)N3CCOCC3)cc12

>  <score_type>  (65) 
oracle

>  <origin>  (65) 
adg

>  <m_score__min__energy>  (65) 
-10.25

>  <m_primary>  (65) 
energy

$$$$
65:0
     RDKit          3D

 56 59  0  0  0  0  0  0  0  0999 V2000
   55.1480   26.6360   46.0010 O   0  0  0  0  0  0  0  0  0  0  0  0
   55.8040   25.5590   45.9300 C   0  0  0  0  0  0  0  0  0  0  0  0
   57.2410   25.5870   45.9780 N   0  0  0  0  0  0  0  0  0  0  0  0
   58.0270   26.7770   45.7850 C   0  0  0  0  0  0  0  0  0  0  0  0
   58.5350   27.1210   44.5210 C   0  0  0  0  0  0  0  0  0  0  0  0
   59.3070   28.2740   44.3610 C   0  0  0  0  0  0  0  0  0  0  0  0
   59.5940   29.0850   45.4600 C   0  0  0  0  0  0  0  0  0  0  0  0
   59.1220   28.7400   46.7380 C   0  0  0  0  0  0  0  0  0  0  0  0
   59.4080   29.6160   47.8970 C   0  0  0  0  0  0  0  0  0  0  0  0
   58.5340   29.7560   48.7980 O   0  0  0  0  0  0  0  0  0  0  0  0
   60.6630   30.3060   48.0220 N   0  0  0  0  0  0  0  0  0  0  0  0
   61.3600   30.3390   49.3090 C   0  0  0  0  0  0  0  0  0  0  0  0
   61.7540   31.7820   49.6190 C   0  0  0  0  0  0  0  0  0  0  0  0
   62.6380   32.3630   48.5790 N   0  0  0  0  0  0  0  0  0  0  0  0
   62.5170   33.8370   48.5220 C   0  0  0  0  0  0  0  0  0  0  0  0
   61.1260   34.2860   48.9870 C   0  0  0  0  0  0  0  0  0  0  0  0
   60.1020   34.1080   47.8960 C   0  0  0  0  0  0  0  0  0  0  0  0
   60.3570   34.5910   46.6010 C   0  0  0  0  0  0  0  0  0  0  0  0
   59.4250   34.3890   45.5780 C   0  0  0  0  0  0  0  0  0  0  0  0
   58.2390   33.6980   45.8380 C   0  0  0  0  0  0  0  0  0  0  0  0
   57.9830   33.2040   47.1210 C   0  0  0  0  0  0  0  0  0  0  0  0
   58.9120   33.4030   48.1460 C   0  0  0  0  0  0  0  0  0  0  0  0
   62.5310   31.7310   47.2380 C   0  0  0  0  0  0  0  0  0  0  0  0
   61.1270   31.1810   46.9380 C   0  0  0  0  0  0  0  0  0  0  0  0
   58.3380   27.5840   46.8890 C   0  0  0  0  0  0  0  0  0  0  0  0
   55.0860   24.2690   45.8260 C   0  0  0  0  0  0  0  0  0  0  0  0
   55.7040   23.0650   46.1950 C   0  0  0  0  0  0  0  0  0  0  0  0
   54.9740   21.8790   46.0940 C   0  0  0  0  0  0  0  0  0  0  0  0
   55.4970   20.7820   46.4210 O   0  0  0  0  0  0  0  0  0  0  0  0
   53.6920   21.9090   45.6450 N   0  0  0  0  0  0  0  0  0  0  0  0
   53.1050   23.0820   45.2880 C   0  0  0  0  0  0  0  0  0  0  0  0
   51.9180   23.0910   44.8740 O   0  0  0  0  0  0  0  0  0  0  0  0
   53.7990   24.2450   45.3820 N   0  0  0  0  0  0  0  0  0  0  0  0
   57.7450   24.7140   46.2510 H   0  0  0  0  0  0  0  0  0  0  0  0
   58.3237   26.4791   43.6531 H   0  0  0  0  0  0  0  0  0  0  0  0
   59.6900   28.5437   43.3657 H   0  0  0  0  0  0  0  0  0  0  0  0
   60.1923   29.9982   45.3253 H   0  0  0  0  0  0  0  0  0  0  0  0
   60.6954   29.9594   50.0991 H   0  0  0  0  0  0  0  0  0  0  0  0
   62.2597   29.7077   49.2629 H   0  0  0  0  0  0  0  0  0  0  0  0
   60.8404   32.3909   49.6864 H   0  0  0  0  0  0  0  0  0  0  0  0
   62.3091   31.7813   50.5687 H   0  0  0  0  0  0  0  0  0  0  0  0
   63.2788   34.2872   49.1754 H   0  0  0  0  0  0  0  0  0  0  0  0
   62.6644   34.1636   47.4820 H   0  0  0  0  0  0  0  0  0  0  0  0
   60.8285   33.6858   49.8595 H   0  0  0  0  0  0  0  0  0  0  0  0
   61.1742   35.3535   49.2482 H   0  0  0  0  0  0  0  0  0  0  0  0
   61.2928   35.1298   46.3914 H   0  0  0  0  0  0  0  0  0  0  0  0
   59.6260   34.7746   44.5676 H   0  0  0  0  0  0  0  0  0  0  0  0
   57.5059   33.5424   45.0328 H   0  0  0  0  0  0  0  0  0  0  0  0
   57.0496   32.6583   47.3236 H   0  0  0  0  0  0  0  0  0  0  0  0
   58.7111   33.0064   49.1522 H   0  0  0  0  0  0  0  0  0  0  0  0
   62.7819   32.4834   46.4759 H   0  0  0  0  0  0  0  0  0  0  0  0
   63.2263   30.8788   47.2218 H   0  0  0  0  0  0  0  0  0  0  0  0
   60.4265   32.0222   46.8297 H   0  0  0  0  0  0  0  0  0  0  0  0
   61.1711   30.5947   46.0083 H   0  0  0  0  0  0  0  0  0  0  0  0
   57.9633   27.3084   47.8858 H   0  0  0  0  0  0  0  0  0  0  0  0
   56.7428   23.0554   46.5566 H   0  0  0  0  0  0  0  0  0  0  0  0
  1  2  2  0
  2  3  1  0
  3  4  1  0
  4  5  2  0
  5  6  1  0
  6  7  2  0
  7  8  1  0
  8  9  1  0
  9 10  2  0
  9 11  1  0
 11 12  1  0
 12 13  1  0
 13 14  1  0
 14 15  1  0
 15 16  1  0
 16 17  1  0
 17 18  2  0
 18 19  1  0
 19 20  2  0
 20 21  1  0
 21 22  2  0
 14 23  1  0
 23 24  1  0
  8 25  2  0
  2 26  1  0
 26 27  2  0
 27 28  1  0
 28 29  2  0
 28 30  1  0
 30 31  1  0
 31 32  2  0
 31 33  1  0
 25  4  1  0
 33 26  1  0
 24 11  1  0
 22 17  1  0
  3 34  1  0
  5 35  1  0
  6 36  1  0
  7 37  1  0
 12 38  1  0
 12 39  1  0
 13 40  1  0
 13 41  1  0
 15 42  1  0
 15 43  1  0
 16 44  1  0
 16 45  1  0
 18 46  1  0
 19 47  1  0
 20 48  1  0
 21 49  1  0
 22 50  1  0
 23 51  1  0
 23 52  1  0
 24 53  1  0
 24 54  1  0
 25 55  1  0
 27 56  1  0
M  CHG  2  30  -1  33  -1
M  END
>  <UniqueID>  (66) 
64

>  <SMILES>  (66) 
O=C(Nc1cccc(C(=O)N2CCN(CCc3ccccc3)CC2)c1)c1cc(=O)[n-]c(=O)[n-]1

>  <Energy>  (66) 
76.20969273482878

>  <Genealogy>  (66) 
O=C(Nc1cccc(C(=O)N2CCN(CCc3ccccc3)CC2)c1)c1cc(=O)[n-]c(=O)[n-]1 (protonated)
O=C(Nc1cccc(C(=O)N2CCN(CCc3ccccc3)CC2)c1)c1cc(=O)[n-]c(=O)[n-]1 (3D coordinates assigned)
O=C(Nc1cccc(C(=O)N2CCN(CCc3ccccc3)CC2)c1)c1cc(=O)[n-]c(=O)[n-]1 (nonaromatic ring conformer: 76.20969273482878 kcal/mol)

>  <smiles>  (66) 
O=C(Nc1cccc(C(=O)N2CCN(CCc3ccccc3)CC2)c1)c1cc(=O)[nH]c(=O)[nH]1

>  <score_type>  (66) 
oracle

>  <origin>  (66) 
adg

>  <m_score__min__energy>  (66) 
-13.9

>  <m_primary>  (66) 
energy

$$$$
66:0
     RDKit          3D

 73 76  0  0  0  0  0  0  0  0999 V2000
   56.9570   26.9450   45.8800 C   0  0  0  0  0  0  0  0  0  0  0  0
   57.6160   28.0920   45.6590 C   0  0  0  0  0  0  0  0  0  0  0  0
   56.9030   29.2270   45.0310 C   0  0  0  0  0  0  0  0  0  0  0  0
   55.6700   29.3790   45.2450 O   0  0  0  0  0  0  0  0  0  0  0  0
   57.6660   30.1620   44.1590 C   0  0  0  0  0  0  0  0  0  0  0  0
   57.1090   31.0980   43.3640 C   0  0  0  0  0  0  0  0  0  0  0  0
   57.6020   32.5070   43.1680 C   0  0  0  0  0  0  0  0  0  0  0  0
   57.9280   33.1820   44.4710 C   0  0  0  0  0  0  0  0  0  0  0  0
   57.4080   34.2930   44.7590 O   0  0  0  0  0  0  0  0  0  0  0  0
   58.9060   32.5950   45.3410 N   0  0  0  0  0  0  0  0  0  0  0  0
   58.9640   32.8230   46.7590 C   0  0  0  0  0  0  0  0  0  0  0  0
   59.6490   33.9470   47.2470 C   0  0  0  0  0  0  0  0  0  0  0  0
   59.7830   34.1550   48.6230 C   0  0  0  0  0  0  0  0  0  0  0  0
   59.2520   33.2300   49.5310 C   0  0  0  0  0  0  0  0  0  0  0  0
   59.4850   33.4590   51.2680 S   0  0  0  0  0  0  0  0  0  0  0  0
   58.6320   34.6070   51.7370 O   0  0  0  0  0  0  0  0  0  0  0  0
   60.9230   33.8100   51.5310 O   0  0  0  0  0  0  0  0  0  0  0  0
   59.0650   32.0230   52.1720 N   0  0  0  0  0  0  0  0  0  0  0  0
   57.6180   31.7700   52.1020 C   0  0  0  0  0  0  0  0  0  0  0  0
   57.2650   30.4980   52.9030 C   0  0  0  0  0  0  0  0  0  0  0  0
   58.3790   29.9840   53.6130 O   0  0  0  0  0  0  0  0  0  0  0  0
   58.9320   30.9980   54.4280 C   0  0  0  0  0  0  0  0  0  0  0  0
   59.4940   32.1530   53.5750 C   0  0  0  0  0  0  0  0  0  0  0  0
   58.5650   32.1080   49.0510 C   0  0  0  0  0  0  0  0  0  0  0  0
   58.4240   31.9020   47.6740 C   0  0  0  0  0  0  0  0  0  0  0  0
   59.0910   30.0340   44.1160 N   0  0  0  0  0  0  0  0  0  0  0  0
   59.8150   29.1050   44.9260 C   0  0  0  0  0  0  0  0  0  0  0  0
   61.0730   29.0780   44.8460 O   0  0  0  0  0  0  0  0  0  0  0  0
   59.0910   28.2110   45.8600 C   0  0  0  0  0  0  0  0  0  0  0  0
   59.7740   27.6060   46.8580 C   0  0  0  0  0  0  0  0  0  0  0  0
   60.1740   28.2410   48.1270 C   0  0  0  0  0  0  0  0  0  0  0  0
   60.0280   27.6290   49.3150 N   0  0  0  0  0  0  0  0  0  0  0  0
   60.4820   28.4750   50.2600 C   0  0  0  0  0  0  0  0  0  0  0  0
   60.4510   28.1550   51.7230 C   0  0  0  0  0  0  0  0  0  0  0  0
   60.9500   29.6470   49.6720 C   0  0  0  0  0  0  0  0  0  0  0  0
   61.5340   30.8130   50.3700 C   0  0  0  0  0  0  0  0  0  0  0  0
   61.6610   30.8030   51.6260 O   0  0  0  0  0  0  0  0  0  0  0  0
   61.9290   31.9360   49.6350 O   0  0  0  0  0  0  0  0  0  0  0  0
   63.2740   32.1810   49.2300 C   0  0  0  0  0  0  0  0  0  0  0  0
   63.3060   33.0020   47.9460 C   0  0  0  0  0  0  0  0  0  0  0  0
   60.7720   29.4850   48.2990 C   0  0  0  0  0  0  0  0  0  0  0  0
   61.1610   30.4520   47.2190 C   0  0  0  0  0  0  0  0  0  0  0  0
   57.4752   26.0939   46.3460 H   0  0  0  0  0  0  0  0  0  0  0  0
   55.8983   26.8553   45.5953 H   0  0  0  0  0  0  0  0  0  0  0  0
   56.2083   30.8040   42.8052 H   0  0  0  0  0  0  0  0  0  0  0  0
   58.5088   32.4815   42.5459 H   0  0  0  0  0  0  0  0  0  0  0  0
   56.7989   33.0809   42.6826 H   0  0  0  0  0  0  0  0  0  0  0  0
   59.6310   31.9770   44.9070 H   0  0  0  0  0  0  0  0  0  0  0  0
   60.0838   34.6699   46.5411 H   0  0  0  0  0  0  0  0  0  0  0  0
   60.3072   35.0481   48.9939 H   0  0  0  0  0  0  0  0  0  0  0  0
   57.0771   32.6291   52.5256 H   0  0  0  0  0  0  0  0  0  0  0  0
   57.3268   31.6273   51.0509 H   0  0  0  0  0  0  0  0  0  0  0  0
   56.4690   30.7420   53.6219 H   0  0  0  0  0  0  0  0  0  0  0  0
   56.9376   29.7293   52.1875 H   0  0  0  0  0  0  0  0  0  0  0  0
   58.1489   31.3910   55.0931 H   0  0  0  0  0  0  0  0  0  0  0  0
   59.7558   30.5641   55.0137 H   0  0  0  0  0  0  0  0  0  0  0  0
   59.1283   33.1094   53.9769 H   0  0  0  0  0  0  0  0  0  0  0  0
   60.5928   32.1173   53.6128 H   0  0  0  0  0  0  0  0  0  0  0  0
   58.1342   31.3853   49.7596 H   0  0  0  0  0  0  0  0  0  0  0  0
   57.8879   31.0149   47.3055 H   0  0  0  0  0  0  0  0  0  0  0  0
   60.0544   26.5526   46.7108 H   0  0  0  0  0  0  0  0  0  0  0  0
   59.6190   26.6820   49.4760 H   0  0  0  0  0  0  0  0  0  0  0  0
   60.5411   29.0849   52.3037 H   0  0  0  0  0  0  0  0  0  0  0  0
   59.5006   27.6592   51.9698 H   0  0  0  0  0  0  0  0  0  0  0  0
   61.2885   27.4860   51.9698 H   0  0  0  0  0  0  0  0  0  0  0  0
   63.7963   32.7330   50.0253 H   0  0  0  0  0  0  0  0  0  0  0  0
   63.7708   31.2168   49.0471 H   0  0  0  0  0  0  0  0  0  0  0  0
   63.3477   34.0724   48.1961 H   0  0  0  0  0  0  0  0  0  0  0  0
   64.1941   32.7281   47.3577 H   0  0  0  0  0  0  0  0  0  0  0  0
   62.3992   32.7980   47.3577 H   0  0  0  0  0  0  0  0  0  0  0  0
   61.5345   31.3805   47.6754 H   0  0  0  0  0  0  0  0  0  0  0  0
   61.9500   30.0069   46.5951 H   0  0  0  0  0  0  0  0  0  0  0  0
   60.2835   30.6773   46.5951 H   0  0  0  0  0  0  0  0  0  0  0  0
  1  2  2  0
  2  3  1  0
  3  4  2  0
  3  5  1  0
  5  6  2  3
  6  7  1  0
  7  8  1  0
  8  9  2  0
  8 10  1  0
 10 11  1  0
 11 12  2  0
 12 13  1  0
 13 14  2  0
 14 15  1  0
 15 16  2  0
 15 17  2  0
 15 18  1  0
 18 19  1  0
 19 20  1  0
 20 21  1  0
 21 22  1  0
 22 23  1  0
 14 24  1  0
 24 25  2  0
  5 26  1  0
 26 27  1  0
 27 28  2  0
 27 29  1  0
 29 30  2  3
 30 31  1  0
 31 32  1  0
 32 33  1  0
 33 34  1  0
 33 35  2  0
 35 36  1  0
 36 37  2  0
 36 38  1  0
 38 39  1  0
 39 40  1  0
 35 41  1  0
 41 42  1  0
 29  2  1  0
 41 31  2  0
 25 11  1  0
 23 18  1  0
  1 43  1  0
  1 44  1  0
  6 45  1  0
  7 46  1  0
  7 47  1  0
 10 48  1  0
 12 49  1  0
 13 50  1  0
 19 51  1  0
 19 52  1  0
 20 53  1  0
 20 54  1  0
 22 55  1  0
 22 56  1  0
 23 57  1  0
 23 58  1  0
 24 59  1  0
 25 60  1  0
 30 61  1  0
 32 62  1  0
 34 63  1  0
 34 64  1  0
 34 65  1  0
 39 66  1  0
 39 67  1  0
 40 68  1  0
 40 69  1  0
 40 70  1  0
 42 71  1  0
 42 72  1  0
 42 73  1  0
M  CHG  1  26  -1
M  END
>  <UniqueID>  (67) 
65

>  <SMILES>  (67) 
C=C1C(=O)C(=CCC(=O)Nc2ccc(S(=O)(=O)N3CCOCC3)cc2)[N-]C(=O)C1=Cc1[nH]c(C)c(C(=O)OCC)c1C

>  <Energy>  (67) 
123.7672803907237

>  <Genealogy>  (67) 
C=C1C(=O)C(=CCC(=O)Nc2ccc(S(=O)(=O)N3CCOCC3)cc2)[N-]C(=O)C1=Cc1[nH]c(C)c(C(=O)OCC)c1C (protonated)
C=C1C(=O)C(=CCC(=O)Nc2ccc(S(=O)(=O)N3CCOCC3)cc2)[N-]C(=O)C1=Cc1[nH]c(C)c(C(=O)OCC)c1C (3D coordinates assigned)
C=C1C(=O)C(=CCC(=O)Nc2ccc(S(=O)(=O)N3CCOCC3)cc2)[N-]C(=O)C1=Cc1[nH]c(C)c(C(=O)OCC)c1C (nonaromatic ring conformer: 123.7672803907237 kcal/mol)

>  <smiles>  (67) 
C=C1C(=O)C(=CCC(=O)Nc2ccc(S(=O)(=O)N3CCOCC3)cc2)NC(=O)C1=Cc1[nH]c(C)c(C(=O)OCC)c1C

>  <score_type>  (67) 
oracle

>  <origin>  (67) 
adg

>  <m_score__min__energy>  (67) 
-12.59

>  <m_primary>  (67) 
energy

$$$$
67:0
     RDKit          3D

 67 71  0  0  0  0  0  0  0  0999 V2000
   57.4230   31.7270   43.3190 O   0  0  0  0  0  0  0  0  0  0  0  0
   57.0380   31.5850   44.5130 C   0  0  0  0  0  0  0  0  0  0  0  0
   55.9300   30.7230   44.8100 N   0  0  0  0  0  0  0  0  0  0  0  0
   55.8290   29.3410   44.3510 C   0  0  0  0  0  0  0  0  0  0  0  0
   56.8910   28.4820   44.9880 C   0  0  0  0  0  0  0  0  0  0  0  0
   58.2510   28.7850   44.7940 C   0  0  0  0  0  0  0  0  0  0  0  0
   59.2430   27.9990   45.3890 C   0  0  0  0  0  0  0  0  0  0  0  0
   58.8870   26.9020   46.1790 C   0  0  0  0  0  0  0  0  0  0  0  0
   57.5390   26.5920   46.3780 C   0  0  0  0  0  0  0  0  0  0  0  0
   56.5400   27.3750   45.7850 C   0  0  0  0  0  0  0  0  0  0  0  0
   55.2040   27.0490   45.9940 O   0  0  0  0  0  0  0  0  0  0  0  0
   57.7300   32.3020   45.6070 C   0  0  0  0  0  0  0  0  0  0  0  0
   57.9850   33.6780   45.5100 C   0  0  0  0  0  0  0  0  0  0  0  0
   58.6630   34.3430   46.5320 C   0  0  0  0  0  0  0  0  0  0  0  0
   59.0790   33.6560   47.6810 C   0  0  0  0  0  0  0  0  0  0  0  0
   59.9320   34.5760   48.9750 S   0  0  0  0  0  0  0  0  0  0  0  0
   61.5730   34.0880   48.4330 C   0  0  0  0  0  0  0  0  0  0  0  0
   62.6060   33.9200   49.3640 C   0  0  0  0  0  0  0  0  0  0  0  0
   63.8760   33.5180   48.9350 C   0  0  0  0  0  0  0  0  0  0  0  0
   64.1190   33.2970   47.5750 C   0  0  0  0  0  0  0  0  0  0  0  0
   63.0930   33.4840   46.6450 C   0  0  0  0  0  0  0  0  0  0  0  0
   61.8270   33.8880   47.0760 C   0  0  0  0  0  0  0  0  0  0  0  0
   58.8660   32.2610   47.7770 C   0  0  0  0  0  0  0  0  0  0  0  0
   59.4850   31.4800   48.8210 N   0  0  0  0  0  0  0  0  0  0  0  0
   58.7310   31.1340   50.0370 C   0  0  0  0  0  0  0  0  0  0  0  0
   58.9890   32.1180   51.1440 C   0  0  0  0  0  0  0  0  0  0  0  0
   60.3050   32.4580   51.5080 C   0  0  0  0  0  0  0  0  0  0  0  0
   60.5350   33.4290   52.4920 C   0  0  0  0  0  0  0  0  0  0  0  0
   59.4530   34.0630   53.1170 C   0  0  0  0  0  0  0  0  0  0  0  0
   58.1430   33.7160   52.7710 C   0  0  0  0  0  0  0  0  0  0  0  0
   57.9110   32.7490   51.7880 C   0  0  0  0  0  0  0  0  0  0  0  0
   60.8180   30.4480   48.3770 S   0  0  0  0  0  0  0  0  0  0  0  0
   60.5950   29.9310   46.9820 O   0  0  0  0  0  0  0  0  0  0  0  0
   62.1100   31.2180   48.3890 O   0  0  0  0  0  0  0  0  0  0  0  0
   60.9450   29.0970   49.4990 C   0  0  0  0  0  0  0  0  0  0  0  0
   61.3770   29.3140   50.8150 C   0  0  0  0  0  0  0  0  0  0  0  0
   61.5190   28.2350   51.6950 C   0  0  0  0  0  0  0  0  0  0  0  0
   61.2150   26.9380   51.2680 C   0  0  0  0  0  0  0  0  0  0  0  0
   60.7760   26.7180   49.9620 C   0  0  0  0  0  0  0  0  0  0  0  0
   60.6450   27.7940   49.0750 C   0  0  0  0  0  0  0  0  0  0  0  0
   58.1840   31.6030   46.7360 C   0  0  0  0  0  0  0  0  0  0  0  0
   54.8380   28.9448   44.6175 H   0  0  0  0  0  0  0  0  0  0  0  0
   55.9705   29.3225   43.2603 H   0  0  0  0  0  0  0  0  0  0  0  0
   58.5359   29.6453   44.1706 H   0  0  0  0  0  0  0  0  0  0  0  0
   60.3042   28.2442   45.2352 H   0  0  0  0  0  0  0  0  0  0  0  0
   59.6681   26.2827   46.6441 H   0  0  0  0  0  0  0  0  0  0  0  0
   57.2613   25.7301   47.0025 H   0  0  0  0  0  0  0  0  0  0  0  0
   57.6486   34.2356   44.6235 H   0  0  0  0  0  0  0  0  0  0  0  0
   58.8735   35.4183   46.4351 H   0  0  0  0  0  0  0  0  0  0  0  0
   62.4190   34.1040   50.4323 H   0  0  0  0  0  0  0  0  0  0  0  0
   64.6840   33.3756   49.6678 H   0  0  0  0  0  0  0  0  0  0  0  0
   65.1160   32.9766   47.2384 H   0  0  0  0  0  0  0  0  0  0  0  0
   63.2819   33.3133   45.5749 H   0  0  0  0  0  0  0  0  0  0  0  0
   61.0252   34.0495   46.3405 H   0  0  0  0  0  0  0  0  0  0  0  0
   57.6562   31.1330   49.8029 H   0  0  0  0  0  0  0  0  0  0  0  0
   59.0590   30.1401   50.3754 H   0  0  0  0  0  0  0  0  0  0  0  0
   61.1554   31.9604   51.0190 H   0  0  0  0  0  0  0  0  0  0  0  0
   61.5649   33.6934   52.7737 H   0  0  0  0  0  0  0  0  0  0  0  0
   59.6340   34.8341   53.8803 H   0  0  0  0  0  0  0  0  0  0  0  0
   57.2945   34.2042   53.2726 H   0  0  0  0  0  0  0  0  0  0  0  0
   56.8791   32.4807   51.5173 H   0  0  0  0  0  0  0  0  0  0  0  0
   61.6048   30.3345   51.1566 H   0  0  0  0  0  0  0  0  0  0  0  0
   61.8699   28.4070   52.7232 H   0  0  0  0  0  0  0  0  0  0  0  0
   61.3221   26.0913   51.9621 H   0  0  0  0  0  0  0  0  0  0  0  0
   60.5325   25.6984   49.6286 H   0  0  0  0  0  0  0  0  0  0  0  0
   60.3061   27.6169   48.0436 H   0  0  0  0  0  0  0  0  0  0  0  0
   58.0035   30.5204   46.8089 H   0  0  0  0  0  0  0  0  0  0  0  0
  1  2  2  0
  2  3  1  0
  3  4  1  0
  4  5  1  0
  5  6  2  0
  6  7  1  0
  7  8  2  0
  8  9  1  0
  9 10  2  0
 10 11  1  0
  2 12  1  0
 12 13  2  0
 13 14  1  0
 14 15  2  0
 15 16  1  0
 16 17  1  0
 17 18  2  0
 18 19  1  0
 19 20  2  0
 20 21  1  0
 21 22  2  0
 15 23  1  0
 23 24  1  0
 24 25  1  0
 25 26  1  0
 26 27  2  0
 27 28  1  0
 28 29  2  0
 29 30  1  0
 30 31  2  0
 24 32  1  0
 32 33  2  0
 32 34  2  0
 32 35  1  0
 35 36  2  0
 36 37  1  0
 37 38  2  0
 38 39  1  0
 39 40  2  0
 23 41  2  0
 10  5  1  0
 41 12  1  0
 22 17  1  0
 31 26  1  0
 40 35  1  0
  4 42  1  0
  4 43  1  0
  6 44  1  0
  7 45  1  0
  8 46  1  0
  9 47  1  0
 13 48  1  0
 14 49  1  0
 18 50  1  0
 19 51  1  0
 20 52  1  0
 21 53  1  0
 22 54  1  0
 25 55  1  0
 25 56  1  0
 27 57  1  0
 28 58  1  0
 29 59  1  0
 30 60  1  0
 31 61  1  0
 36 62  1  0
 37 63  1  0
 38 64  1  0
 39 65  1  0
 40 66  1  0
 41 67  1  0
M  CHG  2   3  -1  11  -1
M  END
>  <UniqueID>  (68) 
66

>  <SMILES>  (68) 
O=C([N-]Cc1ccccc1[O-])c1ccc(Sc2ccccc2)c(N(Cc2ccccc2)S(=O)(=O)c2ccccc2)c1

>  <Energy>  (68) 
75.32295403998704

>  <Genealogy>  (68) 
O=C([N-]Cc1ccccc1[O-])c1ccc(Sc2ccccc2)c(N(Cc2ccccc2)S(=O)(=O)c2ccccc2)c1 (protonated)
O=C([N-]Cc1ccccc1[O-])c1ccc(Sc2ccccc2)c(N(Cc2ccccc2)S(=O)(=O)c2ccccc2)c1 (3D coordinates assigned)
O=C([N-]Cc1ccccc1[O-])c1ccc(Sc2ccccc2)c(N(Cc2ccccc2)S(=O)(=O)c2ccccc2)c1 (optimized conformer: 75.32295403998704 kcal/mol)

>  <smiles>  (68) 
O=C(NCc1ccccc1O)c1ccc(Sc2ccccc2)c(N(Cc2ccccc2)S(=O)(=O)c2ccccc2)c1

>  <score_type>  (68) 
oracle

>  <origin>  (68) 
adg

>  <m_score__min__energy>  (68) 
-16.75

>  <m_primary>  (68) 
energy

$$$$
68:0
     RDKit          3D

 41 43  0  0  0  0  0  0  0  0999 V2000
   56.6340   19.6050   43.1960 H   0  0  0  0  0  0  0  0  0  0  0  0
   56.2260   20.5450   42.9900 N   0  0  0  0  0  0  0  0  0  0  0  0
   56.6380   21.6240   43.5750 C   0  0  0  0  0  0  0  0  0  0  0  0
   55.8170   22.7060   43.6370 N   0  0  0  0  0  0  0  0  0  0  0  0
   56.1960   23.8660   44.2360 C   0  0  0  0  0  0  0  0  0  0  0  0
   55.5033   24.7202   44.2614 H   0  0  0  0  0  0  0  0  0  0  0  0
   57.4680   23.9800   44.8230 C   0  0  0  0  0  0  0  0  0  0  0  0
   57.8920   25.2420   45.4830 C   0  0  0  0  0  0  0  0  0  0  0  0
   57.8190   25.3750   46.8780 C   0  0  0  0  0  0  0  0  0  0  0  0
   57.4511   24.5362   47.4872 H   0  0  0  0  0  0  0  0  0  0  0  0
   58.2090   26.5620   47.4990 C   0  0  0  0  0  0  0  0  0  0  0  0
   58.1421   26.6499   48.5934 H   0  0  0  0  0  0  0  0  0  0  0  0
   58.6860   27.6460   46.7440 C   0  0  0  0  0  0  0  0  0  0  0  0
   59.0580   28.8970   47.4470 C   0  0  0  0  0  0  0  0  0  0  0  0
   59.8240   28.8470   48.4470 O   0  0  0  0  0  0  0  0  0  0  0  0
   58.5630   30.1640   46.9880 N   0  0  0  0  0  0  0  0  0  0  0  0
   57.9070   30.1980   46.1760 H   0  0  0  0  0  0  0  0  0  0  0  0
   58.8880   31.4200   47.6610 C   0  0  0  0  0  0  0  0  0  0  0  0
   58.2149   31.5562   48.5203 H   0  0  0  0  0  0  0  0  0  0  0  0
   59.9327   31.3832   48.0035 H   0  0  0  0  0  0  0  0  0  0  0  0
   58.7240   32.5730   46.7160 C   0  0  0  0  0  0  0  0  0  0  0  0
   57.9250   32.4410   45.6200 N   0  0  0  0  0  0  0  0  0  0  0  0
   57.7670   33.4500   44.7230 C   0  0  0  0  0  0  0  0  0  0  0  0
   57.1101   33.3121   43.8515 H   0  0  0  0  0  0  0  0  0  0  0  0
   58.4370   34.6610   44.9060 C   0  0  0  0  0  0  0  0  0  0  0  0
   58.3131   35.4801   44.1823 H   0  0  0  0  0  0  0  0  0  0  0  0
   59.2670   34.8210   46.0190 C   0  0  0  0  0  0  0  0  0  0  0  0
   59.8014   35.7695   46.1767 H   0  0  0  0  0  0  0  0  0  0  0  0
   59.4160   33.7740   46.9300 C   0  0  0  0  0  0  0  0  0  0  0  0
   60.0697   33.8897   47.8071 H   0  0  0  0  0  0  0  0  0  0  0  0
   58.7850   27.5150   45.3350 C   0  0  0  0  0  0  0  0  0  0  0  0
   59.3230   28.6270   44.4720 C   0  0  0  0  0  0  0  0  0  0  0  0
   59.7126   29.4322   45.1122 H   0  0  0  0  0  0  0  0  0  0  0  0
   60.1331   28.2391   43.8369 H   0  0  0  0  0  0  0  0  0  0  0  0
   58.5161   29.0214   43.8369 H   0  0  0  0  0  0  0  0  0  0  0  0
   58.3740   26.3190   44.7220 C   0  0  0  0  0  0  0  0  0  0  0  0
   58.4309   26.2251   43.6275 H   0  0  0  0  0  0  0  0  0  0  0  0
   58.3280   22.8700   44.7700 C   0  0  0  0  0  0  0  0  0  0  0  0
   59.3294   22.9305   45.2211 H   0  0  0  0  0  0  0  0  0  0  0  0
   57.9160   21.6910   44.1470 C   0  0  0  0  0  0  0  0  0  0  0  0
   58.5886   20.8216   44.1052 H   0  0  0  0  0  0  0  0  0  0  0  0
  1  2  1  0
  2  3  2  0
  3  4  1  0
  4  5  1  0
  5  6  1  0
  5  7  2  0
  7  8  1  0
  8  9  2  0
  9 10  1  0
  9 11  1  0
 11 12  1  0
 11 13  2  0
 13 14  1  0
 14 15  2  0
 14 16  1  0
 16 17  1  0
 16 18  1  0
 18 19  1  0
 18 20  1  0
 18 21  1  0
 21 22  2  0
 22 23  1  0
 23 24  1  0
 23 25  2  0
 25 26  1  0
 25 27  1  0
 27 28  1  0
 27 29  2  0
 29 30  1  0
 13 31  1  0
 31 32  1  0
 32 33  1  0
 32 34  1  0
 32 35  1  0
 31 36  2  0
 36 37  1  0
  7 38  1  0
 38 39  1  0
 38 40  2  0
 40 41  1  0
 40  3  1  0
 36  8  1  0
 29 21  1  0
M  CHG  1   4  -1
M  END
>  <UniqueID>  (69) 
67

>  <SMILES>  (69) 
[H]/N=c1\ccc(-c2ccc(C(=O)NCc3ccccn3)c(C)c2)c[n-]1

>  <Energy>  (69) 
52.67827869732186

>  <Genealogy>  (69) 
Cc1cc(-c2ccc(=N)[n-]c2)ccc1C(=O)NCc1ccccn1 (protonated)
[H]/N=c1\ccc(-c2ccc(C(=O)NCc3ccccn3)c(C)c2)c[n-]1 (cis-trans isomerization)
[H]/N=c1\ccc(-c2ccc(C(=O)NCc3ccccn3)c(C)c2)c[n-]1 (3D coordinates assigned)
[H]/N=c1\ccc(-c2ccc(C(=O)NCc3ccccn3)c(C)c2)c[n-]1 (optimized conformer: 52.67827869732186 kcal/mol)

>  <smiles>  (69) 
Cc1cc(-c2ccc(=N)[nH]c2)ccc1C(=O)NCc1ccccn1

>  <score_type>  (69) 
oracle

>  <origin>  (69) 
adg

>  <m_score__min__energy>  (69) 
-8.9299999999999997

>  <m_primary>  (69) 
energy

$$$$
69:0
     RDKit          3D

 54 56  0  0  0  0  0  0  0  0999 V2000
   62.6500   33.8960   47.1560 C   0  0  0  0  0  0  0  0  0  0  0  0
   61.7450   33.7740   48.3540 C   0  0  0  0  0  0  0  0  0  0  0  0
   62.3100   33.4450   49.5940 C   0  0  0  0  0  0  0  0  0  0  0  0
   61.5090   33.3180   50.7310 C   0  0  0  0  0  0  0  0  0  0  0  0
   60.1240   33.5310   50.6560 C   0  0  0  0  0  0  0  0  0  0  0  0
   59.2880   33.3880   51.8720 C   0  0  0  0  0  0  0  0  0  0  0  0
   58.7010   34.4040   52.3390 O   0  0  0  0  0  0  0  0  0  0  0  0
   59.1180   32.1130   52.5140 N   0  0  0  0  0  0  0  0  0  0  0  0
   58.3520   31.9570   53.7480 C   0  0  0  0  0  0  0  0  0  0  0  0
   57.0490   31.2600   53.4670 C   0  0  0  0  0  0  0  0  0  0  0  0
   56.3370   31.5520   52.2910 C   0  0  0  0  0  0  0  0  0  0  0  0
   55.1150   30.9210   52.0330 C   0  0  0  0  0  0  0  0  0  0  0  0
   54.5950   30.0020   52.9470 C   0  0  0  0  0  0  0  0  0  0  0  0
   55.2930   29.7120   54.1220 C   0  0  0  0  0  0  0  0  0  0  0  0
   56.5160   30.3390   54.3850 C   0  0  0  0  0  0  0  0  0  0  0  0
   59.5530   33.8650   49.4160 C   0  0  0  0  0  0  0  0  0  0  0  0
   60.3530   34.0140   48.2720 C   0  0  0  0  0  0  0  0  0  0  0  0
   59.7010   34.3950   47.0030 C   0  0  0  0  0  0  0  0  0  0  0  0
   59.5530   35.6220   46.7540 O   0  0  0  0  0  0  0  0  0  0  0  0
   59.2410   33.4070   46.0540 N   0  0  0  0  0  0  0  0  0  0  0  0
   59.8160   32.0520   46.0260 C   0  0  0  0  0  0  0  0  0  0  0  0
   58.7380   31.0190   45.6800 C   0  0  0  0  0  0  0  0  0  0  0  0
   57.9140   31.4400   44.5360 N   0  0  0  0  0  0  0  0  0  0  0  0
   56.9510   30.5300   43.9590 C   0  0  0  0  0  0  0  0  0  0  0  0
   56.4800   30.7550   42.8110 O   0  0  0  0  0  0  0  0  0  0  0  0
   56.4650   29.3220   44.7070 C   0  0  0  0  0  0  0  0  0  0  0  0
   55.0700   29.3660   44.8070 O   0  0  0  0  0  0  0  0  0  0  0  0
   58.1600   32.7460   43.9070 C   0  0  0  0  0  0  0  0  0  0  0  0
   58.3320   33.8300   44.9760 C   0  0  0  0  0  0  0  0  0  0  0  0
   63.6877   34.0359   47.4931 H   0  0  0  0  0  0  0  0  0  0  0  0
   62.5816   32.9805   46.5500 H   0  0  0  0  0  0  0  0  0  0  0  0
   62.3416   34.7607   46.5500 H   0  0  0  0  0  0  0  0  0  0  0  0
   63.3955   33.2852   49.6723 H   0  0  0  0  0  0  0  0  0  0  0  0
   61.9678   33.0486   51.6938 H   0  0  0  0  0  0  0  0  0  0  0  0
   59.4700   31.2450   52.0520 H   0  0  0  0  0  0  0  0  0  0  0  0
   58.9356   31.3607   54.4648 H   0  0  0  0  0  0  0  0  0  0  0  0
   58.1431   32.9517   54.1685 H   0  0  0  0  0  0  0  0  0  0  0  0
   56.7416   32.2788   51.5712 H   0  0  0  0  0  0  0  0  0  0  0  0
   54.5633   31.1491   51.1091 H   0  0  0  0  0  0  0  0  0  0  0  0
   53.6349   29.5060   52.7416 H   0  0  0  0  0  0  0  0  0  0  0  0
   54.8804   28.9895   54.8416 H   0  0  0  0  0  0  0  0  0  0  0  0
   57.0615   30.1105   55.3125 H   0  0  0  0  0  0  0  0  0  0  0  0
   58.4654   34.0115   49.3409 H   0  0  0  0  0  0  0  0  0  0  0  0
   60.6122   32.0121   45.2681 H   0  0  0  0  0  0  0  0  0  0  0  0
   60.2265   31.8189   47.0196 H   0  0  0  0  0  0  0  0  0  0  0  0
   59.2272   30.0653   45.4327 H   0  0  0  0  0  0  0  0  0  0  0  0
   58.0769   30.9143   46.5529 H   0  0  0  0  0  0  0  0  0  0  0  0
   56.7655   28.4114   44.1680 H   0  0  0  0  0  0  0  0  0  0  0  0
   56.9050   29.3131   45.7151 H   0  0  0  0  0  0  0  0  0  0  0  0
   54.7710   30.0740   44.1790 H   0  0  0  0  0  0  0  0  0  0  0  0
   59.0746   32.6887   43.2986 H   0  0  0  0  0  0  0  0  0  0  0  0
   57.2993   33.0041   43.2725 H   0  0  0  0  0  0  0  0  0  0  0  0
   58.7413   34.7340   44.5015 H   0  0  0  0  0  0  0  0  0  0  0  0
   57.3456   34.0245   45.4222 H   0  0  0  0  0  0  0  0  0  0  0  0
  1  2  1  0
  2  3  2  0
  3  4  1  0
  4  5  2  0
  5  6  1  0
  6  7  2  0
  6  8  1  0
  8  9  1  0
  9 10  1  0
 10 11  2  0
 11 12  1  0
 12 13  2  0
 13 14  1  0
 14 15  2  0
  5 16  1  0
 16 17  2  0
 17 18  1  0
 18 19  2  0
 18 20  1  0
 20 21  1  0
 21 22  1  0
 22 23  1  0
 23 24  1  0
 24 25  2  0
 24 26  1  0
 26 27  1  0
 23 28  1  0
 28 29  1  0
 17  2  1  0
 29 20  1  0
 15 10  1  0
  1 30  1  0
  1 31  1  0
  1 32  1  0
  3 33  1  0
  4 34  1  0
  8 35  1  0
  9 36  1  0
  9 37  1  0
 11 38  1  0
 12 39  1  0
 13 40  1  0
 14 41  1  0
 15 42  1  0
 16 43  1  0
 21 44  1  0
 21 45  1  0
 22 46  1  0
 22 47  1  0
 26 48  1  0
 26 49  1  0
 27 50  1  0
 28 51  1  0
 28 52  1  0
 29 53  1  0
 29 54  1  0
M  END
>  <UniqueID>  (70) 
68

>  <SMILES>  (70) 
Cc1ccc(C(=O)NCc2ccccc2)cc1C(=O)N1CCN(C(=O)CO)CC1

>  <Energy>  (70) 
61.669029860088465

>  <Genealogy>  (70) 
Cc1ccc(C(=O)NCc2ccccc2)cc1C(=O)N1CCN(C(=O)CO)CC1 (3D coordinates assigned)
Cc1ccc(C(=O)NCc2ccccc2)cc1C(=O)N1CCN(C(=O)CO)CC1 (nonaromatic ring conformer: 61.669029860088465 kcal/mol)

>  <smiles>  (70) 
Cc1ccc(C(=O)NCc2ccccc2)cc1C(=O)N1CCN(C(=O)CO)CC1

>  <score_type>  (70) 
oracle

>  <origin>  (70) 
adg

>  <m_score__min__energy>  (70) 
-9.1999999999999993

>  <m_primary>  (70) 
energy

$$$$
70:0
     RDKit          3D

 58 61  0  0  0  0  0  0  0  0999 V2000
   57.8420   29.9410   44.3660 C   0  0  0  0  0  0  0  0  0  0  0  0
   58.2860   29.3500   45.4860 C   0  0  0  0  0  0  0  0  0  0  0  0
   58.1400   28.0010   45.8530 C   0  0  0  0  0  0  0  0  0  0  0  0
   57.6980   26.9360   45.1580 C   0  0  0  0  0  0  0  0  0  0  0  0
   57.0330   25.7520   45.7280 C   0  0  0  0  0  0  0  0  0  0  0  0
   57.6640   24.6210   46.0930 N   0  0  0  0  0  0  0  0  0  0  0  0
   56.6900   23.9010   46.6910 C   0  0  0  0  0  0  0  0  0  0  0  0
   56.8890   22.7500   47.1610 O   0  0  0  0  0  0  0  0  0  0  0  0
   55.4890   24.5140   46.7550 N   0  0  0  0  0  0  0  0  0  0  0  0
   55.7290   25.6910   46.1540 C   0  0  0  0  0  0  0  0  0  0  0  0
   54.7760   26.6920   46.0040 O   0  0  0  0  0  0  0  0  0  0  0  0
   58.5860   27.9060   47.1620 C   0  0  0  0  0  0  0  0  0  0  0  0
   59.0320   29.1580   47.5260 C   0  0  0  0  0  0  0  0  0  0  0  0
   59.6380   29.4960   48.8550 C   0  0  0  0  0  0  0  0  0  0  0  0
   58.8650   30.0320   46.5090 N   0  0  0  0  0  0  0  0  0  0  0  0
   59.1610   31.4380   46.5660 C   0  0  0  0  0  0  0  0  0  0  0  0
   58.1430   32.3770   46.3730 C   0  0  0  0  0  0  0  0  0  0  0  0
   58.4290   33.7430   46.4100 C   0  0  0  0  0  0  0  0  0  0  0  0
   59.7450   34.1930   46.6340 C   0  0  0  0  0  0  0  0  0  0  0  0
   60.0520   35.5610   46.7170 O   0  0  0  0  0  0  0  0  0  0  0  0
   60.0180   36.4670   45.6200 C   0  0  0  0  0  0  0  0  0  0  0  0
   60.7790   33.2450   46.7980 C   0  0  0  0  0  0  0  0  0  0  0  0
   62.1830   33.6720   47.0030 C   0  0  0  0  0  0  0  0  0  0  0  0
   62.8500   34.0840   46.0150 O   0  0  0  0  0  0  0  0  0  0  0  0
   62.7910   33.6350   48.3080 N   0  0  0  0  0  0  0  0  0  0  0  0
   62.0850   34.2260   49.4520 C   0  0  0  0  0  0  0  0  0  0  0  0
   62.4410   33.4820   50.7410 C   0  0  0  0  0  0  0  0  0  0  0  0
   63.9000   33.3260   50.8520 N   0  0  0  0  0  0  0  0  0  0  0  0
   64.5740   33.4450   52.1270 C   0  0  0  0  0  0  0  0  0  0  0  0
   64.0000   34.2560   53.2490 C   0  0  0  0  0  0  0  0  0  0  0  0
   65.6690   32.8500   52.3170 O   0  0  0  0  0  0  0  0  0  0  0  0
   64.5950   32.7190   49.7080 C   0  0  0  0  0  0  0  0  0  0  0  0
   64.2440   33.4630   48.4190 C   0  0  0  0  0  0  0  0  0  0  0  0
   60.4740   31.8740   46.7770 C   0  0  0  0  0  0  0  0  0  0  0  0
   58.0247   31.0130   44.2003 H   0  0  0  0  0  0  0  0  0  0  0  0
   57.2954   29.3535   43.6137 H   0  0  0  0  0  0  0  0  0  0  0  0
   57.8467   26.9516   44.0682 H   0  0  0  0  0  0  0  0  0  0  0  0
   58.5842   27.0032   47.7905 H   0  0  0  0  0  0  0  0  0  0  0  0
   58.9833   29.1308   49.6600 H   0  0  0  0  0  0  0  0  0  0  0  0
   60.6251   29.0182   48.9400 H   0  0  0  0  0  0  0  0  0  0  0  0
   59.7502   30.5870   48.9400 H   0  0  0  0  0  0  0  0  0  0  0  0
   57.1125   32.0380   46.1913 H   0  0  0  0  0  0  0  0  0  0  0  0
   57.6201   34.4739   46.2630 H   0  0  0  0  0  0  0  0  0  0  0  0
   59.9793   37.4993   45.9981 H   0  0  0  0  0  0  0  0  0  0  0  0
   60.9217   36.3347   45.0070 H   0  0  0  0  0  0  0  0  0  0  0  0
   59.1267   36.2673   45.0070 H   0  0  0  0  0  0  0  0  0  0  0  0
   62.3758   35.2822   49.5511 H   0  0  0  0  0  0  0  0  0  0  0  0
   61.0011   34.1467   49.2820 H   0  0  0  0  0  0  0  0  0  0  0  0
   62.0701   34.0535   51.6046 H   0  0  0  0  0  0  0  0  0  0  0  0
   61.9743   32.4861   50.7209 H   0  0  0  0  0  0  0  0  0  0  0  0
   64.3081   33.8207   54.2111 H   0  0  0  0  0  0  0  0  0  0  0  0
   64.3684   35.2902   53.1797 H   0  0  0  0  0  0  0  0  0  0  0  0
   62.9022   34.2524   53.1797 H   0  0  0  0  0  0  0  0  0  0  0  0
   65.6812   32.7720   49.8734 H   0  0  0  0  0  0  0  0  0  0  0  0
   64.2793   31.6696   49.6130 H   0  0  0  0  0  0  0  0  0  0  0  0
   64.7265   34.4515   48.4280 H   0  0  0  0  0  0  0  0  0  0  0  0
   64.6009   32.8765   47.5596 H   0  0  0  0  0  0  0  0  0  0  0  0
   61.2753   31.1356   46.9279 H   0  0  0  0  0  0  0  0  0  0  0  0
  1  2  2  0
  2  3  1  0
  3  4  2  3
  4  5  1  0
  5  6  1  0
  6  7  1  0
  7  8  2  0
  7  9  1  0
  9 10  1  0
 10 11  1  0
  3 12  1  0
 12 13  2  0
 13 14  1  0
 13 15  1  0
 15 16  1  0
 16 17  2  0
 17 18  1  0
 18 19  2  0
 19 20  1  0
 20 21  1  0
 19 22  1  0
 22 23  1  0
 23 24  2  0
 23 25  1  0
 25 26  1  0
 26 27  1  0
 27 28  1  0
 28 29  1  0
 29 30  1  0
 29 31  2  0
 28 32  1  0
 32 33  1  0
 22 34  2  0
 15  2  1  0
 34 16  1  0
 10  5  2  0
 33 25  1  0
  1 35  1  0
  1 36  1  0
  4 37  1  0
 12 38  1  0
 14 39  1  0
 14 40  1  0
 14 41  1  0
 17 42  1  0
 18 43  1  0
 21 44  1  0
 21 45  1  0
 21 46  1  0
 26 47  1  0
 26 48  1  0
 27 49  1  0
 27 50  1  0
 30 51  1  0
 30 52  1  0
 30 53  1  0
 32 54  1  0
 32 55  1  0
 33 56  1  0
 33 57  1  0
 34 58  1  0
M  CHG  3   6  -1   9  -1  11  -1
M  END
>  <UniqueID>  (71) 
69

>  <SMILES>  (71) 
C=c1c(=Cc2[n-]c(=O)[n-]c2[O-])cc(C)n1-c1ccc(OC)c(C(=O)N2CCN(C(C)=O)CC2)c1

>  <Energy>  (71) 
139.6319792810822

>  <Genealogy>  (71) 
C=c1c(=Cc2[n-]c(=O)[n-]c2[O-])cc(C)n1-c1ccc(OC)c(C(=O)N2CCN(C(C)=O)CC2)c1 (protonated)
C=c1c(=Cc2[n-]c(=O)[n-]c2[O-])cc(C)n1-c1ccc(OC)c(C(=O)N2CCN(C(C)=O)CC2)c1 (3D coordinates assigned)
C=c1c(=Cc2[n-]c(=O)[n-]c2[O-])cc(C)n1-c1ccc(OC)c(C(=O)N2CCN(C(C)=O)CC2)c1 (nonaromatic ring conformer: 139.6319792810822 kcal/mol)

>  <smiles>  (71) 
C=c1c(=Cc2[nH]c(=O)[nH]c2O)cc(C)n1-c1ccc(OC)c(C(=O)N2CCN(C(C)=O)CC2)c1

>  <score_type>  (71) 
oracle

>  <origin>  (71) 
adg

>  <m_score__min__energy>  (71) 
-17.140000000000001

>  <m_primary>  (71) 
energy

$$$$
71:0
     RDKit          3D

 47 49  0  0  0  0  0  0  0  0999 V2000
   63.7620   32.9920   47.7200 C   0  0  0  0  0  0  0  0  0  0  0  0
   62.5180   33.4700   47.8040 C   0  0  0  0  0  0  0  0  0  0  0  0
   61.6810   33.7200   46.7350 C   0  0  0  0  0  0  0  0  0  0  0  0
   60.5030   34.2010   47.2850 C   0  0  0  0  0  0  0  0  0  0  0  0
   59.3140   34.6110   46.5080 C   0  0  0  0  0  0  0  0  0  0  0  0
   59.3890   35.6880   45.8540 O   0  0  0  0  0  0  0  0  0  0  0  0
   58.0910   33.8260   46.4290 N   0  0  0  0  0  0  0  0  0  0  0  0
   58.2030   32.4700   47.0380 C   0  0  0  0  0  0  0  0  0  0  0  0
   58.3740   31.3110   46.0390 C   0  0  0  0  0  0  0  0  0  0  0  0
   57.4530   31.4690   44.9070 N   0  0  0  0  0  0  0  0  0  0  0  0
   57.3970   30.2800   44.0280 C   0  0  0  0  0  0  0  0  0  0  0  0
   57.6560   28.9660   44.7390 C   0  0  0  0  0  0  0  0  0  0  0  0
   56.5790   28.2020   45.2200 C   0  0  0  0  0  0  0  0  0  0  0  0
   56.8060   26.9960   45.9120 C   0  0  0  0  0  0  0  0  0  0  0  0
   55.7590   26.1940   46.3890 O   0  0  0  0  0  0  0  0  0  0  0  0
   55.5250   24.8500   45.9800 C   0  0  0  0  0  0  0  0  0  0  0  0
   58.1210   26.5740   46.1340 C   0  0  0  0  0  0  0  0  0  0  0  0
   59.1960   27.3280   45.6630 C   0  0  0  0  0  0  0  0  0  0  0  0
   58.9710   28.5170   44.9660 C   0  0  0  0  0  0  0  0  0  0  0  0
   60.0360   29.2360   44.5270 F   0  0  0  0  0  0  0  0  0  0  0  0
   57.7560   32.7100   44.1870 C   0  0  0  0  0  0  0  0  0  0  0  0
   57.4470   33.9010   45.0920 C   0  0  0  0  0  0  0  0  0  0  0  0
   60.6100   34.2480   48.5910 O   0  0  0  0  0  0  0  0  0  0  0  0
   61.8000   33.8200   48.9410 C   0  0  0  0  0  0  0  0  0  0  0  0
   62.2050   33.7590   50.2090 C   0  0  0  0  0  0  0  0  0  0  0  0
   64.3506   32.8266   48.6345 H   0  0  0  0  0  0  0  0  0  0  0  0
   64.1982   32.7637   46.7363 H   0  0  0  0  0  0  0  0  0  0  0  0
   61.9028   33.5689   45.6682 H   0  0  0  0  0  0  0  0  0  0  0  0
   57.4210   34.3310   47.0600 H   0  0  0  0  0  0  0  0  0  0  0  0
   59.0738   32.4704   47.7100 H   0  0  0  0  0  0  0  0  0  0  0  0
   57.2481   32.2886   47.5531 H   0  0  0  0  0  0  0  0  0  0  0  0
   59.4087   31.3043   45.6658 H   0  0  0  0  0  0  0  0  0  0  0  0
   58.1498   30.3636   46.5510 H   0  0  0  0  0  0  0  0  0  0  0  0
   56.3964   30.2344   43.5734 H   0  0  0  0  0  0  0  0  0  0  0  0
   58.1990   30.3995   43.2847 H   0  0  0  0  0  0  0  0  0  0  0  0
   55.5484   28.5491   45.0545 H   0  0  0  0  0  0  0  0  0  0  0  0
   55.4137   24.2106   46.8681 H   0  0  0  0  0  0  0  0  0  0  0  0
   54.6055   24.8047   45.3780 H   0  0  0  0  0  0  0  0  0  0  0  0
   56.3751   24.4966   45.3780 H   0  0  0  0  0  0  0  0  0  0  0  0
   58.3089   25.6403   46.6843 H   0  0  0  0  0  0  0  0  0  0  0  0
   60.2256   26.9844   45.8414 H   0  0  0  0  0  0  0  0  0  0  0  0
   58.8204   32.7245   43.9097 H   0  0  0  0  0  0  0  0  0  0  0  0
   57.1433   32.7685   43.2753 H   0  0  0  0  0  0  0  0  0  0  0  0
   57.7955   34.8161   44.5908 H   0  0  0  0  0  0  0  0  0  0  0  0
   56.3601   33.8991   45.2612 H   0  0  0  0  0  0  0  0  0  0  0  0
   63.2142   33.3917   50.4470 H   0  0  0  0  0  0  0  0  0  0  0  0
   61.5302   34.0759   51.0178 H   0  0  0  0  0  0  0  0  0  0  0  0
  1  2  2  0
  2  3  1  0
  3  4  2  0
  4  5  1  0
  5  6  2  0
  5  7  1  0
  7  8  1  0
  8  9  1  0
  9 10  1  0
 10 11  1  0
 11 12  1  0
 12 13  2  0
 13 14  1  0
 14 15  1  0
 15 16  1  0
 14 17  2  0
 17 18  1  0
 18 19  2  0
 19 20  1  0
 10 21  1  0
 21 22  1  0
  4 23  1  0
 23 24  1  0
 24 25  2  0
 24  2  1  0
 22  7  1  0
 19 12  1  0
  1 26  1  0
  1 27  1  0
  3 28  1  0
  7 29  1  0
  8 30  1  0
  8 31  1  0
  9 32  1  0
  9 33  1  0
 11 34  1  0
 11 35  1  0
 13 36  1  0
 16 37  1  0
 16 38  1  0
 16 39  1  0
 17 40  1  0
 18 41  1  0
 21 42  1  0
 21 43  1  0
 22 44  1  0
 22 45  1  0
 25 46  1  0
 25 47  1  0
M  CHG  1   7   1
M  END
>  <UniqueID>  (72) 
70

>  <SMILES>  (72) 
C=c1cc(C(=O)[NH+]2CCN(Cc3cc(OC)ccc3F)CC2)oc1=C

>  <Energy>  (72) 
89.57875696085975

>  <Genealogy>  (72) 
C=c1cc(C(=O)[NH+]2CCN(Cc3cc(OC)ccc3F)CC2)oc1=C (protonated)
C=c1cc(C(=O)[NH+]2CCN(Cc3cc(OC)ccc3F)CC2)oc1=C (3D coordinates assigned)
C=c1cc(C(=O)[NH+]2CCN(Cc3cc(OC)ccc3F)CC2)oc1=C (nonaromatic ring conformer: 89.57875696085975 kcal/mol)

>  <smiles>  (72) 
C=c1cc(C(=O)N2CCN(Cc3cc(OC)ccc3F)CC2)oc1=C

>  <score_type>  (72) 
oracle

>  <origin>  (72) 
adg

>  <m_score__min__energy>  (72) 
-6.8899999999999997

>  <m_primary>  (72) 
energy

$$$$
72:0
     RDKit          3D

 47 49  0  0  0  0  0  0  0  0999 V2000
   61.7820   30.6390   49.2850 C   0  0  0  0  0  0  0  0  0  0  0  0
   61.2730   31.9810   48.9640 N   0  0  0  0  0  0  0  0  0  0  0  0
   59.8090   32.0360   49.1440 C   0  0  0  0  0  0  0  0  0  0  0  0
   59.2720   33.4840   49.1680 C   0  0  0  0  0  0  0  0  0  0  0  0
   60.2330   34.4770   48.6530 N   0  0  0  0  0  0  0  0  0  0  0  0
   60.2760   34.5390   46.9010 S   0  0  0  0  0  0  0  0  0  0  0  0
   59.9220   35.9290   46.4500 O   0  0  0  0  0  0  0  0  0  0  0  0
   61.6730   34.2460   46.4290 O   0  0  0  0  0  0  0  0  0  0  0  0
   59.1720   33.3860   46.1500 C   0  0  0  0  0  0  0  0  0  0  0  0
   57.9000   33.7940   45.7230 C   0  0  0  0  0  0  0  0  0  0  0  0
   57.0200   32.8710   45.1500 C   0  0  0  0  0  0  0  0  0  0  0  0
   57.3920   31.5290   45.0150 C   0  0  0  0  0  0  0  0  0  0  0  0
   56.4760   30.6010   44.4200 N   0  0  0  0  0  0  0  0  0  0  0  0
   56.6930   29.1890   44.3540 C   0  0  0  0  0  0  0  0  0  0  0  0
   57.4420   28.7230   43.4540 O   0  0  0  0  0  0  0  0  0  0  0  0
   56.0200   28.3060   45.2620 N   0  0  0  0  0  0  0  0  0  0  0  0
   56.5490   26.9960   45.6250 C   0  0  0  0  0  0  0  0  0  0  0  0
   57.9270   27.1570   46.1820 C   0  0  0  0  0  0  0  0  0  0  0  0
   58.3300   28.1360   47.0790 C   0  0  0  0  0  0  0  0  0  0  0  0
   59.6410   27.9550   47.5360 C   0  0  0  0  0  0  0  0  0  0  0  0
   60.2640   26.8280   47.0140 C   0  0  0  0  0  0  0  0  0  0  0  0
   59.1790   26.0530   45.9880 S   0  0  0  0  0  0  0  0  0  0  0  0
   58.6790   31.1280   45.4110 C   0  0  0  0  0  0  0  0  0  0  0  0
   59.5630   32.0530   45.9730 C   0  0  0  0  0  0  0  0  0  0  0  0
   61.5760   34.4000   49.2700 C   0  0  0  0  0  0  0  0  0  0  0  0
   61.9300   32.9980   49.7920 C   0  0  0  0  0  0  0  0  0  0  0  0
   61.8286   30.5161   50.3771 H   0  0  0  0  0  0  0  0  0  0  0  0
   61.1093   29.8801   48.8590 H   0  0  0  0  0  0  0  0  0  0  0  0
   62.7888   30.5171   48.8590 H   0  0  0  0  0  0  0  0  0  0  0  0
   59.3306   31.4957   48.3138 H   0  0  0  0  0  0  0  0  0  0  0  0
   59.5732   31.5750   50.1145 H   0  0  0  0  0  0  0  0  0  0  0  0
   58.3620   33.5280   48.5515 H   0  0  0  0  0  0  0  0  0  0  0  0
   59.0763   33.7389   50.2200 H   0  0  0  0  0  0  0  0  0  0  0  0
   57.5936   34.8440   45.8393 H   0  0  0  0  0  0  0  0  0  0  0  0
   56.0298   33.2017   44.8034 H   0  0  0  0  0  0  0  0  0  0  0  0
   55.2240   28.6820   45.8250 H   0  0  0  0  0  0  0  0  0  0  0  0
   55.8983   26.5338   46.3820 H   0  0  0  0  0  0  0  0  0  0  0  0
   56.5846   26.3529   44.7333 H   0  0  0  0  0  0  0  0  0  0  0  0
   57.6858   28.9686   47.3982 H   0  0  0  0  0  0  0  0  0  0  0  0
   60.1319   28.6408   48.2422 H   0  0  0  0  0  0  0  0  0  0  0  0
   61.2904   26.4990   47.2338 H   0  0  0  0  0  0  0  0  0  0  0  0
   58.9920   30.0819   45.2782 H   0  0  0  0  0  0  0  0  0  0  0  0
   60.5703   31.7327   46.2776 H   0  0  0  0  0  0  0  0  0  0  0  0
   62.3229   34.6900   48.5163 H   0  0  0  0  0  0  0  0  0  0  0  0
   61.5740   35.0776   50.1365 H   0  0  0  0  0  0  0  0  0  0  0  0
   63.0200   32.8563   49.7487 H   0  0  0  0  0  0  0  0  0  0  0  0
   61.5853   32.8990   50.8319 H   0  0  0  0  0  0  0  0  0  0  0  0
  1  2  1  0
  2  3  1  0
  3  4  1  0
  4  5  1  0
  5  6  1  0
  6  7  2  0
  6  8  2  0
  6  9  1  0
  9 10  2  0
 10 11  1  0
 11 12  2  0
 12 13  1  0
 13 14  1  0
 14 15  2  0
 14 16  1  0
 16 17  1  0
 17 18  1  0
 18 19  2  0
 19 20  1  0
 20 21  2  0
 21 22  1  0
 12 23  1  0
 23 24  2  0
  5 25  1  0
 25 26  1  0
 26  2  1  0
 24  9  1  0
 22 18  1  0
  1 27  1  0
  1 28  1  0
  1 29  1  0
  3 30  1  0
  3 31  1  0
  4 32  1  0
  4 33  1  0
 10 34  1  0
 11 35  1  0
 16 36  1  0
 17 37  1  0
 17 38  1  0
 19 39  1  0
 20 40  1  0
 21 41  1  0
 23 42  1  0
 24 43  1  0
 25 44  1  0
 25 45  1  0
 26 46  1  0
 26 47  1  0
M  CHG  1  13  -1
M  END
>  <UniqueID>  (73) 
71

>  <SMILES>  (73) 
CN1CCN(S(=O)(=O)c2ccc([N-]C(=O)NCc3cccs3)cc2)CC1

>  <Energy>  (73) 
81.31947318434946

>  <Genealogy>  (73) 
CN1CCN(S(=O)(=O)c2ccc([N-]C(=O)NCc3cccs3)cc2)CC1 (protonated)
CN1CCN(S(=O)(=O)c2ccc([N-]C(=O)NCc3cccs3)cc2)CC1 (3D coordinates assigned)
CN1CCN(S(=O)(=O)c2ccc([N-]C(=O)NCc3cccs3)cc2)CC1 (nonaromatic ring conformer: 81.31947318434946 kcal/mol)

>  <smiles>  (73) 
CN1CCN(S(=O)(=O)c2ccc(NC(=O)NCc3cccs3)cc2)CC1

>  <score_type>  (73) 
oracle

>  <origin>  (73) 
adg

>  <m_score__min__energy>  (73) 
-9.6199999999999992

>  <m_primary>  (73) 
energy

$$$$
73:0
     RDKit          3D

 60 64  0  0  0  0  0  0  0  0999 V2000
   55.5130   21.1250   44.2490 H   0  0  0  0  0  0  0  0  0  0  0  0
   55.7770   22.0480   43.8360 N   0  0  0  0  0  0  0  0  0  0  0  0
   55.8220   23.1170   44.5620 C   0  0  0  0  0  0  0  0  0  0  0  0
   54.7820   23.9740   44.6710 N   0  0  0  0  0  0  0  0  0  0  0  0
   55.2590   24.9220   45.4950 C   0  0  0  0  0  0  0  0  0  0  0  0
   54.5240   26.0380   45.8840 O   0  0  0  0  0  0  0  0  0  0  0  0
   53.6450   25.9500   46.3780 H   0  0  0  0  0  0  0  0  0  0  0  0
   56.5520   24.6160   45.8660 C   0  0  0  0  0  0  0  0  0  0  0  0
   57.4740   25.4440   46.7070 C   0  0  0  0  0  0  0  0  0  0  0  0
   56.9826   25.6782   47.6629 H   0  0  0  0  0  0  0  0  0  0  0  0
   58.3994   24.8782   46.8903 H   0  0  0  0  0  0  0  0  0  0  0  0
   57.8120   26.7200   45.9980 C   0  0  0  0  0  0  0  0  0  0  0  0
   59.1100   27.2090   45.8810 C   0  0  0  0  0  0  0  0  0  0  0  0
   60.0223   26.7101   46.2400 H   0  0  0  0  0  0  0  0  0  0  0  0
   59.0420   28.6940   45.0960 S   0  0  0  0  0  0  0  0  0  0  0  0
   57.3740   28.7200   44.8820 C   0  0  0  0  0  0  0  0  0  0  0  0
   56.6270   29.8260   44.2640 C   0  0  0  0  0  0  0  0  0  0  0  0
   55.9600   29.5980   43.2210 O   0  0  0  0  0  0  0  0  0  0  0  0
   56.5970   31.1460   44.8260 N   0  0  0  0  0  0  0  0  0  0  0  0
   57.3380   32.3060   44.3390 C   0  0  0  0  0  0  0  0  0  0  0  0
   58.0651   31.9778   43.5816 H   0  0  0  0  0  0  0  0  0  0  0  0
   56.6262   33.0212   43.9011 H   0  0  0  0  0  0  0  0  0  0  0  0
   58.0680   32.9800   45.4620 C   0  0  0  0  0  0  0  0  0  0  0  0
   59.4090   32.8430   45.7610 C   0  0  0  0  0  0  0  0  0  0  0  0
   60.1415   32.2029   45.2475 H   0  0  0  0  0  0  0  0  0  0  0  0
   59.6410   33.6780   46.8410 C   0  0  0  0  0  0  0  0  0  0  0  0
   60.9420   33.8980   47.4980 C   0  0  0  0  0  0  0  0  0  0  0  0
   61.0260   34.7410   48.4300 O   0  0  0  0  0  0  0  0  0  0  0  0
   62.1150   33.1740   47.0850 N   0  0  0  0  0  0  0  0  0  0  0  0
   62.1380   31.7200   47.1060 C   0  0  0  0  0  0  0  0  0  0  0  0
   61.1131   31.3355   46.9978 H   0  0  0  0  0  0  0  0  0  0  0  0
   62.7577   31.3511   46.2754 H   0  0  0  0  0  0  0  0  0  0  0  0
   62.7250   31.2390   48.4320 C   0  0  0  0  0  0  0  0  0  0  0  0
   61.9182   31.2305   49.1797 H   0  0  0  0  0  0  0  0  0  0  0  0
   63.1497   30.2430   48.2379 H   0  0  0  0  0  0  0  0  0  0  0  0
   63.8360   32.0690   48.9620 N   0  0  0  0  0  0  0  0  0  0  0  0
   64.5380   31.6100   50.1640 C   0  0  0  0  0  0  0  0  0  0  0  0
   65.8950   31.9490   50.3990 C   0  0  0  0  0  0  0  0  0  0  0  0
   66.4337   32.5652   49.6641 H   0  0  0  0  0  0  0  0  0  0  0  0
   66.5590   31.5130   51.5490 C   0  0  0  0  0  0  0  0  0  0  0  0
   67.6103   31.7917   51.7133 H   0  0  0  0  0  0  0  0  0  0  0  0
   65.8950   30.7270   52.4880 C   0  0  0  0  0  0  0  0  0  0  0  0
   66.4199   30.3889   53.3936 H   0  0  0  0  0  0  0  0  0  0  0  0
   64.5650   30.3700   52.2780 C   0  0  0  0  0  0  0  0  0  0  0  0
   64.0420   29.7473   53.0187 H   0  0  0  0  0  0  0  0  0  0  0  0
   63.8920   30.7990   51.1310 C   0  0  0  0  0  0  0  0  0  0  0  0
   62.8441   30.5027   50.9758 H   0  0  0  0  0  0  0  0  0  0  0  0
   64.1460   33.4220   48.4340 C   0  0  0  0  0  0  0  0  0  0  0  0
   63.8659   34.1589   49.2011 H   0  0  0  0  0  0  0  0  0  0  0  0
   65.2206   33.4188   48.1989 H   0  0  0  0  0  0  0  0  0  0  0  0
   63.4270   33.7960   47.1320 C   0  0  0  0  0  0  0  0  0  0  0  0
   63.3127   34.8889   47.0814 H   0  0  0  0  0  0  0  0  0  0  0  0
   64.0230   33.4400   46.2787 H   0  0  0  0  0  0  0  0  0  0  0  0
   58.5050   34.3150   47.1920 N   0  0  0  0  0  0  0  0  0  0  0  0
   58.3890   35.0110   47.9610 H   0  0  0  0  0  0  0  0  0  0  0  0
   57.5400   33.8900   46.3570 C   0  0  0  0  0  0  0  0  0  0  0  0
   56.4901   34.2173   46.3829 H   0  0  0  0  0  0  0  0  0  0  0  0
   56.8390   27.5720   45.4540 C   0  0  0  0  0  0  0  0  0  0  0  0
   55.7612   27.3533   45.4779 H   0  0  0  0  0  0  0  0  0  0  0  0
   56.9210   23.4700   45.2620 N   0  0  0  0  0  0  0  0  0  0  0  0
  1  2  1  0
  2  3  2  0
  3  4  1  0
  4  5  1  0
  5  6  1  0
  6  7  1  0
  5  8  2  0
  8  9  1  0
  9 10  1  0
  9 11  1  0
  9 12  1  0
 12 13  2  0
 13 14  1  0
 13 15  1  0
 15 16  1  0
 16 17  1  0
 17 18  2  0
 17 19  1  0
 19 20  1  0
 20 21  1  0
 20 22  1  0
 20 23  1  0
 23 24  1  0
 24 25  1  0
 24 26  2  0
 26 27  1  0
 27 28  2  0
 27 29  1  0
 29 30  1  0
 30 31  1  0
 30 32  1  0
 30 33  1  0
 33 34  1  0
 33 35  1  0
 33 36  1  0
 36 37  1  0
 37 38  2  0
 38 39  1  0
 38 40  1  0
 40 41  1  0
 40 42  2  0
 42 43  1  0
 42 44  1  0
 44 45  1  0
 44 46  2  0
 46 47  1  0
 36 48  1  0
 48 49  1  0
 48 50  1  0
 48 51  1  0
 51 52  1  0
 51 53  1  0
 26 54  1  0
 54 55  1  0
 54 56  1  0
 56 57  1  0
 16 58  2  0
 58 59  1  0
  8 60  1  0
 60  3  1  0
 58 12  1  0
 56 23  2  0
 51 29  1  0
 46 37  1  0
M  CHG  3   4  -1  19  -1  60  -1
M  END
>  <UniqueID>  (74) 
72

>  <SMILES>  (74) 
[H]/N=c1\[n-]c(O)c(Cc2csc(C(=O)[N-]Cc3c[nH]c(C(=O)N4CCN(c5ccccc5)CC4)c3)c2)[n-]1

>  <Energy>  (74) 
154.8435305102853

>  <Genealogy>  (74) 
N=c1[n-]c(O)c(Cc2csc(C(=O)[N-]Cc3c[nH]c(C(=O)N4CCN(c5ccccc5)CC4)c3)c2)[n-]1 (protonated)
[H]/N=c1\[n-]c(O)c(Cc2csc(C(=O)[N-]Cc3c[nH]c(C(=O)N4CCN(c5ccccc5)CC4)c3)c2)[n-]1 (cis-trans isomerization)
[H]/N=c1\[n-]c(O)c(Cc2csc(C(=O)[N-]Cc3c[nH]c(C(=O)N4CCN(c5ccccc5)CC4)c3)c2)[n-]1 (3D coordinates assigned)
[H]/N=c1\[n-]c(O)c(Cc2csc(C(=O)[N-]Cc3c[nH]c(C(=O)N4CCN(c5ccccc5)CC4)c3)c2)[n-]1 (nonaromatic ring conformer: 154.8435305102853 kcal/mol)

>  <smiles>  (74) 
N=c1[nH]c(O)c(Cc2csc(C(=O)NCc3c[nH]c(C(=O)N4CCN(c5ccccc5)CC4)c3)c2)[nH]1

>  <score_type>  (74) 
oracle

>  <origin>  (74) 
adg

>  <m_score__min__energy>  (74) 
-15.06

>  <m_primary>  (74) 
energy

$$$$
74:0
     RDKit          3D

 66 70  0  0  0  0  0  0  0  0999 V2000
   59.6380   35.3460   46.9260 C   0  0  0  0  0  0  0  0  0  0  0  0
   58.9330   34.3430   46.4120 C   0  0  0  0  0  0  0  0  0  0  0  0
   57.9970   33.5530   47.1350 N   0  0  0  0  0  0  0  0  0  0  0  0
   57.4770   32.6020   46.2010 C   0  0  0  0  0  0  0  0  0  0  0  0
   58.0120   32.7550   44.9860 C   0  0  0  0  0  0  0  0  0  0  0  0
   57.7170   31.9060   43.7830 C   0  0  0  0  0  0  0  0  0  0  0  0
   56.3910   31.1440   43.9310 C   0  0  0  0  0  0  0  0  0  0  0  0
   56.5670   29.6520   43.8000 C   0  0  0  0  0  0  0  0  0  0  0  0
   56.7340   29.1520   42.6550 O   0  0  0  0  0  0  0  0  0  0  0  0
   56.4220   28.7670   44.9210 N   0  0  0  0  0  0  0  0  0  0  0  0
   57.3970   28.5030   45.9370 C   0  0  0  0  0  0  0  0  0  0  0  0
   58.1660   29.5640   46.4320 C   0  0  0  0  0  0  0  0  0  0  0  0
   59.1130   29.3430   47.4350 C   0  0  0  0  0  0  0  0  0  0  0  0
   59.2960   28.0560   47.9710 C   0  0  0  0  0  0  0  0  0  0  0  0
   60.2950   27.8320   49.0420 C   0  0  0  0  0  0  0  0  0  0  0  0
   60.9720   26.7670   49.0300 O   0  0  0  0  0  0  0  0  0  0  0  0
   60.5330   28.8080   50.0740 N   0  0  0  0  0  0  0  0  0  0  0  0
   59.4110   29.4520   50.7680 C   0  0  0  0  0  0  0  0  0  0  0  0
   59.7100   30.9380   50.9820 C   0  0  0  0  0  0  0  0  0  0  0  0
   61.0820   31.1740   51.6750 C   0  0  0  0  0  0  0  0  0  0  0  0
   61.8470   32.3040   51.0880 N   0  0  0  0  0  0  0  0  0  0  0  0
   62.2880   33.4360   51.8800 C   0  0  0  0  0  0  0  0  0  0  0  0
   61.8540   33.6220   53.0480 O   0  0  0  0  0  0  0  0  0  0  0  0
   63.2320   34.4490   51.2970 C   0  0  0  0  0  0  0  0  0  0  0  0
   64.1210   33.8110   50.2270 C   0  0  0  0  0  0  0  0  0  0  0  0
   63.2800   33.0690   49.2240 C   0  0  0  0  0  0  0  0  0  0  0  0
   63.6160   33.0880   47.8620 C   0  0  0  0  0  0  0  0  0  0  0  0
   62.8290   32.4030   46.9340 C   0  0  0  0  0  0  0  0  0  0  0  0
   61.7030   31.6970   47.3600 C   0  0  0  0  0  0  0  0  0  0  0  0
   61.3690   31.6580   48.7170 C   0  0  0  0  0  0  0  0  0  0  0  0
   62.1690   32.3210   49.6710 C   0  0  0  0  0  0  0  0  0  0  0  0
   61.9640   29.9070   51.8050 C   0  0  0  0  0  0  0  0  0  0  0  0
   61.9020   28.9710   50.5900 C   0  0  0  0  0  0  0  0  0  0  0  0
   58.4930   27.0030   47.5030 C   0  0  0  0  0  0  0  0  0  0  0  0
   57.5490   27.2250   46.4960 C   0  0  0  0  0  0  0  0  0  0  0  0
   58.9640   33.8590   45.0470 C   0  0  0  0  0  0  0  0  0  0  0  0
   59.6650   34.3060   44.1000 O   0  0  0  0  0  0  0  0  0  0  0  0
   60.3418   35.9052   46.2920 H   0  0  0  0  0  0  0  0  0  0  0  0
   59.5176   35.6168   47.9853 H   0  0  0  0  0  0  0  0  0  0  0  0
   57.7390   33.6430   48.1430 H   0  0  0  0  0  0  0  0  0  0  0  0
   56.7274   31.8373   46.4526 H   0  0  0  0  0  0  0  0  0  0  0  0
   57.6577   32.5541   42.8962 H   0  0  0  0  0  0  0  0  0  0  0  0
   58.5254   31.1670   43.6806 H   0  0  0  0  0  0  0  0  0  0  0  0
   55.9660   31.3638   44.9215 H   0  0  0  0  0  0  0  0  0  0  0  0
   55.7223   31.4748   43.1227 H   0  0  0  0  0  0  0  0  0  0  0  0
   58.0234   30.5773   46.0285 H   0  0  0  0  0  0  0  0  0  0  0  0
   59.7196   30.1814   47.8080 H   0  0  0  0  0  0  0  0  0  0  0  0
   58.4994   29.3477   50.1612 H   0  0  0  0  0  0  0  0  0  0  0  0
   59.2664   28.9688   51.7455 H   0  0  0  0  0  0  0  0  0  0  0  0
   59.7174   31.4411   50.0038 H   0  0  0  0  0  0  0  0  0  0  0  0
   58.9281   31.3456   51.6396 H   0  0  0  0  0  0  0  0  0  0  0  0
   60.8079   31.4574   52.7019 H   0  0  0  0  0  0  0  0  0  0  0  0
   62.6502   35.2647   50.8430 H   0  0  0  0  0  0  0  0  0  0  0  0
   63.8730   34.8378   52.1020 H   0  0  0  0  0  0  0  0  0  0  0  0
   64.6904   34.5984   49.7115 H   0  0  0  0  0  0  0  0  0  0  0  0
   64.8101   33.1027   50.7100 H   0  0  0  0  0  0  0  0  0  0  0  0
   64.5026   33.6445   47.5240 H   0  0  0  0  0  0  0  0  0  0  0  0
   63.0965   32.4198   45.8672 H   0  0  0  0  0  0  0  0  0  0  0  0
   61.0763   31.1696   46.6257 H   0  0  0  0  0  0  0  0  0  0  0  0
   60.4753   31.1059   49.0433 H   0  0  0  0  0  0  0  0  0  0  0  0
   63.0078   30.2257   51.9423 H   0  0  0  0  0  0  0  0  0  0  0  0
   61.5763   29.3381   52.6629 H   0  0  0  0  0  0  0  0  0  0  0  0
   62.5330   29.3876   49.7911 H   0  0  0  0  0  0  0  0  0  0  0  0
   62.2583   27.9813   50.9117 H   0  0  0  0  0  0  0  0  0  0  0  0
   58.6077   25.9965   47.9318 H   0  0  0  0  0  0  0  0  0  0  0  0
   56.9224   26.3939   46.1402 H   0  0  0  0  0  0  0  0  0  0  0  0
  1  2  2  0
  2  3  1  0
  3  4  1  0
  4  5  2  0
  5  6  1  0
  6  7  1  0
  7  8  1  0
  8  9  2  0
  8 10  1  0
 10 11  1  0
 11 12  2  0
 12 13  1  0
 13 14  2  0
 14 15  1  0
 15 16  2  0
 15 17  1  0
 17 18  1  0
 18 19  1  0
 19 20  1  0
 20 21  1  0
 21 22  1  0
 22 23  2  0
 22 24  1  0
 24 25  1  0
 25 26  1  0
 26 27  2  0
 27 28  1  0
 28 29  2  0
 29 30  1  0
 30 31  2  0
 20 32  1  0
 32 33  1  0
 14 34  1  0
 34 35  2  0
  5 36  1  0
 36 37  2  0
 36  2  1  0
 35 11  1  0
 33 17  1  0
 31 21  1  0
 31 26  1  0
  1 38  1  0
  1 39  1  0
  3 40  1  0
  4 41  1  0
  6 42  1  0
  6 43  1  0
  7 44  1  0
  7 45  1  0
 12 46  1  0
 13 47  1  0
 18 48  1  0
 18 49  1  0
 19 50  1  0
 19 51  1  0
 20 52  1  0
 24 53  1  0
 24 54  1  0
 25 55  1  0
 25 56  1  0
 27 57  1  0
 28 58  1  0
 29 59  1  0
 30 60  1  0
 32 61  1  0
 32 62  1  0
 33 63  1  0
 33 64  1  0
 34 65  1  0
 35 66  1  0
M  CHG  1  10  -1
M  END
>  <UniqueID>  (75) 
73

>  <SMILES>  (75) 
C=C1NC=C(CCC(=O)[N-]c2ccc(C(=O)N3CCC(N4C(=O)CCc5ccccc54)CC3)cc2)C1=O

>  <Energy>  (75) 
113.62028421661228

>  <Genealogy>  (75) 
C=C1NC=C(CCC(=O)[N-]c2ccc(C(=O)N3CCC(N4C(=O)CCc5ccccc54)CC3)cc2)C1=O (protonated)
C=C1NC=C(CCC(=O)[N-]c2ccc(C(=O)N3CCC(N4C(=O)CCc5ccccc54)CC3)cc2)C1=O (3D coordinates assigned)
C=C1NC=C(CCC(=O)[N-]c2ccc(C(=O)N3CCC(N4C(=O)CCc5ccccc54)CC3)cc2)C1=O (nonaromatic ring conformer: 113.62028421661228 kcal/mol)

>  <smiles>  (75) 
C=C1NC=C(CCC(=O)Nc2ccc(C(=O)N3CCC(N4C(=O)CCc5ccccc54)CC3)cc2)C1=O

>  <score_type>  (75) 
oracle

>  <origin>  (75) 
adg

>  <m_score__min__energy>  (75) 
-12.640000000000001

>  <m_primary>  (75) 
energy

$$$$
75:0
     RDKit          3D

 56 59  0  0  0  0  0  0  0  0999 V2000
   56.6060   23.3510   46.4700 C   0  0  0  0  0  0  0  0  0  0  0  0
   56.3000   24.8060   46.6560 C   0  0  0  0  0  0  0  0  0  0  0  0
   55.1580   25.2330   46.3410 O   0  0  0  0  0  0  0  0  0  0  0  0
   57.2790   25.7330   47.1450 N   0  0  0  0  0  0  0  0  0  0  0  0
   57.5680   27.0290   46.5990 C   0  0  0  0  0  0  0  0  0  0  0  0
   57.0760   27.4250   45.3450 C   0  0  0  0  0  0  0  0  0  0  0  0
   57.3820   28.6890   44.8350 C   0  0  0  0  0  0  0  0  0  0  0  0
   58.1830   29.5800   45.5720 C   0  0  0  0  0  0  0  0  0  0  0  0
   58.5120   30.8890   45.0740 N   0  0  0  0  0  0  0  0  0  0  0  0
   57.5600   31.7980   44.4980 C   0  0  0  0  0  0  0  0  0  0  0  0
   56.3230   31.5580   44.5530 O   0  0  0  0  0  0  0  0  0  0  0  0
   58.0240   33.0880   43.8860 C   0  0  0  0  0  0  0  0  0  0  0  0
   57.8910   34.2050   44.8490 N   0  0  0  0  0  0  0  0  0  0  0  0
   57.3160   33.7870   46.1460 C   0  0  0  0  0  0  0  0  0  0  0  0
   58.2840   32.9150   46.9750 C   0  0  0  0  0  0  0  0  0  0  0  0
   59.6820   33.0420   46.5160 N   0  0  0  0  0  0  0  0  0  0  0  0
   60.6110   32.4750   47.5130 C   0  0  0  0  0  0  0  0  0  0  0  0
   59.9050   32.2730   48.8170 C   0  0  0  0  0  0  0  0  0  0  0  0
   59.3070   31.0800   49.0860 N   0  0  0  0  0  0  0  0  0  0  0  0
   58.6760   30.8540   50.2660 C   0  0  0  0  0  0  0  0  0  0  0  0
   58.1310   29.7360   50.4720 O   0  0  0  0  0  0  0  0  0  0  0  0
   58.6390   31.8650   51.2410 C   0  0  0  0  0  0  0  0  0  0  0  0
   58.0020   31.6970   52.4830 C   0  0  0  0  0  0  0  0  0  0  0  0
   57.9980   32.7410   53.4130 C   0  0  0  0  0  0  0  0  0  0  0  0
   58.6280   33.9530   53.1150 C   0  0  0  0  0  0  0  0  0  0  0  0
   59.2630   34.1300   51.8830 C   0  0  0  0  0  0  0  0  0  0  0  0
   59.2720   33.0930   50.9440 C   0  0  0  0  0  0  0  0  0  0  0  0
   59.8870   33.2640   49.7450 N   0  0  0  0  0  0  0  0  0  0  0  0
   59.9990   34.4510   46.2240 C   0  0  0  0  0  0  0  0  0  0  0  0
   59.1600   34.9510   45.0310 C   0  0  0  0  0  0  0  0  0  0  0  0
   58.7220   29.1560   46.7970 C   0  0  0  0  0  0  0  0  0  0  0  0
   58.4210   27.8880   47.3020 C   0  0  0  0  0  0  0  0  0  0  0  0
   56.7074   22.8690   47.4536 H   0  0  0  0  0  0  0  0  0  0  0  0
   55.7887   22.8731   45.9100 H   0  0  0  0  0  0  0  0  0  0  0  0
   57.5465   23.2428   45.9100 H   0  0  0  0  0  0  0  0  0  0  0  0
   56.4467   26.7368   44.7615 H   0  0  0  0  0  0  0  0  0  0  0  0
   56.9940   28.9895   43.8506 H   0  0  0  0  0  0  0  0  0  0  0  0
   59.4800   31.2450   45.2420 H   0  0  0  0  0  0  0  0  0  0  0  0
   59.0794   32.9887   43.5924 H   0  0  0  0  0  0  0  0  0  0  0  0
   57.4005   33.3050   43.0062 H   0  0  0  0  0  0  0  0  0  0  0  0
   57.0681   34.6873   46.7273 H   0  0  0  0  0  0  0  0  0  0  0  0
   56.4231   33.1809   45.9331 H   0  0  0  0  0  0  0  0  0  0  0  0
   58.2274   33.2265   48.0285 H   0  0  0  0  0  0  0  0  0  0  0  0
   57.9822   31.8645   46.8512 H   0  0  0  0  0  0  0  0  0  0  0  0
   60.9884   31.5077   47.1499 H   0  0  0  0  0  0  0  0  0  0  0  0
   61.4491   33.1718   47.6614 H   0  0  0  0  0  0  0  0  0  0  0  0
   57.5069   30.7445   52.7230 H   0  0  0  0  0  0  0  0  0  0  0  0
   57.4970   32.6082   54.3833 H   0  0  0  0  0  0  0  0  0  0  0  0
   58.6238   34.7693   53.8523 H   0  0  0  0  0  0  0  0  0  0  0  0
   59.7562   35.0855   51.6512 H   0  0  0  0  0  0  0  0  0  0  0  0
   59.7739   35.0647   47.1087 H   0  0  0  0  0  0  0  0  0  0  0  0
   61.0663   34.5330   45.9708 H   0  0  0  0  0  0  0  0  0  0  0  0
   58.9203   36.0122   45.1938 H   0  0  0  0  0  0  0  0  0  0  0  0
   59.7613   34.7949   44.1232 H   0  0  0  0  0  0  0  0  0  0  0  0
   59.3856   29.8262   47.3631 H   0  0  0  0  0  0  0  0  0  0  0  0
   58.8572   27.5629   48.2581 H   0  0  0  0  0  0  0  0  0  0  0  0
  1  2  1  0
  2  3  2  0
  2  4  1  0
  4  5  1  0
  5  6  2  0
  6  7  1  0
  7  8  2  0
  8  9  1  0
  9 10  1  0
 10 11  2  0
 10 12  1  0
 12 13  1  0
 13 14  1  0
 14 15  1  0
 15 16  1  0
 16 17  1  0
 17 18  1  0
 18 19  2  0
 19 20  1  0
 20 21  2  0
 20 22  1  0
 22 23  2  0
 23 24  1  0
 24 25  2  0
 25 26  1  0
 26 27  2  0
 27 28  1  0
 16 29  1  0
 29 30  1  0
  8 31  1  0
 31 32  2  0
 32  5  1  0
 30 13  1  0
 28 18  1  0
 27 22  1  0
  1 33  1  0
  1 34  1  0
  1 35  1  0
  6 36  1  0
  7 37  1  0
  9 38  1  0
 12 39  1  0
 12 40  1  0
 14 41  1  0
 14 42  1  0
 15 43  1  0
 15 44  1  0
 17 45  1  0
 17 46  1  0
 23 47  1  0
 24 48  1  0
 25 49  1  0
 26 50  1  0
 29 51  1  0
 29 52  1  0
 30 53  1  0
 30 54  1  0
 31 55  1  0
 32 56  1  0
M  CHG  2   4  -1  28  -1
M  END
>  <UniqueID>  (76) 
74

>  <SMILES>  (76) 
CC(=O)[N-]c1ccc(NC(=O)CN2CCN(Cc3nc(=O)c4ccccc4[n-]3)CC2)cc1

>  <Energy>  (76) 
80.68294685031563

>  <Genealogy>  (76) 
CC(=O)[N-]c1ccc(NC(=O)CN2CCN(Cc3nc(=O)c4ccccc4[n-]3)CC2)cc1 (protonated)
CC(=O)[N-]c1ccc(NC(=O)CN2CCN(Cc3nc(=O)c4ccccc4[n-]3)CC2)cc1 (3D coordinates assigned)
CC(=O)[N-]c1ccc(NC(=O)CN2CCN(Cc3nc(=O)c4ccccc4[n-]3)CC2)cc1 (nonaromatic ring conformer: 80.68294685031563 kcal/mol)

>  <smiles>  (76) 
CC(=O)Nc1ccc(NC(=O)CN2CCN(Cc3nc(=O)c4ccccc4[nH]3)CC2)cc1

>  <score_type>  (76) 
oracle

>  <origin>  (76) 
adg

>  <m_score__min__energy>  (76) 
-11.300000000000001

>  <m_primary>  (76) 
energy

$$$$
76:0
     RDKit          3D

 40 42  0  0  0  0  0  0  0  0999 V2000
   64.0720   32.8020   47.0000 N   0  0  0  0  0  0  0  0  0  0  0  0
   63.0000   33.2210   48.2890 S   0  0  0  0  0  0  0  0  0  0  0  0
   63.1020   32.1960   49.3830 O   0  0  0  0  0  0  0  0  0  0  0  0
   63.3850   34.5630   48.8470 O   0  0  0  0  0  0  0  0  0  0  0  0
   61.3490   33.2710   47.6830 C   0  0  0  0  0  0  0  0  0  0  0  0
   60.2750   32.9870   48.5340 C   0  0  0  0  0  0  0  0  0  0  0  0
   58.9660   33.0380   48.0470 C   0  0  0  0  0  0  0  0  0  0  0  0
   58.7470   33.3830   46.7110 C   0  0  0  0  0  0  0  0  0  0  0  0
   57.0790   33.4920   46.0560 S   0  0  0  0  0  0  0  0  0  0  0  0
   57.5430   33.1380   44.3230 C   0  0  0  0  0  0  0  0  0  0  0  0
   57.2620   31.7130   43.9520 C   0  0  0  0  0  0  0  0  0  0  0  0
   57.0120   31.2980   42.6450 C   0  0  0  0  0  0  0  0  0  0  0  0
   56.6530   29.6550   42.6880 S   0  0  0  0  0  0  0  0  0  0  0  0
   56.8430   29.5480   44.3530 C   0  0  0  0  0  0  0  0  0  0  0  0
   56.5930   28.0600   45.3140 S   0  0  0  0  0  0  0  0  0  0  0  0
   58.3290   27.5380   45.1440 C   0  0  0  0  0  0  0  0  0  0  0  0
   59.1810   28.2670   46.1420 C   0  0  0  0  0  0  0  0  0  0  0  0
   60.0090   29.3240   45.7300 C   0  0  0  0  0  0  0  0  0  0  0  0
   60.7910   30.0100   46.6650 C   0  0  0  0  0  0  0  0  0  0  0  0
   60.7440   29.6520   48.0150 C   0  0  0  0  0  0  0  0  0  0  0  0
   61.5040   30.3190   48.9200 F   0  0  0  0  0  0  0  0  0  0  0  0
   59.9120   28.6100   48.4340 C   0  0  0  0  0  0  0  0  0  0  0  0
   59.1280   27.9220   47.5030 C   0  0  0  0  0  0  0  0  0  0  0  0
   57.1680   30.7380   44.8960 N   0  0  0  0  0  0  0  0  0  0  0  0
   59.8050   33.6430   45.8950 N   0  0  0  0  0  0  0  0  0  0  0  0
   61.0860   33.5890   46.3440 C   0  0  0  0  0  0  0  0  0  0  0  0
   64.9850   33.2700   47.1980 H   0  0  0  0  0  0  0  0  0  0  0  0
   64.2410   31.7720   47.0650 H   0  0  0  0  0  0  0  0  0  0  0  0
   60.4610   32.7237   49.5857 H   0  0  0  0  0  0  0  0  0  0  0  0
   58.1174   32.8090   48.7084 H   0  0  0  0  0  0  0  0  0  0  0  0
   56.9679   33.7992   43.6581 H   0  0  0  0  0  0  0  0  0  0  0  0
   58.6237   33.3128   44.2156 H   0  0  0  0  0  0  0  0  0  0  0  0
   57.0438   31.9315   41.7463 H   0  0  0  0  0  0  0  0  0  0  0  0
   58.4036   26.4551   45.3225 H   0  0  0  0  0  0  0  0  0  0  0  0
   58.6801   27.7720   44.1281 H   0  0  0  0  0  0  0  0  0  0  0  0
   60.0426   29.6131   44.6692 H   0  0  0  0  0  0  0  0  0  0  0  0
   61.4439   30.8324   46.3372 H   0  0  0  0  0  0  0  0  0  0  0  0
   59.8740   28.3309   49.4973 H   0  0  0  0  0  0  0  0  0  0  0  0
   58.4677   27.1081   47.8371 H   0  0  0  0  0  0  0  0  0  0  0  0
   61.9183   33.7953   45.6551 H   0  0  0  0  0  0  0  0  0  0  0  0
  1  2  1  0
  2  3  2  0
  2  4  2  0
  2  5  1  0
  5  6  2  0
  6  7  1  0
  7  8  2  0
  8  9  1  0
  9 10  1  0
 10 11  1  0
 11 12  2  0
 12 13  1  0
 13 14  1  0
 14 15  1  0
 15 16  1  0
 16 17  1  0
 17 18  2  0
 18 19  1  0
 19 20  2  0
 20 21  1  0
 20 22  1  0
 22 23  2  0
 14 24  2  0
  8 25  1  0
 25 26  2  0
 26  5  1  0
 24 11  1  0
 23 17  1  0
  1 27  1  0
  1 28  1  0
  6 29  1  0
  7 30  1  0
 10 31  1  0
 10 32  1  0
 12 33  1  0
 16 34  1  0
 16 35  1  0
 18 36  1  0
 19 37  1  0
 22 38  1  0
 23 39  1  0
 26 40  1  0
M  END
>  <UniqueID>  (77) 
75

>  <SMILES>  (77) 
NS(=O)(=O)c1ccc(SCc2csc(SCc3ccc(F)cc3)n2)nc1

>  <Energy>  (77) 
58.25036284090853

>  <Genealogy>  (77) 
NS(=O)(=O)c1ccc(SCc2csc(SCc3ccc(F)cc3)n2)nc1 (3D coordinates assigned)
NS(=O)(=O)c1ccc(SCc2csc(SCc3ccc(F)cc3)n2)nc1 (optimized conformer: 58.25036284090853 kcal/mol)

>  <smiles>  (77) 
NS(=O)(=O)c1ccc(SCc2csc(SCc3ccc(F)cc3)n2)nc1

>  <score_type>  (77) 
oracle

>  <origin>  (77) 
adg

>  <m_score__min__energy>  (77) 
-8.5800000000000001

>  <m_primary>  (77) 
energy

$$$$
77:0
     RDKit          3D

 51 53  0  0  0  0  0  0  0  0999 V2000
   55.1450   28.0260   44.9570 H   0  0  0  0  0  0  0  0  0  0  0  0
   55.4720   28.9770   45.0550 O   0  0  0  0  0  0  0  0  0  0  0  0
   56.7630   29.2400   45.4580 N   0  0  0  0  0  0  0  0  0  0  0  0
   56.9810   29.1310   46.4700 H   0  0  0  0  0  0  0  0  0  0  0  0
   57.6730   29.6500   44.6140 C   0  0  0  0  0  0  0  0  0  0  0  0
   57.9680   31.0970   44.4600 C   0  0  0  0  0  0  0  0  0  0  0  0
   57.8780   31.6960   43.1970 C   0  0  0  0  0  0  0  0  0  0  0  0
   57.5714   31.1021   42.3233 H   0  0  0  0  0  0  0  0  0  0  0  0
   58.1800   33.0520   43.0540 C   0  0  0  0  0  0  0  0  0  0  0  0
   58.1172   33.5262   42.0635 H   0  0  0  0  0  0  0  0  0  0  0  0
   58.5510   33.7870   44.1340 N   0  0  0  0  0  0  0  0  0  0  0  0
   58.6470   33.2400   45.3770 C   0  0  0  0  0  0  0  0  0  0  0  0
   59.0160   34.0610   46.4510 O   0  0  0  0  0  0  0  0  0  0  0  0
   60.1610   33.8940   47.2430 C   0  0  0  0  0  0  0  0  0  0  0  0
   61.4110   33.5690   46.6870 C   0  0  0  0  0  0  0  0  0  0  0  0
   61.5051   33.4203   45.6012 H   0  0  0  0  0  0  0  0  0  0  0  0
   62.5340   33.4340   47.5070 C   0  0  0  0  0  0  0  0  0  0  0  0
   63.5078   33.1789   47.0637 H   0  0  0  0  0  0  0  0  0  0  0  0
   62.4260   33.6220   48.8920 C   0  0  0  0  0  0  0  0  0  0  0  0
   63.6450   33.5090   49.7700 C   0  0  0  0  0  0  0  0  0  0  0  0
   63.3289   33.2901   50.8006 H   0  0  0  0  0  0  0  0  0  0  0  0
   64.1965   34.4601   49.7343 H   0  0  0  0  0  0  0  0  0  0  0  0
   64.5620   32.3900   49.2780 C   0  0  0  0  0  0  0  0  0  0  0  0
   64.9937   31.8632   50.1418 H   0  0  0  0  0  0  0  0  0  0  0  0
   63.9815   31.6814   48.6690 H   0  0  0  0  0  0  0  0  0  0  0  0
   65.3709   32.8199   48.6690 H   0  0  0  0  0  0  0  0  0  0  0  0
   61.1840   33.9690   49.4450 C   0  0  0  0  0  0  0  0  0  0  0  0
   61.0934   34.1346   50.5287 H   0  0  0  0  0  0  0  0  0  0  0  0
   60.0610   34.1050   48.6230 C   0  0  0  0  0  0  0  0  0  0  0  0
   59.0916   34.3799   49.0643 H   0  0  0  0  0  0  0  0  0  0  0  0
   58.3340   31.8820   45.5620 C   0  0  0  0  0  0  0  0  0  0  0  0
   58.3761   31.4374   46.5673 H   0  0  0  0  0  0  0  0  0  0  0  0
   58.4340   28.7100   43.8290 N   0  0  0  0  0  0  0  0  0  0  0  0
   59.0380   29.0840   43.0610 H   0  0  0  0  0  0  0  0  0  0  0  0
   58.5410   27.2800   44.1260 C   0  0  0  0  0  0  0  0  0  0  0  0
   57.5734   26.7973   43.9243 H   0  0  0  0  0  0  0  0  0  0  0  0
   59.3273   26.8477   43.4897 H   0  0  0  0  0  0  0  0  0  0  0  0
   58.9140   27.0540   45.5730 C   0  0  0  0  0  0  0  0  0  0  0  0
   57.9320   26.8670   46.5670 C   0  0  0  0  0  0  0  0  0  0  0  0
   56.5710   26.8520   46.2210 O   0  0  0  0  0  0  0  0  0  0  0  0
   55.8540   25.6500   45.9590 C   0  0  0  0  0  0  0  0  0  0  0  0
   55.5716   25.1766   46.9109 H   0  0  0  0  0  0  0  0  0  0  0  0
   54.9469   25.8825   45.3818 H   0  0  0  0  0  0  0  0  0  0  0  0
   56.4896   24.9623   45.3818 H   0  0  0  0  0  0  0  0  0  0  0  0
   58.3110   26.6980   47.8680 N   0  0  0  0  0  0  0  0  0  0  0  0
   59.6180   26.7130   48.2510 C   0  0  0  0  0  0  0  0  0  0  0  0
   59.8825   26.5712   49.3093 H   0  0  0  0  0  0  0  0  0  0  0  0
   60.6210   26.9080   47.3020 C   0  0  0  0  0  0  0  0  0  0  0  0
   61.6784   26.9225   47.6046 H   0  0  0  0  0  0  0  0  0  0  0  0
   60.2660   27.0850   45.9600 C   0  0  0  0  0  0  0  0  0  0  0  0
   61.0480   27.2492   45.2041 H   0  0  0  0  0  0  0  0  0  0  0  0
  1  2  1  0
  2  3  1  0
  3  4  1  0
  3  5  2  0
  5  6  1  0
  6  7  2  0
  7  8  1  0
  7  9  1  0
  9 10  1  0
  9 11  2  0
 11 12  1  0
 12 13  1  0
 13 14  1  0
 14 15  2  0
 15 16  1  0
 15 17  1  0
 17 18  1  0
 17 19  2  0
 19 20  1  0
 20 21  1  0
 20 22  1  0
 20 23  1  0
 23 24  1  0
 23 25  1  0
 23 26  1  0
 19 27  1  0
 27 28  1  0
 27 29  2  0
 29 30  1  0
 12 31  2  0
 31 32  1  0
  5 33  1  0
 33 34  1  0
 33 35  1  0
 35 36  1  0
 35 37  1  0
 35 38  1  0
 38 39  2  0
 39 40  1  0
 40 41  1  0
 41 42  1  0
 41 43  1  0
 41 44  1  0
 39 45  1  0
 45 46  2  0
 46 47  1  0
 46 48  1  0
 48 49  1  0
 48 50  2  0
 50 51  1  0
 31  6  1  0
 50 38  1  0
 29 14  1  0
M  CHG  1   3   1
M  END
>  <UniqueID>  (78) 
76

>  <SMILES>  (78) 
CCc1ccc(Oc2cc(/C(NCc3cccnc3OC)=[NH+]\O)ccn2)cc1

>  <Energy>  (78) 
60.280670875600286

>  <Genealogy>  (78) 
CCc1ccc(Oc2cc(C(NCc3cccnc3OC)=[NH+]O)ccn2)cc1 (protonated)
CCc1ccc(Oc2cc(/C(NCc3cccnc3OC)=[NH+]\O)ccn2)cc1 (cis-trans isomerization)
CCc1ccc(Oc2cc(/C(NCc3cccnc3OC)=[NH+]\O)ccn2)cc1 (3D coordinates assigned)
CCc1ccc(Oc2cc(/C(NCc3cccnc3OC)=[NH+]\O)ccn2)cc1 (optimized conformer: 60.280670875600286 kcal/mol)

>  <smiles>  (78) 
CCc1ccc(Oc2cc(C(=NO)NCc3cccnc3OC)ccn2)cc1

>  <score_type>  (78) 
oracle

>  <origin>  (78) 
adg

>  <m_score__min__energy>  (78) 
-7.5199999999999996

>  <m_primary>  (78) 
energy

$$$$
78:0
     RDKit          3D

 29 30  0  0  0  0  0  0  0  0999 V2000
   58.2970   34.5830   44.4930 O   0  0  0  0  0  0  0  0  0  0  0  0
   58.1900   33.4380   45.0080 C   0  0  0  0  0  0  0  0  0  0  0  0
   57.6780   32.3050   44.1720 C   0  0  0  0  0  0  0  0  0  0  0  0
   56.6340   31.5980   44.9100 N   0  0  0  0  0  0  0  0  0  0  0  0
   56.5200   29.9600   44.3440 S   0  0  0  0  0  0  0  0  0  0  0  0
   55.2480   29.3470   44.8600 O   0  0  0  0  0  0  0  0  0  0  0  0
   56.4880   29.9370   42.8410 O   0  0  0  0  0  0  0  0  0  0  0  0
   57.8910   29.0320   44.9450 C   0  0  0  0  0  0  0  0  0  0  0  0
   59.1920   29.3040   44.4970 C   0  0  0  0  0  0  0  0  0  0  0  0
   60.2750   28.5790   45.0040 C   0  0  0  0  0  0  0  0  0  0  0  0
   60.0640   27.5830   45.9620 C   0  0  0  0  0  0  0  0  0  0  0  0
   58.7690   27.3120   46.4150 C   0  0  0  0  0  0  0  0  0  0  0  0
   57.6850   28.0350   45.9080 C   0  0  0  0  0  0  0  0  0  0  0  0
   58.5400   33.2450   46.4300 C   0  0  0  0  0  0  0  0  0  0  0  0
   59.2630   34.1220   47.2200 C   0  0  0  0  0  0  0  0  0  0  0  0
   59.3500   33.5370   48.4660 C   0  0  0  0  0  0  0  0  0  0  0  0
   58.6800   32.3330   48.3860 C   0  0  0  0  0  0  0  0  0  0  0  0
   58.1900   32.1590   47.1450 N   0  0  0  0  0  0  0  0  0  0  0  0
   57.2623   32.6991   43.2329 H   0  0  0  0  0  0  0  0  0  0  0  0
   58.5017   31.6131   43.9422 H   0  0  0  0  0  0  0  0  0  0  0  0
   59.3608   30.0892   43.7453 H   0  0  0  0  0  0  0  0  0  0  0  0
   61.2939   28.7926   44.6487 H   0  0  0  0  0  0  0  0  0  0  0  0
   60.9164   27.0126   46.3594 H   0  0  0  0  0  0  0  0  0  0  0  0
   58.6032   26.5298   47.1704 H   0  0  0  0  0  0  0  0  0  0  0  0
   56.6673   27.8206   46.2661 H   0  0  0  0  0  0  0  0  0  0  0  0
   59.6839   35.0915   46.9151 H   0  0  0  0  0  0  0  0  0  0  0  0
   59.8553   33.9499   49.3516 H   0  0  0  0  0  0  0  0  0  0  0  0
   58.5636   31.6200   49.2155 H   0  0  0  0  0  0  0  0  0  0  0  0
   57.6430   31.3350   46.8110 H   0  0  0  0  0  0  0  0  0  0  0  0
  1  2  2  0
  2  3  1  0
  3  4  1  0
  4  5  1  0
  5  6  2  0
  5  7  2  0
  5  8  1  0
  8  9  2  0
  9 10  1  0
 10 11  2  0
 11 12  1  0
 12 13  2  0
  2 14  1  0
 14 15  2  0
 15 16  1  0
 16 17  2  0
 17 18  1  0
 13  8  1  0
 18 14  1  0
  3 19  1  0
  3 20  1  0
  9 21  1  0
 10 22  1  0
 11 23  1  0
 12 24  1  0
 13 25  1  0
 15 26  1  0
 16 27  1  0
 17 28  1  0
 18 29  1  0
M  CHG  1   4  -1
M  END
>  <UniqueID>  (79) 
77

>  <SMILES>  (79) 
O=C(C[N-]S(=O)(=O)c1ccccc1)c1ccc[nH]1

>  <Energy>  (79) 
50.29472910607983

>  <Genealogy>  (79) 
O=C(C[N-]S(=O)(=O)c1ccccc1)c1ccc[nH]1 (protonated)
O=C(C[N-]S(=O)(=O)c1ccccc1)c1ccc[nH]1 (3D coordinates assigned)
O=C(C[N-]S(=O)(=O)c1ccccc1)c1ccc[nH]1 (optimized conformer: 50.29472910607983 kcal/mol)

>  <smiles>  (79) 
O=C(CNS(=O)(=O)c1ccccc1)c1ccc[nH]1

>  <score_type>  (79) 
oracle

>  <origin>  (79) 
adg

>  <m_score__min__energy>  (79) 
-8.4000000000000004

>  <m_primary>  (79) 
energy

$$$$
79:0
     RDKit          3D

 52 54  0  0  0  0  0  0  0  0999 V2000
   54.8160   26.6910   45.0000 H   0  0  0  0  0  0  0  0  0  0  0  0
   55.1660   26.7030   45.9830 N   0  0  0  0  0  0  0  0  0  0  0  0
   56.4310   26.1340   46.3130 C   0  0  0  0  0  0  0  0  0  0  0  0
   56.4890   25.1070   47.0380 O   0  0  0  0  0  0  0  0  0  0  0  0
   57.6890   26.7470   45.7800 C   0  0  0  0  0  0  0  0  0  0  0  0
   57.6466   26.7587   44.6809 H   0  0  0  0  0  0  0  0  0  0  0  0
   58.5455   26.1488   46.1244 H   0  0  0  0  0  0  0  0  0  0  0  0
   57.8490   28.1250   46.2710 N   0  0  0  0  0  0  0  0  0  0  0  0
   58.6610   28.3660   47.4370 C   0  0  0  0  0  0  0  0  0  0  0  0
   58.1530   28.2680   48.5850 O   0  0  0  0  0  0  0  0  0  0  0  0
   60.0520   28.6950   47.3280 N   0  0  0  0  0  0  0  0  0  0  0  0
   60.8250   29.4160   48.3000 C   0  0  0  0  0  0  0  0  0  0  0  0
   61.1460   28.8470   49.5540 C   0  0  0  0  0  0  0  0  0  0  0  0
   60.7450   27.1790   49.9490 Cl  0  0  0  0  0  0  0  0  0  0  0  0
   61.8830   29.5840   50.4860 C   0  0  0  0  0  0  0  0  0  0  0  0
   62.1271   29.1400   51.4624 H   0  0  0  0  0  0  0  0  0  0  0  0
   62.3110   30.8770   50.1880 C   0  0  0  0  0  0  0  0  0  0  0  0
   62.8674   31.4586   50.9378 H   0  0  0  0  0  0  0  0  0  0  0  0
   62.0340   31.4330   48.9400 C   0  0  0  0  0  0  0  0  0  0  0  0
   62.3764   32.4523   48.7079 H   0  0  0  0  0  0  0  0  0  0  0  0
   61.3200   30.7000   47.9760 C   0  0  0  0  0  0  0  0  0  0  0  0
   61.0350   31.3380   46.6420 C   0  0  0  0  0  0  0  0  0  0  0  0
   60.5909   32.3321   46.7984 H   0  0  0  0  0  0  0  0  0  0  0  0
   61.9730   31.4403   46.0766 H   0  0  0  0  0  0  0  0  0  0  0  0
   60.3329   30.7076   46.0766 H   0  0  0  0  0  0  0  0  0  0  0  0
   57.3440   29.2420   45.5080 C   0  0  0  0  0  0  0  0  0  0  0  0
   57.7820   30.5000   45.7880 N   0  0  0  0  0  0  0  0  0  0  0  0
   57.3470   31.5810   45.0870 C   0  0  0  0  0  0  0  0  0  0  0  0
   57.8260   32.7560   45.3790 N   0  0  0  0  0  0  0  0  0  0  0  0
   58.4640   33.1560   46.6050 C   0  0  0  0  0  0  0  0  0  0  0  0
   59.3560   34.2310   46.5670 C   0  0  0  0  0  0  0  0  0  0  0  0
   59.5351   34.7586   45.6185 H   0  0  0  0  0  0  0  0  0  0  0  0
   60.0210   34.6400   47.7230 C   0  0  0  0  0  0  0  0  0  0  0  0
   60.7192   35.4890   47.6807 H   0  0  0  0  0  0  0  0  0  0  0  0
   59.8060   33.9790   48.9320 C   0  0  0  0  0  0  0  0  0  0  0  0
   60.5090   34.3760   50.0240 F   0  0  0  0  0  0  0  0  0  0  0  0
   58.9250   32.8810   48.9890 C   0  0  0  0  0  0  0  0  0  0  0  0
   58.6800   32.1550   50.2570 C   0  0  0  0  0  0  0  0  0  0  0  0
   58.6270   32.8010   51.3360 O   0  0  0  0  0  0  0  0  0  0  0  0
   58.5470   30.7260   50.2760 N   0  0  0  0  0  0  0  0  0  0  0  0
   58.7400   30.1700   49.4070 H   0  0  0  0  0  0  0  0  0  0  0  0
   58.2340   30.0010   51.5010 C   0  0  0  0  0  0  0  0  0  0  0  0
   58.5008   30.6189   52.3711 H   0  0  0  0  0  0  0  0  0  0  0  0
   57.1579   29.7745   51.5282 H   0  0  0  0  0  0  0  0  0  0  0  0
   58.8071   29.0625   51.5282 H   0  0  0  0  0  0  0  0  0  0  0  0
   58.2810   32.4570   47.8130 C   0  0  0  0  0  0  0  0  0  0  0  0
   57.6287   31.5716   47.8373 H   0  0  0  0  0  0  0  0  0  0  0  0
   56.4640   31.4080   44.0670 N   0  0  0  0  0  0  0  0  0  0  0  0
   55.9880   30.1750   43.7520 C   0  0  0  0  0  0  0  0  0  0  0  0
   55.2643   30.0581   42.9319 H   0  0  0  0  0  0  0  0  0  0  0  0
   56.4160   29.0590   44.4670 C   0  0  0  0  0  0  0  0  0  0  0  0
   56.0364   28.0559   44.2228 H   0  0  0  0  0  0  0  0  0  0  0  0
  1  2  1  0
  2  3  1  0
  3  4  2  0
  3  5  1  0
  5  6  1  0
  5  7  1  0
  5  8  1  0
  8  9  1  0
  9 10  2  0
  9 11  1  0
 11 12  1  0
 12 13  2  0
 13 14  1  0
 13 15  1  0
 15 16  1  0
 15 17  2  0
 17 18  1  0
 17 19  1  0
 19 20  1  0
 19 21  2  0
 21 22  1  0
 22 23  1  0
 22 24  1  0
 22 25  1  0
  8 26  1  0
 26 27  2  0
 27 28  1  0
 28 29  2  0
 29 30  1  0
 30 31  2  0
 31 32  1  0
 31 33  1  0
 33 34  1  0
 33 35  2  0
 35 36  1  0
 35 37  1  0
 37 38  1  0
 38 39  2  0
 38 40  1  0
 40 41  1  0
 40 42  1  0
 42 43  1  0
 42 44  1  0
 42 45  1  0
 37 46  2  0
 46 47  1  0
 28 48  1  0
 48 49  1  0
 49 50  1  0
 49 51  2  0
 51 52  1  0
 21 12  1  0
 51 26  1  0
 46 30  1  0
M  CHG  3   2  -1  11  -1  48  -1
M  END
>  <UniqueID>  (80) 
78

>  <SMILES>  (80) 
CNC(=O)c1cc(/N=c2/nc(N(CC([NH-])=O)C(=O)[N-]c3c(C)cccc3Cl)cc[n-]2)ccc1F

>  <Energy>  (80) 
71.53055028945433

>  <Genealogy>  (80) 
CNC(=O)c1cc(N=c2nc(N(CC([NH-])=O)C(=O)[N-]c3c(C)cccc3Cl)cc[n-]2)ccc1F (protonated)
CNC(=O)c1cc(/N=c2/nc(N(CC([NH-])=O)C(=O)[N-]c3c(C)cccc3Cl)cc[n-]2)ccc1F (cis-trans isomerization)
CNC(=O)c1cc(/N=c2/nc(N(CC([NH-])=O)C(=O)[N-]c3c(C)cccc3Cl)cc[n-]2)ccc1F (3D coordinates assigned)
CNC(=O)c1cc(/N=c2/nc(N(CC([NH-])=O)C(=O)[N-]c3c(C)cccc3Cl)cc[n-]2)ccc1F (optimized conformer: 71.53055028945433 kcal/mol)

>  <smiles>  (80) 
CNC(=O)c1cc(N=c2nc(N(CC(N)=O)C(=O)Nc3c(C)cccc3Cl)cc[nH]2)ccc1F

>  <score_type>  (80) 
oracle

>  <origin>  (80) 
adg

>  <m_score__min__energy>  (80) 
-15.42

>  <m_primary>  (80) 
energy

$$$$
80:0
     RDKit          3D

 50 53  0  0  0  0  0  0  0  0999 V2000
   51.9460   32.0010   49.4130 H   0  0  0  0  0  0  0  0  0  0  0  0
   51.0740   32.0830   49.9190 O   0  0  0  0  0  0  0  0  0  0  0  0
   51.0200   32.0160   51.3090 C   0  0  0  0  0  0  0  0  0  0  0  0
   50.1990   32.7810   52.0480 N   0  0  0  0  0  0  0  0  0  0  0  0
   50.4780   32.3880   53.3090 C   0  0  0  0  0  0  0  0  0  0  0  0
   49.9020   32.8790   54.3150 O   0  0  0  0  0  0  0  0  0  0  0  0
   51.4180   31.4260   53.4050 N   0  0  0  0  0  0  0  0  0  0  0  0
   51.7710   31.1960   52.1270 C   0  0  0  0  0  0  0  0  0  0  0  0
   52.7360   30.1660   51.6830 C   0  0  0  0  0  0  0  0  0  0  0  0
   52.3606   29.3690   51.0244 H   0  0  0  0  0  0  0  0  0  0  0  0
   54.0420   30.1290   52.0240 C   0  0  0  0  0  0  0  0  0  0  0  0
   55.0420   31.0100   51.6220 C   0  0  0  0  0  0  0  0  0  0  0  0
   54.9227   31.8914   50.9748 H   0  0  0  0  0  0  0  0  0  0  0  0
   56.2140   30.5580   52.1970 C   0  0  0  0  0  0  0  0  0  0  0  0
   57.5510   31.2300   52.0840 C   0  0  0  0  0  0  0  0  0  0  0  0
   57.3976   32.2856   51.8155 H   0  0  0  0  0  0  0  0  0  0  0  0
   58.0626   31.1395   53.0536 H   0  0  0  0  0  0  0  0  0  0  0  0
   58.4150   30.5810   51.0360 C   0  0  0  0  0  0  0  0  0  0  0  0
   58.2460   29.3590   50.7620 O   0  0  0  0  0  0  0  0  0  0  0  0
   59.4010   31.3430   50.3080 N   0  0  0  0  0  0  0  0  0  0  0  0
   59.1870   32.7380   49.9510 C   0  0  0  0  0  0  0  0  0  0  0  0
   58.4719   33.1907   50.6536 H   0  0  0  0  0  0  0  0  0  0  0  0
   60.1430   33.2798   50.0006 H   0  0  0  0  0  0  0  0  0  0  0  0
   58.6270   32.8210   48.5290 C   0  0  0  0  0  0  0  0  0  0  0  0
   57.5339   32.7115   48.5859 H   0  0  0  0  0  0  0  0  0  0  0  0
   58.9486   33.7938   48.1286 H   0  0  0  0  0  0  0  0  0  0  0  0
   59.1450   31.7930   47.5880 N   0  0  0  0  0  0  0  0  0  0  0  0
   58.7210   31.8520   46.1880 C   0  0  0  0  0  0  0  0  0  0  0  0
   58.4800   30.6720   45.4400 C   0  0  0  0  0  0  0  0  0  0  0  0
   58.6132   29.6913   45.9200 H   0  0  0  0  0  0  0  0  0  0  0  0
   58.0760   30.7330   44.1030 C   0  0  0  0  0  0  0  0  0  0  0  0
   57.8979   29.8037   43.5420 H   0  0  0  0  0  0  0  0  0  0  0  0
   57.8980   31.9650   43.4780 C   0  0  0  0  0  0  0  0  0  0  0  0
   57.3900   32.0360   41.8000 Cl  0  0  0  0  0  0  0  0  0  0  0  0
   58.1180   33.1420   44.1920 C   0  0  0  0  0  0  0  0  0  0  0  0
   57.9728   34.1153   43.7004 H   0  0  0  0  0  0  0  0  0  0  0  0
   58.5220   33.0920   45.5290 C   0  0  0  0  0  0  0  0  0  0  0  0
   58.6884   34.0298   46.0793 H   0  0  0  0  0  0  0  0  0  0  0  0
   59.9370   30.6200   48.0400 C   0  0  0  0  0  0  0  0  0  0  0  0
   59.3145   29.7210   47.9201 H   0  0  0  0  0  0  0  0  0  0  0  0
   60.8468   30.6061   47.4219 H   0  0  0  0  0  0  0  0  0  0  0  0
   60.4080   30.6810   49.4940 C   0  0  0  0  0  0  0  0  0  0  0  0
   60.5682   29.6596   49.8696 H   0  0  0  0  0  0  0  0  0  0  0  0
   61.3499   31.2466   49.5484 H   0  0  0  0  0  0  0  0  0  0  0  0
   55.9880   29.4590   52.9380 N   0  0  0  0  0  0  0  0  0  0  0  0
   56.7000   28.9290   53.4900 H   0  0  0  0  0  0  0  0  0  0  0  0
   54.6730   29.1810   52.8350 C   0  0  0  0  0  0  0  0  0  0  0  0
   54.1090   28.1370   53.4550 C   0  0  0  0  0  0  0  0  0  0  0  0
   53.0313   27.9474   53.3431 H   0  0  0  0  0  0  0  0  0  0  0  0
   54.7234   27.4688   54.0763 H   0  0  0  0  0  0  0  0  0  0  0  0
  1  2  1  0
  2  3  1  0
  3  4  1  0
  4  5  1  0
  5  6  2  0
  5  7  1  0
  7  8  1  0
  8  9  1  0
  9 10  1  0
  9 11  2  0
 11 12  1  0
 12 13  1  0
 12 14  2  0
 14 15  1  0
 15 16  1  0
 15 17  1  0
 15 18  1  0
 18 19  2  0
 18 20  1  0
 20 21  1  0
 21 22  1  0
 21 23  1  0
 21 24  1  0
 24 25  1  0
 24 26  1  0
 24 27  1  0
 27 28  1  0
 28 29  2  0
 29 30  1  0
 29 31  1  0
 31 32  1  0
 31 33  2  0
 33 34  1  0
 33 35  1  0
 35 36  1  0
 35 37  2  0
 37 38  1  0
 27 39  1  0
 39 40  1  0
 39 41  1  0
 39 42  1  0
 42 43  1  0
 42 44  1  0
 14 45  1  0
 45 46  1  0
 45 47  1  0
 47 48  2  0
 48 49  1  0
 48 50  1  0
  8  3  2  0
 47 11  1  0
 42 20  1  0
 37 28  1  0
M  CHG  2   4  -1   7  -1
M  END
>  <UniqueID>  (81) 
79

>  <SMILES>  (81) 
C=c1[nH]c(CC(=O)N2CCN(c3ccc(Cl)cc3)CC2)c/c1=C\c1[n-]c(=O)[n-]c1O

>  <Energy>  (81) 
123.2043957595078

>  <Genealogy>  (81) 
C=c1[nH]c(CC(=O)N2CCN(c3ccc(Cl)cc3)CC2)cc1=Cc1[n-]c(=O)[n-]c1O (protonated)
C=c1[nH]c(CC(=O)N2CCN(c3ccc(Cl)cc3)CC2)c/c1=C\c1[n-]c(=O)[n-]c1O (cis-trans isomerization)
C=c1[nH]c(CC(=O)N2CCN(c3ccc(Cl)cc3)CC2)c/c1=C\c1[n-]c(=O)[n-]c1O (3D coordinates assigned)
C=c1[nH]c(CC(=O)N2CCN(c3ccc(Cl)cc3)CC2)c/c1=C\c1[n-]c(=O)[n-]c1O (nonaromatic ring conformer: 123.2043957595078 kcal/mol)

>  <smiles>  (81) 
C=c1[nH]c(CC(=O)N2CCN(c3ccc(Cl)cc3)CC2)cc1=Cc1[nH]c(=O)[nH]c1O

>  <score_type>  (81) 
oracle

>  <origin>  (81) 
adg

>  <m_score__min__energy>  (81) 
-14.779999999999999

>  <m_primary>  (81) 
energy

$$$$
81:0
     RDKit          3D

 53 56  0  0  0  0  0  0  0  0999 V2000
   60.5640   28.9640   45.1390 C   0  0  0  0  0  0  0  0  0  0  0  0
   59.7310   27.9460   45.3830 C   0  0  0  0  0  0  0  0  0  0  0  0
   60.1910   26.7290   45.7450 N   0  0  0  0  0  0  0  0  0  0  0  0
   59.1290   25.9140   45.8650 C   0  0  0  0  0  0  0  0  0  0  0  0
   59.2370   24.4830   46.2930 C   0  0  0  0  0  0  0  0  0  0  0  0
   57.9650   26.6070   45.5890 C   0  0  0  0  0  0  0  0  0  0  0  0
   56.6010   26.0530   45.6320 C   0  0  0  0  0  0  0  0  0  0  0  0
   55.7400   26.6430   46.3470 O   0  0  0  0  0  0  0  0  0  0  0  0
   56.2430   24.8670   44.8800 N   0  0  0  0  0  0  0  0  0  0  0  0
   57.2530   24.1610   44.0680 C   0  0  0  0  0  0  0  0  0  0  0  0
   56.5900   23.2950   42.9870 C   0  0  0  0  0  0  0  0  0  0  0  0
   55.5320   22.5210   43.5230 O   0  0  0  0  0  0  0  0  0  0  0  0
   54.5100   23.3730   43.9850 C   0  0  0  0  0  0  0  0  0  0  0  0
   54.9930   24.1640   45.1980 C   0  0  0  0  0  0  0  0  0  0  0  0
   58.3280   27.9160   45.2820 C   0  0  0  0  0  0  0  0  0  0  0  0
   57.4440   28.8810   44.9490 C   0  0  0  0  0  0  0  0  0  0  0  0
   57.5970   30.3040   45.2520 C   0  0  0  0  0  0  0  0  0  0  0  0
   57.2450   31.5560   44.1900 S   0  0  0  0  0  0  0  0  0  0  0  0
   57.8070   32.7370   45.2460 C   0  0  0  0  0  0  0  0  0  0  0  0
   57.7970   34.3340   44.8770 S   0  0  0  0  0  0  0  0  0  0  0  0
   58.2790   32.2020   46.4080 N   0  0  0  0  0  0  0  0  0  0  0  0
   58.8700   33.0000   47.4960 C   0  0  0  0  0  0  0  0  0  0  0  0
   60.3760   32.9220   47.4560 C   0  0  0  0  0  0  0  0  0  0  0  0
   61.0520   31.8850   48.1220 C   0  0  0  0  0  0  0  0  0  0  0  0
   62.4480   31.8100   48.0790 C   0  0  0  0  0  0  0  0  0  0  0  0
   63.1790   32.7690   47.3740 C   0  0  0  0  0  0  0  0  0  0  0  0
   62.5170   33.8030   46.7070 C   0  0  0  0  0  0  0  0  0  0  0  0
   61.1210   33.8820   46.7460 C   0  0  0  0  0  0  0  0  0  0  0  0
   58.1730   30.8340   46.4000 C   0  0  0  0  0  0  0  0  0  0  0  0
   58.5910   30.0060   47.4460 O   0  0  0  0  0  0  0  0  0  0  0  0
   60.1623   29.9451   44.8457 H   0  0  0  0  0  0  0  0  0  0  0  0
   61.6506   28.8199   45.2317 H   0  0  0  0  0  0  0  0  0  0  0  0
   61.1890   26.4600   45.8970 H   0  0  0  0  0  0  0  0  0  0  0  0
   59.2411   24.4282   47.3916 H   0  0  0  0  0  0  0  0  0  0  0  0
   58.3790   23.9172   45.9009 H   0  0  0  0  0  0  0  0  0  0  0  0
   60.1702   24.0524   45.9009 H   0  0  0  0  0  0  0  0  0  0  0  0
   57.9058   24.9021   43.5836 H   0  0  0  0  0  0  0  0  0  0  0  0
   57.8361   23.5048   44.7308 H   0  0  0  0  0  0  0  0  0  0  0  0
   56.1907   23.9500   42.1986 H   0  0  0  0  0  0  0  0  0  0  0  0
   57.3478   22.6103   42.5784 H   0  0  0  0  0  0  0  0  0  0  0  0
   54.2293   24.0720   43.1834 H   0  0  0  0  0  0  0  0  0  0  0  0
   53.6397   22.7660   44.2750 H   0  0  0  0  0  0  0  0  0  0  0  0
   54.2251   24.8986   45.4821 H   0  0  0  0  0  0  0  0  0  0  0  0
   55.1740   23.4688   46.0311 H   0  0  0  0  0  0  0  0  0  0  0  0
   56.5376   28.5728   44.4073 H   0  0  0  0  0  0  0  0  0  0  0  0
   58.5595   34.0493   47.3841 H   0  0  0  0  0  0  0  0  0  0  0  0
   58.5202   32.5995   48.4590 H   0  0  0  0  0  0  0  0  0  0  0  0
   60.4802   31.1287   48.6798 H   0  0  0  0  0  0  0  0  0  0  0  0
   62.9708   30.9949   48.6009 H   0  0  0  0  0  0  0  0  0  0  0  0
   64.2770   32.7101   47.3439 H   0  0  0  0  0  0  0  0  0  0  0  0
   63.0944   34.5559   46.1505 H   0  0  0  0  0  0  0  0  0  0  0  0
   60.6035   34.6976   46.2197 H   0  0  0  0  0  0  0  0  0  0  0  0
   59.5540   29.7400   47.5990 H   0  0  0  0  0  0  0  0  0  0  0  0
  1  2  2  0
  2  3  1  0
  3  4  1  0
  4  5  1  0
  4  6  2  0
  6  7  1  0
  7  8  2  0
  7  9  1  0
  9 10  1  0
 10 11  1  0
 11 12  1  0
 12 13  1  0
 13 14  1  0
  6 15  1  0
 15 16  2  3
 16 17  1  0
 17 18  1  0
 18 19  1  0
 19 20  2  0
 19 21  1  0
 21 22  1  0
 22 23  1  0
 23 24  2  0
 24 25  1  0
 25 26  2  0
 26 27  1  0
 27 28  2  0
 21 29  1  0
 29 30  1  0
 15  2  1  0
 29 17  2  0
 14  9  1  0
 28 23  1  0
  1 31  1  0
  1 32  1  0
  3 33  1  0
  5 34  1  0
  5 35  1  0
  5 36  1  0
 10 37  1  0
 10 38  1  0
 11 39  1  0
 11 40  1  0
 13 41  1  0
 13 42  1  0
 14 43  1  0
 14 44  1  0
 16 45  1  0
 22 46  1  0
 22 47  1  0
 24 48  1  0
 25 49  1  0
 26 50  1  0
 27 51  1  0
 28 52  1  0
 30 53  1  0
M  END
>  <UniqueID>  (82) 
80

>  <SMILES>  (82) 
C=c1[nH]c(C)c(C(=O)N2CCOCC2)c1=Cc1sc(=S)n(Cc2ccccc2)c1O

>  <Energy>  (82) 
136.1200507077704

>  <Genealogy>  (82) 
C=c1[nH]c(C)c(C(=O)N2CCOCC2)c1=Cc1sc(=S)n(Cc2ccccc2)c1O (3D coordinates assigned)
C=c1[nH]c(C)c(C(=O)N2CCOCC2)c1=Cc1sc(=S)n(Cc2ccccc2)c1O (nonaromatic ring conformer: 136.1200507077704 kcal/mol)

>  <smiles>  (82) 
C=c1[nH]c(C)c(C(=O)N2CCOCC2)c1=Cc1sc(=S)n(Cc2ccccc2)c1O

>  <score_type>  (82) 
oracle

>  <origin>  (82) 
adg

>  <m_score__min__energy>  (82) 
-8.7599999999999998

>  <m_primary>  (82) 
energy

$$$$
82:0
     RDKit          3D

 29 30  0  0  0  0  0  0  0  0999 V2000
   61.3105   27.7887   46.9258 H   0  0  0  0  0  0  0  0  0  0  0  0
   60.3430   27.8150   46.4030 C   0  0  0  0  0  0  0  0  0  0  0  0
   60.0734   27.0095   45.7041 H   0  0  0  0  0  0  0  0  0  0  0  0
   59.4990   28.8210   46.6160 C   0  0  0  0  0  0  0  0  0  0  0  0
   59.7884   29.6160   47.3189 H   0  0  0  0  0  0  0  0  0  0  0  0
   58.1860   28.9090   45.9420 C   0  0  0  0  0  0  0  0  0  0  0  0
   57.7990   29.9230   45.0760 C   0  0  0  0  0  0  0  0  0  0  0  0
   58.6180   31.1080   44.6520 C   0  0  0  0  0  0  0  0  0  0  0  0
   58.9845   31.6383   45.5434 H   0  0  0  0  0  0  0  0  0  0  0  0
   59.4736   30.7663   44.0510 H   0  0  0  0  0  0  0  0  0  0  0  0
   57.9959   31.7876   44.0510 H   0  0  0  0  0  0  0  0  0  0  0  0
   56.5130   29.6090   44.6580 C   0  0  0  0  0  0  0  0  0  0  0  0
   55.7640   30.3150   43.8080 C   0  0  0  0  0  0  0  0  0  0  0  0
   54.7530   29.9686   43.5473 H   0  0  0  0  0  0  0  0  0  0  0  0
   56.1578   31.2432   43.3682 H   0  0  0  0  0  0  0  0  0  0  0  0
   56.1030   28.4580   45.2250 N   0  0  0  0  0  0  0  0  0  0  0  0
   55.1710   28.0080   45.0830 H   0  0  0  0  0  0  0  0  0  0  0  0
   57.1210   28.0060   45.9930 C   0  0  0  0  0  0  0  0  0  0  0  0
   57.1010   26.8410   46.6650 C   0  0  0  0  0  0  0  0  0  0  0  0
   57.4167   26.8419   47.7187 H   0  0  0  0  0  0  0  0  0  0  0  0
   56.6770   25.5590   46.0620 C   0  0  0  0  0  0  0  0  0  0  0  0
   55.3260   25.3390   45.7590 C   0  0  0  0  0  0  0  0  0  0  0  0
   54.3790   26.3330   45.9820 O   0  0  0  0  0  0  0  0  0  0  0  0
   54.9320   24.1510   45.2310 N   0  0  0  0  0  0  0  0  0  0  0  0
   55.8270   23.1550   45.0030 C   0  0  0  0  0  0  0  0  0  0  0  0
   55.4410   22.0650   44.5090 O   0  0  0  0  0  0  0  0  0  0  0  0
   57.1360   23.3330   45.3140 N   0  0  0  0  0  0  0  0  0  0  0  0
   57.5800   24.5030   45.8440 C   0  0  0  0  0  0  0  0  0  0  0  0
   58.7970   24.6190   46.1500 O   0  0  0  0  0  0  0  0  0  0  0  0
  1  2  1  0
  2  3  1  0
  2  4  2  0
  4  5  1  0
  4  6  1  0
  6  7  2  0
  7  8  1  0
  8  9  1  0
  8 10  1  0
  8 11  1  0
  7 12  1  0
 12 13  2  0
 13 14  1  0
 13 15  1  0
 12 16  1  0
 16 17  1  0
 16 18  1  0
 18 19  2  0
 19 20  1  0
 19 21  1  0
 21 22  2  0
 22 23  1  0
 22 24  1  0
 24 25  1  0
 25 26  2  0
 25 27  1  0
 27 28  1  0
 28 29  2  0
 18  6  1  0
 28 21  1  0
M  CHG  3  23  -1  24  -1  27  -1
M  END
>  <UniqueID>  (83) 
81

>  <SMILES>  (83) 
C=Cc1c(C)c(=C)[nH]/c1=C\c1c([O-])[n-]c(=O)[n-]c1=O

>  <Energy>  (83) 
69.47955711618098

>  <Genealogy>  (83) 
C=Cc1c(C)c(=C)[nH]c1=Cc1c([O-])[n-]c(=O)[n-]c1=O (protonated)
C=Cc1c(C)c(=C)[nH]/c1=C\c1c([O-])[n-]c(=O)[n-]c1=O (cis-trans isomerization)
C=Cc1c(C)c(=C)[nH]/c1=C\c1c([O-])[n-]c(=O)[n-]c1=O (3D coordinates assigned)
C=Cc1c(C)c(=C)[nH]/c1=C\c1c([O-])[n-]c(=O)[n-]c1=O (optimized conformer: 69.47955711618098 kcal/mol)

>  <smiles>  (83) 
C=Cc1c(C)c(=C)[nH]c1=Cc1c(O)[nH]c(=O)[nH]c1=O

>  <score_type>  (83) 
oracle

>  <origin>  (83) 
adg

>  <m_score__min__energy>  (83) 
-13.84

>  <m_primary>  (83) 
energy

$$$$
83:0
     RDKit          3D

 49 51  0  0  0  0  0  0  0  0999 V2000
   59.5002   34.2204   48.8175 H   0  0  0  0  0  0  0  0  0  0  0  0
   59.6240   33.8560   47.7870 C   0  0  0  0  0  0  0  0  0  0  0  0
   60.7270   32.9000   47.5240 C   0  0  0  0  0  0  0  0  0  0  0  0
   61.9150   33.3260   47.4800 O   0  0  0  0  0  0  0  0  0  0  0  0
   60.4710   31.4880   47.3550 N   0  0  0  0  0  0  0  0  0  0  0  0
   61.5120   30.6050   46.8170 C   0  0  0  0  0  0  0  0  0  0  0  0
   61.9673   30.0302   47.6369 H   0  0  0  0  0  0  0  0  0  0  0  0
   62.2884   31.2065   46.3216 H   0  0  0  0  0  0  0  0  0  0  0  0
   60.8800   29.6430   45.8050 C   0  0  0  0  0  0  0  0  0  0  0  0
   61.6522   28.9363   45.4670 H   0  0  0  0  0  0  0  0  0  0  0  0
   60.4848   30.2542   44.9803 H   0  0  0  0  0  0  0  0  0  0  0  0
   59.7380   28.8640   46.3600 N   0  0  0  0  0  0  0  0  0  0  0  0
   58.6550   28.6900   45.3680 C   0  0  0  0  0  0  0  0  0  0  0  0
   59.0933   28.6385   44.3604 H   0  0  0  0  0  0  0  0  0  0  0  0
   57.9672   29.5452   45.4423 H   0  0  0  0  0  0  0  0  0  0  0  0
   57.8830   27.4230   45.6370 C   0  0  0  0  0  0  0  0  0  0  0  0
   56.4820   27.4530   45.6780 C   0  0  0  0  0  0  0  0  0  0  0  0
   55.9493   28.3977   45.4943 H   0  0  0  0  0  0  0  0  0  0  0  0
   55.7590   26.2890   45.9510 C   0  0  0  0  0  0  0  0  0  0  0  0
   54.3700   26.3330   45.9850 O   0  0  0  0  0  0  0  0  0  0  0  0
   56.4320   25.0850   46.1890 C   0  0  0  0  0  0  0  0  0  0  0  0
   55.7050   23.9310   46.4610 O   0  0  0  0  0  0  0  0  0  0  0  0
   57.8320   25.0380   46.1590 C   0  0  0  0  0  0  0  0  0  0  0  0
   58.4660   23.8100   46.4100 O   0  0  0  0  0  0  0  0  0  0  0  0
   58.3810   22.6700   45.5610 C   0  0  0  0  0  0  0  0  0  0  0  0
   58.3131   21.7598   46.1750 H   0  0  0  0  0  0  0  0  0  0  0  0
   57.4864   22.7515   44.9261 H   0  0  0  0  0  0  0  0  0  0  0  0
   59.2778   22.6180   44.9261 H   0  0  0  0  0  0  0  0  0  0  0  0
   58.5560   26.2140   45.8820 C   0  0  0  0  0  0  0  0  0  0  0  0
   59.6554   26.1858   45.8573 H   0  0  0  0  0  0  0  0  0  0  0  0
   59.2170   29.3710   47.6520 C   0  0  0  0  0  0  0  0  0  0  0  0
   59.8673   29.0066   48.4609 H   0  0  0  0  0  0  0  0  0  0  0  0
   58.1861   29.0033   47.7616 H   0  0  0  0  0  0  0  0  0  0  0  0
   59.1710   30.9050   47.7120 C   0  0  0  0  0  0  0  0  0  0  0  0
   58.9059   31.2167   48.7331 H   0  0  0  0  0  0  0  0  0  0  0  0
   58.4195   31.2602   46.9916 H   0  0  0  0  0  0  0  0  0  0  0  0
   58.7660   34.3090   46.8600 C   0  0  0  0  0  0  0  0  0  0  0  0
   58.3468   35.3151   47.0085 H   0  0  0  0  0  0  0  0  0  0  0  0
   58.3380   33.5660   45.6550 C   0  0  0  0  0  0  0  0  0  0  0  0
   58.8960   33.8360   44.3920 C   0  0  0  0  0  0  0  0  0  0  0  0
   59.6426   34.6364   44.2829 H   0  0  0  0  0  0  0  0  0  0  0  0
   58.5060   33.0920   43.2760 C   0  0  0  0  0  0  0  0  0  0  0  0
   58.9335   33.3190   42.2882 H   0  0  0  0  0  0  0  0  0  0  0  0
   57.5730   32.0590   43.4120 C   0  0  0  0  0  0  0  0  0  0  0  0
   57.1870   31.3230   42.2970 O   0  0  0  0  0  0  0  0  0  0  0  0
   57.0340   31.7650   44.6710 C   0  0  0  0  0  0  0  0  0  0  0  0
   56.1150   30.7340   44.8140 O   0  0  0  0  0  0  0  0  0  0  0  0
   57.4240   32.5100   45.7890 C   0  0  0  0  0  0  0  0  0  0  0  0
   57.0115   32.2664   46.7792 H   0  0  0  0  0  0  0  0  0  0  0  0
  1  2  1  0
  2  3  1  0
  3  4  2  0
  3  5  1  0
  5  6  1  0
  6  7  1  0
  6  8  1  0
  6  9  1  0
  9 10  1  0
  9 11  1  0
  9 12  1  0
 12 13  1  0
 13 14  1  0
 13 15  1  0
 13 16  1  0
 16 17  2  0
 17 18  1  0
 17 19  1  0
 19 20  1  0
 19 21  2  0
 21 22  1  0
 21 23  1  0
 23 24  1  0
 24 25  1  0
 25 26  1  0
 25 27  1  0
 25 28  1  0
 23 29  2  0
 29 30  1  0
 12 31  1  0
 31 32  1  0
 31 33  1  0
 31 34  1  0
 34 35  1  0
 34 36  1  0
  2 37  2  0
 37 38  1  0
 37 39  1  0
 39 40  2  0
 40 41  1  0
 40 42  1  0
 42 43  1  0
 42 44  2  0
 44 45  1  0
 44 46  1  0
 46 47  1  0
 46 48  2  0
 48 49  1  0
 34  5  1  0
 48 39  1  0
 29 16  1  0
M  CHG  4  20  -1  22  -1  45  -1  47  -1
M  END
>  <UniqueID>  (84) 
82

>  <SMILES>  (84) 
COc1cc(CN2CCN(C(=O)/C=C\c3ccc([O-])c([O-])c3)CC2)cc([O-])c1[O-]

>  <Energy>  (84) 
67.18519581446647

>  <Genealogy>  (84) 
COc1cc(CN2CCN(C(=O)C=Cc3ccc([O-])c([O-])c3)CC2)cc([O-])c1[O-] (protonated)
COc1cc(CN2CCN(C(=O)/C=C\c3ccc([O-])c([O-])c3)CC2)cc([O-])c1[O-] (cis-trans isomerization)
COc1cc(CN2CCN(C(=O)/C=C\c3ccc([O-])c([O-])c3)CC2)cc([O-])c1[O-] (3D coordinates assigned)
COc1cc(CN2CCN(C(=O)/C=C\c3ccc([O-])c([O-])c3)CC2)cc([O-])c1[O-] (nonaromatic ring conformer: 67.18519581446647 kcal/mol)

>  <smiles>  (84) 
COc1cc(CN2CCN(C(=O)C=Cc3ccc(O)c(O)c3)CC2)cc(O)c1O

>  <score_type>  (84) 
oracle

>  <origin>  (84) 
adg

>  <m_score__min__energy>  (84) 
-18.100000000000001

>  <m_primary>  (84) 
energy

$$$$
84:0
     RDKit          3D

 61 65  0  0  0  0  0  0  0  0999 V2000
   58.0170   20.5160   45.8740 N   0  0  0  0  0  0  0  0  0  0  0  0
   57.5990   21.3020   44.9150 C   0  0  0  0  0  0  0  0  0  0  0  0
   57.0300   20.7500   43.8150 N   0  0  0  0  0  0  0  0  0  0  0  0
   56.5780   21.4880   42.7880 C   0  0  0  0  0  0  0  0  0  0  0  0
   56.6930   22.8420   42.8490 N   0  0  0  0  0  0  0  0  0  0  0  0
   57.2580   23.4110   43.9400 C   0  0  0  0  0  0  0  0  0  0  0  0
   57.4820   24.7000   44.2330 N   0  0  0  0  0  0  0  0  0  0  0  0
   58.0800   24.8050   45.4490 C   0  0  0  0  0  0  0  0  0  0  0  0
   58.4840   26.0400   46.1130 C   0  0  0  0  0  0  0  0  0  0  0  0
   59.7810   26.3500   46.4260 C   0  0  0  0  0  0  0  0  0  0  0  0
   60.0920   27.5510   47.0600 C   0  0  0  0  0  0  0  0  0  0  0  0
   59.1250   28.4580   47.3920 C   0  0  0  0  0  0  0  0  0  0  0  0
   59.3850   29.7320   48.0520 C   0  0  0  0  0  0  0  0  0  0  0  0
   59.1000   29.9130   49.2860 O   0  0  0  0  0  0  0  0  0  0  0  0
   59.9640   30.8510   47.3920 N   0  0  0  0  0  0  0  0  0  0  0  0
   60.1960   32.0840   48.1000 C   0  0  0  0  0  0  0  0  0  0  0  0
   59.4980   33.2840   47.5730 C   0  0  0  0  0  0  0  0  0  0  0  0
   60.0080   33.4990   46.1390 C   0  0  0  0  0  0  0  0  0  0  0  0
   59.0930   34.5080   45.5220 C   0  0  0  0  0  0  0  0  0  0  0  0
   57.9120   33.8240   45.0920 N   0  0  0  0  0  0  0  0  0  0  0  0
   58.1820   33.1360   43.8550 C   0  0  0  0  0  0  0  0  0  0  0  0
   57.8630   31.7000   43.8720 C   0  0  0  0  0  0  0  0  0  0  0  0
   56.6440   31.1650   43.5140 C   0  0  0  0  0  0  0  0  0  0  0  0
   56.3950   29.7990   43.5510 C   0  0  0  0  0  0  0  0  0  0  0  0
   57.4290   28.9570   43.9700 C   0  0  0  0  0  0  0  0  0  0  0  0
   58.6600   29.4640   44.3360 C   0  0  0  0  0  0  0  0  0  0  0  0
   58.8700   30.8290   44.2840 C   0  0  0  0  0  0  0  0  0  0  0  0
   57.5190   32.8560   46.0860 C   0  0  0  0  0  0  0  0  0  0  0  0
   58.0090   33.1800   47.4800 C   0  0  0  0  0  0  0  0  0  0  0  0
   57.8170   28.1500   47.0790 C   0  0  0  0  0  0  0  0  0  0  0  0
   57.5130   26.9600   46.4510 C   0  0  0  0  0  0  0  0  0  0  0  0
   58.2520   23.5170   45.9690 C   0  0  0  0  0  0  0  0  0  0  0  0
   57.7290   22.6690   45.0070 C   0  0  0  0  0  0  0  0  0  0  0  0
   58.8870   19.9550   45.6940 H   0  0  0  0  0  0  0  0  0  0  0  0
   56.9280   19.7050   43.7390 H   0  0  0  0  0  0  0  0  0  0  0  0
   56.1219   21.0051   41.9112 H   0  0  0  0  0  0  0  0  0  0  0  0
   57.2330   25.4800   43.6190 H   0  0  0  0  0  0  0  0  0  0  0  0
   60.5855   25.6433   46.1741 H   0  0  0  0  0  0  0  0  0  0  0  0
   61.1421   27.7748   47.2993 H   0  0  0  0  0  0  0  0  0  0  0  0
   60.2140   30.7470   46.3770 H   0  0  0  0  0  0  0  0  0  0  0  0
   59.8736   31.9387   49.1416 H   0  0  0  0  0  0  0  0  0  0  0  0
   61.2696   32.2930   47.9832 H   0  0  0  0  0  0  0  0  0  0  0  0
   59.7120   34.0989   48.2801 H   0  0  0  0  0  0  0  0  0  0  0  0
   61.0405   33.8781   46.1535 H   0  0  0  0  0  0  0  0  0  0  0  0
   60.0134   32.5585   45.5685 H   0  0  0  0  0  0  0  0  0  0  0  0
   58.8307   35.2775   46.2630 H   0  0  0  0  0  0  0  0  0  0  0  0
   59.5835   35.0000   44.6691 H   0  0  0  0  0  0  0  0  0  0  0  0
   57.5866   33.6106   43.0611 H   0  0  0  0  0  0  0  0  0  0  0  0
   59.2660   33.2131   43.6850 H   0  0  0  0  0  0  0  0  0  0  0  0
   55.8413   31.8428   43.1880 H   0  0  0  0  0  0  0  0  0  0  0  0
   55.4151   29.3927   43.2598 H   0  0  0  0  0  0  0  0  0  0  0  0
   57.2590   27.8709   44.0089 H   0  0  0  0  0  0  0  0  0  0  0  0
   59.4641   28.7894   44.6651 H   0  0  0  0  0  0  0  0  0  0  0  0
   59.8503   31.2356   44.5732 H   0  0  0  0  0  0  0  0  0  0  0  0
   56.4203   32.8069   46.1071 H   0  0  0  0  0  0  0  0  0  0  0  0
   57.9774   31.8980   45.7995 H   0  0  0  0  0  0  0  0  0  0  0  0
   57.5717   34.1407   47.7896 H   0  0  0  0  0  0  0  0  0  0  0  0
   57.6980   32.3533   48.1356 H   0  0  0  0  0  0  0  0  0  0  0  0
   57.0128   28.8567   47.3314 H   0  0  0  0  0  0  0  0  0  0  0  0
   56.4626   26.7374   46.2120 H   0  0  0  0  0  0  0  0  0  0  0  0
   58.7043   23.2387   46.9323 H   0  0  0  0  0  0  0  0  0  0  0  0
  1  2  2  3
  2  3  1  0
  3  4  1  0
  4  5  2  0
  5  6  1  0
  6  7  1  0
  7  8  1  0
  8  9  1  0
  9 10  2  0
 10 11  1  0
 11 12  2  0
 12 13  1  0
 13 14  2  0
 13 15  1  0
 15 16  1  0
 16 17  1  0
 17 18  1  0
 18 19  1  0
 19 20  1  0
 20 21  1  0
 21 22  1  0
 22 23  2  0
 23 24  1  0
 24 25  2  0
 25 26  1  0
 26 27  2  0
 20 28  1  0
 28 29  1  0
 12 30  1  0
 30 31  2  0
  8 32  2  0
 32 33  1  0
 33  2  1  0
 33  6  2  0
 31  9  1  0
 29 17  1  0
 27 22  1  0
  1 34  1  0
  3 35  1  0
  4 36  1  0
  7 37  1  0
 10 38  1  0
 11 39  1  0
 15 40  1  0
 16 41  1  0
 16 42  1  0
 17 43  1  0
 18 44  1  0
 18 45  1  0
 19 46  1  0
 19 47  1  0
 21 48  1  0
 21 49  1  0
 23 50  1  0
 24 51  1  0
 25 52  1  0
 26 53  1  0
 27 54  1  0
 28 55  1  0
 28 56  1  0
 29 57  1  0
 29 58  1  0
 30 59  1  0
 31 60  1  0
 32 61  1  0
M  END
>  <smiles>  (85) 
N=c1[nH]cnc2[nH]c(-c3ccc(C(=O)NCC4CCN(Cc5ccccc5)CC4)cc3)cc12

>  <score_type>  (85) 
oracle

>  <origin>  (85) 
adg

>  <m_score__min__energy>  (85) 
-10.9

>  <m_primary>  (85) 
energy

$$$$
85:0
     RDKit          3D

 35 37  0  0  0  0  0  0  0  0999 V2000
   57.3160   30.2745   42.8109 H   0  0  0  0  0  0  0  0  0  0  0  0
   57.0650   31.1910   43.3650 C   0  0  0  0  0  0  0  0  0  0  0  0
   56.5548   32.0206   42.8536 H   0  0  0  0  0  0  0  0  0  0  0  0
   57.3810   31.2970   44.6640 C   0  0  0  0  0  0  0  0  0  0  0  0
   57.0370   32.4590   45.2740 N   0  0  0  0  0  0  0  0  0  0  0  0
   57.4560   32.7820   46.5170 C   0  0  0  0  0  0  0  0  0  0  0  0
   57.0720   33.8700   47.0280 O   0  0  0  0  0  0  0  0  0  0  0  0
   58.2950   31.9480   47.1970 N   0  0  0  0  0  0  0  0  0  0  0  0
   58.7850   32.3310   48.5010 C   0  0  0  0  0  0  0  0  0  0  0  0
   59.5520   33.4980   48.6540 C   0  0  0  0  0  0  0  0  0  0  0  0
   59.7795   34.1234   47.7781 H   0  0  0  0  0  0  0  0  0  0  0  0
   60.0270   33.8670   49.9160 C   0  0  0  0  0  0  0  0  0  0  0  0
   60.6265   34.7821   50.0311 H   0  0  0  0  0  0  0  0  0  0  0  0
   59.7410   33.0740   51.0330 C   0  0  0  0  0  0  0  0  0  0  0  0
   60.3380   33.5380   52.6160 Cl  0  0  0  0  0  0  0  0  0  0  0  0
   58.9780   31.9110   50.8860 C   0  0  0  0  0  0  0  0  0  0  0  0
   58.7520   31.2880   51.7639 H   0  0  0  0  0  0  0  0  0  0  0  0
   58.5020   31.5390   49.6250 C   0  0  0  0  0  0  0  0  0  0  0  0
   57.9038   30.6227   49.5133 H   0  0  0  0  0  0  0  0  0  0  0  0
   58.6560   30.7420   46.6540 C   0  0  0  0  0  0  0  0  0  0  0  0
   59.4350   29.9820   47.2980 O   0  0  0  0  0  0  0  0  0  0  0  0
   58.1440   30.3310   45.3930 C   0  0  0  0  0  0  0  0  0  0  0  0
   58.3850   29.0550   44.9770 C   0  0  0  0  0  0  0  0  0  0  0  0
   59.1333   28.9274   44.1809 H   0  0  0  0  0  0  0  0  0  0  0  0
   57.7420   27.8260   45.4880 C   0  0  0  0  0  0  0  0  0  0  0  0
   58.5440   26.8270   46.0590 C   0  0  0  0  0  0  0  0  0  0  0  0
   59.6351   26.9597   46.1017 H   0  0  0  0  0  0  0  0  0  0  0  0
   57.9650   25.6640   46.5740 C   0  0  0  0  0  0  0  0  0  0  0  0
   58.6020   24.8776   47.0051 H   0  0  0  0  0  0  0  0  0  0  0  0
   56.5780   25.4990   46.5420 C   0  0  0  0  0  0  0  0  0  0  0  0
   56.1251   24.5786   46.9391 H   0  0  0  0  0  0  0  0  0  0  0  0
   55.7650   26.5020   46.0060 C   0  0  0  0  0  0  0  0  0  0  0  0
   54.3850   26.3370   45.9930 O   0  0  0  0  0  0  0  0  0  0  0  0
   56.3400   27.6710   45.4900 C   0  0  0  0  0  0  0  0  0  0  0  0
   55.5160   28.6780   44.9950 O   0  0  0  0  0  0  0  0  0  0  0  0
  1  2  1  0
  2  3  1  0
  2  4  2  0
  4  5  1  0
  5  6  1  0
  6  7  2  0
  6  8  1  0
  8  9  1  0
  9 10  2  0
 10 11  1  0
 10 12  1  0
 12 13  1  0
 12 14  2  0
 14 15  1  0
 14 16  1  0
 16 17  1  0
 16 18  2  0
 18 19  1  0
  8 20  1  0
 20 21  2  0
 20 22  1  0
 22 23  2  0
 23 24  1  0
 23 25  1  0
 25 26  2  0
 26 27  1  0
 26 28  1  0
 28 29  1  0
 28 30  2  0
 30 31  1  0
 30 32  1  0
 32 33  1  0
 32 34  2  0
 34 35  1  0
 22  4  1  0
 34 25  1  0
 18  9  1  0
M  CHG  3   5  -1  33  -1  35  -1
M  END
>  <UniqueID>  (86) 
83

>  <SMILES>  (86) 
C=c1[n-]c(=O)n(-c2ccc(Cl)cc2)c(=O)/c1=C/c1cccc([O-])c1[O-]

>  <Energy>  (86) 
72.84745540415331

>  <Genealogy>  (86) 
C=c1[n-]c(=O)n(-c2ccc(Cl)cc2)c(=O)c1=Cc1cccc([O-])c1[O-] (protonated)
C=c1[n-]c(=O)n(-c2ccc(Cl)cc2)c(=O)/c1=C/c1cccc([O-])c1[O-] (cis-trans isomerization)
C=c1[n-]c(=O)n(-c2ccc(Cl)cc2)c(=O)/c1=C/c1cccc([O-])c1[O-] (3D coordinates assigned)
C=c1[n-]c(=O)n(-c2ccc(Cl)cc2)c(=O)/c1=C/c1cccc([O-])c1[O-] (optimized conformer: 72.84745540415331 kcal/mol)

>  <smiles>  (86) 
C=c1[nH]c(=O)n(-c2ccc(Cl)cc2)c(=O)c1=Cc1cccc(O)c1O

>  <score_type>  (86) 
oracle

>  <origin>  (86) 
adg

>  <m_score__min__energy>  (86) 
-16.93

>  <m_primary>  (86) 
energy

$$$$
86:0
     RDKit          3D

 62 65  0  0  0  0  0  0  0  0999 V2000
   58.6910   31.3320   43.8540 O   0  0  0  0  0  0  0  0  0  0  0  0
   57.8940   31.8260   44.6930 C   0  0  0  0  0  0  0  0  0  0  0  0
   57.4180   33.2460   44.5010 C   0  0  0  0  0  0  0  0  0  0  0  0
   57.4500   34.0660   45.8020 C   0  0  0  0  0  0  0  0  0  0  0  0
   58.7980   34.0210   46.4770 C   0  0  0  0  0  0  0  0  0  0  0  0
   58.9000   34.1770   47.8690 C   0  0  0  0  0  0  0  0  0  0  0  0
   60.1520   34.1540   48.4910 C   0  0  0  0  0  0  0  0  0  0  0  0
   61.3150   33.9710   47.7310 C   0  0  0  0  0  0  0  0  0  0  0  0
   62.8970   33.9330   48.5020 S   0  0  0  0  0  0  0  0  0  0  0  0
   63.9510   34.1320   47.4490 O   0  0  0  0  0  0  0  0  0  0  0  0
   63.0040   35.0370   49.5180 O   0  0  0  0  0  0  0  0  0  0  0  0
   63.1300   32.3910   49.2920 N   0  0  0  0  0  0  0  0  0  0  0  0
   62.1120   32.1740   50.3520 C   0  0  0  0  0  0  0  0  0  0  0  0
   62.6560   32.4180   51.7670 C   0  0  0  0  0  0  0  0  0  0  0  0
   63.8540   31.5020   52.0660 C   0  0  0  0  0  0  0  0  0  0  0  0
   64.6820   31.1750   50.8100 C   0  0  0  0  0  0  0  0  0  0  0  0
   64.5320   32.2700   49.7500 C   0  0  0  0  0  0  0  0  0  0  0  0
   61.2160   33.8160   46.3420 C   0  0  0  0  0  0  0  0  0  0  0  0
   59.9660   33.8410   45.7170 C   0  0  0  0  0  0  0  0  0  0  0  0
   57.5950   31.0690   45.8760 N   0  0  0  0  0  0  0  0  0  0  0  0
   58.5240   30.4090   46.7490 C   0  0  0  0  0  0  0  0  0  0  0  0
   59.1410   31.1120   47.7980 C   0  0  0  0  0  0  0  0  0  0  0  0
   60.0420   30.4690   48.6500 C   0  0  0  0  0  0  0  0  0  0  0  0
   60.3180   29.1130   48.4790 C   0  0  0  0  0  0  0  0  0  0  0  0
   59.6840   28.3920   47.4650 C   0  0  0  0  0  0  0  0  0  0  0  0
   58.7790   29.0270   46.5930 C   0  0  0  0  0  0  0  0  0  0  0  0
   58.1040   28.2320   45.5370 C   0  0  0  0  0  0  0  0  0  0  0  0
   58.5620   28.2440   44.3630 O   0  0  0  0  0  0  0  0  0  0  0  0
   56.8980   27.4990   45.7920 N   0  0  0  0  0  0  0  0  0  0  0  0
   56.7580   26.0700   45.8150 C   0  0  0  0  0  0  0  0  0  0  0  0
   57.8740   25.2190   45.7020 C   0  0  0  0  0  0  0  0  0  0  0  0
   57.7040   23.8300   45.7100 C   0  0  0  0  0  0  0  0  0  0  0  0
   56.4220   23.2820   45.8110 C   0  0  0  0  0  0  0  0  0  0  0  0
   55.3090   24.1210   45.8970 C   0  0  0  0  0  0  0  0  0  0  0  0
   55.4720   25.5110   45.8940 C   0  0  0  0  0  0  0  0  0  0  0  0
   54.3550   26.3340   45.9760 O   0  0  0  0  0  0  0  0  0  0  0  0
   58.0661   33.7369   43.7601 H   0  0  0  0  0  0  0  0  0  0  0  0
   56.3723   33.2021   44.1626 H   0  0  0  0  0  0  0  0  0  0  0  0
   57.2079   35.1127   45.5659 H   0  0  0  0  0  0  0  0  0  0  0  0
   56.7143   33.6281   46.4926 H   0  0  0  0  0  0  0  0  0  0  0  0
   57.9911   34.3179   48.4724 H   0  0  0  0  0  0  0  0  0  0  0  0
   60.2244   34.2801   49.5814 H   0  0  0  0  0  0  0  0  0  0  0  0
   61.2715   32.8615   50.1765 H   0  0  0  0  0  0  0  0  0  0  0  0
   61.8000   31.1206   50.2971 H   0  0  0  0  0  0  0  0  0  0  0  0
   62.9758   33.4670   51.8528 H   0  0  0  0  0  0  0  0  0  0  0  0
   61.8579   32.1962   52.4908 H   0  0  0  0  0  0  0  0  0  0  0  0
   64.5062   32.0032   52.7964 H   0  0  0  0  0  0  0  0  0  0  0  0
   63.4568   30.5538   52.4574 H   0  0  0  0  0  0  0  0  0  0  0  0
   65.7421   31.0897   51.0908 H   0  0  0  0  0  0  0  0  0  0  0  0
   64.3164   30.2275   50.3875 H   0  0  0  0  0  0  0  0  0  0  0  0
   64.8520   33.2305   50.1802 H   0  0  0  0  0  0  0  0  0  0  0  0
   65.1564   32.0018   48.8850 H   0  0  0  0  0  0  0  0  0  0  0  0
   62.1261   33.6740   45.7407 H   0  0  0  0  0  0  0  0  0  0  0  0
   59.8964   33.7193   44.6260 H   0  0  0  0  0  0  0  0  0  0  0  0
   58.9125   32.1773   47.9493 H   0  0  0  0  0  0  0  0  0  0  0  0
   60.5341   31.0327   49.4563 H   0  0  0  0  0  0  0  0  0  0  0  0
   61.0361   28.6105   49.1437 H   0  0  0  0  0  0  0  0  0  0  0  0
   59.8934   27.3186   47.3464 H   0  0  0  0  0  0  0  0  0  0  0  0
   58.8827   25.6473   45.6071 H   0  0  0  0  0  0  0  0  0  0  0  0
   58.5800   23.1688   45.6367 H   0  0  0  0  0  0  0  0  0  0  0  0
   56.2899   22.1900   45.8227 H   0  0  0  0  0  0  0  0  0  0  0  0
   54.3004   23.6877   45.9674 H   0  0  0  0  0  0  0  0  0  0  0  0
  1  2  2  0
  2  3  1  0
  3  4  1  0
  4  5  1  0
  5  6  2  0
  6  7  1  0
  7  8  2  0
  8  9  1  0
  9 10  2  0
  9 11  2  0
  9 12  1  0
 12 13  1  0
 13 14  1  0
 14 15  1  0
 15 16  1  0
 16 17  1  0
  8 18  1  0
 18 19  2  0
  2 20  1  0
 20 21  1  0
 21 22  2  0
 22 23  1  0
 23 24  2  0
 24 25  1  0
 25 26  2  0
 26 27  1  0
 27 28  2  0
 27 29  1  0
 29 30  1  0
 30 31  2  0
 31 32  1  0
 32 33  2  0
 33 34  1  0
 34 35  2  0
 35 36  1  0
 19  5  1  0
 26 21  1  0
 35 30  1  0
 17 12  1  0
  3 37  1  0
  3 38  1  0
  4 39  1  0
  4 40  1  0
  6 41  1  0
  7 42  1  0
 13 43  1  0
 13 44  1  0
 14 45  1  0
 14 46  1  0
 15 47  1  0
 15 48  1  0
 16 49  1  0
 16 50  1  0
 17 51  1  0
 17 52  1  0
 18 53  1  0
 19 54  1  0
 22 55  1  0
 23 56  1  0
 24 57  1  0
 25 58  1  0
 31 59  1  0
 32 60  1  0
 33 61  1  0
 34 62  1  0
M  CHG  3  20  -1  29  -1  36  -1
M  END
>  <UniqueID>  (87) 
84

>  <SMILES>  (87) 
O=C(CCc1ccc(S(=O)(=O)N2CCCCC2)cc1)[N-]c1ccccc1C(=O)[N-]c1ccccc1[O-]

>  <Energy>  (87) 
82.21845947238013

>  <Genealogy>  (87) 
O=C(CCc1ccc(S(=O)(=O)N2CCCCC2)cc1)[N-]c1ccccc1C(=O)[N-]c1ccccc1[O-] (protonated)
O=C(CCc1ccc(S(=O)(=O)N2CCCCC2)cc1)[N-]c1ccccc1C(=O)[N-]c1ccccc1[O-] (3D coordinates assigned)
O=C(CCc1ccc(S(=O)(=O)N2CCCCC2)cc1)[N-]c1ccccc1C(=O)[N-]c1ccccc1[O-] (nonaromatic ring conformer: 82.21845947238013 kcal/mol)

>  <smiles>  (87) 
O=C(CCc1ccc(S(=O)(=O)N2CCCCC2)cc1)Nc1ccccc1C(=O)Nc1ccccc1O

>  <score_type>  (87) 
oracle

>  <origin>  (87) 
adg

>  <m_score__min__energy>  (87) 
-16.600000000000001

>  <m_primary>  (87) 
energy

$$$$
87:0
     RDKit          3D

 74 78  0  0  0  0  0  0  0  0999 V2000
   56.9110   26.7220   46.8020 O   0  0  0  0  0  0  0  0  0  0  0  0
   57.0340   26.9620   45.5700 C   0  0  0  0  0  0  0  0  0  0  0  0
   56.8980   25.8960   44.6110 N   0  0  0  0  0  0  0  0  0  0  0  0
   56.7200   24.5150   44.9680 C   0  0  0  0  0  0  0  0  0  0  0  0
   57.7880   23.6200   44.8040 C   0  0  0  0  0  0  0  0  0  0  0  0
   57.6410   22.2730   45.1420 C   0  0  0  0  0  0  0  0  0  0  0  0
   56.4240   21.8030   45.6370 C   0  0  0  0  0  0  0  0  0  0  0  0
   55.3380   22.6770   45.7810 C   0  0  0  0  0  0  0  0  0  0  0  0
   53.7910   22.0850   46.3820 S   0  0  0  0  0  0  0  0  0  0  0  0
   53.8420   20.5890   46.5310 O   0  0  0  0  0  0  0  0  0  0  0  0
   53.5350   22.6890   47.7350 O   0  0  0  0  0  0  0  0  0  0  0  0
   52.5120   22.5380   45.2830 N   0  0  0  0  0  0  0  0  0  0  0  0
   51.2230   22.0140   45.7680 C   0  0  0  0  0  0  0  0  0  0  0  0
   50.1250   22.2210   44.7080 C   0  0  0  0  0  0  0  0  0  0  0  0
   50.4360   23.3890   43.7580 C   0  0  0  0  0  0  0  0  0  0  0  0
   51.1650   24.5150   44.4940 C   0  0  0  0  0  0  0  0  0  0  0  0
   52.4690   24.0110   45.1530 C   0  0  0  0  0  0  0  0  0  0  0  0
   55.4830   24.0280   45.4300 C   0  0  0  0  0  0  0  0  0  0  0  0
   57.3420   28.3460   45.1380 C   0  0  0  0  0  0  0  0  0  0  0  0
   58.6590   28.8310   45.2340 C   0  0  0  0  0  0  0  0  0  0  0  0
   58.9750   30.1220   44.8040 C   0  0  0  0  0  0  0  0  0  0  0  0
   57.9820   30.9490   44.2600 C   0  0  0  0  0  0  0  0  0  0  0  0
   58.3300   32.3440   43.8070 C   0  0  0  0  0  0  0  0  0  0  0  0
   58.7880   33.1630   44.9470 N   0  0  0  0  0  0  0  0  0  0  0  0
   58.9590   34.5680   44.5420 C   0  0  0  0  0  0  0  0  0  0  0  0
   59.6530   35.3640   45.6670 C   0  0  0  0  0  0  0  0  0  0  0  0
   59.3990   34.8100   47.0210 N   0  0  0  0  0  0  0  0  0  0  0  0
   60.4600   33.8800   47.4670 C   0  0  0  0  0  0  0  0  0  0  0  0
   59.9160   32.9220   48.4950 C   0  0  0  0  0  0  0  0  0  0  0  0
   59.5950   33.3660   49.7890 C   0  0  0  0  0  0  0  0  0  0  0  0
   59.0880   32.4700   50.7350 C   0  0  0  0  0  0  0  0  0  0  0  0
   58.8970   31.1270   50.3970 C   0  0  0  0  0  0  0  0  0  0  0  0
   59.2090   30.6780   49.1100 C   0  0  0  0  0  0  0  0  0  0  0  0
   59.0220   29.3760   48.7840 F   0  0  0  0  0  0  0  0  0  0  0  0
   59.7180   31.5710   48.1610 C   0  0  0  0  0  0  0  0  0  0  0  0
   58.0560   34.2060   47.1140 C   0  0  0  0  0  0  0  0  0  0  0  0
   57.8580   33.0610   46.0950 C   0  0  0  0  0  0  0  0  0  0  0  0
   56.6670   30.4710   44.1600 C   0  0  0  0  0  0  0  0  0  0  0  0
   56.3500   29.1800   44.5900 C   0  0  0  0  0  0  0  0  0  0  0  0
   57.0310   26.1080   43.5970 H   0  0  0  0  0  0  0  0  0  0  0  0
   58.7477   23.9818   44.4065 H   0  0  0  0  0  0  0  0  0  0  0  0
   58.4868   21.5807   45.0177 H   0  0  0  0  0  0  0  0  0  0  0  0
   56.3168   20.7441   45.9148 H   0  0  0  0  0  0  0  0  0  0  0  0
   51.3251   20.9392   45.9787 H   0  0  0  0  0  0  0  0  0  0  0  0
   50.9406   22.5541   46.6837 H   0  0  0  0  0  0  0  0  0  0  0  0
   50.0294   21.2997   44.1147 H   0  0  0  0  0  0  0  0  0  0  0  0
   49.1908   22.4604   45.2371 H   0  0  0  0  0  0  0  0  0  0  0  0
   51.0714   23.0255   42.9369 H   0  0  0  0  0  0  0  0  0  0  0  0
   49.4873   23.7836   43.3653 H   0  0  0  0  0  0  0  0  0  0  0  0
   51.4121   25.3102   43.7753 H   0  0  0  0  0  0  0  0  0  0  0  0
   50.5027   24.8944   45.2861 H   0  0  0  0  0  0  0  0  0  0  0  0
   53.3217   24.3348   44.5382 H   0  0  0  0  0  0  0  0  0  0  0  0
   52.5136   24.4350   46.1670 H   0  0  0  0  0  0  0  0  0  0  0  0
   54.6246   24.7105   45.5165 H   0  0  0  0  0  0  0  0  0  0  0  0
   59.4474   28.1876   45.6516 H   0  0  0  0  0  0  0  0  0  0  0  0
   60.0073   30.4914   44.8926 H   0  0  0  0  0  0  0  0  0  0  0  0
   59.1316   32.2904   43.0556 H   0  0  0  0  0  0  0  0  0  0  0  0
   57.4324   32.8100   43.3743 H   0  0  0  0  0  0  0  0  0  0  0  0
   59.5753   34.6118   43.6319 H   0  0  0  0  0  0  0  0  0  0  0  0
   57.9704   35.0089   44.3464 H   0  0  0  0  0  0  0  0  0  0  0  0
   60.7376   35.3544   45.4836 H   0  0  0  0  0  0  0  0  0  0  0  0
   59.2386   36.3828   45.6487 H   0  0  0  0  0  0  0  0  0  0  0  0
   60.8318   33.3115   46.6018 H   0  0  0  0  0  0  0  0  0  0  0  0
   61.2794   34.4603   47.9162 H   0  0  0  0  0  0  0  0  0  0  0  0
   59.7431   34.4221   50.0586 H   0  0  0  0  0  0  0  0  0  0  0  0
   58.8390   32.8224   51.7469 H   0  0  0  0  0  0  0  0  0  0  0  0
   58.5011   30.4231   51.1439 H   0  0  0  0  0  0  0  0  0  0  0  0
   59.9642   31.2147   47.1498 H   0  0  0  0  0  0  0  0  0  0  0  0
   57.9177   33.8047   48.1288 H   0  0  0  0  0  0  0  0  0  0  0  0
   57.3175   34.9895   46.8887 H   0  0  0  0  0  0  0  0  0  0  0  0
   58.0285   32.1010   46.6042 H   0  0  0  0  0  0  0  0  0  0  0  0
   56.8322   33.1320   45.7043 H   0  0  0  0  0  0  0  0  0  0  0  0
   55.8810   31.1162   43.7407 H   0  0  0  0  0  0  0  0  0  0  0  0
   55.3171   28.8128   44.4995 H   0  0  0  0  0  0  0  0  0  0  0  0
  1  2  2  0
  2  3  1  0
  3  4  1  0
  4  5  2  0
  5  6  1  0
  6  7  2  0
  7  8  1  0
  8  9  1  0
  9 10  2  0
  9 11  2  0
  9 12  1  0
 12 13  1  0
 13 14  1  0
 14 15  1  0
 15 16  1  0
 16 17  1  0
  8 18  2  0
  2 19  1  0
 19 20  2  0
 20 21  1  0
 21 22  2  0
 22 23  1  0
 23 24  1  0
 24 25  1  0
 25 26  1  0
 26 27  1  0
 27 28  1  0
 28 29  1  0
 29 30  2  0
 30 31  1  0
 31 32  2  0
 32 33  1  0
 33 34  1  0
 33 35  2  0
 27 36  1  0
 36 37  1  0
 22 38  1  0
 38 39  2  0
 18  4  1  0
 39 19  1  0
 17 12  1  0
 37 24  1  0
 35 29  1  0
  3 40  1  0
  5 41  1  0
  6 42  1  0
  7 43  1  0
 13 44  1  0
 13 45  1  0
 14 46  1  0
 14 47  1  0
 15 48  1  0
 15 49  1  0
 16 50  1  0
 16 51  1  0
 17 52  1  0
 17 53  1  0
 18 54  1  0
 20 55  1  0
 21 56  1  0
 23 57  1  0
 23 58  1  0
 25 59  1  0
 25 60  1  0
 26 61  1  0
 26 62  1  0
 28 63  1  0
 28 64  1  0
 30 65  1  0
 31 66  1  0
 32 67  1  0
 35 68  1  0
 36 69  1  0
 36 70  1  0
 37 71  1  0
 37 72  1  0
 38 73  1  0
 39 74  1  0
M  END
>  <UniqueID>  (88) 
85

>  <SMILES>  (88) 
O=C(Nc1cccc(S(=O)(=O)N2CCCCC2)c1)c1ccc(CN2CCN(Cc3cccc(F)c3)CC2)cc1

>  <Energy>  (88) 
98.37107649408252

>  <Genealogy>  (88) 
O=C(Nc1cccc(S(=O)(=O)N2CCCCC2)c1)c1ccc(CN2CCN(Cc3cccc(F)c3)CC2)cc1 (3D coordinates assigned)
O=C(Nc1cccc(S(=O)(=O)N2CCCCC2)c1)c1ccc(CN2CCN(Cc3cccc(F)c3)CC2)cc1 (nonaromatic ring conformer: 98.37107649408252 kcal/mol)

>  <smiles>  (88) 
O=C(Nc1cccc(S(=O)(=O)N2CCCCC2)c1)c1ccc(CN2CCN(Cc3cccc(F)c3)CC2)cc1

>  <score_type>  (88) 
oracle

>  <origin>  (88) 
adg

>  <m_score__min__energy>  (88) 
-10.59

>  <m_primary>  (88) 
energy

$$$$
88:0
     RDKit          3D

 57 61  0  0  0  0  0  0  0  0999 V2000
   58.5100   30.1560   44.2560 C   0  0  0  0  0  0  0  0  0  0  0  0
   58.6910   29.9840   45.5740 C   0  0  0  0  0  0  0  0  0  0  0  0
   58.5200   28.7970   46.2990 C   0  0  0  0  0  0  0  0  0  0  0  0
   58.4260   27.5160   45.8870 C   0  0  0  0  0  0  0  0  0  0  0  0
   57.2040   26.6940   45.9180 C   0  0  0  0  0  0  0  0  0  0  0  0
   57.1390   25.4260   46.3690 N   0  0  0  0  0  0  0  0  0  0  0  0
   55.8190   25.1500   46.3400 C   0  0  0  0  0  0  0  0  0  0  0  0
   55.3530   24.0300   46.6750 O   0  0  0  0  0  0  0  0  0  0  0  0
   55.0360   26.1680   45.9260 N   0  0  0  0  0  0  0  0  0  0  0  0
   55.9290   27.1400   45.6760 C   0  0  0  0  0  0  0  0  0  0  0  0
   55.5820   28.4140   45.2440 O   0  0  0  0  0  0  0  0  0  0  0  0
   58.5060   29.1580   47.6360 C   0  0  0  0  0  0  0  0  0  0  0  0
   58.7680   30.5140   47.6890 C   0  0  0  0  0  0  0  0  0  0  0  0
   58.8510   31.3320   48.9530 C   0  0  0  0  0  0  0  0  0  0  0  0
   59.5620   30.6070   50.0620 C   0  0  0  0  0  0  0  0  0  0  0  0
   59.1770   30.6620   51.2930 N   0  0  0  0  0  0  0  0  0  0  0  0
   60.1970   30.0030   52.0450 C   0  0  0  0  0  0  0  0  0  0  0  0
   60.1020   29.8140   53.2880 O   0  0  0  0  0  0  0  0  0  0  0  0
   61.3190   29.5510   51.2710 N   0  0  2  0  0  0  0  0  0  0  0  0
   62.5880   30.2290   51.6250 C   0  0  0  0  0  0  0  0  0  0  0  0
   62.7630   31.5940   50.9820 C   0  0  0  0  0  0  0  0  0  0  0  0
   61.9350   32.6630   51.3630 C   0  0  0  0  0  0  0  0  0  0  0  0
   62.0620   33.9110   50.7450 C   0  0  0  0  0  0  0  0  0  0  0  0
   63.0120   34.1010   49.7390 C   0  0  0  0  0  0  0  0  0  0  0  0
   63.8300   33.0410   49.3450 C   0  0  0  0  0  0  0  0  0  0  0  0
   63.7180   31.7960   49.9700 C   0  0  0  0  0  0  0  0  0  0  0  0
   60.8510   29.9350   49.9760 C   0  0  0  0  0  0  0  0  0  0  0  0
   61.4950   29.7270   48.9120 O   0  0  0  0  0  0  0  0  0  0  0  0
   58.8860   31.0130   46.4380 N   0  0  0  0  0  0  0  0  0  0  0  0
   59.0070   32.4060   46.0950 C   0  0  0  0  0  0  0  0  0  0  0  0
   57.9340   33.0360   45.4440 C   0  0  0  0  0  0  0  0  0  0  0  0
   58.0360   34.3640   45.0290 C   0  0  0  0  0  0  0  0  0  0  0  0
   59.2120   35.0750   45.2570 C   0  0  0  0  0  0  0  0  0  0  0  0
   60.2860   34.4660   45.9140 C   0  0  0  0  0  0  0  0  0  0  0  0
   60.1940   33.1330   46.3630 C   0  0  0  0  0  0  0  0  0  0  0  0
   61.3810   32.4950   47.0520 C   0  0  0  0  0  0  0  0  0  0  0  0
   62.5300   33.2050   46.7500 F   0  0  0  0  0  0  0  0  0  0  0  0
   61.5370   31.1860   46.6430 F   0  0  0  0  0  0  0  0  0  0  0  0
   61.2170   32.4850   48.4270 F   0  0  0  0  0  0  0  0  0  0  0  0
   58.6777   31.1439   43.8021 H   0  0  0  0  0  0  0  0  0  0  0  0
   58.1939   29.3092   43.6291 H   0  0  0  0  0  0  0  0  0  0  0  0
   59.3394   27.0452   45.4946 H   0  0  0  0  0  0  0  0  0  0  0  0
   58.3216   28.4926   48.4923 H   0  0  0  0  0  0  0  0  0  0  0  0
   59.3941   32.2635   48.7354 H   0  0  0  0  0  0  0  0  0  0  0  0
   57.8232   31.5325   49.2896 H   0  0  0  0  0  0  0  0  0  0  0  0
   61.4080   28.5100   51.3250 H   0  0  0  0  0  0  0  0  0  0  0  0
   62.6190   30.3553   52.7173 H   0  0  0  0  0  0  0  0  0  0  0  0
   63.4027   29.5939   51.2471 H   0  0  0  0  0  0  0  0  0  0  0  0
   61.1824   32.5175   52.1520 H   0  0  0  0  0  0  0  0  0  0  0  0
   61.4127   34.7443   51.0517 H   0  0  0  0  0  0  0  0  0  0  0  0
   63.1154   35.0848   49.2578 H   0  0  0  0  0  0  0  0  0  0  0  0
   64.5653   33.1860   48.5398 H   0  0  0  0  0  0  0  0  0  0  0  0
   64.3798   30.9706   49.6689 H   0  0  0  0  0  0  0  0  0  0  0  0
   57.0046   32.4773   45.2596 H   0  0  0  0  0  0  0  0  0  0  0  0
   57.1887   34.8491   44.5223 H   0  0  0  0  0  0  0  0  0  0  0  0
   59.2962   36.1185   44.9193 H   0  0  0  0  0  0  0  0  0  0  0  0
   61.2130   35.0337   46.0823 H   0  0  0  0  0  0  0  0  0  0  0  0
  1  2  2  0
  2  3  1  0
  3  4  2  3
  4  5  1  0
  5  6  1  0
  6  7  1  0
  7  8  2  0
  7  9  1  0
  9 10  1  0
 10 11  1  0
  3 12  1  0
 12 13  2  0
 13 14  1  0
 14 15  1  0
 15 16  2  0
 16 17  1  0
 17 18  2  0
 17 19  1  0
 19 20  1  0
 20 21  1  0
 21 22  2  0
 22 23  1  0
 23 24  2  0
 24 25  1  0
 25 26  2  0
 19 27  1  0
 27 28  2  0
 13 29  1  0
 29 30  1  0
 30 31  2  0
 31 32  1  0
 32 33  2  0
 33 34  1  0
 34 35  2  0
 35 36  1  0
 36 37  1  0
 36 38  1  0
 36 39  1  0
 29  2  1  0
 35 30  1  0
 10  5  2  0
 27 15  1  0
 26 21  1  0
  1 40  1  0
  1 41  1  0
  4 42  1  0
 12 43  1  0
 14 44  1  0
 14 45  1  0
 19 46  1  6
 20 47  1  0
 20 48  1  0
 22 49  1  0
 23 50  1  0
 24 51  1  0
 25 52  1  0
 26 53  1  0
 31 54  1  0
 32 55  1  0
 33 56  1  0
 34 57  1  0
M  CHG  4   6  -1   9  -1  11  -1  19   1
M  END
>  <UniqueID>  (89) 
86

>  <SMILES>  (89) 
C=c1c(=Cc2[n-]c(=O)[n-]c2[O-])cc(CC2=NC(=O)[N@H+](Cc3ccccc3)C2=O)n1-c1ccccc1C(F)(F)F

>  <Energy>  (89) 
162.08754704009147

>  <Genealogy>  (89) 
C=c1c(=Cc2[n-]c(=O)[n-]c2[O-])cc(CC2=NC(=O)[NH+](Cc3ccccc3)C2=O)n1-c1ccccc1C(F)(F)F (protonated)
C=c1c(=Cc2[n-]c(=O)[n-]c2[O-])cc(CC2=NC(=O)[N@H+](Cc3ccccc3)C2=O)n1-c1ccccc1C(F)(F)F (chirality)
C=c1c(=Cc2[n-]c(=O)[n-]c2[O-])cc(CC2=NC(=O)[N@H+](Cc3ccccc3)C2=O)n1-c1ccccc1C(F)(F)F (3D coordinates assigned)
C=c1c(=Cc2[n-]c(=O)[n-]c2[O-])cc(CC2=NC(=O)[N@H+](Cc3ccccc3)C2=O)n1-c1ccccc1C(F)(F)F (nonaromatic ring conformer: 162.08754704009147 kcal/mol)

>  <smiles>  (89) 
C=c1c(=Cc2[nH]c(=O)[nH]c2O)cc(CC2=NC(=O)N(Cc3ccccc3)C2=O)n1-c1ccccc1C(F)(F)F

>  <score_type>  (89) 
oracle

>  <origin>  (89) 
adg

>  <m_score__min__energy>  (89) 
-15.960000000000001

>  <m_primary>  (89) 
energy

$$$$
89:0
     RDKit          3D

 37 39  0  0  0  0  0  0  0  0999 V2000
   55.1490   23.3070   47.9060 C   0  0  0  0  0  0  0  0  0  0  0  0
   55.9360   24.2840   47.4710 C   0  0  0  0  0  0  0  0  0  0  0  0
   57.0240   24.7090   48.1520 N   0  0  0  0  0  0  0  0  0  0  0  0
   57.5090   25.6860   47.3690 C   0  0  0  0  0  0  0  0  0  0  0  0
   58.5210   26.3730   47.6710 O   0  0  0  0  0  0  0  0  0  0  0  0
   56.7220   25.8330   46.2410 C   0  0  0  0  0  0  0  0  0  0  0  0
   56.8550   26.7010   45.2270 C   0  0  0  0  0  0  0  0  0  0  0  0
   57.3530   28.0850   45.3790 C   0  0  0  0  0  0  0  0  0  0  0  0
   56.4880   29.1630   45.1780 C   0  0  0  0  0  0  0  0  0  0  0  0
   55.1450   28.9510   44.8860 O   0  0  0  0  0  0  0  0  0  0  0  0
   56.9550   30.4300   45.2770 N   0  0  0  0  0  0  0  0  0  0  0  0
   58.2580   30.6880   45.5520 C   0  0  0  0  0  0  0  0  0  0  0  0
   58.6360   31.8890   45.6310 O   0  0  0  0  0  0  0  0  0  0  0  0
   59.1470   29.6580   45.7360 N   0  0  0  0  0  0  0  0  0  0  0  0
   60.5740   29.9520   45.9810 C   0  0  0  0  0  0  0  0  0  0  0  0
   60.8090   30.4150   47.4260 C   0  0  0  0  0  0  0  0  0  0  0  0
   61.7150   31.6170   47.4860 C   0  0  0  0  0  0  0  0  0  0  0  0
   62.8940   31.5780   48.2490 C   0  0  0  0  0  0  0  0  0  0  0  0
   63.7610   32.6740   48.2620 C   0  0  0  0  0  0  0  0  0  0  0  0
   63.4640   33.8110   47.5070 C   0  0  0  0  0  0  0  0  0  0  0  0
   62.2980   33.8560   46.7380 C   0  0  0  0  0  0  0  0  0  0  0  0
   61.4260   32.7620   46.7250 C   0  0  0  0  0  0  0  0  0  0  0  0
   58.7080   28.3590   45.6360 C   0  0  0  0  0  0  0  0  0  0  0  0
   59.5200   27.4000   45.7590 O   0  0  0  0  0  0  0  0  0  0  0  0
   55.7140   24.9430   46.3100 N   0  0  0  0  0  0  0  0  0  0  0  0
   54.2753   22.9992   47.3128 H   0  0  0  0  0  0  0  0  0  0  0  0
   55.3707   22.8055   48.8596 H   0  0  0  0  0  0  0  0  0  0  0  0
   56.5759   26.3618   44.2185 H   0  0  0  0  0  0  0  0  0  0  0  0
   61.1640   29.0423   45.7960 H   0  0  0  0  0  0  0  0  0  0  0  0
   60.8828   30.7613   45.3029 H   0  0  0  0  0  0  0  0  0  0  0  0
   59.8409   30.6754   47.8787 H   0  0  0  0  0  0  0  0  0  0  0  0
   61.2927   29.5935   47.9747 H   0  0  0  0  0  0  0  0  0  0  0  0
   63.1357   30.6813   48.8385 H   0  0  0  0  0  0  0  0  0  0  0  0
   64.6786   32.6412   48.8677 H   0  0  0  0  0  0  0  0  0  0  0  0
   64.1486   34.6719   47.5177 H   0  0  0  0  0  0  0  0  0  0  0  0
   62.0658   34.7515   46.1429 H   0  0  0  0  0  0  0  0  0  0  0  0
   60.5104   32.7985   46.1164 H   0  0  0  0  0  0  0  0  0  0  0  0
  1  2  2  0
  2  3  1  0
  3  4  1  0
  4  5  2  0
  4  6  1  0
  6  7  2  3
  7  8  1  0
  8  9  2  0
  9 10  1  0
  9 11  1  0
 11 12  1  0
 12 13  2  0
 12 14  1  0
 14 15  1  0
 15 16  1  0
 16 17  1  0
 17 18  2  0
 18 19  1  0
 19 20  2  0
 20 21  1  0
 21 22  2  0
 14 23  1  0
 23 24  2  0
  6 25  1  0
 25  2  1  0
 23  8  1  0
 22 17  1  0
  1 26  1  0
  1 27  1  0
  7 28  1  0
 15 29  1  0
 15 30  1  0
 16 31  1  0
 16 32  1  0
 18 33  1  0
 19 34  1  0
 20 35  1  0
 21 36  1  0
 22 37  1  0
M  CHG  4   3  -1  10  -1  11  -1  25  -1
M  END
>  <UniqueID>  (90) 
87

>  <SMILES>  (90) 
C=c1[n-]c(=O)c(=Cc2c([O-])[n-]c(=O)n(CCc3ccccc3)c2=O)[n-]1

>  <Energy>  (90) 
78.49866918908725

>  <Genealogy>  (90) 
C=c1[n-]c(=O)c(=Cc2c([O-])[n-]c(=O)n(CCc3ccccc3)c2=O)[n-]1 (protonated)
C=c1[n-]c(=O)c(=Cc2c([O-])[n-]c(=O)n(CCc3ccccc3)c2=O)[n-]1 (3D coordinates assigned)
C=c1[n-]c(=O)c(=Cc2c([O-])[n-]c(=O)n(CCc3ccccc3)c2=O)[n-]1 (optimized conformer: 78.49866918908725 kcal/mol)

>  <smiles>  (90) 
C=c1[nH]c(=O)c(=Cc2c(O)[nH]c(=O)n(CCc3ccccc3)c2=O)[nH]1

>  <score_type>  (90) 
oracle

>  <origin>  (90) 
adg

>  <m_score__min__energy>  (90) 
-15.02

>  <m_primary>  (90) 
energy

$$$$
90:0
     RDKit          3D

 26 27  0  0  0  0  0  0  0  0999 V2000
   55.9252   24.6846   45.3211 H   0  0  0  0  0  0  0  0  0  0  0  0
   55.1520   25.4030   45.6310 C   0  0  0  0  0  0  0  0  0  0  0  0
   53.9420   25.0510   45.6360 O   0  0  0  0  0  0  0  0  0  0  0  0
   55.5240   26.6940   46.0140 O   0  0  0  0  0  0  0  0  0  0  0  0
   56.7800   27.2100   45.7470 N   0  0  0  0  0  0  0  0  0  0  0  0
   57.9600   26.6040   46.0510 C   0  0  0  0  0  0  0  0  0  0  0  0
   58.0850   25.4380   46.6820 C   0  0  0  0  0  0  0  0  0  0  0  0
   57.1889   24.8602   46.9526 H   0  0  0  0  0  0  0  0  0  0  0  0
   59.0843   25.0526   46.9326 H   0  0  0  0  0  0  0  0  0  0  0  0
   59.2620   27.5680   45.5910 S   0  0  0  0  0  0  0  0  0  0  0  0
   58.2860   28.8170   45.0010 C   0  0  0  0  0  0  0  0  0  0  0  0
   58.7090   29.9750   44.4770 C   0  0  0  0  0  0  0  0  0  0  0  0
   59.3990   29.9465   43.6208 H   0  0  0  0  0  0  0  0  0  0  0  0
   58.2860   31.2880   45.0030 C   0  0  0  0  0  0  0  0  0  0  0  0
   58.3900   31.5850   46.3790 C   0  0  0  0  0  0  0  0  0  0  0  0
   59.0640   30.4300   47.5260 Cl  0  0  0  0  0  0  0  0  0  0  0  0
   57.9870   32.8370   46.8560 C   0  0  0  0  0  0  0  0  0  0  0  0
   58.0606   33.0629   47.9300 H   0  0  0  0  0  0  0  0  0  0  0  0
   57.4920   33.8010   45.9760 C   0  0  0  0  0  0  0  0  0  0  0  0
   57.1711   34.7812   46.3584 H   0  0  0  0  0  0  0  0  0  0  0  0
   57.4040   33.5220   44.6110 C   0  0  0  0  0  0  0  0  0  0  0  0
   57.0195   34.2861   43.9194 H   0  0  0  0  0  0  0  0  0  0  0  0
   57.8030   32.2740   44.1190 C   0  0  0  0  0  0  0  0  0  0  0  0
   57.6640   31.9680   42.3900 Cl  0  0  0  0  0  0  0  0  0  0  0  0
   56.9560   28.4390   45.1900 C   0  0  0  0  0  0  0  0  0  0  0  0
   55.9790   29.1680   44.8650 O   0  0  0  0  0  0  0  0  0  0  0  0
  1  2  1  0
  2  3  2  0
  2  4  1  0
  4  5  1  0
  5  6  1  0
  6  7  2  0
  7  8  1  0
  7  9  1  0
  6 10  1  0
 10 11  1  0
 11 12  2  0
 12 13  1  0
 12 14  1  0
 14 15  2  0
 15 16  1  0
 15 17  1  0
 17 18  1  0
 17 19  2  0
 19 20  1  0
 19 21  1  0
 21 22  1  0
 21 23  2  0
 23 24  1  0
 11 25  1  0
 25 26  2  0
 25  5  1  0
 23 14  1  0
M  END
>  <UniqueID>  (91) 
88

>  <SMILES>  (91) 
C=c1s/c(=C\c2c(Cl)cccc2Cl)c(=O)n1OC=O

>  <Energy>  (91) 
73.98828185708155

>  <Genealogy>  (91) 
C=c1s/c(=C\c2c(Cl)cccc2Cl)c(=O)n1OC=O (cis-trans isomerization)
C=c1s/c(=C\c2c(Cl)cccc2Cl)c(=O)n1OC=O (3D coordinates assigned)
C=c1s/c(=C\c2c(Cl)cccc2Cl)c(=O)n1OC=O (optimized conformer: 73.98828185708155 kcal/mol)

>  <smiles>  (91) 
C=c1sc(=Cc2c(Cl)cccc2Cl)c(=O)n1OC=O

>  <score_type>  (91) 
oracle

>  <origin>  (91) 
adg

>  <m_score__min__energy>  (91) 
-7.7599999999999998

>  <m_primary>  (91) 
energy

$$$$
91:0
     RDKit          3D

 50 52  0  0  0  0  0  0  0  0999 V2000
   56.8720   30.0330   54.6280 C   0  0  0  0  0  0  0  0  0  0  0  0
   57.6980   29.8990   53.3720 C   0  0  0  0  0  0  0  0  0  0  0  0
   58.8410   29.0950   53.4100 C   0  0  0  0  0  0  0  0  0  0  0  0
   59.6040   28.9520   52.3030 N   0  0  0  0  0  0  0  0  0  0  0  0
   59.3050   29.5660   51.1340 C   0  0  0  0  0  0  0  0  0  0  0  0
   60.1100   29.3600   50.1240 N   0  0  0  0  0  0  0  0  0  0  0  0
   60.4920   30.2540   49.0280 C   0  0  0  0  0  0  0  0  0  0  0  0
   59.5450   30.1280   47.8610 C   0  0  0  0  0  0  0  0  0  0  0  0
   59.4040   31.1800   46.9400 C   0  0  0  0  0  0  0  0  0  0  0  0
   58.5420   31.0520   45.8480 C   0  0  0  0  0  0  0  0  0  0  0  0
   57.8240   29.8660   45.6520 C   0  0  0  0  0  0  0  0  0  0  0  0
   56.7210   29.7150   44.2870 S   0  0  0  0  0  0  0  0  0  0  0  0
   55.1430   29.3120   44.8620 N   0  0  0  0  0  0  0  0  0  0  0  0
   57.2030   28.6380   43.3570 O   0  0  0  0  0  0  0  0  0  0  0  0
   56.6660   31.0140   43.5320 O   0  0  0  0  0  0  0  0  0  0  0  0
   57.9730   28.8080   46.5580 C   0  0  0  0  0  0  0  0  0  0  0  0
   58.8370   28.9340   47.6500 C   0  0  0  0  0  0  0  0  0  0  0  0
   58.1490   30.3860   51.0780 C   0  0  0  0  0  0  0  0  0  0  0  0
   57.8130   30.9460   50.0000 O   0  0  0  0  0  0  0  0  0  0  0  0
   57.3750   30.5600   52.2060 N   0  0  0  0  0  0  0  0  0  0  0  0
   56.1660   31.4120   52.1300 C   0  0  0  0  0  0  0  0  0  0  0  0
   54.9280   30.5670   52.1230 C   0  0  0  0  0  0  0  0  0  0  0  0
   55.0260   29.3170   52.0000 O   0  0  0  0  0  0  0  0  0  0  0  0
   53.6440   31.1960   52.2260 N   0  0  0  0  0  0  0  0  0  0  0  0
   52.5050   30.7150   52.9560 C   0  0  0  0  0  0  0  0  0  0  0  0
   52.6600   29.7380   53.9590 C   0  0  0  0  0  0  0  0  0  0  0  0
   51.5600   29.2850   54.6850 C   0  0  0  0  0  0  0  0  0  0  0  0
   50.2940   29.8060   54.4330 C   0  0  0  0  0  0  0  0  0  0  0  0
   50.1240   30.7940   53.4610 C   0  0  0  0  0  0  0  0  0  0  0  0
   51.2200   31.2710   52.7170 C   0  0  0  0  0  0  0  0  0  0  0  0
   50.9850   32.3300   51.6980 C   0  0  0  0  0  0  0  0  0  0  0  0
   51.1050   32.0920   50.4670 O   0  0  0  0  0  0  0  0  0  0  0  0
   50.6240   33.6130   52.0940 O   0  0  0  0  0  0  0  0  0  0  0  0
   57.5233   29.9273   55.5082 H   0  0  0  0  0  0  0  0  0  0  0  0
   56.3892   31.0212   54.6456 H   0  0  0  0  0  0  0  0  0  0  0  0
   56.1015   29.2481   54.6456 H   0  0  0  0  0  0  0  0  0  0  0  0
   59.1196   28.5787   54.3405 H   0  0  0  0  0  0  0  0  0  0  0  0
   60.4769   31.2923   49.3910 H   0  0  0  0  0  0  0  0  0  0  0  0
   61.5001   29.9746   48.6881 H   0  0  0  0  0  0  0  0  0  0  0  0
   59.9755   32.1094   47.0796 H   0  0  0  0  0  0  0  0  0  0  0  0
   58.4270   31.8858   45.1398 H   0  0  0  0  0  0  0  0  0  0  0  0
   55.2660   28.6000   45.6170 H   0  0  0  0  0  0  0  0  0  0  0  0
   57.4087   27.8755   46.4099 H   0  0  0  0  0  0  0  0  0  0  0  0
   58.9628   28.0930   48.3478 H   0  0  0  0  0  0  0  0  0  0  0  0
   56.1410   32.0835   53.0009 H   0  0  0  0  0  0  0  0  0  0  0  0
   56.2018   31.9983   51.2000 H   0  0  0  0  0  0  0  0  0  0  0  0
   53.6588   29.3288   54.1712 H   0  0  0  0  0  0  0  0  0  0  0  0
   51.6925   28.5143   55.4586 H   0  0  0  0  0  0  0  0  0  0  0  0
   49.4261   29.4388   55.0005 H   0  0  0  0  0  0  0  0  0  0  0  0
   49.1209   31.2049   53.2742 H   0  0  0  0  0  0  0  0  0  0  0  0
  1  2  1  0
  2  3  2  0
  3  4  1  0
  4  5  1  0
  5  6  2  3
  6  7  1  0
  7  8  1  0
  8  9  2  0
  9 10  1  0
 10 11  2  0
 11 12  1  0
 12 13  1  0
 12 14  2  0
 12 15  2  0
 11 16  1  0
 16 17  2  0
  5 18  1  0
 18 19  2  0
 18 20  1  0
 20 21  1  0
 21 22  1  0
 22 23  2  0
 22 24  1  0
 24 25  1  0
 25 26  2  0
 26 27  1  0
 27 28  2  0
 28 29  1  0
 29 30  2  0
 30 31  1  0
 31 32  2  0
 31 33  1  0
 20  2  1  0
 30 25  1  0
 17  8  1  0
  1 34  1  0
  1 35  1  0
  1 36  1  0
  3 37  1  0
  7 38  1  0
  7 39  1  0
  9 40  1  0
 10 41  1  0
 13 42  1  0
 16 43  1  0
 17 44  1  0
 21 45  1  0
 21 46  1  0
 26 47  1  0
 27 48  1  0
 28 49  1  0
 29 50  1  0
M  CHG  4   4  -1  13  -1  24  -1  33  -1
M  END
>  <UniqueID>  (92) 
89

>  <SMILES>  (92) 
Cc1c[n-]c(=NCc2ccc(S([NH-])(=O)=O)cc2)c(=O)n1CC(=O)[N-]c1ccccc1C(=O)[O-]

>  <Energy>  (92) 
68.46263174794387

>  <Genealogy>  (92) 
Cc1c[n-]c(=NCc2ccc(S([NH-])(=O)=O)cc2)c(=O)n1CC(=O)[N-]c1ccccc1C(=O)[O-] (protonated)
Cc1c[n-]c(=NCc2ccc(S([NH-])(=O)=O)cc2)c(=O)n1CC(=O)[N-]c1ccccc1C(=O)[O-] (3D coordinates assigned)
Cc1c[n-]c(=NCc2ccc(S([NH-])(=O)=O)cc2)c(=O)n1CC(=O)[N-]c1ccccc1C(=O)[O-] (optimized conformer: 68.46263174794387 kcal/mol)

>  <smiles>  (92) 
Cc1c[nH]c(=NCc2ccc(S(N)(=O)=O)cc2)c(=O)n1CC(=O)Nc1ccccc1C(=O)O

>  <score_type>  (92) 
oracle

>  <origin>  (92) 
adg

>  <m_score__min__energy>  (92) 
-16.68

>  <m_primary>  (92) 
energy

$$$$
92:0
     RDKit          3D

 52 55  0  0  0  0  0  0  0  0999 V2000
   54.4770   28.1190   52.7940 C   0  0  0  0  0  0  0  0  0  0  0  0
   54.7930   29.4260   52.7660 C   0  0  0  0  0  0  0  0  0  0  0  0
   53.9460   30.4700   52.3630 C   0  0  0  0  0  0  0  0  0  0  0  0
   52.6190   30.5010   52.1360 C   0  0  0  0  0  0  0  0  0  0  0  0
   51.9670   30.9090   50.8790 C   0  0  0  0  0  0  0  0  0  0  0  0
   51.8200   30.1210   49.7980 N   0  0  0  0  0  0  0  0  0  0  0  0
   51.0310   30.8550   48.9820 C   0  0  0  0  0  0  0  0  0  0  0  0
   50.6720   30.4530   47.8440 O   0  0  0  0  0  0  0  0  0  0  0  0
   50.6410   32.0430   49.4910 N   0  0  0  0  0  0  0  0  0  0  0  0
   51.2300   32.0540   50.6970 C   0  0  0  0  0  0  0  0  0  0  0  0
   51.0930   33.0880   51.6140 O   0  0  0  0  0  0  0  0  0  0  0  0
   54.7460   31.5870   52.2330 C   0  0  0  0  0  0  0  0  0  0  0  0
   56.0150   31.2280   52.6410 C   0  0  0  0  0  0  0  0  0  0  0  0
   57.1980   32.1660   52.6250 C   0  0  0  0  0  0  0  0  0  0  0  0
   57.6770   32.4460   51.1990 C   0  0  0  0  0  0  0  0  0  0  0  0
   56.0500   29.9120   52.9690 N   0  0  0  0  0  0  0  0  0  0  0  0
   57.2560   29.1630   53.3660 C   0  0  0  0  0  0  0  0  0  0  0  0
   58.4210   29.4980   52.4680 C   0  0  0  0  0  0  0  0  0  0  0  0
   59.6520   29.8940   53.0170 C   0  0  0  0  0  0  0  0  0  0  0  0
   60.7250   30.2210   52.1850 C   0  0  0  0  0  0  0  0  0  0  0  0
   60.5930   30.1460   50.7880 C   0  0  0  0  0  0  0  0  0  0  0  0
   61.6910   30.5100   49.9270 N   0  0  0  0  0  0  0  0  0  0  0  0
   61.5340   30.5160   48.4700 C   0  0  0  0  0  0  0  0  0  0  0  0
   61.9810   31.8680   47.9230 C   0  0  0  0  0  0  0  0  0  0  0  0
   63.3070   32.2200   48.4280 N   0  0  0  0  0  0  0  0  0  0  0  0
   63.7600   31.7970   49.7210 C   0  0  0  0  0  0  0  0  0  0  0  0
   64.8090   32.2990   50.2080 O   0  0  0  0  0  0  0  0  0  0  0  0
   63.0320   30.7230   50.4800 C   0  0  0  0  0  0  0  0  0  0  0  0
   59.3670   29.7350   50.2400 C   0  0  0  0  0  0  0  0  0  0  0  0
   58.2930   29.4090   51.0720 C   0  0  0  0  0  0  0  0  0  0  0  0
   55.2203   27.3805   53.1290 H   0  0  0  0  0  0  0  0  0  0  0  0
   53.4753   27.7885   52.4819 H   0  0  0  0  0  0  0  0  0  0  0  0
   51.9625   30.1941   52.9635 H   0  0  0  0  0  0  0  0  0  0  0  0
   54.4315   32.5774   51.8721 H   0  0  0  0  0  0  0  0  0  0  0  0
   56.9064   33.1161   53.0964 H   0  0  0  0  0  0  0  0  0  0  0  0
   58.0217   31.6896   53.1768 H   0  0  0  0  0  0  0  0  0  0  0  0
   58.6262   33.0009   51.2333 H   0  0  0  0  0  0  0  0  0  0  0  0
   57.8278   31.4938   50.6693 H   0  0  0  0  0  0  0  0  0  0  0  0
   56.9213   33.0446   50.6693 H   0  0  0  0  0  0  0  0  0  0  0  0
   57.5152   29.4222   54.4031 H   0  0  0  0  0  0  0  0  0  0  0  0
   57.0446   28.0870   53.2788 H   0  0  0  0  0  0  0  0  0  0  0  0
   59.7715   29.9469   54.1092 H   0  0  0  0  0  0  0  0  0  0  0  0
   61.6807   30.5397   52.6266 H   0  0  0  0  0  0  0  0  0  0  0  0
   62.1513   29.7188   48.0301 H   0  0  0  0  0  0  0  0  0  0  0  0
   60.4789   30.3431   48.2112 H   0  0  0  0  0  0  0  0  0  0  0  0
   62.0147   31.8193   46.8246 H   0  0  0  0  0  0  0  0  0  0  0  0
   61.2640   32.6352   48.2506 H   0  0  0  0  0  0  0  0  0  0  0  0
   63.8630   32.9350   47.9080 H   0  0  0  0  0  0  0  0  0  0  0  0
   63.6025   29.7849   50.4132 H   0  0  0  0  0  0  0  0  0  0  0  0
   62.9338   31.0386   51.5292 H   0  0  0  0  0  0  0  0  0  0  0  0
   59.2515   29.6693   49.1481 H   0  0  0  0  0  0  0  0  0  0  0  0
   57.3405   29.0803   50.6308 H   0  0  0  0  0  0  0  0  0  0  0  0
  1  2  2  0
  2  3  1  0
  3  4  2  3
  4  5  1  0
  5  6  1  0
  6  7  1  0
  7  8  2  0
  7  9  1  0
  9 10  1  0
 10 11  1  0
  3 12  1  0
 12 13  2  0
 13 14  1  0
 14 15  1  0
 13 16  1  0
 16 17  1  0
 17 18  1  0
 18 19  2  0
 19 20  1  0
 20 21  2  0
 21 22  1  0
 22 23  1  0
 23 24  1  0
 24 25  1  0
 25 26  1  0
 26 27  2  0
 26 28  1  0
 21 29  1  0
 29 30  2  0
 16  2  1  0
 30 18  1  0
 10  5  2  0
 28 22  1  0
  1 31  1  0
  1 32  1  0
  4 33  1  0
 12 34  1  0
 14 35  1  0
 14 36  1  0
 15 37  1  0
 15 38  1  0
 15 39  1  0
 17 40  1  0
 17 41  1  0
 19 42  1  0
 20 43  1  0
 23 44  1  0
 23 45  1  0
 24 46  1  0
 24 47  1  0
 25 48  1  0
 28 49  1  0
 28 50  1  0
 29 51  1  0
 30 52  1  0
M  CHG  3   6  -1   9  -1  11  -1
M  END
>  <UniqueID>  (93) 
90

>  <SMILES>  (93) 
C=c1c(=Cc2[n-]c(=O)[n-]c2[O-])cc(CC)n1Cc1ccc(N2CCNC(=O)C2)cc1

>  <Energy>  (93) 
125.4442163486197

>  <Genealogy>  (93) 
C=c1c(=Cc2[n-]c(=O)[n-]c2[O-])cc(CC)n1Cc1ccc(N2CCNC(=O)C2)cc1 (protonated)
C=c1c(=Cc2[n-]c(=O)[n-]c2[O-])cc(CC)n1Cc1ccc(N2CCNC(=O)C2)cc1 (3D coordinates assigned)
C=c1c(=Cc2[n-]c(=O)[n-]c2[O-])cc(CC)n1Cc1ccc(N2CCNC(=O)C2)cc1 (nonaromatic ring conformer: 125.4442163486197 kcal/mol)

>  <smiles>  (93) 
C=c1c(=Cc2[nH]c(=O)[nH]c2O)cc(CC)n1Cc1ccc(N2CCNC(=O)C2)cc1

>  <score_type>  (93) 
oracle

>  <origin>  (93) 
adg

>  <m_score__min__energy>  (93) 
-16.84

>  <m_primary>  (93) 
energy

$$$$
93:0
     RDKit          3D

 62 67  0  0  0  0  0  0  0  0999 V2000
   57.7950   21.4690   43.3800 C   0  0  0  0  0  0  0  0  0  0  0  0
   58.2340   21.6380   44.6200 C   0  0  0  0  0  0  0  0  0  0  0  0
   59.0290   22.8330   45.0470 C   0  0  0  0  0  0  0  0  0  0  0  0
   58.0460   23.9280   45.2790 C   0  0  0  0  0  0  0  0  0  0  0  0
   56.6960   23.7840   45.0070 C   0  0  0  0  0  0  0  0  0  0  0  0
   55.8400   24.8590   45.2630 C   0  0  0  0  0  0  0  0  0  0  0  0
   56.3400   26.0380   45.7770 C   0  0  0  0  0  0  0  0  0  0  0  0
   55.4790   27.0790   46.0200 O   0  0  0  0  0  0  0  0  0  0  0  0
   57.6840   26.1970   46.0540 C   0  0  0  0  0  0  0  0  0  0  0  0
   58.1210   27.4410   46.6590 C   0  0  0  0  0  0  0  0  0  0  0  0
   58.8280   27.4470   47.8160 N   0  0  0  0  0  0  0  0  0  0  0  0
   59.1260   28.6640   48.2090 N   0  0  0  0  0  0  0  0  0  0  0  0
   59.8690   28.9610   49.4090 C   0  0  0  0  0  0  0  0  0  0  0  0
   60.5780   30.2290   49.4170 C   0  0  0  0  0  0  0  0  0  0  0  0
   61.4640   30.4780   48.3580 C   0  0  0  0  0  0  0  0  0  0  0  0
   62.1860   31.6340   48.2550 C   0  0  0  0  0  0  0  0  0  0  0  0
   63.0340   31.8000   47.1830 C   0  0  0  0  0  0  0  0  0  0  0  0
   63.7770   32.9590   47.0500 C   0  0  0  0  0  0  0  0  0  0  0  0
   63.6090   33.9070   48.0430 C   0  0  0  0  0  0  0  0  0  0  0  0
   62.7670   33.7520   49.1160 C   0  0  0  0  0  0  0  0  0  0  0  0
   62.6430   34.8060   50.1350 C   0  0  0  0  0  0  0  0  0  0  0  0
   62.0300   32.5860   49.2360 C   0  0  0  0  0  0  0  0  0  0  0  0
   57.3250   29.3250   45.2320 C   0  0  0  0  0  0  0  0  0  0  0  0
   61.0620   33.2540   51.1430 O   0  0  0  0  0  0  0  0  0  0  0  0
   60.4420   31.1900   50.3760 N   0  0  0  0  0  0  0  0  0  0  0  0
   59.5520   31.0030   51.4860 C   0  0  0  0  0  0  0  0  0  0  0  0
   58.6360   32.0790   51.9700 C   0  0  0  0  0  0  0  0  0  0  0  0
   58.0700   30.8730   51.3080 C   0  0  0  0  0  0  0  0  0  0  0  0
   58.6020   29.4950   47.2860 C   0  0  0  0  0  0  0  0  0  0  0  0
   58.6130   30.8350   47.2030 N   0  0  0  0  0  0  0  0  0  0  0  0
   57.9900   31.3860   46.1510 C   0  0  0  0  0  0  0  0  0  0  0  0
   57.3640   30.6970   45.1900 N   0  0  0  0  0  0  0  0  0  0  0  0
   61.1590   32.3490   50.2840 C   0  0  0  0  0  0  0  0  0  0  0  0
   56.6980   28.7600   44.3090 N   0  0  0  0  0  0  0  0  0  0  0  0
   57.9590   28.7460   46.2980 C   0  0  0  0  0  0  0  0  0  0  0  0
   58.4970   25.1180   45.7890 C   0  0  0  0  0  0  0  0  0  0  0  0
   57.2146   20.5716   43.1195 H   0  0  0  0  0  0  0  0  0  0  0  0
   58.0112   22.2262   42.6120 H   0  0  0  0  0  0  0  0  0  0  0  0
   58.0038   20.8655   45.3685 H   0  0  0  0  0  0  0  0  0  0  0  0
   59.5797   22.6129   45.9735 H   0  0  0  0  0  0  0  0  0  0  0  0
   59.7686   23.1149   44.2831 H   0  0  0  0  0  0  0  0  0  0  0  0
   56.3045   22.8413   44.5971 H   0  0  0  0  0  0  0  0  0  0  0  0
   54.7641   24.7648   45.0540 H   0  0  0  0  0  0  0  0  0  0  0  0
   55.1420   27.6990   45.3050 H   0  0  0  0  0  0  0  0  0  0  0  0
   59.1617   28.9647   50.2515 H   0  0  0  0  0  0  0  0  0  0  0  0
   60.6452   28.1847   49.4792 H   0  0  0  0  0  0  0  0  0  0  0  0
   61.5825   29.7111   47.5783 H   0  0  0  0  0  0  0  0  0  0  0  0
   63.1211   31.0055   46.4272 H   0  0  0  0  0  0  0  0  0  0  0  0
   64.4616   33.1176   46.2038 H   0  0  0  0  0  0  0  0  0  0  0  0
   64.1847   34.8413   47.9684 H   0  0  0  0  0  0  0  0  0  0  0  0
   62.6960   34.3553   51.1370 H   0  0  0  0  0  0  0  0  0  0  0  0
   63.4621   35.5303   50.0149 H   0  0  0  0  0  0  0  0  0  0  0  0
   61.6781   35.3204   50.0149 H   0  0  0  0  0  0  0  0  0  0  0  0
   60.3418   30.3887   51.9430 H   0  0  0  0  0  0  0  0  0  0  0  0
   58.4907   32.2319   53.0496 H   0  0  0  0  0  0  0  0  0  0  0  0
   58.5576   33.1636   51.8045 H   0  0  0  0  0  0  0  0  0  0  0  0
   57.5079   30.1344   51.8984 H   0  0  0  0  0  0  0  0  0  0  0  0
   57.4021   30.6972   50.4519 H   0  0  0  0  0  0  0  0  0  0  0  0
   59.0860   31.4270   47.9200 H   0  0  0  0  0  0  0  0  0  0  0  0
   57.9939   32.4832   46.0726 H   0  0  0  0  0  0  0  0  0  0  0  0
   56.4810   27.7870   44.2240 H   0  0  0  0  0  0  0  0  0  0  0  0
   59.5723   25.2165   45.9989 H   0  0  0  0  0  0  0  0  0  0  0  0
  1  2  2  0
  2  3  1  0
  3  4  1  0
  4  5  2  0
  5  6  1  0
  6  7  2  0
  7  8  1  0
  7  9  1  0
  9 10  1  0
 10 11  2  0
 11 12  1  0
 12 13  1  0
 13 14  1  0
 14 15  2  0
 15 16  1  0
 16 17  2  0
 17 18  1  0
 18 19  2  0
 19 20  1  0
 20 21  1  0
 20 22  2  0
 22 23  1  0
 23 24  2  0
 23 25  1  0
 25 26  1  0
 26 27  1  0
 27 28  1  0
 12 29  1  0
 29 30  1  0
 30 31  1  0
 31 32  2  0
 32 33  1  0
 33 34  2  3
 33 35  1  0
  9 36  2  0
 36  4  1  0
 35 10  1  0
 25 14  1  0
 28 26  1  0
 35 29  2  0
 22 16  1  0
  1 37  1  0
  1 38  1  0
  2 39  1  0
  3 40  1  0
  3 41  1  0
  5 42  1  0
  6 43  1  0
  8 44  1  0
 13 45  1  0
 13 46  1  0
 15 47  1  0
 17 48  1  0
 18 49  1  0
 19 50  1  0
 21 51  1  0
 21 52  1  0
 21 53  1  0
 26 54  1  0
 27 55  1  0
 27 56  1  0
 28 57  1  0
 28 58  1  0
 30 59  1  0
 31 60  1  0
 34 61  1  0
 36 62  1  0
M  END
>  <smiles>  (94) 
C=CCc1ccc(O)c(-c2nn(Cc3cc4cccc(C)c4c(=O)n3C3CC3)c3[nH]cnc(=N)c23)c1

>  <score_type>  (94) 
oracle

>  <origin>  (94) 
adg

>  <m_score__min__energy>  (94) 
-9.9800000000000004

>  <m_primary>  (94) 
energy

$$$$
