0:0
     RDKit          3D

 59 63  0  0  0  0  0  0  0  0999 V2000
   60.3360   25.7370   46.2730 C   0  0  0  0  0  0  0  0  0  0  0  0
   59.3620   26.4740   47.0070 O   0  0  0  0  0  0  0  0  0  0  0  0
   58.7390   27.6530   46.5670 C   0  0  0  0  0  0  0  0  0  0  0  0
   59.3820   28.9030   46.6900 C   0  0  0  0  0  0  0  0  0  0  0  0
   58.7800   30.0870   46.2200 C   0  0  0  0  0  0  0  0  0  0  0  0
   59.4330   31.4690   46.3210 C   0  0  2  0  0  0  0  0  0  0  0  0
   59.3700   32.1280   47.6920 C   0  0  0  0  0  0  0  0  0  0  0  0
   58.5850   31.6400   48.7680 C   0  0  0  0  0  0  0  0  0  0  0  0
   58.5760   32.3660   49.9530 C   0  0  0  0  0  0  0  0  0  0  0  0
   59.2610   33.5280   50.0920 C   0  0  0  0  0  0  0  0  0  0  0  0
   60.0100   34.0730   49.0560 C   0  0  0  0  0  0  0  0  0  0  0  0
   60.0520   33.3710   47.8330 C   0  0  0  0  0  0  0  0  0  0  0  0
   60.7950   33.9360   46.6380 C   0  0  1  0  0  0  0  0  0  0  0  0
   62.0430   33.2000   46.4470 N   0  0  0  0  0  0  0  0  0  0  0  0
   62.6690   32.4070   47.4610 C   0  0  0  0  0  0  0  0  0  0  0  0
   62.3790   31.1870   47.5840 O   0  0  0  0  0  0  0  0  0  0  0  0
   63.7020   33.0230   48.3630 C   0  0  0  0  0  0  0  0  0  0  0  0
   63.1040   34.2230   49.1060 C   0  0  0  0  0  0  0  0  0  0  0  0
   64.2440   31.9820   49.3480 C   0  0  0  0  0  0  0  0  0  0  0  0
   59.9230   33.8290   45.3440 C   0  0  2  0  0  0  0  0  0  0  0  0
   58.9350   35.0200   45.2360 C   0  0  0  0  0  0  0  0  0  0  0  0
   57.6480   34.4830   45.4630 O   0  0  0  0  0  0  0  0  0  0  0  0
   57.6650   33.1100   45.4740 C   0  0  0  0  0  0  0  0  0  0  0  0
   56.6190   32.4340   45.6580 O   0  0  0  0  0  0  0  0  0  0  0  0
   59.0310   32.5380   45.2630 C   0  0  2  0  0  0  0  0  0  0  0  0
   59.0620   34.0300   51.3640 O   0  0  0  0  0  0  0  0  0  0  0  0
   58.1960   33.1280   52.0660 C   0  0  0  0  0  0  0  0  0  0  0  0
   57.9110   32.0810   51.1290 O   0  0  0  0  0  0  0  0  0  0  0  0
   57.4610   30.0120   45.7430 C   0  0  0  0  0  0  0  0  0  0  0  0
   56.8090   28.7860   45.6220 C   0  0  0  0  0  0  0  0  0  0  0  0
   55.5180   28.7520   45.1050 O   0  0  0  0  0  0  0  0  0  0  0  0
   57.4420   27.5960   46.0000 C   0  0  0  0  0  0  0  0  0  0  0  0
   56.7310   26.4010   45.7860 O   0  0  0  0  0  0  0  0  0  0  0  0
   57.0930   25.3500   44.8950 C   0  0  0  0  0  0  0  0  0  0  0  0
   61.0126   25.2250   46.9731 H   0  0  0  0  0  0  0  0  0  0  0  0
   59.8317   24.9923   45.6397 H   0  0  0  0  0  0  0  0  0  0  0  0
   60.9156   26.4247   45.6397 H   0  0  0  0  0  0  0  0  0  0  0  0
   60.3739   28.9541   47.1627 H   0  0  0  0  0  0  0  0  0  0  0  0
   60.4654   31.1599   46.1005 H   0  0  0  0  0  0  0  0  0  0  0  0
   58.0003   30.7137   48.6674 H   0  0  0  0  0  0  0  0  0  0  0  0
   60.5526   35.0211   49.1854 H   0  0  0  0  0  0  0  0  0  0  0  0
   61.0124   34.9973   46.8289 H   0  0  0  0  0  0  0  0  0  0  0  0
   64.5429   33.3790   47.7498 H   0  0  0  0  0  0  0  0  0  0  0  0
   63.1852   34.0601   50.1908 H   0  0  0  0  0  0  0  0  0  0  0  0
   63.6527   35.1356   48.8302 H   0  0  0  0  0  0  0  0  0  0  0  0
   62.0450   34.3344   48.8302 H   0  0  0  0  0  0  0  0  0  0  0  0
   64.0658   32.3242   50.3781 H   0  0  0  0  0  0  0  0  0  0  0  0
   63.7310   31.0224   49.1865 H   0  0  0  0  0  0  0  0  0  0  0  0
   65.3243   31.8520   49.1865 H   0  0  0  0  0  0  0  0  0  0  0  0
   60.6661   33.8123   44.5331 H   0  0  0  0  0  0  0  0  0  0  0  0
   59.1703   35.7812   45.9944 H   0  0  0  0  0  0  0  0  0  0  0  0
   58.9993   35.5076   44.2521 H   0  0  0  0  0  0  0  0  0  0  0  0
   59.1253   31.9789   44.3204 H   0  0  0  0  0  0  0  0  0  0  0  0
   58.6994   32.7233   52.9564 H   0  0  0  0  0  0  0  0  0  0  0  0
   57.2810   33.6256   52.4199 H   0  0  0  0  0  0  0  0  0  0  0  0
   56.9342   30.9354   45.4605 H   0  0  0  0  0  0  0  0  0  0  0  0
   57.3974   24.4662   45.4749 H   0  0  0  0  0  0  0  0  0  0  0  0
   56.2314   25.0936   44.2611 H   0  0  0  0  0  0  0  0  0  0  0  0
   57.9297   25.6786   44.2611 H   0  0  0  0  0  0  0  0  0  0  0  0
  1  2  1  0
  2  3  1  0
  3  4  2  0
  4  5  1  0
  5  6  1  0
  6  7  1  0
  7  8  2  0
  8  9  1  0
  9 10  2  0
 10 11  1  0
 11 12  2  0
 12 13  1  0
 13 14  1  0
 14 15  1  0
 15 16  2  0
 15 17  1  0
 17 18  1  0
 17 19  1  0
 13 20  1  0
 20 21  1  0
 21 22  1  0
 22 23  1  0
 23 24  2  0
 23 25  1  0
 10 26  1  0
 26 27  1  0
 27 28  1  0
  5 29  2  0
 29 30  1  0
 30 31  1  0
 30 32  2  0
 32 33  1  0
 33 34  1  0
 32  3  1  0
 25  6  1  0
 12  7  1  0
 25 20  1  0
 28  9  1  0
  1 35  1  0
  1 36  1  0
  1 37  1  0
  4 38  1  0
  6 39  1  6
  8 40  1  0
 11 41  1  0
 13 42  1  1
 17 43  1  0
 18 44  1  0
 18 45  1  0
 18 46  1  0
 19 47  1  0
 19 48  1  0
 19 49  1  0
 20 50  1  6
 21 51  1  0
 21 52  1  0
 25 53  1  6
 27 54  1  0
 27 55  1  0
 29 56  1  0
 34 57  1  0
 34 58  1  0
 34 59  1  0
M  CHG  2  14  -1  31  -1
M  END
>  <UniqueID>  (1) 
1

>  <SMILES>  (1) 
COc1cc([C@@H]2c3cc4c(cc3[C@@H]([N-]C(=O)C(C)C)C3COC(=O)C32)OCO4)cc([O-])c1OC

>  <Energy>  (1) 
112.67801250019949

>  <Genealogy>  (1) 
COc1cc(C2c3cc4c(cc3C([N-]C(=O)C(C)C)C3COC(=O)C23)OCO4)cc([O-])c1OC (protonated)
COc1cc([C@@H]2c3cc4c(cc3[C@@H]([N-]C(=O)C(C)C)C3COC(=O)C32)OCO4)cc([O-])c1OC (chirality)
COc1cc([C@@H]2c3cc4c(cc3[C@@H]([N-]C(=O)C(C)C)C3COC(=O)C32)OCO4)cc([O-])c1OC (3D coordinates assigned)
COc1cc([C@@H]2c3cc4c(cc3[C@@H]([N-]C(=O)C(C)C)C3COC(=O)C32)OCO4)cc([O-])c1OC (nonaromatic ring conformer: 112.67801250019949 kcal/mol)

>  <smiles>  (1) 
COc1cc(C2c3cc4c(cc3C(NC(=O)C(C)C)C3COC(=O)C23)OCO4)cc(O)c1OC

>  <score_type>  (1) 
oracle

>  <origin>  (1) 
adg

>  <m_score__min__energy>  (1) 
-12.58

>  <m_primary>  (1) 
energy

$$$$
1:0
     RDKit          3D

 35 37  0  0  0  0  0  0  0  0999 V2000
   57.3180   31.5490   42.6500 C   0  0  0  0  0  0  0  0  0  0  0  0
   57.9610   31.3980   43.9560 N   0  0  0  0  0  0  0  0  0  0  0  0
   58.7120   30.3180   44.1740 N   0  0  0  0  0  0  0  0  0  0  0  0
   59.3510   30.0850   45.3500 C   0  0  0  0  0  0  0  0  0  0  0  0
   60.1410   28.8040   45.4760 C   0  0  0  0  0  0  0  0  0  0  0  0
   59.2450   27.6390   45.8160 C   0  0  0  0  0  0  0  0  0  0  0  0
   59.7930   26.3920   46.1530 C   0  0  0  0  0  0  0  0  0  0  0  0
   58.9580   25.3140   46.4620 C   0  0  0  0  0  0  0  0  0  0  0  0
   57.5690   25.4680   46.4280 C   0  0  0  0  0  0  0  0  0  0  0  0
   56.7760   24.4100   46.7310 F   0  0  0  0  0  0  0  0  0  0  0  0
   57.0070   26.7050   46.0780 C   0  0  0  0  0  0  0  0  0  0  0  0
   55.5860   26.8720   46.0340 N   0  0  0  0  0  0  0  0  0  0  0  0
   57.8470   27.7850   45.7690 C   0  0  0  0  0  0  0  0  0  0  0  0
   59.2100   31.0190   46.4010 C   0  0  0  0  0  0  0  0  0  0  0  0
   59.8340   30.8490   47.6550 C   0  0  0  0  0  0  0  0  0  0  0  0
   59.6640   31.7970   48.6660 C   0  0  0  0  0  0  0  0  0  0  0  0
   58.8760   32.9250   48.4460 C   0  0  0  0  0  0  0  0  0  0  0  0
   58.2520   33.1130   47.2120 C   0  0  0  0  0  0  0  0  0  0  0  0
   58.4110   32.1670   46.1810 C   0  0  0  0  0  0  0  0  0  0  0  0
   57.7880   32.3380   44.9330 C   0  0  0  0  0  0  0  0  0  0  0  0
   57.0720   33.3550   44.7130 O   0  0  0  0  0  0  0  0  0  0  0  0
   56.2559   31.7984   42.7908 H   0  0  0  0  0  0  0  0  0  0  0  0
   57.8127   32.3554   42.0888 H   0  0  0  0  0  0  0  0  0  0  0  0
   57.4021   30.6067   42.0888 H   0  0  0  0  0  0  0  0  0  0  0  0
   60.6474   28.5999   44.5211 H   0  0  0  0  0  0  0  0  0  0  0  0
   60.8742   28.9264   46.2868 H   0  0  0  0  0  0  0  0  0  0  0  0
   60.8851   26.2619   46.1742 H   0  0  0  0  0  0  0  0  0  0  0  0
   59.3954   24.3417   46.7327 H   0  0  0  0  0  0  0  0  0  0  0  0
   55.1430   27.4910   45.3200 H   0  0  0  0  0  0  0  0  0  0  0  0
   54.9640   26.3810   46.7150 H   0  0  0  0  0  0  0  0  0  0  0  0
   57.4088   28.7539   45.4877 H   0  0  0  0  0  0  0  0  0  0  0  0
   60.4593   29.9627   47.8376 H   0  0  0  0  0  0  0  0  0  0  0  0
   60.1542   31.6528   49.6401 H   0  0  0  0  0  0  0  0  0  0  0  0
   58.7456   33.6684   49.2462 H   0  0  0  0  0  0  0  0  0  0  0  0
   57.6320   34.0058   47.0436 H   0  0  0  0  0  0  0  0  0  0  0  0
  1  2  1  0
  2  3  1  0
  3  4  2  0
  4  5  1  0
  5  6  1  0
  6  7  2  0
  7  8  1  0
  8  9  2  0
  9 10  1  0
  9 11  1  0
 11 12  1  0
 11 13  2  0
  4 14  1  0
 14 15  2  0
 15 16  1  0
 16 17  2  0
 17 18  1  0
 18 19  2  0
 19 20  1  0
 20 21  2  0
 20  2  1  0
 13  6  1  0
 19 14  1  0
  1 22  1  0
  1 23  1  0
  1 24  1  0
  5 25  1  0
  5 26  1  0
  7 27  1  0
  8 28  1  0
 12 29  1  0
 12 30  1  0
 13 31  1  0
 15 32  1  0
 16 33  1  0
 17 34  1  0
 18 35  1  0
M  END
>  <UniqueID>  (2) 
2

>  <SMILES>  (2) 
Cn1nc(Cc2ccc(F)c(N)c2)c2ccccc2c1=O

>  <Energy>  (2) 
43.388950808920434

>  <Genealogy>  (2) 
Cn1nc(Cc2ccc(F)c(N)c2)c2ccccc2c1=O (3D coordinates assigned)
Cn1nc(Cc2ccc(F)c(N)c2)c2ccccc2c1=O (optimized conformer: 43.388950808920434 kcal/mol)

>  <smiles>  (2) 
Cn1nc(Cc2ccc(F)c(N)c2)c2ccccc2c1=O

>  <score_type>  (2) 
oracle

>  <origin>  (2) 
adg

>  <m_score__min__energy>  (2) 
-7.3899999999999997

>  <m_primary>  (2) 
energy

$$$$
2:0
     RDKit          3D

 57 59  0  0  0  0  0  0  0  0999 V2000
   59.6210   35.2920   46.2010 C   0  0  0  0  0  0  0  0  0  0  0  0
   59.1450   34.1000   45.3460 C   0  0  0  0  0  0  0  0  0  0  0  0
   58.5110   32.9180   46.1550 C   0  0  1  0  0  0  0  0  0  0  0  0
   57.2570   33.4650   46.8740 C   0  0  0  0  0  0  0  0  0  0  0  0
   58.0280   31.8300   45.1930 C   0  0  0  0  0  0  0  0  0  0  0  0
   58.5060   31.7690   44.0210 O   0  0  0  0  0  0  0  0  0  0  0  0
   57.0700   30.8510   45.6050 N   0  0  0  0  0  0  0  0  0  0  0  0
   57.2560   29.4260   45.3600 C   0  0  0  0  0  0  0  0  0  0  0  0
   57.0470   29.1400   43.8580 C   0  0  0  0  0  0  0  0  0  0  0  0
   57.7710   27.8740   43.3710 C   0  0  0  0  0  0  0  0  0  0  0  0
   57.9610   26.8530   44.4950 C   0  0  0  0  0  0  0  0  0  0  0  0
   58.7870   27.4350   45.6620 C   0  0  0  0  0  0  0  0  0  0  0  0
   58.6460   28.9570   45.8210 C   0  0  0  0  0  0  0  0  0  0  0  0
   59.4660   32.3600   47.1590 N   0  0  0  0  0  0  0  0  0  0  0  0
   60.7550   31.8190   46.8010 C   0  0  0  0  0  0  0  0  0  0  0  0
   60.8100   30.7800   46.0920 O   0  0  0  0  0  0  0  0  0  0  0  0
   62.0060   32.4350   47.2740 C   0  0  0  0  0  0  0  0  0  0  0  0
   62.6150   33.5430   46.7250 C   0  0  0  0  0  0  0  0  0  0  0  0
   63.7710   33.7410   47.4440 C   0  0  0  0  0  0  0  0  0  0  0  0
   63.7850   32.7470   48.3920 C   0  0  0  0  0  0  0  0  0  0  0  0
   64.8470   32.5500   49.4220 C   0  0  0  0  0  0  0  0  0  0  0  0
   62.7270   31.9810   48.2600 O   0  0  0  0  0  0  0  0  0  0  0  0
   59.1510   32.3310   48.5630 C   0  0  0  0  0  0  0  0  0  0  0  0
   58.6850   31.1460   49.1570 C   0  0  0  0  0  0  0  0  0  0  0  0
   58.4870   30.0330   48.4060 F   0  0  0  0  0  0  0  0  0  0  0  0
   58.4180   31.1090   50.5290 C   0  0  0  0  0  0  0  0  0  0  0  0
   58.6260   32.2480   51.3180 C   0  0  0  0  0  0  0  0  0  0  0  0
   59.1230   33.4150   50.7400 C   0  0  0  0  0  0  0  0  0  0  0  0
   59.3900   33.4600   49.3670 C   0  0  0  0  0  0  0  0  0  0  0  0
   59.9080   34.5940   48.8280 F   0  0  0  0  0  0  0  0  0  0  0  0
   59.5209   35.0414   47.2674 H   0  0  0  0  0  0  0  0  0  0  0  0
   60.6749   35.5093   45.9727 H   0  0  0  0  0  0  0  0  0  0  0  0
   59.0067   36.1755   45.9727 H   0  0  0  0  0  0  0  0  0  0  0  0
   58.3919   34.4694   44.6344 H   0  0  0  0  0  0  0  0  0  0  0  0
   60.0430   33.6927   44.8584 H   0  0  0  0  0  0  0  0  0  0  0  0
   57.4017   33.4019   47.9626 H   0  0  0  0  0  0  0  0  0  0  0  0
   57.0975   34.5145   46.5856 H   0  0  0  0  0  0  0  0  0  0  0  0
   56.3793   32.8680   46.5856 H   0  0  0  0  0  0  0  0  0  0  0  0
   56.5143   28.8623   45.9449 H   0  0  0  0  0  0  0  0  0  0  0  0
   55.9695   29.0185   43.6728 H   0  0  0  0  0  0  0  0  0  0  0  0
   57.4709   29.9902   43.3035 H   0  0  0  0  0  0  0  0  0  0  0  0
   57.1773   27.4121   42.5684 H   0  0  0  0  0  0  0  0  0  0  0  0
   58.7668   28.1703   43.0097 H   0  0  0  0  0  0  0  0  0  0  0  0
   56.9731   26.5514   44.8732 H   0  0  0  0  0  0  0  0  0  0  0  0
   58.5069   25.9902   44.0856 H   0  0  0  0  0  0  0  0  0  0  0  0
   58.4548   26.9563   46.5950 H   0  0  0  0  0  0  0  0  0  0  0  0
   59.8449   27.2321   45.4392 H   0  0  0  0  0  0  0  0  0  0  0  0
   58.7843   29.2237   46.8792 H   0  0  0  0  0  0  0  0  0  0  0  0
   59.4089   29.4493   45.2000 H   0  0  0  0  0  0  0  0  0  0  0  0
   62.2500   34.1474   45.8815 H   0  0  0  0  0  0  0  0  0  0  0  0
   64.5242   34.5282   47.2920 H   0  0  0  0  0  0  0  0  0  0  0  0
   64.4042   32.6321   50.4256 H   0  0  0  0  0  0  0  0  0  0  0  0
   65.2959   31.5533   49.2998 H   0  0  0  0  0  0  0  0  0  0  0  0
   65.6236   33.3194   49.2998 H   0  0  0  0  0  0  0  0  0  0  0  0
   58.0436   30.1832   50.9902 H   0  0  0  0  0  0  0  0  0  0  0  0
   58.3971   32.2213   52.3936 H   0  0  0  0  0  0  0  0  0  0  0  0
   59.3057   34.3021   51.3642 H   0  0  0  0  0  0  0  0  0  0  0  0
  1  2  1  0
  2  3  1  0
  3  4  1  0
  3  5  1  0
  5  6  2  0
  5  7  1  0
  7  8  1  0
  8  9  1  0
  9 10  1  0
 10 11  1  0
 11 12  1  0
 12 13  1  0
  3 14  1  1
 14 15  1  0
 15 16  2  0
 15 17  1  0
 17 18  2  0
 18 19  1  0
 19 20  2  0
 20 21  1  0
 20 22  1  0
 14 23  1  0
 23 24  2  0
 24 25  1  0
 24 26  1  0
 26 27  2  0
 27 28  1  0
 28 29  2  0
 29 30  1  0
 13  8  1  0
 22 17  1  0
 29 23  1  0
  1 31  1  0
  1 32  1  0
  1 33  1  0
  2 34  1  0
  2 35  1  0
  4 36  1  0
  4 37  1  0
  4 38  1  0
  8 39  1  0
  9 40  1  0
  9 41  1  0
 10 42  1  0
 10 43  1  0
 11 44  1  0
 11 45  1  0
 12 46  1  0
 12 47  1  0
 13 48  1  0
 13 49  1  0
 18 50  1  0
 19 51  1  0
 21 52  1  0
 21 53  1  0
 21 54  1  0
 26 55  1  0
 27 56  1  0
 28 57  1  0
M  CHG  1   7  -1
M  END
>  <UniqueID>  (3) 
3

>  <SMILES>  (3) 
CC[C@@](C)(C(=O)[N-]C1CCCCC1)N(C(=O)c1ccc(C)o1)c1c(F)cccc1F

>  <Energy>  (3) 
107.5225513548324

>  <Genealogy>  (3) 
CCC(C)(C(=O)[N-]C1CCCCC1)N(C(=O)c1ccc(C)o1)c1c(F)cccc1F (protonated)
CC[C@@](C)(C(=O)[N-]C1CCCCC1)N(C(=O)c1ccc(C)o1)c1c(F)cccc1F (chirality)
CC[C@@](C)(C(=O)[N-]C1CCCCC1)N(C(=O)c1ccc(C)o1)c1c(F)cccc1F (3D coordinates assigned)
CC[C@@](C)(C(=O)[N-]C1CCCCC1)N(C(=O)c1ccc(C)o1)c1c(F)cccc1F (nonaromatic ring conformer: 107.5225513548324 kcal/mol)

>  <smiles>  (3) 
CCC(C)(C(=O)NC1CCCCC1)N(C(=O)c1ccc(C)o1)c1c(F)cccc1F

>  <score_type>  (3) 
oracle

>  <origin>  (3) 
adg

>  <m_score__min__energy>  (3) 
-9.3800000000000008

>  <m_primary>  (3) 
energy

$$$$
3:0
     RDKit          3D

 32 35  0  0  0  0  0  0  0  0999 V2000
   57.2240   31.6400   40.9370 F   0  0  0  0  0  0  0  0  0  0  0  0
   57.3870   31.6820   42.2820 C   0  0  0  0  0  0  0  0  0  0  0  0
   56.8170   30.6930   43.0890 C   0  0  0  0  0  0  0  0  0  0  0  0
   56.9860   30.7350   44.4770 C   0  0  0  0  0  0  0  0  0  0  0  0
   57.7220   31.7790   45.0690 C   0  0  0  0  0  0  0  0  0  0  0  0
   57.9350   31.8540   46.4520 O   0  0  0  0  0  0  0  0  0  0  0  0
   58.8220   32.7270   47.0930 C   0  0  0  0  0  0  0  0  0  0  0  0
   58.4330   33.9920   47.4380 N   0  0  0  0  0  0  0  0  0  0  0  0
   59.2760   34.8750   47.9850 N   0  0  0  0  0  0  0  0  0  0  0  0
   60.5830   34.5650   48.2050 C   0  0  0  0  0  0  0  0  0  0  0  0
   61.0170   33.2920   47.8640 C   0  0  0  0  0  0  0  0  0  0  0  0
   62.5630   32.6590   47.9810 S   0  0  0  0  0  0  0  0  0  0  0  0
   62.1570   31.1470   47.3500 C   0  0  0  0  0  0  0  0  0  0  0  0
   60.7900   31.1220   47.0560 C   0  0  0  0  0  0  0  0  0  0  0  0
   60.1290   29.8970   46.5660 C   0  0  0  0  0  0  0  0  0  0  0  0
   60.3580   29.3490   45.2930 C   0  0  0  0  0  0  0  0  0  0  0  0
   59.5920   28.2220   45.0290 C   0  0  0  0  0  0  0  0  0  0  0  0
   58.6180   27.9290   46.3660 S   0  0  0  0  0  0  0  0  0  0  0  0
   59.1560   29.2230   47.2940 C   0  0  0  0  0  0  0  0  0  0  0  0
   60.1540   32.3530   47.3310 C   0  0  0  0  0  0  0  0  0  0  0  0
   58.3080   32.7540   44.2500 C   0  0  0  0  0  0  0  0  0  0  0  0
   58.1360   32.7100   42.8640 C   0  0  0  0  0  0  0  0  0  0  0  0
   56.2343   29.8799   42.6315 H   0  0  0  0  0  0  0  0  0  0  0  0
   56.5427   29.9502   45.1076 H   0  0  0  0  0  0  0  0  0  0  0  0
   58.9270   35.8270   48.2330 H   0  0  0  0  0  0  0  0  0  0  0  0
   61.2744   35.3016   48.6401 H   0  0  0  0  0  0  0  0  0  0  0  0
   62.8572   30.3130   47.1946 H   0  0  0  0  0  0  0  0  0  0  0  0
   61.0754   29.7723   44.5745 H   0  0  0  0  0  0  0  0  0  0  0  0
   59.6182   27.6249   44.1055 H   0  0  0  0  0  0  0  0  0  0  0  0
   58.8005   29.4894   48.3003 H   0  0  0  0  0  0  0  0  0  0  0  0
   58.9070   33.5588   44.7012 H   0  0  0  0  0  0  0  0  0  0  0  0
   58.5904   33.4852   42.2295 H   0  0  0  0  0  0  0  0  0  0  0  0
  1  2  1  0
  2  3  2  0
  3  4  1  0
  4  5  2  0
  5  6  1  0
  6  7  1  0
  7  8  2  0
  8  9  1  0
  9 10  2  0
 10 11  1  0
 11 12  1  0
 12 13  1  0
 13 14  2  0
 14 15  1  0
 15 16  1  0
 16 17  2  0
 17 18  1  0
 18 19  1  0
 14 20  1  0
  5 21  1  0
 21 22  2  0
 22  2  1  0
 20  7  1  0
 20 11  2  0
 19 15  2  0
  3 23  1  0
  4 24  1  0
  9 25  1  0
 10 26  1  0
 13 27  1  0
 16 28  1  0
 17 29  1  0
 19 30  1  0
 21 31  1  0
 22 32  1  0
M  CHG  1   9   1
M  END
>  <UniqueID>  (4) 
4

>  <SMILES>  (4) 
Fc1ccc(Oc2n[nH+]cc3scc(-c4ccsc4)c23)cc1

>  <Energy>  (4) 
105.16820776740016

>  <Genealogy>  (4) 
Fc1ccc(Oc2n[nH+]cc3scc(-c4ccsc4)c23)cc1 (protonated)
Fc1ccc(Oc2n[nH+]cc3scc(-c4ccsc4)c23)cc1 (3D coordinates assigned)
Fc1ccc(Oc2n[nH+]cc3scc(-c4ccsc4)c23)cc1 (optimized conformer: 105.16820776740016 kcal/mol)

>  <smiles>  (4) 
Fc1ccc(Oc2nncc3scc(-c4ccsc4)c23)cc1

>  <score_type>  (4) 
oracle

>  <origin>  (4) 
adg

>  <m_score__min__energy>  (4) 
-5.9400000000000004

>  <m_primary>  (4) 
energy

$$$$
4:0
     RDKit          3D

 29 30  0  0  0  0  0  0  0  0999 V2000
   55.1280   29.4250   44.9250 N   0  0  0  0  0  0  0  0  0  0  0  0
   56.3020   28.6170   44.9280 C   0  0  0  0  0  0  0  0  0  0  0  0
   57.3070   28.9810   44.2620 O   0  0  0  0  0  0  0  0  0  0  0  0
   56.3360   27.3380   45.6560 C   0  0  0  0  0  0  0  0  0  0  0  0
   55.2260   26.6350   45.9530 N   0  0  0  0  0  0  0  0  0  0  0  0
   55.5680   25.5930   46.6980 N   0  0  0  0  0  0  0  0  0  0  0  0
   56.9010   25.6160   46.8940 C   0  0  0  0  0  0  0  0  0  0  0  0
   57.4220   26.7030   46.2350 C   0  0  0  0  0  0  0  0  0  0  0  0
   58.8170   27.0160   46.1350 N   0  0  0  0  0  0  0  0  0  0  0  0
   59.6110   27.6450   47.1500 C   0  0  0  0  0  0  0  0  0  0  0  0
   60.2980   26.9180   47.9140 O   0  0  0  0  0  0  0  0  0  0  0  0
   59.6660   29.1180   47.3090 C   0  0  0  0  0  0  0  0  0  0  0  0
   60.6590   29.7000   48.1160 C   0  0  0  0  0  0  0  0  0  0  0  0
   60.7180   31.0860   48.2750 C   0  0  0  0  0  0  0  0  0  0  0  0
   59.7920   31.9070   47.6280 C   0  0  0  0  0  0  0  0  0  0  0  0
   58.7980   31.3450   46.8150 C   0  0  0  0  0  0  0  0  0  0  0  0
   57.8280   32.2310   46.0830 C   0  0  0  0  0  0  0  0  0  0  0  0
   57.0930   31.4520   45.0930 N   0  0  0  0  0  0  0  0  0  0  0  0
   58.7520   29.9530   46.6420 C   0  0  0  0  0  0  0  0  0  0  0  0
   54.4160   29.3410   45.6840 H   0  0  0  0  0  0  0  0  0  0  0  0
   57.4759   24.8864   47.4832 H   0  0  0  0  0  0  0  0  0  0  0  0
   61.3941   29.0596   48.6254 H   0  0  0  0  0  0  0  0  0  0  0  0
   61.4961   31.5324   48.9117 H   0  0  0  0  0  0  0  0  0  0  0  0
   59.8428   32.9983   47.7568 H   0  0  0  0  0  0  0  0  0  0  0  0
   57.1196   32.6683   46.8020 H   0  0  0  0  0  0  0  0  0  0  0  0
   58.3833   33.0322   45.5734 H   0  0  0  0  0  0  0  0  0  0  0  0
   57.7810   31.0570   44.4110 H   0  0  0  0  0  0  0  0  0  0  0  0
   56.6610   30.6370   45.5840 H   0  0  0  0  0  0  0  0  0  0  0  0
   57.9940   29.5111   45.9786 H   0  0  0  0  0  0  0  0  0  0  0  0
  1  2  1  0
  2  3  2  0
  2  4  1  0
  4  5  1  0
  5  6  1  0
  6  7  2  0
  7  8  1  0
  8  9  1  0
  9 10  1  0
 10 11  2  0
 10 12  1  0
 12 13  2  0
 13 14  1  0
 14 15  2  0
 15 16  1  0
 16 17  1  0
 17 18  1  0
 16 19  2  0
  8  4  2  0
 19 12  1  0
  1 20  1  0
  7 21  1  0
 13 22  1  0
 14 23  1  0
 15 24  1  0
 17 25  1  0
 17 26  1  0
 18 27  1  0
 18 28  1  0
 19 29  1  0
M  CHG  3   1  -1   5  -1   9  -1
M  END
>  <UniqueID>  (5) 
5

>  <SMILES>  (5) 
[NH-]C(=O)c1[n-]ncc1[N-]C(=O)c1cccc(CN)c1

>  <Energy>  (5) 
66.6064829430224

>  <Genealogy>  (5) 
[NH-]C(=O)c1[n-]ncc1[N-]C(=O)c1cccc(CN)c1 (protonated)
[NH-]C(=O)c1[n-]ncc1[N-]C(=O)c1cccc(CN)c1 (3D coordinates assigned)
[NH-]C(=O)c1[n-]ncc1[N-]C(=O)c1cccc(CN)c1 (optimized conformer: 66.6064829430224 kcal/mol)

>  <smiles>  (5) 
NCc1cccc(C(=O)Nc2cn[nH]c2C(N)=O)c1

>  <score_type>  (5) 
oracle

>  <origin>  (5) 
adg

>  <m_score__min__energy>  (5) 
-12.56

>  <m_primary>  (5) 
energy

$$$$
5:0
     RDKit          3D

 49 52  0  0  0  0  0  0  0  0999 V2000
   54.9150   26.3150   45.6210 O   0  0  0  0  0  0  0  0  0  0  0  0
   55.0060   24.9280   45.5380 C   0  0  0  0  0  0  0  0  0  0  0  0
   54.0530   24.1640   46.2090 C   0  0  0  0  0  0  0  0  0  0  0  0
   54.1080   22.7770   46.1750 C   0  0  0  0  0  0  0  0  0  0  0  0
   55.1520   22.1280   45.5070 C   0  0  0  0  0  0  0  0  0  0  0  0
   55.2190   20.7260   45.5300 C   0  0  0  0  0  0  0  0  0  0  0  0
   56.2790   20.0630   44.9180 C   0  0  0  0  0  0  0  0  0  0  0  0
   57.2900   20.7900   44.2950 C   0  0  0  0  0  0  0  0  0  0  0  0
   57.2360   22.1850   44.2580 C   0  0  0  0  0  0  0  0  0  0  0  0
   56.1500   22.8860   44.8310 C   0  0  0  0  0  0  0  0  0  0  0  0
   56.0360   24.3110   44.7860 C   0  0  0  0  0  0  0  0  0  0  0  0
   56.9850   25.2040   43.9760 C   0  0  0  0  0  0  0  0  0  0  0  0
   57.4200   26.4540   44.6620 N   0  0  0  0  0  0  0  0  0  0  0  0
   58.1920   27.3670   43.7800 C   0  0  0  0  0  0  0  0  0  0  0  0
   59.0450   28.3950   44.5590 C   0  0  0  0  0  0  0  0  0  0  0  0
   58.4870   28.7190   45.8860 N   0  0  0  0  0  0  0  0  0  0  0  0
   57.2920   29.5890   45.8140 C   0  0  0  0  0  0  0  0  0  0  0  0
   57.3230   30.4250   44.5610 C   0  0  0  0  0  0  0  0  0  0  0  0
   56.6020   30.0320   43.4210 C   0  0  0  0  0  0  0  0  0  0  0  0
   56.6530   30.8050   42.2560 C   0  0  0  0  0  0  0  0  0  0  0  0
   57.4230   31.9710   42.2220 C   0  0  0  0  0  0  0  0  0  0  0  0
   58.1440   32.3660   43.3500 C   0  0  0  0  0  0  0  0  0  0  0  0
   58.0980   31.5950   44.5170 C   0  0  0  0  0  0  0  0  0  0  0  0
   58.3000   27.5150   46.7340 C   0  0  0  0  0  0  0  0  0  0  0  0
   58.1280   26.2060   45.9310 C   0  0  0  0  0  0  0  0  0  0  0  0
   53.2502   24.6642   46.7705 H   0  0  0  0  0  0  0  0  0  0  0  0
   53.3271   22.1857   46.6756 H   0  0  0  0  0  0  0  0  0  0  0  0
   54.4301   20.1485   46.0341 H   0  0  0  0  0  0  0  0  0  0  0  0
   56.3180   18.9637   44.9266 H   0  0  0  0  0  0  0  0  0  0  0  0
   58.1357   20.2627   43.8295 H   0  0  0  0  0  0  0  0  0  0  0  0
   58.0500   22.7465   43.7762 H   0  0  0  0  0  0  0  0  0  0  0  0
   57.8838   24.6166   43.7367 H   0  0  0  0  0  0  0  0  0  0  0  0
   56.4200   25.5237   43.0880 H   0  0  0  0  0  0  0  0  0  0  0  0
   56.5280   26.9430   44.9110 H   0  0  0  0  0  0  0  0  0  0  0  0
   58.8623   26.7616   43.1522 H   0  0  0  0  0  0  0  0  0  0  0  0
   57.4638   27.9347   43.1821 H   0  0  0  0  0  0  0  0  0  0  0  0
   60.0551   27.9813   44.6949 H   0  0  0  0  0  0  0  0  0  0  0  0
   59.0580   29.3248   43.9713 H   0  0  0  0  0  0  0  0  0  0  0  0
   56.3878   28.9625   45.8090 H   0  0  0  0  0  0  0  0  0  0  0  0
   57.2852   30.2573   46.6876 H   0  0  0  0  0  0  0  0  0  0  0  0
   55.9959   29.1143   43.4445 H   0  0  0  0  0  0  0  0  0  0  0  0
   56.0864   30.4947   41.3657 H   0  0  0  0  0  0  0  0  0  0  0  0
   57.4608   32.5779   41.3054 H   0  0  0  0  0  0  0  0  0  0  0  0
   58.7490   33.2843   43.3216 H   0  0  0  0  0  0  0  0  0  0  0  0
   58.6709   31.9066   45.4028 H   0  0  0  0  0  0  0  0  0  0  0  0
   59.1805   27.4093   47.3848 H   0  0  0  0  0  0  0  0  0  0  0  0
   57.3708   27.6657   47.3031 H   0  0  0  0  0  0  0  0  0  0  0  0
   59.1204   25.7847   45.7129 H   0  0  0  0  0  0  0  0  0  0  0  0
   57.5340   25.5016   46.5319 H   0  0  0  0  0  0  0  0  0  0  0  0
  1  2  1  0
  2  3  2  0
  3  4  1  0
  4  5  2  0
  5  6  1  0
  6  7  2  0
  7  8  1  0
  8  9  2  0
  9 10  1  0
 10 11  2  0
 11 12  1  0
 12 13  1  0
 13 14  1  0
 14 15  1  0
 15 16  1  0
 16 17  1  0
 17 18  1  0
 18 19  2  0
 19 20  1  0
 20 21  2  0
 21 22  1  0
 22 23  2  0
 16 24  1  0
 24 25  1  0
 11  2  1  0
 25 13  1  0
 10  5  1  0
 23 18  1  0
  3 26  1  0
  4 27  1  0
  6 28  1  0
  7 29  1  0
  8 30  1  0
  9 31  1  0
 12 32  1  0
 12 33  1  0
 13 34  1  0
 14 35  1  0
 14 36  1  0
 15 37  1  0
 15 38  1  0
 17 39  1  0
 17 40  1  0
 19 41  1  0
 20 42  1  0
 21 43  1  0
 22 44  1  0
 23 45  1  0
 24 46  1  0
 24 47  1  0
 25 48  1  0
 25 49  1  0
M  CHG  2   1  -1  13   1
M  END
>  <UniqueID>  (6) 
6

>  <SMILES>  (6) 
[O-]c1ccc2ccccc2c1C[NH+]1CCN(Cc2ccccc2)CC1

>  <Energy>  (6) 
79.49824817260075

>  <Genealogy>  (6) 
[O-]c1ccc2ccccc2c1C[NH+]1CCN(Cc2ccccc2)CC1 (protonated)
[O-]c1ccc2ccccc2c1C[NH+]1CCN(Cc2ccccc2)CC1 (3D coordinates assigned)
[O-]c1ccc2ccccc2c1C[NH+]1CCN(Cc2ccccc2)CC1 (nonaromatic ring conformer: 79.49824817260075 kcal/mol)

>  <smiles>  (6) 
Oc1ccc2ccccc2c1CN1CCN(Cc2ccccc2)CC1

>  <score_type>  (6) 
oracle

>  <origin>  (6) 
adg

>  <m_score__min__energy>  (6) 
-9.9000000000000004

>  <m_primary>  (6) 
energy

$$$$
6:0
     RDKit          3D

 45 48  0  0  0  0  0  0  0  0999 V2000
   60.1542   28.4645   47.8323 H   0  0  0  0  0  0  0  0  0  0  0  0
   59.6020   29.3980   47.6490 C   0  0  0  0  0  0  0  0  0  0  0  0
   59.6870   30.3720   48.5670 C   0  0  0  0  0  0  0  0  0  0  0  0
   58.8417   30.5309   49.2528 H   0  0  0  0  0  0  0  0  0  0  0  0
   60.8800   31.2410   48.6890 C   0  0  0  0  0  0  0  0  0  0  0  0
   61.0050   32.4700   47.9890 C   0  0  0  0  0  0  0  0  0  0  0  0
   59.9020   33.0470   47.1820 C   0  0  0  0  0  0  0  0  0  0  0  0
   58.5690   32.9460   47.6200 C   0  0  0  0  0  0  0  0  0  0  0  0
   58.3416   32.4470   48.5735 H   0  0  0  0  0  0  0  0  0  0  0  0
   57.5320   33.4780   46.8470 C   0  0  0  0  0  0  0  0  0  0  0  0
   56.4904   33.3884   47.1891 H   0  0  0  0  0  0  0  0  0  0  0  0
   57.8170   34.1230   45.6410 C   0  0  0  0  0  0  0  0  0  0  0  0
   56.9997   34.5381   45.0330 H   0  0  0  0  0  0  0  0  0  0  0  0
   59.1390   34.2410   45.2070 C   0  0  0  0  0  0  0  0  0  0  0  0
   59.3619   34.7536   44.2596 H   0  0  0  0  0  0  0  0  0  0  0  0
   60.1800   33.7090   45.9740 C   0  0  0  0  0  0  0  0  0  0  0  0
   61.2202   33.8090   45.6306 H   0  0  0  0  0  0  0  0  0  0  0  0
   62.1970   33.1980   48.1110 C   0  0  0  0  0  0  0  0  0  0  0  0
   62.3234   34.1365   47.5514 H   0  0  0  0  0  0  0  0  0  0  0  0
   63.2250   32.7400   48.9380 C   0  0  0  0  0  0  0  0  0  0  0  0
   64.4210   33.4610   49.0700 C   0  0  0  0  0  0  0  0  0  0  0  0
   64.5616   34.3978   48.5108 H   0  0  0  0  0  0  0  0  0  0  0  0
   65.4340   32.9920   49.9100 C   0  0  0  0  0  0  0  0  0  0  0  0
   66.3739   33.5562   50.0013 H   0  0  0  0  0  0  0  0  0  0  0  0
   65.2590   31.8050   50.6380 C   0  0  0  0  0  0  0  0  0  0  0  0
   66.3640   31.2850   51.5090 C   0  0  0  0  0  0  0  0  0  0  0  0
   66.0892   31.4143   52.5662 H   0  0  0  0  0  0  0  0  0  0  0  0
   66.5241   30.2170   51.2997 H   0  0  0  0  0  0  0  0  0  0  0  0
   67.2890   31.8423   51.2997 H   0  0  0  0  0  0  0  0  0  0  0  0
   64.0710   31.0730   50.4940 C   0  0  0  0  0  0  0  0  0  0  0  0
   63.9405   30.1294   51.0441 H   0  0  0  0  0  0  0  0  0  0  0  0
   63.0470   31.5370   49.6520 C   0  0  0  0  0  0  0  0  0  0  0  0
   61.8880   30.8310   49.5140 N   0  0  0  0  0  0  0  0  0  0  0  0
   61.7750   29.9320   50.0390 H   0  0  0  0  0  0  0  0  0  0  0  0
   58.8080   29.5050   46.4020 C   0  0  0  0  0  0  0  0  0  0  0  0
   57.7500   28.6020   46.2030 C   0  0  0  0  0  0  0  0  0  0  0  0
   57.5325   27.8396   46.9655 H   0  0  0  0  0  0  0  0  0  0  0  0
   56.9720   28.6650   45.0440 C   0  0  0  0  0  0  0  0  0  0  0  0
   56.1520   27.9473   44.8942 H   0  0  0  0  0  0  0  0  0  0  0  0
   57.2330   29.6380   44.0740 C   0  0  0  0  0  0  0  0  0  0  0  0
   56.2530   29.7170   42.6230 Cl  0  0  0  0  0  0  0  0  0  0  0  0
   58.2730   30.5520   44.2690 C   0  0  0  0  0  0  0  0  0  0  0  0
   58.4759   31.3216   43.5097 H   0  0  0  0  0  0  0  0  0  0  0  0
   59.0560   30.4910   45.4260 C   0  0  0  0  0  0  0  0  0  0  0  0
   59.8695   31.2162   45.5751 H   0  0  0  0  0  0  0  0  0  0  0  0
  1  2  1  0
  2  3  2  0
  3  4  1  0
  3  5  1  0
  5  6  1  0
  6  7  1  0
  7  8  2  0
  8  9  1  0
  8 10  1  0
 10 11  1  0
 10 12  2  0
 12 13  1  0
 12 14  1  0
 14 15  1  0
 14 16  2  0
 16 17  1  0
  6 18  2  0
 18 19  1  0
 18 20  1  0
 20 21  2  0
 21 22  1  0
 21 23  1  0
 23 24  1  0
 23 25  2  0
 25 26  1  0
 26 27  1  0
 26 28  1  0
 26 29  1  0
 25 30  1  0
 30 31  1  0
 30 32  2  0
 32 33  1  0
 33 34  1  0
  2 35  1  0
 35 36  2  0
 36 37  1  0
 36 38  1  0
 38 39  1  0
 38 40  2  0
 40 41  1  0
 40 42  1  0
 42 43  1  0
 42 44  2  0
 44 45  1  0
 33  5  2  0
 44 35  1  0
 16  7  1  0
 32 20  1  0
M  CHG  1  33   1
M  END
>  <UniqueID>  (7) 
7

>  <SMILES>  (7) 
Cc1ccc2cc(-c3ccccc3)c(/C=C/c3ccc(Cl)cc3)[nH+]c2c1

>  <Energy>  (7) 
65.65264125550712

>  <Genealogy>  (7) 
Cc1ccc2cc(-c3ccccc3)c(C=Cc3ccc(Cl)cc3)[nH+]c2c1 (protonated)
Cc1ccc2cc(-c3ccccc3)c(/C=C/c3ccc(Cl)cc3)[nH+]c2c1 (cis-trans isomerization)
Cc1ccc2cc(-c3ccccc3)c(/C=C/c3ccc(Cl)cc3)[nH+]c2c1 (3D coordinates assigned)
Cc1ccc2cc(-c3ccccc3)c(/C=C/c3ccc(Cl)cc3)[nH+]c2c1 (optimized conformer: 65.65264125550712 kcal/mol)

>  <smiles>  (7) 
Cc1ccc2cc(-c3ccccc3)c(C=Cc3ccc(Cl)cc3)nc2c1

>  <score_type>  (7) 
oracle

>  <origin>  (7) 
adg

>  <m_score__min__energy>  (7) 
-7.6799999999999997

>  <m_primary>  (7) 
energy

$$$$
7:0
     RDKit          3D

 41 43  0  0  0  0  0  0  0  0999 V2000
   55.3900   30.2120   44.5140 O   0  0  0  0  0  0  0  0  0  0  0  0
   56.6320   30.0510   44.6420 C   0  0  0  0  0  0  0  0  0  0  0  0
   57.1840   28.7510   44.3880 N   0  0  0  0  0  0  0  0  0  0  0  0
   58.0920   28.0350   45.2390 C   0  0  0  0  0  0  0  0  0  0  0  0
   57.5750   27.0680   46.1110 C   0  0  0  0  0  0  0  0  0  0  0  0
   58.4270   26.3490   46.9570 C   0  0  0  0  0  0  0  0  0  0  0  0
   57.9190   25.4050   47.7850 F   0  0  0  0  0  0  0  0  0  0  0  0
   59.8000   26.6070   46.9470 C   0  0  0  0  0  0  0  0  0  0  0  0
   60.3210   27.5890   46.1020 C   0  0  0  0  0  0  0  0  0  0  0  0
   59.4750   28.3110   45.2540 C   0  0  0  0  0  0  0  0  0  0  0  0
   60.0000   29.3010   44.4900 F   0  0  0  0  0  0  0  0  0  0  0  0
   57.4840   31.2110   44.9960 C   0  0  0  0  0  0  0  0  0  0  0  0
   58.1350   31.2520   46.2410 C   0  0  0  0  0  0  0  0  0  0  0  0
   58.9390   32.3420   46.5850 C   0  0  0  0  0  0  0  0  0  0  0  0
   59.1060   33.4100   45.6910 C   0  0  0  0  0  0  0  0  0  0  0  0
   59.9410   34.6010   46.0770 C   0  0  0  0  0  0  0  0  0  0  0  0
   61.0340   34.1840   47.0220 C   0  0  0  0  0  0  0  0  0  0  0  0
   60.8280   34.2300   48.4090 C   0  0  0  0  0  0  0  0  0  0  0  0
   61.8550   33.8760   49.2890 C   0  0  0  0  0  0  0  0  0  0  0  0
   63.1160   33.4980   48.7970 C   0  0  0  0  0  0  0  0  0  0  0  0
   64.2080   33.0700   49.7450 C   0  0  0  0  0  0  0  0  0  0  0  0
   65.4410   33.0980   49.1140 F   0  0  0  0  0  0  0  0  0  0  0  0
   64.2640   33.9150   50.8390 F   0  0  0  0  0  0  0  0  0  0  0  0
   63.9550   31.7840   50.1810 F   0  0  0  0  0  0  0  0  0  0  0  0
   63.3150   33.4380   47.4070 C   0  0  0  0  0  0  0  0  0  0  0  0
   62.2880   33.7910   46.5270 C   0  0  0  0  0  0  0  0  0  0  0  0
   58.4350   33.3870   44.4590 C   0  0  0  0  0  0  0  0  0  0  0  0
   57.6300   32.2970   44.1150 C   0  0  0  0  0  0  0  0  0  0  0  0
   56.4927   26.8727   46.1308 H   0  0  0  0  0  0  0  0  0  0  0  0
   60.4712   26.0360   47.6054 H   0  0  0  0  0  0  0  0  0  0  0  0
   61.4014   27.7956   46.1033 H   0  0  0  0  0  0  0  0  0  0  0  0
   58.0107   30.4200   46.9498 H   0  0  0  0  0  0  0  0  0  0  0  0
   59.4437   32.3626   47.5622 H   0  0  0  0  0  0  0  0  0  0  0  0
   60.3895   35.0388   45.1730 H   0  0  0  0  0  0  0  0  0  0  0  0
   59.2996   35.3432   46.5748 H   0  0  0  0  0  0  0  0  0  0  0  0
   59.8524   34.5466   48.8065 H   0  0  0  0  0  0  0  0  0  0  0  0
   61.6748   33.8934   50.3740 H   0  0  0  0  0  0  0  0  0  0  0  0
   64.2866   33.1107   47.0085 H   0  0  0  0  0  0  0  0  0  0  0  0
   62.4629   33.7608   45.4414 H   0  0  0  0  0  0  0  0  0  0  0  0
   58.5428   34.2302   43.7608 H   0  0  0  0  0  0  0  0  0  0  0  0
   57.1067   32.2889   43.1475 H   0  0  0  0  0  0  0  0  0  0  0  0
  1  2  2  0
  2  3  1  0
  3  4  1  0
  4  5  2  0
  5  6  1  0
  6  7  1  0
  6  8  2  0
  8  9  1  0
  9 10  2  0
 10 11  1  0
  2 12  1  0
 12 13  2  0
 13 14  1  0
 14 15  2  0
 15 16  1  0
 16 17  1  0
 17 18  2  0
 18 19  1  0
 19 20  2  0
 20 21  1  0
 21 22  1  0
 21 23  1  0
 21 24  1  0
 20 25  1  0
 25 26  2  0
 15 27  1  0
 27 28  2  0
 10  4  1  0
 28 12  1  0
 26 17  1  0
  5 29  1  0
  8 30  1  0
  9 31  1  0
 13 32  1  0
 14 33  1  0
 16 34  1  0
 16 35  1  0
 18 36  1  0
 19 37  1  0
 25 38  1  0
 26 39  1  0
 27 40  1  0
 28 41  1  0
M  CHG  1   3  -1
M  END
>  <UniqueID>  (8) 
8

>  <SMILES>  (8) 
O=C([N-]c1cc(F)ccc1F)c1ccc(Cc2ccc(C(F)(F)F)cc2)cc1

>  <Energy>  (8) 
51.01660524714004

>  <Genealogy>  (8) 
O=C([N-]c1cc(F)ccc1F)c1ccc(Cc2ccc(C(F)(F)F)cc2)cc1 (protonated)
O=C([N-]c1cc(F)ccc1F)c1ccc(Cc2ccc(C(F)(F)F)cc2)cc1 (3D coordinates assigned)
O=C([N-]c1cc(F)ccc1F)c1ccc(Cc2ccc(C(F)(F)F)cc2)cc1 (optimized conformer: 51.01660524714004 kcal/mol)

>  <smiles>  (8) 
O=C(Nc1cc(F)ccc1F)c1ccc(Cc2ccc(C(F)(F)F)cc2)cc1

>  <score_type>  (8) 
oracle

>  <origin>  (8) 
adg

>  <m_score__min__energy>  (8) 
-10.42

>  <m_primary>  (8) 
energy

$$$$
8:0
     RDKit          3D

 86 90  0  0  0  0  0  0  0  0999 V2000
   60.8750   29.7430   53.1440 C   0  0  0  0  0  0  0  0  0  0  0  0
   62.1900   30.4720   52.7990 C   0  0  2  0  0  0  0  0  0  0  0  0
   62.3890   31.8490   53.4960 C   0  0  0  0  0  0  0  0  0  0  0  0
   62.2220   33.0810   52.5730 C   0  0  0  0  0  0  0  0  0  0  0  0
   61.1300   32.8920   51.5000 C   0  0  1  0  0  0  0  0  0  0  0  0
   59.7560   32.7120   52.2460 C   0  0  0  0  0  0  0  0  0  0  0  0
   60.9970   34.1930   50.6730 C   0  0  0  0  0  0  0  0  0  0  0  0
   60.0820   33.9750   49.4700 C   0  0  0  0  0  0  0  0  0  0  0  0
   60.6870   33.0190   48.3630 C   0  0  1  0  0  0  0  0  0  0  0  0
   61.3360   34.0460   47.3490 C   0  0  0  0  0  0  0  0  0  0  0  0
   61.8360   32.0310   49.0060 C   0  0  2  0  0  0  0  0  0  0  0  0
   63.2840   32.6520   48.8690 C   0  0  0  0  0  0  0  0  0  0  0  0
   61.8920   30.6930   48.2100 C   0  0  0  0  0  0  0  0  0  0  0  0
   61.5600   30.8080   46.7320 C   0  0  0  0  0  0  0  0  0  0  0  0
   60.1050   31.2670   46.4250 C   0  0  1  0  0  0  0  0  0  0  0  0
   59.1530   30.0940   45.8900 C   0  0  1  0  0  0  0  0  0  0  0  0
   57.8690   30.7400   45.2640 C   0  0  0  0  0  0  0  0  0  0  0  0
   59.8330   29.3560   44.6570 C   0  0  0  0  0  0  0  0  0  0  0  0
   60.3200   27.9230   44.8640 C   0  0  0  0  0  0  0  0  0  0  0  0
   59.3120   27.0960   45.6530 C   0  0  1  0  0  0  0  0  0  0  0  0
   59.7330   25.7530   45.6370 O   0  0  0  0  0  0  0  0  0  0  0  0
   59.1720   27.6290   47.1070 C   0  0  0  0  0  0  0  0  0  0  0  0
   58.1130   26.7510   47.8330 C   0  0  0  0  0  0  0  0  0  0  0  0
   60.5040   27.4240   47.8820 C   0  0  0  0  0  0  0  0  0  0  0  0
   58.6520   29.1310   47.0600 C   0  0  1  0  0  0  0  0  0  0  0  0
   58.5790   29.8180   48.4590 C   0  0  0  0  0  0  0  0  0  0  0  0
   58.5310   31.3620   48.4950 C   0  0  0  0  0  0  0  0  0  0  0  0
   59.4970   32.2090   47.5630 C   0  0  1  0  0  0  0  0  0  0  0  0
   58.5790   33.3030   46.8760 C   0  0  0  0  0  0  0  0  0  0  0  0
   61.5130   31.6620   50.5530 C   0  0  1  0  0  0  0  0  0  0  0  0
   62.4250   30.5450   51.2650 C   0  0  1  0  0  0  0  0  0  0  0  0
   63.9530   30.5820   51.0290 C   0  0  0  0  0  0  0  0  0  0  0  0
   60.7653   29.6822   54.2368 H   0  0  0  0  0  0  0  0  0  0  0  0
   60.0255   30.2990   52.7206 H   0  0  0  0  0  0  0  0  0  0  0  0
   60.8965   28.7280   52.7206 H   0  0  0  0  0  0  0  0  0  0  0  0
   62.9787   29.8402   53.2335 H   0  0  0  0  0  0  0  0  0  0  0  0
   61.6522   31.9295   54.3088 H   0  0  0  0  0  0  0  0  0  0  0  0
   63.4313   31.8675   53.8471 H   0  0  0  0  0  0  0  0  0  0  0  0
   61.9560   33.9494   53.1936 H   0  0  0  0  0  0  0  0  0  0  0  0
   63.1766   33.2269   52.0462 H   0  0  0  0  0  0  0  0  0  0  0  0
   59.9233   32.7339   53.3330 H   0  0  0  0  0  0  0  0  0  0  0  0
   59.0755   33.5287   51.9632 H   0  0  0  0  0  0  0  0  0  0  0  0
   59.3088   31.7476   51.9632 H   0  0  0  0  0  0  0  0  0  0  0  0
   60.5745   34.9843   51.3097 H   0  0  0  0  0  0  0  0  0  0  0  0
   61.9936   34.4864   50.3115 H   0  0  0  0  0  0  0  0  0  0  0  0
   59.1392   33.5357   49.8281 H   0  0  0  0  0  0  0  0  0  0  0  0
   59.9400   34.9580   48.9972 H   0  0  0  0  0  0  0  0  0  0  0  0
   61.8414   34.8457   47.9102 H   0  0  0  0  0  0  0  0  0  0  0  0
   62.0681   33.5233   46.7159 H   0  0  0  0  0  0  0  0  0  0  0  0
   60.5496   34.4829   46.7159 H   0  0  0  0  0  0  0  0  0  0  0  0
   63.7023   32.8314   49.8704 H   0  0  0  0  0  0  0  0  0  0  0  0
   63.9324   31.9528   48.3206 H   0  0  0  0  0  0  0  0  0  0  0  0
   63.2244   33.6037   48.3206 H   0  0  0  0  0  0  0  0  0  0  0  0
   62.9097   30.2853   48.2999 H   0  0  0  0  0  0  0  0  0  0  0  0
   61.1196   30.0436   48.6478 H   0  0  0  0  0  0  0  0  0  0  0  0
   62.2509   31.5358   46.2815 H   0  0  0  0  0  0  0  0  0  0  0  0
   61.6614   29.7965   46.3117 H   0  0  0  0  0  0  0  0  0  0  0  0
   60.1653   31.9312   45.5502 H   0  0  0  0  0  0  0  0  0  0  0  0
   57.1988   31.0772   46.0684 H   0  0  0  0  0  0  0  0  0  0  0  0
   58.1573   31.6004   44.6422 H   0  0  0  0  0  0  0  0  0  0  0  0
   57.3500   29.9957   44.6422 H   0  0  0  0  0  0  0  0  0  0  0  0
   59.0972   29.3374   43.8395 H   0  0  0  0  0  0  0  0  0  0  0  0
   60.7482   29.9334   44.4594 H   0  0  0  0  0  0  0  0  0  0  0  0
   60.4757   27.4535   43.8815 H   0  0  0  0  0  0  0  0  0  0  0  0
   61.2589   27.9581   45.4360 H   0  0  0  0  0  0  0  0  0  0  0  0
   58.3176   27.1745   45.1892 H   0  0  0  0  0  0  0  0  0  0  0  0
   60.6980   25.7410   45.8740 H   0  0  0  0  0  0  0  0  0  0  0  0
   58.2360   26.8530   48.9213 H   0  0  0  0  0  0  0  0  0  0  0  0
   57.1038   27.0810   47.5455 H   0  0  0  0  0  0  0  0  0  0  0  0
   58.2503   25.6981   47.5455 H   0  0  0  0  0  0  0  0  0  0  0  0
   60.3072   27.4543   48.9638 H   0  0  0  0  0  0  0  0  0  0  0  0
   60.9370   26.4486   47.6153 H   0  0  0  0  0  0  0  0  0  0  0  0
   61.2103   28.2240   47.6153 H   0  0  0  0  0  0  0  0  0  0  0  0
   57.6188   28.9586   46.7242 H   0  0  0  0  0  0  0  0  0  0  0  0
   57.6723   29.4486   48.9604 H   0  0  0  0  0  0  0  0  0  0  0  0
   59.5283   29.5561   48.9492 H   0  0  0  0  0  0  0  0  0  0  0  0
   57.5028   31.6537   48.2348 H   0  0  0  0  0  0  0  0  0  0  0  0
   58.8841   31.6019   49.5088 H   0  0  0  0  0  0  0  0  0  0  0  0
   58.0776   33.9005   47.6516 H   0  0  0  0  0  0  0  0  0  0  0  0
   59.1991   33.9612   46.2498 H   0  0  0  0  0  0  0  0  0  0  0  0
   57.8231   32.8066   46.2498 H   0  0  0  0  0  0  0  0  0  0  0  0
   60.5674   31.1195   50.4062 H   0  0  0  0  0  0  0  0  0  0  0  0
   62.0646   29.6475   50.7410 H   0  0  0  0  0  0  0  0  0  0  0  0
   64.4735   30.5946   51.9980 H   0  0  0  0  0  0  0  0  0  0  0  0
   64.2579   29.6910   50.4606 H   0  0  0  0  0  0  0  0  0  0  0  0
   64.2144   31.4867   50.4606 H   0  0  0  0  0  0  0  0  0  0  0  0
  1  2  1  0
  2  3  1  0
  3  4  1  0
  4  5  1  0
  5  6  1  1
  5  7  1  0
  7  8  1  0
  8  9  1  0
  9 10  1  6
  9 11  1  0
 11 12  1  1
 11 13  1  0
 13 14  1  0
 14 15  1  0
 15 16  1  0
 16 17  1  6
 16 18  1  0
 18 19  1  0
 19 20  1  0
 20 21  1  0
 20 22  1  0
 22 23  1  0
 22 24  1  0
 22 25  1  0
 25 26  1  0
 26 27  1  0
 27 28  1  0
 28 29  1  6
 11 30  1  0
 30 31  1  0
 31 32  1  0
 31  2  1  0
 30  5  1  0
 28  9  1  0
 28 15  1  0
 25 16  1  0
  1 33  1  0
  1 34  1  0
  1 35  1  0
  2 36  1  1
  3 37  1  0
  3 38  1  0
  4 39  1  0
  4 40  1  0
  6 41  1  0
  6 42  1  0
  6 43  1  0
  7 44  1  0
  7 45  1  0
  8 46  1  0
  8 47  1  0
 10 48  1  0
 10 49  1  0
 10 50  1  0
 12 51  1  0
 12 52  1  0
 12 53  1  0
 13 54  1  0
 13 55  1  0
 14 56  1  0
 14 57  1  0
 15 58  1  6
 17 59  1  0
 17 60  1  0
 17 61  1  0
 18 62  1  0
 18 63  1  0
 19 64  1  0
 19 65  1  0
 20 66  1  6
 21 67  1  0
 23 68  1  0
 23 69  1  0
 23 70  1  0
 24 71  1  0
 24 72  1  0
 24 73  1  0
 25 74  1  6
 26 75  1  0
 26 76  1  0
 27 77  1  0
 27 78  1  0
 29 79  1  0
 29 80  1  0
 29 81  1  0
 30 82  1  6
 31 83  1  6
 32 84  1  0
 32 85  1  0
 32 86  1  0
M  END
>  <UniqueID>  (9) 
9

>  <SMILES>  (9) 
CC1C2C3(C)CCC4C5(C)CCC(O)C(C)(C)C5CCC4(C)C3(C)CC[C@]2(C)CC[C@H]1C

>  <Energy>  (9) 
225.96661176057017

>  <Genealogy>  (9) 
CC1C2C3(C)CCC4C5(C)CCC(O)C(C)(C)C5CCC4(C)C3(C)CC[C@]2(C)CC[C@H]1C (chirality)
CC1C2C3(C)CCC4C5(C)CCC(O)C(C)(C)C5CCC4(C)C3(C)CC[C@]2(C)CC[C@H]1C (3D coordinates assigned)
CC1C2C3(C)CCC4C5(C)CCC(O)C(C)(C)C5CCC4(C)C3(C)CC[C@]2(C)CC[C@H]1C (nonaromatic ring conformer: 225.96661176057017 kcal/mol)

>  <smiles>  (9) 
CC1CCC2(C)CCC3(C)C(C)(CCC4C5(C)CCC(O)C(C)(C)C5CCC43C)C2C1C

>  <score_type>  (9) 
oracle

>  <origin>  (9) 
adg

>  <m_score__min__energy>  (9) 
-7.7300000000000004

>  <m_primary>  (9) 
energy

$$$$
9:0
     RDKit          3D

 45 47  0  0  0  0  0  0  0  0999 V2000
   61.8484   33.3891   49.6908 H   0  0  0  0  0  0  0  0  0  0  0  0
   61.2940   33.6660   48.7820 C   0  0  0  0  0  0  0  0  0  0  0  0
   59.9950   34.1730   48.8830 C   0  0  0  0  0  0  0  0  0  0  0  0
   59.5288   34.2966   49.8716 H   0  0  0  0  0  0  0  0  0  0  0  0
   59.2880   34.5230   47.7290 C   0  0  0  0  0  0  0  0  0  0  0  0
   58.2677   34.9254   47.8127 H   0  0  0  0  0  0  0  0  0  0  0  0
   59.8750   34.3630   46.4630 C   0  0  0  0  0  0  0  0  0  0  0  0
   59.1240   34.7710   45.2200 C   0  0  0  0  0  0  0  0  0  0  0  0
   59.6720   34.4059   44.3388 H   0  0  0  0  0  0  0  0  0  0  0  0
   59.0468   35.8683   45.2161 H   0  0  0  0  0  0  0  0  0  0  0  0
   57.6970   34.1960   45.1900 C   0  0  0  0  0  0  0  0  0  0  0  0
   57.0513   34.8950   44.6382 H   0  0  0  0  0  0  0  0  0  0  0  0
   57.3769   34.0692   46.2347 H   0  0  0  0  0  0  0  0  0  0  0  0
   57.6070   32.8200   44.5200 C   0  0  0  0  0  0  0  0  0  0  0  0
   58.5453   32.6153   43.9837 H   0  0  0  0  0  0  0  0  0  0  0  0
   56.7626   32.8195   43.8151 H   0  0  0  0  0  0  0  0  0  0  0  0
   57.3890   31.7810   45.5240 N   0  0  0  0  0  0  0  0  0  0  0  0
   58.1560   30.7470   45.7380 C   0  0  0  0  0  0  0  0  0  0  0  0
   57.6220   29.4550   45.5900 C   0  0  0  0  0  0  0  0  0  0  0  0
   56.4180   29.3070   45.2360 O   0  0  0  0  0  0  0  0  0  0  0  0
   58.4120   28.3620   45.8290 N   0  0  0  0  0  0  0  0  0  0  0  0
   57.8840   27.0320   45.7010 C   0  0  0  0  0  0  0  0  0  0  0  0
   57.4580   26.3480   46.8500 C   0  0  0  0  0  0  0  0  0  0  0  0
   57.5204   26.8378   47.8329 H   0  0  0  0  0  0  0  0  0  0  0  0
   56.9550   25.0480   46.7520 C   0  0  0  0  0  0  0  0  0  0  0  0
   56.6224   24.5181   47.6568 H   0  0  0  0  0  0  0  0  0  0  0  0
   56.8740   24.4210   45.5080 C   0  0  0  0  0  0  0  0  0  0  0  0
   56.4849   23.3947   45.4350 H   0  0  0  0  0  0  0  0  0  0  0  0
   57.2860   25.0940   44.3550 C   0  0  0  0  0  0  0  0  0  0  0  0
   57.2242   24.5926   43.3779 H   0  0  0  0  0  0  0  0  0  0  0  0
   57.7790   26.4080   44.4360 C   0  0  0  0  0  0  0  0  0  0  0  0
   58.2240   27.1140   43.1840 C   0  0  0  0  0  0  0  0  0  0  0  0
   58.7926   28.0161   43.4541 H   0  0  0  0  0  0  0  0  0  0  0  0
   58.8622   26.4421   42.5913 H   0  0  0  0  0  0  0  0  0  0  0  0
   57.3426   27.3999   42.5913 H   0  0  0  0  0  0  0  0  0  0  0  0
   59.7180   28.5200   46.1890 C   0  0  0  0  0  0  0  0  0  0  0  0
   60.3510   27.6381   46.3669 H   0  0  0  0  0  0  0  0  0  0  0  0
   60.2490   29.8000   46.3310 C   0  0  0  0  0  0  0  0  0  0  0  0
   61.3011   29.9305   46.6242 H   0  0  0  0  0  0  0  0  0  0  0  0
   59.4660   30.8860   46.1070 N   0  0  0  0  0  0  0  0  0  0  0  0
   59.9020   31.8270   46.2250 H   0  0  0  0  0  0  0  0  0  0  0  0
   61.1830   33.8590   46.3690 C   0  0  0  0  0  0  0  0  0  0  0  0
   61.6544   33.7375   45.3826 H   0  0  0  0  0  0  0  0  0  0  0  0
   61.8880   33.5110   47.5270 C   0  0  0  0  0  0  0  0  0  0  0  0
   62.9112   33.1149   47.4488 H   0  0  0  0  0  0  0  0  0  0  0  0
  1  2  1  0
  2  3  2  0
  3  4  1  0
  3  5  1  0
  5  6  1  0
  5  7  2  0
  7  8  1  0
  8  9  1  0
  8 10  1  0
  8 11  1  0
 11 12  1  0
 11 13  1  0
 11 14  1  0
 14 15  1  0
 14 16  1  0
 14 17  1  0
 17 18  2  0
 18 19  1  0
 19 20  2  0
 19 21  1  0
 21 22  1  0
 22 23  2  0
 23 24  1  0
 23 25  1  0
 25 26  1  0
 25 27  2  0
 27 28  1  0
 27 29  1  0
 29 30  1  0
 29 31  2  0
 31 32  1  0
 32 33  1  0
 32 34  1  0
 32 35  1  0
 21 36  1  0
 36 37  1  0
 36 38  2  0
 38 39  1  0
 38 40  1  0
 40 41  1  0
  7 42  1  0
 42 43  1  0
 42 44  2  0
 44 45  1  0
 44  2  1  0
 40 18  1  0
 31 22  1  0
M  END
>  <UniqueID>  (10) 
10

>  <SMILES>  (10) 
Cc1ccccc1-n1cc[nH]/c(=N\CCCc2ccccc2)c1=O

>  <Energy>  (10) 
53.66851979356547

>  <Genealogy>  (10) 
Cc1ccccc1-n1cc[nH]/c(=N\CCCc2ccccc2)c1=O (cis-trans isomerization)
Cc1ccccc1-n1cc[nH]/c(=N\CCCc2ccccc2)c1=O (3D coordinates assigned)
Cc1ccccc1-n1cc[nH]/c(=N\CCCc2ccccc2)c1=O (optimized conformer: 53.66851979356547 kcal/mol)

>  <smiles>  (10) 
Cc1ccccc1-n1cc[nH]c(=NCCCc2ccccc2)c1=O

>  <score_type>  (10) 
oracle

>  <origin>  (10) 
adg

>  <m_score__min__energy>  (10) 
-7.8099999999999996

>  <m_primary>  (10) 
energy

$$$$
10:0
     RDKit          3D

 37 40  0  0  0  0  0  0  0  0999 V2000
   55.7490   27.1420   45.6220 O   0  0  0  0  0  0  0  0  0  0  0  0
   56.9210   27.6020   45.5800 C   0  0  0  0  0  0  0  0  0  0  0  0
   57.1240   28.9890   45.8810 N   0  0  0  0  0  0  0  0  0  0  0  0
   57.2430   30.0300   44.9030 C   0  0  0  0  0  0  0  0  0  0  0  0
   56.8640   29.7460   43.5860 C   0  0  0  0  0  0  0  0  0  0  0  0
   56.9310   30.7300   42.5990 C   0  0  0  0  0  0  0  0  0  0  0  0
   57.3920   32.0090   42.9110 C   0  0  0  0  0  0  0  0  0  0  0  0
   57.8090   32.3100   44.2170 C   0  0  0  0  0  0  0  0  0  0  0  0
   58.2940   33.5900   44.5240 C   0  0  0  0  0  0  0  0  0  0  0  0
   58.7360   33.8840   45.8150 C   0  0  0  0  0  0  0  0  0  0  0  0
   58.7060   32.9020   46.8070 C   0  0  0  0  0  0  0  0  0  0  0  0
   58.2250   31.6230   46.5170 C   0  0  0  0  0  0  0  0  0  0  0  0
   57.7510   31.3120   45.2260 C   0  0  0  0  0  0  0  0  0  0  0  0
   58.0270   26.7520   45.2250 N   0  0  0  0  0  0  0  0  0  0  0  0
   57.9090   25.3410   44.9830 C   0  0  0  0  0  0  0  0  0  0  0  0
   58.7280   24.4440   45.7100 C   0  0  0  0  0  0  0  0  0  0  0  0
   58.6240   23.0560   45.5190 C   0  0  0  0  0  0  0  0  0  0  0  0
   57.6840   22.5800   44.6070 C   0  0  0  0  0  0  0  0  0  0  0  0
   56.8740   23.4470   43.9150 C   0  0  0  0  0  0  0  0  0  0  0  0
   56.9490   24.8280   44.0810 C   0  0  0  0  0  0  0  0  0  0  0  0
   56.0140   22.6380   43.0910 C   0  0  0  0  0  0  0  0  0  0  0  0
   55.1240   23.0630   42.3100 O   0  0  0  0  0  0  0  0  0  0  0  0
   56.3100   21.2950   43.2860 O   0  0  0  0  0  0  0  0  0  0  0  0
   57.3690   21.1590   44.2400 C   0  0  0  0  0  0  0  0  0  0  0  0
   56.5099   28.7374   43.3265 H   0  0  0  0  0  0  0  0  0  0  0  0
   56.6189   30.4961   41.5704 H   0  0  0  0  0  0  0  0  0  0  0  0
   57.4288   32.7840   42.1312 H   0  0  0  0  0  0  0  0  0  0  0  0
   58.3261   34.3652   43.7442 H   0  0  0  0  0  0  0  0  0  0  0  0
   59.1088   34.8916   46.0513 H   0  0  0  0  0  0  0  0  0  0  0  0
   59.0625   33.1364   47.8209 H   0  0  0  0  0  0  0  0  0  0  0  0
   58.2159   30.8524   47.3019 H   0  0  0  0  0  0  0  0  0  0  0  0
   58.9560   27.1900   45.0390 H   0  0  0  0  0  0  0  0  0  0  0  0
   59.4556   24.8390   46.4342 H   0  0  0  0  0  0  0  0  0  0  0  0
   59.2695   22.3612   46.0763 H   0  0  0  0  0  0  0  0  0  0  0  0
   56.2795   25.5010   43.5254 H   0  0  0  0  0  0  0  0  0  0  0  0
   57.0365   20.5887   45.1199 H   0  0  0  0  0  0  0  0  0  0  0  0
   58.2381   20.6125   43.8450 H   0  0  0  0  0  0  0  0  0  0  0  0
  1  2  2  0
  2  3  1  0
  3  4  1  0
  4  5  2  0
  5  6  1  0
  6  7  2  0
  7  8  1  0
  8  9  2  0
  9 10  1  0
 10 11  2  0
 11 12  1  0
 12 13  2  0
  2 14  1  0
 14 15  1  0
 15 16  2  0
 16 17  1  0
 17 18  2  0
 18 19  1  0
 19 20  2  0
 19 21  1  0
 21 22  2  0
 21 23  1  0
 23 24  1  0
 13  4  1  0
 20 15  1  0
 13  8  1  0
 24 18  1  0
  5 25  1  0
  6 26  1  0
  7 27  1  0
  9 28  1  0
 10 29  1  0
 11 30  1  0
 12 31  1  0
 14 32  1  0
 16 33  1  0
 17 34  1  0
 20 35  1  0
 24 36  1  0
 24 37  1  0
M  CHG  1   3  -1
M  END
>  <UniqueID>  (11) 
11

>  <SMILES>  (11) 
O=C([N-]c1cccc2ccccc12)Nc1ccc2c(c1)C(=O)OC2

>  <Energy>  (11) 
79.65719461230971

>  <Genealogy>  (11) 
O=C([N-]c1cccc2ccccc12)Nc1ccc2c(c1)C(=O)OC2 (protonated)
O=C([N-]c1cccc2ccccc12)Nc1ccc2c(c1)C(=O)OC2 (3D coordinates assigned)
O=C([N-]c1cccc2ccccc12)Nc1ccc2c(c1)C(=O)OC2 (nonaromatic ring conformer: 79.65719461230971 kcal/mol)

>  <smiles>  (11) 
O=C(Nc1ccc2c(c1)C(=O)OC2)Nc1cccc2ccccc12

>  <score_type>  (11) 
oracle

>  <origin>  (11) 
adg

>  <m_score__min__energy>  (11) 
-10.449999999999999

>  <m_primary>  (11) 
energy

$$$$
11:0
     RDKit          3D

 59 61  0  0  0  0  0  0  0  0999 V2000
   62.4120   31.4450   47.5340 C   0  0  0  0  0  0  0  0  0  0  0  0
   61.8570   32.8170   47.1320 C   0  0  0  0  0  0  0  0  0  0  0  0
   62.9770   33.8420   46.9570 C   0  0  0  0  0  0  0  0  0  0  0  0
   60.5480   33.3940   48.2430 S   0  0  0  0  0  0  0  0  0  0  0  0
   60.3460   32.3340   49.2910 O   0  0  0  0  0  0  0  0  0  0  0  0
   61.0410   34.6310   48.9380 O   0  0  0  0  0  0  0  0  0  0  0  0
   58.9920   33.7600   47.5080 N   0  0  1  0  0  0  0  0  0  0  0  0
   59.1640   34.6190   46.3170 C   0  0  0  0  0  0  0  0  0  0  0  0
   58.0310   34.4720   45.2690 C   0  0  0  0  0  0  0  0  0  0  0  0
   58.1550   33.2970   44.2740 C   0  0  0  0  0  0  0  0  0  0  0  0
   57.8750   31.9580   44.8460 N   0  0  0  0  0  0  0  0  0  0  0  0
   58.0490   30.8780   43.8490 C   0  0  0  0  0  0  0  0  0  0  0  0
   58.1450   29.5400   44.5340 C   0  0  0  0  0  0  0  0  0  0  0  0
   59.3980   28.9380   44.7200 C   0  0  0  0  0  0  0  0  0  0  0  0
   59.5000   27.7030   45.3680 C   0  0  0  0  0  0  0  0  0  0  0  0
   58.3450   27.0550   45.8460 C   0  0  0  0  0  0  0  0  0  0  0  0
   58.3900   25.8200   46.5130 O   0  0  0  0  0  0  0  0  0  0  0  0
   57.2830   24.9310   46.6760 C   0  0  0  0  0  0  0  0  0  0  0  0
   57.1720   23.9920   45.5050 C   0  0  0  0  0  0  0  0  0  0  0  0
   58.0530   22.9050   45.3740 C   0  0  0  0  0  0  0  0  0  0  0  0
   57.9490   22.0420   44.2790 C   0  0  0  0  0  0  0  0  0  0  0  0
   56.9730   22.2610   43.3040 C   0  0  0  0  0  0  0  0  0  0  0  0
   56.1000   23.3470   43.4200 C   0  0  0  0  0  0  0  0  0  0  0  0
   56.2010   24.2130   44.5130 C   0  0  0  0  0  0  0  0  0  0  0  0
   57.0970   27.6570   45.6510 C   0  0  0  0  0  0  0  0  0  0  0  0
   56.9940   28.8900   45.0020 C   0  0  0  0  0  0  0  0  0  0  0  0
   58.6050   31.6400   46.0910 C   0  0  0  0  0  0  0  0  0  0  0  0
   58.1940   32.5170   47.2970 C   0  0  0  0  0  0  0  0  0  0  0  0
   62.4427   31.3690   48.6309 H   0  0  0  0  0  0  0  0  0  0  0  0
   61.7631   30.6542   47.1297 H   0  0  0  0  0  0  0  0  0  0  0  0
   63.4283   31.3278   47.1297 H   0  0  0  0  0  0  0  0  0  0  0  0
   61.3769   32.6949   46.1499 H   0  0  0  0  0  0  0  0  0  0  0  0
   63.3333   34.1681   47.9453 H   0  0  0  0  0  0  0  0  0  0  0  0
   63.8083   33.3853   46.3999 H   0  0  0  0  0  0  0  0  0  0  0  0
   62.5956   34.7104   46.3999 H   0  0  0  0  0  0  0  0  0  0  0  0
   58.5120   34.3320   48.2400 H   0  0  0  0  0  0  0  0  0  0  0  0
   59.1963   35.6676   46.6477 H   0  0  0  0  0  0  0  0  0  0  0  0
   60.0964   34.3027   45.8265 H   0  0  0  0  0  0  0  0  0  0  0  0
   57.0849   34.3471   45.8161 H   0  0  0  0  0  0  0  0  0  0  0  0
   58.0881   35.3808   44.6519 H   0  0  0  0  0  0  0  0  0  0  0  0
   57.4466   33.4711   43.4507 H   0  0  0  0  0  0  0  0  0  0  0  0
   59.2060   33.2787   43.9500 H   0  0  0  0  0  0  0  0  0  0  0  0
   57.1873   30.8739   43.1653 H   0  0  0  0  0  0  0  0  0  0  0  0
   58.9773   31.0580   43.2870 H   0  0  0  0  0  0  0  0  0  0  0  0
   60.3057   29.4402   44.3541 H   0  0  0  0  0  0  0  0  0  0  0  0
   60.4865   27.2359   45.5048 H   0  0  0  0  0  0  0  0  0  0  0  0
   57.4243   24.3446   47.5959 H   0  0  0  0  0  0  0  0  0  0  0  0
   56.3601   25.5263   46.7381 H   0  0  0  0  0  0  0  0  0  0  0  0
   58.8274   22.7325   46.1359 H   0  0  0  0  0  0  0  0  0  0  0  0
   58.6371   21.1889   44.1851 H   0  0  0  0  0  0  0  0  0  0  0  0
   56.8912   21.5790   42.4448 H   0  0  0  0  0  0  0  0  0  0  0  0
   55.3331   23.5202   42.6507 H   0  0  0  0  0  0  0  0  0  0  0  0
   55.5177   25.0709   44.5970 H   0  0  0  0  0  0  0  0  0  0  0  0
   56.1877   27.1544   46.0124 H   0  0  0  0  0  0  0  0  0  0  0  0
   56.0065   29.3525   44.8576 H   0  0  0  0  0  0  0  0  0  0  0  0
   58.4132   30.5874   46.3463 H   0  0  0  0  0  0  0  0  0  0  0  0
   59.6695   31.8392   45.8980 H   0  0  0  0  0  0  0  0  0  0  0  0
   57.1438   32.8120   47.1554 H   0  0  0  0  0  0  0  0  0  0  0  0
   58.3730   31.8967   48.1876 H   0  0  0  0  0  0  0  0  0  0  0  0
  1  2  1  0
  2  3  1  0
  2  4  1  0
  4  5  2  0
  4  6  2  0
  4  7  1  0
  7  8  1  0
  8  9  1  0
  9 10  1  0
 10 11  1  0
 11 12  1  0
 12 13  1  0
 13 14  2  0
 14 15  1  0
 15 16  2  0
 16 17  1  0
 17 18  1  0
 18 19  1  0
 19 20  2  0
 20 21  1  0
 21 22  2  0
 22 23  1  0
 23 24  2  0
 16 25  1  0
 25 26  2  0
 11 27  1  0
 27 28  1  0
 28  7  1  0
 26 13  1  0
 24 19  1  0
  1 29  1  0
  1 30  1  0
  1 31  1  0
  2 32  1  0
  3 33  1  0
  3 34  1  0
  3 35  1  0
  7 36  1  1
  8 37  1  0
  8 38  1  0
  9 39  1  0
  9 40  1  0
 10 41  1  0
 10 42  1  0
 12 43  1  0
 12 44  1  0
 14 45  1  0
 15 46  1  0
 18 47  1  0
 18 48  1  0
 20 49  1  0
 21 50  1  0
 22 51  1  0
 23 52  1  0
 24 53  1  0
 25 54  1  0
 26 55  1  0
 27 56  1  0
 27 57  1  0
 28 58  1  0
 28 59  1  0
M  CHG  1   7   1
M  END
>  <UniqueID>  (12) 
12

>  <SMILES>  (12) 
CC(C)S(=O)(=O)[N@H+]1CCCN(Cc2ccc(OCc3ccccc3)cc2)CC1

>  <Energy>  (12) 
74.53283274838904

>  <Genealogy>  (12) 
CC(C)S(=O)(=O)[NH+]1CCCN(Cc2ccc(OCc3ccccc3)cc2)CC1 (protonated)
CC(C)S(=O)(=O)[N@H+]1CCCN(Cc2ccc(OCc3ccccc3)cc2)CC1 (chirality)
CC(C)S(=O)(=O)[N@H+]1CCCN(Cc2ccc(OCc3ccccc3)cc2)CC1 (3D coordinates assigned)
CC(C)S(=O)(=O)[N@H+]1CCCN(Cc2ccc(OCc3ccccc3)cc2)CC1 (nonaromatic ring conformer: 74.53283274838904 kcal/mol)

>  <smiles>  (12) 
CC(C)S(=O)(=O)N1CCCN(Cc2ccc(OCc3ccccc3)cc2)CC1

>  <score_type>  (12) 
oracle

>  <origin>  (12) 
adg

>  <m_score__min__energy>  (12) 
-6.2400000000000002

>  <m_primary>  (12) 
energy

$$$$
12:0
     RDKit          3D

 41 42  0  0  0  0  0  0  0  0999 V2000
   64.9020   32.7280   49.4620 C   0  0  0  0  0  0  0  0  0  0  0  0
   63.7330   33.5580   49.7900 N   0  0  0  0  0  0  0  0  0  0  0  0
   63.6790   34.2140   51.1050 C   0  0  0  0  0  0  0  0  0  0  0  0
   62.6560   33.7360   48.8280 C   0  0  0  0  0  0  0  0  0  0  0  0
   62.8920   33.6250   47.4420 C   0  0  0  0  0  0  0  0  0  0  0  0
   61.8560   33.7980   46.5200 C   0  0  0  0  0  0  0  0  0  0  0  0
   60.5530   34.1010   46.9500 C   0  0  0  0  0  0  0  0  0  0  0  0
   59.4680   34.2800   45.9500 C   0  0  0  0  0  0  0  0  0  0  0  0
   59.4120   35.3590   45.2970 O   0  0  0  0  0  0  0  0  0  0  0  0
   58.4780   33.2570   45.7260 N   0  0  0  0  0  0  0  0  0  0  0  0
   57.4590   33.3560   44.6810 C   0  0  0  0  0  0  0  0  0  0  0  0
   57.0220   31.9650   44.2100 C   0  0  0  0  0  0  0  0  0  0  0  0
   57.2150   30.9960   45.2450 O   0  0  0  0  0  0  0  0  0  0  0  0
   58.2800   30.0840   45.3290 C   0  0  0  0  0  0  0  0  0  0  0  0
   59.3390   30.2270   46.2490 C   0  0  0  0  0  0  0  0  0  0  0  0
   60.3830   29.2960   46.2730 C   0  0  0  0  0  0  0  0  0  0  0  0
   60.3780   28.2140   45.3890 C   0  0  0  0  0  0  0  0  0  0  0  0
   59.3250   28.0570   44.4840 C   0  0  0  0  0  0  0  0  0  0  0  0
   58.2780   28.9840   44.4590 C   0  0  0  0  0  0  0  0  0  0  0  0
   60.3080   34.2110   48.3300 C   0  0  0  0  0  0  0  0  0  0  0  0
   61.3420   34.0270   49.2550 C   0  0  0  0  0  0  0  0  0  0  0  0
   65.3820   32.3872   50.3912 H   0  0  0  0  0  0  0  0  0  0  0  0
   64.5792   31.8557   48.8747 H   0  0  0  0  0  0  0  0  0  0  0  0
   65.6191   33.3204   48.8747 H   0  0  0  0  0  0  0  0  0  0  0  0
   63.7416   33.4533   51.8971 H   0  0  0  0  0  0  0  0  0  0  0  0
   64.5226   34.9134   51.2008 H   0  0  0  0  0  0  0  0  0  0  0  0
   62.7324   34.7660   51.2008 H   0  0  0  0  0  0  0  0  0  0  0  0
   63.9063   33.3990   47.0814 H   0  0  0  0  0  0  0  0  0  0  0  0
   62.0632   33.6957   45.4445 H   0  0  0  0  0  0  0  0  0  0  0  0
   58.4300   32.4290   46.3570 H   0  0  0  0  0  0  0  0  0  0  0  0
   56.5852   33.8922   45.0797 H   0  0  0  0  0  0  0  0  0  0  0  0
   57.8853   33.8992   43.8247 H   0  0  0  0  0  0  0  0  0  0  0  0
   55.9568   31.9944   43.9372 H   0  0  0  0  0  0  0  0  0  0  0  0
   57.6314   31.6789   43.3401 H   0  0  0  0  0  0  0  0  0  0  0  0
   59.3443   31.0741   46.9507 H   0  0  0  0  0  0  0  0  0  0  0  0
   61.2093   29.4160   46.9891 H   0  0  0  0  0  0  0  0  0  0  0  0
   61.2026   27.4861   45.4055 H   0  0  0  0  0  0  0  0  0  0  0  0
   59.3195   27.2033   43.7904 H   0  0  0  0  0  0  0  0  0  0  0  0
   57.4466   28.8493   43.7515 H   0  0  0  0  0  0  0  0  0  0  0  0
   59.2937   34.4440   48.6862 H   0  0  0  0  0  0  0  0  0  0  0  0
   61.1278   34.1103   50.3307 H   0  0  0  0  0  0  0  0  0  0  0  0
  1  2  1  0
  2  3  1  0
  2  4  1  0
  4  5  2  0
  5  6  1  0
  6  7  2  0
  7  8  1  0
  8  9  2  0
  8 10  1  0
 10 11  1  0
 11 12  1  0
 12 13  1  0
 13 14  1  0
 14 15  2  0
 15 16  1  0
 16 17  2  0
 17 18  1  0
 18 19  2  0
  7 20  1  0
 20 21  2  0
 21  4  1  0
 19 14  1  0
  1 22  1  0
  1 23  1  0
  1 24  1  0
  3 25  1  0
  3 26  1  0
  3 27  1  0
  5 28  1  0
  6 29  1  0
 10 30  1  0
 11 31  1  0
 11 32  1  0
 12 33  1  0
 12 34  1  0
 15 35  1  0
 16 36  1  0
 17 37  1  0
 18 38  1  0
 19 39  1  0
 20 40  1  0
 21 41  1  0
M  END
>  <UniqueID>  (13) 
13

>  <SMILES>  (13) 
CN(C)c1ccc(C(=O)NCCOc2ccccc2)cc1

>  <Energy>  (13) 
41.735630236380786

>  <Genealogy>  (13) 
CN(C)c1ccc(C(=O)NCCOc2ccccc2)cc1 (3D coordinates assigned)
CN(C)c1ccc(C(=O)NCCOc2ccccc2)cc1 (optimized conformer: 41.735630236380786 kcal/mol)

>  <smiles>  (13) 
CN(C)c1ccc(C(=O)NCCOc2ccccc2)cc1

>  <score_type>  (13) 
oracle

>  <origin>  (13) 
adg

>  <m_score__min__energy>  (13) 
-6.5300000000000002

>  <m_primary>  (13) 
energy

$$$$
13:0
     RDKit          3D

 56 60  0  0  0  0  0  0  0  0999 V2000
   57.4752   32.4075   54.1061 H   0  0  0  0  0  0  0  0  0  0  0  0
   57.7500   32.4070   53.0410 C   0  0  0  0  0  0  0  0  0  0  0  0
   58.9470   33.3510   52.3310 S   0  0  0  0  0  0  0  0  0  0  0  0
   58.6810   32.7180   50.7940 C   0  0  0  0  0  0  0  0  0  0  0  0
   59.2930   33.0650   49.6990 N   0  0  0  0  0  0  0  0  0  0  0  0
   59.4780   32.2530   48.5310 C   0  0  0  0  0  0  0  0  0  0  0  0
   60.0540   31.1420   48.6610 O   0  0  0  0  0  0  0  0  0  0  0  0
   59.0640   32.6980   47.1750 C   0  0  0  0  0  0  0  0  0  0  0  0
   58.0630   31.9780   46.5020 C   0  0  0  0  0  0  0  0  0  0  0  0
   57.6334   31.0799   46.9698 H   0  0  0  0  0  0  0  0  0  0  0  0
   57.6030   32.3890   45.2400 C   0  0  0  0  0  0  0  0  0  0  0  0
   56.6180   31.6490   44.5090 N   0  0  0  0  0  0  0  0  0  0  0  0
   56.6040   29.9240   44.3040 S   0  0  0  0  0  0  0  0  0  0  0  0
   55.3460   29.3280   44.8750 O   0  0  0  0  0  0  0  0  0  0  0  0
   56.6370   29.6180   42.8330 O   0  0  0  0  0  0  0  0  0  0  0  0
   58.0280   29.2160   45.0680 C   0  0  0  0  0  0  0  0  0  0  0  0
   57.9010   28.4450   46.2380 C   0  0  0  0  0  0  0  0  0  0  0  0
   56.9064   28.2729   46.6752 H   0  0  0  0  0  0  0  0  0  0  0  0
   59.0330   27.8970   46.8470 C   0  0  0  0  0  0  0  0  0  0  0  0
   58.9301   27.3026   47.7669 H   0  0  0  0  0  0  0  0  0  0  0  0
   60.2960   28.1050   46.2860 C   0  0  0  0  0  0  0  0  0  0  0  0
   61.1866   27.6683   46.7616 H   0  0  0  0  0  0  0  0  0  0  0  0
   60.4300   28.8680   45.1200 C   0  0  0  0  0  0  0  0  0  0  0  0
   61.4250   29.0249   44.6781 H   0  0  0  0  0  0  0  0  0  0  0  0
   59.3020   29.4310   44.5160 C   0  0  0  0  0  0  0  0  0  0  0  0
   59.4119   30.0425   43.6083 H   0  0  0  0  0  0  0  0  0  0  0  0
   58.1090   33.5650   44.6790 C   0  0  0  0  0  0  0  0  0  0  0  0
   57.7050   33.9337   43.7246 H   0  0  0  0  0  0  0  0  0  0  0  0
   59.1240   34.2740   45.3230 C   0  0  0  0  0  0  0  0  0  0  0  0
   59.5178   35.1953   44.8690 H   0  0  0  0  0  0  0  0  0  0  0  0
   59.6450   33.8240   46.5400 C   0  0  0  0  0  0  0  0  0  0  0  0
   60.7330   34.5150   47.0910 O   0  0  0  0  0  0  0  0  0  0  0  0
   61.8670   33.8990   47.6430 C   0  0  0  0  0  0  0  0  0  0  0  0
   62.1400   33.9230   49.0210 C   0  0  0  0  0  0  0  0  0  0  0  0
   61.4466   34.4264   49.7107 H   0  0  0  0  0  0  0  0  0  0  0  0
   63.2910   33.3080   49.5140 C   0  0  0  0  0  0  0  0  0  0  0  0
   63.5136   33.3292   50.5910 H   0  0  0  0  0  0  0  0  0  0  0  0
   64.1570   32.6660   48.6290 C   0  0  0  0  0  0  0  0  0  0  0  0
   65.0743   32.1904   49.0063 H   0  0  0  0  0  0  0  0  0  0  0  0
   63.8690   32.6270   47.2990 N   0  0  0  0  0  0  0  0  0  0  0  0
   64.5190   32.1310   46.6490 H   0  0  0  0  0  0  0  0  0  0  0  0
   62.7510   33.2220   46.7960 C   0  0  0  0  0  0  0  0  0  0  0  0
   62.5423   33.1697   45.7173 H   0  0  0  0  0  0  0  0  0  0  0  0
   57.6810   31.8130   50.7970 N   0  0  0  0  0  0  0  0  0  0  0  0
   57.1640   31.6210   52.0430 C   0  0  0  0  0  0  0  0  0  0  0  0
   56.0670   30.6470   52.2840 C   0  0  0  0  0  0  0  0  0  0  0  0
   56.2980   29.5190   53.0940 C   0  0  0  0  0  0  0  0  0  0  0  0
   57.2965   29.3515   53.5241 H   0  0  0  0  0  0  0  0  0  0  0  0
   55.2700   28.6110   53.3560 C   0  0  0  0  0  0  0  0  0  0  0  0
   55.4629   27.7294   53.9849 H   0  0  0  0  0  0  0  0  0  0  0  0
   53.9960   28.8210   52.8200 C   0  0  0  0  0  0  0  0  0  0  0  0
   53.1852   28.1091   53.0340 H   0  0  0  0  0  0  0  0  0  0  0  0
   53.7530   29.9330   52.0140 C   0  0  0  0  0  0  0  0  0  0  0  0
   52.7521   30.0926   51.5866 H   0  0  0  0  0  0  0  0  0  0  0  0
   54.7780   30.8450   51.7480 C   0  0  0  0  0  0  0  0  0  0  0  0
   54.5778   31.7230   51.1163 H   0  0  0  0  0  0  0  0  0  0  0  0
  1  2  1  0
  2  3  1  0
  3  4  1  0
  4  5  2  0
  5  6  1  0
  6  7  2  0
  6  8  1  0
  8  9  2  0
  9 10  1  0
  9 11  1  0
 11 12  1  0
 12 13  1  0
 13 14  2  0
 13 15  2  0
 13 16  1  0
 16 17  2  0
 17 18  1  0
 17 19  1  0
 19 20  1  0
 19 21  2  0
 21 22  1  0
 21 23  1  0
 23 24  1  0
 23 25  2  0
 25 26  1  0
 11 27  2  0
 27 28  1  0
 27 29  1  0
 29 30  1  0
 29 31  2  0
 31 32  1  0
 32 33  1  0
 33 34  2  0
 34 35  1  0
 34 36  1  0
 36 37  1  0
 36 38  2  0
 38 39  1  0
 38 40  1  0
 40 41  1  0
 40 42  2  0
 42 43  1  0
  4 44  1  0
 44 45  1  0
 45 46  1  0
 46 47  2  0
 47 48  1  0
 47 49  1  0
 49 50  1  0
 49 51  2  0
 51 52  1  0
 51 53  1  0
 53 54  1  0
 53 55  2  0
 55 56  1  0
 45  2  2  0
 55 46  1  0
 31  8  1  0
 42 33  1  0
 25 16  1  0
M  CHG  3  12  -1  40   1  44  -1
M  END
>  <UniqueID>  (14) 
14

>  <SMILES>  (14) 
O=C(/N=c1/[n-]c(-c2ccccc2)cs1)c1cc([N-]S(=O)(=O)c2ccccc2)ccc1Oc1ccc[nH+]c1

>  <Energy>  (14) 
116.89075262749978

>  <Genealogy>  (14) 
O=C(N=c1[n-]c(-c2ccccc2)cs1)c1cc([N-]S(=O)(=O)c2ccccc2)ccc1Oc1ccc[nH+]c1 (protonated)
O=C(/N=c1/[n-]c(-c2ccccc2)cs1)c1cc([N-]S(=O)(=O)c2ccccc2)ccc1Oc1ccc[nH+]c1 (cis-trans isomerization)
O=C(/N=c1/[n-]c(-c2ccccc2)cs1)c1cc([N-]S(=O)(=O)c2ccccc2)ccc1Oc1ccc[nH+]c1 (3D coordinates assigned)
O=C(/N=c1/[n-]c(-c2ccccc2)cs1)c1cc([N-]S(=O)(=O)c2ccccc2)ccc1Oc1ccc[nH+]c1 (optimized conformer: 116.89075262749978 kcal/mol)

>  <smiles>  (14) 
O=C(N=c1[nH]c(-c2ccccc2)cs1)c1cc(NS(=O)(=O)c2ccccc2)ccc1Oc1cccnc1

>  <score_type>  (14) 
oracle

>  <origin>  (14) 
adg

>  <m_score__min__energy>  (14) 
-12.380000000000001

>  <m_primary>  (14) 
energy

$$$$
14:0
     RDKit          3D

 49 50  0  0  0  0  0  0  0  0999 V2000
   58.4910   33.4570   44.0840 C   0  0  0  0  0  0  0  0  0  0  0  0
   58.0800   34.3420   45.2600 C   0  0  0  0  0  0  0  0  0  0  0  0
   57.3810   33.5420   46.3670 C   0  0  0  0  0  0  0  0  0  0  0  0
   58.3230   32.6450   47.0570 N   0  0  0  0  0  0  0  0  0  0  0  0
   59.1270   33.1590   48.1770 C   0  0  0  0  0  0  0  0  0  0  0  0
   60.5920   33.1440   47.8240 C   0  0  0  0  0  0  0  0  0  0  0  0
   61.0610   33.8370   46.6980 C   0  0  0  0  0  0  0  0  0  0  0  0
   62.4240   33.8410   46.3920 C   0  0  0  0  0  0  0  0  0  0  0  0
   63.3270   33.1510   47.2050 C   0  0  0  0  0  0  0  0  0  0  0  0
   62.8780   32.4530   48.3320 C   0  0  0  0  0  0  0  0  0  0  0  0
   63.8250   31.7770   49.1170 O   0  0  0  0  0  0  0  0  0  0  0  0
   64.9460   32.3980   49.7360 C   0  0  0  0  0  0  0  0  0  0  0  0
   61.5030   32.4530   48.6390 C   0  0  0  0  0  0  0  0  0  0  0  0
   58.4880   31.2800   46.6170 C   0  0  0  0  0  0  0  0  0  0  0  0
   59.2430   30.4090   47.3370 N   0  0  0  0  0  0  0  0  0  0  0  0
   59.3990   29.1250   46.9250 C   0  0  0  0  0  0  0  0  0  0  0  0
   60.2610   28.1920   47.7120 C   0  0  0  0  0  0  0  0  0  0  0  0
   58.8050   28.7070   45.7740 N   0  0  0  0  0  0  0  0  0  0  0  0
   58.0340   29.5690   45.0570 C   0  0  0  0  0  0  0  0  0  0  0  0
   57.3860   29.1330   43.7740 C   0  0  0  0  0  0  0  0  0  0  0  0
   56.0030   29.7680   43.6090 C   0  0  0  0  0  0  0  0  0  0  0  0
   55.2550   29.7160   44.8620 N   0  0  0  0  0  0  0  0  0  0  0  0
   57.8900   30.8520   45.4750 N   0  0  0  0  0  0  0  0  0  0  0  0
   58.9258   32.5208   44.4641 H   0  0  0  0  0  0  0  0  0  0  0  0
   57.6069   33.2283   43.4707 H   0  0  0  0  0  0  0  0  0  0  0  0
   59.2361   33.9849   43.4707 H   0  0  0  0  0  0  0  0  0  0  0  0
   58.9800   34.8158   45.6790 H   0  0  0  0  0  0  0  0  0  0  0  0
   57.3703   35.0947   44.8860 H   0  0  0  0  0  0  0  0  0  0  0  0
   56.9523   34.2425   47.0988 H   0  0  0  0  0  0  0  0  0  0  0  0
   56.5927   32.9286   45.9063 H   0  0  0  0  0  0  0  0  0  0  0  0
   58.8188   34.1910   48.4005 H   0  0  0  0  0  0  0  0  0  0  0  0
   58.9656   32.5170   49.0555 H   0  0  0  0  0  0  0  0  0  0  0  0
   60.3530   34.3791   46.0539 H   0  0  0  0  0  0  0  0  0  0  0  0
   62.7870   34.3883   45.5095 H   0  0  0  0  0  0  0  0  0  0  0  0
   64.3988   33.1564   46.9574 H   0  0  0  0  0  0  0  0  0  0  0  0
   64.8402   32.3394   50.8293 H   0  0  0  0  0  0  0  0  0  0  0  0
   65.8673   31.8816   49.4286 H   0  0  0  0  0  0  0  0  0  0  0  0
   64.9969   33.4529   49.4286 H   0  0  0  0  0  0  0  0  0  0  0  0
   61.1407   31.9080   49.5231 H   0  0  0  0  0  0  0  0  0  0  0  0
   60.1019   28.3643   48.7867 H   0  0  0  0  0  0  0  0  0  0  0  0
   59.9982   27.1530   47.4643 H   0  0  0  0  0  0  0  0  0  0  0  0
   61.3175   28.3720   47.4643 H   0  0  0  0  0  0  0  0  0  0  0  0
   58.9400   27.7250   45.4440 H   0  0  0  0  0  0  0  0  0  0  0  0
   58.0228   29.4353   42.9295 H   0  0  0  0  0  0  0  0  0  0  0  0
   57.2669   28.0397   43.7978 H   0  0  0  0  0  0  0  0  0  0  0  0
   56.1225   30.8180   43.3038 H   0  0  0  0  0  0  0  0  0  0  0  0
   55.4470   29.2072   42.8432 H   0  0  0  0  0  0  0  0  0  0  0  0
   55.8790   30.0730   45.6220 H   0  0  0  0  0  0  0  0  0  0  0  0
   54.4540   30.3870   44.7950 H   0  0  0  0  0  0  0  0  0  0  0  0
  1  2  1  0
  2  3  1  0
  3  4  1  0
  4  5  1  0
  5  6  1  0
  6  7  2  0
  7  8  1  0
  8  9  2  0
  9 10  1  0
 10 11  1  0
 11 12  1  0
 10 13  2  0
  4 14  1  0
 14 15  2  0
 15 16  1  0
 16 17  1  0
 16 18  2  0
 18 19  1  0
 19 20  1  0
 20 21  1  0
 21 22  1  0
 19 23  2  0
 13  6  1  0
 23 14  1  0
  1 24  1  0
  1 25  1  0
  1 26  1  0
  2 27  1  0
  2 28  1  0
  3 29  1  0
  3 30  1  0
  5 31  1  0
  5 32  1  0
  7 33  1  0
  8 34  1  0
  9 35  1  0
 12 36  1  0
 12 37  1  0
 12 38  1  0
 13 39  1  0
 17 40  1  0
 17 41  1  0
 17 42  1  0
 18 43  1  0
 20 44  1  0
 20 45  1  0
 21 46  1  0
 21 47  1  0
 22 48  1  0
 22 49  1  0
M  CHG  1  18   1
M  END
>  <UniqueID>  (15) 
15

>  <SMILES>  (15) 
CCCN(Cc1cccc(OC)c1)c1nc(C)[nH+]c(CCN)n1

>  <Energy>  (15) 
33.641713446472146

>  <Genealogy>  (15) 
CCCN(Cc1cccc(OC)c1)c1nc(C)[nH+]c(CCN)n1 (protonated)
CCCN(Cc1cccc(OC)c1)c1nc(C)[nH+]c(CCN)n1 (3D coordinates assigned)
CCCN(Cc1cccc(OC)c1)c1nc(C)[nH+]c(CCN)n1 (optimized conformer: 33.641713446472146 kcal/mol)

>  <smiles>  (15) 
CCCN(Cc1cccc(OC)c1)c1nc(C)nc(CCN)n1

>  <score_type>  (15) 
oracle

>  <origin>  (15) 
adg

>  <m_score__min__energy>  (15) 
-6.1399999999999997

>  <m_primary>  (15) 
energy

$$$$
15:0
     RDKit          3D

 50 53  0  0  0  0  0  0  0  0999 V2000
   60.4587   27.5371   46.6670 H   0  0  0  0  0  0  0  0  0  0  0  0
   59.5900   28.0960   47.0450 C   0  0  0  0  0  0  0  0  0  0  0  0
   59.3610   28.0840   48.3650 C   0  0  0  0  0  0  0  0  0  0  0  0
   58.6758   27.3354   48.7895 H   0  0  0  0  0  0  0  0  0  0  0  0
   60.0250   29.0760   49.2720 C   0  0  0  0  0  0  0  0  0  0  0  0
   61.0495   28.7408   49.4909 H   0  0  0  0  0  0  0  0  0  0  0  0
   59.4500   29.1523   50.2067 H   0  0  0  0  0  0  0  0  0  0  0  0
   60.0720   30.3930   48.6260 N   0  0  0  0  0  0  0  0  0  0  0  0
   61.3160   30.8650   48.0910 C   0  0  0  0  0  0  0  0  0  0  0  0
   61.8810   30.2010   47.1800 O   0  0  0  0  0  0  0  0  0  0  0  0
   62.0130   32.0310   48.6780 C   0  0  0  0  0  0  0  0  0  0  0  0
   61.3450   33.2150   49.0700 C   0  0  0  0  0  0  0  0  0  0  0  0
   62.0670   34.2540   49.5780 N   0  0  0  0  0  0  0  0  0  0  0  0
   63.4130   34.1940   49.7430 C   0  0  0  0  0  0  0  0  0  0  0  0
   63.9535   35.0513   50.1708 H   0  0  0  0  0  0  0  0  0  0  0  0
   64.1090   33.0480   49.3710 C   0  0  0  0  0  0  0  0  0  0  0  0
   65.2000   32.9928   49.5004 H   0  0  0  0  0  0  0  0  0  0  0  0
   63.4080   31.9720   48.8330 C   0  0  0  0  0  0  0  0  0  0  0  0
   63.9520   31.0665   48.5262 H   0  0  0  0  0  0  0  0  0  0  0  0
   59.9340   33.3960   48.8590 N   0  0  0  0  0  0  0  0  0  0  0  0
   59.4580   34.6360   48.2290 C   0  0  0  0  0  0  0  0  0  0  0  0
   58.6981   35.1029   48.8729 H   0  0  0  0  0  0  0  0  0  0  0  0
   60.3078   35.3216   48.0958 H   0  0  0  0  0  0  0  0  0  0  0  0
   58.8550   34.3340   46.8880 C   0  0  0  0  0  0  0  0  0  0  0  0
   57.6090   33.7900   46.8170 N   0  0  0  0  0  0  0  0  0  0  0  0
   56.9980   33.5460   45.6270 C   0  0  0  0  0  0  0  0  0  0  0  0
   55.9935   33.0982   45.6061 H   0  0  0  0  0  0  0  0  0  0  0  0
   57.6460   33.8640   44.4310 C   0  0  0  0  0  0  0  0  0  0  0  0
   57.1577   33.6682   43.4650 H   0  0  0  0  0  0  0  0  0  0  0  0
   58.9200   34.4330   44.4750 C   0  0  0  0  0  0  0  0  0  0  0  0
   59.4414   34.6909   43.5414 H   0  0  0  0  0  0  0  0  0  0  0  0
   59.5310   34.6740   45.7080 C   0  0  0  0  0  0  0  0  0  0  0  0
   60.5328   35.1262   45.7524 H   0  0  0  0  0  0  0  0  0  0  0  0
   58.9800   32.4430   49.4290 C   0  0  0  0  0  0  0  0  0  0  0  0
   59.3257   32.1372   50.4275 H   0  0  0  0  0  0  0  0  0  0  0  0
   57.9940   32.9251   49.5019 H   0  0  0  0  0  0  0  0  0  0  0  0
   58.8640   31.2120   48.5390 C   0  0  0  0  0  0  0  0  0  0  0  0
   57.9989   30.6140   48.8614 H   0  0  0  0  0  0  0  0  0  0  0  0
   58.7351   31.5409   47.4972 H   0  0  0  0  0  0  0  0  0  0  0  0
   58.7450   28.8160   46.0620 C   0  0  0  0  0  0  0  0  0  0  0  0
   59.2570   29.9820   45.4650 C   0  0  0  0  0  0  0  0  0  0  0  0
   60.2569   30.3451   45.7450 H   0  0  0  0  0  0  0  0  0  0  0  0
   58.5040   30.6830   44.5180 C   0  0  0  0  0  0  0  0  0  0  0  0
   58.9105   31.5977   44.0619 H   0  0  0  0  0  0  0  0  0  0  0  0
   57.2380   30.2250   44.1500 C   0  0  0  0  0  0  0  0  0  0  0  0
   56.6455   30.7811   43.4085 H   0  0  0  0  0  0  0  0  0  0  0  0
   56.7240   29.0600   44.7240 C   0  0  0  0  0  0  0  0  0  0  0  0
   55.7281   28.6971   44.4299 H   0  0  0  0  0  0  0  0  0  0  0  0
   57.4720   28.3530   45.6720 C   0  0  0  0  0  0  0  0  0  0  0  0
   57.0649   27.4320   46.1148 H   0  0  0  0  0  0  0  0  0  0  0  0
  1  2  1  0
  2  3  2  0
  3  4  1  0
  3  5  1  0
  5  6  1  0
  5  7  1  0
  5  8  1  0
  8  9  1  0
  9 10  2  0
  9 11  1  0
 11 12  2  0
 12 13  1  0
 13 14  2  0
 14 15  1  0
 14 16  1  0
 16 17  1  0
 16 18  2  0
 18 19  1  0
 12 20  1  0
 20 21  1  0
 21 22  1  0
 21 23  1  0
 21 24  1  0
 24 25  2  0
 25 26  1  0
 26 27  1  0
 26 28  2  0
 28 29  1  0
 28 30  1  0
 30 31  1  0
 30 32  2  0
 32 33  1  0
 20 34  1  0
 34 35  1  0
 34 36  1  0
 34 37  1  0
 37 38  1  0
 37 39  1  0
  2 40  1  0
 40 41  2  0
 41 42  1  0
 41 43  1  0
 43 44  1  0
 43 45  2  0
 45 46  1  0
 45 47  1  0
 47 48  1  0
 47 49  2  0
 49 50  1  0
 37  8  1  0
 49 40  1  0
 18 11  1  0
 32 24  1  0
M  END
>  <UniqueID>  (16) 
16

>  <SMILES>  (16) 
O=C1c2cccnc2N(Cc2ccccn2)CCN1C/C=C/c1ccccc1

>  <Energy>  (16) 
64.00050686129245

>  <Genealogy>  (16) 
O=C1c2cccnc2N(Cc2ccccn2)CCN1C/C=C/c1ccccc1 (cis-trans isomerization)
O=C1c2cccnc2N(Cc2ccccn2)CCN1C/C=C/c1ccccc1 (3D coordinates assigned)
O=C1c2cccnc2N(Cc2ccccn2)CCN1C/C=C/c1ccccc1 (nonaromatic ring conformer: 64.00050686129245 kcal/mol)

>  <smiles>  (16) 
O=C1c2cccnc2N(Cc2ccccn2)CCN1CC=Cc1ccccc1

>  <score_type>  (16) 
oracle

>  <origin>  (16) 
adg

>  <m_score__min__energy>  (16) 
-5.9299999999999997

>  <m_primary>  (16) 
energy

$$$$
16:0
     RDKit          3D

 40 41  0  0  0  0  0  0  0  0999 V2000
   57.3930   24.7880   43.5570 C   0  0  0  0  0  0  0  0  0  0  0  0
   57.5210   24.4540   45.0410 C   0  0  0  0  0  0  0  0  0  0  0  0
   58.2660   25.5430   45.7870 C   0  0  0  0  0  0  0  0  0  0  0  0
   59.6280   25.3260   46.0780 C   0  0  0  0  0  0  0  0  0  0  0  0
   60.3940   26.3140   46.6930 C   0  0  0  0  0  0  0  0  0  0  0  0
   59.8220   27.5420   47.0150 C   0  0  0  0  0  0  0  0  0  0  0  0
   58.4800   27.7850   46.7270 C   0  0  0  0  0  0  0  0  0  0  0  0
   57.6800   26.7980   46.1200 C   0  0  0  0  0  0  0  0  0  0  0  0
   56.2640   27.1350   45.8380 C   0  0  0  0  0  0  0  0  0  0  0  0
   55.3360   26.3360   46.1370 O   0  0  0  0  0  0  0  0  0  0  0  0
   55.9460   28.3980   45.2460 N   0  0  0  0  0  0  0  0  0  0  0  0
   56.7180   28.9850   44.1590 C   0  0  0  0  0  0  0  0  0  0  0  0
   56.6280   30.5160   44.2070 C   0  0  0  0  0  0  0  0  0  0  0  0
   57.9630   31.1580   44.1300 N   0  0  0  0  0  0  0  0  0  0  0  0
   57.8670   32.5910   43.7550 C   0  0  0  0  0  0  0  0  0  0  0  0
   57.8030   33.5250   44.9820 C   0  0  0  0  0  0  0  0  0  0  0  0
   57.2810   32.8470   46.1030 O   0  0  0  0  0  0  0  0  0  0  0  0
   58.1820   31.8410   46.5310 C   0  0  0  0  0  0  0  0  0  0  0  0
   58.7620   31.0070   45.3640 C   0  0  0  0  0  0  0  0  0  0  0  0
   57.0015   25.8097   43.4436 H   0  0  0  0  0  0  0  0  0  0  0  0
   58.3813   24.7189   43.0790 H   0  0  0  0  0  0  0  0  0  0  0  0
   56.7040   24.0761   43.0790 H   0  0  0  0  0  0  0  0  0  0  0  0
   56.5148   24.3476   45.4727 H   0  0  0  0  0  0  0  0  0  0  0  0
   58.0869   23.5158   45.1388 H   0  0  0  0  0  0  0  0  0  0  0  0
   60.0923   24.3638   45.8161 H   0  0  0  0  0  0  0  0  0  0  0  0
   61.4524   26.1236   46.9246 H   0  0  0  0  0  0  0  0  0  0  0  0
   60.4301   28.3215   47.4974 H   0  0  0  0  0  0  0  0  0  0  0  0
   58.0398   28.7615   46.9774 H   0  0  0  0  0  0  0  0  0  0  0  0
   57.7705   28.6803   44.2559 H   0  0  0  0  0  0  0  0  0  0  0  0
   56.3100   28.6329   43.2001 H   0  0  0  0  0  0  0  0  0  0  0  0
   56.0190   30.8619   43.3588 H   0  0  0  0  0  0  0  0  0  0  0  0
   56.1725   30.7977   45.1678 H   0  0  0  0  0  0  0  0  0  0  0  0
   58.7498   32.8577   43.1554 H   0  0  0  0  0  0  0  0  0  0  0  0
   56.9342   32.7240   43.1873 H   0  0  0  0  0  0  0  0  0  0  0  0
   58.8168   33.8817   45.2166 H   0  0  0  0  0  0  0  0  0  0  0  0
   57.1432   34.3726   44.7449 H   0  0  0  0  0  0  0  0  0  0  0  0
   59.0149   32.3216   47.0652 H   0  0  0  0  0  0  0  0  0  0  0  0
   57.6197   31.1517   47.1780 H   0  0  0  0  0  0  0  0  0  0  0  0
   59.7909   31.3411   45.1648 H   0  0  0  0  0  0  0  0  0  0  0  0
   58.7397   29.9472   45.6577 H   0  0  0  0  0  0  0  0  0  0  0  0
  1  2  1  0
  2  3  1  0
  3  4  2  0
  4  5  1  0
  5  6  2  0
  6  7  1  0
  7  8  2  0
  8  9  1  0
  9 10  2  0
  9 11  1  0
 11 12  1  0
 12 13  1  0
 13 14  1  0
 14 15  1  0
 15 16  1  0
 16 17  1  0
 17 18  1  0
 18 19  1  0
  8  3  1  0
 19 14  1  0
  1 20  1  0
  1 21  1  0
  1 22  1  0
  2 23  1  0
  2 24  1  0
  4 25  1  0
  5 26  1  0
  6 27  1  0
  7 28  1  0
 12 29  1  0
 12 30  1  0
 13 31  1  0
 13 32  1  0
 15 33  1  0
 15 34  1  0
 16 35  1  0
 16 36  1  0
 18 37  1  0
 18 38  1  0
 19 39  1  0
 19 40  1  0
M  CHG  1  11  -1
M  END
>  <UniqueID>  (17) 
17

>  <SMILES>  (17) 
CCc1ccccc1C(=O)[N-]CCN1CCOCC1

>  <Energy>  (17) 
52.4347066362008

>  <Genealogy>  (17) 
CCc1ccccc1C(=O)[N-]CCN1CCOCC1 (protonated)
CCc1ccccc1C(=O)[N-]CCN1CCOCC1 (3D coordinates assigned)
CCc1ccccc1C(=O)[N-]CCN1CCOCC1 (nonaromatic ring conformer: 52.4347066362008 kcal/mol)

>  <smiles>  (17) 
CCc1ccccc1C(=O)NCCN1CCOCC1

>  <score_type>  (17) 
oracle

>  <origin>  (17) 
adg

>  <m_score__min__energy>  (17) 
-8.5999999999999996

>  <m_primary>  (17) 
energy

$$$$
17:0
     RDKit          3D

 37 39  0  0  0  0  0  0  0  0999 V2000
   57.4940   31.1530   54.0030 C   0  0  0  0  0  0  0  0  0  0  0  0
   57.0300   31.0220   52.2900 S   0  0  0  0  0  0  0  0  0  0  0  0
   56.5760   29.6190   51.9980 O   0  0  0  0  0  0  0  0  0  0  0  0
   55.8970   31.9660   52.0030 O   0  0  0  0  0  0  0  0  0  0  0  0
   58.4130   31.4230   51.2790 C   0  0  0  0  0  0  0  0  0  0  0  0
   58.7370   32.7630   51.0280 C   0  0  0  0  0  0  0  0  0  0  0  0
   59.8410   33.0830   50.2320 C   0  0  0  0  0  0  0  0  0  0  0  0
   60.6310   32.0670   49.6720 C   0  0  0  0  0  0  0  0  0  0  0  0
   61.8010   32.4190   48.8370 C   0  0  0  0  0  0  0  0  0  0  0  0
   63.0420   32.2270   49.3590 N   0  0  0  0  0  0  0  0  0  0  0  0
   64.1650   32.4770   48.6390 C   0  0  0  0  0  0  0  0  0  0  0  0
   64.0680   32.9240   47.3620 N   0  0  0  0  0  0  0  0  0  0  0  0
   62.8570   33.1480   46.7930 C   0  0  0  0  0  0  0  0  0  0  0  0
   61.6780   32.9170   47.5170 C   0  0  0  0  0  0  0  0  0  0  0  0
   60.3720   33.2570   46.9030 C   0  0  0  0  0  0  0  0  0  0  0  0
   60.1340   34.5480   46.3980 C   0  0  0  0  0  0  0  0  0  0  0  0
   58.8990   34.8650   45.8240 C   0  0  0  0  0  0  0  0  0  0  0  0
   57.8970   33.8940   45.7380 C   0  0  0  0  0  0  0  0  0  0  0  0
   56.7000   34.2030   45.1810 F   0  0  0  0  0  0  0  0  0  0  0  0
   58.1300   32.6050   46.2250 C   0  0  0  0  0  0  0  0  0  0  0  0
   59.3630   32.2850   46.8000 C   0  0  0  0  0  0  0  0  0  0  0  0
   60.3200   30.7250   49.9520 C   0  0  0  0  0  0  0  0  0  0  0  0
   59.2150   30.4060   50.7460 C   0  0  0  0  0  0  0  0  0  0  0  0
   56.6289   30.9087   54.6369 H   0  0  0  0  0  0  0  0  0  0  0  0
   58.3140   30.4513   54.2155 H   0  0  0  0  0  0  0  0  0  0  0  0
   57.8259   32.1800   54.2155 H   0  0  0  0  0  0  0  0  0  0  0  0
   58.1207   33.5659   51.4587 H   0  0  0  0  0  0  0  0  0  0  0  0
   60.0919   34.1373   50.0435 H   0  0  0  0  0  0  0  0  0  0  0  0
   65.1548   32.3170   49.0915 H   0  0  0  0  0  0  0  0  0  0  0  0
   64.9380   33.1100   46.8140 H   0  0  0  0  0  0  0  0  0  0  0  0
   62.7993   33.5132   45.7570 H   0  0  0  0  0  0  0  0  0  0  0  0
   60.9233   35.3120   46.4549 H   0  0  0  0  0  0  0  0  0  0  0  0
   58.7157   35.8793   45.4398 H   0  0  0  0  0  0  0  0  0  0  0  0
   57.3417   31.8410   46.1557 H   0  0  0  0  0  0  0  0  0  0  0  0
   59.5443   31.2665   47.1739 H   0  0  0  0  0  0  0  0  0  0  0  0
   60.9501   29.9211   49.5437 H   0  0  0  0  0  0  0  0  0  0  0  0
   58.9744   29.3528   50.9530 H   0  0  0  0  0  0  0  0  0  0  0  0
  1  2  1  0
  2  3  2  0
  2  4  2  0
  2  5  1  0
  5  6  2  0
  6  7  1  0
  7  8  2  0
  8  9  1  0
  9 10  2  0
 10 11  1  0
 11 12  2  0
 12 13  1  0
 13 14  2  0
 14 15  1  0
 15 16  2  0
 16 17  1  0
 17 18  2  0
 18 19  1  0
 18 20  1  0
 20 21  2  0
  8 22  1  0
 22 23  2  0
 23  5  1  0
 14  9  1  0
 21 15  1  0
  1 24  1  0
  1 25  1  0
  1 26  1  0
  6 27  1  0
  7 28  1  0
 11 29  1  0
 12 30  1  0
 13 31  1  0
 16 32  1  0
 17 33  1  0
 20 34  1  0
 21 35  1  0
 22 36  1  0
 23 37  1  0
M  CHG  1  12   1
M  END
>  <UniqueID>  (18) 
18

>  <SMILES>  (18) 
CS(=O)(=O)c1ccc(-c2nc[nH+]cc2-c2ccc(F)cc2)cc1

>  <Energy>  (18) 
49.257175323682915

>  <Genealogy>  (18) 
CS(=O)(=O)c1ccc(-c2nc[nH+]cc2-c2ccc(F)cc2)cc1 (protonated)
CS(=O)(=O)c1ccc(-c2nc[nH+]cc2-c2ccc(F)cc2)cc1 (3D coordinates assigned)
CS(=O)(=O)c1ccc(-c2nc[nH+]cc2-c2ccc(F)cc2)cc1 (optimized conformer: 49.257175323682915 kcal/mol)

>  <smiles>  (18) 
CS(=O)(=O)c1ccc(-c2ncncc2-c2ccc(F)cc2)cc1

>  <score_type>  (18) 
oracle

>  <origin>  (18) 
adg

>  <m_score__min__energy>  (18) 
-6.4500000000000002

>  <m_primary>  (18) 
energy

$$$$
18:0
     RDKit          3D

 46 49  0  0  1  0  0  0  0  0999 V2000
   60.0000   29.8930   47.7850 O   0  0  0  0  0  0  0  0  0  0  0  0
   60.4470   30.9640   48.7300 S   0  0  0  0  0  0  0  0  0  0  0  0
   61.1940   30.3120   49.8540 O   0  0  0  0  0  0  0  0  0  0  0  0
   59.1210   31.8910   49.2680 N   0  0  0  0  0  0  0  0  0  0  0  0
   58.2290   31.2350   50.1470 C   0  0  0  0  0  0  0  0  0  0  0  0
   58.5260   30.7330   51.4860 C   0  0  0  0  0  0  0  0  0  0  0  0
   57.6900   31.9890   51.3320 C   0  0  0  0  0  0  0  0  0  0  0  0
   61.5830   32.0430   47.9540 C   0  0  0  0  0  0  0  0  0  0  0  0
   62.9330   31.7850   47.8690 C   0  0  0  0  0  0  0  0  0  0  0  0
   63.7670   32.6810   47.2430 C   0  0  0  0  0  0  0  0  0  0  0  0
   63.3180   33.8570   46.6800 C   0  0  0  0  0  0  0  0  0  0  0  0
   61.9630   34.1190   46.7650 C   0  0  0  0  0  0  0  0  0  0  0  0
   61.1270   33.2140   47.3950 C   0  0  0  0  0  0  0  0  0  0  0  0
   57.1700   30.4870   45.2780 N   0  0  0  0  0  0  0  0  0  0  0  0
   57.6380   31.6870   45.3590 C   0  0  0  0  0  0  0  0  0  0  0  0
   58.6260   34.2670   45.5110 C   0  0  0  0  0  0  0  0  0  0  0  0
   57.7820   33.8890   44.4960 C   0  0  0  0  0  0  0  0  0  0  0  0
   57.3120   32.6250   44.4430 N   0  0  0  0  0  0  0  0  0  0  0  0
   58.9650   33.3090   46.4550 C   0  0  0  0  0  0  0  0  0  0  0  0
   59.7430   33.5590   47.4400 N   0  0  0  0  0  0  0  0  0  0  0  0
   58.0920   29.4310   45.5190 C   0  0  0  0  0  0  0  0  0  0  0  0
   59.3200   29.5220   44.8680 C   0  0  0  0  0  0  0  0  0  0  0  0
   60.2780   28.5390   45.0440 C   0  0  0  0  0  0  0  0  0  0  0  0
   60.0070   27.4550   45.8770 C   0  0  0  0  0  0  0  0  0  0  0  0
   60.9710   26.4960   46.0350 F   0  0  0  0  0  0  0  0  0  0  0  0
   58.7870   27.3760   46.5170 C   0  0  0  0  0  0  0  0  0  0  0  0
   57.8150   28.3610   46.3460 C   0  0  0  0  0  0  0  0  0  0  0  0
   58.4650   32.0580   46.3540 N   0  0  0  0  0  0  0  0  0  0  0  0
   58.6580   32.3350   48.4590 H   0  0  0  0  0  0  0  0  0  0  0  0
   57.8371   30.7233   49.2556 H   0  0  0  0  0  0  0  0  0  0  0  0
   58.0574   29.8025   51.8390 H   0  0  0  0  0  0  0  0  0  0  0  0
   59.4474   30.4786   52.0303 H   0  0  0  0  0  0  0  0  0  0  0  0
   56.6139   31.9719   51.5592 H   0  0  0  0  0  0  0  0  0  0  0  0
   57.7429   33.0239   51.7010 H   0  0  0  0  0  0  0  0  0  0  0  0
   63.3444   30.8614   48.3023 H   0  0  0  0  0  0  0  0  0  0  0  0
   64.8410   32.4493   47.1888 H   0  0  0  0  0  0  0  0  0  0  0  0
   64.0078   34.5563   46.1848 H   0  0  0  0  0  0  0  0  0  0  0  0
   61.5512   35.0432   46.3335 H   0  0  0  0  0  0  0  0  0  0  0  0
   59.0191   35.2925   45.5732 H   0  0  0  0  0  0  0  0  0  0  0  0
   57.4887   34.6171   43.7254 H   0  0  0  0  0  0  0  0  0  0  0  0
   56.6620   32.3110   43.6730 H   0  0  0  0  0  0  0  0  0  0  0  0
   59.5292   30.3791   44.2110 H   0  0  0  0  0  0  0  0  0  0  0  0
   61.2475   28.6127   44.5296 H   0  0  0  0  0  0  0  0  0  0  0  0
   58.5773   26.5196   47.1747 H   0  0  0  0  0  0  0  0  0  0  0  0
   56.8456   28.2868   46.8605 H   0  0  0  0  0  0  0  0  0  0  0  0
   58.7160   31.3360   47.0600 H   0  0  0  0  0  0  0  0  0  0  0  0
  1  2  2  0
  2  3  2  0
  2  4  1  0
  4  5  1  0
  5  6  1  0
  6  7  1  0
  2  8  1  0
  8  9  2  0
  9 10  1  0
 10 11  2  0
 11 12  1  0
 12 13  2  0
 13 14  1  0
 14 15  2  0
 15 16  1  0
 16 17  2  0
 17 18  1  0
 18 19  1  0
 19 20  2  0
 20 21  1  0
 21 22  2  0
 22 23  1  0
 23 24  2  0
 24 25  1  0
 24 26  1  0
 26 27  2  0
 19 28  1  0
  7  5  1  0
 13  8  1  0
 28 15  1  0
 27 21  1  0
  4 29  1  0
  5 30  1  0
  6 31  1  0
  6 32  1  0
  7 33  1  0
  7 34  1  0
  9 35  1  0
 10 36  1  0
 11 37  1  0
 12 38  1  0
 16 39  1  0
 17 40  1  0
 18 41  1  0
 22 42  1  0
 23 43  1  0
 26 44  1  0
 27 45  1  0
 28 46  1  0
M  END
>  <smiles>  (19) 
O=S(=O)(NC1CC1)c1ccccc1N=c1cc[nH]c(=Nc2ccc(F)cc2)[nH]1

>  <score_type>  (19) 
oracle

>  <origin>  (19) 
adg

>  <m_score__min__energy>  (19) 
-9

>  <m_primary>  (19) 
energy

$$$$
19:0
     RDKit          3D

 49 51  0  0  0  0  0  0  0  0999 V2000
   59.4810   34.9970   47.3350 C   0  0  0  0  0  0  0  0  0  0  0  0
   58.5430   34.9550   46.2030 N   0  0  0  0  0  0  0  0  0  0  0  0
   59.2660   34.9420   44.9210 C   0  0  0  0  0  0  0  0  0  0  0  0
   57.5620   33.8520   46.3160 C   0  0  0  0  0  0  0  0  0  0  0  0
   58.1640   32.4730   46.1390 C   0  0  0  0  0  0  0  0  0  0  0  0
   57.8930   31.7240   44.9830 C   0  0  0  0  0  0  0  0  0  0  0  0
   58.4550   30.4560   44.8150 C   0  0  0  0  0  0  0  0  0  0  0  0
   59.3030   29.9170   45.7960 C   0  0  0  0  0  0  0  0  0  0  0  0
   59.8940   28.5720   45.6260 C   0  0  0  0  0  0  0  0  0  0  0  0
   60.9540   28.4470   44.9550 O   0  0  0  0  0  0  0  0  0  0  0  0
   59.2760   27.4060   46.2020 N   0  0  0  0  0  0  0  0  0  0  0  0
   57.8250   27.2030   46.0530 C   0  0  0  0  0  0  0  0  0  0  0  0
   57.4190   25.7740   46.4250 C   0  0  0  0  0  0  0  0  0  0  0  0
   58.3660   24.8210   45.8290 N   0  0  0  0  0  0  0  0  0  0  0  0
   57.8970   23.7440   44.9950 C   0  0  0  0  0  0  0  0  0  0  0  0
   58.5700   22.5090   44.9800 C   0  0  0  0  0  0  0  0  0  0  0  0
   58.1060   21.4610   44.1800 C   0  0  0  0  0  0  0  0  0  0  0  0
   56.9650   21.6340   43.3900 C   0  0  0  0  0  0  0  0  0  0  0  0
   56.5170   20.6150   42.6150 F   0  0  0  0  0  0  0  0  0  0  0  0
   56.2860   22.8550   43.4030 C   0  0  0  0  0  0  0  0  0  0  0  0
   56.7460   23.9050   44.2030 C   0  0  0  0  0  0  0  0  0  0  0  0
   59.8120   25.0120   46.0230 C   0  0  0  0  0  0  0  0  0  0  0  0
   60.1110   26.3280   46.7500 C   0  0  0  0  0  0  0  0  0  0  0  0
   59.5510   30.6560   46.9650 C   0  0  0  0  0  0  0  0  0  0  0  0
   58.9890   31.9250   47.1330 C   0  0  0  0  0  0  0  0  0  0  0  0
   58.9174   34.9718   48.2793 H   0  0  0  0  0  0  0  0  0  0  0  0
   60.1537   34.1281   47.2862 H   0  0  0  0  0  0  0  0  0  0  0  0
   60.0734   35.9226   47.2862 H   0  0  0  0  0  0  0  0  0  0  0  0
   60.3493   34.9225   45.1112 H   0  0  0  0  0  0  0  0  0  0  0  0
   58.9784   34.0489   44.3469 H   0  0  0  0  0  0  0  0  0  0  0  0
   59.0107   35.8449   44.3469 H   0  0  0  0  0  0  0  0  0  0  0  0
   57.0982   33.9020   47.3122 H   0  0  0  0  0  0  0  0  0  0  0  0
   56.8336   33.9886   45.5031 H   0  0  0  0  0  0  0  0  0  0  0  0
   57.2345   32.1378   44.2051 H   0  0  0  0  0  0  0  0  0  0  0  0
   58.2316   29.8756   43.9077 H   0  0  0  0  0  0  0  0  0  0  0  0
   57.2957   27.9081   46.7108 H   0  0  0  0  0  0  0  0  0  0  0  0
   57.5579   27.3755   45.0000 H   0  0  0  0  0  0  0  0  0  0  0  0
   57.4289   25.6639   47.5194 H   0  0  0  0  0  0  0  0  0  0  0  0
   56.4075   25.5707   46.0434 H   0  0  0  0  0  0  0  0  0  0  0  0
   59.4665   22.3671   45.6014 H   0  0  0  0  0  0  0  0  0  0  0  0
   58.6390   20.4988   44.1718 H   0  0  0  0  0  0  0  0  0  0  0  0
   55.3878   22.9903   42.7826 H   0  0  0  0  0  0  0  0  0  0  0  0
   56.2047   24.8625   44.2131 H   0  0  0  0  0  0  0  0  0  0  0  0
   60.2063   24.1762   46.6196 H   0  0  0  0  0  0  0  0  0  0  0  0
   60.2919   25.0468   45.0338 H   0  0  0  0  0  0  0  0  0  0  0  0
   59.8951   26.2091   47.8220 H   0  0  0  0  0  0  0  0  0  0  0  0
   61.1711   26.5854   46.6092 H   0  0  0  0  0  0  0  0  0  0  0  0
   60.1915   30.2333   47.7531 H   0  0  0  0  0  0  0  0  0  0  0  0
   59.1947   32.4972   48.0497 H   0  0  0  0  0  0  0  0  0  0  0  0
  1  2  1  0
  2  3  1  0
  2  4  1  0
  4  5  1  0
  5  6  2  0
  6  7  1  0
  7  8  2  0
  8  9  1  0
  9 10  2  0
  9 11  1  0
 11 12  1  0
 12 13  1  0
 13 14  1  0
 14 15  1  0
 15 16  2  0
 16 17  1  0
 17 18  2  0
 18 19  1  0
 18 20  1  0
 20 21  2  0
 14 22  1  0
 22 23  1  0
  8 24  1  0
 24 25  2  0
 25  5  1  0
 23 11  1  0
 21 15  1  0
  1 26  1  0
  1 27  1  0
  1 28  1  0
  3 29  1  0
  3 30  1  0
  3 31  1  0
  4 32  1  0
  4 33  1  0
  6 34  1  0
  7 35  1  0
 12 36  1  0
 12 37  1  0
 13 38  1  0
 13 39  1  0
 16 40  1  0
 17 41  1  0
 20 42  1  0
 21 43  1  0
 22 44  1  0
 22 45  1  0
 23 46  1  0
 23 47  1  0
 24 48  1  0
 25 49  1  0
M  END
>  <UniqueID>  (20) 
19

>  <SMILES>  (20) 
CN(C)Cc1ccc(C(=O)N2CCN(c3ccc(F)cc3)CC2)cc1

>  <Energy>  (20) 
62.40204619181979

>  <Genealogy>  (20) 
CN(C)Cc1ccc(C(=O)N2CCN(c3ccc(F)cc3)CC2)cc1 (3D coordinates assigned)
CN(C)Cc1ccc(C(=O)N2CCN(c3ccc(F)cc3)CC2)cc1 (nonaromatic ring conformer: 62.40204619181979 kcal/mol)

>  <smiles>  (20) 
CN(C)Cc1ccc(C(=O)N2CCN(c3ccc(F)cc3)CC2)cc1

>  <score_type>  (20) 
oracle

>  <origin>  (20) 
adg

>  <m_score__min__energy>  (20) 
-6.79

>  <m_primary>  (20) 
energy

$$$$
20:0
     RDKit          3D

 29 31  0  0  0  0  0  0  0  0999 V2000
   56.6840   22.3680   43.3800 C   0  0  0  0  0  0  0  0  0  0  0  0
   56.0040   23.4040   44.0520 O   0  0  0  0  0  0  0  0  0  0  0  0
   56.6470   24.5730   44.4350 C   0  0  0  0  0  0  0  0  0  0  0  0
   56.5740   25.1010   45.7030 C   0  0  0  0  0  0  0  0  0  0  0  0
   57.2250   26.2690   46.0600 C   0  0  0  0  0  0  0  0  0  0  0  0
   57.9620   26.8950   45.0760 C   0  0  0  0  0  0  0  0  0  0  0  0
   58.6620   28.1960   45.3780 C   0  0  0  0  0  0  0  0  0  0  0  0
   59.9750   28.0520   45.8330 C   0  0  0  0  0  0  0  0  0  0  0  0
   60.5210   29.8030   46.1600 S   0  0  0  0  0  0  0  0  0  0  0  0
   58.9540   30.4950   45.6560 C   0  0  0  0  0  0  0  0  0  0  0  0
   58.6400   31.7700   45.6370 N   0  0  0  0  0  0  0  0  0  0  0  0
   57.4160   32.1350   45.2230 C   0  0  0  0  0  0  0  0  0  0  0  0
   56.5830   31.1770   44.8520 N   0  0  0  0  0  0  0  0  0  0  0  0
   56.8790   29.8370   44.8600 C   0  0  0  0  0  0  0  0  0  0  0  0
   55.9600   29.0880   44.4550 N   0  0  0  0  0  0  0  0  0  0  0  0
   58.1620   29.4280   45.2930 C   0  0  0  0  0  0  0  0  0  0  0  0
   58.0520   26.3770   43.7770 C   0  0  0  0  0  0  0  0  0  0  0  0
   57.3940   25.2090   43.4440 C   0  0  0  0  0  0  0  0  0  0  0  0
   57.1321   21.6852   44.1169 H   0  0  0  0  0  0  0  0  0  0  0  0
   55.9744   21.8123   42.7494 H   0  0  0  0  0  0  0  0  0  0  0  0
   57.4761   22.7980   42.7494 H   0  0  0  0  0  0  0  0  0  0  0  0
   55.9758   24.5752   46.4617 H   0  0  0  0  0  0  0  0  0  0  0  0
   57.1580   26.6783   47.0788 H   0  0  0  0  0  0  0  0  0  0  0  0
   60.5504   27.1241   45.9666 H   0  0  0  0  0  0  0  0  0  0  0  0
   59.3110   32.4980   45.9320 H   0  0  0  0  0  0  0  0  0  0  0  0
   57.1167   33.1931   45.1934 H   0  0  0  0  0  0  0  0  0  0  0  0
   56.0360   28.2990   43.8430 H   0  0  0  0  0  0  0  0  0  0  0  0
   58.6499   26.9034   43.0184 H   0  0  0  0  0  0  0  0  0  0  0  0
   57.4574   24.7931   42.4276 H   0  0  0  0  0  0  0  0  0  0  0  0
  1  2  1  0
  2  3  1  0
  3  4  2  0
  4  5  1  0
  5  6  2  0
  6  7  1  0
  7  8  2  0
  8  9  1  0
  9 10  1  0
 10 11  1  0
 11 12  1  0
 12 13  2  0
 13 14  1  0
 14 15  2  3
 14 16  1  0
  6 17  1  0
 17 18  2  0
 18  3  1  0
 16  7  1  0
 16 10  2  0
  1 19  1  0
  1 20  1  0
  1 21  1  0
  4 22  1  0
  5 23  1  0
  8 24  1  0
 11 25  1  0
 12 26  1  0
 15 27  1  0
 17 28  1  0
 18 29  1  0
M  END
>  <smiles>  (21) 
COc1ccc(-c2csc3[nH]cnc(=N)c23)cc1

>  <score_type>  (21) 
oracle

>  <origin>  (21) 
adg

>  <m_score__min__energy>  (21) 
-5.9199999999999999

>  <m_primary>  (21) 
energy

$$$$
21:0
     RDKit          3D

 43 44  0  0  0  0  0  0  0  0999 V2000
   57.8210   32.1360   42.9370 C   0  0  0  0  0  0  0  0  0  0  0  0
   57.9770   32.6780   44.3310 C   0  0  0  0  0  0  0  0  0  0  0  0
   58.2920   34.0340   44.5250 C   0  0  0  0  0  0  0  0  0  0  0  0
   58.4440   34.5470   45.8140 C   0  0  0  0  0  0  0  0  0  0  0  0
   58.2890   33.7120   46.9210 C   0  0  0  0  0  0  0  0  0  0  0  0
   57.9700   32.3640   46.7440 C   0  0  0  0  0  0  0  0  0  0  0  0
   57.7900   31.8380   45.4500 C   0  0  0  0  0  0  0  0  0  0  0  0
   57.4830   30.4500   45.2420 N   0  0  0  0  0  0  0  0  0  0  0  0
   56.2160   29.8930   44.8680 C   0  0  0  0  0  0  0  0  0  0  0  0
   55.4290   30.5370   44.1250 O   0  0  0  0  0  0  0  0  0  0  0  0
   55.8760   28.5520   45.2380 N   0  0  0  0  0  0  0  0  0  0  0  0
   56.7950   27.4630   45.4020 C   0  0  0  0  0  0  0  0  0  0  0  0
   58.1810   27.6400   45.2930 C   0  0  0  0  0  0  0  0  0  0  0  0
   59.0430   26.5600   45.4750 C   0  0  0  0  0  0  0  0  0  0  0  0
   58.5460   25.2850   45.7960 C   0  0  0  0  0  0  0  0  0  0  0  0
   59.5290   24.1520   45.9350 C   0  0  0  0  0  0  0  0  0  0  0  0
   57.1440   25.1040   45.9350 C   0  0  0  0  0  0  0  0  0  0  0  0
   56.3870   23.5470   46.3490 S   0  0  0  0  0  0  0  0  0  0  0  0
   57.2150   22.8880   47.4160 O   0  0  0  0  0  0  0  0  0  0  0  0
   55.0090   23.7460   46.9150 O   0  0  0  0  0  0  0  0  0  0  0  0
   56.2940   22.4750   44.9690 N   0  0  0  0  0  0  0  0  0  0  0  0
   57.4070   21.5190   44.9950 C   0  0  0  0  0  0  0  0  0  0  0  0
   56.3220   23.2510   43.7240 C   0  0  0  0  0  0  0  0  0  0  0  0
   56.2910   26.2040   45.7390 C   0  0  0  0  0  0  0  0  0  0  0  0
   57.5170   31.0800   42.9861 H   0  0  0  0  0  0  0  0  0  0  0  0
   57.0528   32.7142   42.4026 H   0  0  0  0  0  0  0  0  0  0  0  0
   58.7790   32.2174   42.4026 H   0  0  0  0  0  0  0  0  0  0  0  0
   58.4195   34.6952   43.6552 H   0  0  0  0  0  0  0  0  0  0  0  0
   58.6862   35.6104   45.9573 H   0  0  0  0  0  0  0  0  0  0  0  0
   58.4184   34.1165   47.9357 H   0  0  0  0  0  0  0  0  0  0  0  0
   57.8586   31.7090   47.6207 H   0  0  0  0  0  0  0  0  0  0  0  0
   58.5900   28.6349   45.0630 H   0  0  0  0  0  0  0  0  0  0  0  0
   60.1276   26.7075   45.3659 H   0  0  0  0  0  0  0  0  0  0  0  0
   59.7055   23.9485   47.0015 H   0  0  0  0  0  0  0  0  0  0  0  0
   59.1212   23.2515   45.4525 H   0  0  0  0  0  0  0  0  0  0  0  0
   60.4780   24.4287   45.4525 H   0  0  0  0  0  0  0  0  0  0  0  0
   57.6712   21.2921   46.0384 H   0  0  0  0  0  0  0  0  0  0  0  0
   57.1069   20.5928   44.4830 H   0  0  0  0  0  0  0  0  0  0  0  0
   58.2773   21.9555   44.4830 H   0  0  0  0  0  0  0  0  0  0  0  0
   56.3607   24.3243   43.9617 H   0  0  0  0  0  0  0  0  0  0  0  0
   57.2107   22.9728   43.1385 H   0  0  0  0  0  0  0  0  0  0  0  0
   55.4156   23.0376   43.1385 H   0  0  0  0  0  0  0  0  0  0  0  0
   55.2051   26.0710   45.8532 H   0  0  0  0  0  0  0  0  0  0  0  0
  1  2  1  0
  2  3  2  0
  3  4  1  0
  4  5  2  0
  5  6  1  0
  6  7  2  0
  7  8  1  0
  8  9  1  0
  9 10  2  0
  9 11  1  0
 11 12  1  0
 12 13  2  0
 13 14  1  0
 14 15  2  0
 15 16  1  0
 15 17  1  0
 17 18  1  0
 18 19  2  0
 18 20  2  0
 18 21  1  0
 21 22  1  0
 21 23  1  0
 17 24  2  0
  7  2  1  0
 24 12  1  0
  1 25  1  0
  1 26  1  0
  1 27  1  0
  3 28  1  0
  4 29  1  0
  5 30  1  0
  6 31  1  0
 13 32  1  0
 14 33  1  0
 16 34  1  0
 16 35  1  0
 16 36  1  0
 22 37  1  0
 22 38  1  0
 22 39  1  0
 23 40  1  0
 23 41  1  0
 23 42  1  0
 24 43  1  0
M  CHG  2   8  -1  11  -1
M  END
>  <UniqueID>  (22) 
20

>  <SMILES>  (22) 
Cc1ccccc1[N-]C(=O)[N-]c1ccc(C)c(S(=O)(=O)N(C)C)c1

>  <Energy>  (22) 
50.105443613033295

>  <Genealogy>  (22) 
Cc1ccccc1[N-]C(=O)[N-]c1ccc(C)c(S(=O)(=O)N(C)C)c1 (protonated)
Cc1ccccc1[N-]C(=O)[N-]c1ccc(C)c(S(=O)(=O)N(C)C)c1 (3D coordinates assigned)
Cc1ccccc1[N-]C(=O)[N-]c1ccc(C)c(S(=O)(=O)N(C)C)c1 (optimized conformer: 50.105443613033295 kcal/mol)

>  <smiles>  (22) 
Cc1ccccc1NC(=O)Nc1ccc(C)c(S(=O)(=O)N(C)C)c1

>  <score_type>  (22) 
oracle

>  <origin>  (22) 
adg

>  <m_score__min__energy>  (22) 
-11.43

>  <m_primary>  (22) 
energy

$$$$
22:0
     RDKit          3D

 24 26  0  0  0  0  0  0  0  0999 V2000
   57.7670   25.9690   44.0550 C   0  0  0  0  0  0  0  0  0  0  0  0
   57.1700   25.8220   45.2990 C   0  0  0  0  0  0  0  0  0  0  0  0
   56.9050   27.3540   45.9350 S   0  0  0  0  0  0  0  0  0  0  0  0
   57.5450   28.2210   44.6400 C   0  0  0  0  0  0  0  0  0  0  0  0
   57.6150   29.6950   44.5720 C   0  0  0  0  0  0  0  0  0  0  0  0
   57.3940   30.3960   43.3730 C   0  0  0  0  0  0  0  0  0  0  0  0
   57.4720   31.7900   43.3600 C   0  0  0  0  0  0  0  0  0  0  0  0
   57.7680   32.4830   44.5390 C   0  0  0  0  0  0  0  0  0  0  0  0
   57.8530   33.8840   44.5610 C   0  0  0  0  0  0  0  0  0  0  0  0
   58.1510   34.5460   45.7570 C   0  0  0  0  0  0  0  0  0  0  0  0
   58.3640   33.8160   46.9310 C   0  0  0  0  0  0  0  0  0  0  0  0
   58.2810   32.4200   46.9170 C   0  0  0  0  0  0  0  0  0  0  0  0
   57.9840   31.7490   45.7250 C   0  0  0  0  0  0  0  0  0  0  0  0
   57.9010   30.3920   45.7070 N   0  0  0  0  0  0  0  0  0  0  0  0
   57.9780   27.3020   43.6830 C   0  0  0  0  0  0  0  0  0  0  0  0
   58.0486   25.1164   43.4195 H   0  0  0  0  0  0  0  0  0  0  0  0
   56.9147   24.8683   45.7842 H   0  0  0  0  0  0  0  0  0  0  0  0
   57.1604   29.8478   42.4484 H   0  0  0  0  0  0  0  0  0  0  0  0
   57.3010   32.3426   42.4244 H   0  0  0  0  0  0  0  0  0  0  0  0
   57.6856   34.4605   43.6393 H   0  0  0  0  0  0  0  0  0  0  0  0
   58.2180   35.6438   45.7741 H   0  0  0  0  0  0  0  0  0  0  0  0
   58.5976   34.3418   47.8685 H   0  0  0  0  0  0  0  0  0  0  0  0
   58.4490   31.8495   47.8424 H   0  0  0  0  0  0  0  0  0  0  0  0
   58.4401   27.5965   42.7292 H   0  0  0  0  0  0  0  0  0  0  0  0
  1  2  2  0
  2  3  1  0
  3  4  1  0
  4  5  1  0
  5  6  2  0
  6  7  1  0
  7  8  2  0
  8  9  1  0
  9 10  2  0
 10 11  1  0
 11 12  2  0
 12 13  1  0
 13 14  2  0
  4 15  2  0
 15  1  1  0
 14  5  1  0
 13  8  1  0
  1 16  1  0
  2 17  1  0
  6 18  1  0
  7 19  1  0
  9 20  1  0
 10 21  1  0
 11 22  1  0
 12 23  1  0
 15 24  1  0
M  END
>  <UniqueID>  (23) 
21

>  <SMILES>  (23) 
c1csc(-c2ccc3ccccc3n2)c1

>  <Energy>  (23) 
56.71121476703143

>  <Genealogy>  (23) 
c1csc(-c2ccc3ccccc3n2)c1 (3D coordinates assigned)
c1csc(-c2ccc3ccccc3n2)c1 (optimized conformer: 56.71121476703143 kcal/mol)

>  <smiles>  (23) 
c1csc(-c2ccc3ccccc3n2)c1

>  <score_type>  (23) 
oracle

>  <origin>  (23) 
adg

>  <m_score__min__energy>  (23) 
-6.1900000000000004

>  <m_primary>  (23) 
energy

$$$$
23:0
     RDKit          3D

 57 60  0  0  0  0  0  0  0  0999 V2000
   64.0340   32.6390   49.7680 C   0  0  0  0  0  0  0  0  0  0  0  0
   62.9450   32.7850   48.7390 C   0  0  0  0  0  0  0  0  0  0  0  0
   62.9310   33.8750   47.9500 C   0  0  0  0  0  0  0  0  0  0  0  0
   61.8350   34.1660   46.9590 C   0  0  0  0  0  0  0  0  0  0  0  0
   60.9200   32.9570   46.6400 C   0  0  2  0  0  0  0  0  0  0  0  0
   59.6370   33.4200   45.9940 C   0  0  0  0  0  0  0  0  0  0  0  0
   59.5940   34.4820   45.3150 O   0  0  0  0  0  0  0  0  0  0  0  0
   58.4360   32.5990   46.1400 C   0  0  0  0  0  0  0  0  0  0  0  0
   57.2960   33.1210   46.0050 O   0  0  0  0  0  0  0  0  0  0  0  0
   58.5760   31.1250   46.4250 C   0  0  2  0  0  0  0  0  0  0  0  0
   59.6920   30.8410   47.5130 C   0  0  1  0  0  0  0  0  0  0  0  0
   60.4690   29.5440   47.1900 C   0  0  0  0  0  0  0  0  0  0  0  0
   59.5220   28.4680   46.6570 C   0  0  0  0  0  0  0  0  0  0  0  0
   59.0230   28.8090   45.2190 C   0  0  2  0  0  0  0  0  0  0  0  0
   60.1430   28.3940   44.2150 C   0  0  0  0  0  0  0  0  0  0  0  0
   58.7840   30.3540   45.0690 C   0  0  1  0  0  0  0  0  0  0  0  0
   57.5540   30.4500   44.1630 C   0  0  0  0  0  0  0  0  0  0  0  0
   56.6740   29.2920   44.5740 C   0  0  0  0  0  0  0  0  0  0  0  0
   57.6390   28.1140   44.8290 C   0  0  1  0  0  0  0  0  0  0  0  0
   57.7660   27.4090   43.6080 O   0  0  0  0  0  0  0  0  0  0  0  0
   57.0910   27.1420   45.8920 C   0  0  0  0  0  0  0  0  0  0  0  0
   57.0960   27.4590   47.0730 O   0  0  0  0  0  0  0  0  0  0  0  0
   56.5750   25.7640   45.5490 C   0  0  0  0  0  0  0  0  0  0  0  0
   55.4600   25.4160   46.3220 O   0  0  0  0  0  0  0  0  0  0  0  0
   60.6170   32.0870   47.9020 C   0  0  2  0  0  0  0  0  0  0  0  0
   59.8730   32.9210   48.9940 C   0  0  0  0  0  0  0  0  0  0  0  0
   61.9840   31.6420   48.5090 C   0  0  0  0  0  0  0  0  0  0  0  0
   63.5966   32.6976   50.7756 H   0  0  0  0  0  0  0  0  0  0  0  0
   64.5312   31.6662   49.6402 H   0  0  0  0  0  0  0  0  0  0  0  0
   64.7699   33.4465   49.6402 H   0  0  0  0  0  0  0  0  0  0  0  0
   63.7627   34.5901   48.0331 H   0  0  0  0  0  0  0  0  0  0  0  0
   61.2085   34.9730   47.3667 H   0  0  0  0  0  0  0  0  0  0  0  0
   62.3305   34.4409   46.0162 H   0  0  0  0  0  0  0  0  0  0  0  0
   61.4676   32.3166   45.9329 H   0  0  0  0  0  0  0  0  0  0  0  0
   57.6501   30.7411   46.8781 H   0  0  0  0  0  0  0  0  0  0  0  0
   59.1492   30.6691   48.4542 H   0  0  0  0  0  0  0  0  0  0  0  0
   61.2343   29.7607   46.4301 H   0  0  0  0  0  0  0  0  0  0  0  0
   60.9421   29.1750   48.1120 H   0  0  0  0  0  0  0  0  0  0  0  0
   60.0526   27.5048   46.6324 H   0  0  0  0  0  0  0  0  0  0  0  0
   58.6480   28.4160   47.3229 H   0  0  0  0  0  0  0  0  0  0  0  0
   61.0319   28.0646   44.7729 H   0  0  0  0  0  0  0  0  0  0  0  0
   59.7813   27.5702   43.5821 H   0  0  0  0  0  0  0  0  0  0  0  0
   60.4054   29.2546   43.5821 H   0  0  0  0  0  0  0  0  0  0  0  0
   59.6762   30.8448   44.6531 H   0  0  0  0  0  0  0  0  0  0  0  0
   57.0327   31.4060   44.3188 H   0  0  0  0  0  0  0  0  0  0  0  0
   57.8218   30.4074   43.0969 H   0  0  0  0  0  0  0  0  0  0  0  0
   56.1168   29.5382   45.4899 H   0  0  0  0  0  0  0  0  0  0  0  0
   55.9287   29.0505   43.8019 H   0  0  0  0  0  0  0  0  0  0  0  0
   56.8930   27.4450   43.1320 H   0  0  0  0  0  0  0  0  0  0  0  0
   56.2909   25.7450   44.4865 H   0  0  0  0  0  0  0  0  0  0  0  0
   57.3749   25.0387   45.7589 H   0  0  0  0  0  0  0  0  0  0  0  0
   55.5170   25.9640   47.1490 H   0  0  0  0  0  0  0  0  0  0  0  0
   60.1809   32.5759   49.9920 H   0  0  0  0  0  0  0  0  0  0  0  0
   60.1274   33.9850   48.8794 H   0  0  0  0  0  0  0  0  0  0  0  0
   58.7870   32.7892   48.8794 H   0  0  0  0  0  0  0  0  0  0  0  0
   61.7922   31.1496   49.4737 H   0  0  0  0  0  0  0  0  0  0  0  0
   62.4555   30.9661   47.7804 H   0  0  0  0  0  0  0  0  0  0  0  0
  1  2  1  0
  2  3  2  0
  3  4  1  0
  4  5  1  0
  5  6  1  0
  6  7  2  0
  6  8  1  0
  8  9  2  0
  8 10  1  0
 10 11  1  0
 11 12  1  0
 12 13  1  0
 13 14  1  0
 14 15  1  6
 14 16  1  0
 16 17  1  0
 17 18  1  0
 18 19  1  0
 19 20  1  6
 19 21  1  0
 21 22  2  0
 21 23  1  0
 23 24  1  0
 11 25  1  0
 25 26  1  1
 25 27  1  0
 27  2  1  0
 25  5  1  0
 16 10  1  0
 19 14  1  0
  1 28  1  0
  1 29  1  0
  1 30  1  0
  3 31  1  0
  4 32  1  0
  4 33  1  0
  5 34  1  6
 10 35  1  1
 11 36  1  1
 12 37  1  0
 12 38  1  0
 13 39  1  0
 13 40  1  0
 15 41  1  0
 15 42  1  0
 15 43  1  0
 16 44  1  6
 17 45  1  0
 17 46  1  0
 18 47  1  0
 18 48  1  0
 20 49  1  0
 23 50  1  0
 23 51  1  0
 24 52  1  0
 26 53  1  0
 26 54  1  0
 26 55  1  0
 27 56  1  0
 27 57  1  0
M  END
>  <UniqueID>  (24) 
22

>  <SMILES>  (24) 
CC1=CC[C@@H]2C(=O)C(=O)[C@@H]3C(CCC4(C)C3CCC4(O)C(=O)CO)C2(C)C1

>  <Energy>  (24) 
94.6552217386909

>  <Genealogy>  (24) 
CC1=CC[C@@H]2C(=O)C(=O)[C@@H]3C(CCC4(C)C3CCC4(O)C(=O)CO)C2(C)C1 (chirality)
CC1=CC[C@@H]2C(=O)C(=O)[C@@H]3C(CCC4(C)C3CCC4(O)C(=O)CO)C2(C)C1 (3D coordinates assigned)
CC1=CC[C@@H]2C(=O)C(=O)[C@@H]3C(CCC4(C)C3CCC4(O)C(=O)CO)C2(C)C1 (nonaromatic ring conformer: 94.6552217386909 kcal/mol)

>  <smiles>  (24) 
CC1=CCC2C(=O)C(=O)C3C(CCC4(C)C3CCC4(O)C(=O)CO)C2(C)C1

>  <score_type>  (24) 
oracle

>  <origin>  (24) 
adg

>  <m_score__min__energy>  (24) 
-10.23

>  <m_primary>  (24) 
energy

$$$$
24:0
     RDKit          3D

 44 47  0  0  0  0  0  0  0  0999 V2000
   61.5190   33.8480   46.5470 C   0  0  0  0  0  0  0  0  0  0  0  0
   60.1110   33.8560   46.1700 N   0  0  0  0  0  0  0  0  0  0  0  0
   59.6360   34.5460   45.1440 N   0  0  0  0  0  0  0  0  0  0  0  0
   58.2970   34.4290   45.1500 C   0  0  0  0  0  0  0  0  0  0  0  0
   57.9030   33.6550   46.2250 C   0  0  0  0  0  0  0  0  0  0  0  0
   59.0830   33.3040   46.8500 C   0  0  0  0  0  0  0  0  0  0  0  0
   59.1880   32.5150   48.0950 C   0  0  0  0  0  0  0  0  0  0  0  0
   58.8980   33.1010   49.3370 C   0  0  0  0  0  0  0  0  0  0  0  0
   59.0370   32.3630   50.5180 C   0  0  0  0  0  0  0  0  0  0  0  0
   58.6690   33.1040   52.0650 Cl  0  0  0  0  0  0  0  0  0  0  0  0
   59.4830   31.0360   50.4680 C   0  0  0  0  0  0  0  0  0  0  0  0
   59.7830   30.4490   49.2390 C   0  0  0  0  0  0  0  0  0  0  0  0
   59.6200   31.1760   48.0490 C   0  0  0  0  0  0  0  0  0  0  0  0
   59.8870   30.5740   46.8170 O   0  0  0  0  0  0  0  0  0  0  0  0
   59.5350   29.2530   46.4950 C   0  0  0  0  0  0  0  0  0  0  0  0
   60.2600   28.1450   46.9810 C   0  0  0  0  0  0  0  0  0  0  0  0
   59.8800   26.8470   46.6400 C   0  0  0  0  0  0  0  0  0  0  0  0
   58.7660   26.6270   45.8200 C   0  0  0  0  0  0  0  0  0  0  0  0
   58.2850   24.9880   45.3760 S   0  0  0  0  0  0  0  0  0  0  0  0
   57.9380   24.9140   43.9140 O   0  0  0  0  0  0  0  0  0  0  0  0
   59.4350   24.0560   45.6470 O   0  0  0  0  0  0  0  0  0  0  0  0
   56.9080   24.4870   46.3070 N   0  0  0  0  0  0  0  0  0  0  0  0
   55.6890   24.8050   46.0020 C   0  0  0  0  0  0  0  0  0  0  0  0
   54.7000   23.9100   45.6640 C   0  0  0  0  0  0  0  0  0  0  0  0
   53.6050   24.7170   45.4330 C   0  0  0  0  0  0  0  0  0  0  0  0
   53.9560   25.9690   45.6370 O   0  0  0  0  0  0  0  0  0  0  0  0
   55.2110   26.0610   45.9810 N   0  0  0  0  0  0  0  0  0  0  0  0
   58.0330   27.7220   45.3430 C   0  0  0  0  0  0  0  0  0  0  0  0
   58.4180   29.0290   45.6720 C   0  0  0  0  0  0  0  0  0  0  0  0
   57.6250   30.1410   45.2060 C   0  0  0  0  0  0  0  0  0  0  0  0
   56.9840   31.0290   44.8290 N   0  0  0  0  0  0  0  0  0  0  0  0
   61.6050   33.8475   47.6436 H   0  0  0  0  0  0  0  0  0  0  0  0
   62.0022   32.9471   46.1409 H   0  0  0  0  0  0  0  0  0  0  0  0
   62.0124   34.7434   46.1409 H   0  0  0  0  0  0  0  0  0  0  0  0
   57.6181   34.8806   44.4116 H   0  0  0  0  0  0  0  0  0  0  0  0
   56.8788   33.3802   46.5172 H   0  0  0  0  0  0  0  0  0  0  0  0
   58.5594   34.1466   49.3824 H   0  0  0  0  0  0  0  0  0  0  0  0
   59.5965   30.4577   51.3968 H   0  0  0  0  0  0  0  0  0  0  0  0
   60.1488   29.4123   49.2018 H   0  0  0  0  0  0  0  0  0  0  0  0
   61.1310   28.3056   47.6334 H   0  0  0  0  0  0  0  0  0  0  0  0
   60.4587   25.9910   47.0173 H   0  0  0  0  0  0  0  0  0  0  0  0
   54.7664   22.8142   45.5946 H   0  0  0  0  0  0  0  0  0  0  0  0
   52.6058   24.3718   45.1291 H   0  0  0  0  0  0  0  0  0  0  0  0
   57.1511   27.5550   44.7072 H   0  0  0  0  0  0  0  0  0  0  0  0
  1  2  1  0
  2  3  1  0
  3  4  2  0
  4  5  1  0
  5  6  2  0
  6  7  1  0
  7  8  2  0
  8  9  1  0
  9 10  1  0
  9 11  2  0
 11 12  1  0
 12 13  2  0
 13 14  1  0
 14 15  1  0
 15 16  2  0
 16 17  1  0
 17 18  2  0
 18 19  1  0
 19 20  2  0
 19 21  2  0
 19 22  1  0
 22 23  2  3
 23 24  1  0
 24 25  2  0
 25 26  1  0
 26 27  1  0
 18 28  1  0
 28 29  2  0
 29 30  1  0
 30 31  3  0
  6  2  1  0
 13  7  1  0
 29 15  1  0
 27 23  1  0
  1 32  1  0
  1 33  1  0
  1 34  1  0
  4 35  1  0
  5 36  1  0
  8 37  1  0
 11 38  1  0
 12 39  1  0
 16 40  1  0
 17 41  1  0
 24 42  1  0
 25 43  1  0
 28 44  1  0
M  CHG  1  27  -1
M  END
>  <UniqueID>  (25) 
23

>  <SMILES>  (25) 
Cn1nccc1-c1cc(Cl)ccc1Oc1ccc(S(=O)(=O)N=c2cco[n-]2)cc1C#N

>  <Energy>  (25) 
125.71908906162489

>  <Genealogy>  (25) 
Cn1nccc1-c1cc(Cl)ccc1Oc1ccc(S(=O)(=O)N=c2cco[n-]2)cc1C#N (protonated)
Cn1nccc1-c1cc(Cl)ccc1Oc1ccc(S(=O)(=O)N=c2cco[n-]2)cc1C#N (3D coordinates assigned)
Cn1nccc1-c1cc(Cl)ccc1Oc1ccc(S(=O)(=O)N=c2cco[n-]2)cc1C#N (optimized conformer: 125.71908906162489 kcal/mol)

>  <smiles>  (25) 
Cn1nccc1-c1cc(Cl)ccc1Oc1ccc(S(=O)(=O)N=c2cco[nH]2)cc1C#N

>  <score_type>  (25) 
oracle

>  <origin>  (25) 
adg

>  <m_score__min__energy>  (25) 
-11.56

>  <m_primary>  (25) 
energy

$$$$
25:0
     RDKit          3D

 46 49  0  0  0  0  0  0  0  0999 V2000
   59.3400   34.7680   47.1240 C   0  0  0  0  0  0  0  0  0  0  0  0
   59.6250   34.2730   48.5430 C   0  0  0  0  0  0  0  0  0  0  0  0
   59.2500   32.7830   48.7170 C   0  0  1  0  0  0  0  0  0  0  0  0
   59.9480   31.8920   47.7790 N   0  0  0  0  0  0  0  0  0  0  0  0
   59.2390   31.1970   46.7370 C   0  0  0  0  0  0  0  0  0  0  0  0
   58.8890   31.8580   45.5570 C   0  0  0  0  0  0  0  0  0  0  0  0
   58.1920   31.1860   44.5550 C   0  0  0  0  0  0  0  0  0  0  0  0
   57.8370   29.8370   44.7090 C   0  0  0  0  0  0  0  0  0  0  0  0
   57.1170   29.1930   43.6460 N   0  0  0  0  0  0  0  0  0  0  0  0
   58.1960   29.1490   45.8980 C   0  0  0  0  0  0  0  0  0  0  0  0
   57.8350   27.6910   46.1060 C   0  0  0  0  0  0  0  0  0  0  0  0
   58.5560   26.9040   45.2280 F   0  0  0  0  0  0  0  0  0  0  0  0
   56.4880   27.4570   45.8870 F   0  0  0  0  0  0  0  0  0  0  0  0
   58.1270   27.3210   47.4060 F   0  0  0  0  0  0  0  0  0  0  0  0
   58.9010   29.8470   46.9000 C   0  0  0  0  0  0  0  0  0  0  0  0
   61.3880   31.9240   47.7230 C   0  0  0  0  0  0  0  0  0  0  0  0
   61.9740   31.4100   46.7310 O   0  0  0  0  0  0  0  0  0  0  0  0
   62.2240   32.5300   48.7930 C   0  0  0  0  0  0  0  0  0  0  0  0
   63.8240   33.4410   48.2570 Br  0  0  0  0  0  0  0  0  0  0  0  0
   61.8950   32.5920   50.0960 C   0  0  0  0  0  0  0  0  0  0  0  0
   60.6120   32.1610   50.6910 C   0  0  0  0  0  0  0  0  0  0  0  0
   60.5420   31.6030   51.9210 N   0  0  0  0  0  0  0  0  0  0  0  0
   59.2370   31.3660   52.1070 C   0  0  0  0  0  0  0  0  0  0  0  0
   58.6290   30.8380   53.2430 C   0  0  0  0  0  0  0  0  0  0  0  0
   57.2320   30.7140   53.2390 C   0  0  0  0  0  0  0  0  0  0  0  0
   56.4840   31.1240   52.1160 C   0  0  0  0  0  0  0  0  0  0  0  0
   57.1260   31.6570   50.9830 C   0  0  0  0  0  0  0  0  0  0  0  0
   58.5270   31.7560   50.9990 C   0  0  0  0  0  0  0  0  0  0  0  0
   59.4020   32.2400   50.0740 N   0  0  0  0  0  0  0  0  0  0  0  0
   58.7916   35.7204   47.1711 H   0  0  0  0  0  0  0  0  0  0  0  0
   60.2901   34.9179   46.5902 H   0  0  0  0  0  0  0  0  0  0  0  0
   58.7333   34.0216   46.5902 H   0  0  0  0  0  0  0  0  0  0  0  0
   60.6972   34.3975   48.7550 H   0  0  0  0  0  0  0  0  0  0  0  0
   59.0131   34.8635   49.2407 H   0  0  0  0  0  0  0  0  0  0  0  0
   58.1737   32.7988   48.4904 H   0  0  0  0  0  0  0  0  0  0  0  0
   59.1649   32.9138   45.4183 H   0  0  0  0  0  0  0  0  0  0  0  0
   57.9169   31.7188   43.6328 H   0  0  0  0  0  0  0  0  0  0  0  0
   57.3820   29.2960   42.6430 H   0  0  0  0  0  0  0  0  0  0  0  0
   56.2910   28.5900   43.8570 H   0  0  0  0  0  0  0  0  0  0  0  0
   59.1900   29.3239   47.8235 H   0  0  0  0  0  0  0  0  0  0  0  0
   62.6508   33.0014   50.7825 H   0  0  0  0  0  0  0  0  0  0  0  0
   61.3250   31.4280   52.5910 H   0  0  0  0  0  0  0  0  0  0  0  0
   59.2245   30.5285   54.1145 H   0  0  0  0  0  0  0  0  0  0  0  0
   56.7172   30.2949   54.1161 H   0  0  0  0  0  0  0  0  0  0  0  0
   55.3884   31.0262   52.1259 H   0  0  0  0  0  0  0  0  0  0  0  0
   56.5463   31.9872   50.1084 H   0  0  0  0  0  0  0  0  0  0  0  0
  1  2  1  0
  2  3  1  0
  3  4  1  0
  4  5  1  0
  5  6  2  0
  6  7  1  0
  7  8  2  0
  8  9  1  0
  8 10  1  0
 10 11  1  0
 11 12  1  0
 11 13  1  0
 11 14  1  0
 10 15  2  0
  4 16  1  0
 16 17  2  0
 16 18  1  0
 18 19  1  0
 18 20  2  0
 20 21  1  0
 21 22  2  0
 22 23  1  0
 23 24  2  0
 24 25  1  0
 25 26  2  0
 26 27  1  0
 27 28  2  0
 28 29  1  0
 29  3  1  0
 15  5  1  0
 29 21  1  0
 28 23  1  0
  1 30  1  0
  1 31  1  0
  1 32  1  0
  2 33  1  0
  2 34  1  0
  3 35  1  6
  6 36  1  0
  7 37  1  0
  9 38  1  0
  9 39  1  0
 15 40  1  0
 20 41  1  0
 22 42  1  0
 24 43  1  0
 25 44  1  0
 26 45  1  0
 27 46  1  0
M  CHG  1  22   1
M  END
>  <UniqueID>  (26) 
24

>  <SMILES>  (26) 
CC[C@H]1N(c2ccc(N)c(C(F)(F)F)c2)C(=O)C(Br)=Cc2[nH+]c3ccccc3n21

>  <Energy>  (26) 
111.7597591869738

>  <Genealogy>  (26) 
CCC1N(c2ccc(N)c(C(F)(F)F)c2)C(=O)C(Br)=Cc2[nH+]c3ccccc3n21 (protonated)
CC[C@H]1N(c2ccc(N)c(C(F)(F)F)c2)C(=O)C(Br)=Cc2[nH+]c3ccccc3n21 (chirality)
CC[C@H]1N(c2ccc(N)c(C(F)(F)F)c2)C(=O)C(Br)=Cc2[nH+]c3ccccc3n21 (3D coordinates assigned)
CC[C@H]1N(c2ccc(N)c(C(F)(F)F)c2)C(=O)C(Br)=Cc2[nH+]c3ccccc3n21 (nonaromatic ring conformer: 111.7597591869738 kcal/mol)

>  <smiles>  (26) 
CCC1N(c2ccc(N)c(C(F)(F)F)c2)C(=O)C(Br)=Cc2nc3ccccc3n21

>  <score_type>  (26) 
oracle

>  <origin>  (26) 
adg

>  <m_score__min__energy>  (26) 
-4.8099999999999996

>  <m_primary>  (26) 
energy

$$$$
26:0
     RDKit          3D

 37 40  0  0  0  0  0  0  0  0999 V2000
   60.2057   35.3752   46.7957 H   0  0  0  0  0  0  0  0  0  0  0  0
   59.4990   34.6330   46.3960 C   0  0  0  0  0  0  0  0  0  0  0  0
   59.2610   34.5640   45.0200 C   0  0  0  0  0  0  0  0  0  0  0  0
   59.7895   35.2446   44.3363 H   0  0  0  0  0  0  0  0  0  0  0  0
   58.3520   33.6310   44.5120 C   0  0  0  0  0  0  0  0  0  0  0  0
   58.1783   33.5693   43.4276 H   0  0  0  0  0  0  0  0  0  0  0  0
   57.6580   32.7700   45.3840 C   0  0  0  0  0  0  0  0  0  0  0  0
   56.7430   31.7710   44.9020 N   0  0  0  0  0  0  0  0  0  0  0  0
   57.0060   30.5180   44.6650 C   0  0  0  0  0  0  0  0  0  0  0  0
   57.1050   29.6550   45.7110 N   0  0  0  0  0  0  0  0  0  0  0  0
   57.3540   28.3340   45.5130 C   0  0  0  0  0  0  0  0  0  0  0  0
   57.4570   27.4650   46.6020 C   0  0  0  0  0  0  0  0  0  0  0  0
   57.3374   27.8500   47.6255 H   0  0  0  0  0  0  0  0  0  0  0  0
   57.7120   26.1060   46.3920 C   0  0  0  0  0  0  0  0  0  0  0  0
   57.7899   25.4271   47.2540 H   0  0  0  0  0  0  0  0  0  0  0  0
   57.8700   25.5980   45.0880 C   0  0  0  0  0  0  0  0  0  0  0  0
   58.1420   24.1530   44.8710 C   0  0  0  0  0  0  0  0  0  0  0  0
   57.2770   23.3710   44.0900 C   0  0  0  0  0  0  0  0  0  0  0  0
   56.3863   23.8245   43.6307 H   0  0  0  0  0  0  0  0  0  0  0  0
   57.5510   22.0150   43.8980 C   0  0  0  0  0  0  0  0  0  0  0  0
   56.8743   21.4002   43.2863 H   0  0  0  0  0  0  0  0  0  0  0  0
   58.6520   21.4520   44.4650 N   0  0  0  0  0  0  0  0  0  0  0  0
   58.8430   20.4370   44.3120 H   0  0  0  0  0  0  0  0  0  0  0  0
   59.5090   22.1840   45.2250 C   0  0  0  0  0  0  0  0  0  0  0  0
   60.3925   21.7039   45.6709 H   0  0  0  0  0  0  0  0  0  0  0  0
   59.2720   23.5440   45.4420 C   0  0  0  0  0  0  0  0  0  0  0  0
   59.9668   24.1348   46.0569 H   0  0  0  0  0  0  0  0  0  0  0  0
   57.7640   26.4780   43.9940 C   0  0  0  0  0  0  0  0  0  0  0  0
   57.8834   26.0950   42.9698 H   0  0  0  0  0  0  0  0  0  0  0  0
   57.5070   27.8400   44.2040 C   0  0  0  0  0  0  0  0  0  0  0  0
   57.3900   28.7400   43.1420 C   0  0  0  0  0  0  0  0  0  0  0  0
   57.5009   28.3877   42.1059 H   0  0  0  0  0  0  0  0  0  0  0  0
   57.1390   30.0510   43.3920 N   0  0  0  0  0  0  0  0  0  0  0  0
   57.9290   32.8240   46.7580 C   0  0  0  0  0  0  0  0  0  0  0  0
   57.4235   32.1275   47.4431 H   0  0  0  0  0  0  0  0  0  0  0  0
   58.8390   33.7590   47.2630 C   0  0  0  0  0  0  0  0  0  0  0  0
   59.0350   33.8059   48.3444 H   0  0  0  0  0  0  0  0  0  0  0  0
  1  2  1  0
  2  3  2  0
  3  4  1  0
  3  5  1  0
  5  6  1  0
  5  7  2  0
  7  8  1  0
  8  9  2  0
  9 10  1  0
 10 11  2  0
 11 12  1  0
 12 13  1  0
 12 14  2  0
 14 15  1  0
 14 16  1  0
 16 17  1  0
 17 18  2  0
 18 19  1  0
 18 20  1  0
 20 21  1  0
 20 22  2  0
 22 23  1  0
 22 24  1  0
 24 25  1  0
 24 26  2  0
 26 27  1  0
 16 28  2  0
 28 29  1  0
 28 30  1  0
 30 31  2  0
 31 32  1  0
 31 33  1  0
  7 34  1  0
 34 35  1  0
 34 36  2  0
 36 37  1  0
 36  2  1  0
 33  9  1  0
 30 11  1  0
 26 17  1  0
M  CHG  2  22   1  33  -1
M  END
>  <UniqueID>  (27) 
25

>  <SMILES>  (27) 
c1ccc(/N=c2/nc3ccc(-c4cc[nH+]cc4)cc3c[n-]2)cc1

>  <Energy>  (27) 
57.237945399517244

>  <Genealogy>  (27) 
c1ccc(N=c2nc3ccc(-c4cc[nH+]cc4)cc3c[n-]2)cc1 (protonated)
c1ccc(/N=c2/nc3ccc(-c4cc[nH+]cc4)cc3c[n-]2)cc1 (cis-trans isomerization)
c1ccc(/N=c2/nc3ccc(-c4cc[nH+]cc4)cc3c[n-]2)cc1 (3D coordinates assigned)
c1ccc(/N=c2/nc3ccc(-c4cc[nH+]cc4)cc3c[n-]2)cc1 (optimized conformer: 57.237945399517244 kcal/mol)

>  <smiles>  (27) 
c1ccc(N=c2nc3ccc(-c4ccncc4)cc3c[nH]2)cc1

>  <score_type>  (27) 
oracle

>  <origin>  (27) 
adg

>  <m_score__min__energy>  (27) 
-8.7899999999999991

>  <m_primary>  (27) 
energy

$$$$
27:0
     RDKit          3D

 40 42  0  0  0  0  0  0  0  0999 V2000
   54.8470   25.5960   45.6210 C   0  0  0  0  0  0  0  0  0  0  0  0
   55.7250   26.7520   45.7150 N   0  0  0  0  0  0  0  0  0  0  0  0
   57.0080   26.7040   46.3440 C   0  0  0  0  0  0  0  0  0  0  0  0
   57.1840   25.9490   47.3370 O   0  0  0  0  0  0  0  0  0  0  0  0
   58.1270   27.5380   45.8390 C   0  0  0  0  0  0  0  0  0  0  0  0
   58.1760   28.2270   44.6320 C   0  0  0  0  0  0  0  0  0  0  0  0
   57.2160   28.2160   43.5570 N   0  0  0  0  0  0  0  0  0  0  0  0
   56.3140   29.3780   43.6250 C   0  0  0  0  0  0  0  0  0  0  0  0
   57.0750   30.6690   43.7200 C   0  0  0  0  0  0  0  0  0  0  0  0
   57.5150   31.2650   44.8940 C   0  0  0  0  0  0  0  0  0  0  0  0
   58.1080   32.5250   44.6940 C   0  0  0  0  0  0  0  0  0  0  0  0
   58.6460   33.3640   45.7950 C   0  0  0  0  0  0  0  0  0  0  0  0
   58.6910   32.8810   47.1160 C   0  0  0  0  0  0  0  0  0  0  0  0
   59.2050   33.6790   48.1390 C   0  0  0  0  0  0  0  0  0  0  0  0
   59.6700   34.9590   47.8400 C   0  0  0  0  0  0  0  0  0  0  0  0
   59.6220   35.4190   46.5630 N   0  0  0  0  0  0  0  0  0  0  0  0
   59.1290   34.6610   45.5460 C   0  0  0  0  0  0  0  0  0  0  0  0
   58.1200   32.9120   43.3520 C   0  0  0  0  0  0  0  0  0  0  0  0
   57.3960   31.7020   42.4360 S   0  0  0  0  0  0  0  0  0  0  0  0
   59.4230   28.8180   44.5890 C   0  0  0  0  0  0  0  0  0  0  0  0
   60.0900   28.5160   45.7190 N   0  0  0  0  0  0  0  0  0  0  0  0
   59.3080   27.7520   46.4700 N   0  0  0  0  0  0  0  0  0  0  0  0
   59.7290   27.2410   47.7710 C   0  0  0  0  0  0  0  0  0  0  0  0
   54.5852   25.2513   46.6322 H   0  0  0  0  0  0  0  0  0  0  0  0
   53.9307   25.8745   45.0798 H   0  0  0  0  0  0  0  0  0  0  0  0
   55.3612   24.7881   45.0798 H   0  0  0  0  0  0  0  0  0  0  0  0
   56.6540   27.3340   43.5990 H   0  0  0  0  0  0  0  0  0  0  0  0
   57.7200   28.2190   42.6420 H   0  0  0  0  0  0  0  0  0  0  0  0
   55.6901   29.3981   42.7192 H   0  0  0  0  0  0  0  0  0  0  0  0
   55.6950   29.2783   44.5289 H   0  0  0  0  0  0  0  0  0  0  0  0
   57.4102   30.7976   45.8842 H   0  0  0  0  0  0  0  0  0  0  0  0
   58.3197   31.8708   47.3431 H   0  0  0  0  0  0  0  0  0  0  0  0
   59.2429   33.3017   49.1716 H   0  0  0  0  0  0  0  0  0  0  0  0
   60.0760   35.5968   48.6390 H   0  0  0  0  0  0  0  0  0  0  0  0
   59.1082   35.0652   44.5232 H   0  0  0  0  0  0  0  0  0  0  0  0
   58.5343   33.8523   42.9595 H   0  0  0  0  0  0  0  0  0  0  0  0
   59.8092   29.4357   43.7648 H   0  0  0  0  0  0  0  0  0  0  0  0
   59.2470   27.8260   48.5682 H   0  0  0  0  0  0  0  0  0  0  0  0
   59.4354   26.1849   47.8626 H   0  0  0  0  0  0  0  0  0  0  0  0
   60.8218   27.3271   47.8626 H   0  0  0  0  0  0  0  0  0  0  0  0
  1  2  1  0
  2  3  1  0
  3  4  2  0
  3  5  1  0
  5  6  2  0
  6  7  1  0
  7  8  1  0
  8  9  1  0
  9 10  2  0
 10 11  1  0
 11 12  1  0
 12 13  2  0
 13 14  1  0
 14 15  2  0
 15 16  1  0
 16 17  2  0
 11 18  2  0
 18 19  1  0
  6 20  1  0
 20 21  2  0
 21 22  1  0
 22 23  1  0
 22  5  1  0
 19  9  1  0
 17 12  1  0
  1 24  1  0
  1 25  1  0
  1 26  1  0
  7 27  1  0
  7 28  1  0
  8 29  1  0
  8 30  1  0
 10 31  1  0
 13 32  1  0
 14 33  1  0
 15 34  1  0
 17 35  1  0
 18 36  1  0
 20 37  1  0
 23 38  1  0
 23 39  1  0
 23 40  1  0
M  CHG  2   2  -1   7   1
M  END
>  <UniqueID>  (28) 
26

>  <SMILES>  (28) 
C[N-]C(=O)c1c([NH2+]Cc2cc(-c3cccnc3)cs2)cnn1C

>  <Energy>  (28) 
101.04739879620348

>  <Genealogy>  (28) 
C[N-]C(=O)c1c([NH2+]Cc2cc(-c3cccnc3)cs2)cnn1C (protonated)
C[N-]C(=O)c1c([NH2+]Cc2cc(-c3cccnc3)cs2)cnn1C (3D coordinates assigned)
C[N-]C(=O)c1c([NH2+]Cc2cc(-c3cccnc3)cs2)cnn1C (optimized conformer: 101.04739879620348 kcal/mol)

>  <smiles>  (28) 
CNC(=O)c1c(NCc2cc(-c3cccnc3)cs2)cnn1C

>  <score_type>  (28) 
oracle

>  <origin>  (28) 
adg

>  <m_score__min__energy>  (28) 
-9.3100000000000005

>  <m_primary>  (28) 
energy

$$$$
28:0
     RDKit          3D

 37 39  0  0  0  0  0  0  0  0999 V2000
   58.2330   25.7230   45.1360 O   0  0  0  0  0  0  0  0  0  0  0  0
   57.1850   26.0040   45.7790 C   0  0  0  0  0  0  0  0  0  0  0  0
   57.1790   27.1090   46.6950 N   0  0  0  0  0  0  0  0  0  0  0  0
   58.3850   27.7490   47.1330 C   0  0  0  0  0  0  0  0  0  0  0  0
   59.2120   27.0830   48.0490 C   0  0  0  0  0  0  0  0  0  0  0  0
   60.3800   27.6870   48.5170 C   0  0  0  0  0  0  0  0  0  0  0  0
   60.7410   28.9560   48.0630 C   0  0  0  0  0  0  0  0  0  0  0  0
   59.9420   29.6190   47.1290 C   0  0  0  0  0  0  0  0  0  0  0  0
   58.7640   29.0240   46.6480 C   0  0  0  0  0  0  0  0  0  0  0  0
   58.0010   29.6800   45.6170 N   0  0  0  0  0  0  0  0  0  0  0  0
   57.6780   28.9540   44.3840 C   0  0  0  0  0  0  0  0  0  0  0  0
   56.2860   29.3460   43.8410 C   0  0  0  0  0  0  0  0  0  0  0  0
   55.7940   30.6460   44.3310 N   0  0  0  0  0  0  0  0  0  0  0  0
   56.8840   31.6050   44.5410 C   0  0  0  0  0  0  0  0  0  0  0  0
   57.8010   31.1330   45.6760 C   0  0  0  0  0  0  0  0  0  0  0  0
   55.9760   25.1960   45.5560 C   0  0  0  0  0  0  0  0  0  0  0  0
   55.9020   23.9920   44.8790 C   0  0  0  0  0  0  0  0  0  0  0  0
   54.5720   23.6300   44.9130 C   0  0  0  0  0  0  0  0  0  0  0  0
   53.9200   24.6300   45.6040 C   0  0  0  0  0  0  0  0  0  0  0  0
   54.7820   25.5480   45.9730 O   0  0  0  0  0  0  0  0  0  0  0  0
   56.2700   27.5760   46.9110 H   0  0  0  0  0  0  0  0  0  0  0  0
   58.9383   26.0775   48.4012 H   0  0  0  0  0  0  0  0  0  0  0  0
   61.0166   27.1621   49.2445 H   0  0  0  0  0  0  0  0  0  0  0  0
   61.6562   29.4349   48.4413 H   0  0  0  0  0  0  0  0  0  0  0  0
   60.2375   30.6149   46.7672 H   0  0  0  0  0  0  0  0  0  0  0  0
   58.4369   29.1879   43.6228 H   0  0  0  0  0  0  0  0  0  0  0  0
   57.6680   27.8778   44.6112 H   0  0  0  0  0  0  0  0  0  0  0  0
   56.3429   29.3895   42.7433 H   0  0  0  0  0  0  0  0  0  0  0  0
   55.5790   28.5833   44.1995 H   0  0  0  0  0  0  0  0  0  0  0  0
   55.2930   30.5020   45.2400 H   0  0  0  0  0  0  0  0  0  0  0  0
   57.4707   31.6952   43.6149 H   0  0  0  0  0  0  0  0  0  0  0  0
   56.4535   32.5802   44.8126 H   0  0  0  0  0  0  0  0  0  0  0  0
   58.7755   31.6348   45.5841 H   0  0  0  0  0  0  0  0  0  0  0  0
   57.3289   31.3843   46.6372 H   0  0  0  0  0  0  0  0  0  0  0  0
   56.7303   23.4394   44.4116 H   0  0  0  0  0  0  0  0  0  0  0  0
   54.1217   22.7260   44.4770 H   0  0  0  0  0  0  0  0  0  0  0  0
   52.8405   24.6543   45.8140 H   0  0  0  0  0  0  0  0  0  0  0  0
  1  2  2  0
  2  3  1  0
  3  4  1  0
  4  5  2  0
  5  6  1  0
  6  7  2  0
  7  8  1  0
  8  9  2  0
  9 10  1  0
 10 11  1  0
 11 12  1  0
 12 13  1  0
 13 14  1  0
 14 15  1  0
  2 16  1  0
 16 17  2  0
 17 18  1  0
 18 19  2  0
 19 20  1  0
  9  4  1  0
 15 10  1  0
 20 16  1  0
  3 21  1  0
  5 22  1  0
  6 23  1  0
  7 24  1  0
  8 25  1  0
 11 26  1  0
 11 27  1  0
 12 28  1  0
 12 29  1  0
 13 30  1  0
 14 31  1  0
 14 32  1  0
 15 33  1  0
 15 34  1  0
 17 35  1  0
 18 36  1  0
 19 37  1  0
M  END
>  <UniqueID>  (29) 
27

>  <SMILES>  (29) 
O=C(Nc1ccccc1N1CCNCC1)c1ccco1

>  <Energy>  (29) 
75.74304867138738

>  <Genealogy>  (29) 
O=C(Nc1ccccc1N1CCNCC1)c1ccco1 (3D coordinates assigned)
O=C(Nc1ccccc1N1CCNCC1)c1ccco1 (nonaromatic ring conformer: 75.74304867138738 kcal/mol)

>  <smiles>  (29) 
O=C(Nc1ccccc1N1CCNCC1)c1ccco1

>  <score_type>  (29) 
oracle

>  <origin>  (29) 
adg

>  <m_score__min__energy>  (29) 
-6.3499999999999996

>  <m_primary>  (29) 
energy

$$$$
29:0
     RDKit          3D

 39 42  0  0  0  0  0  0  0  0999 V2000
   57.7200   29.7520   45.3910 C   0  0  0  0  0  0  0  0  0  0  0  0
   56.7400   30.6960   44.8300 N   0  0  0  0  0  0  0  0  0  0  0  0
   56.2780   30.2040   43.5200 C   0  0  0  0  0  0  0  0  0  0  0  0
   57.3470   32.0360   44.7030 C   0  0  0  0  0  0  0  0  0  0  0  0
   58.2420   32.3190   45.8700 C   0  0  0  0  0  0  0  0  0  0  0  0
   57.7850   32.4540   47.1320 N   0  0  0  0  0  0  0  0  0  0  0  0
   58.8970   32.6660   47.8590 C   0  0  0  0  0  0  0  0  0  0  0  0
   58.8760   32.7720   49.3300 C   0  0  0  0  0  0  0  0  0  0  0  0
   59.6310   33.7720   49.9950 C   0  0  0  0  0  0  0  0  0  0  0  0
   59.6370   33.8470   51.4000 C   0  0  0  0  0  0  0  0  0  0  0  0
   58.8980   32.9020   52.1030 C   0  0  0  0  0  0  0  0  0  0  0  0
   58.1910   31.9290   51.4750 C   0  0  0  0  0  0  0  0  0  0  0  0
   58.1580   31.8200   50.0880 C   0  0  0  0  0  0  0  0  0  0  0  0
   57.5660   31.1330   52.4160 O   0  0  0  0  0  0  0  0  0  0  0  0
   57.8980   31.6410   53.7160 C   0  0  0  0  0  0  0  0  0  0  0  0
   58.7510   32.7680   53.4710 O   0  0  0  0  0  0  0  0  0  0  0  0
   59.9970   32.6620   47.0160 C   0  0  0  0  0  0  0  0  0  0  0  0
   61.4040   32.9530   47.3460 C   0  0  0  0  0  0  0  0  0  0  0  0
   62.0890   32.4420   48.4420 C   0  0  0  0  0  0  0  0  0  0  0  0
   63.4360   32.8210   48.4780 C   0  0  0  0  0  0  0  0  0  0  0  0
   64.6290   32.2960   49.8720 Br  0  0  0  0  0  0  0  0  0  0  0  0
   63.8280   33.6120   47.4070 C   0  0  0  0  0  0  0  0  0  0  0  0
   62.4920   33.8380   46.4120 S   0  0  0  0  0  0  0  0  0  0  0  0
   59.5810   32.4350   45.7570 N   0  0  0  0  0  0  0  0  0  0  0  0
   57.6794   29.7911   46.4896 H   0  0  0  0  0  0  0  0  0  0  0  0
   57.4834   28.7329   45.0514 H   0  0  0  0  0  0  0  0  0  0  0  0
   58.7296   30.0266   45.0514 H   0  0  0  0  0  0  0  0  0  0  0  0
   55.5320   29.4095   43.6690 H   0  0  0  0  0  0  0  0  0  0  0  0
   55.8239   31.0324   42.9566 H   0  0  0  0  0  0  0  0  0  0  0  0
   57.1333   29.8028   42.9566 H   0  0  0  0  0  0  0  0  0  0  0  0
   57.9367   32.0799   43.7755 H   0  0  0  0  0  0  0  0  0  0  0  0
   56.5454   32.7889   44.6786 H   0  0  0  0  0  0  0  0  0  0  0  0
   60.2165   34.4946   49.4075 H   0  0  0  0  0  0  0  0  0  0  0  0
   60.2075   34.6274   51.9249 H   0  0  0  0  0  0  0  0  0  0  0  0
   57.5898   31.0166   49.5964 H   0  0  0  0  0  0  0  0  0  0  0  0
   56.9896   31.9536   54.2518 H   0  0  0  0  0  0  0  0  0  0  0  0
   58.3889   30.8813   54.3420 H   0  0  0  0  0  0  0  0  0  0  0  0
   61.6196   31.8036   49.2049 H   0  0  0  0  0  0  0  0  0  0  0  0
   64.8358   34.0194   47.2388 H   0  0  0  0  0  0  0  0  0  0  0  0
  1  2  1  0
  2  3  1  0
  2  4  1  0
  4  5  1  0
  5  6  2  0
  6  7  1  0
  7  8  1  0
  8  9  2  0
  9 10  1  0
 10 11  2  0
 11 12  1  0
 12 13  2  0
 12 14  1  0
 14 15  1  0
 15 16  1  0
  7 17  2  0
 17 18  1  0
 18 19  2  0
 19 20  1  0
 20 21  1  0
 20 22  2  0
 22 23  1  0
 17 24  1  0
 24  5  1  0
 13  8  1  0
 23 18  1  0
 16 11  1  0
  1 25  1  0
  1 26  1  0
  1 27  1  0
  3 28  1  0
  3 29  1  0
  3 30  1  0
  4 31  1  0
  4 32  1  0
  9 33  1  0
 10 34  1  0
 13 35  1  0
 15 36  1  0
 15 37  1  0
 19 38  1  0
 22 39  1  0
M  CHG  1  24  -1
M  END
>  <UniqueID>  (30) 
28

>  <SMILES>  (30) 
CN(C)Cc1nc(-c2ccc3c(c2)OCO3)c(-c2cc(Br)cs2)[n-]1

>  <Energy>  (30) 
129.29819988791132

>  <Genealogy>  (30) 
CN(C)Cc1nc(-c2ccc3c(c2)OCO3)c(-c2cc(Br)cs2)[n-]1 (protonated)
CN(C)Cc1nc(-c2ccc3c(c2)OCO3)c(-c2cc(Br)cs2)[n-]1 (3D coordinates assigned)
CN(C)Cc1nc(-c2ccc3c(c2)OCO3)c(-c2cc(Br)cs2)[n-]1 (nonaromatic ring conformer: 129.29819988791132 kcal/mol)

>  <smiles>  (30) 
CN(C)Cc1nc(-c2ccc3c(c2)OCO3)c(-c2cc(Br)cs2)[nH]1

>  <score_type>  (30) 
oracle

>  <origin>  (30) 
adg

>  <m_score__min__energy>  (30) 
-8.1699999999999999

>  <m_primary>  (30) 
energy

$$$$
30:0
     RDKit          3D

 24 25  0  0  0  0  0  0  0  0999 V2000
   57.6130   24.0530   46.1900 C   0  0  0  0  0  0  0  0  0  0  0  0
   56.8510   25.3160   45.9670 C   0  0  0  0  0  0  0  0  0  0  0  0
   57.3850   26.5210   45.5640 C   0  0  0  0  0  0  0  0  0  0  0  0
   56.2980   27.3730   45.5780 C   0  0  0  0  0  0  0  0  0  0  0  0
   56.2850   28.8070   45.2400 C   0  0  0  0  0  0  0  0  0  0  0  0
   55.2940   29.2760   44.6210 O   0  0  0  0  0  0  0  0  0  0  0  0
   57.3330   29.6970   45.6470 N   0  0  0  0  0  0  0  0  0  0  0  0
   57.6750   30.9390   45.0180 C   0  0  0  0  0  0  0  0  0  0  0  0
   58.1630   32.0300   45.7590 C   0  0  0  0  0  0  0  0  0  0  0  0
   58.5020   33.2250   45.1130 C   0  0  0  0  0  0  0  0  0  0  0  0
   59.0940   34.5880   46.0440 Cl  0  0  0  0  0  0  0  0  0  0  0  0
   58.3750   33.3290   43.7240 C   0  0  0  0  0  0  0  0  0  0  0  0
   57.9160   32.2380   42.9800 C   0  0  0  0  0  0  0  0  0  0  0  0
   57.7700   32.3650   41.2350 Cl  0  0  0  0  0  0  0  0  0  0  0  0
   57.5750   31.0440   43.6250 C   0  0  0  0  0  0  0  0  0  0  0  0
   55.2420   26.7030   45.9800 O   0  0  0  0  0  0  0  0  0  0  0  0
   55.5380   25.4610   46.2290 N   0  0  0  0  0  0  0  0  0  0  0  0
   57.7202   23.8753   47.2702 H   0  0  0  0  0  0  0  0  0  0  0  0
   57.0713   23.2122   45.7321 H   0  0  0  0  0  0  0  0  0  0  0  0
   58.6094   24.1402   45.7321 H   0  0  0  0  0  0  0  0  0  0  0  0
   58.4270   26.7494   45.2956 H   0  0  0  0  0  0  0  0  0  0  0  0
   58.2787   31.9443   46.8495 H   0  0  0  0  0  0  0  0  0  0  0  0
   58.6363   34.2695   43.2169 H   0  0  0  0  0  0  0  0  0  0  0  0
   57.2266   30.1835   43.0350 H   0  0  0  0  0  0  0  0  0  0  0  0
  1  2  1  0
  2  3  1  0
  3  4  2  0
  4  5  1  0
  5  6  2  0
  5  7  1  0
  7  8  1  0
  8  9  2  0
  9 10  1  0
 10 11  1  0
 10 12  2  0
 12 13  1  0
 13 14  1  0
 13 15  2  0
  4 16  1  0
 16 17  1  0
 17  2  2  0
 15  8  1  0
  1 18  1  0
  1 19  1  0
  1 20  1  0
  3 21  1  0
  9 22  1  0
 12 23  1  0
 15 24  1  0
M  CHG  1   7  -1
M  END
>  <UniqueID>  (31) 
29

>  <SMILES>  (31) 
Cc1cc(C(=O)[N-]c2cc(Cl)cc(Cl)c2)on1

>  <Energy>  (31) 
57.78697713733537

>  <Genealogy>  (31) 
Cc1cc(C(=O)[N-]c2cc(Cl)cc(Cl)c2)on1 (protonated)
Cc1cc(C(=O)[N-]c2cc(Cl)cc(Cl)c2)on1 (3D coordinates assigned)
Cc1cc(C(=O)[N-]c2cc(Cl)cc(Cl)c2)on1 (optimized conformer: 57.78697713733537 kcal/mol)

>  <smiles>  (31) 
Cc1cc(C(=O)Nc2cc(Cl)cc(Cl)c2)on1

>  <score_type>  (31) 
oracle

>  <origin>  (31) 
adg

>  <m_score__min__energy>  (31) 
-9.4299999999999997

>  <m_primary>  (31) 
energy

$$$$
31:0
     RDKit          3D

 34 36  0  0  0  0  0  0  0  0999 V2000
   61.0190   34.5500   48.6810 C   0  0  0  0  0  0  0  0  0  0  0  0
   59.9450   34.0620   47.7550 C   0  0  0  0  0  0  0  0  0  0  0  0
   59.1080   33.0030   48.1380 C   0  0  0  0  0  0  0  0  0  0  0  0
   58.0840   32.5720   47.2900 C   0  0  0  0  0  0  0  0  0  0  0  0
   57.8610   33.2080   46.0640 C   0  0  0  0  0  0  0  0  0  0  0  0
   56.8120   32.7180   45.2170 N   0  0  0  0  0  0  0  0  0  0  0  0
   56.9060   31.6600   44.2520 C   0  0  0  0  0  0  0  0  0  0  0  0
   57.4690   31.8610   43.1440 O   0  0  0  0  0  0  0  0  0  0  0  0
   56.3130   30.3750   44.4970 N   0  0  0  0  0  0  0  0  0  0  0  0
   56.8170   29.3890   45.1830 C   0  0  0  0  0  0  0  0  0  0  0  0
   58.0470   29.4860   45.7570 N   0  0  0  0  0  0  0  0  0  0  0  0
   58.5800   28.4630   46.4710 C   0  0  0  0  0  0  0  0  0  0  0  0
   59.8480   28.5970   47.0490 C   0  0  0  0  0  0  0  0  0  0  0  0
   60.3950   27.5410   47.7850 C   0  0  0  0  0  0  0  0  0  0  0  0
   59.6810   26.3510   47.9440 C   0  0  0  0  0  0  0  0  0  0  0  0
   58.4130   26.2080   47.3700 C   0  0  0  0  0  0  0  0  0  0  0  0
   57.8540   27.2650   46.6280 C   0  0  0  0  0  0  0  0  0  0  0  0
   56.5870   27.1800   46.0280 C   0  0  0  0  0  0  0  0  0  0  0  0
   55.8930   26.1320   46.1370 O   0  0  0  0  0  0  0  0  0  0  0  0
   56.0990   28.2380   45.3230 N   0  0  0  0  0  0  0  0  0  0  0  0
   58.7030   34.2670   45.6750 C   0  0  0  0  0  0  0  0  0  0  0  0
   59.7290   34.6980   46.5230 C   0  0  0  0  0  0  0  0  0  0  0  0
   60.6986   34.4044   49.7232 H   0  0  0  0  0  0  0  0  0  0  0  0
   61.9446   33.9841   48.4995 H   0  0  0  0  0  0  0  0  0  0  0  0
   61.2015   35.6195   48.4995 H   0  0  0  0  0  0  0  0  0  0  0  0
   59.2584   32.5099   49.1097 H   0  0  0  0  0  0  0  0  0  0  0  0
   57.4481   31.7257   47.5890 H   0  0  0  0  0  0  0  0  0  0  0  0
   60.4137   29.5321   46.9244 H   0  0  0  0  0  0  0  0  0  0  0  0
   61.3907   27.6479   48.2401 H   0  0  0  0  0  0  0  0  0  0  0  0
   60.1172   25.5233   48.5226 H   0  0  0  0  0  0  0  0  0  0  0  0
   57.8534   25.2698   47.4987 H   0  0  0  0  0  0  0  0  0  0  0  0
   55.1550   28.1640   44.8800 H   0  0  0  0  0  0  0  0  0  0  0  0
   58.5539   34.7570   44.7015 H   0  0  0  0  0  0  0  0  0  0  0  0
   60.3698   35.5400   46.2223 H   0  0  0  0  0  0  0  0  0  0  0  0
  1  2  1  0
  2  3  2  0
  3  4  1  0
  4  5  2  0
  5  6  1  0
  6  7  1  0
  7  8  2  0
  7  9  1  0
  9 10  2  3
 10 11  1  0
 11 12  1  0
 12 13  2  0
 13 14  1  0
 14 15  2  0
 15 16  1  0
 16 17  2  0
 17 18  1  0
 18 19  2  0
 18 20  1  0
  5 21  1  0
 21 22  2  0
 22  2  1  0
 20 10  1  0
 17 12  1  0
  1 23  1  0
  1 24  1  0
  1 25  1  0
  3 26  1  0
  4 27  1  0
 13 28  1  0
 14 29  1  0
 15 30  1  0
 16 31  1  0
 20 32  1  0
 21 33  1  0
 22 34  1  0
M  CHG  2   6  -1  11  -1
M  END
>  <UniqueID>  (32) 
30

>  <SMILES>  (32) 
Cc1ccc([N-]C(=O)N=c2[n-]c3ccccc3c(=O)[nH]2)cc1

>  <Energy>  (32) 
46.282790940903865

>  <Genealogy>  (32) 
Cc1ccc([N-]C(=O)N=c2[n-]c3ccccc3c(=O)[nH]2)cc1 (protonated)
Cc1ccc([N-]C(=O)N=c2[n-]c3ccccc3c(=O)[nH]2)cc1 (3D coordinates assigned)
Cc1ccc([N-]C(=O)N=c2[n-]c3ccccc3c(=O)[nH]2)cc1 (optimized conformer: 46.282790940903865 kcal/mol)

>  <smiles>  (32) 
Cc1ccc(NC(=O)N=c2[nH]c(=O)c3ccccc3[nH]2)cc1

>  <score_type>  (32) 
oracle

>  <origin>  (32) 
adg

>  <m_score__min__energy>  (32) 
-10.449999999999999

>  <m_primary>  (32) 
energy

$$$$
32:0
     RDKit          3D

 26 27  0  0  0  0  0  0  0  0999 V2000
   55.1470   29.3130   44.8530 O   0  0  0  0  0  0  0  0  0  0  0  0
   56.2630   29.8840   44.7160 C   0  0  0  0  0  0  0  0  0  0  0  0
   56.3460   31.3130   44.7080 N   0  0  0  0  0  0  0  0  0  0  0  0
   57.4650   32.0540   44.1380 C   0  0  0  0  0  0  0  0  0  0  0  0
   58.1010   32.9280   45.1850 C   0  0  0  0  0  0  0  0  0  0  0  0
   58.6430   34.1770   44.8420 C   0  0  0  0  0  0  0  0  0  0  0  0
   59.2510   34.9730   45.8170 C   0  0  0  0  0  0  0  0  0  0  0  0
   59.3260   34.5260   47.1400 C   0  0  0  0  0  0  0  0  0  0  0  0
   58.7930   33.2800   47.4890 C   0  0  0  0  0  0  0  0  0  0  0  0
   58.8920   32.7180   49.1480 Cl  0  0  0  0  0  0  0  0  0  0  0  0
   58.1830   32.4830   46.5150 C   0  0  0  0  0  0  0  0  0  0  0  0
   57.4840   29.0810   44.5680 C   0  0  0  0  0  0  0  0  0  0  0  0
   58.6880   29.3170   45.2080 C   0  0  0  0  0  0  0  0  0  0  0  0
   59.5510   28.3260   44.7830 C   0  0  0  0  0  0  0  0  0  0  0  0
   58.8380   27.5300   43.9080 C   0  0  0  0  0  0  0  0  0  0  0  0
   57.5820   27.9930   43.7790 N   0  0  0  0  0  0  0  0  0  0  0  0
   58.2128   31.3440   43.7551 H   0  0  0  0  0  0  0  0  0  0  0  0
   57.0938   32.6887   43.3198 H   0  0  0  0  0  0  0  0  0  0  0  0
   58.5889   34.5305   43.8018 H   0  0  0  0  0  0  0  0  0  0  0  0
   59.6710   35.9521   45.5433 H   0  0  0  0  0  0  0  0  0  0  0  0
   59.8040   35.1539   47.9064 H   0  0  0  0  0  0  0  0  0  0  0  0
   57.7656   31.5035   46.7915 H   0  0  0  0  0  0  0  0  0  0  0  0
   58.9126   30.1305   45.9135 H   0  0  0  0  0  0  0  0  0  0  0  0
   60.6013   28.1960   45.0829 H   0  0  0  0  0  0  0  0  0  0  0  0
   59.2393   26.6456   43.3915 H   0  0  0  0  0  0  0  0  0  0  0  0
   56.8330   27.5800   43.1810 H   0  0  0  0  0  0  0  0  0  0  0  0
  1  2  2  0
  2  3  1  0
  3  4  1  0
  4  5  1  0
  5  6  2  0
  6  7  1  0
  7  8  2  0
  8  9  1  0
  9 10  1  0
  9 11  2  0
  2 12  1  0
 12 13  2  0
 13 14  1  0
 14 15  2  0
 15 16  1  0
 11  5  1  0
 16 12  1  0
  4 17  1  0
  4 18  1  0
  6 19  1  0
  7 20  1  0
  8 21  1  0
 11 22  1  0
 13 23  1  0
 14 24  1  0
 15 25  1  0
 16 26  1  0
M  CHG  1   3  -1
M  END
>  <UniqueID>  (33) 
31

>  <SMILES>  (33) 
O=C([N-]Cc1cccc(Cl)c1)c1ccc[nH]1

>  <Energy>  (33) 
48.06264786097959

>  <Genealogy>  (33) 
O=C([N-]Cc1cccc(Cl)c1)c1ccc[nH]1 (protonated)
O=C([N-]Cc1cccc(Cl)c1)c1ccc[nH]1 (3D coordinates assigned)
O=C([N-]Cc1cccc(Cl)c1)c1ccc[nH]1 (optimized conformer: 48.06264786097959 kcal/mol)

>  <smiles>  (33) 
O=C(NCc1cccc(Cl)c1)c1ccc[nH]1

>  <score_type>  (33) 
oracle

>  <origin>  (33) 
adg

>  <m_score__min__energy>  (33) 
-8.5999999999999996

>  <m_primary>  (33) 
energy

$$$$
33:0
     RDKit          3D

 30 31  0  0  0  0  0  0  0  0999 V2000
   55.4887   24.5038   46.7641 H   0  0  0  0  0  0  0  0  0  0  0  0
   56.0300   25.3870   46.3940 C   0  0  0  0  0  0  0  0  0  0  0  0
   55.3950   26.5330   46.0320 N   0  0  0  0  0  0  0  0  0  0  0  0
   56.2740   27.4720   45.6160 C   0  0  0  0  0  0  0  0  0  0  0  0
   55.9330   28.6600   45.2160 N   0  0  0  0  0  0  0  0  0  0  0  0
   56.6980   29.4570   44.2580 C   0  0  0  0  0  0  0  0  0  0  0  0
   56.0029   29.9752   43.5810 H   0  0  0  0  0  0  0  0  0  0  0  0
   57.3572   28.7888   43.6844 H   0  0  0  0  0  0  0  0  0  0  0  0
   57.5430   30.4770   44.9780 C   0  0  0  0  0  0  0  0  0  0  0  0
   58.4350   30.0660   45.9720 C   0  0  0  0  0  0  0  0  0  0  0  0
   58.5334   28.9965   46.2098 H   0  0  0  0  0  0  0  0  0  0  0  0
   59.2020   31.0040   46.6650 C   0  0  0  0  0  0  0  0  0  0  0  0
   60.4120   30.3850   48.0150 Br  0  0  0  0  0  0  0  0  0  0  0  0
   59.0890   32.3760   46.3830 C   0  0  0  0  0  0  0  0  0  0  0  0
   59.9000   33.2520   47.1290 O   0  0  0  0  0  0  0  0  0  0  0  0
   59.4800   34.0970   48.1960 C   0  0  0  0  0  0  0  0  0  0  0  0
   59.7177   33.6188   49.1577 H   0  0  0  0  0  0  0  0  0  0  0  0
   60.0033   35.0621   48.1271 H   0  0  0  0  0  0  0  0  0  0  0  0
   58.3947   34.2626   48.1271 H   0  0  0  0  0  0  0  0  0  0  0  0
   58.1790   32.8050   45.3800 C   0  0  0  0  0  0  0  0  0  0  0  0
   58.0450   34.1720   45.0910 O   0  0  0  0  0  0  0  0  0  0  0  0
   59.1280   35.0780   44.9050 C   0  0  0  0  0  0  0  0  0  0  0  0
   59.5107   35.3982   45.8853 H   0  0  0  0  0  0  0  0  0  0  0  0
   59.9312   34.5789   44.3430 H   0  0  0  0  0  0  0  0  0  0  0  0
   58.7786   35.9567   44.3430 H   0  0  0  0  0  0  0  0  0  0  0  0
   57.4160   31.8420   44.6880 C   0  0  0  0  0  0  0  0  0  0  0  0
   56.7107   32.1671   43.9090 H   0  0  0  0  0  0  0  0  0  0  0  0
   57.8580   26.9270   45.6730 S   0  0  0  0  0  0  0  0  0  0  0  0
   57.4150   25.4130   46.2620 C   0  0  0  0  0  0  0  0  0  0  0  0
   58.1016   24.5875   46.5010 H   0  0  0  0  0  0  0  0  0  0  0  0
  1  2  1  0
  2  3  1  0
  3  4  1  0
  4  5  2  0
  5  6  1  0
  6  7  1  0
  6  8  1  0
  6  9  1  0
  9 10  2  0
 10 11  1  0
 10 12  1  0
 12 13  1  0
 12 14  2  0
 14 15  1  0
 15 16  1  0
 16 17  1  0
 16 18  1  0
 16 19  1  0
 14 20  1  0
 20 21  1  0
 21 22  1  0
 22 23  1  0
 22 24  1  0
 22 25  1  0
 20 26  2  0
 26 27  1  0
  4 28  1  0
 28 29  1  0
 29 30  1  0
 29  2  2  0
 26  9  1  0
M  CHG  1   3  -1
M  END
>  <UniqueID>  (34) 
32

>  <SMILES>  (34) 
COc1cc(C/N=c2\[n-]ccs2)cc(Br)c1OC

>  <Energy>  (34) 
60.991954550439644

>  <Genealogy>  (34) 
COc1cc(CN=c2[n-]ccs2)cc(Br)c1OC (protonated)
COc1cc(C/N=c2\[n-]ccs2)cc(Br)c1OC (cis-trans isomerization)
COc1cc(C/N=c2\[n-]ccs2)cc(Br)c1OC (3D coordinates assigned)
COc1cc(C/N=c2\[n-]ccs2)cc(Br)c1OC (optimized conformer: 60.991954550439644 kcal/mol)

>  <smiles>  (34) 
COc1cc(CN=c2[nH]ccs2)cc(Br)c1OC

>  <score_type>  (34) 
oracle

>  <origin>  (34) 
adg

>  <m_score__min__energy>  (34) 
-7.7300000000000004

>  <m_primary>  (34) 
energy

$$$$
34:0
     RDKit          3D

 50 53  0  0  0  0  0  0  0  0999 V2000
   60.5730   30.4410   46.2470 O   0  0  0  0  0  0  0  0  0  0  0  0
   59.5250   29.7470   46.1680 C   0  0  0  0  0  0  0  0  0  0  0  0
   59.3040   28.7280   47.1530 N   0  0  0  0  0  0  0  0  0  0  0  0
   58.8580   27.3840   46.9170 C   0  0  0  0  0  0  0  0  0  0  0  0
   59.7020   26.5040   46.2290 C   0  0  0  0  0  0  0  0  0  0  0  0
   59.3010   25.1900   45.9750 C   0  0  0  0  0  0  0  0  0  0  0  0
   58.0450   24.7350   46.4060 C   0  0  0  0  0  0  0  0  0  0  0  0
   57.6240   23.3420   46.1350 C   0  0  0  0  0  0  0  0  0  0  0  0
   57.5320   22.5330   47.0990 O   0  0  0  0  0  0  0  0  0  0  0  0
   57.3040   22.8950   44.8030 N   0  0  0  0  0  0  0  0  0  0  0  0
   57.7120   21.5610   44.3510 C   0  0  0  0  0  0  0  0  0  0  0  0
   56.6150   20.9620   43.4640 C   0  0  0  0  0  0  0  0  0  0  0  0
   56.2590   21.8580   42.4270 O   0  0  0  0  0  0  0  0  0  0  0  0
   55.6730   23.0220   42.9810 C   0  0  0  0  0  0  0  0  0  0  0  0
   56.6920   23.7970   43.8220 C   0  0  0  0  0  0  0  0  0  0  0  0
   57.1800   25.6290   47.0560 C   0  0  0  0  0  0  0  0  0  0  0  0
   57.5810   26.9450   47.3070 C   0  0  0  0  0  0  0  0  0  0  0  0
   58.5190   30.0650   45.1230 C   0  0  0  0  0  0  0  0  0  0  0  0
   58.0170   29.0180   44.3270 C   0  0  0  0  0  0  0  0  0  0  0  0
   57.0340   29.2610   43.3670 C   0  0  0  0  0  0  0  0  0  0  0  0
   56.5280   30.5480   43.1940 C   0  0  0  0  0  0  0  0  0  0  0  0
   57.0060   31.5990   43.9780 C   0  0  0  0  0  0  0  0  0  0  0  0
   58.0040   31.3770   44.9430 C   0  0  0  0  0  0  0  0  0  0  0  0
   58.5040   32.5380   45.7200 C   0  0  0  0  0  0  0  0  0  0  0  0
   58.4480   32.5390   47.1240 C   0  0  0  0  0  0  0  0  0  0  0  0
   58.9330   33.6330   47.8490 C   0  0  0  0  0  0  0  0  0  0  0  0
   59.4830   34.7280   47.1780 C   0  0  0  0  0  0  0  0  0  0  0  0
   59.5530   34.7310   45.7820 C   0  0  0  0  0  0  0  0  0  0  0  0
   59.0700   33.6390   45.0550 C   0  0  0  0  0  0  0  0  0  0  0  0
   60.6883   26.8497   45.8858 H   0  0  0  0  0  0  0  0  0  0  0  0
   59.9735   24.5080   45.4341 H   0  0  0  0  0  0  0  0  0  0  0  0
   58.6463   21.6391   43.7757 H   0  0  0  0  0  0  0  0  0  0  0  0
   57.8712   20.9117   45.2245 H   0  0  0  0  0  0  0  0  0  0  0  0
   56.9823   20.0249   43.0201 H   0  0  0  0  0  0  0  0  0  0  0  0
   55.7267   20.7709   44.0840 H   0  0  0  0  0  0  0  0  0  0  0  0
   55.3129   23.6672   42.1661 H   0  0  0  0  0  0  0  0  0  0  0  0
   54.8369   22.7212   43.6294 H   0  0  0  0  0  0  0  0  0  0  0  0
   57.4726   24.2081   43.1650 H   0  0  0  0  0  0  0  0  0  0  0  0
   56.1840   24.6192   44.3472 H   0  0  0  0  0  0  0  0  0  0  0  0
   56.1808   25.2925   47.3698 H   0  0  0  0  0  0  0  0  0  0  0  0
   56.8938   27.6398   47.8120 H   0  0  0  0  0  0  0  0  0  0  0  0
   58.4039   27.9973   44.4633 H   0  0  0  0  0  0  0  0  0  0  0  0
   56.6577   28.4351   42.7455 H   0  0  0  0  0  0  0  0  0  0  0  0
   55.7508   30.7357   42.4385 H   0  0  0  0  0  0  0  0  0  0  0  0
   56.5979   32.6111   43.8395 H   0  0  0  0  0  0  0  0  0  0  0  0
   58.0209   31.6758   47.6555 H   0  0  0  0  0  0  0  0  0  0  0  0
   58.8812   33.6309   48.9478 H   0  0  0  0  0  0  0  0  0  0  0  0
   59.8614   35.5887   47.7489 H   0  0  0  0  0  0  0  0  0  0  0  0
   59.9883   35.5930   45.2552 H   0  0  0  0  0  0  0  0  0  0  0  0
   59.1333   33.6416   43.9568 H   0  0  0  0  0  0  0  0  0  0  0  0
  1  2  2  0
  2  3  1  0
  3  4  1  0
  4  5  2  0
  5  6  1  0
  6  7  2  0
  7  8  1  0
  8  9  2  0
  8 10  1  0
 10 11  1  0
 11 12  1  0
 12 13  1  0
 13 14  1  0
 14 15  1  0
  7 16  1  0
 16 17  2  0
  2 18  1  0
 18 19  2  0
 19 20  1  0
 20 21  2  0
 21 22  1  0
 22 23  2  0
 23 24  1  0
 24 25  2  0
 25 26  1  0
 26 27  2  0
 27 28  1  0
 28 29  2  0
 17  4  1  0
 23 18  1  0
 29 24  1  0
 15 10  1  0
  5 30  1  0
  6 31  1  0
 11 32  1  0
 11 33  1  0
 12 34  1  0
 12 35  1  0
 14 36  1  0
 14 37  1  0
 15 38  1  0
 15 39  1  0
 16 40  1  0
 17 41  1  0
 19 42  1  0
 20 43  1  0
 21 44  1  0
 22 45  1  0
 25 46  1  0
 26 47  1  0
 27 48  1  0
 28 49  1  0
 29 50  1  0
M  CHG  1   3  -1
M  END
>  <UniqueID>  (35) 
33

>  <SMILES>  (35) 
O=C([N-]c1ccc(C(=O)N2CCOCC2)cc1)c1ccccc1-c1ccccc1

>  <Energy>  (35) 
75.31523683376392

>  <Genealogy>  (35) 
O=C([N-]c1ccc(C(=O)N2CCOCC2)cc1)c1ccccc1-c1ccccc1 (protonated)
O=C([N-]c1ccc(C(=O)N2CCOCC2)cc1)c1ccccc1-c1ccccc1 (3D coordinates assigned)
O=C([N-]c1ccc(C(=O)N2CCOCC2)cc1)c1ccccc1-c1ccccc1 (nonaromatic ring conformer: 75.31523683376392 kcal/mol)

>  <smiles>  (35) 
O=C(Nc1ccc(C(=O)N2CCOCC2)cc1)c1ccccc1-c1ccccc1

>  <score_type>  (35) 
oracle

>  <origin>  (35) 
adg

>  <m_score__min__energy>  (35) 
-10.35

>  <m_primary>  (35) 
energy

$$$$
35:0
     RDKit          3D

 45 48  0  0  0  0  0  0  0  0999 V2000
   54.9607   30.3514   43.5780 H   0  0  0  0  0  0  0  0  0  0  0  0
   55.8140   30.1980   44.2550 C   0  0  0  0  0  0  0  0  0  0  0  0
   56.0060   28.9870   44.8370 N   0  0  0  0  0  0  0  0  0  0  0  0
   57.0480   28.7410   45.6760 C   0  0  0  0  0  0  0  0  0  0  0  0
   57.1540   27.5510   46.1990 N   0  0  0  0  0  0  0  0  0  0  0  0
   56.9120   26.2870   45.5580 C   0  0  0  0  0  0  0  0  0  0  0  0
   57.6670   25.8790   44.4470 C   0  0  0  0  0  0  0  0  0  0  0  0
   58.4848   26.5146   44.0767 H   0  0  0  0  0  0  0  0  0  0  0  0
   57.3830   24.6680   43.8100 C   0  0  0  0  0  0  0  0  0  0  0  0
   57.9921   24.3468   42.9522 H   0  0  0  0  0  0  0  0  0  0  0  0
   56.3290   23.8600   44.2550 C   0  0  0  0  0  0  0  0  0  0  0  0
   56.0910   22.6510   43.5810 O   0  0  0  0  0  0  0  0  0  0  0  0
   56.8740   21.4660   43.7120 C   0  0  0  0  0  0  0  0  0  0  0  0
   56.4800   20.7580   44.8330 F   0  0  0  0  0  0  0  0  0  0  0  0
   56.7380   20.6770   42.5840 F   0  0  0  0  0  0  0  0  0  0  0  0
   58.2020   21.8190   43.8520 F   0  0  0  0  0  0  0  0  0  0  0  0
   55.5500   24.2890   45.3470 C   0  0  0  0  0  0  0  0  0  0  0  0
   54.7141   23.6678   45.7013 H   0  0  0  0  0  0  0  0  0  0  0  0
   55.8350   25.5020   45.9830 C   0  0  0  0  0  0  0  0  0  0  0  0
   55.2089   25.8403   46.8218 H   0  0  0  0  0  0  0  0  0  0  0  0
   57.9450   29.7870   45.9780 C   0  0  0  0  0  0  0  0  0  0  0  0
   58.7777   29.6139   46.6757 H   0  0  0  0  0  0  0  0  0  0  0  0
   57.7740   31.0500   45.3870 C   0  0  0  0  0  0  0  0  0  0  0  0
   58.7170   32.1500   45.6960 C   0  0  0  0  0  0  0  0  0  0  0  0
   59.8560   31.9770   46.4030 N   0  0  0  0  0  0  0  0  0  0  0  0
   60.5540   33.1370   46.5520 C   0  0  0  0  0  0  0  0  0  0  0  0
   61.8230   33.1870   47.2880 C   0  0  0  0  0  0  0  0  0  0  0  0
   61.9300   33.3710   48.5850 O   0  0  0  0  0  0  0  0  0  0  0  0
   63.2150   33.3550   48.8660 C   0  0  0  0  0  0  0  0  0  0  0  0
   63.7680   33.5010   50.2480 C   0  0  0  0  0  0  0  0  0  0  0  0
   63.1765   32.8854   50.9416 H   0  0  0  0  0  0  0  0  0  0  0  0
   63.7160   34.5596   50.5422 H   0  0  0  0  0  0  0  0  0  0  0  0
   65.2230   33.0480   50.2910 C   0  0  0  0  0  0  0  0  0  0  0  0
   65.5450   32.9477   51.3380 H   0  0  0  0  0  0  0  0  0  0  0  0
   65.3199   32.0772   49.7830 H   0  0  0  0  0  0  0  0  0  0  0  0
   65.8539   33.7922   49.7830 H   0  0  0  0  0  0  0  0  0  0  0  0
   63.9710   33.1550   47.7680 N   0  0  0  0  0  0  0  0  0  0  0  0
   65.0110   33.0880   47.7110 H   0  0  0  0  0  0  0  0  0  0  0  0
   63.0890   33.0490   46.7580 C   0  0  0  0  0  0  0  0  0  0  0  0
   63.3336   32.8821   45.6986 H   0  0  0  0  0  0  0  0  0  0  0  0
   59.9750   34.2560   45.9620 C   0  0  0  0  0  0  0  0  0  0  0  0
   60.3804   35.2785   45.9711 H   0  0  0  0  0  0  0  0  0  0  0  0
   58.5440   33.7620   45.2330 S   0  0  0  0  0  0  0  0  0  0  0  0
   56.6940   31.2480   44.5120 C   0  0  0  0  0  0  0  0  0  0  0  0
   56.5432   32.2262   44.0320 H   0  0  0  0  0  0  0  0  0  0  0  0
  1  2  1  0
  2  3  1  0
  3  4  1  0
  4  5  2  0
  5  6  1  0
  6  7  2  0
  7  8  1  0
  7  9  1  0
  9 10  1  0
  9 11  2  0
 11 12  1  0
 12 13  1  0
 13 14  1  0
 13 15  1  0
 13 16  1  0
 11 17  1  0
 17 18  1  0
 17 19  2  0
 19 20  1  0
  4 21  1  0
 21 22  1  0
 21 23  2  0
 23 24  1  0
 24 25  2  0
 25 26  1  0
 26 27  1  0
 27 28  1  0
 28 29  1  0
 29 30  1  0
 30 31  1  0
 30 32  1  0
 30 33  1  0
 33 34  1  0
 33 35  1  0
 33 36  1  0
 29 37  2  0
 37 38  1  0
 37 39  1  0
 39 40  1  0
 26 41  2  0
 41 42  1  0
 41 43  1  0
 23 44  1  0
 44 45  1  0
 44  2  2  0
 19  6  1  0
 43 24  1  0
 39 27  2  0
M  CHG  2   3  -1  37   1
M  END
>  <UniqueID>  (36) 
34

>  <SMILES>  (36) 
CCc1[nH+]cc(-c2csc(-c3cc[n-]/c(=N/c4ccc(OC(F)(F)F)cc4)c3)n2)o1

>  <Energy>  (36) 
115.7339045366374

>  <Genealogy>  (36) 
CCc1[nH+]cc(-c2csc(-c3cc[n-]c(=Nc4ccc(OC(F)(F)F)cc4)c3)n2)o1 (protonated)
CCc1[nH+]cc(-c2csc(-c3cc[n-]/c(=N/c4ccc(OC(F)(F)F)cc4)c3)n2)o1 (cis-trans isomerization)
CCc1[nH+]cc(-c2csc(-c3cc[n-]/c(=N/c4ccc(OC(F)(F)F)cc4)c3)n2)o1 (3D coordinates assigned)
CCc1[nH+]cc(-c2csc(-c3cc[n-]/c(=N/c4ccc(OC(F)(F)F)cc4)c3)n2)o1 (optimized conformer: 115.7339045366374 kcal/mol)

>  <smiles>  (36) 
CCc1ncc(-c2csc(-c3cc[nH]c(=Nc4ccc(OC(F)(F)F)cc4)c3)n2)o1

>  <score_type>  (36) 
oracle

>  <origin>  (36) 
adg

>  <m_score__min__energy>  (36) 
-8.6899999999999995

>  <m_primary>  (36) 
energy

$$$$
36:0
     RDKit          3D

 41 42  0  0  0  0  0  0  0  0999 V2000
   59.7160   34.2300   49.2880 C   0  0  0  0  0  0  0  0  0  0  0  0
   59.4430   33.9230   47.8460 C   0  0  0  0  0  0  0  0  0  0  0  0
   59.6120   34.9150   46.8670 C   0  0  0  0  0  0  0  0  0  0  0  0
   59.3220   34.6410   45.5280 C   0  0  0  0  0  0  0  0  0  0  0  0
   58.8490   33.3740   45.1490 C   0  0  0  0  0  0  0  0  0  0  0  0
   58.5130   33.0910   43.7070 C   0  0  0  0  0  0  0  0  0  0  0  0
   57.3740   32.0710   43.5780 C   0  0  0  0  0  0  0  0  0  0  0  0
   57.8800   30.7000   43.5200 N   0  0  0  0  0  0  0  0  0  0  0  0
   57.2100   29.6260   44.1910 C   0  0  0  0  0  0  0  0  0  0  0  0
   56.1740   29.8530   44.8740 O   0  0  0  0  0  0  0  0  0  0  0  0
   57.7390   28.2250   44.0910 C   0  0  0  0  0  0  0  0  0  0  0  0
   58.4310   27.8190   45.3730 C   0  0  0  0  0  0  0  0  0  0  0  0
   59.6770   28.3970   45.6780 C   0  0  0  0  0  0  0  0  0  0  0  0
   60.3650   28.0350   46.8370 C   0  0  0  0  0  0  0  0  0  0  0  0
   59.8230   27.0890   47.7060 C   0  0  0  0  0  0  0  0  0  0  0  0
   58.5920   26.5000   47.4180 C   0  0  0  0  0  0  0  0  0  0  0  0
   57.8850   26.8490   46.2530 C   0  0  0  0  0  0  0  0  0  0  0  0
   56.5530   26.1970   45.9830 C   0  0  0  0  0  0  0  0  0  0  0  0
   58.6610   32.3890   46.1320 C   0  0  0  0  0  0  0  0  0  0  0  0
   58.9510   32.6630   47.4720 C   0  0  0  0  0  0  0  0  0  0  0  0
   59.1200   33.5597   49.9248 H   0  0  0  0  0  0  0  0  0  0  0  0
   60.7853   34.0809   49.4986 H   0  0  0  0  0  0  0  0  0  0  0  0
   59.4430   35.2746   49.4986 H   0  0  0  0  0  0  0  0  0  0  0  0
   59.9744   35.9127   47.1555 H   0  0  0  0  0  0  0  0  0  0  0  0
   59.4649   35.4218   44.7665 H   0  0  0  0  0  0  0  0  0  0  0  0
   58.2074   34.0296   43.2216 H   0  0  0  0  0  0  0  0  0  0  0  0
   59.4066   32.6693   43.2236 H   0  0  0  0  0  0  0  0  0  0  0  0
   56.7077   32.1686   44.4478 H   0  0  0  0  0  0  0  0  0  0  0  0
   56.8334   32.2770   42.6424 H   0  0  0  0  0  0  0  0  0  0  0  0
   58.7440   30.4840   42.9730 H   0  0  0  0  0  0  0  0  0  0  0  0
   56.9027   27.5367   43.8991 H   0  0  0  0  0  0  0  0  0  0  0  0
   58.4677   28.1814   43.2681 H   0  0  0  0  0  0  0  0  0  0  0  0
   60.1133   29.1417   44.9961 H   0  0  0  0  0  0  0  0  0  0  0  0
   61.3368   28.4970   47.0654 H   0  0  0  0  0  0  0  0  0  0  0  0
   60.3668   26.8069   48.6196 H   0  0  0  0  0  0  0  0  0  0  0  0
   58.1698   25.7552   48.1087 H   0  0  0  0  0  0  0  0  0  0  0  0
   56.0622   25.9567   46.9376 H   0  0  0  0  0  0  0  0  0  0  0  0
   55.9176   26.8859   45.4072 H   0  0  0  0  0  0  0  0  0  0  0  0
   56.7073   25.2725   45.4072 H   0  0  0  0  0  0  0  0  0  0  0  0
   58.2834   31.3962   45.8461 H   0  0  0  0  0  0  0  0  0  0  0  0
   58.7929   31.8878   48.2362 H   0  0  0  0  0  0  0  0  0  0  0  0
  1  2  1  0
  2  3  2  0
  3  4  1  0
  4  5  2  0
  5  6  1  0
  6  7  1  0
  7  8  1  0
  8  9  1  0
  9 10  2  0
  9 11  1  0
 11 12  1  0
 12 13  2  0
 13 14  1  0
 14 15  2  0
 15 16  1  0
 16 17  2  0
 17 18  1  0
  5 19  1  0
 19 20  2  0
 20  2  1  0
 17 12  1  0
  1 21  1  0
  1 22  1  0
  1 23  1  0
  3 24  1  0
  4 25  1  0
  6 26  1  0
  6 27  1  0
  7 28  1  0
  7 29  1  0
  8 30  1  0
 11 31  1  0
 11 32  1  0
 13 33  1  0
 14 34  1  0
 15 35  1  0
 16 36  1  0
 18 37  1  0
 18 38  1  0
 18 39  1  0
 19 40  1  0
 20 41  1  0
M  END
>  <UniqueID>  (37) 
35

>  <SMILES>  (37) 
Cc1ccc(CCNC(=O)Cc2ccccc2C)cc1

>  <Energy>  (37) 
34.42148496077719

>  <Genealogy>  (37) 
Cc1ccc(CCNC(=O)Cc2ccccc2C)cc1 (3D coordinates assigned)
Cc1ccc(CCNC(=O)Cc2ccccc2C)cc1 (optimized conformer: 34.42148496077719 kcal/mol)

>  <smiles>  (37) 
Cc1ccc(CCNC(=O)Cc2ccccc2C)cc1

>  <score_type>  (37) 
oracle

>  <origin>  (37) 
adg

>  <m_score__min__energy>  (37) 
-7.6900000000000004

>  <m_primary>  (37) 
energy

$$$$
37:0
     RDKit          3D

 39 41  0  0  0  0  0  0  0  0999 V2000
   51.5422   19.6660   45.9397 H   0  0  0  0  0  0  0  0  0  0  0  0
   51.6720   20.7340   46.1690 C   0  0  0  0  0  0  0  0  0  0  0  0
   52.1360   21.6300   45.2730 N   0  0  0  0  0  0  0  0  0  0  0  0
   52.1510   22.7860   45.9600 C   0  0  0  0  0  0  0  0  0  0  0  0
   52.5330   24.1050   45.3690 C   0  0  0  0  0  0  0  0  0  0  0  0
   51.8194   24.8734   45.7012 H   0  0  0  0  0  0  0  0  0  0  0  0
   52.5144   24.0282   44.2718 H   0  0  0  0  0  0  0  0  0  0  0  0
   53.9150   24.4850   45.8130 C   0  0  0  0  0  0  0  0  0  0  0  0
   54.3640   25.7520   45.6020 N   0  0  0  0  0  0  0  0  0  0  0  0
   55.5960   26.1430   46.0210 C   0  0  0  0  0  0  0  0  0  0  0  0
   55.9910   27.3610   45.7830 N   0  0  0  0  0  0  0  0  0  0  0  0
   57.3550   27.7970   45.4360 C   0  0  0  0  0  0  0  0  0  0  0  0
   57.3290   29.1900   44.7870 C   0  0  0  0  0  0  0  0  0  0  0  0
   56.6700   29.4370   43.5600 C   0  0  0  0  0  0  0  0  0  0  0  0
   56.1313   28.6206   43.0568 H   0  0  0  0  0  0  0  0  0  0  0  0
   56.6970   30.7090   42.9810 C   0  0  0  0  0  0  0  0  0  0  0  0
   56.1651   30.8914   42.0356 H   0  0  0  0  0  0  0  0  0  0  0  0
   57.3950   31.7480   43.5960 C   0  0  0  0  0  0  0  0  0  0  0  0
   57.4067   32.7493   43.1408 H   0  0  0  0  0  0  0  0  0  0  0  0
   58.0780   31.5150   44.7890 C   0  0  0  0  0  0  0  0  0  0  0  0
   58.6360   32.3320   45.2698 H   0  0  0  0  0  0  0  0  0  0  0  0
   58.0560   30.2470   45.3760 C   0  0  0  0  0  0  0  0  0  0  0  0
   58.6121   30.0704   46.3085 H   0  0  0  0  0  0  0  0  0  0  0  0
   58.0070   26.7140   44.5440 C   0  0  0  0  0  0  0  0  0  0  0  0
   58.4699   25.9451   45.1800 H   0  0  0  0  0  0  0  0  0  0  0  0
   57.2379   26.2502   43.9089 H   0  0  0  0  0  0  0  0  0  0  0  0
   58.7768   27.1767   43.9089 H   0  0  0  0  0  0  0  0  0  0  0  0
   58.1570   27.8940   46.7420 C   0  0  0  0  0  0  0  0  0  0  0  0
   57.4729   27.8113   47.5994 H   0  0  0  0  0  0  0  0  0  0  0  0
   58.8941   27.0785   46.7810 H   0  0  0  0  0  0  0  0  0  0  0  0
   58.6785   28.8618   46.7810 H   0  0  0  0  0  0  0  0  0  0  0  0
   56.3990   25.2550   46.6700 N   0  0  0  0  0  0  0  0  0  0  0  0
   55.9890   23.9840   46.9120 C   0  0  0  0  0  0  0  0  0  0  0  0
   56.7500   23.1850   47.5180 O   0  0  0  0  0  0  0  0  0  0  0  0
   54.7270   23.5680   46.4900 C   0  0  0  0  0  0  0  0  0  0  0  0
   54.3778   22.5432   46.6846 H   0  0  0  0  0  0  0  0  0  0  0  0
   51.6820   22.5740   47.2340 C   0  0  0  0  0  0  0  0  0  0  0  0
   51.5704   23.3436   48.0120 H   0  0  0  0  0  0  0  0  0  0  0  0
   51.3820   21.2710   47.3730 N   0  0  0  0  0  0  0  0  0  0  0  0
  1  2  1  0
  2  3  2  0
  3  4  1  0
  4  5  1  0
  5  6  1  0
  5  7  1  0
  5  8  1  0
  8  9  1  0
  9 10  1  0
 10 11  2  0
 11 12  1  0
 12 13  1  0
 13 14  2  0
 14 15  1  0
 14 16  1  0
 16 17  1  0
 16 18  2  0
 18 19  1  0
 18 20  1  0
 20 21  1  0
 20 22  2  0
 22 23  1  0
 12 24  1  0
 24 25  1  0
 24 26  1  0
 24 27  1  0
 12 28  1  0
 28 29  1  0
 28 30  1  0
 28 31  1  0
 10 32  1  0
 32 33  1  0
 33 34  2  0
 33 35  1  0
 35 36  1  0
  4 37  2  0
 37 38  1  0
 37 39  1  0
 39  2  1  0
 35  8  2  0
 22 13  1  0
M  CHG  3   9  -1  32  -1  39  -1
M  END
>  <UniqueID>  (38) 
36

>  <SMILES>  (38) 
CC(C)(/N=c1/[n-]c(Cc2c[n-]cn2)cc(=O)[n-]1)c1ccccc1

>  <Energy>  (38) 
69.49673975888595

>  <Genealogy>  (38) 
CC(C)(N=c1[n-]c(Cc2c[n-]cn2)cc(=O)[n-]1)c1ccccc1 (protonated)
CC(C)(/N=c1/[n-]c(Cc2c[n-]cn2)cc(=O)[n-]1)c1ccccc1 (cis-trans isomerization)
CC(C)(/N=c1/[n-]c(Cc2c[n-]cn2)cc(=O)[n-]1)c1ccccc1 (3D coordinates assigned)
CC(C)(/N=c1/[n-]c(Cc2c[n-]cn2)cc(=O)[n-]1)c1ccccc1 (optimized conformer: 69.49673975888595 kcal/mol)

>  <smiles>  (38) 
CC(C)(N=c1[nH]c(Cc2c[nH]cn2)cc(=O)[nH]1)c1ccccc1

>  <score_type>  (38) 
oracle

>  <origin>  (38) 
adg

>  <m_score__min__energy>  (38) 
-12.17

>  <m_primary>  (38) 
energy

$$$$
38:0
     RDKit          3D

 33 35  0  0  0  0  0  0  0  0999 V2000
   55.3870   29.3120   44.8680 N   0  0  0  0  0  0  0  0  0  0  0  0
   56.3060   28.3090   45.2940 C   0  0  0  0  0  0  0  0  0  0  0  0
   55.8670   27.1750   45.6260 O   0  0  0  0  0  0  0  0  0  0  0  0
   57.7610   28.5930   45.3480 C   0  0  0  0  0  0  0  0  0  0  0  0
   58.6360   27.9980   44.4220 C   0  0  0  0  0  0  0  0  0  0  0  0
   60.0050   28.2680   44.4680 C   0  0  0  0  0  0  0  0  0  0  0  0
   60.5190   29.1290   45.4380 C   0  0  0  0  0  0  0  0  0  0  0  0
   59.6660   29.7210   46.3840 C   0  0  0  0  0  0  0  0  0  0  0  0
   60.2030   30.6420   47.4110 C   0  0  0  0  0  0  0  0  0  0  0  0
   61.0360   30.2740   48.4520 C   0  0  0  0  0  0  0  0  0  0  0  0
   61.2440   31.3490   49.2310 N   0  0  0  0  0  0  0  0  0  0  0  0
   60.5480   32.3540   48.6660 C   0  0  0  0  0  0  0  0  0  0  0  0
   59.9030   31.9560   47.5490 N   0  0  0  0  0  0  0  0  0  0  0  0
   59.1610   32.8110   46.6620 C   0  0  0  0  0  0  0  0  0  0  0  0
   59.8290   33.7810   45.8960 C   0  0  0  0  0  0  0  0  0  0  0  0
   59.1120   34.6090   45.0260 C   0  0  0  0  0  0  0  0  0  0  0  0
   57.7280   34.4680   44.9060 C   0  0  0  0  0  0  0  0  0  0  0  0
   57.0570   33.4940   45.6520 C   0  0  0  0  0  0  0  0  0  0  0  0
   57.7700   32.6650   46.5230 C   0  0  0  0  0  0  0  0  0  0  0  0
   58.2870   29.4590   46.3240 C   0  0  0  0  0  0  0  0  0  0  0  0
   54.4140   29.3460   45.2480 H   0  0  0  0  0  0  0  0  0  0  0  0
   58.2392   27.3152   43.6562 H   0  0  0  0  0  0  0  0  0  0  0  0
   60.6807   27.8002   43.7369 H   0  0  0  0  0  0  0  0  0  0  0  0
   61.5973   29.3452   45.4621 H   0  0  0  0  0  0  0  0  0  0  0  0
   61.4571   29.2709   48.6147 H   0  0  0  0  0  0  0  0  0  0  0  0
   61.8260   31.3960   50.0970 H   0  0  0  0  0  0  0  0  0  0  0  0
   60.5097   33.3776   49.0671 H   0  0  0  0  0  0  0  0  0  0  0  0
   60.9203   33.8898   45.9808 H   0  0  0  0  0  0  0  0  0  0  0  0
   59.6394   35.3726   44.4353 H   0  0  0  0  0  0  0  0  0  0  0  0
   57.1655   35.1232   44.2246 H   0  0  0  0  0  0  0  0  0  0  0  0
   55.9674   33.3801   45.5534 H   0  0  0  0  0  0  0  0  0  0  0  0
   57.2399   31.8947   47.1024 H   0  0  0  0  0  0  0  0  0  0  0  0
   57.6108   29.9365   47.0485 H   0  0  0  0  0  0  0  0  0  0  0  0
  1  2  1  0
  2  3  2  0
  2  4  1  0
  4  5  2  0
  5  6  1  0
  6  7  2  0
  7  8  1  0
  8  9  1  0
  9 10  2  0
 10 11  1  0
 11 12  2  0
 12 13  1  0
 13 14  1  0
 14 15  2  0
 15 16  1  0
 16 17  2  0
 17 18  1  0
 18 19  2  0
  8 20  2  0
 20  4  1  0
 13  9  1  0
 19 14  1  0
  1 21  1  0
  5 22  1  0
  6 23  1  0
  7 24  1  0
 10 25  1  0
 11 26  1  0
 12 27  1  0
 15 28  1  0
 16 29  1  0
 17 30  1  0
 18 31  1  0
 19 32  1  0
 20 33  1  0
M  CHG  2   1  -1  11   1
M  END
>  <UniqueID>  (39) 
37

>  <SMILES>  (39) 
[NH-]C(=O)c1cccc(-c2c[nH+]cn2-c2ccccc2)c1

>  <Energy>  (39) 
75.5783988600688

>  <Genealogy>  (39) 
[NH-]C(=O)c1cccc(-c2c[nH+]cn2-c2ccccc2)c1 (protonated)
[NH-]C(=O)c1cccc(-c2c[nH+]cn2-c2ccccc2)c1 (3D coordinates assigned)
[NH-]C(=O)c1cccc(-c2c[nH+]cn2-c2ccccc2)c1 (optimized conformer: 75.5783988600688 kcal/mol)

>  <smiles>  (39) 
NC(=O)c1cccc(-c2cncn2-c2ccccc2)c1

>  <score_type>  (39) 
oracle

>  <origin>  (39) 
adg

>  <m_score__min__energy>  (39) 
-9.0800000000000001

>  <m_primary>  (39) 
energy

$$$$
39:0
     RDKit          3D

 21 21  0  0  0  0  0  0  0  0999 V2000
   55.4839   29.9604   42.5770 H   0  0  0  0  0  0  0  0  0  0  0  0
   56.0630   30.0680   43.5060 C   0  0  0  0  0  0  0  0  0  0  0  0
   55.5070   29.7460   44.6330 N   0  0  0  0  0  0  0  0  0  0  0  0
   55.7380   28.5340   45.2460 O   0  0  0  0  0  0  0  0  0  0  0  0
   57.0530   28.1600   45.6240 C   0  0  0  0  0  0  0  0  0  0  0  0
   57.1271   28.1389   46.7213 H   0  0  0  0  0  0  0  0  0  0  0  0
   57.2801   27.1616   45.2219 H   0  0  0  0  0  0  0  0  0  0  0  0
   57.7715   28.8894   45.2219 H   0  0  0  0  0  0  0  0  0  0  0  0
   57.4090   30.5600   43.4320 N   0  0  0  0  0  0  0  0  0  0  0  0
   57.9960   30.2240   42.6360 H   0  0  0  0  0  0  0  0  0  0  0  0
   57.9530   31.5740   44.2960 C   0  0  0  0  0  0  0  0  0  0  0  0
   58.5630   31.2450   45.5210 C   0  0  0  0  0  0  0  0  0  0  0  0
   58.6453   30.1914   45.8262 H   0  0  0  0  0  0  0  0  0  0  0  0
   59.0650   32.2520   46.3520 C   0  0  0  0  0  0  0  0  0  0  0  0
   59.5504   31.9877   47.3031 H   0  0  0  0  0  0  0  0  0  0  0  0
   58.9510   33.5940   45.9760 C   0  0  0  0  0  0  0  0  0  0  0  0
   59.6360   34.9660   47.1130 Br  0  0  0  0  0  0  0  0  0  0  0  0
   58.3280   33.9290   44.7710 C   0  0  0  0  0  0  0  0  0  0  0  0
   58.2327   34.9848   44.4773 H   0  0  0  0  0  0  0  0  0  0  0  0
   57.8250   32.9240   43.9370 C   0  0  0  0  0  0  0  0  0  0  0  0
   57.3264   33.1943   42.9945 H   0  0  0  0  0  0  0  0  0  0  0  0
  1  2  1  0
  2  3  2  0
  3  4  1  0
  4  5  1  0
  5  6  1  0
  5  7  1  0
  5  8  1  0
  2  9  1  0
  9 10  1  0
  9 11  1  0
 11 12  2  0
 12 13  1  0
 12 14  1  0
 14 15  1  0
 14 16  2  0
 16 17  1  0
 16 18  1  0
 18 19  1  0
 18 20  2  0
 20 21  1  0
 20 11  1  0
M  END
>  <UniqueID>  (40) 
38

>  <SMILES>  (40) 
CO/N=C\Nc1ccc(Br)cc1

>  <Energy>  (40) 
21.01110278230697

>  <Genealogy>  (40) 
CO/N=C\Nc1ccc(Br)cc1 (cis-trans isomerization)
CO/N=C\Nc1ccc(Br)cc1 (3D coordinates assigned)
CO/N=C\Nc1ccc(Br)cc1 (optimized conformer: 21.01110278230697 kcal/mol)

>  <smiles>  (40) 
CON=CNc1ccc(Br)cc1

>  <score_type>  (40) 
oracle

>  <origin>  (40) 
adg

>  <m_score__min__energy>  (40) 
-6.2000000000000002

>  <m_primary>  (40) 
energy

$$$$
40:0
     RDKit          3D

 31 32  0  0  0  0  0  0  0  0999 V2000
   59.4630   34.8870   45.4200 C   0  0  0  0  0  0  0  0  0  0  0  0
   59.3080   34.1890   44.1890 O   0  0  0  0  0  0  0  0  0  0  0  0
   58.4650   33.0820   44.0080 C   0  0  0  0  0  0  0  0  0  0  0  0
   58.1600   32.5650   42.7340 C   0  0  0  0  0  0  0  0  0  0  0  0
   57.3110   31.4630   42.6070 C   0  0  0  0  0  0  0  0  0  0  0  0
   56.7430   30.8660   43.7440 C   0  0  0  0  0  0  0  0  0  0  0  0
   55.8270   29.6790   43.6010 C   0  0  0  0  0  0  0  0  0  0  0  0
   55.6830   28.9730   44.8730 N   0  0  0  0  0  0  0  0  0  0  0  0
   56.6360   28.0830   45.4750 C   0  0  0  0  0  0  0  0  0  0  0  0
   56.2140   27.0030   45.9660 O   0  0  0  0  0  0  0  0  0  0  0  0
   58.0820   28.3870   45.5450 C   0  0  0  0  0  0  0  0  0  0  0  0
   58.9300   28.0980   44.4640 C   0  0  0  0  0  0  0  0  0  0  0  0
   60.2540   28.3990   44.5480 N   0  0  0  0  0  0  0  0  0  0  0  0
   60.7730   28.9860   45.6590 C   0  0  0  0  0  0  0  0  0  0  0  0
   59.9320   29.2880   46.7290 C   0  0  0  0  0  0  0  0  0  0  0  0
   58.6100   28.9870   46.6460 N   0  0  0  0  0  0  0  0  0  0  0  0
   57.0620   31.3730   45.0130 C   0  0  0  0  0  0  0  0  0  0  0  0
   57.9110   32.4760   45.1410 C   0  0  0  0  0  0  0  0  0  0  0  0
   59.3085   34.1913   46.2579 H   0  0  0  0  0  0  0  0  0  0  0  0
   60.4769   35.3098   45.4766 H   0  0  0  0  0  0  0  0  0  0  0  0
   58.7233   35.6992   45.4766 H   0  0  0  0  0  0  0  0  0  0  0  0
   58.5918   33.0306   41.8358 H   0  0  0  0  0  0  0  0  0  0  0  0
   57.0857   31.0598   41.6087 H   0  0  0  0  0  0  0  0  0  0  0  0
   54.8377   30.0260   43.2680 H   0  0  0  0  0  0  0  0  0  0  0  0
   56.2610   28.9879   42.8634 H   0  0  0  0  0  0  0  0  0  0  0  0
   58.5259   27.6306   43.5539 H   0  0  0  0  0  0  0  0  0  0  0  0
   60.8840   28.1750   43.7440 H   0  0  0  0  0  0  0  0  0  0  0  0
   61.8464   29.2204   45.7131 H   0  0  0  0  0  0  0  0  0  0  0  0
   60.3358   29.7663   47.6335 H   0  0  0  0  0  0  0  0  0  0  0  0
   56.6414   30.8996   45.9124 H   0  0  0  0  0  0  0  0  0  0  0  0
   58.1455   32.8708   46.1406 H   0  0  0  0  0  0  0  0  0  0  0  0
  1  2  1  0
  2  3  1  0
  3  4  2  0
  4  5  1  0
  5  6  2  0
  6  7  1  0
  7  8  1  0
  8  9  1  0
  9 10  2  0
  9 11  1  0
 11 12  2  0
 12 13  1  0
 13 14  2  0
 14 15  1  0
 15 16  2  0
  6 17  1  0
 17 18  2  0
 18  3  1  0
 16 11  1  0
  1 19  1  0
  1 20  1  0
  1 21  1  0
  4 22  1  0
  5 23  1  0
  7 24  1  0
  7 25  1  0
 12 26  1  0
 13 27  1  0
 14 28  1  0
 15 29  1  0
 17 30  1  0
 18 31  1  0
M  CHG  2   8  -1  13   1
M  END
>  <UniqueID>  (41) 
39

>  <SMILES>  (41) 
COc1ccc(C[N-]C(=O)c2c[nH+]ccn2)cc1

>  <Energy>  (41) 
32.63521862517932

>  <Genealogy>  (41) 
COc1ccc(C[N-]C(=O)c2c[nH+]ccn2)cc1 (protonated)
COc1ccc(C[N-]C(=O)c2c[nH+]ccn2)cc1 (3D coordinates assigned)
COc1ccc(C[N-]C(=O)c2c[nH+]ccn2)cc1 (optimized conformer: 32.63521862517932 kcal/mol)

>  <smiles>  (41) 
COc1ccc(CNC(=O)c2cnccn2)cc1

>  <score_type>  (41) 
oracle

>  <origin>  (41) 
adg

>  <m_score__min__energy>  (41) 
-6.5899999999999999

>  <m_primary>  (41) 
energy

$$$$
41:0
     RDKit          3D

 59 63  0  0  0  0  0  0  0  0999 V2000
   53.6820   23.5610   45.3560 C   0  0  0  0  0  0  0  0  0  0  0  0
   55.1270   23.1590   45.6320 C   0  0  0  0  0  0  0  0  0  0  0  0
   55.6900   23.9050   46.8470 C   0  0  0  0  0  0  0  0  0  0  0  0
   56.5190   25.0430   46.4080 N   0  0  0  0  0  0  0  0  0  0  0  0
   55.9160   26.2140   46.0020 C   0  0  0  0  0  0  0  0  0  0  0  0
   54.6610   26.3370   45.9820 O   0  0  0  0  0  0  0  0  0  0  0  0
   56.7230   27.2680   45.6120 C   0  0  0  0  0  0  0  0  0  0  0  0
   56.3650   28.4800   45.1640 N   0  0  0  0  0  0  0  0  0  0  0  0
   57.5690   29.0690   44.9360 C   0  0  0  0  0  0  0  0  0  0  0  0
   57.6990   30.4380   44.4270 C   0  0  0  0  0  0  0  0  0  0  0  0
   57.0400   30.9960   43.3450 C   0  0  0  0  0  0  0  0  0  0  0  0
   57.4230   32.2800   43.2330 N   0  0  0  0  0  0  0  0  0  0  0  0
   58.3010   32.5490   44.1880 N   0  0  0  0  0  0  0  0  0  0  0  0
   58.8750   33.8670   44.4340 C   0  0  0  0  0  0  0  0  0  0  0  0
   59.2850   33.9770   45.8690 C   0  0  0  0  0  0  0  0  0  0  0  0
   58.3830   34.2200   46.9000 C   0  0  0  0  0  0  0  0  0  0  0  0
   59.2400   34.1800   48.3430 S   0  0  0  0  0  0  0  0  0  0  0  0
   60.7180   33.8460   47.6040 C   0  0  0  0  0  0  0  0  0  0  0  0
   62.0130   33.6510   48.2960 C   0  0  0  0  0  0  0  0  0  0  0  0
   62.1190   33.8090   49.6900 C   0  0  0  0  0  0  0  0  0  0  0  0
   63.3470   33.6200   50.3330 C   0  0  0  0  0  0  0  0  0  0  0  0
   64.4800   33.2740   49.5930 C   0  0  0  0  0  0  0  0  0  0  0  0
   64.3860   33.1150   48.2080 C   0  0  0  0  0  0  0  0  0  0  0  0
   63.1620   33.3020   47.5610 C   0  0  0  0  0  0  0  0  0  0  0  0
   60.5700   33.7600   46.2610 N   0  0  0  0  0  0  0  0  0  0  0  0
   58.4870   31.4490   44.9440 C   0  0  0  0  0  0  0  0  0  0  0  0
   58.6440   28.2870   45.2210 N   0  0  0  0  0  0  0  0  0  0  0  0
   58.0640   27.1530   45.6480 C   0  0  0  0  0  0  0  0  0  0  0  0
   58.6910   26.0220   46.0730 N   0  0  0  0  0  0  0  0  0  0  0  0
   60.1600   25.9360   46.0730 C   0  0  0  0  0  0  0  0  0  0  0  0
   60.7530   27.0210   46.9780 C   0  0  0  0  0  0  0  0  0  0  0  0
   60.0240   27.0840   48.3170 C   0  0  0  0  0  0  0  0  0  0  0  0
   57.9020   24.9530   46.4500 C   0  0  0  0  0  0  0  0  0  0  0  0
   58.4500   23.8830   46.8380 O   0  0  0  0  0  0  0  0  0  0  0  0
   53.1538   23.7080   46.3096 H   0  0  0  0  0  0  0  0  0  0  0  0
   53.6657   24.4978   44.7797 H   0  0  0  0  0  0  0  0  0  0  0  0
   53.1843   22.7672   44.7797 H   0  0  0  0  0  0  0  0  0  0  0  0
   55.1672   22.0769   45.8256 H   0  0  0  0  0  0  0  0  0  0  0  0
   55.7341   23.4197   44.7525 H   0  0  0  0  0  0  0  0  0  0  0  0
   54.8576   24.2779   47.4619 H   0  0  0  0  0  0  0  0  0  0  0  0
   56.3120   23.2142   47.4352 H   0  0  0  0  0  0  0  0  0  0  0  0
   56.3252   30.4776   42.6890 H   0  0  0  0  0  0  0  0  0  0  0  0
   57.0800   32.9670   42.5240 H   0  0  0  0  0  0  0  0  0  0  0  0
   59.7554   34.0087   43.7900 H   0  0  0  0  0  0  0  0  0  0  0  0
   58.1251   34.6395   44.2084 H   0  0  0  0  0  0  0  0  0  0  0  0
   57.3043   34.4048   46.7897 H   0  0  0  0  0  0  0  0  0  0  0  0
   61.2306   34.0829   50.2781 H   0  0  0  0  0  0  0  0  0  0  0  0
   63.4204   33.7441   51.4235 H   0  0  0  0  0  0  0  0  0  0  0  0
   65.4451   33.1269   50.0999 H   0  0  0  0  0  0  0  0  0  0  0  0
   65.2782   32.8418   47.6255 H   0  0  0  0  0  0  0  0  0  0  0  0
   63.0955   33.1757   46.4703 H   0  0  0  0  0  0  0  0  0  0  0  0
   59.1494   31.3697   45.8186 H   0  0  0  0  0  0  0  0  0  0  0  0
   60.4662   24.9465   46.4433 H   0  0  0  0  0  0  0  0  0  0  0  0
   60.5284   26.0832   45.0470 H   0  0  0  0  0  0  0  0  0  0  0  0
   61.8148   26.7968   47.1580 H   0  0  0  0  0  0  0  0  0  0  0  0
   60.6408   27.9928   46.4750 H   0  0  0  0  0  0  0  0  0  0  0  0
   60.7555   27.0208   49.1361 H   0  0  0  0  0  0  0  0  0  0  0  0
   59.4728   28.0331   48.3901 H   0  0  0  0  0  0  0  0  0  0  0  0
   59.3181   26.2435   48.3901 H   0  0  0  0  0  0  0  0  0  0  0  0
  1  2  1  0
  2  3  1  0
  3  4  1  0
  4  5  1  0
  5  6  2  0
  5  7  1  0
  7  8  1  0
  8  9  1  0
  9 10  1  0
 10 11  1  0
 11 12  2  0
 12 13  1  0
 13 14  1  0
 14 15  1  0
 15 16  2  0
 16 17  1  0
 17 18  1  0
 18 19  1  0
 19 20  2  0
 20 21  1  0
 21 22  2  0
 22 23  1  0
 23 24  2  0
 18 25  2  0
 13 26  1  0
  9 27  2  0
 27 28  1  0
 28 29  1  0
 29 30  1  0
 30 31  1  0
 31 32  1  0
 29 33  1  0
 33 34  2  0
 33  4  1  0
 28  7  2  0
 26 10  2  0
 25 15  1  0
 24 19  1  0
  1 35  1  0
  1 36  1  0
  1 37  1  0
  2 38  1  0
  2 39  1  0
  3 40  1  0
  3 41  1  0
 11 42  1  0
 12 43  1  0
 14 44  1  0
 14 45  1  0
 16 46  1  0
 20 47  1  0
 21 48  1  0
 22 49  1  0
 23 50  1  0
 24 51  1  0
 26 52  1  0
 30 53  1  0
 30 54  1  0
 31 55  1  0
 31 56  1  0
 32 57  1  0
 32 58  1  0
 32 59  1  0
M  CHG  2   8  -1  12   1
M  END
>  <UniqueID>  (42) 
40

>  <SMILES>  (42) 
CCCn1c(=O)c2[n-]c(-c3c[nH+]n(Cc4csc(-c5ccccc5)n4)c3)nc2n(CCC)c1=O

>  <Energy>  (42) 
154.57558155131417

>  <Genealogy>  (42) 
CCCn1c(=O)c2[n-]c(-c3c[nH+]n(Cc4csc(-c5ccccc5)n4)c3)nc2n(CCC)c1=O (protonated)
CCCn1c(=O)c2[n-]c(-c3c[nH+]n(Cc4csc(-c5ccccc5)n4)c3)nc2n(CCC)c1=O (3D coordinates assigned)
CCCn1c(=O)c2[n-]c(-c3c[nH+]n(Cc4csc(-c5ccccc5)n4)c3)nc2n(CCC)c1=O (optimized conformer: 154.57558155131417 kcal/mol)

>  <smiles>  (42) 
CCCn1c(=O)c2[nH]c(-c3cnn(Cc4csc(-c5ccccc5)n4)c3)nc2n(CCC)c1=O

>  <score_type>  (42) 
oracle

>  <origin>  (42) 
adg

>  <m_score__min__energy>  (42) 
-9.2899999999999991

>  <m_primary>  (42) 
energy

$$$$
42:0
     RDKit          3D

 46 49  0  0  0  0  0  0  0  0999 V2000
   58.1080   27.0610   42.6810 C   0  0  0  0  0  0  0  0  0  0  0  0
   57.7740   26.3430   43.9590 C   0  0  0  0  0  0  0  0  0  0  0  0
   57.3730   24.9960   43.9140 C   0  0  0  0  0  0  0  0  0  0  0  0
   57.0610   24.3100   45.0890 C   0  0  0  0  0  0  0  0  0  0  0  0
   57.1550   24.9550   46.3210 C   0  0  0  0  0  0  0  0  0  0  0  0
   57.5590   26.2900   46.3840 C   0  0  0  0  0  0  0  0  0  0  0  0
   57.8590   27.0020   45.2090 C   0  0  0  0  0  0  0  0  0  0  0  0
   58.3130   28.3650   45.2820 N   0  0  0  0  0  0  0  0  0  0  0  0
   57.4280   29.4990   45.2890 C   0  0  0  0  0  0  0  0  0  0  0  0
   56.1790   29.3330   45.2380 O   0  0  0  0  0  0  0  0  0  0  0  0
   57.9590   30.8690   45.3850 C   0  0  0  0  0  0  0  0  0  0  0  0
   57.2740   32.1740   44.5580 S   0  0  0  0  0  0  0  0  0  0  0  0
   58.3540   33.3000   45.1560 C   0  0  0  0  0  0  0  0  0  0  0  0
   58.3770   34.6200   44.8570 N   0  0  0  0  0  0  0  0  0  0  0  0
   59.3310   35.4050   45.4190 C   0  0  0  0  0  0  0  0  0  0  0  0
   60.2400   34.8710   46.2840 N   0  0  0  0  0  0  0  0  0  0  0  0
   60.2420   33.5440   46.6040 C   0  0  0  0  0  0  0  0  0  0  0  0
   61.1730   33.0740   47.5880 N   0  0  0  0  0  0  0  0  0  0  0  0
   60.9250   33.3350   49.0090 C   0  0  0  0  0  0  0  0  0  0  0  0
   62.0630   34.1920   49.6110 C   0  0  0  0  0  0  0  0  0  0  0  0
   63.2640   34.1970   48.8480 O   0  0  0  0  0  0  0  0  0  0  0  0
   63.5190   32.9250   48.2900 C   0  0  0  0  0  0  0  0  0  0  0  0
   62.5150   32.6590   47.1670 C   0  0  0  0  0  0  0  0  0  0  0  0
   59.2730   32.7070   46.0080 C   0  0  0  0  0  0  0  0  0  0  0  0
   59.0830   31.3060   46.1140 C   0  0  0  0  0  0  0  0  0  0  0  0
   60.0180   30.3600   46.8160 C   0  0  0  0  0  0  0  0  0  0  0  0
   58.5613   28.0354   42.9156 H   0  0  0  0  0  0  0  0  0  0  0  0
   58.8179   26.4576   42.0962 H   0  0  0  0  0  0  0  0  0  0  0  0
   57.1892   27.2153   42.0962 H   0  0  0  0  0  0  0  0  0  0  0  0
   57.3046   24.4789   42.9455 H   0  0  0  0  0  0  0  0  0  0  0  0
   56.7405   23.2588   45.0425 H   0  0  0  0  0  0  0  0  0  0  0  0
   56.9104   24.4112   47.2454 H   0  0  0  0  0  0  0  0  0  0  0  0
   57.6433   26.7889   47.3607 H   0  0  0  0  0  0  0  0  0  0  0  0
   59.3410   28.5350   45.3230 H   0  0  0  0  0  0  0  0  0  0  0  0
   59.3711   36.4770   45.1756 H   0  0  0  0  0  0  0  0  0  0  0  0
   59.9715   33.8727   49.1169 H   0  0  0  0  0  0  0  0  0  0  0  0
   60.8826   32.3749   49.5441 H   0  0  0  0  0  0  0  0  0  0  0  0
   61.7049   35.2287   49.6951 H   0  0  0  0  0  0  0  0  0  0  0  0
   62.3120   33.7431   50.5839 H   0  0  0  0  0  0  0  0  0  0  0  0
   64.5409   32.8994   47.8838 H   0  0  0  0  0  0  0  0  0  0  0  0
   63.4179   32.1531   49.0671 H   0  0  0  0  0  0  0  0  0  0  0  0
   62.8089   33.2281   46.2727 H   0  0  0  0  0  0  0  0  0  0  0  0
   62.5057   31.5833   46.9371 H   0  0  0  0  0  0  0  0  0  0  0  0
   59.9057   30.4737   47.9043 H   0  0  0  0  0  0  0  0  0  0  0  0
   59.7773   29.3259   46.5286 H   0  0  0  0  0  0  0  0  0  0  0  0
   61.0549   30.5886   46.5286 H   0  0  0  0  0  0  0  0  0  0  0  0
  1  2  1  0
  2  3  2  0
  3  4  1  0
  4  5  2  0
  5  6  1  0
  6  7  2  0
  7  8  1  0
  8  9  1  0
  9 10  2  0
  9 11  1  0
 11 12  1  0
 12 13  1  0
 13 14  2  0
 14 15  1  0
 15 16  2  0
 16 17  1  0
 17 18  1  0
 18 19  1  0
 19 20  1  0
 20 21  1  0
 21 22  1  0
 22 23  1  0
 17 24  2  0
 24 25  1  0
 25 26  1  0
  7  2  1  0
 25 11  2  0
 24 13  1  0
 23 18  1  0
  1 27  1  0
  1 28  1  0
  1 29  1  0
  3 30  1  0
  4 31  1  0
  5 32  1  0
  6 33  1  0
  8 34  1  0
 15 35  1  0
 19 36  1  0
 19 37  1  0
 20 38  1  0
 20 39  1  0
 22 40  1  0
 22 41  1  0
 23 42  1  0
 23 43  1  0
 26 44  1  0
 26 45  1  0
 26 46  1  0
M  END
>  <UniqueID>  (43) 
41

>  <SMILES>  (43) 
Cc1ccccc1NC(=O)c1sc2ncnc(N3CCOCC3)c2c1C

>  <Energy>  (43) 
105.66523221373613

>  <Genealogy>  (43) 
Cc1ccccc1NC(=O)c1sc2ncnc(N3CCOCC3)c2c1C (3D coordinates assigned)
Cc1ccccc1NC(=O)c1sc2ncnc(N3CCOCC3)c2c1C (nonaromatic ring conformer: 105.66523221373613 kcal/mol)

>  <smiles>  (43) 
Cc1ccccc1NC(=O)c1sc2ncnc(N3CCOCC3)c2c1C

>  <score_type>  (43) 
oracle

>  <origin>  (43) 
adg

>  <m_score__min__energy>  (43) 
-8.3399999999999999

>  <m_primary>  (43) 
energy

$$$$
43:0
     RDKit          3D

 41 42  0  0  0  0  0  0  0  0999 V2000
   56.9970   34.0970   45.2280 C   0  0  0  0  0  0  0  0  0  0  0  0
   57.5680   32.8380   45.7960 C   0  0  0  0  0  0  0  0  0  0  0  0
   57.3870   31.6210   45.2400 N   0  0  0  0  0  0  0  0  0  0  0  0
   58.0440   30.7400   45.9790 N   0  0  0  0  0  0  0  0  0  0  0  0
   58.0670   29.3100   45.6980 C   0  0  0  0  0  0  0  0  0  0  0  0
   58.6620   31.3770   46.9940 C   0  0  0  0  0  0  0  0  0  0  0  0
   59.4220   30.7260   48.0230 N   0  0  0  0  0  0  0  0  0  0  0  0
   58.9450   30.7370   49.4060 C   0  0  0  0  0  0  0  0  0  0  0  0
   60.7820   30.2780   47.7290 C   0  0  0  0  0  0  0  0  0  0  0  0
   58.3920   32.7300   46.9090 C   0  0  0  0  0  0  0  0  0  0  0  0
   58.8600   33.8260   47.8290 C   0  0  0  0  0  0  0  0  0  0  0  0
   59.6590   34.8290   47.1080 N   0  0  0  0  0  0  0  0  0  0  0  0
   60.7890   34.2410   46.3680 C   0  0  0  0  0  0  0  0  0  0  0  0
   61.9210   33.8270   47.2790 C   0  0  0  0  0  0  0  0  0  0  0  0
   61.8940   34.1490   48.6430 C   0  0  0  0  0  0  0  0  0  0  0  0
   62.9570   33.7830   49.4680 C   0  0  0  0  0  0  0  0  0  0  0  0
   64.0410   33.0940   48.9210 C   0  0  0  0  0  0  0  0  0  0  0  0
   64.0560   32.7850   47.5970 N   0  0  0  0  0  0  0  0  0  0  0  0
   63.0300   33.1340   46.7720 C   0  0  0  0  0  0  0  0  0  0  0  0
   56.6941   34.7648   46.0479 H   0  0  0  0  0  0  0  0  0  0  0  0
   57.7563   34.5974   44.6090 H   0  0  0  0  0  0  0  0  0  0  0  0
   56.1204   33.8554   44.6090 H   0  0  0  0  0  0  0  0  0  0  0  0
   58.0760   28.7503   46.6449 H   0  0  0  0  0  0  0  0  0  0  0  0
   57.1732   29.0358   45.1185 H   0  0  0  0  0  0  0  0  0  0  0  0
   58.9692   29.0647   45.1185 H   0  0  0  0  0  0  0  0  0  0  0  0
   59.8056   30.7172   50.0908 H   0  0  0  0  0  0  0  0  0  0  0  0
   58.3561   31.6490   49.5835 H   0  0  0  0  0  0  0  0  0  0  0  0
   58.3147   29.8532   49.5835 H   0  0  0  0  0  0  0  0  0  0  0  0
   61.3213   30.1004   48.6712 H   0  0  0  0  0  0  0  0  0  0  0  0
   60.7431   29.3452   47.1473 H   0  0  0  0  0  0  0  0  0  0  0  0
   61.3051   31.0513   47.1473 H   0  0  0  0  0  0  0  0  0  0  0  0
   57.9827   34.3193   48.2729 H   0  0  0  0  0  0  0  0  0  0  0  0
   59.4920   33.3763   48.6090 H   0  0  0  0  0  0  0  0  0  0  0  0
   60.0260   35.5210   47.8020 H   0  0  0  0  0  0  0  0  0  0  0  0
   60.4316   33.3546   45.8234 H   0  0  0  0  0  0  0  0  0  0  0  0
   61.1751   35.0080   45.6805 H   0  0  0  0  0  0  0  0  0  0  0  0
   61.0337   34.6908   49.0629 H   0  0  0  0  0  0  0  0  0  0  0  0
   62.9416   34.0346   50.5387 H   0  0  0  0  0  0  0  0  0  0  0  0
   64.8849   32.8004   49.5626 H   0  0  0  0  0  0  0  0  0  0  0  0
   64.8750   32.2700   47.2020 H   0  0  0  0  0  0  0  0  0  0  0  0
   63.0713   32.8715   45.7046 H   0  0  0  0  0  0  0  0  0  0  0  0
  1  2  1  0
  2  3  2  0
  3  4  1  0
  4  5  1  0
  4  6  1  0
  6  7  1  0
  7  8  1  0
  7  9  1  0
  6 10  2  0
 10 11  1  0
 11 12  1  0
 12 13  1  0
 13 14  1  0
 14 15  2  0
 15 16  1  0
 16 17  2  0
 17 18  1  0
 18 19  2  0
 10  2  1  0
 19 14  1  0
  1 20  1  0
  1 21  1  0
  1 22  1  0
  5 23  1  0
  5 24  1  0
  5 25  1  0
  8 26  1  0
  8 27  1  0
  8 28  1  0
  9 29  1  0
  9 30  1  0
  9 31  1  0
 11 32  1  0
 11 33  1  0
 12 34  1  0
 13 35  1  0
 13 36  1  0
 15 37  1  0
 16 38  1  0
 17 39  1  0
 18 40  1  0
 19 41  1  0
M  CHG  1  18   1
M  END
>  <UniqueID>  (44) 
42

>  <SMILES>  (44) 
Cc1nn(C)c(N(C)C)c1CNCc1ccc[nH+]c1

>  <Energy>  (44) 
70.6776695613457

>  <Genealogy>  (44) 
Cc1nn(C)c(N(C)C)c1CNCc1ccc[nH+]c1 (protonated)
Cc1nn(C)c(N(C)C)c1CNCc1ccc[nH+]c1 (3D coordinates assigned)
Cc1nn(C)c(N(C)C)c1CNCc1ccc[nH+]c1 (optimized conformer: 70.6776695613457 kcal/mol)

>  <smiles>  (44) 
Cc1nn(C)c(N(C)C)c1CNCc1cccnc1

>  <score_type>  (44) 
oracle

>  <origin>  (44) 
adg

>  <m_score__min__energy>  (44) 
-5.1799999999999997

>  <m_primary>  (44) 
energy

$$$$
44:0
     RDKit          3D

 36 37  0  0  0  0  0  0  0  0999 V2000
   57.2650   29.2330   43.3820 N   0  0  0  0  0  0  0  0  0  0  0  0
   57.5740   30.4090   44.1340 C   0  0  0  0  0  0  0  0  0  0  0  0
   57.5770   31.6640   43.5120 C   0  0  0  0  0  0  0  0  0  0  0  0
   57.8810   32.8140   44.2460 C   0  0  0  0  0  0  0  0  0  0  0  0
   58.1990   32.7240   45.6110 C   0  0  0  0  0  0  0  0  0  0  0  0
   58.5360   33.9680   46.4100 C   0  0  0  0  0  0  0  0  0  0  0  0
   59.7840   33.8560   47.2130 N   0  0  0  0  0  0  0  0  0  0  0  0
   60.9340   33.3440   46.4080 C   0  0  0  0  0  0  0  0  0  0  0  0
   62.2640   33.1850   47.1810 C   0  0  0  0  0  0  0  0  0  0  0  0
   62.4610   34.1350   48.3910 C   0  0  0  0  0  0  0  0  0  0  0  0
   61.7880   33.6950   49.7040 C   0  0  0  0  0  0  0  0  0  0  0  0
   60.2510   33.8060   49.7000 C   0  0  0  0  0  0  0  0  0  0  0  0
   59.5380   33.1560   48.5000 C   0  0  0  0  0  0  0  0  0  0  0  0
   58.1720   31.4650   46.2360 C   0  0  0  0  0  0  0  0  0  0  0  0
   57.8680   30.3160   45.5010 C   0  0  0  0  0  0  0  0  0  0  0  0
   57.7840   29.0090   42.5030 H   0  0  0  0  0  0  0  0  0  0  0  0
   56.5160   28.5780   43.6970 H   0  0  0  0  0  0  0  0  0  0  0  0
   57.3390   31.7449   42.4411 H   0  0  0  0  0  0  0  0  0  0  0  0
   57.8711   33.7963   43.7511 H   0  0  0  0  0  0  0  0  0  0  0  0
   58.6507   34.8080   45.7091 H   0  0  0  0  0  0  0  0  0  0  0  0
   57.7126   34.1188   47.1236 H   0  0  0  0  0  0  0  0  0  0  0  0
   60.0240   34.8450   47.4660 H   0  0  0  0  0  0  0  0  0  0  0  0
   60.6551   32.3590   46.0056 H   0  0  0  0  0  0  0  0  0  0  0  0
   61.1222   34.1004   45.6318 H   0  0  0  0  0  0  0  0  0  0  0  0
   62.3167   32.1509   47.5521 H   0  0  0  0  0  0  0  0  0  0  0  0
   63.0577   33.4454   46.4653 H   0  0  0  0  0  0  0  0  0  0  0  0
   63.5413   34.2234   48.5785 H   0  0  0  0  0  0  0  0  0  0  0  0
   61.9771   35.0819   48.1096 H   0  0  0  0  0  0  0  0  0  0  0  0
   62.0566   32.6452   49.8933 H   0  0  0  0  0  0  0  0  0  0  0  0
   62.1500   34.3781   50.4865 H   0  0  0  0  0  0  0  0  0  0  0  0
   59.8752   33.3273   50.6163 H   0  0  0  0  0  0  0  0  0  0  0  0
   60.0281   34.8812   49.6349 H   0  0  0  0  0  0  0  0  0  0  0  0
   59.8918   32.1188   48.4051 H   0  0  0  0  0  0  0  0  0  0  0  0
   58.4573   33.2124   48.6970 H   0  0  0  0  0  0  0  0  0  0  0  0
   58.3916   31.3838   47.3108 H   0  0  0  0  0  0  0  0  0  0  0  0
   57.8594   29.3345   45.9975 H   0  0  0  0  0  0  0  0  0  0  0  0
  1  2  1  0
  2  3  2  0
  3  4  1  0
  4  5  2  0
  5  6  1  0
  6  7  1  0
  7  8  1  0
  8  9  1  0
  9 10  1  0
 10 11  1  0
 11 12  1  0
 12 13  1  0
  5 14  1  0
 14 15  2  0
 15  2  1  0
 13  7  1  0
  1 16  1  0
  1 17  1  0
  3 18  1  0
  4 19  1  0
  6 20  1  0
  6 21  1  0
  7 22  1  0
  8 23  1  0
  8 24  1  0
  9 25  1  0
  9 26  1  0
 10 27  1  0
 10 28  1  0
 11 29  1  0
 11 30  1  0
 12 31  1  0
 12 32  1  0
 13 33  1  0
 13 34  1  0
 14 35  1  0
 15 36  1  0
M  CHG  1   7   1
M  END
>  <UniqueID>  (45) 
43

>  <SMILES>  (45) 
Nc1ccc(C[NH+]2CCCCCC2)cc1

>  <Energy>  (45) 
50.66693556949424

>  <Genealogy>  (45) 
Nc1ccc(C[NH+]2CCCCCC2)cc1 (protonated)
Nc1ccc(C[NH+]2CCCCCC2)cc1 (3D coordinates assigned)
Nc1ccc(C[NH+]2CCCCCC2)cc1 (nonaromatic ring conformer: 50.66693556949424 kcal/mol)

>  <smiles>  (45) 
Nc1ccc(CN2CCCCCC2)cc1

>  <score_type>  (45) 
oracle

>  <origin>  (45) 
adg

>  <m_score__min__energy>  (45) 
-2.6200000000000001

>  <m_primary>  (45) 
energy

$$$$
45:0
     RDKit          3D

 30 32  0  0  0  0  0  0  0  0999 V2000
   56.7610   30.6540   43.5240 C   0  0  0  0  0  0  0  0  0  0  0  0
   56.8480   31.1090   44.8680 O   0  0  0  0  0  0  0  0  0  0  0  0
   58.0710   31.1880   45.5340 C   0  0  0  0  0  0  0  0  0  0  0  0
   58.7550   30.0650   46.0240 C   0  0  0  0  0  0  0  0  0  0  0  0
   58.3170   28.6520   45.9470 C   0  0  0  0  0  0  0  0  0  0  0  0
   59.2520   27.6110   45.8090 C   0  0  0  0  0  0  0  0  0  0  0  0
   58.8250   26.2820   45.7350 C   0  0  0  0  0  0  0  0  0  0  0  0
   57.4630   25.9720   45.7910 C   0  0  0  0  0  0  0  0  0  0  0  0
   57.0660   24.6370   45.7150 O   0  0  0  0  0  0  0  0  0  0  0  0
   56.5220   27.0060   45.9170 C   0  0  0  0  0  0  0  0  0  0  0  0
   55.1620   26.7180   45.9710 O   0  0  0  0  0  0  0  0  0  0  0  0
   56.9480   28.3360   45.9900 C   0  0  0  0  0  0  0  0  0  0  0  0
   60.2240   30.5830   46.6940 S   0  0  0  0  0  0  0  0  0  0  0  0
   59.9780   32.2140   46.3920 C   0  0  0  0  0  0  0  0  0  0  0  0
   60.8140   33.2840   46.7060 C   0  0  0  0  0  0  0  0  0  0  0  0
   60.3890   34.5780   46.3680 C   0  0  0  0  0  0  0  0  0  0  0  0
   59.1470   34.7750   45.7360 C   0  0  0  0  0  0  0  0  0  0  0  0
   58.3200   33.6800   45.4300 C   0  0  0  0  0  0  0  0  0  0  0  0
   58.7560   32.3920   45.7600 C   0  0  0  0  0  0  0  0  0  0  0  0
   56.5544   29.5736   43.5153 H   0  0  0  0  0  0  0  0  0  0  0  0
   55.9485   31.1868   43.0084 H   0  0  0  0  0  0  0  0  0  0  0  0
   57.7128   30.8495   43.0084 H   0  0  0  0  0  0  0  0  0  0  0  0
   60.3259   27.8438   45.7590 H   0  0  0  0  0  0  0  0  0  0  0  0
   59.5654   25.4750   45.6321 H   0  0  0  0  0  0  0  0  0  0  0  0
   56.0890   24.3670   45.7220 H   0  0  0  0  0  0  0  0  0  0  0  0
   56.2051   29.1421   46.0819 H   0  0  0  0  0  0  0  0  0  0  0  0
   61.7803   33.1188   47.2050 H   0  0  0  0  0  0  0  0  0  0  0  0
   61.0295   35.4422   46.5980 H   0  0  0  0  0  0  0  0  0  0  0  0
   58.8208   35.7937   45.4794 H   0  0  0  0  0  0  0  0  0  0  0  0
   57.3473   33.8331   44.9398 H   0  0  0  0  0  0  0  0  0  0  0  0
  1  2  1  0
  2  3  1  0
  3  4  2  0
  4  5  1  0
  5  6  2  0
  6  7  1  0
  7  8  2  0
  8  9  1  0
  8 10  1  0
 10 11  1  0
 10 12  2  0
  4 13  1  0
 13 14  1  0
 14 15  2  0
 15 16  1  0
 16 17  2  0
 17 18  1  0
 18 19  2  0
 19  3  1  0
 12  5  1  0
 19 14  1  0
  1 20  1  0
  1 21  1  0
  1 22  1  0
  6 23  1  0
  7 24  1  0
  9 25  1  0
 12 26  1  0
 15 27  1  0
 16 28  1  0
 17 29  1  0
 18 30  1  0
M  CHG  1  11  -1
M  END
>  <UniqueID>  (46) 
44

>  <SMILES>  (46) 
COc1c(-c2ccc(O)c([O-])c2)sc2ccccc12

>  <Energy>  (46) 
73.46917931028288

>  <Genealogy>  (46) 
COc1c(-c2ccc(O)c([O-])c2)sc2ccccc12 (protonated)
COc1c(-c2ccc(O)c([O-])c2)sc2ccccc12 (3D coordinates assigned)
COc1c(-c2ccc(O)c([O-])c2)sc2ccccc12 (optimized conformer: 73.46917931028288 kcal/mol)

>  <smiles>  (46) 
COc1c(-c2ccc(O)c(O)c2)sc2ccccc12

>  <score_type>  (46) 
oracle

>  <origin>  (46) 
adg

>  <m_score__min__energy>  (46) 
-10.18

>  <m_primary>  (46) 
energy

$$$$
46:0
     RDKit          3D

 41 44  0  0  1  0  0  0  0  0999 V2000
   56.6250   29.2840   43.0980 C   0  0  0  0  0  0  0  0  0  0  0  0
   56.8980   30.6030   42.6550 O   0  0  0  0  0  0  0  0  0  0  0  0
   57.5030   31.4670   43.5600 C   0  0  0  0  0  0  0  0  0  0  0  0
   57.7290   31.0410   44.8580 C   0  0  0  0  0  0  0  0  0  0  0  0
   58.3320   31.8700   45.8010 C   0  0  0  0  0  0  0  0  0  0  0  0
   58.7090   33.1440   45.4240 C   0  0  0  0  0  0  0  0  0  0  0  0
   59.3300   34.0540   46.3240 N   0  0  0  0  0  0  0  0  0  0  0  0
   59.8660   33.6700   47.4120 C   0  0  0  0  0  0  0  0  0  0  0  0
   59.0950   33.3680   48.4820 N   0  0  0  0  0  0  0  0  0  0  0  0
   59.6210   32.9600   49.6470 C   0  0  0  0  0  0  0  0  0  0  0  0
   58.8320   32.6250   50.8230 C   0  0  0  0  0  0  0  0  0  0  0  0
   58.8960   33.4060   51.9830 C   0  0  0  0  0  0  0  0  0  0  0  0
   58.1610   33.1090   53.1070 C   0  0  0  0  0  0  0  0  0  0  0  0
   57.3210   32.0170   53.1390 C   0  0  0  0  0  0  0  0  0  0  0  0
   57.2420   31.2330   52.0090 C   0  0  0  0  0  0  0  0  0  0  0  0
   57.9840   31.5400   50.8880 C   0  0  0  0  0  0  0  0  0  0  0  0
   60.9590   32.8570   49.7260 N   0  0  0  0  0  0  0  0  0  0  0  0
   61.7960   33.1330   48.7240 C   0  0  0  0  0  0  0  0  0  0  0  0
   63.1440   33.0160   48.8400 N   0  0  0  0  0  0  0  0  0  0  0  0
   63.9470   33.3130   47.7830 C   0  0  0  0  0  0  0  0  0  0  0  0
   63.3910   33.7320   46.5910 C   0  0  0  0  0  0  0  0  0  0  0  0
   62.0170   33.8670   46.4190 C   0  0  0  0  0  0  0  0  0  0  0  0
   61.2320   33.5540   47.5260 C   0  0  0  0  0  0  0  0  0  0  0  0
   58.4960   33.5970   44.1330 C   0  0  0  0  0  0  0  0  0  0  0  0
   57.8950   32.7450   43.2250 C   0  0  0  0  0  0  0  0  0  0  0  0
   56.6201   29.2602   44.1977 H   0  0  0  0  0  0  0  0  0  0  0  0
   55.6421   28.9663   42.7200 H   0  0  0  0  0  0  0  0  0  0  0  0
   57.4011   28.6022   42.7200 H   0  0  0  0  0  0  0  0  0  0  0  0
   57.4255   30.0251   45.1510 H   0  0  0  0  0  0  0  0  0  0  0  0
   58.5049   31.5161   46.8281 H   0  0  0  0  0  0  0  0  0  0  0  0
   58.0610   33.4590   48.3880 H   0  0  0  0  0  0  0  0  0  0  0  0
   59.5558   34.2861   51.9960 H   0  0  0  0  0  0  0  0  0  0  0  0
   58.2450   33.7534   53.9945 H   0  0  0  0  0  0  0  0  0  0  0  0
   56.7328   31.7791   54.0375 H   0  0  0  0  0  0  0  0  0  0  0  0
   56.5809   30.3539   52.0009 H   0  0  0  0  0  0  0  0  0  0  0  0
   57.8952   30.8895   50.0054 H   0  0  0  0  0  0  0  0  0  0  0  0
   65.0389   33.2193   47.8780 H   0  0  0  0  0  0  0  0  0  0  0  0
   64.0573   33.9673   45.7480 H   0  0  0  0  0  0  0  0  0  0  0  0
   61.5777   34.2004   45.4672 H   0  0  0  0  0  0  0  0  0  0  0  0
   58.7982   34.6122   43.8364 H   0  0  0  0  0  0  0  0  0  0  0  0
   57.7235   33.1001   42.1981 H   0  0  0  0  0  0  0  0  0  0  0  0
  1  2  1  0
  2  3  1  0
  3  4  2  0
  4  5  1  0
  5  6  2  0
  6  7  1  0
  7  8  2  0
  8  9  1  0
  9 10  1  0
 10 11  1  0
 11 12  2  0
 12 13  1  0
 13 14  2  0
 14 15  1  0
 15 16  2  0
 10 17  2  0
 17 18  1  0
 18 19  2  0
 19 20  1  0
 20 21  2  0
 21 22  1  0
 22 23  2  0
  6 24  1  0
 24 25  2  0
 25  3  1  0
 23  8  1  0
 16 11  1  0
 23 18  1  0
  1 26  1  0
  1 27  1  0
  1 28  1  0
  4 29  1  0
  5 30  1  0
  9 31  1  0
 12 32  1  0
 13 33  1  0
 14 34  1  0
 15 35  1  0
 16 36  1  0
 20 37  1  0
 21 38  1  0
 22 39  1  0
 24 40  1  0
 25 41  1  0
M  END
>  <smiles>  (47) 
COc1ccc(N=c2[nH]c(-c3ccccc3)nc3ncccc23)cc1

>  <score_type>  (47) 
oracle

>  <origin>  (47) 
adg

>  <m_score__min__energy>  (47) 
-7.6399999999999997

>  <m_primary>  (47) 
energy

$$$$
47:0
     RDKit          3D

 39 41  0  0  0  0  0  0  0  0999 V2000
   64.7296   32.2599   47.5457 H   0  0  0  0  0  0  0  0  0  0  0  0
   64.1090   32.8220   48.2590 C   0  0  0  0  0  0  0  0  0  0  0  0
   64.5970   33.1030   49.5380 C   0  0  0  0  0  0  0  0  0  0  0  0
   65.5977   32.7548   49.8337 H   0  0  0  0  0  0  0  0  0  0  0  0
   63.8130   33.8270   50.4420 C   0  0  0  0  0  0  0  0  0  0  0  0
   64.4380   34.2070   52.0370 Cl  0  0  0  0  0  0  0  0  0  0  0  0
   62.5340   34.2610   50.0700 C   0  0  0  0  0  0  0  0  0  0  0  0
   61.9248   34.8429   50.7773 H   0  0  0  0  0  0  0  0  0  0  0  0
   62.0260   33.9540   48.7920 C   0  0  0  0  0  0  0  0  0  0  0  0
   60.7310   34.4010   48.3540 N   0  0  0  0  0  0  0  0  0  0  0  0
   59.9990   33.8530   47.4320 C   0  0  0  0  0  0  0  0  0  0  0  0
   59.6720   32.5360   47.4580 N   0  0  0  0  0  0  0  0  0  0  0  0
   58.9110   32.4220   46.3550 C   0  0  0  0  0  0  0  0  0  0  0  0
   58.2850   31.2800   45.8630 C   0  0  0  0  0  0  0  0  0  0  0  0
   58.3832   30.3123   46.3766 H   0  0  0  0  0  0  0  0  0  0  0  0
   57.5200   31.4050   44.6830 C   0  0  0  0  0  0  0  0  0  0  0  0
   56.6890   29.9930   44.0350 S   0  0  0  0  0  0  0  0  0  0  0  0
   56.2640   30.2930   42.6250 O   0  0  0  0  0  0  0  0  0  0  0  0
   55.4640   29.6860   44.8520 O   0  0  0  0  0  0  0  0  0  0  0  0
   57.7760   28.5670   44.0300 C   0  0  0  0  0  0  0  0  0  0  0  0
   57.6004   27.9974   43.1055 H   0  0  0  0  0  0  0  0  0  0  0  0
   58.8075   28.9434   44.0954 H   0  0  0  0  0  0  0  0  0  0  0  0
   57.5560   27.6300   45.2300 C   0  0  0  0  0  0  0  0  0  0  0  0
   56.7100   28.0157   45.8178 H   0  0  0  0  0  0  0  0  0  0  0  0
   57.3678   26.6279   44.8171 H   0  0  0  0  0  0  0  0  0  0  0  0
   58.7720   27.5010   46.1630 C   0  0  0  0  0  0  0  0  0  0  0  0
   58.9115   26.4403   46.4188 H   0  0  0  0  0  0  0  0  0  0  0  0
   59.6485   27.9032   45.6338 H   0  0  0  0  0  0  0  0  0  0  0  0
   58.6030   28.2640   47.3960 N   0  0  0  0  0  0  0  0  0  0  0  0
   59.5520   28.9410   47.9040 C   0  0  0  0  0  0  0  0  0  0  0  0
   60.7560   29.7970   48.5490 S   0  0  0  0  0  0  0  0  0  0  0  0
   57.4220   32.6620   44.0320 C   0  0  0  0  0  0  0  0  0  0  0  0
   56.8339   32.7526   43.1069 H   0  0  0  0  0  0  0  0  0  0  0  0
   58.0710   33.7940   44.5600 C   0  0  0  0  0  0  0  0  0  0  0  0
   58.0002   34.7745   44.0665 H   0  0  0  0  0  0  0  0  0  0  0  0
   58.8050   33.6260   45.7290 C   0  0  0  0  0  0  0  0  0  0  0  0
   59.4820   34.5130   46.4060 O   0  0  0  0  0  0  0  0  0  0  0  0
   62.8340   33.2540   47.8850 C   0  0  0  0  0  0  0  0  0  0  0  0
   62.4615   33.0434   46.8716 H   0  0  0  0  0  0  0  0  0  0  0  0
  1  2  1  0
  2  3  2  0
  3  4  1  0
  3  5  1  0
  5  6  1  0
  5  7  2  0
  7  8  1  0
  7  9  1  0
  9 10  1  0
 10 11  2  0
 11 12  1  0
 12 13  1  0
 13 14  2  0
 14 15  1  0
 14 16  1  0
 16 17  1  0
 17 18  2  0
 17 19  2  0
 17 20  1  0
 20 21  1  0
 20 22  1  0
 20 23  1  0
 23 24  1  0
 23 25  1  0
 23 26  1  0
 26 27  1  0
 26 28  1  0
 26 29  1  0
 29 30  2  0
 30 31  2  0
 16 32  2  0
 32 33  1  0
 32 34  1  0
 34 35  1  0
 34 36  2  0
 36 37  1  0
  9 38  2  0
 38 39  1  0
 38  2  1  0
 37 11  1  0
 36 13  1  0
M  CHG  1  12  -1
M  END
>  <UniqueID>  (48) 
45

>  <SMILES>  (48) 
O=S(=O)(CCCN=C=S)c1ccc2o/c(=N\c3cccc(Cl)c3)[n-]c2c1

>  <Energy>  (48) 
76.59701550910016

>  <Genealogy>  (48) 
O=S(=O)(CCCN=C=S)c1ccc2oc(=Nc3cccc(Cl)c3)[n-]c2c1 (protonated)
O=S(=O)(CCCN=C=S)c1ccc2o/c(=N\c3cccc(Cl)c3)[n-]c2c1 (cis-trans isomerization)
O=S(=O)(CCCN=C=S)c1ccc2o/c(=N\c3cccc(Cl)c3)[n-]c2c1 (3D coordinates assigned)
O=S(=O)(CCCN=C=S)c1ccc2o/c(=N\c3cccc(Cl)c3)[n-]c2c1 (optimized conformer: 76.59701550910016 kcal/mol)

>  <smiles>  (48) 
O=S(=O)(CCCN=C=S)c1ccc2oc(=Nc3cccc(Cl)c3)[nH]c2c1

>  <score_type>  (48) 
oracle

>  <origin>  (48) 
adg

>  <m_score__min__energy>  (48) 
-9.7899999999999991

>  <m_primary>  (48) 
energy

$$$$
48:0
     RDKit          3D

 48 49  0  0  0  0  0  0  0  0999 V2000
   62.7730   32.8530   50.4460 H   0  0  0  0  0  0  0  0  0  0  0  0
   61.8840   32.9000   49.9640 O   0  0  0  0  0  0  0  0  0  0  0  0
   61.4980   31.9750   48.9910 C   0  0  0  0  0  0  0  0  0  0  0  0
   61.3970   30.6300   49.3590 C   0  0  0  0  0  0  0  0  0  0  0  0
   61.6348   30.3273   50.3894 H   0  0  0  0  0  0  0  0  0  0  0  0
   60.9970   29.6680   48.4300 C   0  0  0  0  0  0  0  0  0  0  0  0
   60.9209   28.6136   48.7340 H   0  0  0  0  0  0  0  0  0  0  0  0
   60.6910   30.0370   47.1100 C   0  0  0  0  0  0  0  0  0  0  0  0
   60.2900   29.0210   46.1080 C   0  0  0  0  0  0  0  0  0  0  0  0
   61.1360   28.6430   45.2520 O   0  0  0  0  0  0  0  0  0  0  0  0
   58.9290   28.4340   46.0770 C   0  0  0  0  0  0  0  0  0  0  0  0
   58.6480   27.2690   46.8110 C   0  0  0  0  0  0  0  0  0  0  0  0
   59.4376   26.8017   47.4178 H   0  0  0  0  0  0  0  0  0  0  0  0
   57.3710   26.7000   46.7750 C   0  0  0  0  0  0  0  0  0  0  0  0
   57.1574   25.7928   47.3593 H   0  0  0  0  0  0  0  0  0  0  0  0
   56.3660   27.2820   45.9980 C   0  0  0  0  0  0  0  0  0  0  0  0
   55.0980   26.7150   45.9650 O   0  0  0  0  0  0  0  0  0  0  0  0
   56.6390   28.4320   45.2520 C   0  0  0  0  0  0  0  0  0  0  0  0
   55.8487   28.8880   44.6375 H   0  0  0  0  0  0  0  0  0  0  0  0
   57.9140   29.0040   45.2850 C   0  0  0  0  0  0  0  0  0  0  0  0
   58.1255   29.9041   44.6891 H   0  0  0  0  0  0  0  0  0  0  0  0
   60.8170   31.3840   46.7330 C   0  0  0  0  0  0  0  0  0  0  0  0
   60.6181   31.6770   45.6916 H   0  0  0  0  0  0  0  0  0  0  0  0
   61.1940   32.3630   47.6690 C   0  0  0  0  0  0  0  0  0  0  0  0
   61.3280   33.7740   47.2440 C   0  0  0  0  0  0  0  0  0  0  0  0
   62.3228   34.2383   47.3132 H   0  0  0  0  0  0  0  0  0  0  0  0
   60.3180   34.5250   46.7800 C   0  0  0  0  0  0  0  0  0  0  0  0
   60.5438   35.5574   46.4748 H   0  0  0  0  0  0  0  0  0  0  0  0
   58.9150   34.0550   46.6510 C   0  0  0  0  0  0  0  0  0  0  0  0
   58.2310   34.1720   45.4990 C   0  0  0  0  0  0  0  0  0  0  0  0
   57.2404   34.6484   45.5410 H   0  0  0  0  0  0  0  0  0  0  0  0
   58.7230   33.6970   44.1500 C   0  0  0  0  0  0  0  0  0  0  0  0
   58.4284   34.4358   43.3901 H   0  0  0  0  0  0  0  0  0  0  0  0
   59.8156   33.5897   44.2190 H   0  0  0  0  0  0  0  0  0  0  0  0
   58.1500   32.3200   43.7450 C   0  0  0  0  0  0  0  0  0  0  0  0
   58.9627   31.5938   43.8937 H   0  0  0  0  0  0  0  0  0  0  0  0
   57.7500   32.2750   42.2650 C   0  0  0  0  0  0  0  0  0  0  0  0
   56.6599   32.1524   42.1834 H   0  0  0  0  0  0  0  0  0  0  0  0
   58.0512   33.2127   41.7751 H   0  0  0  0  0  0  0  0  0  0  0  0
   58.2520   31.4277   41.7751 H   0  0  0  0  0  0  0  0  0  0  0  0
   56.9780   31.8930   44.6410 C   0  0  0  0  0  0  0  0  0  0  0  0
   57.2667   31.9982   45.6972 H   0  0  0  0  0  0  0  0  0  0  0  0
   56.1065   32.5314   44.4338 H   0  0  0  0  0  0  0  0  0  0  0  0
   56.7214   30.8436   44.4338 H   0  0  0  0  0  0  0  0  0  0  0  0
   58.2130   33.4740   47.8490 C   0  0  0  0  0  0  0  0  0  0  0  0
   58.6779   33.8588   48.7687 H   0  0  0  0  0  0  0  0  0  0  0  0
   57.1514   33.7612   47.8269 H   0  0  0  0  0  0  0  0  0  0  0  0
   58.2967   32.3774   47.8269 H   0  0  0  0  0  0  0  0  0  0  0  0
  1  2  1  0
  2  3  1  0
  3  4  2  0
  4  5  1  0
  4  6  1  0
  6  7  1  0
  6  8  2  0
  8  9  1  0
  9 10  2  0
  9 11  1  0
 11 12  2  0
 12 13  1  0
 12 14  1  0
 14 15  1  0
 14 16  2  0
 16 17  1  0
 16 18  1  0
 18 19  1  0
 18 20  2  0
 20 21  1  0
  8 22  1  0
 22 23  1  0
 22 24  2  0
 24 25  1  0
 25 26  1  0
 25 27  2  0
 27 28  1  0
 27 29  1  0
 29 30  2  0
 30 31  1  0
 30 32  1  0
 32 33  1  0
 32 34  1  0
 32 35  1  0
 35 36  1  0
 35 37  1  0
 37 38  1  0
 37 39  1  0
 37 40  1  0
 35 41  1  0
 41 42  1  0
 41 43  1  0
 41 44  1  0
 29 45  1  0
 45 46  1  0
 45 47  1  0
 45 48  1  0
 24  3  1  0
 20 11  1  0
M  CHG  1  17  -1
M  END
>  <UniqueID>  (49) 
46

>  <SMILES>  (49) 
C/C(C=Cc1cc(C(=O)c2ccc([O-])cc2)ccc1O)=C/CC(C)C

>  <Energy>  (49) 
58.90664823269721

>  <Genealogy>  (49) 
CC(C=Cc1cc(C(=O)c2ccc([O-])cc2)ccc1O)=CCC(C)C (protonated)
C/C(C=Cc1cc(C(=O)c2ccc([O-])cc2)ccc1O)=C/CC(C)C (cis-trans isomerization)
C/C(C=Cc1cc(C(=O)c2ccc([O-])cc2)ccc1O)=C/CC(C)C (3D coordinates assigned)
C/C(C=Cc1cc(C(=O)c2ccc([O-])cc2)ccc1O)=C/CC(C)C (optimized conformer: 58.90664823269721 kcal/mol)

>  <smiles>  (49) 
CC(C=Cc1cc(C(=O)c2ccc(O)cc2)ccc1O)=CCC(C)C

>  <score_type>  (49) 
oracle

>  <origin>  (49) 
adg

>  <m_score__min__energy>  (49) 
-10.99

>  <m_primary>  (49) 
energy

$$$$
49:0
     RDKit          3D

 27 28  0  0  0  0  0  0  0  0999 V2000
   51.7130   32.9110   48.7380 H   0  0  0  0  0  0  0  0  0  0  0  0
   51.0180   32.4560   49.3720 N   0  0  0  0  0  0  0  0  0  0  0  0
   51.3610   31.9270   50.5030 C   0  0  0  0  0  0  0  0  0  0  0  0
   50.7490   32.3380   51.6430 N   0  0  0  0  0  0  0  0  0  0  0  0
   51.0730   31.8070   52.8490 C   0  0  0  0  0  0  0  0  0  0  0  0
   50.4880   32.2250   53.8840 O   0  0  0  0  0  0  0  0  0  0  0  0
   52.0510   30.8060   52.9330 C   0  0  0  0  0  0  0  0  0  0  0  0
   52.6950   30.4120   51.7470 C   0  0  0  0  0  0  0  0  0  0  0  0
   52.3290   30.9680   50.5580 N   0  0  0  0  0  0  0  0  0  0  0  0
   52.8020   30.6540   49.6810 H   0  0  0  0  0  0  0  0  0  0  0  0
   53.7040   29.3930   51.7820 N   0  0  0  0  0  0  0  0  0  0  0  0
   54.1000   29.0250   50.8880 H   0  0  0  0  0  0  0  0  0  0  0  0
   54.2410   28.8960   53.0470 C   0  0  0  0  0  0  0  0  0  0  0  0
   54.6575   27.8900   52.8906 H   0  0  0  0  0  0  0  0  0  0  0  0
   55.0239   29.5877   53.3915 H   0  0  0  0  0  0  0  0  0  0  0  0
   53.1370   28.8240   54.1270 C   0  0  0  0  0  0  0  0  0  0  0  0
   52.0840   27.7580   53.7480 C   0  0  0  0  0  0  0  0  0  0  0  0
   51.6555   27.3242   54.6635 H   0  0  0  0  0  0  0  0  0  0  0  0
   51.2846   28.2267   53.1554 H   0  0  0  0  0  0  0  0  0  0  0  0
   52.5625   26.9644   53.1554 H   0  0  0  0  0  0  0  0  0  0  0  0
   53.7720   28.4300   55.4750 C   0  0  0  0  0  0  0  0  0  0  0  0
   53.1523   28.8145   56.2985 H   0  0  0  0  0  0  0  0  0  0  0  0
   53.8349   27.3340   55.5443 H   0  0  0  0  0  0  0  0  0  0  0  0
   54.7820   28.8603   55.5443 H   0  0  0  0  0  0  0  0  0  0  0  0
   52.4690   30.2180   54.2650 C   0  0  0  0  0  0  0  0  0  0  0  0
   51.5765   30.1181   54.9001 H   0  0  0  0  0  0  0  0  0  0  0  0
   53.2122   30.8978   54.7072 H   0  0  0  0  0  0  0  0  0  0  0  0
  1  2  1  0
  2  3  2  0
  3  4  1  0
  4  5  1  0
  5  6  2  0
  5  7  1  0
  7  8  2  0
  8  9  1  0
  9 10  1  0
  8 11  1  0
 11 12  1  0
 11 13  1  0
 13 14  1  0
 13 15  1  0
 13 16  1  0
 16 17  1  0
 17 18  1  0
 17 19  1  0
 17 20  1  0
 16 21  1  0
 21 22  1  0
 21 23  1  0
 21 24  1  0
 16 25  1  0
 25 26  1  0
 25 27  1  0
  9  3  1  0
 25  7  1  0
M  CHG  1   4  -1
M  END
>  <UniqueID>  (50) 
47

>  <SMILES>  (50) 
[H]/N=c1/[n-]c(=O)c2c([nH]1)NCC(C)(C)C2

>  <Energy>  (50) 
25.51668759425352

>  <Genealogy>  (50) 
CC1(C)CNc2[nH]c(=N)[n-]c(=O)c2C1 (protonated)
[H]/N=c1/[n-]c(=O)c2c([nH]1)NCC(C)(C)C2 (cis-trans isomerization)
[H]/N=c1/[n-]c(=O)c2c([nH]1)NCC(C)(C)C2 (3D coordinates assigned)
[H]/N=c1/[n-]c(=O)c2c([nH]1)NCC(C)(C)C2 (nonaromatic ring conformer: 25.51668759425352 kcal/mol)

>  <smiles>  (50) 
CC1(C)CNc2[nH]c(=N)[nH]c(=O)c2C1

>  <score_type>  (50) 
oracle

>  <origin>  (50) 
adg

>  <m_score__min__energy>  (50) 
-8.0999999999999996

>  <m_primary>  (50) 
energy

$$$$
50:0
     RDKit          3D

 78 82  0  0  1  0  0  0  0  0999 V2000
   54.9140   26.8650   54.7970 C   0  0  0  0  0  0  0  0  0  0  0  0
   54.6950   27.9760   53.8390 C   0  0  0  0  0  0  0  0  0  0  0  0
   55.7550   28.6780   53.3510 C   0  0  0  0  0  0  0  0  0  0  0  0
   55.6080   29.7370   52.4460 C   0  0  0  0  0  0  0  0  0  0  0  0
   56.8110   30.4050   51.9990 C   0  0  0  0  0  0  0  0  0  0  0  0
   57.9050   29.7390   51.9400 O   0  0  0  0  0  0  0  0  0  0  0  0
   56.9080   31.7550   51.6090 N   0  0  0  0  0  0  0  0  0  0  0  0
   58.2160   32.2380   51.1900 C   0  0  0  0  0  0  0  0  0  0  0  0
   58.2590   32.3500   49.7530 C   0  0  0  0  0  0  0  0  0  0  0  0
   58.3100   32.4610   48.5370 C   0  0  0  0  0  0  0  0  0  0  0  0
   58.3470   32.5970   47.1100 C   0  0  0  0  0  0  0  0  0  0  0  0
   58.9680   33.6640   46.5420 C   0  0  0  0  0  0  0  0  0  0  0  0
   59.0660   33.9000   45.1890 C   0  0  0  0  0  0  0  0  0  0  0  0
   58.4790   32.9630   44.3680 C   0  0  0  0  0  0  0  0  0  0  0  0
   58.5510   33.1820   43.0450 N   0  0  0  0  0  0  0  0  0  0  0  0
   57.9890   32.3160   42.1850 C   0  0  0  0  0  0  0  0  0  0  0  0
   57.3720   31.2460   42.7220 N   0  0  0  0  0  0  0  0  0  0  0  0
   57.2840   30.9970   44.0250 C   0  0  0  0  0  0  0  0  0  0  0  0
   56.7260   29.9570   44.4300 N   0  0  0  0  0  0  0  0  0  0  0  0
   57.0330   28.6140   44.3370 C   0  0  0  0  0  0  0  0  0  0  0  0
   58.3460   28.0800   44.7440 C   0  0  0  0  0  0  0  0  0  0  0  0
   58.9820   27.4580   43.8030 O   0  0  0  0  0  0  0  0  0  0  0  0
   58.9840   28.1450   45.9660 N   0  0  0  0  0  0  0  0  0  0  0  0
   60.3250   27.5040   46.0420 C   0  0  0  0  0  0  0  0  0  0  0  0
   60.4710   27.0140   47.4580 C   0  0  0  0  0  0  0  0  0  0  0  0
   60.6170   28.1650   48.3030 N   0  0  0  0  0  0  0  0  0  0  0  0
   60.3400   27.8050   49.6750 C   0  0  0  0  0  0  0  0  0  0  0  0
   59.8080   29.2820   47.8730 C   0  0  0  0  0  0  0  0  0  0  0  0
   58.5350   28.7410   47.1960 C   0  0  0  0  0  0  0  0  0  0  0  0
   57.8420   31.8650   44.9260 C   0  0  0  0  0  0  0  0  0  0  0  0
   57.7480   31.6420   46.2630 C   0  0  0  0  0  0  0  0  0  0  0  0
   54.3330   30.0340   52.0730 C   0  0  0  0  0  0  0  0  0  0  0  0
   54.0970   30.9480   51.2800 O   0  0  0  0  0  0  0  0  0  0  0  0
   53.2890   29.3350   52.5590 N   0  0  0  0  0  0  0  0  0  0  0  0
   51.9130   29.6500   52.1600 C   0  0  1  0  0  0  0  0  0  0  0  0
   51.0260   28.4310   52.3110 C   0  0  0  0  0  0  0  0  0  0  0  0
   51.4040   30.8410   52.8400 C   0  0  0  0  0  0  0  0  0  0  0  0
   51.2500   30.8880   54.2130 C   0  0  0  0  0  0  0  0  0  0  0  0
   50.7650   32.0280   54.8500 C   0  0  0  0  0  0  0  0  0  0  0  0
   50.4190   33.1500   54.1570 C   0  0  0  0  0  0  0  0  0  0  0  0
   50.5660   33.1210   52.7750 C   0  0  0  0  0  0  0  0  0  0  0  0
   51.0490   31.9850   52.1480 C   0  0  0  0  0  0  0  0  0  0  0  0
   53.4270   28.3200   53.4270 C   0  0  0  0  0  0  0  0  0  0  0  0
   54.8386   27.2475   55.8256 H   0  0  0  0  0  0  0  0  0  0  0  0
   54.1517   26.0881   54.6379 H   0  0  0  0  0  0  0  0  0  0  0  0
   55.9141   26.4355   54.6379 H   0  0  0  0  0  0  0  0  0  0  0  0
   56.7675   28.4023   53.6808 H   0  0  0  0  0  0  0  0  0  0  0  0
   56.0980   32.3770   51.6180 H   0  0  0  0  0  0  0  0  0  0  0  0
   58.4016   33.2250   51.6388 H   0  0  0  0  0  0  0  0  0  0  0  0
   58.9882   31.5283   51.5219 H   0  0  0  0  0  0  0  0  0  0  0  0
   59.4298   34.3987   47.2179 H   0  0  0  0  0  0  0  0  0  0  0  0
   59.5825   34.7844   44.7877 H   0  0  0  0  0  0  0  0  0  0  0  0
   58.0307   32.4730   41.0971 H   0  0  0  0  0  0  0  0  0  0  0  0
   56.9410   30.5850   42.0370 H   0  0  0  0  0  0  0  0  0  0  0  0
   56.2842   28.0848   44.9446 H   0  0  0  0  0  0  0  0  0  0  0  0
   57.0485   28.4567   43.2484 H   0  0  0  0  0  0  0  0  0  0  0  0
   60.3863   26.6613   45.3377 H   0  0  0  0  0  0  0  0  0  0  0  0
   61.1250   28.2105   45.7756 H   0  0  0  0  0  0  0  0  0  0  0  0
   59.5771   26.4441   47.7517 H   0  0  0  0  0  0  0  0  0  0  0  0
   61.3461   26.3539   47.5499 H   0  0  0  0  0  0  0  0  0  0  0  0
   60.8701   28.4940   50.3490 H   0  0  0  0  0  0  0  0  0  0  0  0
   59.2577   27.8712   49.8601 H   0  0  0  0  0  0  0  0  0  0  0  0
   60.6813   26.7758   49.8601 H   0  0  0  0  0  0  0  0  0  0  0  0
   59.5318   29.8952   48.7434 H   0  0  0  0  0  0  0  0  0  0  0  0
   60.3744   29.9023   47.1627 H   0  0  0  0  0  0  0  0  0  0  0  0
   58.0492   27.9882   47.8342 H   0  0  0  0  0  0  0  0  0  0  0  0
   57.7942   29.5351   47.0208 H   0  0  0  0  0  0  0  0  0  0  0  0
   57.2296   30.7591   46.6652 H   0  0  0  0  0  0  0  0  0  0  0  0
   51.9071   29.9120   51.0917 H   0  0  0  0  0  0  0  0  0  0  0  0
   50.8722   28.2196   53.3795 H   0  0  0  0  0  0  0  0  0  0  0  0
   50.0547   28.6226   51.8316 H   0  0  0  0  0  0  0  0  0  0  0  0
   51.5072   27.5658   51.8316 H   0  0  0  0  0  0  0  0  0  0  0  0
   51.5160   30.0067   54.8152 H   0  0  0  0  0  0  0  0  0  0  0  0
   50.6580   32.0228   55.9448 H   0  0  0  0  0  0  0  0  0  0  0  0
   50.0380   34.0442   54.6719 H   0  0  0  0  0  0  0  0  0  0  0  0
   50.2974   34.0043   52.1770 H   0  0  0  0  0  0  0  0  0  0  0  0
   51.1549   31.9925   51.0531 H   0  0  0  0  0  0  0  0  0  0  0  0
   52.5471   27.7756   53.8005 H   0  0  0  0  0  0  0  0  0  0  0  0
  1  2  1  0
  2  3  1  0
  3  4  2  0
  4  5  1  0
  5  6  2  0
  5  7  1  0
  7  8  1  0
  8  9  1  0
  9 10  3  0
 10 11  1  0
 11 12  2  0
 12 13  1  0
 13 14  2  0
 14 15  1  0
 15 16  2  0
 16 17  1  0
 17 18  1  0
 18 19  2  0
 19 20  1  0
 20 21  1  0
 21 22  2  0
 21 23  1  0
 23 24  1  0
 24 25  1  0
 25 26  1  0
 26 27  1  0
 26 28  1  0
 28 29  1  0
 18 30  1  0
 30 31  2  0
  4 32  1  0
 32 33  2  0
 32 34  1  0
 34 35  1  0
 35 36  1  0
 35 37  1  0
 37 38  2  0
 38 39  1  0
 39 40  2  0
 40 41  1  0
 41 42  2  0
 34 43  1  0
 43  2  2  0
 31 11  1  0
 42 37  1  0
 30 14  1  0
 29 23  1  0
  1 44  1  0
  1 45  1  0
  1 46  1  0
  3 47  1  0
  7 48  1  0
  8 49  1  0
  8 50  1  0
 12 51  1  0
 13 52  1  0
 16 53  1  0
 17 54  1  0
 20 55  1  0
 20 56  1  0
 24 57  1  0
 24 58  1  0
 25 59  1  0
 25 60  1  0
 27 61  1  0
 27 62  1  0
 27 63  1  0
 28 64  1  0
 28 65  1  0
 29 66  1  0
 29 67  1  0
 31 68  1  0
 35 69  1  6
 36 70  1  0
 36 71  1  0
 36 72  1  0
 38 73  1  0
 39 74  1  0
 40 75  1  0
 41 76  1  0
 42 77  1  0
 43 78  1  0
M  END
>  <smiles>  (51) 
Cc1cc(C(=O)NCC#Cc2ccc3nc[nH]c(=NCC(=O)N4CCN(C)CC4)c3c2)c(=O)n(C(C)c2ccccc2)c1

>  <score_type>  (51) 
oracle

>  <origin>  (51) 
adg

>  <m_score__min__energy>  (51) 
-12.08

>  <m_primary>  (51) 
energy

$$$$
51:0
     RDKit          3D

 29 32  0  0  0  0  0  0  0  0999 V2000
   59.6410   33.5790   50.3420 C   0  0  0  0  0  0  0  0  0  0  0  0
   58.9220   32.4070   50.1030 C   0  0  0  0  0  0  0  0  0  0  0  0
   58.5320   32.0720   48.8030 C   0  0  0  0  0  0  0  0  0  0  0  0
   58.8600   32.9140   47.7230 C   0  0  0  0  0  0  0  0  0  0  0  0
   59.5910   34.1050   47.9710 C   0  0  0  0  0  0  0  0  0  0  0  0
   59.9750   34.4270   49.2820 C   0  0  0  0  0  0  0  0  0  0  0  0
   59.9280   34.9550   46.9090 C   0  0  0  0  0  0  0  0  0  0  0  0
   59.5480   34.6410   45.6030 C   0  0  0  0  0  0  0  0  0  0  0  0
   58.8260   33.4690   45.3380 C   0  0  0  0  0  0  0  0  0  0  0  0
   58.4530   33.1580   44.0630 N   0  0  0  0  0  0  0  0  0  0  0  0
   57.7500   32.0200   43.7960 C   0  0  0  0  0  0  0  0  0  0  0  0
   57.3650   31.6980   42.4840 C   0  0  0  0  0  0  0  0  0  0  0  0
   56.6450   30.5260   42.2360 C   0  0  0  0  0  0  0  0  0  0  0  0
   56.3050   29.6710   43.2880 C   0  0  0  0  0  0  0  0  0  0  0  0
   56.6830   29.9840   44.5980 C   0  0  0  0  0  0  0  0  0  0  0  0
   57.4050   31.1550   44.8550 C   0  0  0  0  0  0  0  0  0  0  0  0
   57.7770   31.4680   46.1220 N   0  0  0  0  0  0  0  0  0  0  0  0
   58.4790   32.6010   46.3990 C   0  0  0  0  0  0  0  0  0  0  0  0
   59.9457   33.8362   51.3672 H   0  0  0  0  0  0  0  0  0  0  0  0
   58.6611   31.7440   50.9411 H   0  0  0  0  0  0  0  0  0  0  0  0
   57.9661   31.1461   48.6228 H   0  0  0  0  0  0  0  0  0  0  0  0
   60.5409   35.3501   49.4761 H   0  0  0  0  0  0  0  0  0  0  0  0
   60.4960   35.8762   47.1059 H   0  0  0  0  0  0  0  0  0  0  0  0
   59.8165   35.3167   44.7776 H   0  0  0  0  0  0  0  0  0  0  0  0
   58.7100   33.8000   43.2780 H   0  0  0  0  0  0  0  0  0  0  0  0
   57.6299   32.3677   41.6525 H   0  0  0  0  0  0  0  0  0  0  0  0
   56.3445   30.2754   41.2080 H   0  0  0  0  0  0  0  0  0  0  0  0
   55.7389   28.7499   43.0854 H   0  0  0  0  0  0  0  0  0  0  0  0
   56.4131   29.3107   45.4249 H   0  0  0  0  0  0  0  0  0  0  0  0
  1  2  2  0
  2  3  1  0
  3  4  2  0
  4  5  1  0
  5  6  2  0
  5  7  1  0
  7  8  2  0
  8  9  1  0
  9 10  2  0
 10 11  1  0
 11 12  2  0
 12 13  1  0
 13 14  2  0
 14 15  1  0
 15 16  2  0
 16 17  1  0
 17 18  2  0
  6  1  1  0
 18  9  1  0
 18  4  1  0
 16 11  1  0
  1 19  1  0
  2 20  1  0
  3 21  1  0
  6 22  1  0
  7 23  1  0
  8 24  1  0
 10 25  1  0
 12 26  1  0
 13 27  1  0
 14 28  1  0
 15 29  1  0
M  CHG  1  10   1
M  END
>  <UniqueID>  (52) 
48

>  <SMILES>  (52) 
c1ccc2c(c1)ccc1[nH+]c3ccccc3nc12

>  <Energy>  (52) 
44.34202431305559

>  <Genealogy>  (52) 
c1ccc2c(c1)ccc1[nH+]c3ccccc3nc12 (protonated)
c1ccc2c(c1)ccc1[nH+]c3ccccc3nc12 (3D coordinates assigned)
c1ccc2c(c1)ccc1[nH+]c3ccccc3nc12 (optimized conformer: 44.34202431305559 kcal/mol)

>  <smiles>  (52) 
c1ccc2c(c1)ccc1nc3ccccc3nc12

>  <score_type>  (52) 
oracle

>  <origin>  (52) 
adg

>  <m_score__min__energy>  (52) 
-5.8700000000000001

>  <m_primary>  (52) 
energy

$$$$
52:0
     RDKit          3D

 42 44  0  0  0  0  0  0  0  0999 V2000
   54.4290   22.5022   43.8286 H   0  0  0  0  0  0  0  0  0  0  0  0
   54.8010   23.3900   44.3610 C   0  0  0  0  0  0  0  0  0  0  0  0
   53.9260   24.1810   45.1130 C   0  0  0  0  0  0  0  0  0  0  0  0
   52.4780   23.8210   45.2150 C   0  0  0  0  0  0  0  0  0  0  0  0
   52.1916   23.7498   46.2747 H   0  0  0  0  0  0  0  0  0  0  0  0
   51.8720   24.5958   44.7227 H   0  0  0  0  0  0  0  0  0  0  0  0
   52.3054   22.8526   44.7227 H   0  0  0  0  0  0  0  0  0  0  0  0
   54.4000   25.2770   45.7670 N   0  0  0  0  0  0  0  0  0  0  0  0
   55.7070   25.6540   45.7100 C   0  0  0  0  0  0  0  0  0  0  0  0
   56.0760   26.7130   46.3730 N   0  0  0  0  0  0  0  0  0  0  0  0
   57.4200   27.1760   46.5650 C   0  0  0  0  0  0  0  0  0  0  0  0
   58.1090   26.6880   47.5000 O   0  0  0  0  0  0  0  0  0  0  0  0
   57.9650   28.3200   45.7600 C   0  0  0  0  0  0  0  0  0  0  0  0
   58.3927   29.0714   46.4401 H   0  0  0  0  0  0  0  0  0  0  0  0
   58.7429   27.9417   45.0805 H   0  0  0  0  0  0  0  0  0  0  0  0
   56.6350   29.0880   44.7730 S   0  0  0  0  0  0  0  0  0  0  0  0
   57.3360   30.7440   44.8170 C   0  0  0  0  0  0  0  0  0  0  0  0
   57.7530   31.2390   46.0120 N   0  0  0  0  0  0  0  0  0  0  0  0
   58.2980   32.4790   46.1400 C   0  0  0  0  0  0  0  0  0  0  0  0
   58.7290   32.9440   47.3970 C   0  0  0  0  0  0  0  0  0  0  0  0
   58.6150   32.0740   48.6190 C   0  0  0  0  0  0  0  0  0  0  0  0
   58.6967   32.6972   49.5217 H   0  0  0  0  0  0  0  0  0  0  0  0
   57.6420   31.5610   48.6144 H   0  0  0  0  0  0  0  0  0  0  0  0
   59.4230   31.3276   48.6144 H   0  0  0  0  0  0  0  0  0  0  0  0
   59.3060   34.2230   47.4980 C   0  0  0  0  0  0  0  0  0  0  0  0
   59.6554   34.5895   48.4745 H   0  0  0  0  0  0  0  0  0  0  0  0
   59.4380   35.0310   46.3650 C   0  0  0  0  0  0  0  0  0  0  0  0
   59.8861   36.0315   46.4559 H   0  0  0  0  0  0  0  0  0  0  0  0
   59.0040   34.5750   45.1180 C   0  0  0  0  0  0  0  0  0  0  0  0
   59.1076   35.2169   44.2307 H   0  0  0  0  0  0  0  0  0  0  0  0
   58.4360   33.2980   44.9980 C   0  0  0  0  0  0  0  0  0  0  0  0
   58.0020   32.8160   43.7570 C   0  0  0  0  0  0  0  0  0  0  0  0
   58.1003   33.4455   42.8603 H   0  0  0  0  0  0  0  0  0  0  0  0
   57.4420   31.5330   43.6520 C   0  0  0  0  0  0  0  0  0  0  0  0
   56.9720   31.0230   42.3180 C   0  0  0  0  0  0  0  0  0  0  0  0
   56.2338   30.2220   42.4711 H   0  0  0  0  0  0  0  0  0  0  0  0
   56.5087   31.8456   41.7535 H   0  0  0  0  0  0  0  0  0  0  0  0
   57.8296   30.6283   41.7535 H   0  0  0  0  0  0  0  0  0  0  0  0
   56.6140   24.8680   44.9690 C   0  0  0  0  0  0  0  0  0  0  0  0
   57.6782   25.1427   44.9240 H   0  0  0  0  0  0  0  0  0  0  0  0
   56.1490   23.7380   44.2930 C   0  0  0  0  0  0  0  0  0  0  0  0
   56.8468   23.1223   43.7066 H   0  0  0  0  0  0  0  0  0  0  0  0
  1  2  1  0
  2  3  2  0
  3  4  1  0
  4  5  1  0
  4  6  1  0
  4  7  1  0
  3  8  1  0
  8  9  1  0
  9 10  2  0
 10 11  1  0
 11 12  2  0
 11 13  1  0
 13 14  1  0
 13 15  1  0
 13 16  1  0
 16 17  1  0
 17 18  2  0
 18 19  1  0
 19 20  2  0
 20 21  1  0
 21 22  1  0
 21 23  1  0
 21 24  1  0
 20 25  1  0
 25 26  1  0
 25 27  2  0
 27 28  1  0
 27 29  1  0
 29 30  1  0
 29 31  2  0
 31 32  1  0
 32 33  1  0
 32 34  2  0
 34 35  1  0
 35 36  1  0
 35 37  1  0
 35 38  1  0
  9 39  1  0
 39 40  1  0
 39 41  2  0
 41 42  1  0
 41  2  1  0
 34 17  1  0
 31 19  1  0
M  CHG  1   8  -1
M  END
>  <UniqueID>  (53) 
49

>  <SMILES>  (53) 
Cc1ccc/c(=N\C(=O)CSc2nc3c(C)cccc3cc2C)[n-]1

>  <Energy>  (53) 
52.1548862726928

>  <Genealogy>  (53) 
Cc1cccc(=NC(=O)CSc2nc3c(C)cccc3cc2C)[n-]1 (protonated)
Cc1ccc/c(=N\C(=O)CSc2nc3c(C)cccc3cc2C)[n-]1 (cis-trans isomerization)
Cc1ccc/c(=N\C(=O)CSc2nc3c(C)cccc3cc2C)[n-]1 (3D coordinates assigned)
Cc1ccc/c(=N\C(=O)CSc2nc3c(C)cccc3cc2C)[n-]1 (optimized conformer: 52.1548862726928 kcal/mol)

>  <smiles>  (53) 
Cc1cccc(=NC(=O)CSc2nc3c(C)cccc3cc2C)[nH]1

>  <score_type>  (53) 
oracle

>  <origin>  (53) 
adg

>  <m_score__min__energy>  (53) 
-10.800000000000001

>  <m_primary>  (53) 
energy

$$$$
53:0
     RDKit          3D

 37 39  0  0  0  0  0  0  0  0999 V2000
   61.5830   33.0070   48.1580 H   0  0  0  0  0  0  0  0  0  0  0  0
   62.0590   33.0920   49.0260 O   0  0  0  0  0  0  0  0  0  0  0  0
   61.4500   34.1500   49.7140 C   0  0  0  0  0  0  0  0  0  0  0  0
   61.9042   35.0999   49.3956 H   0  0  0  0  0  0  0  0  0  0  0  0
   61.5969   34.0075   50.7948 H   0  0  0  0  0  0  0  0  0  0  0  0
   59.9480   34.1810   49.4130 C   0  0  0  0  0  0  0  0  0  0  0  0
   59.4347   34.7210   50.2223 H   0  0  0  0  0  0  0  0  0  0  0  0
   59.5943   33.1419   49.3412 H   0  0  0  0  0  0  0  0  0  0  0  0
   59.6430   34.8790   48.0800 C   0  0  0  0  0  0  0  0  0  0  0  0
   60.0743   35.8907   48.0992 H   0  0  0  0  0  0  0  0  0  0  0  0
   58.5511   34.9218   47.9542 H   0  0  0  0  0  0  0  0  0  0  0  0
   60.2080   34.1420   46.9480 N   0  0  0  0  0  0  0  0  0  0  0  0
   59.8500   32.9480   46.5820 C   0  0  0  0  0  0  0  0  0  0  0  0
   58.6160   32.7170   46.0510 N   0  0  0  0  0  0  0  0  0  0  0  0
   58.2390   31.4700   45.6700 C   0  0  0  0  0  0  0  0  0  0  0  0
   57.0070   31.2610   45.1380 N   0  0  0  0  0  0  0  0  0  0  0  0
   56.5940   30.0260   44.7470 C   0  0  0  0  0  0  0  0  0  0  0  0
   55.4550   29.8940   44.2260 O   0  0  0  0  0  0  0  0  0  0  0  0
   57.4490   28.9120   44.9030 C   0  0  0  0  0  0  0  0  0  0  0  0
   57.0780   27.6150   44.5180 O   0  0  0  0  0  0  0  0  0  0  0  0
   57.1220   26.4800   45.3410 C   0  0  0  0  0  0  0  0  0  0  0  0
   58.3420   25.8060   45.4830 C   0  0  0  0  0  0  0  0  0  0  0  0
   59.2342   26.1740   44.9552 H   0  0  0  0  0  0  0  0  0  0  0  0
   58.4330   24.6690   46.2910 C   0  0  0  0  0  0  0  0  0  0  0  0
   59.3921   24.1392   46.3883 H   0  0  0  0  0  0  0  0  0  0  0  0
   57.3070   24.2050   46.9750 C   0  0  0  0  0  0  0  0  0  0  0  0
   57.3775   23.3050   47.6035 H   0  0  0  0  0  0  0  0  0  0  0  0
   56.0910   24.8840   46.8610 C   0  0  0  0  0  0  0  0  0  0  0  0
   55.2072   24.5200   47.4055 H   0  0  0  0  0  0  0  0  0  0  0  0
   55.9930   26.0250   46.0570 C   0  0  0  0  0  0  0  0  0  0  0  0
   54.7860   26.7100   45.9950 O   0  0  0  0  0  0  0  0  0  0  0  0
   58.7320   29.1140   45.4240 C   0  0  0  0  0  0  0  0  0  0  0  0
   59.4258   28.2662   45.5235 H   0  0  0  0  0  0  0  0  0  0  0  0
   59.1310   30.3950   45.8180 C   0  0  0  0  0  0  0  0  0  0  0  0
   60.3930   30.6510   46.3600 C   0  0  0  0  0  0  0  0  0  0  0  0
   61.1161   29.8319   46.4874 H   0  0  0  0  0  0  0  0  0  0  0  0
   60.7230   31.9160   46.7290 N   0  0  0  0  0  0  0  0  0  0  0  0
  1  2  1  0
  2  3  1  0
  3  4  1  0
  3  5  1  0
  3  6  1  0
  6  7  1  0
  6  8  1  0
  6  9  1  0
  9 10  1  0
  9 11  1  0
  9 12  1  0
 12 13  2  0
 13 14  1  0
 14 15  2  0
 15 16  1  0
 16 17  1  0
 17 18  2  0
 17 19  1  0
 19 20  1  0
 20 21  1  0
 21 22  2  0
 22 23  1  0
 22 24  1  0
 24 25  1  0
 24 26  2  0
 26 27  1  0
 26 28  1  0
 28 29  1  0
 28 30  2  0
 30 31  1  0
 19 32  2  0
 32 33  1  0
 32 34  1  0
 34 35  2  0
 35 36  1  0
 35 37  1  0
 37 13  1  0
 34 15  1  0
 30 21  1  0
M  CHG  3  16  -1  31  -1  37  -1
M  END
>  <UniqueID>  (54) 
50

>  <SMILES>  (54) 
O=c1[n-]c2n/c(=N\CCCO)[n-]cc2cc1Oc1ccccc1[O-]

>  <Energy>  (54) 
49.15651463293778

>  <Genealogy>  (54) 
O=c1[n-]c2nc(=NCCCO)[n-]cc2cc1Oc1ccccc1[O-] (protonated)
O=c1[n-]c2n/c(=N\CCCO)[n-]cc2cc1Oc1ccccc1[O-] (cis-trans isomerization)
O=c1[n-]c2n/c(=N\CCCO)[n-]cc2cc1Oc1ccccc1[O-] (3D coordinates assigned)
O=c1[n-]c2n/c(=N\CCCO)[n-]cc2cc1Oc1ccccc1[O-] (optimized conformer: 49.15651463293778 kcal/mol)

>  <smiles>  (54) 
O=c1[nH]c2nc(=NCCCO)[nH]cc2cc1Oc1ccccc1O

>  <score_type>  (54) 
oracle

>  <origin>  (54) 
adg

>  <m_score__min__energy>  (54) 
-11.529999999999999

>  <m_primary>  (54) 
energy

$$$$
54:0
     RDKit          3D

 41 43  0  0  0  0  0  0  0  0999 V2000
   56.2680   20.0850   44.4860 C   0  0  0  0  0  0  0  0  0  0  0  0
   55.6140   21.3160   44.1970 O   0  0  0  0  0  0  0  0  0  0  0  0
   56.1110   22.5790   44.5520 C   0  0  0  0  0  0  0  0  0  0  0  0
   55.2690   23.6420   44.9280 C   0  0  0  0  0  0  0  0  0  0  0  0
   55.8130   24.8840   45.2740 C   0  0  0  0  0  0  0  0  0  0  0  0
   57.2040   25.0830   45.2540 C   0  0  0  0  0  0  0  0  0  0  0  0
   57.7770   26.4060   45.6030 C   0  0  0  0  0  0  0  0  0  0  0  0
   57.7590   27.4480   44.6590 C   0  0  0  0  0  0  0  0  0  0  0  0
   58.3220   28.7040   44.9570 C   0  0  0  0  0  0  0  0  0  0  0  0
   58.3430   29.7740   43.9970 N   0  0  0  0  0  0  0  0  0  0  0  0
   57.2480   31.1210   44.0240 S   0  0  0  0  0  0  0  0  0  0  0  0
   55.9320   30.6790   44.5990 O   0  0  0  0  0  0  0  0  0  0  0  0
   57.0310   31.6050   42.6180 O   0  0  0  0  0  0  0  0  0  0  0  0
   57.9030   32.4070   45.0340 C   0  0  0  0  0  0  0  0  0  0  0  0
   57.9030   32.2660   46.4290 C   0  0  0  0  0  0  0  0  0  0  0  0
   58.4470   33.2700   47.2370 C   0  0  0  0  0  0  0  0  0  0  0  0
   58.9890   34.4190   46.6550 C   0  0  0  0  0  0  0  0  0  0  0  0
   59.5180   35.3920   47.4380 F   0  0  0  0  0  0  0  0  0  0  0  0
   58.9870   34.5660   45.2640 C   0  0  0  0  0  0  0  0  0  0  0  0
   58.4440   33.5640   44.4540 C   0  0  0  0  0  0  0  0  0  0  0  0
   58.8790   28.9130   46.2260 C   0  0  0  0  0  0  0  0  0  0  0  0
   58.8900   27.8880   47.1740 C   0  0  0  0  0  0  0  0  0  0  0  0
   58.3460   26.6390   46.8690 C   0  0  0  0  0  0  0  0  0  0  0  0
   58.3430   25.6720   47.8220 F   0  0  0  0  0  0  0  0  0  0  0  0
   58.0400   24.0210   44.8730 C   0  0  0  0  0  0  0  0  0  0  0  0
   57.4960   22.7810   44.5280 C   0  0  0  0  0  0  0  0  0  0  0  0
   56.3377   19.9539   45.5759 H   0  0  0  0  0  0  0  0  0  0  0  0
   55.6927   19.2536   44.0527 H   0  0  0  0  0  0  0  0  0  0  0  0
   57.2790   20.0964   44.0527 H   0  0  0  0  0  0  0  0  0  0  0  0
   54.1789   23.4960   44.9500 H   0  0  0  0  0  0  0  0  0  0  0  0
   55.1472   25.7103   45.5637 H   0  0  0  0  0  0  0  0  0  0  0  0
   57.2988   27.2798   43.6742 H   0  0  0  0  0  0  0  0  0  0  0  0
   58.9910   29.7100   43.1790 H   0  0  0  0  0  0  0  0  0  0  0  0
   57.4741   31.3636   46.8892 H   0  0  0  0  0  0  0  0  0  0  0  0
   58.4481   33.1550   48.3310 H   0  0  0  0  0  0  0  0  0  0  0  0
   59.4132   35.4711   44.8067 H   0  0  0  0  0  0  0  0  0  0  0  0
   58.4410   33.6831   43.3605 H   0  0  0  0  0  0  0  0  0  0  0  0
   59.3112   29.8929   46.4772 H   0  0  0  0  0  0  0  0  0  0  0  0
   59.3297   28.0656   48.1666 H   0  0  0  0  0  0  0  0  0  0  0  0
   59.1300   24.1662   44.8460 H   0  0  0  0  0  0  0  0  0  0  0  0
   58.1621   21.9561   44.2349 H   0  0  0  0  0  0  0  0  0  0  0  0
  1  2  1  0
  2  3  1  0
  3  4  2  0
  4  5  1  0
  5  6  2  0
  6  7  1  0
  7  8  2  0
  8  9  1  0
  9 10  1  0
 10 11  1  0
 11 12  2  0
 11 13  2  0
 11 14  1  0
 14 15  2  0
 15 16  1  0
 16 17  2  0
 17 18  1  0
 17 19  1  0
 19 20  2  0
  9 21  2  0
 21 22  1  0
 22 23  2  0
 23 24  1  0
  6 25  1  0
 25 26  2  0
 26  3  1  0
 23  7  1  0
 20 14  1  0
  1 27  1  0
  1 28  1  0
  1 29  1  0
  4 30  1  0
  5 31  1  0
  8 32  1  0
 10 33  1  0
 15 34  1  0
 16 35  1  0
 19 36  1  0
 20 37  1  0
 21 38  1  0
 22 39  1  0
 25 40  1  0
 26 41  1  0
M  END
>  <UniqueID>  (55) 
51

>  <SMILES>  (55) 
COc1ccc(-c2cc(NS(=O)(=O)c3ccc(F)cc3)ccc2F)cc1

>  <Energy>  (55) 
51.39319672007443

>  <Genealogy>  (55) 
COc1ccc(-c2cc(NS(=O)(=O)c3ccc(F)cc3)ccc2F)cc1 (3D coordinates assigned)
COc1ccc(-c2cc(NS(=O)(=O)c3ccc(F)cc3)ccc2F)cc1 (optimized conformer: 51.39319672007443 kcal/mol)

>  <smiles>  (55) 
COc1ccc(-c2cc(NS(=O)(=O)c3ccc(F)cc3)ccc2F)cc1

>  <score_type>  (55) 
oracle

>  <origin>  (55) 
adg

>  <m_score__min__energy>  (55) 
-9.0700000000000003

>  <m_primary>  (55) 
energy

$$$$
55:0
     RDKit          3D

 48 51  0  0  1  0  0  0  0  0999 V2000
   59.6950   33.7980   50.6130 C   0  0  0  0  0  0  0  0  0  0  0  0
   59.7180   33.6400   49.2030 O   0  0  0  0  0  0  0  0  0  0  0  0
   60.8550   33.1660   48.5690 C   0  0  0  0  0  0  0  0  0  0  0  0
   61.9510   33.9090   48.2660 C   0  0  0  0  0  0  0  0  0  0  0  0
   63.0350   33.3580   47.6380 C   0  0  0  0  0  0  0  0  0  0  0  0
   63.0780   32.0070   47.2720 C   0  0  0  0  0  0  0  0  0  0  0  0
   61.9650   31.2510   47.5790 C   0  0  0  0  0  0  0  0  0  0  0  0
   60.8650   31.8110   48.2170 C   0  0  0  0  0  0  0  0  0  0  0  0
   59.6590   30.9630   48.5430 C   0  0  0  0  0  0  0  0  0  0  0  0
   59.6810   29.8930   47.6500 N   0  0  0  0  0  0  0  0  0  0  0  0
   58.8630   29.6860   46.6900 C   0  0  0  0  0  0  0  0  0  0  0  0
   58.2080   28.5320   46.6380 N   0  0  0  0  0  0  0  0  0  0  0  0
   57.3540   28.2910   45.6520 C   0  0  0  0  0  0  0  0  0  0  0  0
   56.7310   27.1760   45.6170 N   0  0  0  0  0  0  0  0  0  0  0  0
   57.1700   29.2710   44.6880 C   0  0  0  0  0  0  0  0  0  0  0  0
   56.3960   29.3390   43.5850 N   0  0  0  0  0  0  0  0  0  0  0  0
   56.5940   30.5420   42.9780 C   0  0  0  0  0  0  0  0  0  0  0  0
   57.5000   31.2480   43.6950 N   0  0  0  0  0  0  0  0  0  0  0  0
   57.9690   32.5560   43.3770 C   0  0  0  0  0  0  0  0  0  0  0  0
   57.9220   33.5110   44.5390 C   0  0  2  0  0  0  0  0  0  0  0  0
   59.2950   33.9760   44.9800 C   0  0  0  0  0  0  0  0  0  0  0  0
   58.8990   34.6400   46.3060 C   0  0  0  0  0  0  0  0  0  0  0  0
   57.7670   33.7240   46.7460 C   0  0  0  0  0  0  0  0  0  0  0  0
   57.4680   32.8900   45.6970 O   0  0  0  0  0  0  0  0  0  0  0  0
   57.8520   30.4720   44.7390 C   0  0  0  0  0  0  0  0  0  0  0  0
   58.7130   30.6560   45.7770 N   0  0  0  0  0  0  0  0  0  0  0  0
   59.8375   32.8191   51.0940 H   0  0  0  0  0  0  0  0  0  0  0  0
   60.5036   34.4781   50.9190 H   0  0  0  0  0  0  0  0  0  0  0  0
   58.7261   34.2193   50.9190 H   0  0  0  0  0  0  0  0  0  0  0  0
   61.9677   34.9765   48.5311 H   0  0  0  0  0  0  0  0  0  0  0  0
   63.9013   33.9976   47.4133 H   0  0  0  0  0  0  0  0  0  0  0  0
   63.9526   31.5714   46.7666 H   0  0  0  0  0  0  0  0  0  0  0  0
   61.9484   30.1837   47.3133 H   0  0  0  0  0  0  0  0  0  0  0  0
   59.7196   30.5965   49.5784 H   0  0  0  0  0  0  0  0  0  0  0  0
   58.7273   31.5407   48.4523 H   0  0  0  0  0  0  0  0  0  0  0  0
   58.3530   27.8000   47.3700 H   0  0  0  0  0  0  0  0  0  0  0  0
   56.2850   26.8930   44.7190 H   0  0  0  0  0  0  0  0  0  0  0  0
   56.0993   30.8838   42.0569 H   0  0  0  0  0  0  0  0  0  0  0  0
   59.0108   32.4779   43.0328 H   0  0  0  0  0  0  0  0  0  0  0  0
   57.3015   32.9586   42.6009 H   0  0  0  0  0  0  0  0  0  0  0  0
   57.2804   34.3245   44.1694 H   0  0  0  0  0  0  0  0  0  0  0  0
   59.9887   33.1354   45.1290 H   0  0  0  0  0  0  0  0  0  0  0  0
   59.8321   34.6188   44.2670 H   0  0  0  0  0  0  0  0  0  0  0  0
   59.7297   34.6346   47.0271 H   0  0  0  0  0  0  0  0  0  0  0  0
   58.6242   35.7019   46.2234 H   0  0  0  0  0  0  0  0  0  0  0  0
   58.0830   33.1309   47.6169 H   0  0  0  0  0  0  0  0  0  0  0  0
   56.8837   34.3150   47.0299 H   0  0  0  0  0  0  0  0  0  0  0  0
   59.2490   31.5420   45.8590 H   0  0  0  0  0  0  0  0  0  0  0  0
  1  2  1  0
  2  3  1  0
  3  4  2  0
  4  5  1  0
  5  6  2  0
  6  7  1  0
  7  8  2  0
  8  9  1  0
  9 10  1  0
 10 11  2  0
 11 12  1  0
 12 13  1  0
 13 14  2  3
 13 15  1  0
 15 16  1  0
 16 17  2  0
 17 18  1  0
 18 19  1  0
 19 20  1  0
 20 21  1  0
 21 22  1  0
 22 23  1  0
 23 24  1  0
 18 25  1  0
 25 26  1  0
  8  3  1  0
 26 11  1  0
 25 15  2  0
 24 20  1  0
  1 27  1  0
  1 28  1  0
  1 29  1  0
  4 30  1  0
  5 31  1  0
  6 32  1  0
  7 33  1  0
  9 34  1  0
  9 35  1  0
 12 36  1  0
 14 37  1  0
 17 38  1  0
 19 39  1  0
 19 40  1  0
 20 41  1  6
 21 42  1  0
 21 43  1  0
 22 44  1  0
 22 45  1  0
 23 46  1  0
 23 47  1  0
 26 48  1  0
M  END
>  <smiles>  (56) 
COc1ccccc1CN=c1[nH]c(=N)c2ncn(CC3CCCO3)c2[nH]1

>  <score_type>  (56) 
oracle

>  <origin>  (56) 
adg

>  <m_score__min__energy>  (56) 
-7.0199999999999996

>  <m_primary>  (56) 
energy

$$$$
56:0
     RDKit          3D

 50 53  0  0  0  0  0  0  0  0999 V2000
   57.0440   28.9620   52.1290 O   0  0  0  0  0  0  0  0  0  0  0  0
   56.2460   30.1430   52.6070 S   0  0  0  0  0  0  0  0  0  0  0  0
   56.5680   30.4020   54.0510 O   0  0  0  0  0  0  0  0  0  0  0  0
   56.6750   31.5300   51.6620 N   0  0  0  0  0  0  0  0  0  0  0  0
   57.9420   31.6320   51.0010 C   0  0  0  0  0  0  0  0  0  0  0  0
   58.8620   30.7380   51.1950 N   0  0  0  0  0  0  0  0  0  0  0  0
   60.1710   30.8440   50.5510 C   0  0  0  0  0  0  0  0  0  0  0  0
   60.0620   31.2240   49.1110 N   0  0  2  0  0  0  0  0  0  0  0  0
   61.3090   31.8360   48.6640 C   0  0  0  0  0  0  0  0  0  0  0  0
   61.8970   32.8750   49.4140 C   0  0  0  0  0  0  0  0  0  0  0  0
   63.1120   33.4420   49.0160 C   0  0  0  0  0  0  0  0  0  0  0  0
   63.7560   32.9820   47.8660 C   0  0  0  0  0  0  0  0  0  0  0  0
   63.1870   31.9550   47.1110 C   0  0  0  0  0  0  0  0  0  0  0  0
   61.9740   31.3830   47.5030 C   0  0  0  0  0  0  0  0  0  0  0  0
   58.8300   32.0180   48.7600 C   0  0  2  0  0  0  0  0  0  0  0  0
   59.0010   32.9350   47.5470 C   0  0  0  0  0  0  0  0  0  0  0  0
   59.6810   34.1670   47.6190 C   0  0  0  0  0  0  0  0  0  0  0  0
   59.8680   34.9400   46.4700 C   0  0  0  0  0  0  0  0  0  0  0  0
   59.3890   34.4940   45.2370 C   0  0  0  0  0  0  0  0  0  0  0  0
   58.7200   33.2700   45.1490 C   0  0  0  0  0  0  0  0  0  0  0  0
   58.1330   32.7010   43.5980 Cl  0  0  0  0  0  0  0  0  0  0  0  0
   58.5290   32.4940   46.2960 C   0  0  0  0  0  0  0  0  0  0  0  0
   58.1920   32.7030   49.9870 C   0  0  0  0  0  0  0  0  0  0  0  0
   54.5210   29.8320   52.4480 C   0  0  0  0  0  0  0  0  0  0  0  0
   53.9240   28.8140   53.2060 C   0  0  0  0  0  0  0  0  0  0  0  0
   52.5490   28.5760   53.1030 C   0  0  0  0  0  0  0  0  0  0  0  0
   51.7680   29.3500   52.2400 C   0  0  0  0  0  0  0  0  0  0  0  0
   52.3590   30.3650   51.4830 C   0  0  0  0  0  0  0  0  0  0  0  0
   53.7330   30.6060   51.5840 C   0  0  0  0  0  0  0  0  0  0  0  0
   55.9570   32.2750   51.5220 H   0  0  0  0  0  0  0  0  0  0  0  0
   60.7629   31.6087   51.0753 H   0  0  0  0  0  0  0  0  0  0  0  0
   60.6545   29.8574   50.6043 H   0  0  0  0  0  0  0  0  0  0  0  0
   59.9570   30.3140   48.6010 H   0  0  0  0  0  0  0  0  0  0  0  0
   61.3953   33.2433   50.3210 H   0  0  0  0  0  0  0  0  0  0  0  0
   63.5609   34.2517   49.6101 H   0  0  0  0  0  0  0  0  0  0  0  0
   64.7118   33.4288   47.5548 H   0  0  0  0  0  0  0  0  0  0  0  0
   63.6953   31.5948   46.2044 H   0  0  0  0  0  0  0  0  0  0  0  0
   61.5333   30.5734   46.9027 H   0  0  0  0  0  0  0  0  0  0  0  0
   58.0900   31.2773   48.4225 H   0  0  0  0  0  0  0  0  0  0  0  0
   60.0671   34.5225   48.5857 H   0  0  0  0  0  0  0  0  0  0  0  0
   60.3946   35.9034   46.5374 H   0  0  0  0  0  0  0  0  0  0  0  0
   59.5380   35.1057   44.3350 H   0  0  0  0  0  0  0  0  0  0  0  0
   58.0050   31.5298   46.2204 H   0  0  0  0  0  0  0  0  0  0  0  0
   58.8773   33.4595   50.3969 H   0  0  0  0  0  0  0  0  0  0  0  0
   57.2560   33.2113   49.7120 H   0  0  0  0  0  0  0  0  0  0  0  0
   54.5379   28.2015   53.8827 H   0  0  0  0  0  0  0  0  0  0  0  0
   52.0825   27.7795   53.7014 H   0  0  0  0  0  0  0  0  0  0  0  0
   50.6877   29.1600   52.1567 H   0  0  0  0  0  0  0  0  0  0  0  0
   51.7427   30.9754   50.8066 H   0  0  0  0  0  0  0  0  0  0  0  0
   54.1962   31.4038   50.9849 H   0  0  0  0  0  0  0  0  0  0  0  0
  1  2  2  0
  2  3  2  0
  2  4  1  0
  4  5  1  0
  5  6  2  0
  6  7  1  0
  7  8  1  0
  8  9  1  0
  9 10  2  0
 10 11  1  0
 11 12  2  0
 12 13  1  0
 13 14  2  0
  8 15  1  0
 15 16  1  0
 16 17  2  0
 17 18  1  0
 18 19  2  0
 19 20  1  0
 20 21  1  0
 20 22  2  0
 15 23  1  0
  2 24  1  0
 24 25  2  0
 25 26  1  0
 26 27  2  0
 27 28  1  0
 28 29  2  0
 23  5  1  0
 29 24  1  0
 14  9  1  0
 22 16  1  0
  4 30  1  0
  7 31  1  0
  7 32  1  0
  8 33  1  6
 10 34  1  0
 11 35  1  0
 12 36  1  0
 13 37  1  0
 14 38  1  0
 15 39  1  6
 17 40  1  0
 18 41  1  0
 19 42  1  0
 22 43  1  0
 23 44  1  0
 23 45  1  0
 25 46  1  0
 26 47  1  0
 27 48  1  0
 28 49  1  0
 29 50  1  0
M  CHG  1   8   1
M  END
>  <UniqueID>  (57) 
52

>  <SMILES>  (57) 
O=S(=O)(NC1=NC[N@H+](c2ccccc2)[C@H](c2cccc(Cl)c2)C1)c1ccccc1

>  <Energy>  (57) 
73.30134767250786

>  <Genealogy>  (57) 
O=S(=O)(NC1=NC[NH+](c2ccccc2)C(c2cccc(Cl)c2)C1)c1ccccc1 (protonated)
O=S(=O)(NC1=NC[N@H+](c2ccccc2)[C@H](c2cccc(Cl)c2)C1)c1ccccc1 (chirality)
O=S(=O)(NC1=NC[N@H+](c2ccccc2)[C@H](c2cccc(Cl)c2)C1)c1ccccc1 (3D coordinates assigned)
O=S(=O)(NC1=NC[N@H+](c2ccccc2)[C@H](c2cccc(Cl)c2)C1)c1ccccc1 (nonaromatic ring conformer: 73.30134767250786 kcal/mol)

>  <smiles>  (57) 
O=S(=O)(NC1=NCN(c2ccccc2)C(c2cccc(Cl)c2)C1)c1ccccc1

>  <score_type>  (57) 
oracle

>  <origin>  (57) 
adg

>  <m_score__min__energy>  (57) 
-7.71

>  <m_primary>  (57) 
energy

$$$$
57:0
     RDKit          3D

 43 45  0  0  0  0  0  0  0  0999 V2000
   55.9590   29.7220   43.0050 Cl  0  0  0  0  0  0  0  0  0  0  0  0
   57.1290   29.8630   44.3030 C   0  0  0  0  0  0  0  0  0  0  0  0
   57.5720   28.7200   44.9730 C   0  0  0  0  0  0  0  0  0  0  0  0
   58.5050   28.8290   46.0100 C   0  0  0  0  0  0  0  0  0  0  0  0
   59.0070   30.0900   46.3870 C   0  0  0  0  0  0  0  0  0  0  0  0
   59.9970   30.2370   47.4800 C   0  0  0  0  0  0  0  0  0  0  0  0
   61.1720   30.8960   47.3830 N   0  0  0  0  0  0  0  0  0  0  0  0
   61.7310   30.7660   48.5980 C   0  0  0  0  0  0  0  0  0  0  0  0
   63.0210   31.4010   49.0110 C   0  0  0  0  0  0  0  0  0  0  0  0
   63.4890   32.3070   47.9560 N   0  0  0  0  0  0  0  0  0  0  0  0
   63.2450   33.7250   48.2860 C   0  0  0  0  0  0  0  0  0  0  0  0
   61.8330   34.2070   47.8700 C   0  0  0  0  0  0  0  0  0  0  0  0
   61.4860   33.7150   46.4520 C   0  0  0  0  0  0  0  0  0  0  0  0
   60.1480   34.3010   45.9540 C   0  0  0  0  0  0  0  0  0  0  0  0
   59.1690   34.6520   47.0890 C   0  0  0  0  0  0  0  0  0  0  0  0
   59.3250   33.7010   48.2800 C   0  0  0  0  0  0  0  0  0  0  0  0
   60.7470   33.7500   48.8800 C   0  0  0  0  0  0  0  0  0  0  0  0
   60.8750   30.0510   49.4060 C   0  0  0  0  0  0  0  0  0  0  0  0
   59.8230   29.7350   48.6860 O   0  0  0  0  0  0  0  0  0  0  0  0
   58.5530   31.2330   45.7050 C   0  0  0  0  0  0  0  0  0  0  0  0
   57.6200   31.1190   44.6700 C   0  0  0  0  0  0  0  0  0  0  0  0
   57.1861   27.7312   44.6844 H   0  0  0  0  0  0  0  0  0  0  0  0
   58.8485   27.9248   46.5339 H   0  0  0  0  0  0  0  0  0  0  0  0
   61.5700   31.4100   46.5670 H   0  0  0  0  0  0  0  0  0  0  0  0
   62.8670   31.9703   49.9395 H   0  0  0  0  0  0  0  0  0  0  0  0
   63.7747   30.6173   49.1775 H   0  0  0  0  0  0  0  0  0  0  0  0
   64.5070   32.1320   47.7800 H   0  0  0  0  0  0  0  0  0  0  0  0
   63.3545   33.8562   49.3726 H   0  0  0  0  0  0  0  0  0  0  0  0
   63.9768   34.3248   47.7251 H   0  0  0  0  0  0  0  0  0  0  0  0
   61.8490   35.3069   47.8713 H   0  0  0  0  0  0  0  0  0  0  0  0
   62.2871   34.0207   45.7630 H   0  0  0  0  0  0  0  0  0  0  0  0
   61.3890   32.6198   46.4841 H   0  0  0  0  0  0  0  0  0  0  0  0
   60.3605   35.2165   45.3824 H   0  0  0  0  0  0  0  0  0  0  0  0
   59.6654   33.5268   45.3393 H   0  0  0  0  0  0  0  0  0  0  0  0
   59.3656   35.6808   47.4251 H   0  0  0  0  0  0  0  0  0  0  0  0
   58.1437   34.5552   46.7024 H   0  0  0  0  0  0  0  0  0  0  0  0
   58.6016   33.9856   49.0583 H   0  0  0  0  0  0  0  0  0  0  0  0
   59.1436   32.6769   47.9218 H   0  0  0  0  0  0  0  0  0  0  0  0
   60.7428   34.4517   49.7271 H   0  0  0  0  0  0  0  0  0  0  0  0
   61.0029   32.7250   49.1864 H   0  0  0  0  0  0  0  0  0  0  0  0
   61.0420   29.7918   50.4619 H   0  0  0  0  0  0  0  0  0  0  0  0
   58.9351   32.2249   45.9882 H   0  0  0  0  0  0  0  0  0  0  0  0
   57.2716   32.0198   44.1434 H   0  0  0  0  0  0  0  0  0  0  0  0
  1  2  1  0
  2  3  2  0
  3  4  1  0
  4  5  2  0
  5  6  1  0
  6  7  2  0
  7  8  1  0
  8  9  1  0
  9 10  1  0
 10 11  1  0
 11 12  1  0
 12 13  1  0
 13 14  1  0
 14 15  1  0
 15 16  1  0
 16 17  1  0
  8 18  2  0
 18 19  1  0
  5 20  1  0
 20 21  2  0
 21  2  1  0
 19  6  1  0
 17 12  1  0
  3 22  1  0
  4 23  1  0
  7 24  1  0
  9 25  1  0
  9 26  1  0
 10 27  1  0
 11 28  1  0
 11 29  1  0
 12 30  1  0
 13 31  1  0
 13 32  1  0
 14 33  1  0
 14 34  1  0
 15 35  1  0
 15 36  1  0
 16 37  1  0
 16 38  1  0
 17 39  1  0
 17 40  1  0
 18 41  1  0
 20 42  1  0
 21 43  1  0
M  CHG  1   7   1
M  END
>  <UniqueID>  (58) 
53

>  <SMILES>  (58) 
Clc1ccc(-c2[nH+]c(CNCC3CCCCC3)co2)cc1

>  <Energy>  (58) 
77.15592252123642

>  <Genealogy>  (58) 
Clc1ccc(-c2[nH+]c(CNCC3CCCCC3)co2)cc1 (protonated)
Clc1ccc(-c2[nH+]c(CNCC3CCCCC3)co2)cc1 (3D coordinates assigned)
Clc1ccc(-c2[nH+]c(CNCC3CCCCC3)co2)cc1 (nonaromatic ring conformer: 77.15592252123642 kcal/mol)

>  <smiles>  (58) 
Clc1ccc(-c2nc(CNCC3CCCCC3)co2)cc1

>  <score_type>  (58) 
oracle

>  <origin>  (58) 
adg

>  <m_score__min__energy>  (58) 
-6.0499999999999998

>  <m_primary>  (58) 
energy

$$$$
58:0
     RDKit          3D

 46 48  0  0  0  0  0  0  0  0999 V2000
   56.5800   30.4720   43.9080 C   0  0  0  0  0  0  0  0  0  0  0  0
   56.9210   30.9800   45.1950 O   0  0  0  0  0  0  0  0  0  0  0  0
   57.6580   32.1540   45.4160 C   0  0  0  0  0  0  0  0  0  0  0  0
   57.4090   33.3360   44.6900 C   0  0  0  0  0  0  0  0  0  0  0  0
   58.1670   34.4840   44.9260 C   0  0  0  0  0  0  0  0  0  0  0  0
   59.1740   34.4730   45.8910 C   0  0  0  0  0  0  0  0  0  0  0  0
   59.4330   33.3100   46.6180 C   0  0  0  0  0  0  0  0  0  0  0  0
   58.6870   32.1420   46.3820 C   0  0  0  0  0  0  0  0  0  0  0  0
   59.0140   30.8800   47.1470 C   0  0  0  0  0  0  0  0  0  0  0  0
   60.2660   30.2760   46.6830 N   0  0  0  0  0  0  0  0  0  0  0  0
   60.0140   29.2550   45.2940 S   0  0  0  0  0  0  0  0  0  0  0  0
   59.5140   30.0730   44.1340 O   0  0  0  0  0  0  0  0  0  0  0  0
   61.3190   28.6190   44.9070 O   0  0  0  0  0  0  0  0  0  0  0  0
   58.8630   27.9850   45.6960 C   0  0  0  0  0  0  0  0  0  0  0  0
   58.7380   27.5640   47.0250 C   0  0  0  0  0  0  0  0  0  0  0  0
   57.7690   26.6200   47.3760 C   0  0  0  0  0  0  0  0  0  0  0  0
   56.9280   26.0710   46.4020 C   0  0  0  0  0  0  0  0  0  0  0  0
   55.9140   25.1420   46.8140 N   0  0  0  0  0  0  0  0  0  0  0  0
   55.1370   24.2880   45.9630 C   0  0  0  0  0  0  0  0  0  0  0  0
   53.8790   24.3630   45.9730 O   0  0  0  0  0  0  0  0  0  0  0  0
   55.8140   23.3540   45.0330 C   0  0  0  0  0  0  0  0  0  0  0  0
   55.6120   23.4560   43.6430 C   0  0  0  0  0  0  0  0  0  0  0  0
   56.2490   22.5720   42.7680 C   0  0  0  0  0  0  0  0  0  0  0  0
   57.0930   21.5770   43.2670 C   0  0  0  0  0  0  0  0  0  0  0  0
   57.3010   21.4650   44.6430 C   0  0  0  0  0  0  0  0  0  0  0  0
   56.6670   22.3460   45.5230 C   0  0  0  0  0  0  0  0  0  0  0  0
   57.0530   26.4960   45.0660 C   0  0  0  0  0  0  0  0  0  0  0  0
   58.0210   27.4410   44.7170 C   0  0  0  0  0  0  0  0  0  0  0  0
   55.9702   29.5636   44.0221 H   0  0  0  0  0  0  0  0  0  0  0  0
   56.0076   31.2307   43.3542 H   0  0  0  0  0  0  0  0  0  0  0  0
   57.4990   30.2296   43.3542 H   0  0  0  0  0  0  0  0  0  0  0  0
   56.6119   33.3540   43.9322 H   0  0  0  0  0  0  0  0  0  0  0  0
   57.9697   35.3998   44.3494 H   0  0  0  0  0  0  0  0  0  0  0  0
   59.7646   35.3817   46.0793 H   0  0  0  0  0  0  0  0  0  0  0  0
   60.2259   33.3073   47.3805 H   0  0  0  0  0  0  0  0  0  0  0  0
   59.1104   31.1250   48.2150 H   0  0  0  0  0  0  0  0  0  0  0  0
   58.2015   30.1572   46.9810 H   0  0  0  0  0  0  0  0  0  0  0  0
   59.4048   27.9776   47.7959 H   0  0  0  0  0  0  0  0  0  0  0  0
   57.6669   26.3065   48.4254 H   0  0  0  0  0  0  0  0  0  0  0  0
   54.9483   24.2368   43.2433 H   0  0  0  0  0  0  0  0  0  0  0  0
   56.0854   22.6599   41.6838 H   0  0  0  0  0  0  0  0  0  0  0  0
   57.5933   20.8823   42.5763 H   0  0  0  0  0  0  0  0  0  0  0  0
   57.9657   20.6812   45.0354 H   0  0  0  0  0  0  0  0  0  0  0  0
   56.8353   22.2516   46.6060 H   0  0  0  0  0  0  0  0  0  0  0  0
   56.3866   26.0829   44.2945 H   0  0  0  0  0  0  0  0  0  0  0  0
   58.1226   27.7594   43.6690 H   0  0  0  0  0  0  0  0  0  0  0  0
  1  2  1  0
  2  3  1  0
  3  4  2  0
  4  5  1  0
  5  6  2  0
  6  7  1  0
  7  8  2  0
  8  9  1  0
  9 10  1  0
 10 11  1  0
 11 12  2  0
 11 13  2  0
 11 14  1  0
 14 15  2  0
 15 16  1  0
 16 17  2  0
 17 18  1  0
 18 19  1  0
 19 20  2  0
 19 21  1  0
 21 22  2  0
 22 23  1  0
 23 24  2  0
 24 25  1  0
 25 26  2  0
 17 27  1  0
 27 28  2  0
  8  3  1  0
 28 14  1  0
 26 21  1  0
  1 29  1  0
  1 30  1  0
  1 31  1  0
  4 32  1  0
  5 33  1  0
  6 34  1  0
  7 35  1  0
  9 36  1  0
  9 37  1  0
 15 38  1  0
 16 39  1  0
 22 40  1  0
 23 41  1  0
 24 42  1  0
 25 43  1  0
 26 44  1  0
 27 45  1  0
 28 46  1  0
M  CHG  2  10  -1  18  -1
M  END
>  <UniqueID>  (59) 
54

>  <SMILES>  (59) 
COc1ccccc1C[N-]S(=O)(=O)c1ccc([N-]C(=O)c2ccccc2)cc1

>  <Energy>  (59) 
47.958446416355656

>  <Genealogy>  (59) 
COc1ccccc1C[N-]S(=O)(=O)c1ccc([N-]C(=O)c2ccccc2)cc1 (protonated)
COc1ccccc1C[N-]S(=O)(=O)c1ccc([N-]C(=O)c2ccccc2)cc1 (3D coordinates assigned)
COc1ccccc1C[N-]S(=O)(=O)c1ccc([N-]C(=O)c2ccccc2)cc1 (optimized conformer: 47.958446416355656 kcal/mol)

>  <smiles>  (59) 
COc1ccccc1CNS(=O)(=O)c1ccc(NC(=O)c2ccccc2)cc1

>  <score_type>  (59) 
oracle

>  <origin>  (59) 
adg

>  <m_score__min__energy>  (59) 
-11.48

>  <m_primary>  (59) 
energy

$$$$
59:0
     RDKit          3D

 64 66  0  0  0  0  0  0  0  0999 V2000
   55.5290   24.0690   44.2330 C   0  0  0  0  0  0  0  0  0  0  0  0
   54.7250   24.8110   45.6370 S   0  0  0  0  0  0  0  0  0  0  0  0
   54.7900   23.8950   46.8280 O   0  0  0  0  0  0  0  0  0  0  0  0
   53.2830   25.0580   45.2930 O   0  0  0  0  0  0  0  0  0  0  0  0
   55.4760   26.3320   46.0120 N   0  0  0  0  0  0  0  0  0  0  0  0
   56.8900   26.5670   46.1070 C   0  0  0  0  0  0  0  0  0  0  0  0
   57.5540   27.4850   45.2730 C   0  0  0  0  0  0  0  0  0  0  0  0
   58.9390   27.6910   45.3910 C   0  0  0  0  0  0  0  0  0  0  0  0
   59.6260   28.7070   44.5050 C   0  0  2  0  0  0  0  0  0  0  0  0
   61.0180   28.6370   44.6650 O   0  0  0  0  0  0  0  0  0  0  0  0
   59.1220   30.1250   44.8450 C   0  0  0  0  0  0  0  0  0  0  0  0
   58.4860   30.8050   43.7050 N   0  0  0  0  0  0  0  0  0  0  0  0
   57.2270   31.4700   44.0740 C   0  0  0  0  0  0  0  0  0  0  0  0
   57.4020   32.9940   44.0930 C   0  0  0  0  0  0  0  0  0  0  0  0
   58.1120   33.4550   45.3410 C   0  0  0  0  0  0  0  0  0  0  0  0
   59.0410   34.5060   45.2790 C   0  0  0  0  0  0  0  0  0  0  0  0
   59.7580   34.8840   46.4180 C   0  0  0  0  0  0  0  0  0  0  0  0
   59.5410   34.2280   47.6440 C   0  0  0  0  0  0  0  0  0  0  0  0
   60.3080   34.5550   48.8170 N   0  0  0  0  0  0  0  0  0  0  0  0
   61.6920   34.2130   49.0100 C   0  0  0  0  0  0  0  0  0  0  0  0
   62.4600   33.8080   47.9110 C   0  0  0  0  0  0  0  0  0  0  0  0
   63.7950   33.4300   48.0800 C   0  0  0  0  0  0  0  0  0  0  0  0
   64.3840   33.4330   49.3530 C   0  0  0  0  0  0  0  0  0  0  0  0
   65.7600   33.0280   49.4850 N   0  0  0  0  0  0  0  0  0  0  0  0
   66.7360   33.2790   50.9000 S   0  0  0  0  0  0  0  0  0  0  0  0
   66.4920   31.9400   52.0480 C   0  0  0  0  0  0  0  0  0  0  0  0
   66.3160   34.5620   51.5630 O   0  0  0  0  0  0  0  0  0  0  0  0
   68.1860   33.3880   50.5190 O   0  0  0  0  0  0  0  0  0  0  0  0
   63.6060   33.8200   50.4610 C   0  0  0  0  0  0  0  0  0  0  0  0
   62.2710   34.1990   50.2900 C   0  0  0  0  0  0  0  0  0  0  0  0
   58.6180   33.1740   47.7010 C   0  0  0  0  0  0  0  0  0  0  0  0
   57.9070   32.7910   46.5600 C   0  0  0  0  0  0  0  0  0  0  0  0
   59.6540   26.9940   46.3790 C   0  0  0  0  0  0  0  0  0  0  0  0
   59.0020   26.0740   47.2020 C   0  0  0  0  0  0  0  0  0  0  0  0
   57.6280   25.8560   47.0650 C   0  0  0  0  0  0  0  0  0  0  0  0
   56.9970   24.9350   47.8930 O   0  0  0  0  0  0  0  0  0  0  0  0
   56.2958   23.3613   44.5812 H   0  0  0  0  0  0  0  0  0  0  0  0
   54.7849   23.5335   43.6250 H   0  0  0  0  0  0  0  0  0  0  0  0
   56.0032   24.8536   43.6250 H   0  0  0  0  0  0  0  0  0  0  0  0
   56.9826   28.0478   44.5201 H   0  0  0  0  0  0  0  0  0  0  0  0
   59.3848   28.4815   43.4557 H   0  0  0  0  0  0  0  0  0  0  0  0
   61.3850   28.2840   43.8140 H   0  0  0  0  0  0  0  0  0  0  0  0
   58.3874   30.0485   45.6602 H   0  0  0  0  0  0  0  0  0  0  0  0
   59.9994   30.7226   45.1330 H   0  0  0  0  0  0  0  0  0  0  0  0
   58.2990   30.1030   42.9520 H   0  0  0  0  0  0  0  0  0  0  0  0
   56.4508   31.2051   43.3410 H   0  0  0  0  0  0  0  0  0  0  0  0
   56.9331   31.1359   45.0800 H   0  0  0  0  0  0  0  0  0  0  0  0
   57.9909   33.2968   43.2146 H   0  0  0  0  0  0  0  0  0  0  0  0
   56.4037   33.4555   44.0743 H   0  0  0  0  0  0  0  0  0  0  0  0
   59.2056   35.0350   44.3287 H   0  0  0  0  0  0  0  0  0  0  0  0
   60.4952   35.6980   46.3557 H   0  0  0  0  0  0  0  0  0  0  0  0
   59.8250   35.0740   49.5850 H   0  0  0  0  0  0  0  0  0  0  0  0
   62.0094   33.7872   46.9078 H   0  0  0  0  0  0  0  0  0  0  0  0
   64.3898   33.1271   47.2057 H   0  0  0  0  0  0  0  0  0  0  0  0
   66.2270   32.5640   48.6730 H   0  0  0  0  0  0  0  0  0  0  0  0
   66.5616   32.3221   53.0772 H   0  0  0  0  0  0  0  0  0  0  0  0
   65.4982   31.4964   51.8880 H   0  0  0  0  0  0  0  0  0  0  0  0
   67.2654   31.1743   51.8880 H   0  0  0  0  0  0  0  0  0  0  0  0
   64.0510   33.8242   51.4669 H   0  0  0  0  0  0  0  0  0  0  0  0
   61.6695   34.4884   51.1643 H   0  0  0  0  0  0  0  0  0  0  0  0
   58.4521   32.6445   48.6508 H   0  0  0  0  0  0  0  0  0  0  0  0
   57.1831   31.9648   46.6181 H   0  0  0  0  0  0  0  0  0  0  0  0
   60.7319   27.1738   46.5047 H   0  0  0  0  0  0  0  0  0  0  0  0
   59.5717   25.5184   47.9614 H   0  0  0  0  0  0  0  0  0  0  0  0
  1  2  1  0
  2  3  2  0
  2  4  2  0
  2  5  1  0
  5  6  1  0
  6  7  2  0
  7  8  1  0
  8  9  1  0
  9 10  1  0
  9 11  1  0
 11 12  1  0
 12 13  1  0
 13 14  1  0
 14 15  1  0
 15 16  2  0
 16 17  1  0
 17 18  2  0
 18 19  1  0
 19 20  1  0
 20 21  2  0
 21 22  1  0
 22 23  2  0
 23 24  1  0
 24 25  1  0
 25 26  1  0
 25 27  2  0
 25 28  2  0
 23 29  1  0
 29 30  2  0
 18 31  1  0
 31 32  2  0
  8 33  2  0
 33 34  1  0
 34 35  2  0
 35 36  1  0
 35  6  1  0
 32 15  1  0
 30 20  1  0
  1 37  1  0
  1 38  1  0
  1 39  1  0
  7 40  1  0
  9 41  1  6
 10 42  1  0
 11 43  1  0
 11 44  1  0
 12 45  1  0
 13 46  1  0
 13 47  1  0
 14 48  1  0
 14 49  1  0
 16 50  1  0
 17 51  1  0
 19 52  1  0
 21 53  1  0
 22 54  1  0
 24 55  1  0
 26 56  1  0
 26 57  1  0
 26 58  1  0
 29 59  1  0
 30 60  1  0
 31 61  1  0
 32 62  1  0
 33 63  1  0
 34 64  1  0
M  CHG  2   5  -1  36  -1
M  END
>  <UniqueID>  (60) 
55

>  <SMILES>  (60) 
CS(=O)(=O)[N-]c1cc([C@H](O)CNCCc2ccc(Nc3ccc(NS(C)(=O)=O)cc3)cc2)ccc1[O-]

>  <Energy>  (60) 
66.66518144795653

>  <Genealogy>  (60) 
CS(=O)(=O)[N-]c1cc(C(O)CNCCc2ccc(Nc3ccc(NS(C)(=O)=O)cc3)cc2)ccc1[O-] (protonated)
CS(=O)(=O)[N-]c1cc([C@H](O)CNCCc2ccc(Nc3ccc(NS(C)(=O)=O)cc3)cc2)ccc1[O-] (chirality)
CS(=O)(=O)[N-]c1cc([C@H](O)CNCCc2ccc(Nc3ccc(NS(C)(=O)=O)cc3)cc2)ccc1[O-] (3D coordinates assigned)
CS(=O)(=O)[N-]c1cc([C@H](O)CNCCc2ccc(Nc3ccc(NS(C)(=O)=O)cc3)cc2)ccc1[O-] (optimized conformer: 66.66518144795653 kcal/mol)

>  <smiles>  (60) 
CS(=O)(=O)Nc1ccc(Nc2ccc(CCNCC(O)c3ccc(O)c(NS(C)(=O)=O)c3)cc2)cc1

>  <score_type>  (60) 
oracle

>  <origin>  (60) 
adg

>  <m_score__min__energy>  (60) 
-14.359999999999999

>  <m_primary>  (60) 
energy

$$$$
60:0
     RDKit          3D

 47 50  0  0  0  0  0  0  0  0999 V2000
   55.9510   25.4690   46.7380 O   0  0  0  0  0  0  0  0  0  0  0  0
   56.4960   26.2650   45.9260 C   0  0  0  0  0  0  0  0  0  0  0  0
   57.7230   25.8380   45.1860 C   0  0  0  0  0  0  0  0  0  0  0  0
   57.5500   24.4380   44.6670 C   0  0  0  0  0  0  0  0  0  0  0  0
   56.5990   24.1630   43.6700 C   0  0  0  0  0  0  0  0  0  0  0  0
   56.4660   22.8670   43.1620 C   0  0  0  0  0  0  0  0  0  0  0  0
   57.2850   21.8400   43.6380 C   0  0  0  0  0  0  0  0  0  0  0  0
   58.2430   22.1080   44.6200 C   0  0  0  0  0  0  0  0  0  0  0  0
   58.3790   23.4020   45.1310 C   0  0  0  0  0  0  0  0  0  0  0  0
   55.8960   27.5300   45.6210 N   0  0  0  0  0  0  0  0  0  0  0  0
   56.5840   28.7540   45.3200 C   0  0  0  0  0  0  0  0  0  0  0  0
   57.8690   29.0310   45.8190 C   0  0  0  0  0  0  0  0  0  0  0  0
   58.5090   30.2290   45.4880 C   0  0  0  0  0  0  0  0  0  0  0  0
   57.8880   31.1610   44.6490 C   0  0  0  0  0  0  0  0  0  0  0  0
   58.5720   32.3540   44.3590 O   0  0  0  0  0  0  0  0  0  0  0  0
   58.3880   33.5930   45.0440 C   0  0  0  0  0  0  0  0  0  0  0  0
   59.3430   33.7120   46.1980 C   0  0  0  0  0  0  0  0  0  0  0  0
   58.8860   34.0640   47.4690 C   0  0  0  0  0  0  0  0  0  0  0  0
   59.8080   34.1790   48.5110 C   0  0  0  0  0  0  0  0  0  0  0  0
   59.3890   34.4900   49.6610 O   0  0  0  0  0  0  0  0  0  0  0  0
   61.1440   33.9580   48.2810 N   0  0  0  0  0  0  0  0  0  0  0  0
   62.0590   34.0650   49.3000 C   0  0  0  0  0  0  0  0  0  0  0  0
   63.4180   33.8440   49.0640 C   0  0  0  0  0  0  0  0  0  0  0  0
   63.8480   33.5120   47.7830 C   0  0  0  0  0  0  0  0  0  0  0  0
   62.9220   33.4030   46.7500 C   0  0  0  0  0  0  0  0  0  0  0  0
   61.5670   33.6300   47.0110 C   0  0  0  0  0  0  0  0  0  0  0  0
   60.6690   33.5170   45.9960 N   0  0  0  0  0  0  0  0  0  0  0  0
   56.6140   30.8690   44.1260 C   0  0  0  0  0  0  0  0  0  0  0  0
   55.9740   29.6710   44.4570 C   0  0  0  0  0  0  0  0  0  0  0  0
   57.8948   26.5210   44.3410 H   0  0  0  0  0  0  0  0  0  0  0  0
   58.5844   25.8655   45.8695 H   0  0  0  0  0  0  0  0  0  0  0  0
   55.9568   24.9701   43.2877 H   0  0  0  0  0  0  0  0  0  0  0  0
   55.7153   22.6557   42.3863 H   0  0  0  0  0  0  0  0  0  0  0  0
   57.1759   20.8204   43.2399 H   0  0  0  0  0  0  0  0  0  0  0  0
   58.8905   21.2999   44.9910 H   0  0  0  0  0  0  0  0  0  0  0  0
   59.1380   23.6104   45.8995 H   0  0  0  0  0  0  0  0  0  0  0  0
   58.3723   28.3027   46.4719 H   0  0  0  0  0  0  0  0  0  0  0  0
   59.5103   30.4411   45.8909 H   0  0  0  0  0  0  0  0  0  0  0  0
   58.5643   34.4222   44.3430 H   0  0  0  0  0  0  0  0  0  0  0  0
   57.3595   33.6318   45.4322 H   0  0  0  0  0  0  0  0  0  0  0  0
   57.8162   34.2479   47.6469 H   0  0  0  0  0  0  0  0  0  0  0  0
   61.7180   34.3274   50.3124 H   0  0  0  0  0  0  0  0  0  0  0  0
   64.1438   33.9319   49.8859 H   0  0  0  0  0  0  0  0  0  0  0  0
   64.9161   33.3363   47.5876 H   0  0  0  0  0  0  0  0  0  0  0  0
   63.2537   33.1400   45.7347 H   0  0  0  0  0  0  0  0  0  0  0  0
   56.1201   31.5864   43.4542 H   0  0  0  0  0  0  0  0  0  0  0  0
   54.9828   29.4475   44.0356 H   0  0  0  0  0  0  0  0  0  0  0  0
  1  2  2  0
  2  3  1  0
  3  4  1  0
  4  5  2  0
  5  6  1  0
  6  7  2  0
  7  8  1  0
  8  9  2  0
  2 10  1  0
 10 11  1  0
 11 12  2  0
 12 13  1  0
 13 14  2  0
 14 15  1  0
 15 16  1  0
 16 17  1  0
 17 18  2  0
 18 19  1  0
 19 20  2  0
 19 21  1  0
 21 22  1  0
 22 23  2  0
 23 24  1  0
 24 25  2  0
 25 26  1  0
 26 27  2  0
 14 28  1  0
 28 29  2  0
  9  4  1  0
 29 11  1  0
 27 17  1  0
 26 21  1  0
  3 30  1  0
  3 31  1  0
  5 32  1  0
  6 33  1  0
  7 34  1  0
  8 35  1  0
  9 36  1  0
 12 37  1  0
 13 38  1  0
 16 39  1  0
 16 40  1  0
 18 41  1  0
 22 42  1  0
 23 43  1  0
 24 44  1  0
 25 45  1  0
 28 46  1  0
 29 47  1  0
M  CHG  1  10  -1
M  END
>  <UniqueID>  (61) 
56

>  <SMILES>  (61) 
O=C(Cc1ccccc1)[N-]c1ccc(OCc2cc(=O)n3ccccc3n2)cc1

>  <Energy>  (61) 
58.08149709435645

>  <Genealogy>  (61) 
O=C(Cc1ccccc1)[N-]c1ccc(OCc2cc(=O)n3ccccc3n2)cc1 (protonated)
O=C(Cc1ccccc1)[N-]c1ccc(OCc2cc(=O)n3ccccc3n2)cc1 (3D coordinates assigned)
O=C(Cc1ccccc1)[N-]c1ccc(OCc2cc(=O)n3ccccc3n2)cc1 (optimized conformer: 58.08149709435645 kcal/mol)

>  <smiles>  (61) 
O=C(Cc1ccccc1)Nc1ccc(OCc2cc(=O)n3ccccc3n2)cc1

>  <score_type>  (61) 
oracle

>  <origin>  (61) 
adg

>  <m_score__min__energy>  (61) 
-11.279999999999999

>  <m_primary>  (61) 
energy

$$$$
61:0
     RDKit          3D

 47 49  0  0  0  0  0  0  0  0999 V2000
   60.2640   22.9430   45.2420 C   0  0  0  0  0  0  0  0  0  0  0  0
   58.8080   22.9530   45.4320 N   0  0  0  0  0  0  0  0  0  0  0  0
   58.1040   21.6730   45.5780 C   0  0  0  0  0  0  0  0  0  0  0  0
   58.0790   24.2080   45.4770 C   0  0  0  0  0  0  0  0  0  0  0  0
   56.6740   24.2250   45.5920 C   0  0  0  0  0  0  0  0  0  0  0  0
   55.9740   25.4350   45.6350 C   0  0  0  0  0  0  0  0  0  0  0  0
   56.6530   26.6530   45.5480 C   0  0  0  0  0  0  0  0  0  0  0  0
   55.8940   27.8690   45.6170 N   0  0  0  0  0  0  0  0  0  0  0  0
   56.2640   29.1450   45.0790 C   0  0  0  0  0  0  0  0  0  0  0  0
   55.6470   29.6290   44.0930 O   0  0  0  0  0  0  0  0  0  0  0  0
   57.3440   29.8900   45.6520 N   0  0  0  0  0  0  0  0  0  0  0  0
   57.7060   31.2430   45.3300 C   0  0  0  0  0  0  0  0  0  0  0  0
   57.7020   31.7100   44.0080 C   0  0  0  0  0  0  0  0  0  0  0  0
   58.0780   33.0210   43.7340 C   0  0  0  0  0  0  0  0  0  0  0  0
   58.4720   33.8550   44.7790 C   0  0  0  0  0  0  0  0  0  0  0  0
   58.5110   33.3950   46.0670 N   0  0  0  0  0  0  0  0  0  0  0  0
   58.9160   34.3190   47.1400 C   0  0  0  0  0  0  0  0  0  0  0  0
   60.3780   34.1400   47.4560 C   0  0  0  0  0  0  0  0  0  0  0  0
   61.2940   33.8220   46.4390 C   0  0  0  0  0  0  0  0  0  0  0  0
   62.6440   33.6250   46.7440 C   0  0  0  0  0  0  0  0  0  0  0  0
   63.0890   33.7380   48.0650 C   0  0  0  0  0  0  0  0  0  0  0  0
   62.1820   34.0460   49.0830 C   0  0  0  0  0  0  0  0  0  0  0  0
   62.6130   34.1500   50.3650 F   0  0  0  0  0  0  0  0  0  0  0  0
   60.8310   34.2440   48.7820 C   0  0  0  0  0  0  0  0  0  0  0  0
   58.1350   32.1040   46.3530 C   0  0  0  0  0  0  0  0  0  0  0  0
   58.1650   31.6780   47.5410 O   0  0  0  0  0  0  0  0  0  0  0  0
   58.0540   26.6500   45.4590 C   0  0  0  0  0  0  0  0  0  0  0  0
   58.7570   25.4440   45.4170 C   0  0  0  0  0  0  0  0  0  0  0  0
   60.7618   22.9396   46.2229 H   0  0  0  0  0  0  0  0  0  0  0  0
   60.5543   22.0428   44.6804 H   0  0  0  0  0  0  0  0  0  0  0  0
   60.5667   23.8391   44.6804 H   0  0  0  0  0  0  0  0  0  0  0  0
   57.9779   21.4437   46.6464 H   0  0  0  0  0  0  0  0  0  0  0  0
   57.1164   21.7410   45.0985 H   0  0  0  0  0  0  0  0  0  0  0  0
   58.6903   20.8753   45.0985 H   0  0  0  0  0  0  0  0  0  0  0  0
   56.1218   23.2753   45.6486 H   0  0  0  0  0  0  0  0  0  0  0  0
   54.8789   25.4277   45.7383 H   0  0  0  0  0  0  0  0  0  0  0  0
   57.4019   31.0405   43.1884 H   0  0  0  0  0  0  0  0  0  0  0  0
   58.0645   33.3967   42.7002 H   0  0  0  0  0  0  0  0  0  0  0  0
   58.7552   34.8963   44.5655 H   0  0  0  0  0  0  0  0  0  0  0  0
   58.7388   35.3545   46.8140 H   0  0  0  0  0  0  0  0  0  0  0  0
   58.3246   34.1030   48.0420 H   0  0  0  0  0  0  0  0  0  0  0  0
   60.9476   33.7277   45.3992 H   0  0  0  0  0  0  0  0  0  0  0  0
   63.3576   33.3806   45.9434 H   0  0  0  0  0  0  0  0  0  0  0  0
   64.1520   33.5846   48.3027 H   0  0  0  0  0  0  0  0  0  0  0  0
   60.1198   34.4822   49.5867 H   0  0  0  0  0  0  0  0  0  0  0  0
   58.6014   27.6034   45.4221 H   0  0  0  0  0  0  0  0  0  0  0  0
   59.8539   25.4578   45.3361 H   0  0  0  0  0  0  0  0  0  0  0  0
  1  2  1  0
  2  3  1  0
  2  4  1  0
  4  5  2  0
  5  6  1  0
  6  7  2  0
  7  8  1  0
  8  9  1  0
  9 10  2  0
  9 11  1  0
 11 12  1  0
 12 13  2  0
 13 14  1  0
 14 15  2  0
 15 16  1  0
 16 17  1  0
 17 18  1  0
 18 19  2  0
 19 20  1  0
 20 21  2  0
 21 22  1  0
 22 23  1  0
 22 24  2  0
 16 25  1  0
 25 26  2  0
  7 27  1  0
 27 28  2  0
 28  4  1  0
 25 12  1  0
 24 18  1  0
  1 29  1  0
  1 30  1  0
  1 31  1  0
  3 32  1  0
  3 33  1  0
  3 34  1  0
  5 35  1  0
  6 36  1  0
 13 37  1  0
 14 38  1  0
 15 39  1  0
 17 40  1  0
 17 41  1  0
 19 42  1  0
 20 43  1  0
 21 44  1  0
 24 45  1  0
 27 46  1  0
 28 47  1  0
M  CHG  2   8  -1  11  -1
M  END
>  <UniqueID>  (62) 
57

>  <SMILES>  (62) 
CN(C)c1ccc([N-]C(=O)[N-]c2cccn(Cc3cccc(F)c3)c2=O)cc1

>  <Energy>  (62) 
59.782408241038155

>  <Genealogy>  (62) 
CN(C)c1ccc([N-]C(=O)[N-]c2cccn(Cc3cccc(F)c3)c2=O)cc1 (protonated)
CN(C)c1ccc([N-]C(=O)[N-]c2cccn(Cc3cccc(F)c3)c2=O)cc1 (3D coordinates assigned)
CN(C)c1ccc([N-]C(=O)[N-]c2cccn(Cc3cccc(F)c3)c2=O)cc1 (optimized conformer: 59.782408241038155 kcal/mol)

>  <smiles>  (62) 
CN(C)c1ccc(NC(=O)Nc2cccn(Cc3cccc(F)c3)c2=O)cc1

>  <score_type>  (62) 
oracle

>  <origin>  (62) 
adg

>  <m_score__min__energy>  (62) 
-12.02

>  <m_primary>  (62) 
energy

$$$$
62:0
     RDKit          3D

 44 47  0  0  1  0  0  0  0  0999 V2000
   58.7110   31.0360   50.8150 O   0  0  0  0  0  0  0  0  0  0  0  0
   58.7670   31.9460   51.6550 C   0  0  0  0  0  0  0  0  0  0  0  0
   57.7080   32.0170   52.6240 N   0  0  0  0  0  0  0  0  0  0  0  0
   56.6430   31.0570   52.5930 C   0  0  0  0  0  0  0  0  0  0  0  0
   56.8940   29.8530   53.2160 C   0  0  0  0  0  0  0  0  0  0  0  0
   55.9420   28.8310   53.2580 C   0  0  0  0  0  0  0  0  0  0  0  0
   54.7250   29.0740   52.6470 C   0  0  0  0  0  0  0  0  0  0  0  0
   54.4670   30.2910   52.0160 C   0  0  0  0  0  0  0  0  0  0  0  0
   52.8990   30.5610   51.2470 Cl  0  0  0  0  0  0  0  0  0  0  0  0
   55.4420   31.2830   51.9950 C   0  0  0  0  0  0  0  0  0  0  0  0
   59.8350   32.8660   51.6450 N   0  0  0  0  0  0  0  0  0  0  0  0
   60.9200   32.8830   50.7410 C   0  0  0  0  0  0  0  0  0  0  0  0
   62.1980   32.4920   50.9880 C   0  0  0  0  0  0  0  0  0  0  0  0
   63.2330   32.5230   50.0770 C   0  0  0  0  0  0  0  0  0  0  0  0
   62.9790   32.9800   48.8150 C   0  0  0  0  0  0  0  0  0  0  0  0
   64.0020   33.0020   47.9440 N   0  0  0  0  0  0  0  0  0  0  0  0
   63.7540   33.4500   46.7030 C   0  0  0  0  0  0  0  0  0  0  0  0
   62.5340   33.8650   46.3400 N   0  0  0  0  0  0  0  0  0  0  0  0
   61.5100   33.8390   47.2260 C   0  0  0  0  0  0  0  0  0  0  0  0
   60.3970   34.2270   46.8560 N   0  0  0  0  0  0  0  0  0  0  0  0
   59.3660   33.7030   46.1280 C   0  0  0  0  0  0  0  0  0  0  0  0
   58.3960   34.5530   45.5330 C   0  0  0  0  0  0  0  0  0  0  0  0
   57.3030   34.0490   44.8950 C   0  0  0  0  0  0  0  0  0  0  0  0
   57.1450   32.6730   44.8310 C   0  0  0  0  0  0  0  0  0  0  0  0
   58.0530   31.8000   45.3880 C   0  0  0  0  0  0  0  0  0  0  0  0
   57.8020   30.0610   45.2780 Cl  0  0  0  0  0  0  0  0  0  0  0  0
   59.1630   32.2990   46.0380 C   0  0  0  0  0  0  0  0  0  0  0  0
   61.7000   33.3910   48.5070 C   0  0  0  0  0  0  0  0  0  0  0  0
   60.6860   33.3510   49.4280 C   0  0  0  0  0  0  0  0  0  0  0  0
   57.7230   32.7840   53.3610 H   0  0  0  0  0  0  0  0  0  0  0  0
   57.8717   29.6923   53.6937 H   0  0  0  0  0  0  0  0  0  0  0  0
   56.1517   27.8730   53.7563 H   0  0  0  0  0  0  0  0  0  0  0  0
   53.9483   28.2951   52.6589 H   0  0  0  0  0  0  0  0  0  0  0  0
   55.2432   32.2440   51.4981 H   0  0  0  0  0  0  0  0  0  0  0  0
   59.7750   33.6050   52.4180 H   0  0  0  0  0  0  0  0  0  0  0  0
   62.4257   32.1201   51.9979 H   0  0  0  0  0  0  0  0  0  0  0  0
   64.2413   32.1870   50.3605 H   0  0  0  0  0  0  0  0  0  0  0  0
   64.9380   32.6870   48.2130 H   0  0  0  0  0  0  0  0  0  0  0  0
   64.5717   33.4767   45.9677 H   0  0  0  0  0  0  0  0  0  0  0  0
   58.5305   35.6433   45.5887 H   0  0  0  0  0  0  0  0  0  0  0  0
   56.5603   34.7205   44.4395 H   0  0  0  0  0  0  0  0  0  0  0  0
   56.2628   32.2639   44.3169 H   0  0  0  0  0  0  0  0  0  0  0  0
   59.8923   31.6090   46.4875 H   0  0  0  0  0  0  0  0  0  0  0  0
   59.6783   33.6870   49.1421 H   0  0  0  0  0  0  0  0  0  0  0  0
  1  2  2  0
  2  3  1  0
  3  4  1  0
  4  5  2  0
  5  6  1  0
  6  7  2  0
  7  8  1  0
  8  9  1  0
  8 10  2  0
  2 11  1  0
 11 12  1  0
 12 13  2  0
 13 14  1  0
 14 15  2  0
 15 16  1  0
 16 17  1  0
 17 18  2  0
 18 19  1  0
 19 20  2  0
 20 21  1  0
 21 22  2  0
 22 23  1  0
 23 24  2  0
 24 25  1  0
 25 26  1  0
 25 27  2  0
 19 28  1  0
 28 29  2  0
 10  4  1  0
 29 12  1  0
 28 15  1  0
 27 21  1  0
  3 30  1  0
  5 31  1  0
  6 32  1  0
  7 33  1  0
 10 34  1  0
 11 35  1  0
 13 36  1  0
 14 37  1  0
 16 38  1  0
 17 39  1  0
 22 40  1  0
 23 41  1  0
 24 42  1  0
 27 43  1  0
 29 44  1  0
M  END
>  <smiles>  (63) 
O=C(Nc1cccc(Cl)c1)Nc1ccc2[nH]cnc(=Nc3cccc(Cl)c3)c2c1

>  <score_type>  (63) 
oracle

>  <origin>  (63) 
adg

>  <m_score__min__energy>  (63) 
-9.4299999999999997

>  <m_primary>  (63) 
energy

$$$$
63:0
     RDKit          3D

 30 32  0  0  0  0  0  0  0  0999 V2000
   60.8640   30.3520   46.8040 O   0  0  0  0  0  0  0  0  0  0  0  0
   60.5940   31.5830   46.8460 C   0  0  0  0  0  0  0  0  0  0  0  0
   61.4130   32.4860   47.6960 C   0  0  0  0  0  0  0  0  0  0  0  0
   60.8170   33.2840   48.6930 C   0  0  0  0  0  0  0  0  0  0  0  0
   61.6010   34.1270   49.4870 C   0  0  0  0  0  0  0  0  0  0  0  0
   62.9820   34.1900   49.2930 C   0  0  0  0  0  0  0  0  0  0  0  0
   63.5840   33.4100   48.3020 C   0  0  0  0  0  0  0  0  0  0  0  0
   62.8050   32.5650   47.5050 C   0  0  0  0  0  0  0  0  0  0  0  0
   59.4860   32.0890   46.0030 C   0  0  0  0  0  0  0  0  0  0  0  0
   59.5460   33.4220   45.5690 C   0  0  0  0  0  0  0  0  0  0  0  0
   58.5140   33.9700   44.8090 C   0  0  0  0  0  0  0  0  0  0  0  0
   57.4070   33.1970   44.4630 C   0  0  0  0  0  0  0  0  0  0  0  0
   57.3310   31.8540   44.8610 C   0  0  0  0  0  0  0  0  0  0  0  0
   56.2230   31.0750   44.4930 C   0  0  0  0  0  0  0  0  0  0  0  0
   56.1520   29.7310   44.8640 C   0  0  0  0  0  0  0  0  0  0  0  0
   55.0510   28.9660   44.4960 O   0  0  0  0  0  0  0  0  0  0  0  0
   57.1880   29.1540   45.6000 C   0  0  0  0  0  0  0  0  0  0  0  0
   58.2960   29.9150   45.9760 C   0  0  0  0  0  0  0  0  0  0  0  0
   58.3800   31.2810   45.6290 C   0  0  0  0  0  0  0  0  0  0  0  0
   59.7287   33.2436   48.8476 H   0  0  0  0  0  0  0  0  0  0  0  0
   61.1281   34.7422   50.2667 H   0  0  0  0  0  0  0  0  0  0  0  0
   63.5960   34.8533   49.9199 H   0  0  0  0  0  0  0  0  0  0  0  0
   64.6721   33.4607   48.1486 H   0  0  0  0  0  0  0  0  0  0  0  0
   63.2840   31.9576   46.7230 H   0  0  0  0  0  0  0  0  0  0  0  0
   60.4166   34.0411   45.8313 H   0  0  0  0  0  0  0  0  0  0  0  0
   58.5736   35.0181   44.4805 H   0  0  0  0  0  0  0  0  0  0  0  0
   56.5900   33.6416   43.8758 H   0  0  0  0  0  0  0  0  0  0  0  0
   55.4066   31.5256   43.9095 H   0  0  0  0  0  0  0  0  0  0  0  0
   57.1310   28.0932   45.8854 H   0  0  0  0  0  0  0  0  0  0  0  0
   59.1107   29.4465   46.5476 H   0  0  0  0  0  0  0  0  0  0  0  0
  1  2  2  0
  2  3  1  0
  3  4  2  0
  4  5  1  0
  5  6  2  0
  6  7  1  0
  7  8  2  0
  2  9  1  0
  9 10  2  0
 10 11  1  0
 11 12  2  0
 12 13  1  0
 13 14  2  0
 14 15  1  0
 15 16  1  0
 15 17  2  0
 17 18  1  0
 18 19  2  0
  8  3  1  0
 19  9  1  0
 19 13  1  0
  4 20  1  0
  5 21  1  0
  6 22  1  0
  7 23  1  0
  8 24  1  0
 10 25  1  0
 11 26  1  0
 12 27  1  0
 14 28  1  0
 17 29  1  0
 18 30  1  0
M  CHG  1  16  -1
M  END
>  <UniqueID>  (64) 
58

>  <SMILES>  (64) 
O=C(c1ccccc1)c1cccc2cc([O-])ccc12

>  <Energy>  (64) 
45.70611545672316

>  <Genealogy>  (64) 
O=C(c1ccccc1)c1cccc2cc([O-])ccc12 (protonated)
O=C(c1ccccc1)c1cccc2cc([O-])ccc12 (3D coordinates assigned)
O=C(c1ccccc1)c1cccc2cc([O-])ccc12 (optimized conformer: 45.70611545672316 kcal/mol)

>  <smiles>  (64) 
O=C(c1ccccc1)c1cccc2cc(O)ccc12

>  <score_type>  (64) 
oracle

>  <origin>  (64) 
adg

>  <m_score__min__energy>  (64) 
-10.199999999999999

>  <m_primary>  (64) 
energy

$$$$
64:0
     RDKit          3D

 30 32  0  0  0  0  0  0  0  0999 V2000
   54.7280   28.9640   45.6140 H   0  0  0  0  0  0  0  0  0  0  0  0
   55.1580   29.3890   44.8010 O   0  0  0  0  0  0  0  0  0  0  0  0
   56.3210   30.1280   44.8870 N   0  0  0  0  0  0  0  0  0  0  0  0
   57.4250   29.6620   45.3860 C   0  0  0  0  0  0  0  0  0  0  0  0
   58.4890   30.4880   45.9050 C   0  0  0  0  0  0  0  0  0  0  0  0
   58.5690   31.8780   45.9800 C   0  0  0  0  0  0  0  0  0  0  0  0
   57.7458   32.5097   45.6149 H   0  0  0  0  0  0  0  0  0  0  0  0
   59.7240   32.4520   46.5320 C   0  0  0  0  0  0  0  0  0  0  0  0
   59.8086   33.5465   46.6023 H   0  0  0  0  0  0  0  0  0  0  0  0
   60.7830   31.6340   47.0000 C   0  0  0  0  0  0  0  0  0  0  0  0
   62.0050   32.2410   47.5850 C   0  0  0  0  0  0  0  0  0  0  0  0
   62.6120   33.3520   46.9730 C   0  0  0  0  0  0  0  0  0  0  0  0
   62.1806   33.7839   46.0579 H   0  0  0  0  0  0  0  0  0  0  0  0
   63.7640   33.9030   47.5330 C   0  0  0  0  0  0  0  0  0  0  0  0
   64.2449   34.7718   47.0599 H   0  0  0  0  0  0  0  0  0  0  0  0
   64.3050   33.3520   48.6920 C   0  0  0  0  0  0  0  0  0  0  0  0
   65.2136   33.7815   49.1393 H   0  0  0  0  0  0  0  0  0  0  0  0
   63.6830   32.2490   49.2810 C   0  0  0  0  0  0  0  0  0  0  0  0
   64.4090   31.4880   50.8750 Br  0  0  0  0  0  0  0  0  0  0  0  0
   62.5580   31.7200   48.7230 N   0  0  0  0  0  0  0  0  0  0  0  0
   62.1040   30.9090   49.2000 H   0  0  0  0  0  0  0  0  0  0  0  0
   60.6630   30.2300   46.9060 C   0  0  0  0  0  0  0  0  0  0  0  0
   61.4723   29.5764   47.2635 H   0  0  0  0  0  0  0  0  0  0  0  0
   59.5030   29.6820   46.3530 C   0  0  0  0  0  0  0  0  0  0  0  0
   59.1960   28.2310   46.1650 C   0  0  0  0  0  0  0  0  0  0  0  0
   59.1829   27.7075   47.1324 H   0  0  0  0  0  0  0  0  0  0  0  0
   59.9494   27.7199   45.5476 H   0  0  0  0  0  0  0  0  0  0  0  0
   57.7920   28.2150   45.5150 C   0  0  0  0  0  0  0  0  0  0  0  0
   57.0718   27.6864   46.1568 H   0  0  0  0  0  0  0  0  0  0  0  0
   57.7838   27.6923   44.5472 H   0  0  0  0  0  0  0  0  0  0  0  0
  1  2  1  0
  2  3  1  0
  3  4  2  0
  4  5  1  0
  5  6  2  0
  6  7  1  0
  6  8  1  0
  8  9  1  0
  8 10  2  0
 10 11  1  0
 11 12  2  0
 12 13  1  0
 12 14  1  0
 14 15  1  0
 14 16  2  0
 16 17  1  0
 16 18  1  0
 18 19  1  0
 18 20  2  0
 20 21  1  0
 10 22  1  0
 22 23  1  0
 22 24  2  0
 24 25  1  0
 25 26  1  0
 25 27  1  0
 25 28  1  0
 28 29  1  0
 28 30  1  0
 28  4  1  0
 24  5  1  0
 20 11  1  0
M  CHG  1  20   1
M  END
>  <UniqueID>  (65) 
59

>  <SMILES>  (65) 
O/N=C1\CCc2cc(-c3cccc(Br)[nH+]3)ccc21

>  <Energy>  (65) 
50.53393703986169

>  <Genealogy>  (65) 
ON=C1CCc2cc(-c3cccc(Br)[nH+]3)ccc21 (protonated)
O/N=C1\CCc2cc(-c3cccc(Br)[nH+]3)ccc21 (cis-trans isomerization)
O/N=C1\CCc2cc(-c3cccc(Br)[nH+]3)ccc21 (3D coordinates assigned)
O/N=C1\CCc2cc(-c3cccc(Br)[nH+]3)ccc21 (nonaromatic ring conformer: 50.53393703986169 kcal/mol)

>  <smiles>  (65) 
ON=C1CCc2cc(-c3cccc(Br)n3)ccc21

>  <score_type>  (65) 
oracle

>  <origin>  (65) 
adg

>  <m_score__min__energy>  (65) 
-7.2800000000000002

>  <m_primary>  (65) 
energy

$$$$
65:0
     RDKit          3D

 35 36  0  0  0  0  0  0  0  0999 V2000
   58.2572   33.0740   43.2913 H   0  0  0  0  0  0  0  0  0  0  0  0
   58.0780   33.3680   44.3360 C   0  0  0  0  0  0  0  0  0  0  0  0
   57.0440   32.6670   45.1140 C   0  0  0  0  0  0  0  0  0  0  0  0
   56.7670   33.0680   46.2760 O   0  0  0  0  0  0  0  0  0  0  0  0
   56.3410   31.5970   44.5460 O   0  0  0  0  0  0  0  0  0  0  0  0
   56.7610   30.9180   43.3650 C   0  0  0  0  0  0  0  0  0  0  0  0
   57.7123   31.3514   43.0227 H   0  0  0  0  0  0  0  0  0  0  0  0
   55.9787   31.0381   42.6011 H   0  0  0  0  0  0  0  0  0  0  0  0
   56.9560   29.4430   43.6150 C   0  0  0  0  0  0  0  0  0  0  0  0
   56.9960   28.6610   42.6290 O   0  0  0  0  0  0  0  0  0  0  0  0
   57.2050   28.9170   44.9290 N   0  0  0  0  0  0  0  0  0  0  0  0
   58.1400   29.2740   45.7690 C   0  0  0  0  0  0  0  0  0  0  0  0
   59.3600   28.5750   45.8810 C   0  0  0  0  0  0  0  0  0  0  0  0
   59.5698   27.7197   45.2218 H   0  0  0  0  0  0  0  0  0  0  0  0
   60.2990   28.9740   46.8320 C   0  0  0  0  0  0  0  0  0  0  0  0
   61.2488   28.4280   46.9311 H   0  0  0  0  0  0  0  0  0  0  0  0
   60.0320   30.0660   47.6570 C   0  0  0  0  0  0  0  0  0  0  0  0
   61.1880   30.5590   48.8800 Cl  0  0  0  0  0  0  0  0  0  0  0  0
   58.8320   30.7620   47.4980 C   0  0  0  0  0  0  0  0  0  0  0  0
   58.6161   31.6341   48.1327 H   0  0  0  0  0  0  0  0  0  0  0  0
   57.9280   30.3650   46.5600 N   0  0  0  0  0  0  0  0  0  0  0  0
   57.0350   30.9010   46.4740 H   0  0  0  0  0  0  0  0  0  0  0  0
   58.8060   34.3570   44.8730 C   0  0  0  0  0  0  0  0  0  0  0  0
   58.8133   35.3268   44.3540 H   0  0  0  0  0  0  0  0  0  0  0  0
   59.6030   34.2350   46.1190 C   0  0  0  0  0  0  0  0  0  0  0  0
   59.0870   34.5550   47.3940 C   0  0  0  0  0  0  0  0  0  0  0  0
   58.0431   34.8871   47.4941 H   0  0  0  0  0  0  0  0  0  0  0  0
   59.8960   34.4520   48.5300 C   0  0  0  0  0  0  0  0  0  0  0  0
   59.4833   34.6934   49.5206 H   0  0  0  0  0  0  0  0  0  0  0  0
   61.2250   34.0440   48.4110 C   0  0  0  0  0  0  0  0  0  0  0  0
   61.8576   33.9627   49.3072 H   0  0  0  0  0  0  0  0  0  0  0  0
   61.7520   33.7390   47.1550 C   0  0  0  0  0  0  0  0  0  0  0  0
   63.0470   33.3530   47.0390 F   0  0  0  0  0  0  0  0  0  0  0  0
   60.9480   33.8370   46.0160 C   0  0  0  0  0  0  0  0  0  0  0  0
   61.3716   33.6004   45.0288 H   0  0  0  0  0  0  0  0  0  0  0  0
  1  2  1  0
  2  3  1  0
  3  4  2  0
  3  5  1  0
  5  6  1  0
  6  7  1  0
  6  8  1  0
  6  9  1  0
  9 10  2  0
  9 11  1  0
 11 12  2  3
 12 13  1  0
 13 14  1  0
 13 15  2  0
 15 16  1  0
 15 17  1  0
 17 18  1  0
 17 19  2  0
 19 20  1  0
 19 21  1  0
 21 22  1  0
  2 23  2  0
 23 24  1  0
 23 25  1  0
 25 26  2  0
 26 27  1  0
 26 28  1  0
 28 29  1  0
 28 30  2  0
 30 31  1  0
 30 32  1  0
 32 33  1  0
 32 34  2  0
 34 35  1  0
 21 12  1  0
 34 25  1  0
M  END
>  <UniqueID>  (66) 
60

>  <SMILES>  (66) 
O=C(COC(=O)/C=C/c1cccc(F)c1)N=c1ccc(Cl)c[nH]1

>  <Energy>  (66) 
42.039965168615524

>  <Genealogy>  (66) 
O=C(COC(=O)/C=C/c1cccc(F)c1)N=c1ccc(Cl)c[nH]1 (cis-trans isomerization)
O=C(COC(=O)/C=C/c1cccc(F)c1)N=c1ccc(Cl)c[nH]1 (3D coordinates assigned)
O=C(COC(=O)/C=C/c1cccc(F)c1)N=c1ccc(Cl)c[nH]1 (optimized conformer: 42.039965168615524 kcal/mol)

>  <smiles>  (66) 
O=C(COC(=O)C=Cc1cccc(F)c1)N=c1ccc(Cl)c[nH]1

>  <score_type>  (66) 
oracle

>  <origin>  (66) 
adg

>  <m_score__min__energy>  (66) 
-7.6600000000000001

>  <m_primary>  (66) 
energy

$$$$
66:0
     RDKit          3D

 30 31  0  0  0  0  0  0  0  0999 V2000
   57.4363   31.0951   43.0565 H   0  0  0  0  0  0  0  0  0  0  0  0
   56.7480   30.8080   43.8650 C   0  0  0  0  0  0  0  0  0  0  0  0
   56.8440   31.4260   45.0070 N   0  0  0  0  0  0  0  0  0  0  0  0
   57.7920   32.4570   45.3250 C   0  0  0  0  0  0  0  0  0  0  0  0
   57.7230   33.7000   44.6760 C   0  0  0  0  0  0  0  0  0  0  0  0
   56.9425   33.8800   43.9220 H   0  0  0  0  0  0  0  0  0  0  0  0
   58.6380   34.7090   44.9810 C   0  0  0  0  0  0  0  0  0  0  0  0
   58.5852   35.6755   44.4584 H   0  0  0  0  0  0  0  0  0  0  0  0
   59.6200   34.4920   45.9490 C   0  0  0  0  0  0  0  0  0  0  0  0
   60.3437   35.2862   46.1848 H   0  0  0  0  0  0  0  0  0  0  0  0
   59.6850   33.2690   46.6180 C   0  0  0  0  0  0  0  0  0  0  0  0
   60.4556   33.1079   47.3863 H   0  0  0  0  0  0  0  0  0  0  0  0
   58.7730   32.2400   46.3180 C   0  0  0  0  0  0  0  0  0  0  0  0
   58.8480   30.9540   47.0530 C   0  0  0  0  0  0  0  0  0  0  0  0
   58.8950   30.9770   48.3130 O   0  0  0  0  0  0  0  0  0  0  0  0
   58.8790   29.6480   46.3510 C   0  0  0  0  0  0  0  0  0  0  0  0
   59.5980   29.4860   45.1510 C   0  0  0  0  0  0  0  0  0  0  0  0
   60.1565   30.3351   44.7301 H   0  0  0  0  0  0  0  0  0  0  0  0
   59.6070   28.2540   44.4910 C   0  0  0  0  0  0  0  0  0  0  0  0
   60.1751   28.1358   43.5565 H   0  0  0  0  0  0  0  0  0  0  0  0
   58.8960   27.1730   45.0160 C   0  0  0  0  0  0  0  0  0  0  0  0
   58.9090   26.2025   44.4983 H   0  0  0  0  0  0  0  0  0  0  0  0
   58.1680   27.3240   46.1990 C   0  0  0  0  0  0  0  0  0  0  0  0
   57.6043   26.4732   46.6094 H   0  0  0  0  0  0  0  0  0  0  0  0
   58.1550   28.5550   46.8620 C   0  0  0  0  0  0  0  0  0  0  0  0
   57.5748   28.6698   47.7895 H   0  0  0  0  0  0  0  0  0  0  0  0
   55.7460   29.7240   43.5960 C   0  0  0  0  0  0  0  0  0  0  0  0
   54.9781   30.1018   42.9049 H   0  0  0  0  0  0  0  0  0  0  0  0
   56.2608   28.8611   43.1483 H   0  0  0  0  0  0  0  0  0  0  0  0
   55.1440   29.3290   44.7770 F   0  0  0  0  0  0  0  0  0  0  0  0
  1  2  1  0
  2  3  2  0
  3  4  1  0
  4  5  2  0
  5  6  1  0
  5  7  1  0
  7  8  1  0
  7  9  2  0
  9 10  1  0
  9 11  1  0
 11 12  1  0
 11 13  2  0
 13 14  1  0
 14 15  2  0
 14 16  1  0
 16 17  2  0
 17 18  1  0
 17 19  1  0
 19 20  1  0
 19 21  2  0
 21 22  1  0
 21 23  1  0
 23 24  1  0
 23 25  2  0
 25 26  1  0
  2 27  1  0
 27 28  1  0
 27 29  1  0
 27 30  1  0
 13  4  1  0
 25 16  1  0
M  END
>  <UniqueID>  (67) 
61

>  <SMILES>  (67) 
O=C(c1ccccc1)c1ccccc1/N=C\CF

>  <Energy>  (67) 
43.85497512550752

>  <Genealogy>  (67) 
O=C(c1ccccc1)c1ccccc1/N=C\CF (cis-trans isomerization)
O=C(c1ccccc1)c1ccccc1/N=C\CF (3D coordinates assigned)
O=C(c1ccccc1)c1ccccc1/N=C\CF (optimized conformer: 43.85497512550752 kcal/mol)

>  <smiles>  (67) 
O=C(c1ccccc1)c1ccccc1N=CCF

>  <score_type>  (67) 
oracle

>  <origin>  (67) 
adg

>  <m_score__min__energy>  (67) 
-6.54

>  <m_primary>  (67) 
energy

$$$$
67:0
     RDKit          3D

 28 29  0  0  0  0  0  0  0  0999 V2000
   56.9520   31.0220   42.9760 C   0  0  0  0  0  0  0  0  0  0  0  0
   57.6620   30.9000   44.2540 N   0  0  0  0  0  0  0  0  0  0  0  0
   57.9690   32.0710   45.0460 C   0  0  0  0  0  0  0  0  0  0  0  0
   58.0940   33.3330   44.4300 C   0  0  0  0  0  0  0  0  0  0  0  0
   58.3910   34.4680   45.1880 C   0  0  0  0  0  0  0  0  0  0  0  0
   58.5640   34.3630   46.5690 C   0  0  0  0  0  0  0  0  0  0  0  0
   58.4420   33.1210   47.1960 C   0  0  0  0  0  0  0  0  0  0  0  0
   58.1450   31.9800   46.4420 C   0  0  0  0  0  0  0  0  0  0  0  0
   57.8710   29.5860   44.8010 C   0  0  0  0  0  0  0  0  0  0  0  0
   59.1720   29.0680   44.8960 C   0  0  0  0  0  0  0  0  0  0  0  0
   59.3870   27.7910   45.4220 C   0  0  0  0  0  0  0  0  0  0  0  0
   58.3040   27.0220   45.8540 C   0  0  0  0  0  0  0  0  0  0  0  0
   57.0040   27.5250   45.7570 C   0  0  0  0  0  0  0  0  0  0  0  0
   56.7800   28.8040   45.2260 C   0  0  0  0  0  0  0  0  0  0  0  0
   55.4810   29.2950   45.1040 O   0  0  0  0  0  0  0  0  0  0  0  0
   55.8842   31.2055   43.1659 H   0  0  0  0  0  0  0  0  0  0  0  0
   57.3718   31.8612   42.4020 H   0  0  0  0  0  0  0  0  0  0  0  0
   57.0676   30.0908   42.4020 H   0  0  0  0  0  0  0  0  0  0  0  0
   57.9564   33.4246   43.3425 H   0  0  0  0  0  0  0  0  0  0  0  0
   58.4888   35.4467   44.6955 H   0  0  0  0  0  0  0  0  0  0  0  0
   58.7965   35.2587   47.1637 H   0  0  0  0  0  0  0  0  0  0  0  0
   58.5796   33.0395   48.2843 H   0  0  0  0  0  0  0  0  0  0  0  0
   58.0482   31.0051   46.9421 H   0  0  0  0  0  0  0  0  0  0  0  0
   60.0269   29.6702   44.5547 H   0  0  0  0  0  0  0  0  0  0  0  0
   60.4093   27.3916   45.4957 H   0  0  0  0  0  0  0  0  0  0  0  0
   58.4748   26.0187   46.2713 H   0  0  0  0  0  0  0  0  0  0  0  0
   56.1536   26.9162   46.0980 H   0  0  0  0  0  0  0  0  0  0  0  0
   55.1620   30.0900   45.6430 H   0  0  0  0  0  0  0  0  0  0  0  0
  1  2  1  0
  2  3  1  0
  3  4  2  0
  4  5  1  0
  5  6  2  0
  6  7  1  0
  7  8  2  0
  2  9  1  0
  9 10  2  0
 10 11  1  0
 11 12  2  0
 12 13  1  0
 13 14  2  0
 14 15  1  0
  8  3  1  0
 14  9  1  0
  1 16  1  0
  1 17  1  0
  1 18  1  0
  4 19  1  0
  5 20  1  0
  6 21  1  0
  7 22  1  0
  8 23  1  0
 10 24  1  0
 11 25  1  0
 12 26  1  0
 13 27  1  0
 15 28  1  0
M  END
>  <UniqueID>  (68) 
62

>  <SMILES>  (68) 
CN(c1ccccc1)c1ccccc1O

>  <Energy>  (68) 
37.36323890304708

>  <Genealogy>  (68) 
CN(c1ccccc1)c1ccccc1O (3D coordinates assigned)
CN(c1ccccc1)c1ccccc1O (optimized conformer: 37.36323890304708 kcal/mol)

>  <smiles>  (68) 
CN(c1ccccc1)c1ccccc1O

>  <score_type>  (68) 
oracle

>  <origin>  (68) 
adg

>  <m_score__min__energy>  (68) 
-7.0300000000000002

>  <m_primary>  (68) 
energy

$$$$
68:0
     RDKit          3D

 29 31  0  0  0  0  0  0  0  0999 V2000
   63.7630   32.0620   47.1190 F   0  0  0  0  0  0  0  0  0  0  0  0
   63.6850   32.6580   48.3370 C   0  0  0  0  0  0  0  0  0  0  0  0
   64.6290   32.3380   49.3170 C   0  0  0  0  0  0  0  0  0  0  0  0
   64.5750   32.9530   50.5710 C   0  0  0  0  0  0  0  0  0  0  0  0
   63.5780   33.8910   50.8480 C   0  0  0  0  0  0  0  0  0  0  0  0
   62.6310   34.2150   49.8720 C   0  0  0  0  0  0  0  0  0  0  0  0
   62.6690   33.5920   48.6130 C   0  0  0  0  0  0  0  0  0  0  0  0
   61.6670   33.9700   47.5580 C   0  0  0  0  0  0  0  0  0  0  0  0
   60.1100   34.4820   48.3540 S   0  0  0  0  0  0  0  0  0  0  0  0
   59.0910   33.8340   47.0350 C   0  0  0  0  0  0  0  0  0  0  0  0
   58.2080   34.5780   46.3360 N   0  0  0  0  0  0  0  0  0  0  0  0
   57.5600   33.8830   45.4030 N   0  0  0  0  0  0  0  0  0  0  0  0
   57.9230   32.5800   45.3540 C   0  0  0  0  0  0  0  0  0  0  0  0
   57.3560   31.6010   44.4110 C   0  0  0  0  0  0  0  0  0  0  0  0
   57.5100   31.7520   43.0250 C   0  0  0  0  0  0  0  0  0  0  0  0
   56.9720   30.8260   42.1870 N   0  0  0  0  0  0  0  0  0  0  0  0
   56.2860   29.7560   42.6660 C   0  0  0  0  0  0  0  0  0  0  0  0
   56.1300   29.6030   44.0450 C   0  0  0  0  0  0  0  0  0  0  0  0
   56.6670   30.5260   44.8840 N   0  0  0  0  0  0  0  0  0  0  0  0
   59.1030   32.2350   46.5110 S   0  0  0  0  0  0  0  0  0  0  0  0
   65.4161   31.6006   49.1008 H   0  0  0  0  0  0  0  0  0  0  0  0
   65.3185   32.6980   51.3405 H   0  0  0  0  0  0  0  0  0  0  0  0
   63.5379   34.3752   51.8349 H   0  0  0  0  0  0  0  0  0  0  0  0
   61.8527   34.9609   50.0905 H   0  0  0  0  0  0  0  0  0  0  0  0
   62.0629   34.8025   46.9579 H   0  0  0  0  0  0  0  0  0  0  0  0
   61.4778   33.1049   46.9055 H   0  0  0  0  0  0  0  0  0  0  0  0
   58.0617   32.6128   42.6191 H   0  0  0  0  0  0  0  0  0  0  0  0
   55.8572   29.0166   41.9736 H   0  0  0  0  0  0  0  0  0  0  0  0
   55.5768   28.7421   44.4485 H   0  0  0  0  0  0  0  0  0  0  0  0
  1  2  1  0
  2  3  2  0
  3  4  1  0
  4  5  2  0
  5  6  1  0
  6  7  2  0
  7  8  1  0
  8  9  1  0
  9 10  1  0
 10 11  2  0
 11 12  1  0
 12 13  2  0
 13 14  1  0
 14 15  2  0
 15 16  1  0
 16 17  2  0
 17 18  1  0
 18 19  2  0
 13 20  1  0
  7  2  1  0
 20 10  1  0
 19 14  1  0
  3 21  1  0
  4 22  1  0
  5 23  1  0
  6 24  1  0
  8 25  1  0
  8 26  1  0
 15 27  1  0
 17 28  1  0
 18 29  1  0
M  END
>  <UniqueID>  (69) 
63

>  <SMILES>  (69) 
Fc1ccccc1CSc1nnc(-c2cnccn2)s1

>  <Energy>  (69) 
63.720308898345024

>  <Genealogy>  (69) 
Fc1ccccc1CSc1nnc(-c2cnccn2)s1 (3D coordinates assigned)
Fc1ccccc1CSc1nnc(-c2cnccn2)s1 (optimized conformer: 63.720308898345024 kcal/mol)

>  <smiles>  (69) 
Fc1ccccc1CSc1nnc(-c2cnccn2)s1

>  <score_type>  (69) 
oracle

>  <origin>  (69) 
adg

>  <m_score__min__energy>  (69) 
-7.8200000000000003

>  <m_primary>  (69) 
energy

$$$$
69:0
     RDKit          3D

 43 46  0  0  0  0  0  0  0  0999 V2000
   60.7170   28.2310   45.5310 C   0  0  0  0  0  0  0  0  0  0  0  0
   59.4230   27.4670   45.5540 C   0  0  0  0  0  0  0  0  0  0  0  0
   59.4780   26.1100   45.6170 N   0  0  0  0  0  0  0  0  0  0  0  0
   58.3540   25.3530   45.6350 C   0  0  0  0  0  0  0  0  0  0  0  0
   58.4520   23.9580   45.6980 C   0  0  0  0  0  0  0  0  0  0  0  0
   57.2930   23.1760   45.7140 C   0  0  0  0  0  0  0  0  0  0  0  0
   56.0360   23.7840   45.6670 C   0  0  0  0  0  0  0  0  0  0  0  0
   55.9300   25.1780   45.6030 C   0  0  0  0  0  0  0  0  0  0  0  0
   57.0920   25.9720   45.5870 C   0  0  0  0  0  0  0  0  0  0  0  0
   57.0430   27.3750   45.5270 C   0  0  0  0  0  0  0  0  0  0  0  0
   55.9250   27.9650   45.4900 O   0  0  0  0  0  0  0  0  0  0  0  0
   58.2050   28.1050   45.5150 N   0  0  0  0  0  0  0  0  0  0  0  0
   58.1360   29.5420   45.4590 C   0  0  0  0  0  0  0  0  0  0  0  0
   58.4450   30.3060   46.5910 C   0  0  0  0  0  0  0  0  0  0  0  0
   58.3810   31.7020   46.5380 C   0  0  0  0  0  0  0  0  0  0  0  0
   58.0080   32.3550   45.3480 C   0  0  0  0  0  0  0  0  0  0  0  0
   57.9400   33.8340   45.2890 C   0  0  0  0  0  0  0  0  0  0  0  0
   56.8810   34.3940   44.8960 O   0  0  0  0  0  0  0  0  0  0  0  0
   59.0480   34.6190   45.7630 N   0  0  0  0  0  0  0  0  0  0  0  0
   59.9060   34.3500   46.7090 C   0  0  0  0  0  0  0  0  0  0  0  0
   59.6350   34.5410   48.0800 C   0  0  0  0  0  0  0  0  0  0  0  0
   60.6160   34.2330   49.0270 C   0  0  0  0  0  0  0  0  0  0  0  0
   61.8290   33.7630   48.6310 N   0  0  0  0  0  0  0  0  0  0  0  0
   62.1250   33.5880   47.3160 C   0  0  0  0  0  0  0  0  0  0  0  0
   61.1740   33.8840   46.3370 C   0  0  0  0  0  0  0  0  0  0  0  0
   57.7050   31.5790   44.2130 C   0  0  0  0  0  0  0  0  0  0  0  0
   57.7710   30.1830   44.2690 C   0  0  0  0  0  0  0  0  0  0  0  0
   61.0464   28.4255   46.5624 H   0  0  0  0  0  0  0  0  0  0  0  0
   61.4825   27.6400   45.0069 H   0  0  0  0  0  0  0  0  0  0  0  0
   60.5692   29.1868   45.0069 H   0  0  0  0  0  0  0  0  0  0  0  0
   59.4406   23.4771   45.7349 H   0  0  0  0  0  0  0  0  0  0  0  0
   57.3710   22.0799   45.7637 H   0  0  0  0  0  0  0  0  0  0  0  0
   55.1268   23.1651   45.6803 H   0  0  0  0  0  0  0  0  0  0  0  0
   54.9386   25.6531   45.5652 H   0  0  0  0  0  0  0  0  0  0  0  0
   58.7392   29.8062   47.5257 H   0  0  0  0  0  0  0  0  0  0  0  0
   58.6239   32.2941   47.4327 H   0  0  0  0  0  0  0  0  0  0  0  0
   58.6577   34.9299   48.4020 H   0  0  0  0  0  0  0  0  0  0  0  0
   60.4057   34.3715   50.0978 H   0  0  0  0  0  0  0  0  0  0  0  0
   62.5500   33.5400   49.3520 H   0  0  0  0  0  0  0  0  0  0  0  0
   63.1162   33.2123   47.0221 H   0  0  0  0  0  0  0  0  0  0  0  0
   61.4205   33.7512   45.2732 H   0  0  0  0  0  0  0  0  0  0  0  0
   57.4141   32.0744   43.2749 H   0  0  0  0  0  0  0  0  0  0  0  0
   57.5354   29.5868   43.3751 H   0  0  0  0  0  0  0  0  0  0  0  0
  1  2  1  0
  2  3  2  0
  3  4  1  0
  4  5  2  0
  5  6  1  0
  6  7  2  0
  7  8  1  0
  8  9  2  0
  9 10  1  0
 10 11  2  0
 10 12  1  0
 12 13  1  0
 13 14  2  0
 14 15  1  0
 15 16  2  0
 16 17  1  0
 17 18  2  0
 17 19  1  0
 19 20  2  3
 20 21  1  0
 21 22  2  0
 22 23  1  0
 23 24  1  0
 24 25  2  0
 16 26  1  0
 26 27  2  0
 12  2  1  0
 27 13  1  0
  9  4  1  0
 25 20  1  0
  1 28  1  0
  1 29  1  0
  1 30  1  0
  5 31  1  0
  6 32  1  0
  7 33  1  0
  8 34  1  0
 14 35  1  0
 15 36  1  0
 21 37  1  0
 22 38  1  0
 23 39  1  0
 24 40  1  0
 25 41  1  0
 26 42  1  0
 27 43  1  0
M  END
>  <UniqueID>  (70) 
64

>  <SMILES>  (70) 
Cc1nc2ccccc2c(=O)n1-c1ccc(C(=O)N=c2cc[nH]cc2)cc1

>  <Energy>  (70) 
70.19353398648505

>  <Genealogy>  (70) 
Cc1nc2ccccc2c(=O)n1-c1ccc(C(=O)N=c2cc[nH]cc2)cc1 (3D coordinates assigned)
Cc1nc2ccccc2c(=O)n1-c1ccc(C(=O)N=c2cc[nH]cc2)cc1 (optimized conformer: 70.19353398648505 kcal/mol)

>  <smiles>  (70) 
Cc1nc2ccccc2c(=O)n1-c1ccc(C(=O)N=c2cc[nH]cc2)cc1

>  <score_type>  (70) 
oracle

>  <origin>  (70) 
adg

>  <m_score__min__energy>  (70) 
-8.2799999999999994

>  <m_primary>  (70) 
energy

$$$$
70:0
     RDKit          3D

 35 37  0  0  0  0  0  0  0  0999 V2000
   64.2847   31.2202   47.5884 H   0  0  0  0  0  0  0  0  0  0  0  0
   63.3730   31.8270   47.4860 C   0  0  0  0  0  0  0  0  0  0  0  0
   63.4380   33.0920   46.8960 C   0  0  0  0  0  0  0  0  0  0  0  0
   64.4011   33.4787   46.5315 H   0  0  0  0  0  0  0  0  0  0  0  0
   62.2820   33.8670   46.7680 C   0  0  0  0  0  0  0  0  0  0  0  0
   62.3363   34.8589   46.2955 H   0  0  0  0  0  0  0  0  0  0  0  0
   61.0510   33.3830   47.2410 C   0  0  0  0  0  0  0  0  0  0  0  0
   59.7990   34.1990   47.0690 C   0  0  0  0  0  0  0  0  0  0  0  0
   60.0705   35.2465   46.8713 H   0  0  0  0  0  0  0  0  0  0  0  0
   59.1977   34.1381   47.9881 H   0  0  0  0  0  0  0  0  0  0  0  0
   58.9990   33.6680   45.9200 C   0  0  0  0  0  0  0  0  0  0  0  0
   59.3730   33.9030   44.6290 N   0  0  0  0  0  0  0  0  0  0  0  0
   58.2660   33.0850   43.6970 S   0  0  0  0  0  0  0  0  0  0  0  0
   57.3670   32.4580   44.9510 C   0  0  0  0  0  0  0  0  0  0  0  0
   56.3260   31.6850   44.8690 N   0  0  0  0  0  0  0  0  0  0  0  0
   56.3870   30.0300   44.3550 S   0  0  0  0  0  0  0  0  0  0  0  0
   55.1750   29.3080   44.8720 O   0  0  0  0  0  0  0  0  0  0  0  0
   56.3820   29.9820   42.8530 O   0  0  0  0  0  0  0  0  0  0  0  0
   57.8310   29.2520   44.9950 C   0  0  0  0  0  0  0  0  0  0  0  0
   59.0960   29.6140   44.5080 C   0  0  0  0  0  0  0  0  0  0  0  0
   59.1840   30.3883   43.7317 H   0  0  0  0  0  0  0  0  0  0  0  0
   60.2450   28.9930   45.0070 C   0  0  0  0  0  0  0  0  0  0  0  0
   61.2351   29.2768   44.6208 H   0  0  0  0  0  0  0  0  0  0  0  0
   60.1360   28.0110   45.9970 C   0  0  0  0  0  0  0  0  0  0  0  0
   61.0403   27.5220   46.3883 H   0  0  0  0  0  0  0  0  0  0  0  0
   58.8790   27.6510   46.4890 C   0  0  0  0  0  0  0  0  0  0  0  0
   58.7947   26.8795   47.2685 H   0  0  0  0  0  0  0  0  0  0  0  0
   57.7280   28.2700   45.9920 C   0  0  0  0  0  0  0  0  0  0  0  0
   56.7398   27.9866   46.3833 H   0  0  0  0  0  0  0  0  0  0  0  0
   57.9030   32.8690   46.1170 N   0  0  0  0  0  0  0  0  0  0  0  0
   57.5320   32.6010   47.0550 H   0  0  0  0  0  0  0  0  0  0  0  0
   60.9900   32.1060   47.8210 C   0  0  0  0  0  0  0  0  0  0  0  0
   60.0272   31.7119   48.1784 H   0  0  0  0  0  0  0  0  0  0  0  0
   62.1490   31.3330   47.9460 C   0  0  0  0  0  0  0  0  0  0  0  0
   62.0972   30.3355   48.4067 H   0  0  0  0  0  0  0  0  0  0  0  0
  1  2  1  0
  2  3  2  0
  3  4  1  0
  3  5  1  0
  5  6  1  0
  5  7  2  0
  7  8  1  0
  8  9  1  0
  8 10  1  0
  8 11  1  0
 11 12  2  0
 12 13  1  0
 13 14  1  0
 14 15  2  0
 15 16  1  0
 16 17  2  0
 16 18  2  0
 16 19  1  0
 19 20  2  0
 20 21  1  0
 20 22  1  0
 22 23  1  0
 22 24  2  0
 24 25  1  0
 24 26  1  0
 26 27  1  0
 26 28  2  0
 28 29  1  0
 14 30  1  0
 30 31  1  0
  7 32  1  0
 32 33  1  0
 32 34  2  0
 34 35  1  0
 34  2  1  0
 30 11  1  0
 28 19  1  0
M  END
>  <UniqueID>  (71) 
65

>  <SMILES>  (71) 
O=S(=O)(/N=c1/[nH]c(Cc2ccccc2)ns1)c1ccccc1

>  <Energy>  (71) 
76.12253139495063

>  <Genealogy>  (71) 
O=S(=O)(/N=c1/[nH]c(Cc2ccccc2)ns1)c1ccccc1 (cis-trans isomerization)
O=S(=O)(/N=c1/[nH]c(Cc2ccccc2)ns1)c1ccccc1 (3D coordinates assigned)
O=S(=O)(/N=c1/[nH]c(Cc2ccccc2)ns1)c1ccccc1 (optimized conformer: 76.12253139495063 kcal/mol)

>  <smiles>  (71) 
O=S(=O)(N=c1[nH]c(Cc2ccccc2)ns1)c1ccccc1

>  <score_type>  (71) 
oracle

>  <origin>  (71) 
adg

>  <m_score__min__energy>  (71) 
-8.8200000000000003

>  <m_primary>  (71) 
energy

$$$$
71:0
     RDKit          3D

 44 48  0  0  1  0  0  0  0  0999 V2000
   59.5560   33.3890   52.3570 C   0  0  0  0  0  0  0  0  0  0  0  0
   59.3350   33.3190   50.8850 C   0  0  0  0  0  0  0  0  0  0  0  0
   59.7670   34.2300   50.0120 N   0  0  0  0  0  0  0  0  0  0  0  0
   59.3990   33.8640   48.7780 C   0  0  0  0  0  0  0  0  0  0  0  0
   59.6310   34.5000   47.5860 C   0  0  0  0  0  0  0  0  0  0  0  0
   59.1360   33.9020   46.4490 C   0  0  0  0  0  0  0  0  0  0  0  0
   59.3750   34.5440   45.2890 N   0  0  0  0  0  0  0  0  0  0  0  0
   58.9360   34.0450   44.1240 C   0  0  0  0  0  0  0  0  0  0  0  0
   58.2390   32.8590   44.1780 C   0  0  0  0  0  0  0  0  0  0  0  0
   57.7770   32.3400   42.9100 C   0  0  0  0  0  0  0  0  0  0  0  0
   57.3970   31.9170   41.9130 N   0  0  0  0  0  0  0  0  0  0  0  0
   57.9830   32.1820   45.3670 C   0  0  0  0  0  0  0  0  0  0  0  0
   57.3530   31.1290   45.3150 N   0  0  0  0  0  0  0  0  0  0  0  0
   57.7260   29.8290   45.3380 C   0  0  0  0  0  0  0  0  0  0  0  0
   57.5230   28.9910   44.2140 C   0  0  0  0  0  0  0  0  0  0  0  0
   57.8040   27.6440   44.2950 C   0  0  0  0  0  0  0  0  0  0  0  0
   58.2840   27.0850   45.4580 C   0  0  0  0  0  0  0  0  0  0  0  0
   58.6640   25.3650   45.6290 S   0  0  0  0  0  0  0  0  0  0  0  0
   57.7820   24.3250   44.5980 C   0  0  0  0  0  0  0  0  0  0  0  0
   56.7360   24.4220   43.7180 C   0  0  0  0  0  0  0  0  0  0  0  0
   56.3070   23.3460   43.0690 C   0  0  0  0  0  0  0  0  0  0  0  0
   56.9260   22.1360   43.2900 C   0  0  0  0  0  0  0  0  0  0  0  0
   58.2420   22.4930   44.5190 S   0  0  0  0  0  0  0  0  0  0  0  0
   58.4800   27.9060   46.5500 C   0  0  0  0  0  0  0  0  0  0  0  0
   58.2210   29.2490   46.5340 C   0  0  0  0  0  0  0  0  0  0  0  0
   58.4400   32.7100   46.5330 C   0  0  0  0  0  0  0  0  0  0  0  0
   58.2310   32.1090   47.7410 C   0  0  0  0  0  0  0  0  0  0  0  0
   58.7220   32.6910   48.9270 C   0  0  0  0  0  0  0  0  0  0  0  0
   58.6820   32.3560   50.2190 N   0  0  0  0  0  0  0  0  0  0  0  0
   58.6337   33.0969   52.8805 H   0  0  0  0  0  0  0  0  0  0  0  0
   60.3699   32.7047   52.6385 H   0  0  0  0  0  0  0  0  0  0  0  0
   59.8275   34.4171   52.6385 H   0  0  0  0  0  0  0  0  0  0  0  0
   60.1885   35.4471   47.5399 H   0  0  0  0  0  0  0  0  0  0  0  0
   59.9040   35.4440   45.2530 H   0  0  0  0  0  0  0  0  0  0  0  0
   59.1241   34.5593   43.1700 H   0  0  0  0  0  0  0  0  0  0  0  0
   57.1403   29.4162   43.2745 H   0  0  0  0  0  0  0  0  0  0  0  0
   57.6419   27.0044   43.4149 H   0  0  0  0  0  0  0  0  0  0  0  0
   56.2503   25.3943   43.5488 H   0  0  0  0  0  0  0  0  0  0  0  0
   55.4668   23.4203   42.3629 H   0  0  0  0  0  0  0  0  0  0  0  0
   56.6844   21.1664   42.8301 H   0  0  0  0  0  0  0  0  0  0  0  0
   58.8633   27.4583   47.4788 H   0  0  0  0  0  0  0  0  0  0  0  0
   58.3928   29.8655   47.4287 H   0  0  0  0  0  0  0  0  0  0  0  0
   57.6741   31.1616   47.7891 H   0  0  0  0  0  0  0  0  0  0  0  0
   58.2250   31.5050   50.6150 H   0  0  0  0  0  0  0  0  0  0  0  0
  1  2  1  0
  2  3  2  0
  3  4  1  0
  4  5  2  0
  5  6  1  0
  6  7  1  0
  7  8  1  0
  8  9  2  0
  9 10  1  0
 10 11  3  0
  9 12  1  0
 12 13  2  0
 13 14  1  0
 14 15  2  0
 15 16  1  0
 16 17  2  0
 17 18  1  0
 18 19  1  0
 19 20  2  0
 20 21  1  0
 21 22  2  0
 22 23  1  0
 17 24  1  0
 24 25  2  0
 12 26  1  0
 26 27  1  0
 27 28  2  0
 28 29  1  0
 29  2  1  0
 28  4  1  0
 26  6  2  0
 25 14  1  0
 23 19  1  0
  1 30  1  0
  1 31  1  0
  1 32  1  0
  5 33  1  0
  7 34  1  0
  8 35  1  0
 15 36  1  0
 16 37  1  0
 20 38  1  0
 21 39  1  0
 22 40  1  0
 24 41  1  0
 25 42  1  0
 27 43  1  0
 29 44  1  0
M  END
>  <smiles>  (72) 
Cc1nc2cc3[nH]cc(C#N)c(=Nc4ccc(Sc5cccs5)cc4)c3cc2[nH]1

>  <score_type>  (72) 
oracle

>  <origin>  (72) 
adg

>  <m_score__min__energy>  (72) 
-8.8499999999999996

>  <m_primary>  (72) 
energy

$$$$
72:0
     RDKit          3D

 43 44  0  0  0  0  0  0  0  0999 V2000
   59.3730   34.6620   46.2870 C   0  0  0  0  0  0  0  0  0  0  0  0
   58.5190   34.3780   45.1840 O   0  0  0  0  0  0  0  0  0  0  0  0
   58.1480   33.0870   44.7820 C   0  0  0  0  0  0  0  0  0  0  0  0
   57.8250   32.0720   45.7030 C   0  0  0  0  0  0  0  0  0  0  0  0
   57.4600   30.8000   45.2520 C   0  0  0  0  0  0  0  0  0  0  0  0
   57.4160   30.5200   43.8790 C   0  0  0  0  0  0  0  0  0  0  0  0
   57.0040   29.1540   43.4010 C   0  0  0  0  0  0  0  0  0  0  0  0
   57.2030   28.1660   44.4590 N   0  0  0  0  0  0  0  0  0  0  0  0
   58.5010   27.8470   44.9790 C   0  0  0  0  0  0  0  0  0  0  0  0
   59.5340   28.3660   44.4760 O   0  0  0  0  0  0  0  0  0  0  0  0
   58.6380   26.9030   46.1350 C   0  0  0  0  0  0  0  0  0  0  0  0
   57.3260   26.5540   46.6760 N   0  0  0  0  0  0  0  0  0  0  0  0
   56.3110   25.8190   45.9770 C   0  0  0  0  0  0  0  0  0  0  0  0
   55.1280   26.2460   45.9920 O   0  0  0  0  0  0  0  0  0  0  0  0
   56.6080   24.5540   45.2820 C   0  0  0  0  0  0  0  0  0  0  0  0
   56.3870   24.4650   43.9000 C   0  0  0  0  0  0  0  0  0  0  0  0
   56.6300   23.2700   43.2210 C   0  0  0  0  0  0  0  0  0  0  0  0
   57.1040   22.1560   43.9170 C   0  0  0  0  0  0  0  0  0  0  0  0
   57.3450   22.2370   45.2900 C   0  0  0  0  0  0  0  0  0  0  0  0
   57.1070   23.4400   45.9870 C   0  0  0  0  0  0  0  0  0  0  0  0
   57.3680   23.5650   47.3610 O   0  0  0  0  0  0  0  0  0  0  0  0
   56.4850   23.1390   48.3930 C   0  0  0  0  0  0  0  0  0  0  0  0
   57.7350   31.5320   42.9600 C   0  0  0  0  0  0  0  0  0  0  0  0
   58.0980   32.8050   43.4120 C   0  0  0  0  0  0  0  0  0  0  0  0
   58.8305   34.4816   47.2267 H   0  0  0  0  0  0  0  0  0  0  0  0
   60.2576   34.0097   46.2433 H   0  0  0  0  0  0  0  0  0  0  0  0
   59.6908   35.7142   46.2433 H   0  0  0  0  0  0  0  0  0  0  0  0
   57.8600   32.2809   46.7824 H   0  0  0  0  0  0  0  0  0  0  0  0
   57.2059   30.0143   45.9787 H   0  0  0  0  0  0  0  0  0  0  0  0
   55.9412   29.1737   43.1179 H   0  0  0  0  0  0  0  0  0  0  0  0
   57.6198   28.8777   42.5325 H   0  0  0  0  0  0  0  0  0  0  0  0
   56.3620   27.7110   44.8800 H   0  0  0  0  0  0  0  0  0  0  0  0
   59.1436   25.9871   45.7951 H   0  0  0  0  0  0  0  0  0  0  0  0
   59.2265   27.3938   46.9242 H   0  0  0  0  0  0  0  0  0  0  0  0
   56.0198   25.3425   43.3476 H   0  0  0  0  0  0  0  0  0  0  0  0
   56.4482   23.2057   42.1380 H   0  0  0  0  0  0  0  0  0  0  0  0
   57.2880   21.2124   43.3824 H   0  0  0  0  0  0  0  0  0  0  0  0
   57.7228   21.3572   45.8314 H   0  0  0  0  0  0  0  0  0  0  0  0
   56.9348   23.3560   49.3731 H   0  0  0  0  0  0  0  0  0  0  0  0
   55.5287   23.6748   48.3017 H   0  0  0  0  0  0  0  0  0  0  0  0
   56.3092   22.0570   48.3017 H   0  0  0  0  0  0  0  0  0  0  0  0
   57.6994   31.3232   41.8806 H   0  0  0  0  0  0  0  0  0  0  0  0
   58.3464   33.5915   42.6842 H   0  0  0  0  0  0  0  0  0  0  0  0
  1  2  1  0
  2  3  1  0
  3  4  2  0
  4  5  1  0
  5  6  2  0
  6  7  1  0
  7  8  1  0
  8  9  1  0
  9 10  2  0
  9 11  1  0
 11 12  1  0
 12 13  1  0
 13 14  2  0
 13 15  1  0
 15 16  2  0
 16 17  1  0
 17 18  2  0
 18 19  1  0
 19 20  2  0
 20 21  1  0
 21 22  1  0
  6 23  1  0
 23 24  2  0
 24  3  1  0
 20 15  1  0
  1 25  1  0
  1 26  1  0
  1 27  1  0
  4 28  1  0
  5 29  1  0
  7 30  1  0
  7 31  1  0
  8 32  1  0
 11 33  1  0
 11 34  1  0
 16 35  1  0
 17 36  1  0
 18 37  1  0
 19 38  1  0
 22 39  1  0
 22 40  1  0
 22 41  1  0
 23 42  1  0
 24 43  1  0
M  CHG  1  12  -1
M  END
>  <UniqueID>  (73) 
66

>  <SMILES>  (73) 
COc1ccc(CNC(=O)C[N-]C(=O)c2ccccc2OC)cc1

>  <Energy>  (73) 
42.12362161599381

>  <Genealogy>  (73) 
COc1ccc(CNC(=O)C[N-]C(=O)c2ccccc2OC)cc1 (protonated)
COc1ccc(CNC(=O)C[N-]C(=O)c2ccccc2OC)cc1 (3D coordinates assigned)
COc1ccc(CNC(=O)C[N-]C(=O)c2ccccc2OC)cc1 (optimized conformer: 42.12362161599381 kcal/mol)

>  <smiles>  (73) 
COc1ccc(CNC(=O)CNC(=O)c2ccccc2OC)cc1

>  <score_type>  (73) 
oracle

>  <origin>  (73) 
adg

>  <m_score__min__energy>  (73) 
-9.5899999999999999

>  <m_primary>  (73) 
energy

$$$$
73:0
     RDKit          3D

 30 31  0  0  0  0  0  0  0  0999 V2000
   55.6570   29.3370   45.2340 O   0  0  0  0  0  0  0  0  0  0  0  0
   56.4530   29.6240   43.9930 S   0  0  0  0  0  0  0  0  0  0  0  0
   55.5220   29.7640   42.8210 O   0  0  0  0  0  0  0  0  0  0  0  0
   57.5890   28.3430   43.6800 N   0  0  0  0  0  0  0  0  0  0  0  0
   57.9650   27.6590   44.9240 C   0  0  0  0  0  0  0  0  0  0  0  0
   59.4620   27.8350   45.1890 C   0  0  0  0  0  0  0  0  0  0  0  0
   59.6960   28.8970   46.2300 C   0  0  0  0  0  0  0  0  0  0  0  0
   60.7530   29.8110   46.0860 C   0  0  0  0  0  0  0  0  0  0  0  0
   60.9880   30.7770   47.0700 C   0  0  0  0  0  0  0  0  0  0  0  0
   60.1770   30.8290   48.2070 C   0  0  0  0  0  0  0  0  0  0  0  0
   59.1320   29.9140   48.3640 C   0  0  0  0  0  0  0  0  0  0  0  0
   58.8950   28.9470   47.3820 C   0  0  0  0  0  0  0  0  0  0  0  0
   57.3340   31.1230   44.2120 C   0  0  0  0  0  0  0  0  0  0  0  0
   57.7990   31.9400   43.1900 C   0  0  0  0  0  0  0  0  0  0  0  0
   58.4790   33.0690   43.6620 C   0  0  0  0  0  0  0  0  0  0  0  0
   58.5440   33.1270   45.0480 C   0  0  0  0  0  0  0  0  0  0  0  0
   59.3840   34.5020   46.0670 Br  0  0  0  0  0  0  0  0  0  0  0  0
   57.7640   31.7850   45.6960 S   0  0  0  0  0  0  0  0  0  0  0  0
   57.0950   27.6560   43.0660 H   0  0  0  0  0  0  0  0  0  0  0  0
   57.3945   28.0871   45.7614 H   0  0  0  0  0  0  0  0  0  0  0  0
   57.7400   26.5866   44.8274 H   0  0  0  0  0  0  0  0  0  0  0  0
   59.8804   26.8819   45.5448 H   0  0  0  0  0  0  0  0  0  0  0  0
   59.9534   28.1416   44.2538 H   0  0  0  0  0  0  0  0  0  0  0  0
   61.3982   29.7669   45.1962 H   0  0  0  0  0  0  0  0  0  0  0  0
   61.8115   31.4961   46.9488 H   0  0  0  0  0  0  0  0  0  0  0  0
   60.3612   31.5906   48.9790 H   0  0  0  0  0  0  0  0  0  0  0  0
   58.4958   29.9546   49.2604 H   0  0  0  0  0  0  0  0  0  0  0  0
   58.0776   28.2225   47.5127 H   0  0  0  0  0  0  0  0  0  0  0  0
   57.6489   31.7230   42.1221 H   0  0  0  0  0  0  0  0  0  0  0  0
   58.9172   33.8324   43.0023 H   0  0  0  0  0  0  0  0  0  0  0  0
  1  2  2  0
  2  3  2  0
  2  4  1  0
  4  5  1  0
  5  6  1  0
  6  7  1  0
  7  8  2  0
  8  9  1  0
  9 10  2  0
 10 11  1  0
 11 12  2  0
  2 13  1  0
 13 14  2  0
 14 15  1  0
 15 16  2  0
 16 17  1  0
 16 18  1  0
 12  7  1  0
 18 13  1  0
  4 19  1  0
  5 20  1  0
  5 21  1  0
  6 22  1  0
  6 23  1  0
  8 24  1  0
  9 25  1  0
 10 26  1  0
 11 27  1  0
 12 28  1  0
 14 29  1  0
 15 30  1  0
M  END
>  <UniqueID>  (74) 
67

>  <SMILES>  (74) 
O=S(=O)(NCCc1ccccc1)c1ccc(Br)s1

>  <Energy>  (74) 
53.39809144813813

>  <Genealogy>  (74) 
O=S(=O)(NCCc1ccccc1)c1ccc(Br)s1 (3D coordinates assigned)
O=S(=O)(NCCc1ccccc1)c1ccc(Br)s1 (optimized conformer: 53.39809144813813 kcal/mol)

>  <smiles>  (74) 
O=S(=O)(NCCc1ccccc1)c1ccc(Br)s1

>  <score_type>  (74) 
oracle

>  <origin>  (74) 
adg

>  <m_score__min__energy>  (74) 
-7.5899999999999999

>  <m_primary>  (74) 
energy

$$$$
74:0
     RDKit          3D

 29 30  0  0  0  0  0  0  0  0999 V2000
   59.0660   33.2177   48.4002 H   0  0  0  0  0  0  0  0  0  0  0  0
   58.9930   33.4280   47.3230 C   0  0  0  0  0  0  0  0  0  0  0  0
   59.3660   34.6810   46.8300 C   0  0  0  0  0  0  0  0  0  0  0  0
   59.7322   35.4562   47.5192 H   0  0  0  0  0  0  0  0  0  0  0  0
   59.2740   34.9500   45.4610 C   0  0  0  0  0  0  0  0  0  0  0  0
   59.6370   36.1660   44.9830 F   0  0  0  0  0  0  0  0  0  0  0  0
   58.8110   33.9630   44.5840 C   0  0  0  0  0  0  0  0  0  0  0  0
   58.7405   34.1767   43.5073 H   0  0  0  0  0  0  0  0  0  0  0  0
   58.4360   32.7010   45.0720 C   0  0  0  0  0  0  0  0  0  0  0  0
   57.9520   31.6390   44.1220 C   0  0  0  0  0  0  0  0  0  0  0  0
   58.6611   30.7981   44.1294 H   0  0  0  0  0  0  0  0  0  0  0  0
   57.8831   32.0727   43.1135 H   0  0  0  0  0  0  0  0  0  0  0  0
   56.6310   31.1550   44.5150 N   0  0  0  0  0  0  0  0  0  0  0  0
   56.2870   29.7780   44.7100 C   0  0  0  0  0  0  0  0  0  0  0  0
   55.0760   29.4580   44.8310 O   0  0  0  0  0  0  0  0  0  0  0  0
   57.2860   28.7500   44.7030 N   0  0  0  0  0  0  0  0  0  0  0  0
   57.2490   27.6360   45.3800 C   0  0  0  0  0  0  0  0  0  0  0  0
   58.4170   27.0270   45.8860 C   0  0  0  0  0  0  0  0  0  0  0  0
   59.4004   27.4900   45.7174 H   0  0  0  0  0  0  0  0  0  0  0  0
   58.3160   25.8330   46.6020 C   0  0  0  0  0  0  0  0  0  0  0  0
   59.2218   25.3482   46.9952 H   0  0  0  0  0  0  0  0  0  0  0  0
   57.0660   25.2560   46.8180 C   0  0  0  0  0  0  0  0  0  0  0  0
   56.9783   24.3130   47.3776 H   0  0  0  0  0  0  0  0  0  0  0  0
   55.9270   25.8870   46.3170 C   0  0  0  0  0  0  0  0  0  0  0  0
   54.9350   25.4428   46.4864 H   0  0  0  0  0  0  0  0  0  0  0  0
   56.0390   27.0510   45.6190 N   0  0  0  0  0  0  0  0  0  0  0  0
   55.1670   27.4980   45.2540 H   0  0  0  0  0  0  0  0  0  0  0  0
   58.5270   32.4410   46.4490 C   0  0  0  0  0  0  0  0  0  0  0  0
   58.2306   31.4571   46.8416 H   0  0  0  0  0  0  0  0  0  0  0  0
  1  2  1  0
  2  3  2  0
  3  4  1  0
  3  5  1  0
  5  6  1  0
  5  7  2  0
  7  8  1  0
  7  9  1  0
  9 10  1  0
 10 11  1  0
 10 12  1  0
 10 13  1  0
 13 14  1  0
 14 15  2  0
 14 16  1  0
 16 17  2  0
 17 18  1  0
 18 19  1  0
 18 20  2  0
 20 21  1  0
 20 22  1  0
 22 23  1  0
 22 24  2  0
 24 25  1  0
 24 26  1  0
 26 27  1  0
  9 28  2  0
 28 29  1  0
 28  2  1  0
 26 17  1  0
M  CHG  1  13  -1
M  END
>  <UniqueID>  (75) 
68

>  <SMILES>  (75) 
O=C(/N=c1\cccc[nH]1)[N-]Cc1cccc(F)c1

>  <Energy>  (75) 
36.806373086303005

>  <Genealogy>  (75) 
O=C(N=c1cccc[nH]1)[N-]Cc1cccc(F)c1 (protonated)
O=C(/N=c1\cccc[nH]1)[N-]Cc1cccc(F)c1 (cis-trans isomerization)
O=C(/N=c1\cccc[nH]1)[N-]Cc1cccc(F)c1 (3D coordinates assigned)
O=C(/N=c1\cccc[nH]1)[N-]Cc1cccc(F)c1 (optimized conformer: 36.806373086303005 kcal/mol)

>  <smiles>  (75) 
O=C(N=c1cccc[nH]1)NCc1cccc(F)c1

>  <score_type>  (75) 
oracle

>  <origin>  (75) 
adg

>  <m_score__min__energy>  (75) 
-8.7799999999999994

>  <m_primary>  (75) 
energy

$$$$
75:0
     RDKit          3D

 47 50  0  0  0  0  0  0  0  0999 V2000
   60.6763   33.4808   49.1071 H   0  0  0  0  0  0  0  0  0  0  0  0
   60.6510   32.4390   48.7550 C   0  0  0  0  0  0  0  0  0  0  0  0
   59.8560   31.4970   49.4140 C   0  0  0  0  0  0  0  0  0  0  0  0
   59.2548   31.7991   50.2842 H   0  0  0  0  0  0  0  0  0  0  0  0
   59.8230   30.1720   48.9700 C   0  0  0  0  0  0  0  0  0  0  0  0
   59.1988   29.4333   49.4941 H   0  0  0  0  0  0  0  0  0  0  0  0
   60.5850   29.7810   47.8560 C   0  0  0  0  0  0  0  0  0  0  0  0
   60.5760   28.3500   47.3840 C   0  0  0  0  0  0  0  0  0  0  0  0
   61.3522   27.7866   47.9227 H   0  0  0  0  0  0  0  0  0  0  0  0
   60.7748   28.3318   46.3023 H   0  0  0  0  0  0  0  0  0  0  0  0
   59.2730   27.7340   47.6350 N   0  0  0  0  0  0  0  0  0  0  0  0
   58.2200   27.8960   46.8930 C   0  0  0  0  0  0  0  0  0  0  0  0
   57.2820   26.9170   46.7830 N   0  0  0  0  0  0  0  0  0  0  0  0
   56.1900   27.0940   45.9990 C   0  0  0  0  0  0  0  0  0  0  0  0
   55.2970   26.1500   45.9320 N   0  0  0  0  0  0  0  0  0  0  0  0
   55.4560   24.8510   45.3350 C   0  0  0  0  0  0  0  0  0  0  0  0
   54.5860   23.7820   45.6300 C   0  0  0  0  0  0  0  0  0  0  0  0
   53.7732   23.9213   46.3580 H   0  0  0  0  0  0  0  0  0  0  0  0
   54.7530   22.5450   45.0000 C   0  0  0  0  0  0  0  0  0  0  0  0
   54.0812   21.7092   45.2452 H   0  0  0  0  0  0  0  0  0  0  0  0
   55.7720   22.3680   44.0590 C   0  0  0  0  0  0  0  0  0  0  0  0
   55.9370   21.1380   43.4360 O   0  0  0  0  0  0  0  0  0  0  0  0
   56.6200   23.4340   43.7410 C   0  0  0  0  0  0  0  0  0  0  0  0
   57.4184   23.2978   42.9967 H   0  0  0  0  0  0  0  0  0  0  0  0
   56.4540   24.6720   44.3680 C   0  0  0  0  0  0  0  0  0  0  0  0
   57.1117   25.5121   44.1003 H   0  0  0  0  0  0  0  0  0  0  0  0
   56.0270   28.2710   45.3350 N   0  0  0  0  0  0  0  0  0  0  0  0
   56.9600   29.2510   45.4310 C   0  0  0  0  0  0  0  0  0  0  0  0
   56.7690   30.3720   44.7970 N   0  0  0  0  0  0  0  0  0  0  0  0
   57.4680   31.6110   45.0030 C   0  0  0  0  0  0  0  0  0  0  0  0
   57.7870   32.4750   43.9390 C   0  0  0  0  0  0  0  0  0  0  0  0
   57.5232   32.1951   42.9084 H   0  0  0  0  0  0  0  0  0  0  0  0
   58.4380   33.6880   44.1860 C   0  0  0  0  0  0  0  0  0  0  0  0
   58.6968   34.3491   43.3458 H   0  0  0  0  0  0  0  0  0  0  0  0
   58.7640   34.0690   45.4980 C   0  0  0  0  0  0  0  0  0  0  0  0
   59.4350   35.3180   45.7480 N   0  0  0  0  0  0  0  0  0  0  0  0
   59.5730   36.1610   44.8360 O   0  0  0  0  0  0  0  0  0  0  0  0
   59.9330   35.6070   46.9970 O   0  0  0  0  0  0  0  0  0  0  0  0
   58.4150   33.2170   46.5610 C   0  0  0  0  0  0  0  0  0  0  0  0
   58.6556   33.5064   47.5946 H   0  0  0  0  0  0  0  0  0  0  0  0
   57.7640   32.0040   46.3130 C   0  0  0  0  0  0  0  0  0  0  0  0
   57.4825   31.3539   47.1545 H   0  0  0  0  0  0  0  0  0  0  0  0
   58.0520   29.0620   46.2190 N   0  0  0  0  0  0  0  0  0  0  0  0
   61.3850   30.7320   47.2010 C   0  0  0  0  0  0  0  0  0  0  0  0
   61.9910   30.4335   46.3329 H   0  0  0  0  0  0  0  0  0  0  0  0
   61.4140   32.0560   47.6480 C   0  0  0  0  0  0  0  0  0  0  0  0
   62.0381   32.7977   47.1280 H   0  0  0  0  0  0  0  0  0  0  0  0
  1  2  1  0
  2  3  2  0
  3  4  1  0
  3  5  1  0
  5  6  1  0
  5  7  2  0
  7  8  1  0
  8  9  1  0
  8 10  1  0
  8 11  1  0
 11 12  2  0
 12 13  1  0
 13 14  1  0
 14 15  2  3
 15 16  1  0
 16 17  2  0
 17 18  1  0
 17 19  1  0
 19 20  1  0
 19 21  2  0
 21 22  1  0
 21 23  1  0
 23 24  1  0
 23 25  2  0
 25 26  1  0
 14 27  1  0
 27 28  1  0
 28 29  2  3
 29 30  1  0
 30 31  2  0
 31 32  1  0
 31 33  1  0
 33 34  1  0
 33 35  2  0
 35 36  1  0
 36 37  2  0
 36 38  1  0
 35 39  1  0
 39 40  1  0
 39 41  2  0
 41 42  1  0
 28 43  1  0
  7 44  1  0
 44 45  1  0
 44 46  2  0
 46 47  1  0
 46  2  1  0
 43 12  1  0
 25 16  1  0
 41 30  1  0
M  CHG  6  13  -1  22  -1  27  -1  36   1  38  -1  43  -1
M  END
>  <UniqueID>  (76) 
69

>  <SMILES>  (76) 
O=[N+]([O-])c1ccc(N=c2[n-]c(=Nc3ccc([O-])cc3)[n-]/c(=N\Cc3ccccc3)[n-]2)cc1

>  <Energy>  (76) 
65.38802593067662

>  <Genealogy>  (76) 
O=[N+]([O-])c1ccc(N=c2[n-]c(=NCc3ccccc3)[n-]c(=Nc3ccc([O-])cc3)[n-]2)cc1 (protonated)
O=[N+]([O-])c1ccc(N=c2[n-]c(=Nc3ccc([O-])cc3)[n-]/c(=N\Cc3ccccc3)[n-]2)cc1 (cis-trans isomerization)
O=[N+]([O-])c1ccc(N=c2[n-]c(=Nc3ccc([O-])cc3)[n-]/c(=N\Cc3ccccc3)[n-]2)cc1 (3D coordinates assigned)
O=[N+]([O-])c1ccc(N=c2[n-]c(=Nc3ccc([O-])cc3)[n-]/c(=N\Cc3ccccc3)[n-]2)cc1 (optimized conformer: 65.38802593067662 kcal/mol)

>  <smiles>  (76) 
O=[N+]([O-])c1ccc(N=c2[nH]c(=NCc3ccccc3)[nH]c(=Nc3ccc(O)cc3)[nH]2)cc1

>  <score_type>  (76) 
oracle

>  <origin>  (76) 
adg

>  <m_score__min__energy>  (76) 
-15.779999999999999

>  <m_primary>  (76) 
energy

$$$$
76:0
     RDKit          3D

 42 43  0  0  0  0  0  0  0  0999 V2000
   59.6450   35.3860   45.6340 C   0  0  0  0  0  0  0  0  0  0  0  0
   59.9800   34.8600   46.9140 O   0  0  0  0  0  0  0  0  0  0  0  0
   59.9530   33.4950   47.2440 C   0  0  0  0  0  0  0  0  0  0  0  0
   61.1190   32.7920   47.6030 C   0  0  0  0  0  0  0  0  0  0  0  0
   61.0570   31.4350   47.9220 C   0  0  0  0  0  0  0  0  0  0  0  0
   59.8290   30.7590   47.9040 C   0  0  0  0  0  0  0  0  0  0  0  0
   59.7630   29.2860   48.1940 C   0  0  0  0  0  0  0  0  0  0  0  0
   59.3600   28.5670   46.9900 N   0  0  0  0  0  0  0  0  0  0  0  0
   59.8530   28.9260   45.6920 C   0  0  0  0  0  0  0  0  0  0  0  0
   60.8940   29.6280   45.5790 O   0  0  0  0  0  0  0  0  0  0  0  0
   59.1010   28.5220   44.4630 C   0  0  0  0  0  0  0  0  0  0  0  0
   57.6630   28.9350   44.5880 C   0  0  0  0  0  0  0  0  0  0  0  0
   57.0940   30.1260   44.1760 C   0  0  0  0  0  0  0  0  0  0  0  0
   57.7740   31.2310   43.4350 C   0  0  0  0  0  0  0  0  0  0  0  0
   55.8020   30.1640   44.5540 N   0  0  0  0  0  0  0  0  0  0  0  0
   55.5240   29.0480   45.2120 N   0  0  0  0  0  0  0  0  0  0  0  0
   56.6310   28.2810   45.2420 C   0  0  0  0  0  0  0  0  0  0  0  0
   56.7100   26.9850   45.9830 C   0  0  0  0  0  0  0  0  0  0  0  0
   58.6660   31.4540   47.5370 C   0  0  0  0  0  0  0  0  0  0  0  0
   58.7230   32.8220   47.2050 C   0  0  0  0  0  0  0  0  0  0  0  0
   57.5790   33.5460   46.8320 O   0  0  0  0  0  0  0  0  0  0  0  0
   57.0130   33.5460   45.5260 C   0  0  0  0  0  0  0  0  0  0  0  0
   59.0579   36.3078   45.7586 H   0  0  0  0  0  0  0  0  0  0  0  0
   60.5667   35.6107   45.0773 H   0  0  0  0  0  0  0  0  0  0  0  0
   59.0516   34.6458   45.0773 H   0  0  0  0  0  0  0  0  0  0  0  0
   62.0856   33.3163   47.6322 H   0  0  0  0  0  0  0  0  0  0  0  0
   61.9762   30.8930   48.1889 H   0  0  0  0  0  0  0  0  0  0  0  0
   60.7530   28.9320   48.5175 H   0  0  0  0  0  0  0  0  0  0  0  0
   59.0276   29.1036   48.9914 H   0  0  0  0  0  0  0  0  0  0  0  0
   58.5910   27.8630   47.0650 H   0  0  0  0  0  0  0  0  0  0  0  0
   59.5466   29.0119   43.5847 H   0  0  0  0  0  0  0  0  0  0  0  0
   59.1563   27.4296   44.3460 H   0  0  0  0  0  0  0  0  0  0  0  0
   58.2104   31.9402   44.1537 H   0  0  0  0  0  0  0  0  0  0  0  0
   58.5710   30.8124   42.8029 H   0  0  0  0  0  0  0  0  0  0  0  0
   57.0412   31.7539   42.8029 H   0  0  0  0  0  0  0  0  0  0  0  0
   56.6981   27.1802   47.0655 H   0  0  0  0  0  0  0  0  0  0  0  0
   55.8485   26.3559   45.7144 H   0  0  0  0  0  0  0  0  0  0  0  0
   57.6415   26.4652   45.7144 H   0  0  0  0  0  0  0  0  0  0  0  0
   57.7015   30.9258   47.5084 H   0  0  0  0  0  0  0  0  0  0  0  0
   56.8672   32.5089   45.1896 H   0  0  0  0  0  0  0  0  0  0  0  0
   56.0431   34.0645   45.5467 H   0  0  0  0  0  0  0  0  0  0  0  0
   57.6913   34.0645   44.8324 H   0  0  0  0  0  0  0  0  0  0  0  0
  1  2  1  0
  2  3  1  0
  3  4  2  0
  4  5  1  0
  5  6  2  0
  6  7  1  0
  7  8  1  0
  8  9  1  0
  9 10  2  0
  9 11  1  0
 11 12  1  0
 12 13  1  0
 13 14  1  0
 13 15  2  0
 15 16  1  0
 16 17  1  0
 17 18  1  0
  6 19  1  0
 19 20  2  0
 20 21  1  0
 21 22  1  0
 20  3  1  0
 17 12  2  0
  1 23  1  0
  1 24  1  0
  1 25  1  0
  4 26  1  0
  5 27  1  0
  7 28  1  0
  7 29  1  0
  8 30  1  0
 11 31  1  0
 11 32  1  0
 14 33  1  0
 14 34  1  0
 14 35  1  0
 18 36  1  0
 18 37  1  0
 18 38  1  0
 19 39  1  0
 22 40  1  0
 22 41  1  0
 22 42  1  0
M  CHG  1  16  -1
M  END
>  <UniqueID>  (77) 
70

>  <SMILES>  (77) 
COc1ccc(CNC(=O)Cc2c(C)n[n-]c2C)cc1OC

>  <Energy>  (77) 
60.87057228253704

>  <Genealogy>  (77) 
COc1ccc(CNC(=O)Cc2c(C)n[n-]c2C)cc1OC (protonated)
COc1ccc(CNC(=O)Cc2c(C)n[n-]c2C)cc1OC (3D coordinates assigned)
COc1ccc(CNC(=O)Cc2c(C)n[n-]c2C)cc1OC (optimized conformer: 60.87057228253704 kcal/mol)

>  <smiles>  (77) 
COc1ccc(CNC(=O)Cc2c(C)n[nH]c2C)cc1OC

>  <score_type>  (77) 
oracle

>  <origin>  (77) 
adg

>  <m_score__min__energy>  (77) 
-8.5

>  <m_primary>  (77) 
energy

$$$$
77:0
     RDKit          3D

 35 36  0  0  0  0  0  0  0  0999 V2000
   62.4140   31.7460   47.3760 C   0  0  0  0  0  0  0  0  0  0  0  0
   61.5510   30.8810   48.1900 N   0  0  0  0  0  0  0  0  0  0  0  0
   61.6620   30.9440   49.6530 C   0  0  0  0  0  0  0  0  0  0  0  0
   60.6070   29.9760   47.5590 C   0  0  0  0  0  0  0  0  0  0  0  0
   59.5160   29.4510   48.2790 C   0  0  0  0  0  0  0  0  0  0  0  0
   58.6070   28.5810   47.6730 C   0  0  0  0  0  0  0  0  0  0  0  0
   58.7580   28.2160   46.3250 C   0  0  0  0  0  0  0  0  0  0  0  0
   57.8100   27.2810   45.6710 C   0  0  0  0  0  0  0  0  0  0  0  0
   58.2560   26.2380   45.1200 O   0  0  0  0  0  0  0  0  0  0  0  0
   56.3550   27.5480   45.6150 C   0  0  0  0  0  0  0  0  0  0  0  0
   55.5450   26.6580   45.9830 O   0  0  0  0  0  0  0  0  0  0  0  0
   55.8430   28.8350   45.2470 N   0  0  0  0  0  0  0  0  0  0  0  0
   56.5310   29.8330   44.4800 C   0  0  0  0  0  0  0  0  0  0  0  0
   57.3700   30.7380   45.1420 C   0  0  0  0  0  0  0  0  0  0  0  0
   58.0340   31.7410   44.4270 C   0  0  0  0  0  0  0  0  0  0  0  0
   57.8500   31.8530   43.0460 C   0  0  0  0  0  0  0  0  0  0  0  0
   56.9950   30.9700   42.3800 C   0  0  0  0  0  0  0  0  0  0  0  0
   56.3300   29.9680   43.0930 C   0  0  0  0  0  0  0  0  0  0  0  0
   59.8510   28.7230   45.6050 C   0  0  0  0  0  0  0  0  0  0  0  0
   60.7610   29.5950   46.2120 C   0  0  0  0  0  0  0  0  0  0  0  0
   63.0356   32.3691   48.0358 H   0  0  0  0  0  0  0  0  0  0  0  0
   63.0623   31.1242   46.7412 H   0  0  0  0  0  0  0  0  0  0  0  0
   61.7907   32.3929   46.7412 H   0  0  0  0  0  0  0  0  0  0  0  0
   60.7912   30.4498   50.1084 H   0  0  0  0  0  0  0  0  0  0  0  0
   62.5823   30.4336   49.9732 H   0  0  0  0  0  0  0  0  0  0  0  0
   61.6957   31.9958   49.9732 H   0  0  0  0  0  0  0  0  0  0  0  0
   59.3780   29.7304   49.3339 H   0  0  0  0  0  0  0  0  0  0  0  0
   57.7658   28.1782   48.2562 H   0  0  0  0  0  0  0  0  0  0  0  0
   57.5079   30.6599   46.2305 H   0  0  0  0  0  0  0  0  0  0  0  0
   58.7007   32.4412   44.9517 H   0  0  0  0  0  0  0  0  0  0  0  0
   58.3783   32.6364   42.4828 H   0  0  0  0  0  0  0  0  0  0  0  0
   56.8454   31.0636   41.2943 H   0  0  0  0  0  0  0  0  0  0  0  0
   55.6476   29.2829   42.5687 H   0  0  0  0  0  0  0  0  0  0  0  0
   59.9933   28.4320   44.5538 H   0  0  0  0  0  0  0  0  0  0  0  0
   61.6075   29.9880   45.6298 H   0  0  0  0  0  0  0  0  0  0  0  0
  1  2  1  0
  2  3  1  0
  2  4  1  0
  4  5  2  0
  5  6  1  0
  6  7  2  0
  7  8  1  0
  8  9  2  0
  8 10  1  0
 10 11  2  0
 10 12  1  0
 12 13  1  0
 13 14  2  0
 14 15  1  0
 15 16  2  0
 16 17  1  0
 17 18  2  0
  7 19  1  0
 19 20  2  0
 20  4  1  0
 18 13  1  0
  1 21  1  0
  1 22  1  0
  1 23  1  0
  3 24  1  0
  3 25  1  0
  3 26  1  0
  5 27  1  0
  6 28  1  0
 14 29  1  0
 15 30  1  0
 16 31  1  0
 17 32  1  0
 18 33  1  0
 19 34  1  0
 20 35  1  0
M  CHG  1  12  -1
M  END
>  <UniqueID>  (78) 
71

>  <SMILES>  (78) 
CN(C)c1ccc(C(=O)C(=O)[N-]c2ccccc2)cc1

>  <Energy>  (78) 
45.59808262732798

>  <Genealogy>  (78) 
CN(C)c1ccc(C(=O)C(=O)[N-]c2ccccc2)cc1 (protonated)
CN(C)c1ccc(C(=O)C(=O)[N-]c2ccccc2)cc1 (3D coordinates assigned)
CN(C)c1ccc(C(=O)C(=O)[N-]c2ccccc2)cc1 (optimized conformer: 45.59808262732798 kcal/mol)

>  <smiles>  (78) 
CN(C)c1ccc(C(=O)C(=O)Nc2ccccc2)cc1

>  <score_type>  (78) 
oracle

>  <origin>  (78) 
adg

>  <m_score__min__energy>  (78) 
-8.5

>  <m_primary>  (78) 
energy

$$$$
78:0
     RDKit          3D

 31 33  0  0  0  0  0  0  0  0999 V2000
   55.5260   29.7120   43.0070 C   0  0  0  0  0  0  0  0  0  0  0  0
   55.4190   29.3140   44.3690 O   0  0  0  0  0  0  0  0  0  0  0  0
   56.5110   29.1270   45.2310 C   0  0  0  0  0  0  0  0  0  0  0  0
   57.4700   30.1340   45.4610 C   0  0  0  0  0  0  0  0  0  0  0  0
   58.5480   29.9150   46.3390 C   0  0  0  0  0  0  0  0  0  0  0  0
   59.5480   30.9930   46.5510 C   0  0  0  0  0  0  0  0  0  0  0  0
   59.3460   32.2960   46.0620 C   0  0  0  0  0  0  0  0  0  0  0  0
   60.3190   33.2710   46.2890 C   0  0  0  0  0  0  0  0  0  0  0  0
   60.1420   34.4400   45.8510 O   0  0  0  0  0  0  0  0  0  0  0  0
   61.4820   32.9320   46.9970 C   0  0  0  0  0  0  0  0  0  0  0  0
   62.5010   33.8640   47.2610 C   0  0  0  0  0  0  0  0  0  0  0  0
   63.6420   33.4720   47.9680 C   0  0  0  0  0  0  0  0  0  0  0  0
   63.7760   32.1550   48.4130 C   0  0  0  0  0  0  0  0  0  0  0  0
   62.7690   31.2210   48.1560 C   0  0  0  0  0  0  0  0  0  0  0  0
   61.6220   31.6010   47.4510 C   0  0  0  0  0  0  0  0  0  0  0  0
   60.6680   30.7050   47.2120 O   0  0  0  0  0  0  0  0  0  0  0  0
   58.6680   28.6630   46.9710 C   0  0  0  0  0  0  0  0  0  0  0  0
   57.7180   27.6650   46.7450 C   0  0  0  0  0  0  0  0  0  0  0  0
   56.6440   27.8940   45.8820 C   0  0  0  0  0  0  0  0  0  0  0  0
   55.7080   26.8890   45.6690 O   0  0  0  0  0  0  0  0  0  0  0  0
   55.8113   30.7732   42.9564 H   0  0  0  0  0  0  0  0  0  0  0  0
   56.2921   29.1021   42.5059 H   0  0  0  0  0  0  0  0  0  0  0  0
   54.5574   29.5684   42.5059 H   0  0  0  0  0  0  0  0  0  0  0  0
   57.3748   31.1025   44.9482 H   0  0  0  0  0  0  0  0  0  0  0  0
   58.4300   32.5446   45.5059 H   0  0  0  0  0  0  0  0  0  0  0  0
   62.4007   34.9021   46.9112 H   0  0  0  0  0  0  0  0  0  0  0  0
   64.4370   34.2037   48.1744 H   0  0  0  0  0  0  0  0  0  0  0  0
   64.6766   31.8522   48.9672 H   0  0  0  0  0  0  0  0  0  0  0  0
   62.8784   30.1848   48.5087 H   0  0  0  0  0  0  0  0  0  0  0  0
   59.5145   28.4698   47.6464 H   0  0  0  0  0  0  0  0  0  0  0  0
   57.8160   26.6925   47.2497 H   0  0  0  0  0  0  0  0  0  0  0  0
  1  2  1  0
  2  3  1  0
  3  4  2  0
  4  5  1  0
  5  6  1  0
  6  7  2  0
  7  8  1  0
  8  9  2  0
  8 10  1  0
 10 11  2  0
 11 12  1  0
 12 13  2  0
 13 14  1  0
 14 15  2  0
 15 16  1  0
  5 17  2  0
 17 18  1  0
 18 19  2  0
 19 20  1  0
 19  3  1  0
 16  6  1  0
 15 10  1  0
  1 21  1  0
  1 22  1  0
  1 23  1  0
  4 24  1  0
  7 25  1  0
 11 26  1  0
 12 27  1  0
 13 28  1  0
 14 29  1  0
 17 30  1  0
 18 31  1  0
M  CHG  1  20  -1
M  END
>  <UniqueID>  (79) 
72

>  <SMILES>  (79) 
COc1cc(-c2cc(=O)c3ccccc3o2)ccc1[O-]

>  <Energy>  (79) 
42.22876451331296

>  <Genealogy>  (79) 
COc1cc(-c2cc(=O)c3ccccc3o2)ccc1[O-] (protonated)
COc1cc(-c2cc(=O)c3ccccc3o2)ccc1[O-] (3D coordinates assigned)
COc1cc(-c2cc(=O)c3ccccc3o2)ccc1[O-] (optimized conformer: 42.22876451331296 kcal/mol)

>  <smiles>  (79) 
COc1cc(-c2cc(=O)c3ccccc3o2)ccc1O

>  <score_type>  (79) 
oracle

>  <origin>  (79) 
adg

>  <m_score__min__energy>  (79) 
-10.369999999999999

>  <m_primary>  (79) 
energy

$$$$
79:0
     RDKit          3D

 30 31  0  0  0  0  0  0  0  0999 V2000
   61.6020   34.1780   49.1840 C   0  0  0  0  0  0  0  0  0  0  0  0
   60.2620   34.5860   48.9290 O   0  0  0  0  0  0  0  0  0  0  0  0
   59.5480   34.2760   47.7620 C   0  0  0  0  0  0  0  0  0  0  0  0
   58.4990   33.3400   47.7450 C   0  0  0  0  0  0  0  0  0  0  0  0
   57.8170   33.0640   46.5550 C   0  0  0  0  0  0  0  0  0  0  0  0
   58.1740   33.7160   45.3600 C   0  0  0  0  0  0  0  0  0  0  0  0
   57.4960   33.4530   44.1160 N   0  0  0  0  0  0  0  0  0  0  0  0
   57.7730   32.3080   43.2470 C   0  0  0  0  0  0  0  0  0  0  0  0
   57.4740   31.0150   43.9570 C   0  0  0  0  0  0  0  0  0  0  0  0
   58.5170   30.1920   44.4070 C   0  0  0  0  0  0  0  0  0  0  0  0
   58.2300   28.9900   45.0560 C   0  0  0  0  0  0  0  0  0  0  0  0
   56.8980   28.6170   45.2440 C   0  0  0  0  0  0  0  0  0  0  0  0
   55.8970   29.4170   44.7930 N   0  0  0  0  0  0  0  0  0  0  0  0
   56.1500   30.5920   44.1580 C   0  0  0  0  0  0  0  0  0  0  0  0
   59.2180   34.6540   45.3860 C   0  0  0  0  0  0  0  0  0  0  0  0
   59.8980   34.9280   46.5750 C   0  0  0  0  0  0  0  0  0  0  0  0
   61.7694   34.1270   50.2700 H   0  0  0  0  0  0  0  0  0  0  0  0
   61.7743   33.1867   48.7395 H   0  0  0  0  0  0  0  0  0  0  0  0
   62.2976   34.9051   48.7395 H   0  0  0  0  0  0  0  0  0  0  0  0
   58.2130   32.8219   48.6723 H   0  0  0  0  0  0  0  0  0  0  0  0
   56.9958   32.3321   46.5534 H   0  0  0  0  0  0  0  0  0  0  0  0
   56.7830   34.1410   43.7830 H   0  0  0  0  0  0  0  0  0  0  0  0
   57.1456   32.3785   42.3462 H   0  0  0  0  0  0  0  0  0  0  0  0
   58.8382   32.3222   42.9730 H   0  0  0  0  0  0  0  0  0  0  0  0
   59.5626   30.4943   44.2482 H   0  0  0  0  0  0  0  0  0  0  0  0
   59.0444   28.3438   45.4153 H   0  0  0  0  0  0  0  0  0  0  0  0
   56.6587   27.6743   45.7579 H   0  0  0  0  0  0  0  0  0  0  0  0
   55.3155   31.2132   43.8006 H   0  0  0  0  0  0  0  0  0  0  0  0
   59.5032   35.1780   44.4618 H   0  0  0  0  0  0  0  0  0  0  0  0
   60.7162   35.6632   46.5779 H   0  0  0  0  0  0  0  0  0  0  0  0
  1  2  1  0
  2  3  1  0
  3  4  2  0
  4  5  1  0
  5  6  2  0
  6  7  1  0
  7  8  1  0
  8  9  1  0
  9 10  2  0
 10 11  1  0
 11 12  2  0
 12 13  1  0
 13 14  2  0
  6 15  1  0
 15 16  2  0
 16  3  1  0
 14  9  1  0
  1 17  1  0
  1 18  1  0
  1 19  1  0
  4 20  1  0
  5 21  1  0
  7 22  1  0
  8 23  1  0
  8 24  1  0
 10 25  1  0
 11 26  1  0
 12 27  1  0
 14 28  1  0
 15 29  1  0
 16 30  1  0
M  END
>  <UniqueID>  (80) 
73

>  <SMILES>  (80) 
COc1ccc(NCc2cccnc2)cc1

>  <Energy>  (80) 
29.886405862031207

>  <Genealogy>  (80) 
COc1ccc(NCc2cccnc2)cc1 (3D coordinates assigned)
COc1ccc(NCc2cccnc2)cc1 (optimized conformer: 29.886405862031207 kcal/mol)

>  <smiles>  (80) 
COc1ccc(NCc2cccnc2)cc1

>  <score_type>  (80) 
oracle

>  <origin>  (80) 
adg

>  <m_score__min__energy>  (80) 
-5.6500000000000004

>  <m_primary>  (80) 
energy

$$$$
80:0
     RDKit          3D

 41 43  0  0  0  0  0  0  0  0999 V2000
   57.9590   23.8280   45.5900 C   0  0  0  0  0  0  0  0  0  0  0  0
   57.8690   24.9980   44.7110 N   0  0  0  0  0  0  0  0  0  0  0  0
   57.3560   24.8640   43.3440 C   0  0  0  0  0  0  0  0  0  0  0  0
   58.2900   26.2870   45.1950 C   0  0  0  0  0  0  0  0  0  0  0  0
   59.3870   26.3980   45.9940 N   0  0  0  0  0  0  0  0  0  0  0  0
   59.7980   27.6030   46.4630 C   0  0  0  0  0  0  0  0  0  0  0  0
   59.0900   28.7610   46.1260 C   0  0  0  0  0  0  0  0  0  0  0  0
   59.4670   29.9820   46.5870 N   0  0  0  0  0  0  0  0  0  0  0  0
   58.7620   31.1030   46.2680 C   0  0  0  0  0  0  0  0  0  0  0  0
   59.1960   32.4150   46.8080 C   0  0  0  0  0  0  0  0  0  0  0  0
   59.3170   32.6200   48.1940 C   0  0  0  0  0  0  0  0  0  0  0  0
   59.7400   33.8570   48.6910 C   0  0  0  0  0  0  0  0  0  0  0  0
   60.0510   34.8960   47.8100 C   0  0  0  0  0  0  0  0  0  0  0  0
   59.9430   34.6990   46.4310 C   0  0  0  0  0  0  0  0  0  0  0  0
   59.5210   33.4650   45.9300 C   0  0  0  0  0  0  0  0  0  0  0  0
   57.6360   30.9900   45.4240 C   0  0  0  0  0  0  0  0  0  0  0  0
   56.9990   32.0310   45.0930 O   0  0  0  0  0  0  0  0  0  0  0  0
   57.2470   29.7600   44.9490 N   0  0  0  0  0  0  0  0  0  0  0  0
   56.0470   29.6330   44.0930 C   0  0  0  0  0  0  0  0  0  0  0  0
   56.4140   29.6930   42.6050 C   0  0  0  0  0  0  0  0  0  0  0  0
   57.0160   30.9850   42.2550 C   0  0  0  0  0  0  0  0  0  0  0  0
   57.4920   32.0030   41.9800 N   0  0  0  0  0  0  0  0  0  0  0  0
   57.9610   28.6410   45.2980 C   0  0  0  0  0  0  0  0  0  0  0  0
   57.5930   27.4070   44.8570 N   0  0  0  0  0  0  0  0  0  0  0  0
   57.9338   24.1553   46.6399 H   0  0  0  0  0  0  0  0  0  0  0  0
   57.1099   23.1565   45.3948 H   0  0  0  0  0  0  0  0  0  0  0  0
   58.9009   23.2943   45.3948 H   0  0  0  0  0  0  0  0  0  0  0  0
   56.2922   24.5861   43.3772 H   0  0  0  0  0  0  0  0  0  0  0  0
   57.4685   25.8217   42.8146 H   0  0  0  0  0  0  0  0  0  0  0  0
   57.9225   24.0837   42.8146 H   0  0  0  0  0  0  0  0  0  0  0  0
   60.6870   27.6690   47.1075 H   0  0  0  0  0  0  0  0  0  0  0  0
   60.3000   30.0580   47.2170 H   0  0  0  0  0  0  0  0  0  0  0  0
   59.0777   31.8032   48.8909 H   0  0  0  0  0  0  0  0  0  0  0  0
   59.8279   34.0121   49.7765 H   0  0  0  0  0  0  0  0  0  0  0  0
   60.3809   35.8693   48.2022 H   0  0  0  0  0  0  0  0  0  0  0  0
   60.1907   35.5170   45.7385 H   0  0  0  0  0  0  0  0  0  0  0  0
   59.4425   33.3136   44.8433 H   0  0  0  0  0  0  0  0  0  0  0  0
   55.5577   28.6704   44.3027 H   0  0  0  0  0  0  0  0  0  0  0  0
   55.3706   30.4709   44.3175 H   0  0  0  0  0  0  0  0  0  0  0  0
   57.1323   28.8907   42.3806 H   0  0  0  0  0  0  0  0  0  0  0  0
   55.4937   29.5681   42.0155 H   0  0  0  0  0  0  0  0  0  0  0  0
  1  2  1  0
  2  3  1  0
  2  4  1  0
  4  5  2  0
  5  6  1  0
  6  7  2  0
  7  8  1  0
  8  9  2  0
  9 10  1  0
 10 11  2  0
 11 12  1  0
 12 13  2  0
 13 14  1  0
 14 15  2  0
  9 16  1  0
 16 17  2  0
 16 18  1  0
 18 19  1  0
 19 20  1  0
 20 21  1  0
 21 22  3  0
 18 23  1  0
 23 24  2  0
 24  4  1  0
 23  7  1  0
 15 10  1  0
  1 25  1  0
  1 26  1  0
  1 27  1  0
  3 28  1  0
  3 29  1  0
  3 30  1  0
  6 31  1  0
  8 32  1  0
 11 33  1  0
 12 34  1  0
 13 35  1  0
 14 36  1  0
 15 37  1  0
 19 38  1  0
 19 39  1  0
 20 40  1  0
 20 41  1  0
M  CHG  1   8   1
M  END
>  <UniqueID>  (81) 
74

>  <SMILES>  (81) 
CN(C)c1ncc2[nH+]c(-c3ccccc3)c(=O)n(CCC#N)c2n1

>  <Energy>  (81) 
51.275222607639435

>  <Genealogy>  (81) 
CN(C)c1ncc2[nH+]c(-c3ccccc3)c(=O)n(CCC#N)c2n1 (protonated)
CN(C)c1ncc2[nH+]c(-c3ccccc3)c(=O)n(CCC#N)c2n1 (3D coordinates assigned)
CN(C)c1ncc2[nH+]c(-c3ccccc3)c(=O)n(CCC#N)c2n1 (optimized conformer: 51.275222607639435 kcal/mol)

>  <smiles>  (81) 
CN(C)c1ncc2nc(-c3ccccc3)c(=O)n(CCC#N)c2n1

>  <score_type>  (81) 
oracle

>  <origin>  (81) 
adg

>  <m_score__min__energy>  (81) 
-5.1600000000000001

>  <m_primary>  (81) 
energy

$$$$
81:0
     RDKit          3D

 22 22  0  0  0  0  0  0  0  0999 V2000
   57.8570   32.5290   43.5380 C   0  0  0  0  0  0  0  0  0  0  0  0
   57.3660   31.1690   44.5750 S   0  0  0  0  0  0  0  0  0  0  0  0
   57.7360   31.4400   46.0080 O   0  0  0  0  0  0  0  0  0  0  0  0
   55.8740   31.0160   44.4860 O   0  0  0  0  0  0  0  0  0  0  0  0
   58.1140   29.6990   44.0350 N   0  0  0  0  0  0  0  0  0  0  0  0
   58.2480   28.5090   44.8330 C   0  0  0  0  0  0  0  0  0  0  0  0
   59.5010   28.0350   45.2630 C   0  0  0  0  0  0  0  0  0  0  0  0
   59.5900   26.8780   46.0380 C   0  0  0  0  0  0  0  0  0  0  0  0
   58.4360   26.1800   46.3990 C   0  0  0  0  0  0  0  0  0  0  0  0
   57.1740   26.6370   45.9870 C   0  0  0  0  0  0  0  0  0  0  0  0
   55.9510   25.8970   46.3720 C   0  0  0  0  0  0  0  0  0  0  0  0
   56.0220   24.8790   47.1100 O   0  0  0  0  0  0  0  0  0  0  0  0
   54.7030   26.3170   45.9230 O   0  0  0  0  0  0  0  0  0  0  0  0
   57.0910   27.8040   45.2050 C   0  0  0  0  0  0  0  0  0  0  0  0
   58.1634   33.3778   44.1671 H   0  0  0  0  0  0  0  0  0  0  0  0
   58.7003   32.2200   42.9029 H   0  0  0  0  0  0  0  0  0  0  0  0
   57.0108   32.8300   42.9029 H   0  0  0  0  0  0  0  0  0  0  0  0
   58.5460   29.7190   43.0830 H   0  0  0  0  0  0  0  0  0  0  0  0
   60.4158   28.5797   44.9866 H   0  0  0  0  0  0  0  0  0  0  0  0
   60.5747   26.5139   46.3663 H   0  0  0  0  0  0  0  0  0  0  0  0
   58.5159   25.2680   47.0089 H   0  0  0  0  0  0  0  0  0  0  0  0
   56.1057   28.1697   44.8802 H   0  0  0  0  0  0  0  0  0  0  0  0
  1  2  1  0
  2  3  2  0
  2  4  2  0
  2  5  1  0
  5  6  1  0
  6  7  2  0
  7  8  1  0
  8  9  2  0
  9 10  1  0
 10 11  1  0
 11 12  2  0
 11 13  1  0
 10 14  2  0
 14  6  1  0
  1 15  1  0
  1 16  1  0
  1 17  1  0
  5 18  1  0
  7 19  1  0
  8 20  1  0
  9 21  1  0
 14 22  1  0
M  CHG  1  13  -1
M  END
>  <UniqueID>  (82) 
75

>  <SMILES>  (82) 
CS(=O)(=O)Nc1cccc(C(=O)[O-])c1

>  <Energy>  (82) 
19.90185891063894

>  <Genealogy>  (82) 
CS(=O)(=O)Nc1cccc(C(=O)[O-])c1 (protonated)
CS(=O)(=O)Nc1cccc(C(=O)[O-])c1 (3D coordinates assigned)
CS(=O)(=O)Nc1cccc(C(=O)[O-])c1 (optimized conformer: 19.90185891063894 kcal/mol)

>  <smiles>  (82) 
CS(=O)(=O)Nc1cccc(C(=O)O)c1

>  <score_type>  (82) 
oracle

>  <origin>  (82) 
adg

>  <m_score__min__energy>  (82) 
-9.4399999999999995

>  <m_primary>  (82) 
energy

$$$$
82:0
     RDKit          3D

 48 50  0  0  0  0  0  0  0  0999 V2000
   56.6990   32.9323   43.5417 H   0  0  0  0  0  0  0  0  0  0  0  0
   57.3930   32.4210   44.2250 C   0  0  0  0  0  0  0  0  0  0  0  0
   57.5390   31.0940   44.0850 C   0  0  0  0  0  0  0  0  0  0  0  0
   56.7035   30.5413   43.6305 H   0  0  0  0  0  0  0  0  0  0  0  0
   58.7550   30.2930   44.4990 C   0  0  0  0  0  0  0  0  0  0  0  0
   59.4245   30.9456   45.0785 H   0  0  0  0  0  0  0  0  0  0  0  0
   59.2360   29.9248   43.5808 H   0  0  0  0  0  0  0  0  0  0  0  0
   58.4130   29.1110   45.3270 N   0  0  1  0  0  0  0  0  0  0  0  0
   57.6160   29.3530   45.9580 H   0  0  0  0  0  0  0  0  0  0  0  0
   57.9520   28.0170   44.4510 C   0  0  0  0  0  0  0  0  0  0  0  0
   57.5983   27.1777   45.0678 H   0  0  0  0  0  0  0  0  0  0  0  0
   57.1293   28.3776   43.8160 H   0  0  0  0  0  0  0  0  0  0  0  0
   58.7847   27.6801   43.8160 H   0  0  0  0  0  0  0  0  0  0  0  0
   59.5740   28.6690   46.1430 C   0  0  0  0  0  0  0  0  0  0  0  0
   60.3953   28.3824   45.4697 H   0  0  0  0  0  0  0  0  0  0  0  0
   59.2562   27.8156   46.7600 H   0  0  0  0  0  0  0  0  0  0  0  0
   60.0550   29.7650   47.0640 C   0  0  0  0  0  0  0  0  0  0  0  0
   59.3580   30.0620   48.2470 C   0  0  0  0  0  0  0  0  0  0  0  0
   58.4679   29.4758   48.5192 H   0  0  0  0  0  0  0  0  0  0  0  0
   59.7890   31.0980   49.0800 C   0  0  0  0  0  0  0  0  0  0  0  0
   59.2392   31.3203   50.0064 H   0  0  0  0  0  0  0  0  0  0  0  0
   60.9200   31.8560   48.7400 C   0  0  0  0  0  0  0  0  0  0  0  0
   61.3560   32.9020   49.5670 C   0  0  0  0  0  0  0  0  0  0  0  0
   60.8098   33.1299   50.4942 H   0  0  0  0  0  0  0  0  0  0  0  0
   62.4890   33.6620   49.2170 C   0  0  0  0  0  0  0  0  0  0  0  0
   62.9620   34.7170   50.0110 O   0  0  0  0  0  0  0  0  0  0  0  0
   63.6780   34.5500   51.2300 C   0  0  0  0  0  0  0  0  0  0  0  0
   62.9976   34.7087   52.0796 H   0  0  0  0  0  0  0  0  0  0  0  0
   64.0908   33.5315   51.2762 H   0  0  0  0  0  0  0  0  0  0  0  0
   64.4989   35.2808   51.2762 H   0  0  0  0  0  0  0  0  0  0  0  0
   63.1760   33.3650   48.0330 C   0  0  0  0  0  0  0  0  0  0  0  0
   64.0603   33.9565   47.7533 H   0  0  0  0  0  0  0  0  0  0  0  0
   62.7490   32.3250   47.2040 C   0  0  0  0  0  0  0  0  0  0  0  0
   63.2982   32.1026   46.2773 H   0  0  0  0  0  0  0  0  0  0  0  0
   61.6240   31.5640   47.5480 C   0  0  0  0  0  0  0  0  0  0  0  0
   61.1880   30.5190   46.7200 C   0  0  0  0  0  0  0  0  0  0  0  0
   61.7374   30.2889   45.7952 H   0  0  0  0  0  0  0  0  0  0  0  0
   58.0950   33.2440   45.2280 C   0  0  0  0  0  0  0  0  0  0  0  0
   59.0390   34.2130   44.8500 C   0  0  0  0  0  0  0  0  0  0  0  0
   59.2715   34.3666   43.7859 H   0  0  0  0  0  0  0  0  0  0  0  0
   59.6840   34.9830   45.8230 C   0  0  0  0  0  0  0  0  0  0  0  0
   60.4127   35.7502   45.5223 H   0  0  0  0  0  0  0  0  0  0  0  0
   59.4040   34.7790   47.1770 C   0  0  0  0  0  0  0  0  0  0  0  0
   59.9056   35.3916   47.9406 H   0  0  0  0  0  0  0  0  0  0  0  0
   58.4870   33.7970   47.5610 C   0  0  0  0  0  0  0  0  0  0  0  0
   58.2725   33.6321   48.6272 H   0  0  0  0  0  0  0  0  0  0  0  0
   57.8420   33.0240   46.5910 C   0  0  0  0  0  0  0  0  0  0  0  0
   57.1334   32.2403   46.8971 H   0  0  0  0  0  0  0  0  0  0  0  0
  1  2  1  0
  2  3  2  0
  3  4  1  0
  3  5  1  0
  5  6  1  0
  5  7  1  0
  5  8  1  0
  8  9  1  1
  8 10  1  0
 10 11  1  0
 10 12  1  0
 10 13  1  0
  8 14  1  0
 14 15  1  0
 14 16  1  0
 14 17  1  0
 17 18  2  0
 18 19  1  0
 18 20  1  0
 20 21  1  0
 20 22  2  0
 22 23  1  0
 23 24  1  0
 23 25  2  0
 25 26  1  0
 26 27  1  0
 27 28  1  0
 27 29  1  0
 27 30  1  0
 25 31  1  0
 31 32  1  0
 31 33  2  0
 33 34  1  0
 33 35  1  0
 35 36  2  0
 36 37  1  0
  2 38  1  0
 38 39  2  0
 39 40  1  0
 39 41  1  0
 41 42  1  0
 41 43  2  0
 43 44  1  0
 43 45  1  0
 45 46  1  0
 45 47  2  0
 47 48  1  0
 36 17  1  0
 47 38  1  0
 35 22  1  0
M  CHG  1   8   1
M  END
>  <UniqueID>  (83) 
76

>  <SMILES>  (83) 
COc1ccc2cc(C[N@H+](C)C/C=C\c3ccccc3)ccc2c1

>  <Energy>  (83) 
58.34291284704516

>  <Genealogy>  (83) 
COc1ccc2cc(C[NH+](C)CC=Cc3ccccc3)ccc2c1 (protonated)
COc1ccc2cc(C[N@H+](C)CC=Cc3ccccc3)ccc2c1 (chirality)
COc1ccc2cc(C[N@H+](C)C/C=C\c3ccccc3)ccc2c1 (cis-trans isomerization)
COc1ccc2cc(C[N@H+](C)C/C=C\c3ccccc3)ccc2c1 (3D coordinates assigned)
COc1ccc2cc(C[N@H+](C)C/C=C\c3ccccc3)ccc2c1 (optimized conformer: 58.34291284704516 kcal/mol)

>  <smiles>  (83) 
COc1ccc2cc(CN(C)CC=Cc3ccccc3)ccc2c1

>  <score_type>  (83) 
oracle

>  <origin>  (83) 
adg

>  <m_score__min__energy>  (83) 
-6.2599999999999998

>  <m_primary>  (83) 
energy

$$$$
83:0
     RDKit          3D

 48 53  0  0  0  0  0  0  0  0999 V2000
   56.5320   29.2150   54.3620 N   0  0  0  0  0  0  0  0  0  0  0  0
   57.0100   30.0490   53.7180 C   0  0  0  0  0  0  0  0  0  0  0  0
   57.6040   31.0860   52.9160 C   0  0  0  0  0  0  0  0  0  0  0  0
   57.7790   32.3830   53.4550 C   0  0  0  0  0  0  0  0  0  0  0  0
   58.3580   33.4050   52.6810 C   0  0  0  0  0  0  0  0  0  0  0  0
   58.7480   33.0950   51.3800 C   0  0  0  0  0  0  0  0  0  0  0  0
   59.3110   33.9170   50.4790 N   0  0  0  0  0  0  0  0  0  0  0  0
   59.5050   33.1650   49.3700 C   0  0  0  0  0  0  0  0  0  0  0  0
   60.0920   33.6920   48.0870 C   0  0  2  0  0  0  0  0  0  0  0  0
   59.3780   33.1590   46.8630 C   0  0  0  0  0  0  0  0  0  0  0  0
   59.1330   33.8650   45.6820 C   0  0  0  0  0  0  0  0  0  0  0  0
   58.5630   32.9500   44.8260 C   0  0  0  0  0  0  0  0  0  0  0  0
   58.1170   33.0890   43.5140 C   0  0  0  0  0  0  0  0  0  0  0  0
   57.5870   31.9520   42.8760 C   0  0  0  0  0  0  0  0  0  0  0  0
   57.5240   30.7160   43.5570 C   0  0  0  0  0  0  0  0  0  0  0  0
   57.9880   30.6060   44.8810 C   0  0  0  0  0  0  0  0  0  0  0  0
   58.5020   31.7520   45.4870 C   0  0  0  0  0  0  0  0  0  0  0  0
   59.0070   31.8620   46.7260 N   0  0  0  0  0  0  0  0  0  0  0  0
   61.5650   33.3730   48.0590 C   0  0  0  0  0  0  0  0  0  0  0  0
   62.2580   32.6720   47.0720 C   0  0  0  0  0  0  0  0  0  0  0  0
   63.5460   32.4820   47.4400 N   0  0  0  0  0  0  0  0  0  0  0  0
   63.6700   33.0370   48.6570 C   0  0  0  0  0  0  0  0  0  0  0  0
   64.8090   33.0630   49.4600 C   0  0  0  0  0  0  0  0  0  0  0  0
   64.7090   33.6690   50.7250 C   0  0  0  0  0  0  0  0  0  0  0  0
   63.4840   34.2240   51.1580 C   0  0  0  0  0  0  0  0  0  0  0  0
   62.3480   34.1800   50.3280 C   0  0  0  0  0  0  0  0  0  0  0  0
   62.4820   33.5810   49.0730 C   0  0  0  0  0  0  0  0  0  0  0  0
   59.0550   31.8610   49.5640 C   0  0  0  0  0  0  0  0  0  0  0  0
   58.5790   31.8400   50.8570 C   0  0  0  0  0  0  0  0  0  0  0  0
   58.0080   30.8060   51.5940 C   0  0  0  0  0  0  0  0  0  0  0  0
   57.4600   32.5933   54.4865 H   0  0  0  0  0  0  0  0  0  0  0  0
   58.4983   34.4165   53.0899 H   0  0  0  0  0  0  0  0  0  0  0  0
   59.5480   34.9270   50.6100 H   0  0  0  0  0  0  0  0  0  0  0  0
   59.9537   34.7829   48.0574 H   0  0  0  0  0  0  0  0  0  0  0  0
   59.3492   34.9244   45.4799 H   0  0  0  0  0  0  0  0  0  0  0  0
   58.1770   34.0561   42.9933 H   0  0  0  0  0  0  0  0  0  0  0  0
   57.2199   32.0262   41.8417 H   0  0  0  0  0  0  0  0  0  0  0  0
   57.1092   29.8331   43.0487 H   0  0  0  0  0  0  0  0  0  0  0  0
   57.9466   29.6480   45.4200 H   0  0  0  0  0  0  0  0  0  0  0  0
   59.1090   31.0970   47.4310 H   0  0  0  0  0  0  0  0  0  0  0  0
   61.8185   32.3224   46.1262 H   0  0  0  0  0  0  0  0  0  0  0  0
   64.2840   31.9840   46.8950 H   0  0  0  0  0  0  0  0  0  0  0  0
   65.7564   32.6233   49.1150 H   0  0  0  0  0  0  0  0  0  0  0  0
   65.5904   33.7112   51.3818 H   0  0  0  0  0  0  0  0  0  0  0  0
   63.4176   34.6937   52.1505 H   0  0  0  0  0  0  0  0  0  0  0  0
   61.3872   34.6030   50.6564 H   0  0  0  0  0  0  0  0  0  0  0  0
   59.0752   31.0303   48.8432 H   0  0  0  0  0  0  0  0  0  0  0  0
   57.8763   29.8040   51.1597 H   0  0  0  0  0  0  0  0  0  0  0  0
  1  2  3  0
  2  3  1  0
  3  4  2  0
  4  5  1  0
  5  6  2  0
  6  7  1  0
  7  8  1  0
  8  9  1  0
  9 10  1  0
 10 11  2  0
 11 12  1  0
 12 13  2  0
 13 14  1  0
 14 15  2  0
 15 16  1  0
 16 17  2  0
 17 18  1  0
  9 19  1  0
 19 20  2  0
 20 21  1  0
 21 22  1  0
 22 23  2  0
 23 24  1  0
 24 25  2  0
 25 26  1  0
 26 27  2  0
  8 28  2  0
 28 29  1  0
 29 30  2  0
 30  3  1  0
 29  6  1  0
 18 10  1  0
 27 19  1  0
 17 12  1  0
 27 22  1  0
  4 31  1  0
  5 32  1  0
  7 33  1  0
  9 34  1  1
 11 35  1  0
 13 36  1  0
 14 37  1  0
 15 38  1  0
 16 39  1  0
 18 40  1  0
 20 41  1  0
 21 42  1  0
 23 43  1  0
 24 44  1  0
 25 45  1  0
 26 46  1  0
 28 47  1  0
 30 48  1  0
M  END
>  <UniqueID>  (84) 
77

>  <SMILES>  (84) 
N#Cc1ccc2[nH]c([C@H](c3cc4ccccc4[nH]3)c3c[nH]c4ccccc34)cc2c1

>  <Energy>  (84) 
152.64685891187355

>  <Genealogy>  (84) 
N#Cc1ccc2[nH]c([C@H](c3cc4ccccc4[nH]3)c3c[nH]c4ccccc34)cc2c1 (chirality)
N#Cc1ccc2[nH]c([C@H](c3cc4ccccc4[nH]3)c3c[nH]c4ccccc34)cc2c1 (3D coordinates assigned)
N#Cc1ccc2[nH]c([C@H](c3cc4ccccc4[nH]3)c3c[nH]c4ccccc34)cc2c1 (optimized conformer: 152.64685891187355 kcal/mol)

>  <smiles>  (84) 
N#Cc1ccc2[nH]c(C(c3cc4ccccc4[nH]3)c3c[nH]c4ccccc34)cc2c1

>  <score_type>  (84) 
oracle

>  <origin>  (84) 
adg

>  <m_score__min__energy>  (84) 
-8.8100000000000005

>  <m_primary>  (84) 
energy

$$$$
84:0
     RDKit          3D

 25 26  0  0  0  0  0  0  0  0999 V2000
   58.1440   27.0530   43.7110 C   0  0  0  0  0  0  0  0  0  0  0  0
   57.8750   28.4780   44.0910 C   0  0  0  0  0  0  0  0  0  0  0  0
   58.9190   29.3140   44.5100 C   0  0  0  0  0  0  0  0  0  0  0  0
   58.6510   30.6260   44.8990 C   0  0  0  0  0  0  0  0  0  0  0  0
   57.3280   31.1010   44.8690 C   0  0  0  0  0  0  0  0  0  0  0  0
   57.0000   32.4040   45.2660 O   0  0  0  0  0  0  0  0  0  0  0  0
   57.9060   33.3610   45.7460 C   0  0  0  0  0  0  0  0  0  0  0  0
   58.3640   34.3530   44.8710 C   0  0  0  0  0  0  0  0  0  0  0  0
   59.2800   35.3160   45.3090 C   0  0  0  0  0  0  0  0  0  0  0  0
   59.7520   35.2860   46.6230 C   0  0  0  0  0  0  0  0  0  0  0  0
   59.3170   34.2870   47.5000 C   0  0  0  0  0  0  0  0  0  0  0  0
   59.9270   34.2380   49.1450 Cl  0  0  0  0  0  0  0  0  0  0  0  0
   58.4020   33.3220   47.0630 C   0  0  0  0  0  0  0  0  0  0  0  0
   56.3270   30.2600   44.4920 N   0  0  0  0  0  0  0  0  0  0  0  0
   56.5650   28.9780   44.1090 C   0  0  0  0  0  0  0  0  0  0  0  0
   58.2586   26.4461   44.6213 H   0  0  0  0  0  0  0  0  0  0  0  0
   57.3029   26.6670   43.1164 H   0  0  0  0  0  0  0  0  0  0  0  0
   59.0680   27.0002   43.1164 H   0  0  0  0  0  0  0  0  0  0  0  0
   59.9513   28.9346   44.5320 H   0  0  0  0  0  0  0  0  0  0  0  0
   59.4687   31.2846   45.2270 H   0  0  0  0  0  0  0  0  0  0  0  0
   58.0016   34.3757   43.8327 H   0  0  0  0  0  0  0  0  0  0  0  0
   59.6286   36.0974   44.6176 H   0  0  0  0  0  0  0  0  0  0  0  0
   60.4660   36.0482   46.9684 H   0  0  0  0  0  0  0  0  0  0  0  0
   58.0694   32.5306   47.7508 H   0  0  0  0  0  0  0  0  0  0  0  0
   55.7270   28.3302   43.8120 H   0  0  0  0  0  0  0  0  0  0  0  0
  1  2  1  0
  2  3  2  0
  3  4  1  0
  4  5  2  0
  5  6  1  0
  6  7  1  0
  7  8  2  0
  8  9  1  0
  9 10  2  0
 10 11  1  0
 11 12  1  0
 11 13  2  0
  5 14  1  0
 14 15  2  0
 15  2  1  0
 13  7  1  0
  1 16  1  0
  1 17  1  0
  1 18  1  0
  3 19  1  0
  4 20  1  0
  8 21  1  0
  9 22  1  0
 10 23  1  0
 13 24  1  0
 15 25  1  0
M  END
>  <UniqueID>  (85) 
78

>  <SMILES>  (85) 
Cc1ccc(Oc2cccc(Cl)c2)nc1

>  <Energy>  (85) 
32.009103951723574

>  <Genealogy>  (85) 
Cc1ccc(Oc2cccc(Cl)c2)nc1 (3D coordinates assigned)
Cc1ccc(Oc2cccc(Cl)c2)nc1 (optimized conformer: 32.009103951723574 kcal/mol)

>  <smiles>  (85) 
Cc1ccc(Oc2cccc(Cl)c2)nc1

>  <score_type>  (85) 
oracle

>  <origin>  (85) 
adg

>  <m_score__min__energy>  (85) 
-6.5199999999999996

>  <m_primary>  (85) 
energy

$$$$
85:0
     RDKit          3D

 50 52  0  0  0  0  0  0  0  0999 V2000
   55.2600   29.5250   44.5830 N   0  0  0  0  0  0  0  0  0  0  0  0
   56.7060   29.3010   44.4960 C   0  0  0  0  0  0  0  0  0  0  0  0
   57.1710   28.2990   45.5810 C   0  0  0  0  0  0  0  0  0  0  0  0
   58.6520   28.4800   45.9300 C   0  0  0  0  0  0  0  0  0  0  0  0
   58.9210   29.8580   46.3780 N   0  0  0  0  0  0  0  0  0  0  0  0
   59.9990   30.1470   47.2970 C   0  0  0  0  0  0  0  0  0  0  0  0
   61.1090   30.9160   46.9110 C   0  0  0  0  0  0  0  0  0  0  0  0
   62.1280   31.1610   47.8460 C   0  0  0  0  0  0  0  0  0  0  0  0
   63.2730   31.9050   47.5260 O   0  0  0  0  0  0  0  0  0  0  0  0
   63.3460   33.3320   47.4880 C   0  0  0  0  0  0  0  0  0  0  0  0
   62.4580   33.8870   46.3700 C   0  0  0  0  0  0  0  0  0  0  0  0
   61.0270   33.7920   46.7390 N   0  0  0  0  0  0  0  0  0  0  0  0
   60.8090   34.1640   48.1590 C   0  0  0  0  0  0  0  0  0  0  0  0
   59.3140   34.3440   48.5060 C   0  0  0  0  0  0  0  0  0  0  0  0
   58.4080   33.7050   47.4520 C   0  0  0  0  0  0  0  0  0  0  0  0
   58.6940   34.2850   46.0580 C   0  0  0  0  0  0  0  0  0  0  0  0
   60.1850   34.6140   45.8480 C   0  0  0  0  0  0  0  0  0  0  0  0
   61.9990   30.6770   49.1110 N   0  0  0  0  0  0  0  0  0  0  0  0
   60.9200   29.9370   49.4740 C   0  0  0  0  0  0  0  0  0  0  0  0
   59.9380   29.6780   48.5730 N   0  0  0  0  0  0  0  0  0  0  0  0
   58.0330   30.9490   45.9400 C   0  0  0  0  0  0  0  0  0  0  0  0
   57.4590   30.6510   44.5510 C   0  0  0  0  0  0  0  0  0  0  0  0
   55.0270   29.9160   45.5260 H   0  0  0  0  0  0  0  0  0  0  0  0
   54.7710   28.6060   44.4930 H   0  0  0  0  0  0  0  0  0  0  0  0
   56.9487   28.8401   43.5271 H   0  0  0  0  0  0  0  0  0  0  0  0
   56.5702   28.4544   46.4892 H   0  0  0  0  0  0  0  0  0  0  0  0
   57.0363   27.2816   45.1851 H   0  0  0  0  0  0  0  0  0  0  0  0
   58.9206   27.7804   46.7352 H   0  0  0  0  0  0  0  0  0  0  0  0
   59.2526   28.2787   45.0307 H   0  0  0  0  0  0  0  0  0  0  0  0
   61.1793   31.3208   45.8906 H   0  0  0  0  0  0  0  0  0  0  0  0
   63.0080   33.7372   48.4532 H   0  0  0  0  0  0  0  0  0  0  0  0
   64.3873   33.6291   47.2947 H   0  0  0  0  0  0  0  0  0  0  0  0
   62.7160   34.9418   46.1946 H   0  0  0  0  0  0  0  0  0  0  0  0
   62.6272   33.2948   45.4586 H   0  0  0  0  0  0  0  0  0  0  0  0
   61.2256   33.3717   48.7982 H   0  0  0  0  0  0  0  0  0  0  0  0
   61.3081   35.1293   48.3298 H   0  0  0  0  0  0  0  0  0  0  0  0
   59.1149   33.8733   49.4800 H   0  0  0  0  0  0  0  0  0  0  0  0
   59.0965   35.4218   48.5375 H   0  0  0  0  0  0  0  0  0  0  0  0
   58.5865   32.6197   47.4340 H   0  0  0  0  0  0  0  0  0  0  0  0
   57.3609   33.9181   47.7131 H   0  0  0  0  0  0  0  0  0  0  0  0
   58.3852   33.5498   45.3003 H   0  0  0  0  0  0  0  0  0  0  0  0
   58.1291   35.2243   45.9654 H   0  0  0  0  0  0  0  0  0  0  0  0
   60.4570   34.4087   44.8021 H   0  0  0  0  0  0  0  0  0  0  0  0
   60.3510   35.6759   46.0820 H   0  0  0  0  0  0  0  0  0  0  0  0
   62.7470   30.8650   49.8150 H   0  0  0  0  0  0  0  0  0  0  0  0
   60.8414   29.5468   50.4995 H   0  0  0  0  0  0  0  0  0  0  0  0
   57.2064   31.0530   46.6583 H   0  0  0  0  0  0  0  0  0  0  0  0
   58.6139   31.8818   45.8915 H   0  0  0  0  0  0  0  0  0  0  0  0
   56.7602   31.4556   44.2785 H   0  0  0  0  0  0  0  0  0  0  0  0
   58.3026   30.5910   43.8476 H   0  0  0  0  0  0  0  0  0  0  0  0
  1  2  1  0
  2  3  1  0
  3  4  1  0
  4  5  1  0
  5  6  1  0
  6  7  2  0
  7  8  1  0
  8  9  1  0
  9 10  1  0
 10 11  1  0
 11 12  1  0
 12 13  1  0
 13 14  1  0
 14 15  1  0
 15 16  1  0
 16 17  1  0
  8 18  2  0
 18 19  1  0
 19 20  2  0
  5 21  1  0
 21 22  1  0
 22  2  1  0
 20  6  1  0
 17 12  1  0
  1 23  1  0
  1 24  1  0
  2 25  1  0
  3 26  1  0
  3 27  1  0
  4 28  1  0
  4 29  1  0
  7 30  1  0
 10 31  1  0
 10 32  1  0
 11 33  1  0
 11 34  1  0
 13 35  1  0
 13 36  1  0
 14 37  1  0
 14 38  1  0
 15 39  1  0
 15 40  1  0
 16 41  1  0
 16 42  1  0
 17 43  1  0
 17 44  1  0
 18 45  1  0
 19 46  1  0
 21 47  1  0
 21 48  1  0
 22 49  1  0
 22 50  1  0
M  CHG  1  18   1
M  END
>  <UniqueID>  (86) 
79

>  <SMILES>  (86) 
NC1CCN(c2cc(OCCN3CCCCC3)[nH+]cn2)CC1

>  <Energy>  (86) 
56.17620286485456

>  <Genealogy>  (86) 
NC1CCN(c2cc(OCCN3CCCCC3)[nH+]cn2)CC1 (protonated)
NC1CCN(c2cc(OCCN3CCCCC3)[nH+]cn2)CC1 (3D coordinates assigned)
NC1CCN(c2cc(OCCN3CCCCC3)[nH+]cn2)CC1 (nonaromatic ring conformer: 56.17620286485456 kcal/mol)

>  <smiles>  (86) 
NC1CCN(c2cc(OCCN3CCCCC3)ncn2)CC1

>  <score_type>  (86) 
oracle

>  <origin>  (86) 
adg

>  <m_score__min__energy>  (86) 
-5.9199999999999999

>  <m_primary>  (86) 
energy

$$$$
86:0
     RDKit          3D

 29 30  0  0  0  0  0  0  0  0999 V2000
   59.0850   28.0700   46.4740 O   0  0  0  0  0  0  0  0  0  0  0  0
   58.0740   28.7640   46.1850 C   0  0  0  0  0  0  0  0  0  0  0  0
   56.8630   28.0910   45.6050 C   0  0  0  0  0  0  0  0  0  0  0  0
   55.8460   29.0740   45.2450 N   0  0  0  0  0  0  0  0  0  0  0  0
   55.8710   29.9640   44.1200 C   0  0  0  0  0  0  0  0  0  0  0  0
   55.1530   29.6890   43.1230 O   0  0  0  0  0  0  0  0  0  0  0  0
   56.7030   31.1860   44.0810 C   0  0  0  0  0  0  0  0  0  0  0  0
   57.6000   31.5100   43.0810 C   0  0  0  0  0  0  0  0  0  0  0  0
   58.1500   32.7200   43.4480 C   0  0  0  0  0  0  0  0  0  0  0  0
   57.5600   33.0570   44.6480 C   0  0  0  0  0  0  0  0  0  0  0  0
   56.7060   32.1250   44.9980 O   0  0  0  0  0  0  0  0  0  0  0  0
   58.0760   30.1850   46.4000 N   0  0  0  0  0  0  0  0  0  0  0  0
   59.2150   30.9200   46.8750 C   0  0  0  0  0  0  0  0  0  0  0  0
   60.5220   30.4290   46.7040 C   0  0  0  0  0  0  0  0  0  0  0  0
   61.6200   31.1690   47.1540 C   0  0  0  0  0  0  0  0  0  0  0  0
   61.4260   32.4110   47.7650 C   0  0  0  0  0  0  0  0  0  0  0  0
   62.9270   33.4210   48.3760 Br  0  0  0  0  0  0  0  0  0  0  0  0
   60.1310   32.9180   47.9190 C   0  0  0  0  0  0  0  0  0  0  0  0
   59.0300   32.1810   47.4700 C   0  0  0  0  0  0  0  0  0  0  0  0
   57.7820   32.6860   47.6310 F   0  0  0  0  0  0  0  0  0  0  0  0
   57.1579   27.5312   44.7052 H   0  0  0  0  0  0  0  0  0  0  0  0
   56.4431   27.4096   46.3596 H   0  0  0  0  0  0  0  0  0  0  0  0
   57.8281   30.9237   42.1786 H   0  0  0  0  0  0  0  0  0  0  0  0
   58.9054   33.2985   42.8961 H   0  0  0  0  0  0  0  0  0  0  0  0
   57.7733   33.9693   45.2244 H   0  0  0  0  0  0  0  0  0  0  0  0
   57.1680   30.6960   46.3080 H   0  0  0  0  0  0  0  0  0  0  0  0
   60.6813   29.4574   46.2135 H   0  0  0  0  0  0  0  0  0  0  0  0
   62.6383   30.7728   47.0269 H   0  0  0  0  0  0  0  0  0  0  0  0
   59.9783   33.8983   48.3942 H   0  0  0  0  0  0  0  0  0  0  0  0
  1  2  2  0
  2  3  1  0
  3  4  1  0
  4  5  1  0
  5  6  2  0
  5  7  1  0
  7  8  2  0
  8  9  1  0
  9 10  2  0
 10 11  1  0
  2 12  1  0
 12 13  1  0
 13 14  2  0
 14 15  1  0
 15 16  2  0
 16 17  1  0
 16 18  1  0
 18 19  2  0
 19 20  1  0
 11  7  1  0
 19 13  1  0
  3 21  1  0
  3 22  1  0
  8 23  1  0
  9 24  1  0
 10 25  1  0
 12 26  1  0
 14 27  1  0
 15 28  1  0
 18 29  1  0
M  CHG  1   4  -1
M  END
>  <UniqueID>  (87) 
80

>  <SMILES>  (87) 
O=C(C[N-]C(=O)c1ccco1)Nc1ccc(Br)cc1F

>  <Energy>  (87) 
56.59802959498631

>  <Genealogy>  (87) 
O=C(C[N-]C(=O)c1ccco1)Nc1ccc(Br)cc1F (protonated)
O=C(C[N-]C(=O)c1ccco1)Nc1ccc(Br)cc1F (3D coordinates assigned)
O=C(C[N-]C(=O)c1ccco1)Nc1ccc(Br)cc1F (optimized conformer: 56.59802959498631 kcal/mol)

>  <smiles>  (87) 
O=C(CNC(=O)c1ccco1)Nc1ccc(Br)cc1F

>  <score_type>  (87) 
oracle

>  <origin>  (87) 
adg

>  <m_score__min__energy>  (87) 
-8.5099999999999998

>  <m_primary>  (87) 
energy

$$$$
87:0
     RDKit          3D

 32 34  0  0  0  0  0  0  0  0999 V2000
   55.6380   22.2140   43.8190 O   0  0  0  0  0  0  0  0  0  0  0  0
   56.0880   23.3260   44.2030 C   0  0  0  0  0  0  0  0  0  0  0  0
   57.3200   23.7810   43.7460 C   0  0  0  0  0  0  0  0  0  0  0  0
   57.7720   24.9850   44.1760 N   0  0  0  0  0  0  0  0  0  0  0  0
   57.0660   25.7420   45.0200 N   0  0  0  0  0  0  0  0  0  0  0  0
   57.6170   27.0100   45.4240 C   0  0  0  0  0  0  0  0  0  0  0  0
   57.8640   28.0240   44.4830 C   0  0  0  0  0  0  0  0  0  0  0  0
   58.4220   29.2410   44.8850 C   0  0  0  0  0  0  0  0  0  0  0  0
   58.7620   29.4550   46.2310 C   0  0  0  0  0  0  0  0  0  0  0  0
   59.3070   30.6690   46.6760 O   0  0  0  0  0  0  0  0  0  0  0  0
   58.9570   31.9410   46.1970 C   0  0  0  0  0  0  0  0  0  0  0  0
   59.8540   33.0010   46.3870 C   0  0  0  0  0  0  0  0  0  0  0  0
   59.5480   34.2790   45.9090 C   0  0  0  0  0  0  0  0  0  0  0  0
   58.3490   34.5030   45.2280 C   0  0  0  0  0  0  0  0  0  0  0  0
   57.4570   33.4480   45.0160 C   0  0  0  0  0  0  0  0  0  0  0  0
   57.7610   32.1690   45.4920 C   0  0  0  0  0  0  0  0  0  0  0  0
   58.5120   28.4480   47.1690 C   0  0  0  0  0  0  0  0  0  0  0  0
   57.9570   27.2290   46.7690 C   0  0  0  0  0  0  0  0  0  0  0  0
   55.8580   25.2910   45.4910 C   0  0  0  0  0  0  0  0  0  0  0  0
   55.1960   25.9670   46.3270 O   0  0  0  0  0  0  0  0  0  0  0  0
   55.3770   24.0910   45.0700 N   0  0  0  0  0  0  0  0  0  0  0  0
   57.9170   23.1753   43.0484 H   0  0  0  0  0  0  0  0  0  0  0  0
   57.6168   27.8591   43.4239 H   0  0  0  0  0  0  0  0  0  0  0  0
   58.5957   30.0349   44.1437 H   0  0  0  0  0  0  0  0  0  0  0  0
   60.8033   32.8268   46.9147 H   0  0  0  0  0  0  0  0  0  0  0  0
   60.2521   35.1088   46.0694 H   0  0  0  0  0  0  0  0  0  0  0  0
   58.1067   35.5103   44.8584 H   0  0  0  0  0  0  0  0  0  0  0  0
   56.5158   33.6240   44.4746 H   0  0  0  0  0  0  0  0  0  0  0  0
   57.0625   31.3379   45.3146 H   0  0  0  0  0  0  0  0  0  0  0  0
   58.7538   28.6165   48.2288 H   0  0  0  0  0  0  0  0  0  0  0  0
   57.7855   26.4364   47.5122 H   0  0  0  0  0  0  0  0  0  0  0  0
   54.4540   23.7490   45.4260 H   0  0  0  0  0  0  0  0  0  0  0  0
  1  2  2  0
  2  3  1  0
  3  4  2  0
  4  5  1  0
  5  6  1  0
  6  7  2  0
  7  8  1  0
  8  9  2  0
  9 10  1  0
 10 11  1  0
 11 12  2  0
 12 13  1  0
 13 14  2  0
 14 15  1  0
 15 16  2  0
  9 17  1  0
 17 18  2  0
  5 19  1  0
 19 20  2  0
 19 21  1  0
 21  2  1  0
 18  6  1  0
 16 11  1  0
  3 22  1  0
  7 23  1  0
  8 24  1  0
 12 25  1  0
 13 26  1  0
 14 27  1  0
 15 28  1  0
 16 29  1  0
 17 30  1  0
 18 31  1  0
 21 32  1  0
M  END
>  <UniqueID>  (88) 
81

>  <SMILES>  (88) 
O=c1cnn(-c2ccc(Oc3ccccc3)cc2)c(=O)[nH]1

>  <Energy>  (88) 
50.14380196057055

>  <Genealogy>  (88) 
O=c1cnn(-c2ccc(Oc3ccccc3)cc2)c(=O)[nH]1 (3D coordinates assigned)
O=c1cnn(-c2ccc(Oc3ccccc3)cc2)c(=O)[nH]1 (optimized conformer: 50.14380196057055 kcal/mol)

>  <smiles>  (88) 
O=c1cnn(-c2ccc(Oc3ccccc3)cc2)c(=O)[nH]1

>  <score_type>  (88) 
oracle

>  <origin>  (88) 
adg

>  <m_score__min__energy>  (88) 
-6.9100000000000001

>  <m_primary>  (88) 
energy

$$$$
88:0
     RDKit          3D

 43 45  0  0  0  0  0  0  0  0999 V2000
   59.6560   33.6210   48.7930 C   0  0  0  0  0  0  0  0  0  0  0  0
   59.2980   33.8120   47.3490 C   0  0  0  0  0  0  0  0  0  0  0  0
   59.6220   35.0100   46.7000 C   0  0  0  0  0  0  0  0  0  0  0  0
   59.3030   35.1670   45.3530 C   0  0  0  0  0  0  0  0  0  0  0  0
   58.6820   34.1310   44.6600 C   0  0  0  0  0  0  0  0  0  0  0  0
   58.3930   32.9260   45.3220 C   0  0  0  0  0  0  0  0  0  0  0  0
   57.7400   31.8190   44.5800 C   0  0  0  0  0  0  0  0  0  0  0  0
   57.4610   31.9170   43.2050 C   0  0  0  0  0  0  0  0  0  0  0  0
   56.8370   30.8510   42.5530 C   0  0  0  0  0  0  0  0  0  0  0  0
   56.4880   29.7050   43.2680 C   0  0  0  0  0  0  0  0  0  0  0  0
   56.7640   29.6400   44.6340 C   0  0  0  0  0  0  0  0  0  0  0  0
   56.4060   28.4940   45.3540 O   0  0  0  0  0  0  0  0  0  0  0  0
   57.0800   27.2380   45.2410 C   0  0  0  0  0  0  0  0  0  0  0  0
   57.2920   26.6420   46.6480 C   0  0  0  0  0  0  0  0  0  0  0  0
   58.7520   26.7290   47.1380 C   0  0  0  0  0  0  0  0  0  0  0  0
   59.4020   28.0050   46.7740 N   0  0  0  0  0  0  0  0  0  0  0  0
   58.9030   29.1270   47.5870 C   0  0  0  0  0  0  0  0  0  0  0  0
   59.3770   28.3070   45.3180 C   0  0  0  0  0  0  0  0  0  0  0  0
   58.4170   27.4160   44.5070 C   0  0  0  0  0  0  0  0  0  0  0  0
   57.3770   30.6880   45.2490 N   0  0  0  0  0  0  0  0  0  0  0  0
   58.7050   32.7990   46.6490 N   0  0  0  0  0  0  0  0  0  0  0  0
   58.8626   34.0443   49.4265 H   0  0  0  0  0  0  0  0  0  0  0  0
   59.7612   32.5469   49.0057 H   0  0  0  0  0  0  0  0  0  0  0  0
   60.6067   34.1317   49.0057 H   0  0  0  0  0  0  0  0  0  0  0  0
   60.1241   35.8201   47.2492 H   0  0  0  0  0  0  0  0  0  0  0  0
   59.5415   36.1088   44.8371 H   0  0  0  0  0  0  0  0  0  0  0  0
   58.4190   34.2555   43.5992 H   0  0  0  0  0  0  0  0  0  0  0  0
   57.7320   32.8258   42.6476 H   0  0  0  0  0  0  0  0  0  0  0  0
   56.6209   30.9150   41.4763 H   0  0  0  0  0  0  0  0  0  0  0  0
   55.9998   28.8606   42.7595 H   0  0  0  0  0  0  0  0  0  0  0  0
   56.4648   26.5411   44.6529 H   0  0  0  0  0  0  0  0  0  0  0  0
   56.6532   27.1882   47.3576 H   0  0  0  0  0  0  0  0  0  0  0  0
   57.0325   25.5746   46.5903 H   0  0  0  0  0  0  0  0  0  0  0  0
   58.7618   26.6293   48.2334 H   0  0  0  0  0  0  0  0  0  0  0  0
   59.3144   25.9193   46.6500 H   0  0  0  0  0  0  0  0  0  0  0  0
   59.0114   28.8832   48.6542 H   0  0  0  0  0  0  0  0  0  0  0  0
   59.4831   30.0329   47.3571 H   0  0  0  0  0  0  0  0  0  0  0  0
   57.8418   29.3029   47.3571 H   0  0  0  0  0  0  0  0  0  0  0  0
   59.0687   29.3549   45.1878 H   0  0  0  0  0  0  0  0  0  0  0  0
   60.3899   28.1115   44.9362 H   0  0  0  0  0  0  0  0  0  0  0  0
   58.2311   27.8842   43.5291 H   0  0  0  0  0  0  0  0  0  0  0  0
   58.8809   26.4269   44.3784 H   0  0  0  0  0  0  0  0  0  0  0  0
   58.4630   31.9210   47.1590 H   0  0  0  0  0  0  0  0  0  0  0  0
  1  2  1  0
  2  3  2  0
  3  4  1  0
  4  5  2  0
  5  6  1  0
  6  7  1  0
  7  8  2  0
  8  9  1  0
  9 10  2  0
 10 11  1  0
 11 12  1  0
 12 13  1  0
 13 14  1  0
 14 15  1  0
 15 16  1  0
 16 17  1  0
 16 18  1  0
 18 19  1  0
 11 20  2  0
  6 21  2  0
 21  2  1  0
 20  7  1  0
 19 13  1  0
  1 22  1  0
  1 23  1  0
  1 24  1  0
  3 25  1  0
  4 26  1  0
  5 27  1  0
  8 28  1  0
  9 29  1  0
 10 30  1  0
 13 31  1  0
 14 32  1  0
 14 33  1  0
 15 34  1  0
 15 35  1  0
 17 36  1  0
 17 37  1  0
 17 38  1  0
 18 39  1  0
 18 40  1  0
 19 41  1  0
 19 42  1  0
 21 43  1  0
M  CHG  1  21   1
M  END
>  <UniqueID>  (89) 
82

>  <SMILES>  (89) 
Cc1cccc(-c2cccc(OC3CCN(C)CC3)n2)[nH+]1

>  <Energy>  (89) 
54.36062654439446

>  <Genealogy>  (89) 
Cc1cccc(-c2cccc(OC3CCN(C)CC3)n2)[nH+]1 (protonated)
Cc1cccc(-c2cccc(OC3CCN(C)CC3)n2)[nH+]1 (3D coordinates assigned)
Cc1cccc(-c2cccc(OC3CCN(C)CC3)n2)[nH+]1 (nonaromatic ring conformer: 54.36062654439446 kcal/mol)

>  <smiles>  (89) 
Cc1cccc(-c2cccc(OC3CCN(C)CC3)n2)n1

>  <score_type>  (89) 
oracle

>  <origin>  (89) 
adg

>  <m_score__min__energy>  (89) 
-6.5700000000000003

>  <m_primary>  (89) 
energy

$$$$
89:0
     RDKit          3D

 36 38  0  0  0  0  0  0  0  0999 V2000
   56.6420   26.6520   46.0150 C   0  0  0  0  0  0  0  0  0  0  0  0
   55.9460   27.8250   45.6110 O   0  0  0  0  0  0  0  0  0  0  0  0
   56.5680   29.0210   45.2240 C   0  0  0  0  0  0  0  0  0  0  0  0
   57.6830   29.5480   45.9050 C   0  0  0  0  0  0  0  0  0  0  0  0
   58.2680   30.7440   45.4790 C   0  0  0  0  0  0  0  0  0  0  0  0
   57.7580   31.4260   44.3630 C   0  0  0  0  0  0  0  0  0  0  0  0
   58.3650   32.7280   43.9280 C   0  0  0  0  0  0  0  0  0  0  0  0
   57.6650   34.0850   44.9220 S   0  0  0  0  0  0  0  0  0  0  0  0
   58.9730   34.0130   46.1450 C   0  0  0  0  0  0  0  0  0  0  0  0
   60.2720   33.9480   45.7360 N   0  0  0  0  0  0  0  0  0  0  0  0
   61.2600   33.8970   46.6650 C   0  0  0  0  0  0  0  0  0  0  0  0
   60.9830   33.9080   47.9990 C   0  0  0  0  0  0  0  0  0  0  0  0
   59.6550   33.9720   48.4200 C   0  0  0  0  0  0  0  0  0  0  0  0
   59.3690   33.9830   49.6470 O   0  0  0  0  0  0  0  0  0  0  0  0
   58.6690   34.0220   47.4790 N   0  0  0  0  0  0  0  0  0  0  0  0
   62.2120   33.8470   48.8240 C   0  0  0  0  0  0  0  0  0  0  0  0
   63.3510   33.7940   47.7840 C   0  0  0  0  0  0  0  0  0  0  0  0
   62.7080   33.8270   46.3810 C   0  0  0  0  0  0  0  0  0  0  0  0
   56.6400   30.9080   43.6930 C   0  0  0  0  0  0  0  0  0  0  0  0
   56.0550   29.7110   44.1200 C   0  0  0  0  0  0  0  0  0  0  0  0
   56.6711   26.6030   47.1135 H   0  0  0  0  0  0  0  0  0  0  0  0
   56.1241   25.7647   45.6219 H   0  0  0  0  0  0  0  0  0  0  0  0
   57.6690   26.6813   45.6219 H   0  0  0  0  0  0  0  0  0  0  0  0
   58.0949   29.0163   46.7754 H   0  0  0  0  0  0  0  0  0  0  0  0
   59.1331   31.1531   46.0215 H   0  0  0  0  0  0  0  0  0  0  0  0
   59.4548   32.6913   44.0731 H   0  0  0  0  0  0  0  0  0  0  0  0
   58.1428   32.8995   42.8644 H   0  0  0  0  0  0  0  0  0  0  0  0
   57.6690   34.0730   47.7790 H   0  0  0  0  0  0  0  0  0  0  0  0
   62.3025   34.7406   49.4591 H   0  0  0  0  0  0  0  0  0  0  0  0
   62.2218   32.9871   49.5099 H   0  0  0  0  0  0  0  0  0  0  0  0
   64.0156   34.6611   47.9119 H   0  0  0  0  0  0  0  0  0  0  0  0
   63.9477   32.8789   47.9127 H   0  0  0  0  0  0  0  0  0  0  0  0
   63.0409   34.7107   45.8169 H   0  0  0  0  0  0  0  0  0  0  0  0
   62.9815   32.9580   45.7646 H   0  0  0  0  0  0  0  0  0  0  0  0
   56.2217   31.4448   42.8288 H   0  0  0  0  0  0  0  0  0  0  0  0
   55.1836   29.3085   43.5828 H   0  0  0  0  0  0  0  0  0  0  0  0
  1  2  1  0
  2  3  1  0
  3  4  2  0
  4  5  1  0
  5  6  2  0
  6  7  1  0
  7  8  1  0
  8  9  1  0
  9 10  2  0
 10 11  1  0
 11 12  2  0
 12 13  1  0
 13 14  2  0
 13 15  1  0
 12 16  1  0
 16 17  1  0
 17 18  1  0
  6 19  1  0
 19 20  2  0
 20  3  1  0
 15  9  1  0
 18 11  1  0
  1 21  1  0
  1 22  1  0
  1 23  1  0
  4 24  1  0
  5 25  1  0
  7 26  1  0
  7 27  1  0
 15 28  1  0
 16 29  1  0
 16 30  1  0
 17 31  1  0
 17 32  1  0
 18 33  1  0
 18 34  1  0
 19 35  1  0
 20 36  1  0
M  END
>  <UniqueID>  (90) 
83

>  <SMILES>  (90) 
COc1ccc(CSc2nc3c(c(=O)[nH]2)CCC3)cc1

>  <Energy>  (90) 
41.58895688672272

>  <Genealogy>  (90) 
COc1ccc(CSc2nc3c(c(=O)[nH]2)CCC3)cc1 (3D coordinates assigned)
COc1ccc(CSc2nc3c(c(=O)[nH]2)CCC3)cc1 (nonaromatic ring conformer: 41.58895688672272 kcal/mol)

>  <smiles>  (90) 
COc1ccc(CSc2nc3c(c(=O)[nH]2)CCC3)cc1

>  <score_type>  (90) 
oracle

>  <origin>  (90) 
adg

>  <m_score__min__energy>  (90) 
-7.7199999999999998

>  <m_primary>  (90) 
energy

$$$$
90:0
     RDKit          3D

 36 38  0  0  0  0  0  0  0  0999 V2000
   54.8500   24.5760   45.3870 H   0  0  0  0  0  0  0  0  0  0  0  0
   55.2470   25.0410   46.2350 N   0  0  0  0  0  0  0  0  0  0  0  0
   56.2380   25.8680   46.1510 C   0  0  0  0  0  0  0  0  0  0  0  0
   57.5120   25.4320   46.3410 N   0  0  0  0  0  0  0  0  0  0  0  0
   58.5670   26.2870   46.2570 C   0  0  0  0  0  0  0  0  0  0  0  0
   59.9570   25.7810   46.4740 C   0  0  0  0  0  0  0  0  0  0  0  0
   60.1564   25.7084   47.5533 H   0  0  0  0  0  0  0  0  0  0  0  0
   60.0614   24.7872   46.0142 H   0  0  0  0  0  0  0  0  0  0  0  0
   60.6759   26.4751   46.0142 H   0  0  0  0  0  0  0  0  0  0  0  0
   58.3400   27.6370   45.9720 C   0  0  0  0  0  0  0  0  0  0  0  0
   59.1797   28.3442   45.9029 H   0  0  0  0  0  0  0  0  0  0  0  0
   57.0220   28.0720   45.7760 C   0  0  0  0  0  0  0  0  0  0  0  0
   56.7350   29.4580   45.5050 N   0  0  0  0  0  0  0  0  0  0  0  0
   55.8470   29.7220   45.9950 H   0  0  0  0  0  0  0  0  0  0  0  0
   57.4960   30.0610   45.8950 H   0  0  0  0  0  0  0  0  0  0  0  0
   56.5730   29.7090   44.0630 C   0  0  0  0  0  0  0  0  0  0  0  0
   57.3487   29.1486   43.5205 H   0  0  0  0  0  0  0  0  0  0  0  0
   55.5599   29.3833   43.7845 H   0  0  0  0  0  0  0  0  0  0  0  0
   56.6950   31.1960   43.6940 C   0  0  0  0  0  0  0  0  0  0  0  0
   57.5557   31.3335   43.0230 H   0  0  0  0  0  0  0  0  0  0  0  0
   55.7698   31.5162   43.1926 H   0  0  0  0  0  0  0  0  0  0  0  0
   56.8870   32.0040   44.8940 N   0  0  0  0  0  0  0  0  0  0  0  0
   58.0340   32.1500   45.4840 C   0  0  0  0  0  0  0  0  0  0  0  0
   58.7160   31.1280   46.0610 N   0  0  0  0  0  0  0  0  0  0  0  0
   59.8760   31.5800   46.6030 C   0  0  0  0  0  0  0  0  0  0  0  0
   60.8010   30.7740   47.2690 C   0  0  0  0  0  0  0  0  0  0  0  0
   60.6231   29.6948   47.3860 H   0  0  0  0  0  0  0  0  0  0  0  0
   61.9640   31.3690   47.7870 C   0  0  0  0  0  0  0  0  0  0  0  0
   62.7037   30.7508   48.3167 H   0  0  0  0  0  0  0  0  0  0  0  0
   62.1900   32.7520   47.6330 C   0  0  0  0  0  0  0  0  0  0  0  0
   63.7760   33.5420   48.3430 Br  0  0  0  0  0  0  0  0  0  0  0  0
   61.2510   33.5520   46.9600 C   0  0  0  0  0  0  0  0  0  0  0  0
   61.4158   34.6323   46.8343 H   0  0  0  0  0  0  0  0  0  0  0  0
   60.1070   32.9400   46.4570 C   0  0  0  0  0  0  0  0  0  0  0  0
   58.8280   33.6360   45.6200 S   0  0  0  0  0  0  0  0  0  0  0  0
   56.0030   27.1760   45.8740 N   0  0  0  0  0  0  0  0  0  0  0  0
  1  2  1  0
  2  3  2  0
  3  4  1  0
  4  5  2  0
  5  6  1  0
  6  7  1  0
  6  8  1  0
  6  9  1  0
  5 10  1  0
 10 11  1  0
 10 12  2  0
 12 13  1  0
 13 14  1  0
 13 15  1  0
 13 16  1  0
 16 17  1  0
 16 18  1  0
 16 19  1  0
 19 20  1  0
 19 21  1  0
 19 22  1  0
 22 23  2  0
 23 24  1  0
 24 25  1  0
 25 26  2  0
 26 27  1  0
 26 28  1  0
 28 29  1  0
 28 30  2  0
 30 31  1  0
 30 32  1  0
 32 33  1  0
 32 34  2  0
 34 35  1  0
 12 36  1  0
 36  3  1  0
 35 23  1  0
 34 25  1  0
M  CHG  3  13   1  24  -1  36  -1
M  END
>  <UniqueID>  (91) 
84

>  <SMILES>  (91) 
[H]/N=c1\nc(C)cc([NH2+]CC/N=c2\[n-]c3ccc(Br)cc3s2)[n-]1

>  <Energy>  (91) 
70.0611673100302

>  <Genealogy>  (91) 
Cc1cc([NH2+]CCN=c2[n-]c3ccc(Br)cc3s2)[n-]c(=N)n1 (protonated)
[H]/N=c1\nc(C)cc([NH2+]CC/N=c2\[n-]c3ccc(Br)cc3s2)[n-]1 (cis-trans isomerization)
[H]/N=c1\nc(C)cc([NH2+]CC/N=c2\[n-]c3ccc(Br)cc3s2)[n-]1 (3D coordinates assigned)
[H]/N=c1\nc(C)cc([NH2+]CC/N=c2\[n-]c3ccc(Br)cc3s2)[n-]1 (optimized conformer: 70.0611673100302 kcal/mol)

>  <smiles>  (91) 
Cc1cc(NCCN=c2[nH]c3ccc(Br)cc3s2)[nH]c(=N)n1

>  <score_type>  (91) 
oracle

>  <origin>  (91) 
adg

>  <m_score__min__energy>  (91) 
-9.5500000000000007

>  <m_primary>  (91) 
energy

$$$$
91:0
     RDKit          3D

 21 22  0  0  0  0  0  0  0  0999 V2000
   55.5030   28.6960   42.3210 H   0  0  0  0  0  0  0  0  0  0  0  0
   55.8680   29.6470   42.5500 N   0  0  0  0  0  0  0  0  0  0  0  0
   56.0720   30.0410   43.7670 C   0  0  0  0  0  0  0  0  0  0  0  0
   56.9810   31.1770   44.0370 C   0  0  0  0  0  0  0  0  0  0  0  0
   57.2910   31.5900   45.2450 O   0  0  0  0  0  0  0  0  0  0  0  0
   58.1130   32.6100   45.1450 C   0  0  0  0  0  0  0  0  0  0  0  0
   58.6680   33.3250   46.3010 C   0  0  0  0  0  0  0  0  0  0  0  0
   58.5380   32.8160   47.8980 S   0  0  0  0  0  0  0  0  0  0  0  0
   59.3830   34.1050   48.5720 C   0  0  0  0  0  0  0  0  0  0  0  0
   59.5882   34.2519   49.6427 H   0  0  0  0  0  0  0  0  0  0  0  0
   59.7770   34.9520   47.5440 C   0  0  0  0  0  0  0  0  0  0  0  0
   60.3482   35.8768   47.7129 H   0  0  0  0  0  0  0  0  0  0  0  0
   59.3800   34.5200   46.2740 C   0  0  0  0  0  0  0  0  0  0  0  0
   59.6076   35.0691   45.3484 H   0  0  0  0  0  0  0  0  0  0  0  0
   58.3590   32.8860   43.8140 C   0  0  0  0  0  0  0  0  0  0  0  0
   59.0044   33.6796   43.4095 H   0  0  0  0  0  0  0  0  0  0  0  0
   57.6290   31.9620   43.0970 C   0  0  0  0  0  0  0  0  0  0  0  0
   57.5726   31.8674   42.0025 H   0  0  0  0  0  0  0  0  0  0  0  0
   55.4060   29.3620   44.8350 N   0  0  0  0  0  0  0  0  0  0  0  0
   54.7670   28.5630   44.6290 H   0  0  0  0  0  0  0  0  0  0  0  0
   55.5360   29.6420   45.8320 H   0  0  0  0  0  0  0  0  0  0  0  0
  1  2  1  0
  2  3  2  0
  3  4  1  0
  4  5  1  0
  5  6  1  0
  6  7  1  0
  7  8  1  0
  8  9  1  0
  9 10  1  0
  9 11  2  0
 11 12  1  0
 11 13  1  0
 13 14  1  0
  6 15  2  0
 15 16  1  0
 15 17  1  0
 17 18  1  0
  3 19  1  0
 19 20  1  0
 19 21  1  0
 17  4  2  0
 13  7  2  0
M  END
>  <UniqueID>  (92) 
85

>  <SMILES>  (92) 
[H]/N=C(/N)c1ccc(-c2cccs2)o1

>  <Energy>  (92) 
71.15521217058101

>  <Genealogy>  (92) 
[H]/N=C(/N)c1ccc(-c2cccs2)o1 (cis-trans isomerization)
[H]/N=C(/N)c1ccc(-c2cccs2)o1 (3D coordinates assigned)
[H]/N=C(/N)c1ccc(-c2cccs2)o1 (optimized conformer: 71.15521217058101 kcal/mol)

>  <smiles>  (92) 
N=C(N)c1ccc(-c2cccs2)o1

>  <score_type>  (92) 
oracle

>  <origin>  (92) 
adg

>  <m_score__min__energy>  (92) 
-6.9100000000000001

>  <m_primary>  (92) 
energy

$$$$
92:0
     RDKit          3D

 57 58  0  0  1  0  0  0  0  0999 V2000
   59.0270   30.0100   47.7890 C   0  0  0  0  0  0  0  0  0  0  0  0
   60.1020   31.0200   47.3770 C   0  0  0  0  0  0  0  0  0  0  0  0
   59.6870   32.4220   47.7490 C   0  0  0  0  0  0  0  0  0  0  0  0
   60.8990   33.3160   47.7260 C   0  0  0  0  0  0  0  0  0  0  0  0
   60.9690   34.1420   46.4860 C   0  0  0  0  0  0  0  0  0  0  0  0
   59.9570   35.2850   46.4490 C   0  0  0  0  0  0  0  0  0  0  0  0
   59.2000   35.2330   45.1690 C   0  0  0  0  0  0  0  0  0  0  0  0
   58.0750   34.2020   45.1570 C   0  0  0  0  0  0  0  0  0  0  0  0
   58.4500   32.9280   44.4500 C   0  0  0  0  0  0  0  0  0  0  0  0
   57.7560   31.7250   44.8850 C   0  0  0  0  0  0  0  0  0  0  0  0
   57.5230   30.6440   44.2350 C   0  0  0  0  0  0  0  0  0  0  0  0
   57.7370   29.2780   44.5970 C   0  0  0  0  0  0  0  0  0  0  0  0
   56.5920   28.6160   45.0780 C   0  0  0  0  0  0  0  0  0  0  0  0
   55.3570   29.2450   45.1230 O   0  0  0  0  0  0  0  0  0  0  0  0
   56.7030   27.3590   45.4970 N   0  0  0  0  0  0  0  0  0  0  0  0
   57.8340   26.6420   45.5080 C   0  0  0  0  0  0  0  0  0  0  0  0
   57.8140   24.9590   46.1030 S   0  0  0  0  0  0  0  0  0  0  0  0
   58.0410   23.8520   44.6800 C   0  0  0  0  0  0  0  0  0  0  0  0
   57.4200   22.4960   45.0150 C   0  0  0  0  0  0  0  0  0  0  0  0
   55.9490   22.8510   44.9500 C   0  0  0  0  0  0  0  0  0  0  0  0
   55.8600   23.6880   43.7060 C   0  0  0  0  0  0  0  0  0  0  0  0
   57.1870   24.3770   43.5470 C   0  0  0  0  0  0  0  0  0  0  0  0
   58.9380   27.2390   45.0600 N   0  0  0  0  0  0  0  0  0  0  0  0
   58.8780   28.5350   44.6160 C   0  0  0  0  0  0  0  0  0  0  0  0
   59.9690   28.9810   44.2340 O   0  0  0  0  0  0  0  0  0  0  0  0
   58.9730   29.9592   48.8865 H   0  0  0  0  0  0  0  0  0  0  0  0
   58.0530   30.3272   47.3882 H   0  0  0  0  0  0  0  0  0  0  0  0
   59.2829   29.0181   47.3882 H   0  0  0  0  0  0  0  0  0  0  0  0
   61.0438   30.7742   47.8895 H   0  0  0  0  0  0  0  0  0  0  0  0
   60.2363   30.9685   46.2864 H   0  0  0  0  0  0  0  0  0  0  0  0
   58.9436   32.7902   47.0266 H   0  0  0  0  0  0  0  0  0  0  0  0
   59.2442   32.4231   48.7559 H   0  0  0  0  0  0  0  0  0  0  0  0
   60.8601   33.9873   48.5966 H   0  0  0  0  0  0  0  0  0  0  0  0
   61.7917   32.6739   47.7537 H   0  0  0  0  0  0  0  0  0  0  0  0
   61.9793   34.5707   46.4114 H   0  0  0  0  0  0  0  0  0  0  0  0
   60.7311   33.4760   45.6435 H   0  0  0  0  0  0  0  0  0  0  0  0
   59.2586   35.1844   47.2929 H   0  0  0  0  0  0  0  0  0  0  0  0
   60.4856   36.2467   46.5247 H   0  0  0  0  0  0  0  0  0  0  0  0
   58.7623   36.2253   44.9850 H   0  0  0  0  0  0  0  0  0  0  0  0
   59.9145   34.9349   44.3876 H   0  0  0  0  0  0  0  0  0  0  0  0
   57.8103   33.9605   46.1970 H   0  0  0  0  0  0  0  0  0  0  0  0
   57.2300   34.6447   44.6093 H   0  0  0  0  0  0  0  0  0  0  0  0
   58.2441   33.0655   43.3782 H   0  0  0  0  0  0  0  0  0  0  0  0
   59.5105   32.7594   44.6887 H   0  0  0  0  0  0  0  0  0  0  0  0
   57.3776   31.7457   45.9177 H   0  0  0  0  0  0  0  0  0  0  0  0
   57.0874   30.7925   43.2359 H   0  0  0  0  0  0  0  0  0  0  0  0
   55.1580   30.0980   45.6170 H   0  0  0  0  0  0  0  0  0  0  0  0
   55.8430   26.8920   45.8420 H   0  0  0  0  0  0  0  0  0  0  0  0
   59.1107   23.7845   44.4327 H   0  0  0  0  0  0  0  0  0  0  0  0
   57.6876   21.7306   44.2716 H   0  0  0  0  0  0  0  0  0  0  0  0
   57.7480   22.0620   45.9711 H   0  0  0  0  0  0  0  0  0  0  0  0
   55.3274   21.9476   44.8643 H   0  0  0  0  0  0  0  0  0  0  0  0
   55.5875   23.3705   45.8497 H   0  0  0  0  0  0  0  0  0  0  0  0
   55.6588   23.0488   42.8337 H   0  0  0  0  0  0  0  0  0  0  0  0
   55.0428   24.4204   43.7820 H   0  0  0  0  0  0  0  0  0  0  0  0
   57.6381   24.1271   42.5754 H   0  0  0  0  0  0  0  0  0  0  0  0
   57.0893   25.4722   43.5774 H   0  0  0  0  0  0  0  0  0  0  0  0
  1  2  1  0
  2  3  1  0
  3  4  1  0
  4  5  1  0
  5  6  1  0
  6  7  1  0
  7  8  1  0
  8  9  1  0
  9 10  1  0
 10 11  2  0
 11 12  1  0
 12 13  2  0
 13 14  1  0
 13 15  1  0
 15 16  1  0
 16 17  1  0
 17 18  1  0
 18 19  1  0
 19 20  1  0
 20 21  1  0
 21 22  1  0
 16 23  2  0
 23 24  1  0
 24 25  2  0
 24 12  1  0
 22 18  1  0
  1 26  1  0
  1 27  1  0
  1 28  1  0
  2 29  1  0
  2 30  1  0
  3 31  1  0
  3 32  1  0
  4 33  1  0
  4 34  1  0
  5 35  1  0
  5 36  1  0
  6 37  1  0
  6 38  1  0
  7 39  1  0
  7 40  1  0
  8 41  1  0
  8 42  1  0
  9 43  1  0
  9 44  1  0
 10 45  1  0
 11 46  1  0
 14 47  1  0
 15 48  1  0
 18 49  1  0
 19 50  1  0
 19 51  1  0
 20 52  1  0
 20 53  1  0
 21 54  1  0
 21 55  1  0
 22 56  1  0
 22 57  1  0
M  END
>  <smiles>  (93) 
CCCCCCCCCC=Cc1c(O)[nH]c(SC2CCCC2)nc1=O

>  <score_type>  (93) 
oracle

>  <origin>  (93) 
adg

>  <m_score__min__energy>  (93) 
-8.4299999999999997

>  <m_primary>  (93) 
energy

$$$$
93:0
     RDKit          3D

 30 32  0  0  0  0  0  0  0  0999 V2000
   57.4150   32.9690   44.3630 O   0  0  0  0  0  0  0  0  0  0  0  0
   57.1180   31.8480   44.8590 C   0  0  0  0  0  0  0  0  0  0  0  0
   55.8980   31.2060   44.4880 N   0  0  0  0  0  0  0  0  0  0  0  0
   55.8700   29.7740   43.4510 S   0  0  0  0  0  0  0  0  0  0  0  0
   57.0360   28.9090   44.4920 C   0  0  0  0  0  0  0  0  0  0  0  0
   58.3650   28.8620   44.2170 N   0  0  0  0  0  0  0  0  0  0  0  0
   58.8380   28.1210   45.2300 C   0  0  0  0  0  0  0  0  0  0  0  0
   60.1580   27.7420   45.4640 C   0  0  0  0  0  0  0  0  0  0  0  0
   60.4190   26.9540   46.6010 C   0  0  0  0  0  0  0  0  0  0  0  0
   59.3650   26.5730   47.4630 C   0  0  0  0  0  0  0  0  0  0  0  0
   58.0440   26.9760   47.1950 C   0  0  0  0  0  0  0  0  0  0  0  0
   57.8240   27.7530   46.0600 C   0  0  0  0  0  0  0  0  0  0  0  0
   56.6590   28.2430   45.6140 N   0  0  0  0  0  0  0  0  0  0  0  0
   58.0150   31.1850   45.7600 N   0  0  0  0  0  0  0  0  0  0  0  0
   59.1860   31.7930   46.3320 C   0  0  0  0  0  0  0  0  0  0  0  0
   60.3350   31.0370   46.6310 C   0  0  0  0  0  0  0  0  0  0  0  0
   61.4690   31.6580   47.1650 C   0  0  0  0  0  0  0  0  0  0  0  0
   61.4720   33.0380   47.3930 C   0  0  0  0  0  0  0  0  0  0  0  0
   62.8950   33.8150   48.0610 Cl  0  0  0  0  0  0  0  0  0  0  0  0
   60.3420   33.7990   47.0770 C   0  0  0  0  0  0  0  0  0  0  0  0
   59.2070   33.1800   46.5420 C   0  0  0  0  0  0  0  0  0  0  0  0
   60.9674   28.0475   44.7846 H   0  0  0  0  0  0  0  0  0  0  0  0
   61.4481   26.6331   46.8199 H   0  0  0  0  0  0  0  0  0  0  0  0
   59.5793   25.9574   48.3491 H   0  0  0  0  0  0  0  0  0  0  0  0
   57.2148   26.6879   47.8578 H   0  0  0  0  0  0  0  0  0  0  0  0
   57.8530   30.1670   45.9340 H   0  0  0  0  0  0  0  0  0  0  0  0
   60.3412   29.9530   46.4439 H   0  0  0  0  0  0  0  0  0  0  0  0
   62.3601   31.0599   47.4061 H   0  0  0  0  0  0  0  0  0  0  0  0
   60.3455   34.8854   47.2493 H   0  0  0  0  0  0  0  0  0  0  0  0
   58.3252   33.7849   46.2843 H   0  0  0  0  0  0  0  0  0  0  0  0
  1  2  2  0
  2  3  1  0
  3  4  1  0
  4  5  1  0
  5  6  2  0
  6  7  1  0
  7  8  2  0
  8  9  1  0
  9 10  2  0
 10 11  1  0
 11 12  2  0
 12 13  1  0
  2 14  1  0
 14 15  1  0
 15 16  2  0
 16 17  1  0
 17 18  2  0
 18 19  1  0
 18 20  1  0
 20 21  2  0
 13  5  1  0
 21 15  1  0
 12  7  1  0
  8 22  1  0
  9 23  1  0
 10 24  1  0
 11 25  1  0
 14 26  1  0
 16 27  1  0
 17 28  1  0
 20 29  1  0
 21 30  1  0
M  CHG  2   3  -1  13  -1
M  END
>  <UniqueID>  (94) 
86

>  <SMILES>  (94) 
O=C([N-]Sc1nc2ccccc2[n-]1)Nc1ccc(Cl)cc1

>  <Energy>  (94) 
66.64449715306654

>  <Genealogy>  (94) 
O=C([N-]Sc1nc2ccccc2[n-]1)Nc1ccc(Cl)cc1 (protonated)
O=C([N-]Sc1nc2ccccc2[n-]1)Nc1ccc(Cl)cc1 (3D coordinates assigned)
O=C([N-]Sc1nc2ccccc2[n-]1)Nc1ccc(Cl)cc1 (optimized conformer: 66.64449715306654 kcal/mol)

>  <smiles>  (94) 
O=C(NSc1nc2ccccc2[nH]1)Nc1ccc(Cl)cc1

>  <score_type>  (94) 
oracle

>  <origin>  (94) 
adg

>  <m_score__min__energy>  (94) 
-10.390000000000001

>  <m_primary>  (94) 
energy

$$$$
94:0
     RDKit          3D

 61 64  0  0  1  0  0  0  0  0999 V2000
   57.8550   34.2760   45.5790 C   0  0  0  0  0  0  0  0  0  0  0  0
   58.3060   33.0340   46.3650 C   0  0  1  0  0  0  0  0  0  0  0  0
   58.7800   32.0380   45.5450 O   0  0  0  0  0  0  0  0  0  0  0  0
   58.1160   31.5870   44.4400 C   0  0  0  0  0  0  0  0  0  0  0  0
   58.1050   32.1390   43.1990 C   0  0  0  0  0  0  0  0  0  0  0  0
   57.3880   31.5890   42.1420 C   0  0  0  0  0  0  0  0  0  0  0  0
   57.3970   32.1650   40.9140 F   0  0  0  0  0  0  0  0  0  0  0  0
   56.6440   30.4430   42.3030 C   0  0  0  0  0  0  0  0  0  0  0  0
   56.6430   29.8660   43.5610 C   0  0  0  0  0  0  0  0  0  0  0  0
   57.3570   30.4170   44.6060 C   0  0  0  0  0  0  0  0  0  0  0  0
   57.3060   29.7590   45.8800 N   0  0  0  0  0  0  0  0  0  0  0  0
   58.2490   28.9380   46.1930 C   0  0  0  0  0  0  0  0  0  0  0  0
   58.4560   27.8950   45.3630 N   0  0  0  0  0  0  0  0  0  0  0  0
   59.4410   27.0390   45.6890 C   0  0  0  0  0  0  0  0  0  0  0  0
   60.2080   27.1790   46.7850 N   0  0  0  0  0  0  0  0  0  0  0  0
   59.9960   28.2230   47.6100 C   0  0  0  0  0  0  0  0  0  0  0  0
   60.7780   28.3770   48.7360 C   0  0  0  0  0  0  0  0  0  0  0  0
   60.5520   29.4330   49.5580 N   0  0  0  0  0  0  0  0  0  0  0  0
   59.5750   30.3080   49.2610 C   0  0  0  0  0  0  0  0  0  0  0  0
   59.3640   31.4080   50.1450 N   0  0  0  0  0  0  0  0  0  0  0  0
   58.1440   32.0100   50.6660 C   0  0  0  0  0  0  0  0  0  0  0  0
   58.9360   33.1300   51.2630 C   0  0  0  0  0  0  0  0  0  0  0  0
   60.1770   32.3590   50.8770 C   0  0  0  0  0  0  0  0  0  0  0  0
   58.7930   30.1800   48.1590 N   0  0  0  0  0  0  0  0  0  0  0  0
   59.0020   29.1390   47.3330 C   0  0  0  0  0  0  0  0  0  0  0  0
   59.3420   33.4810   47.3810 C   0  0  0  0  0  0  0  0  0  0  0  0
   58.9420   34.3230   48.2010 O   0  0  0  0  0  0  0  0  0  0  0  0
   60.6390   32.9330   47.3310 N   0  0  0  0  0  0  0  0  0  0  0  0
   61.7480   33.1850   48.1650 C   0  0  0  0  0  0  0  0  0  0  0  0
   63.1250   33.0780   47.6600 C   0  0  0  0  0  0  0  0  0  0  0  0
   63.4140   33.8580   46.4090 C   0  0  0  0  0  0  0  0  0  0  0  0
   63.3450   31.5930   47.2970 C   0  0  0  0  0  0  0  0  0  0  0  0
   64.1780   33.3500   48.7310 C   0  0  0  0  0  0  0  0  0  0  0  0
   57.5665   35.0706   46.2829 H   0  0  0  0  0  0  0  0  0  0  0  0
   58.6821   34.6296   44.9459 H   0  0  0  0  0  0  0  0  0  0  0  0
   56.9937   34.0165   44.9459 H   0  0  0  0  0  0  0  0  0  0  0  0
   57.4423   32.5896   46.8813 H   0  0  0  0  0  0  0  0  0  0  0  0
   58.6857   33.0566   43.0233 H   0  0  0  0  0  0  0  0  0  0  0  0
   56.0755   30.0050   41.4694 H   0  0  0  0  0  0  0  0  0  0  0  0
   56.0607   28.9485   43.7318 H   0  0  0  0  0  0  0  0  0  0  0  0
   59.6287   26.1815   45.0261 H   0  0  0  0  0  0  0  0  0  0  0  0
   60.9600   26.4570   46.9630 H   0  0  0  0  0  0  0  0  0  0  0  0
   61.5743   27.6534   48.9646 H   0  0  0  0  0  0  0  0  0  0  0  0
   57.4351   32.3289   49.8877 H   0  0  0  0  0  0  0  0  0  0  0  0
   57.4618   31.4194   51.2951 H   0  0  0  0  0  0  0  0  0  0  0  0
   58.8192   34.0982   50.7542 H   0  0  0  0  0  0  0  0  0  0  0  0
   58.7650   33.4789   52.2921 H   0  0  0  0  0  0  0  0  0  0  0  0
   60.8795   32.9258   50.2483 H   0  0  0  0  0  0  0  0  0  0  0  0
   60.8774   32.0110   51.6505 H   0  0  0  0  0  0  0  0  0  0  0  0
   60.7820   32.2200   46.5330 H   0  0  0  0  0  0  0  0  0  0  0  0
   61.6315   34.2144   48.5349 H   0  0  0  0  0  0  0  0  0  0  0  0
   61.6947   32.3580   48.8883 H   0  0  0  0  0  0  0  0  0  0  0  0
   63.7846   34.8582   46.6779 H   0  0  0  0  0  0  0  0  0  0  0  0
   64.1767   33.3314   45.8166 H   0  0  0  0  0  0  0  0  0  0  0  0
   62.4923   33.9555   45.8166 H   0  0  0  0  0  0  0  0  0  0  0  0
   63.4330   30.9993   48.2189 H   0  0  0  0  0  0  0  0  0  0  0  0
   62.4909   31.2294   46.7068 H   0  0  0  0  0  0  0  0  0  0  0  0
   64.2678   31.4926   46.7068 H   0  0  0  0  0  0  0  0  0  0  0  0
   63.7264   33.2333   49.7272 H   0  0  0  0  0  0  0  0  0  0  0  0
   65.0079   32.6367   48.6188 H   0  0  0  0  0  0  0  0  0  0  0  0
   64.5586   34.3759   48.6188 H   0  0  0  0  0  0  0  0  0  0  0  0
  1  2  1  0
  2  3  1  0
  3  4  1  0
  4  5  2  0
  5  6  1  0
  6  7  1  0
  6  8  2  0
  8  9  1  0
  9 10  2  0
 10 11  1  0
 11 12  2  0
 12 13  1  0
 13 14  2  0
 14 15  1  0
 15 16  1  0
 16 17  2  0
 17 18  1  0
 18 19  2  0
 19 20  1  0
 20 21  1  0
 21 22  1  0
 22 23  1  0
 19 24  1  0
 24 25  2  0
  2 26  1  0
 26 27  2  0
 26 28  1  0
 28 29  1  0
 29 30  1  0
 30 31  1  0
 30 32  1  0
 30 33  1  0
 10  4  1  0
 25 12  1  0
 25 16  1  0
 23 20  1  0
  1 34  1  0
  1 35  1  0
  1 36  1  0
  2 37  1  1
  5 38  1  0
  8 39  1  0
  9 40  1  0
 14 41  1  0
 15 42  1  0
 17 43  1  0
 21 44  1  0
 21 45  1  0
 22 46  1  0
 22 47  1  0
 23 48  1  0
 23 49  1  0
 28 50  1  0
 29 51  1  0
 29 52  1  0
 31 53  1  0
 31 54  1  0
 31 55  1  0
 32 56  1  0
 32 57  1  0
 32 58  1  0
 33 59  1  0
 33 60  1  0
 33 61  1  0
M  END
>  <smiles>  (95) 
CC(Oc1cc(F)ccc1N=c1nc[nH]c2cnc(N3CCC3)nc12)C(=O)NCC(C)(C)C

>  <score_type>  (95) 
oracle

>  <origin>  (95) 
adg

>  <m_score__min__energy>  (95) 
-7.7999999999999998

>  <m_primary>  (95) 
energy

$$$$
95:0
     RDKit          3D

 33 34  0  0  0  0  0  0  0  0999 V2000
   56.5260   29.6160   42.7980 N   0  0  0  0  0  0  0  0  0  0  0  0
   56.5640   29.7900   44.2140 C   0  0  0  0  0  0  0  0  0  0  0  0
   55.4970   29.7170   44.8800 O   0  0  0  0  0  0  0  0  0  0  0  0
   57.8650   30.0350   44.9180 C   0  0  0  0  0  0  0  0  0  0  0  0
   57.9900   31.4880   45.2990 C   0  0  0  0  0  0  0  0  0  0  0  0
   57.3850   32.4670   44.4920 C   0  0  0  0  0  0  0  0  0  0  0  0
   57.4720   33.8180   44.8350 C   0  0  0  0  0  0  0  0  0  0  0  0
   58.1570   34.2040   45.9860 C   0  0  0  0  0  0  0  0  0  0  0  0
   58.7520   33.2410   46.8040 C   0  0  0  0  0  0  0  0  0  0  0  0
   58.6650   31.8730   46.4770 C   0  0  0  0  0  0  0  0  0  0  0  0
   59.2350   30.8750   47.2900 O   0  0  0  0  0  0  0  0  0  0  0  0
   59.9550   31.1020   48.5030 C   0  0  0  0  0  0  0  0  0  0  0  0
   61.2230   31.8710   48.2390 C   0  0  0  0  0  0  0  0  0  0  0  0
   61.4260   33.1220   48.8430 C   0  0  0  0  0  0  0  0  0  0  0  0
   62.6040   33.8370   48.6050 C   0  0  0  0  0  0  0  0  0  0  0  0
   63.5900   33.3040   47.7700 C   0  0  0  0  0  0  0  0  0  0  0  0
   63.4010   32.0540   47.1750 C   0  0  0  0  0  0  0  0  0  0  0  0
   62.2240   31.3350   47.4100 C   0  0  0  0  0  0  0  0  0  0  0  0
   57.3990   29.6720   42.2280 H   0  0  0  0  0  0  0  0  0  0  0  0
   55.6190   29.4250   42.3150 H   0  0  0  0  0  0  0  0  0  0  0  0
   57.9074   29.4169   45.8269 H   0  0  0  0  0  0  0  0  0  0  0  0
   58.6919   29.7705   44.2425 H   0  0  0  0  0  0  0  0  0  0  0  0
   56.8398   32.1673   43.5849 H   0  0  0  0  0  0  0  0  0  0  0  0
   56.9994   34.5785   44.1960 H   0  0  0  0  0  0  0  0  0  0  0  0
   58.2291   35.2693   46.2506 H   0  0  0  0  0  0  0  0  0  0  0  0
   59.2924   33.5526   47.7100 H   0  0  0  0  0  0  0  0  0  0  0  0
   59.3224   31.6771   49.1952 H   0  0  0  0  0  0  0  0  0  0  0  0
   60.2190   30.1288   48.9426 H   0  0  0  0  0  0  0  0  0  0  0  0
   60.6552   33.5415   49.5062 H   0  0  0  0  0  0  0  0  0  0  0  0
   62.7548   34.8199   49.0754 H   0  0  0  0  0  0  0  0  0  0  0  0
   64.5149   33.8687   47.5812 H   0  0  0  0  0  0  0  0  0  0  0  0
   64.1791   31.6344   46.5205 H   0  0  0  0  0  0  0  0  0  0  0  0
   62.0815   30.3483   46.9452 H   0  0  0  0  0  0  0  0  0  0  0  0
  1  2  1  0
  2  3  2  0
  2  4  1  0
  4  5  1  0
  5  6  2  0
  6  7  1  0
  7  8  2  0
  8  9  1  0
  9 10  2  0
 10 11  1  0
 11 12  1  0
 12 13  1  0
 13 14  2  0
 14 15  1  0
 15 16  2  0
 16 17  1  0
 17 18  2  0
 10  5  1  0
 18 13  1  0
  1 19  1  0
  1 20  1  0
  4 21  1  0
  4 22  1  0
  6 23  1  0
  7 24  1  0
  8 25  1  0
  9 26  1  0
 12 27  1  0
 12 28  1  0
 14 29  1  0
 15 30  1  0
 16 31  1  0
 17 32  1  0
 18 33  1  0
M  END
>  <UniqueID>  (96) 
87

>  <SMILES>  (96) 
NC(=O)Cc1ccccc1OCc1ccccc1

>  <Energy>  (96) 
29.75167729360627

>  <Genealogy>  (96) 
NC(=O)Cc1ccccc1OCc1ccccc1 (3D coordinates assigned)
NC(=O)Cc1ccccc1OCc1ccccc1 (optimized conformer: 29.75167729360627 kcal/mol)

>  <smiles>  (96) 
NC(=O)Cc1ccccc1OCc1ccccc1

>  <score_type>  (96) 
oracle

>  <origin>  (96) 
adg

>  <m_score__min__energy>  (96) 
-7.1399999999999997

>  <m_primary>  (96) 
energy

$$$$
96:0
     RDKit          3D

 32 33  0  0  0  0  0  0  0  0999 V2000
   64.9960   33.8470   51.3580 C   0  0  0  0  0  0  0  0  0  0  0  0
   64.7970   33.1570   50.0420 C   0  0  0  0  0  0  0  0  0  0  0  0
   65.5890   32.2280   49.7260 O   0  0  0  0  0  0  0  0  0  0  0  0
   63.7230   33.5190   49.1460 N   0  0  0  0  0  0  0  0  0  0  0  0
   62.6430   34.4280   49.5670 C   0  0  0  0  0  0  0  0  0  0  0  0
   61.2990   33.9890   48.9710 C   0  0  0  0  0  0  0  0  0  0  0  0
   61.4210   33.6370   47.5490 N   0  0  0  0  0  0  0  0  0  0  0  0
   60.2960   33.0650   46.8620 C   0  0  0  0  0  0  0  0  0  0  0  0
   60.1950   31.7090   46.7360 N   0  0  0  0  0  0  0  0  0  0  0  0
   59.1450   31.1270   46.0960 C   0  0  0  0  0  0  0  0  0  0  0  0
   58.1320   31.9160   45.5420 C   0  0  0  0  0  0  0  0  0  0  0  0
   57.0190   31.3040   44.8640 C   0  0  0  0  0  0  0  0  0  0  0  0
   56.1240   30.8140   44.3180 N   0  0  0  0  0  0  0  0  0  0  0  0
   58.2150   33.3060   45.6540 C   0  0  0  0  0  0  0  0  0  0  0  0
   59.2980   33.8880   46.3130 C   0  0  0  0  0  0  0  0  0  0  0  0
   59.3910   35.2400   46.3850 F   0  0  0  0  0  0  0  0  0  0  0  0
   62.7220   33.7220   46.8810 C   0  0  0  0  0  0  0  0  0  0  0  0
   63.7920   33.0570   47.7480 C   0  0  0  0  0  0  0  0  0  0  0  0
   64.7924   33.1410   52.1766 H   0  0  0  0  0  0  0  0  0  0  0  0
   66.0338   34.2042   51.4315 H   0  0  0  0  0  0  0  0  0  0  0  0
   64.3078   34.7020   51.4315 H   0  0  0  0  0  0  0  0  0  0  0  0
   62.5711   34.4189   50.6646 H   0  0  0  0  0  0  0  0  0  0  0  0
   62.8744   35.4414   49.2072 H   0  0  0  0  0  0  0  0  0  0  0  0
   60.9336   33.1117   49.5248 H   0  0  0  0  0  0  0  0  0  0  0  0
   60.5963   34.8310   49.0556 H   0  0  0  0  0  0  0  0  0  0  0  0
   60.9310   31.0950   47.1500 H   0  0  0  0  0  0  0  0  0  0  0  0
   59.0926   30.0313   46.0140 H   0  0  0  0  0  0  0  0  0  0  0  0
   57.4270   33.9410   45.2229 H   0  0  0  0  0  0  0  0  0  0  0  0
   62.6682   33.2091   45.9094 H   0  0  0  0  0  0  0  0  0  0  0  0
   62.9837   34.7793   46.7271 H   0  0  0  0  0  0  0  0  0  0  0  0
   63.6437   31.9673   47.7246 H   0  0  0  0  0  0  0  0  0  0  0  0
   64.7787   33.3284   47.3446 H   0  0  0  0  0  0  0  0  0  0  0  0
  1  2  1  0
  2  3  2  0
  2  4  1  0
  4  5  1  0
  5  6  1  0
  6  7  1  0
  7  8  1  0
  8  9  2  0
  9 10  1  0
 10 11  2  0
 11 12  1  0
 12 13  3  0
 11 14  1  0
 14 15  2  0
 15 16  1  0
  7 17  1  0
 17 18  1  0
 18  4  1  0
 15  8  1  0
  1 19  1  0
  1 20  1  0
  1 21  1  0
  5 22  1  0
  5 23  1  0
  6 24  1  0
  6 25  1  0
  9 26  1  0
 10 27  1  0
 14 28  1  0
 17 29  1  0
 17 30  1  0
 18 31  1  0
 18 32  1  0
M  CHG  1   9   1
M  END
>  <UniqueID>  (97) 
88

>  <SMILES>  (97) 
CC(=O)N1CCN(c2[nH+]cc(C#N)cc2F)CC1

>  <Energy>  (97) 
35.122717398270055

>  <Genealogy>  (97) 
CC(=O)N1CCN(c2[nH+]cc(C#N)cc2F)CC1 (protonated)
CC(=O)N1CCN(c2[nH+]cc(C#N)cc2F)CC1 (3D coordinates assigned)
CC(=O)N1CCN(c2[nH+]cc(C#N)cc2F)CC1 (nonaromatic ring conformer: 35.122717398270055 kcal/mol)

>  <smiles>  (97) 
CC(=O)N1CCN(c2ncc(C#N)cc2F)CC1

>  <score_type>  (97) 
oracle

>  <origin>  (97) 
adg

>  <m_score__min__energy>  (97) 
-4.3200000000000003

>  <m_primary>  (97) 
energy

$$$$
97:0
     RDKit          3D

 42 44  0  0  0  0  0  0  0  0999 V2000
   55.5190   25.4380   46.3160 O   0  0  0  0  0  0  0  0  0  0  0  0
   56.7690   25.2780   46.3160 C   0  0  0  0  0  0  0  0  0  0  0  0
   57.6040   26.3850   46.6840 N   0  0  0  0  0  0  0  0  0  0  0  0
   57.6020   27.7050   46.0530 C   0  0  0  0  0  0  0  0  0  0  0  0
   57.3890   27.5760   44.5360 C   0  0  0  0  0  0  0  0  0  0  0  0
   57.2740   28.9700   43.9030 C   0  0  0  0  0  0  0  0  0  0  0  0
   58.2240   29.9160   44.5040 N   0  0  0  0  0  0  0  0  0  0  0  0
   58.1510   31.3040   44.1320 C   0  0  0  0  0  0  0  0  0  0  0  0
   57.9010   31.6100   42.9350 O   0  0  0  0  0  0  0  0  0  0  0  0
   58.3380   32.3790   45.1330 C   0  0  0  0  0  0  0  0  0  0  0  0
   58.0690   32.1470   46.4940 C   0  0  0  0  0  0  0  0  0  0  0  0
   58.2360   33.1690   47.4340 C   0  0  0  0  0  0  0  0  0  0  0  0
   58.6640   34.4340   47.0230 C   0  0  0  0  0  0  0  0  0  0  0  0
   58.9200   34.6810   45.6720 C   0  0  0  0  0  0  0  0  0  0  0  0
   58.7540   33.6610   44.7290 C   0  0  0  0  0  0  0  0  0  0  0  0
   59.3750   29.4110   45.2660 C   0  0  0  0  0  0  0  0  0  0  0  0
   58.9330   28.4250   46.3660 C   0  0  0  0  0  0  0  0  0  0  0  0
   57.3220   23.9600   45.9520 C   0  0  0  0  0  0  0  0  0  0  0  0
   58.5250   23.8570   45.2390 C   0  0  0  0  0  0  0  0  0  0  0  0
   59.0160   22.5950   44.8980 C   0  0  0  0  0  0  0  0  0  0  0  0
   58.3260   21.4750   45.2420 N   0  0  0  0  0  0  0  0  0  0  0  0
   57.1450   21.5480   45.9150 C   0  0  0  0  0  0  0  0  0  0  0  0
   56.6180   22.7920   46.2740 C   0  0  0  0  0  0  0  0  0  0  0  0
   56.7713   28.3017   46.4579 H   0  0  0  0  0  0  0  0  0  0  0  0
   58.2429   27.0433   44.0920 H   0  0  0  0  0  0  0  0  0  0  0  0
   56.4615   27.0154   44.3473 H   0  0  0  0  0  0  0  0  0  0  0  0
   57.4816   28.8913   42.8256 H   0  0  0  0  0  0  0  0  0  0  0  0
   56.2554   29.3456   44.0799 H   0  0  0  0  0  0  0  0  0  0  0  0
   57.7249   31.1548   46.8213 H   0  0  0  0  0  0  0  0  0  0  0  0
   58.0303   32.9769   48.4974 H   0  0  0  0  0  0  0  0  0  0  0  0
   58.7995   35.2359   47.7637 H   0  0  0  0  0  0  0  0  0  0  0  0
   59.2525   35.6787   45.3493 H   0  0  0  0  0  0  0  0  0  0  0  0
   58.9498   33.8624   43.6655 H   0  0  0  0  0  0  0  0  0  0  0  0
   60.0612   28.8955   44.5780 H   0  0  0  0  0  0  0  0  0  0  0  0
   59.8733   30.2655   45.7471 H   0  0  0  0  0  0  0  0  0  0  0  0
   59.7190   27.6652   46.4883 H   0  0  0  0  0  0  0  0  0  0  0  0
   58.7739   29.0134   47.2817 H   0  0  0  0  0  0  0  0  0  0  0  0
   59.0777   24.7633   44.9505 H   0  0  0  0  0  0  0  0  0  0  0  0
   59.9650   22.5066   44.3488 H   0  0  0  0  0  0  0  0  0  0  0  0
   58.7070   20.5390   44.9800 H   0  0  0  0  0  0  0  0  0  0  0  0
   56.6044   20.6265   46.1768 H   0  0  0  0  0  0  0  0  0  0  0  0
   55.6570   22.8536   46.8057 H   0  0  0  0  0  0  0  0  0  0  0  0
  1  2  2  0
  2  3  1  0
  3  4  1  0
  4  5  1  0
  5  6  1  0
  6  7  1  0
  7  8  1  0
  8  9  2  0
  8 10  1  0
 10 11  2  0
 11 12  1  0
 12 13  2  0
 13 14  1  0
 14 15  2  0
  7 16  1  0
 16 17  1  0
  2 18  1  0
 18 19  2  0
 19 20  1  0
 20 21  2  0
 21 22  1  0
 22 23  2  0
 17  4  1  0
 23 18  1  0
 15 10  1  0
  4 24  1  0
  5 25  1  0
  5 26  1  0
  6 27  1  0
  6 28  1  0
 11 29  1  0
 12 30  1  0
 13 31  1  0
 14 32  1  0
 15 33  1  0
 16 34  1  0
 16 35  1  0
 17 36  1  0
 17 37  1  0
 19 38  1  0
 20 39  1  0
 21 40  1  0
 22 41  1  0
 23 42  1  0
M  CHG  2   3  -1  21   1
M  END
>  <UniqueID>  (98) 
89

>  <SMILES>  (98) 
O=C([N-]C1CCN(C(=O)c2ccccc2)CC1)c1cc[nH+]cc1

>  <Energy>  (98) 
53.953378116043204

>  <Genealogy>  (98) 
O=C([N-]C1CCN(C(=O)c2ccccc2)CC1)c1cc[nH+]cc1 (protonated)
O=C([N-]C1CCN(C(=O)c2ccccc2)CC1)c1cc[nH+]cc1 (3D coordinates assigned)
O=C([N-]C1CCN(C(=O)c2ccccc2)CC1)c1cc[nH+]cc1 (nonaromatic ring conformer: 53.953378116043204 kcal/mol)

>  <smiles>  (98) 
O=C(NC1CCN(C(=O)c2ccccc2)CC1)c1ccncc1

>  <score_type>  (98) 
oracle

>  <origin>  (98) 
adg

>  <m_score__min__energy>  (98) 
-8.3300000000000001

>  <m_primary>  (98) 
energy

$$$$
98:0
     RDKit          3D

 46 46  0  0  0  0  0  0  0  0999 V2000
   57.9514   31.1830   43.4282 H   0  0  0  0  0  0  0  0  0  0  0  0
   57.3900   30.8620   44.3180 C   0  0  0  0  0  0  0  0  0  0  0  0
   56.6280   31.7290   44.9150 N   0  0  0  0  0  0  0  0  0  0  0  0
   56.9390   33.1450   45.1120 C   0  0  0  0  0  0  0  0  0  0  0  0
   56.4845   33.4902   46.0524 H   0  0  0  0  0  0  0  0  0  0  0  0
   56.5359   33.7237   44.2678 H   0  0  0  0  0  0  0  0  0  0  0  0
   58.4590   33.3450   45.1790 C   0  0  0  0  0  0  0  0  0  0  0  0
   58.7009   34.3237   44.7391 H   0  0  0  0  0  0  0  0  0  0  0  0
   58.9190   32.5130   44.6256 H   0  0  0  0  0  0  0  0  0  0  0  0
   59.0230   33.3020   46.6120 C   0  0  0  0  0  0  0  0  0  0  0  0
   58.2894   33.7610   47.2910 H   0  0  0  0  0  0  0  0  0  0  0  0
   59.9770   33.8496   46.6059 H   0  0  0  0  0  0  0  0  0  0  0  0
   59.3170   31.8720   47.1020 C   0  0  0  0  0  0  0  0  0  0  0  0
   58.6146   31.1803   46.6140 H   0  0  0  0  0  0  0  0  0  0  0  0
   59.1995   31.8624   48.1957 H   0  0  0  0  0  0  0  0  0  0  0  0
   60.7530   31.4240   46.7820 C   0  0  0  0  0  0  0  0  0  0  0  0
   61.1496   32.0600   45.9769 H   0  0  0  0  0  0  0  0  0  0  0  0
   60.7135   30.3668   46.4808 H   0  0  0  0  0  0  0  0  0  0  0  0
   61.6890   31.5280   47.9990 C   0  0  0  0  0  0  0  0  0  0  0  0
   61.5425   30.6440   48.6370 H   0  0  0  0  0  0  0  0  0  0  0  0
   61.4426   32.4530   48.5409 H   0  0  0  0  0  0  0  0  0  0  0  0
   63.1720   31.6000   47.5790 C   0  0  0  0  0  0  0  0  0  0  0  0
   63.2770   31.1326   46.5888 H   0  0  0  0  0  0  0  0  0  0  0  0
   63.7539   31.0746   48.3506 H   0  0  0  0  0  0  0  0  0  0  0  0
   63.7160   33.0380   47.5000 C   0  0  0  0  0  0  0  0  0  0  0  0
   64.8081   32.9934   47.3760 H   0  0  0  0  0  0  0  0  0  0  0  0
   63.4292   33.5501   48.4303 H   0  0  0  0  0  0  0  0  0  0  0  0
   63.1260   33.8360   46.3380 C   0  0  0  0  0  0  0  0  0  0  0  0
   62.5156   34.6616   46.7327 H   0  0  0  0  0  0  0  0  0  0  0  0
   63.9410   34.2444   45.7224 H   0  0  0  0  0  0  0  0  0  0  0  0
   62.4967   33.1765   45.7224 H   0  0  0  0  0  0  0  0  0  0  0  0
   57.5380   29.4670   44.7770 C   0  0  0  0  0  0  0  0  0  0  0  0
   58.8140   28.9070   44.9240 C   0  0  0  0  0  0  0  0  0  0  0  0
   59.7038   29.4896   44.6431 H   0  0  0  0  0  0  0  0  0  0  0  0
   58.9600   27.6140   45.4250 C   0  0  0  0  0  0  0  0  0  0  0  0
   59.9636   27.1769   45.5333 H   0  0  0  0  0  0  0  0  0  0  0  0
   57.8350   26.8740   45.7890 C   0  0  0  0  0  0  0  0  0  0  0  0
   57.9594   25.8584   46.1928 H   0  0  0  0  0  0  0  0  0  0  0  0
   56.5480   27.4100   45.6460 C   0  0  0  0  0  0  0  0  0  0  0  0
   55.4630   26.6060   46.0280 O   0  0  0  0  0  0  0  0  0  0  0  0
   55.4710   24.8900   45.9850 S   0  0  0  0  0  0  0  0  0  0  0  0
   56.2920   24.3910   44.8250 O   0  0  0  0  0  0  0  0  0  0  0  0
   54.0580   24.4040   45.8270 O   0  0  0  0  0  0  0  0  0  0  0  0
   56.1090   24.2940   47.4240 O   0  0  0  0  0  0  0  0  0  0  0  0
   56.4020   28.7280   45.1580 C   0  0  0  0  0  0  0  0  0  0  0  0
   55.1480   29.3240   45.0800 O   0  0  0  0  0  0  0  0  0  0  0  0
  1  2  1  0
  2  3  2  0
  3  4  1  0
  4  5  1  0
  4  6  1  0
  4  7  1  0
  7  8  1  0
  7  9  1  0
  7 10  1  0
 10 11  1  0
 10 12  1  0
 10 13  1  0
 13 14  1  0
 13 15  1  0
 13 16  1  0
 16 17  1  0
 16 18  1  0
 16 19  1  0
 19 20  1  0
 19 21  1  0
 19 22  1  0
 22 23  1  0
 22 24  1  0
 22 25  1  0
 25 26  1  0
 25 27  1  0
 25 28  1  0
 28 29  1  0
 28 30  1  0
 28 31  1  0
  2 32  1  0
 32 33  2  0
 33 34  1  0
 33 35  1  0
 35 36  1  0
 35 37  2  0
 37 38  1  0
 37 39  1  0
 39 40  1  0
 40 41  1  0
 41 42  2  0
 41 43  2  0
 41 44  1  0
 39 45  2  0
 45 46  1  0
 45 32  1  0
M  CHG  2  44  -1  46  -1
M  END
>  <UniqueID>  (99) 
90

>  <SMILES>  (99) 
CCCCCCCCC/N=C\c1cccc(OS(=O)(=O)[O-])c1[O-]

>  <Energy>  (99) 
42.97563123026019

>  <Genealogy>  (99) 
CCCCCCCCCN=Cc1cccc(OS(=O)(=O)[O-])c1[O-] (protonated)
CCCCCCCCC/N=C\c1cccc(OS(=O)(=O)[O-])c1[O-] (cis-trans isomerization)
CCCCCCCCC/N=C\c1cccc(OS(=O)(=O)[O-])c1[O-] (3D coordinates assigned)
CCCCCCCCC/N=C\c1cccc(OS(=O)(=O)[O-])c1[O-] (optimized conformer: 42.97563123026019 kcal/mol)

>  <smiles>  (99) 
CCCCCCCCCN=Cc1cccc(OS(=O)(=O)O)c1O

>  <score_type>  (99) 
oracle

>  <origin>  (99) 
adg

>  <m_score__min__energy>  (99) 
-14.23

>  <m_primary>  (99) 
energy

$$$$
