0:0
     RDKit          3D

 36 38  0  0  0  0  0  0  0  0999 V2000
   61.0990   30.0150   46.2770 H   0  0  0  0  0  0  0  0  0  0  0  0
   60.5460   30.4630   47.0420 N   0  0  0  0  0  0  0  0  0  0  0  0
   60.2770   31.7290   47.0340 C   0  0  0  0  0  0  0  0  0  0  0  0
   59.2910   32.3640   46.1950 C   0  0  0  0  0  0  0  0  0  0  0  0
   58.4500   31.8320   45.2190 C   0  0  0  0  0  0  0  0  0  0  0  0
   58.4697   30.7589   44.9778 H   0  0  0  0  0  0  0  0  0  0  0  0
   57.5770   32.7070   44.5530 C   0  0  0  0  0  0  0  0  0  0  0  0
   56.9003   32.3192   43.7773 H   0  0  0  0  0  0  0  0  0  0  0  0
   57.5630   34.0800   44.8730 C   0  0  0  0  0  0  0  0  0  0  0  0
   56.8756   34.7576   44.3454 H   0  0  0  0  0  0  0  0  0  0  0  0
   58.4230   34.5880   45.8630 C   0  0  0  0  0  0  0  0  0  0  0  0
   58.4175   35.6581   46.1179 H   0  0  0  0  0  0  0  0  0  0  0  0
   59.2840   33.7030   46.5150 C   0  0  0  0  0  0  0  0  0  0  0  0
   60.2830   34.0090   47.5920 C   0  0  0  0  0  0  0  0  0  0  0  0
   61.0486   34.7107   47.2294 H   0  0  0  0  0  0  0  0  0  0  0  0
   59.8290   34.4884   48.4718 H   0  0  0  0  0  0  0  0  0  0  0  0
   60.8750   32.6990   47.8980 N   0  0  0  0  0  0  0  0  0  0  0  0
   62.1360   32.5430   48.5680 C   0  0  0  0  0  0  0  0  0  0  0  0
   62.1880   31.9590   49.8360 C   0  0  0  0  0  0  0  0  0  0  0  0
   61.2592   31.6353   50.3285 H   0  0  0  0  0  0  0  0  0  0  0  0
   63.4110   31.7850   50.4790 C   0  0  0  0  0  0  0  0  0  0  0  0
   63.4478   31.3261   51.4780 H   0  0  0  0  0  0  0  0  0  0  0  0
   64.5990   32.1970   49.8490 C   0  0  0  0  0  0  0  0  0  0  0  0
   65.8840   32.0180   50.4990 N   0  0  0  0  0  0  0  0  0  0  0  0
   66.1870   30.7820   51.2290 C   0  0  0  0  0  0  0  0  0  0  0  0
   66.1399   30.9743   52.3110 H   0  0  0  0  0  0  0  0  0  0  0  0
   65.4518   30.0087   50.9616 H   0  0  0  0  0  0  0  0  0  0  0  0
   67.1965   30.4363   50.9616 H   0  0  0  0  0  0  0  0  0  0  0  0
   66.9010   33.0730   50.4340 C   0  0  0  0  0  0  0  0  0  0  0  0
   67.1871   33.3698   51.4538 H   0  0  0  0  0  0  0  0  0  0  0  0
   67.7859   32.6969   49.8997 H   0  0  0  0  0  0  0  0  0  0  0  0
   66.4927   33.9435   49.8997 H   0  0  0  0  0  0  0  0  0  0  0  0
   64.5220   32.7680   48.6060 N   0  0  0  0  0  0  0  0  0  0  0  0
   65.3850   33.1040   48.1260 H   0  0  0  0  0  0  0  0  0  0  0  0
   63.3350   32.9480   47.9620 C   0  0  0  0  0  0  0  0  0  0  0  0
   63.3270   33.7390   46.3900 Cl  0  0  0  0  0  0  0  0  0  0  0  0
  1  2  1  0
  2  3  2  0
  3  4  1  0
  4  5  2  0
  5  6  1  0
  5  7  1  0
  7  8  1  0
  7  9  2  0
  9 10  1  0
  9 11  1  0
 11 12  1  0
 11 13  2  0
 13 14  1  0
 14 15  1  0
 14 16  1  0
 14 17  1  0
 17 18  1  0
 18 19  2  0
 19 20  1  0
 19 21  1  0
 21 22  1  0
 21 23  2  0
 23 24  1  0
 24 25  1  0
 25 26  1  0
 25 27  1  0
 25 28  1  0
 24 29  1  0
 29 30  1  0
 29 31  1  0
 29 32  1  0
 23 33  1  0
 33 34  1  0
 33 35  2  0
 35 36  1  0
 17  3  1  0
 35 18  1  0
 13  4  1  0
M  CHG  1  33   1
M  END
>  <UniqueID>  (1) 
1

>  <SMILES>  (1) 
[H]/N=C1/c2ccccc2CN1c1ccc(N(C)C)[nH+]c1Cl

>  <Energy>  (1) 
67.35424638664138

>  <Genealogy>  (1) 
CN(C)c1ccc(N2Cc3ccccc3C2=N)c(Cl)[nH+]1 (protonated)
[H]/N=C1/c2ccccc2CN1c1ccc(N(C)C)[nH+]c1Cl (cis-trans isomerization)
[H]/N=C1/c2ccccc2CN1c1ccc(N(C)C)[nH+]c1Cl (3D coordinates assigned)
[H]/N=C1/c2ccccc2CN1c1ccc(N(C)C)[nH+]c1Cl (nonaromatic ring conformer: 67.35424638664138 kcal/mol)

>  <smiles>  (1) 
CN(C)c1ccc(N2Cc3ccccc3C2=N)c(Cl)n1

>  <score_type>  (1) 
oracle

>  <origin>  (1) 
adg

>  <m_score__min__energy>  (1) 
-5.4100000000000001

>  <m_primary>  (1) 
energy

$$$$
1:0
     RDKit          3D

 25 26  0  0  0  0  0  0  0  0999 V2000
   58.1280   28.2543   47.4053 H   0  0  0  0  0  0  0  0  0  0  0  0
   57.8930   28.4860   46.3560 C   0  0  0  0  0  0  0  0  0  0  0  0
   57.4040   29.7100   46.0240 N   0  0  0  0  0  0  0  0  0  0  0  0
   57.0960   30.0470   44.7420 C   0  0  0  0  0  0  0  0  0  0  0  0
   56.6280   31.2420   44.5090 N   0  0  0  0  0  0  0  0  0  0  0  0
   57.3880   32.4310   44.1200 C   0  0  0  0  0  0  0  0  0  0  0  0
   58.1147   32.1550   43.3417 H   0  0  0  0  0  0  0  0  0  0  0  0
   56.6858   33.1876   43.7398 H   0  0  0  0  0  0  0  0  0  0  0  0
   58.1250   33.0090   45.3000 C   0  0  0  0  0  0  0  0  0  0  0  0
   58.6930   34.2890   45.2130 C   0  0  0  0  0  0  0  0  0  0  0  0
   58.6078   34.8712   44.2836 H   0  0  0  0  0  0  0  0  0  0  0  0
   59.3670   34.8180   46.3150 C   0  0  0  0  0  0  0  0  0  0  0  0
   59.8213   35.8181   46.2556 H   0  0  0  0  0  0  0  0  0  0  0  0
   59.4630   34.0750   47.4920 C   0  0  0  0  0  0  0  0  0  0  0  0
   59.9940   34.4825   48.3649 H   0  0  0  0  0  0  0  0  0  0  0  0
   58.8780   32.8090   47.5500 C   0  0  0  0  0  0  0  0  0  0  0  0
   58.9462   32.2155   48.4736 H   0  0  0  0  0  0  0  0  0  0  0  0
   58.2230   32.3060   46.4670 N   0  0  0  0  0  0  0  0  0  0  0  0
   57.7900   31.3580   46.5460 H   0  0  0  0  0  0  0  0  0  0  0  0
   57.2940   29.0970   43.7180 C   0  0  0  0  0  0  0  0  0  0  0  0
   57.0558   29.3489   42.6741 H   0  0  0  0  0  0  0  0  0  0  0  0
   57.7950   27.8340   44.0410 C   0  0  0  0  0  0  0  0  0  0  0  0
   57.9513   27.0848   43.2509 H   0  0  0  0  0  0  0  0  0  0  0  0
   58.0970   27.5240   45.3680 C   0  0  0  0  0  0  0  0  0  0  0  0
   58.4916   26.5315   45.6312 H   0  0  0  0  0  0  0  0  0  0  0  0
  1  2  1  0
  2  3  1  0
  3  4  1  0
  4  5  2  0
  5  6  1  0
  6  7  1  0
  6  8  1  0
  6  9  1  0
  9 10  2  0
 10 11  1  0
 10 12  1  0
 12 13  1  0
 12 14  2  0
 14 15  1  0
 14 16  1  0
 16 17  1  0
 16 18  2  0
 18 19  1  0
  4 20  1  0
 20 21  1  0
 20 22  2  0
 22 23  1  0
 22 24  1  0
 24 25  1  0
 24  2  2  0
 18  9  1  0
M  CHG  2   3  -1  18   1
M  END
>  <UniqueID>  (2) 
2

>  <SMILES>  (2) 
c1cc/c(=N\Cc2cccc[nH+]2)[n-]c1

>  <Energy>  (2) 
27.913866478653837

>  <Genealogy>  (2) 
c1ccc(=NCc2cccc[nH+]2)[n-]c1 (protonated)
c1cc/c(=N\Cc2cccc[nH+]2)[n-]c1 (cis-trans isomerization)
c1cc/c(=N\Cc2cccc[nH+]2)[n-]c1 (3D coordinates assigned)
c1cc/c(=N\Cc2cccc[nH+]2)[n-]c1 (optimized conformer: 27.913866478653837 kcal/mol)

>  <smiles>  (2) 
c1ccc(CN=c2cccc[nH]2)nc1

>  <score_type>  (2) 
oracle

>  <origin>  (2) 
adg

>  <m_score__min__energy>  (2) 
-5.2999999999999998

>  <m_primary>  (2) 
energy

$$$$
2:0
     RDKit          3D

 31 32  0  0  0  0  0  0  0  0999 V2000
   58.0334   31.0949   47.2366 H   0  0  0  0  0  0  0  0  0  0  0  0
   58.1570   31.8590   46.4550 C   0  0  0  0  0  0  0  0  0  0  0  0
   58.8180   33.0550   46.7500 C   0  0  0  0  0  0  0  0  0  0  0  0
   59.2218   33.2237   47.7592 H   0  0  0  0  0  0  0  0  0  0  0  0
   58.9680   34.0410   45.7630 C   0  0  0  0  0  0  0  0  0  0  0  0
   59.6400   35.3420   46.0890 C   0  0  0  0  0  0  0  0  0  0  0  0
   59.7008   35.4597   47.1810 H   0  0  0  0  0  0  0  0  0  0  0  0
   60.6539   35.3479   45.6625 H   0  0  0  0  0  0  0  0  0  0  0  0
   59.0580   36.1723   45.6625 H   0  0  0  0  0  0  0  0  0  0  0  0
   58.4120   33.8320   44.4910 C   0  0  0  0  0  0  0  0  0  0  0  0
   58.4960   34.6135   43.7215 H   0  0  0  0  0  0  0  0  0  0  0  0
   57.7520   32.6350   44.1980 C   0  0  0  0  0  0  0  0  0  0  0  0
   57.3105   32.4832   43.2020 H   0  0  0  0  0  0  0  0  0  0  0  0
   57.6500   31.6280   45.1660 C   0  0  0  0  0  0  0  0  0  0  0  0
   56.9170   30.4330   44.8580 N   0  0  0  0  0  0  0  0  0  0  0  0
   57.1690   29.2240   45.2750 C   0  0  0  0  0  0  0  0  0  0  0  0
   56.1310   28.3580   45.4130 N   0  0  0  0  0  0  0  0  0  0  0  0
   56.3220   27.0860   45.8450 C   0  0  0  0  0  0  0  0  0  0  0  0
   55.3380   26.3130   45.9720 O   0  0  0  0  0  0  0  0  0  0  0  0
   57.6070   26.6430   46.1490 C   0  0  0  0  0  0  0  0  0  0  0  0
   57.7753   25.6212   46.5199 H   0  0  0  0  0  0  0  0  0  0  0  0
   58.6790   27.5240   45.9730 C   0  0  0  0  0  0  0  0  0  0  0  0
   60.0810   27.0860   46.3010 C   0  0  0  0  0  0  0  0  0  0  0  0
   60.7943   27.7021   45.7338 H   0  0  0  0  0  0  0  0  0  0  0  0
   60.1942   26.0260   46.0296 H   0  0  0  0  0  0  0  0  0  0  0  0
   60.3570   27.2440   47.7910 C   0  0  0  0  0  0  0  0  0  0  0  0
   59.5432   26.7781   48.3661 H   0  0  0  0  0  0  0  0  0  0  0  0
   61.3097   26.7545   48.0414 H   0  0  0  0  0  0  0  0  0  0  0  0
   60.4173   28.3134   48.0414 H   0  0  0  0  0  0  0  0  0  0  0  0
   58.4430   28.7970   45.5430 N   0  0  0  0  0  0  0  0  0  0  0  0
   59.2630   29.4240   45.3900 H   0  0  0  0  0  0  0  0  0  0  0  0
  1  2  1  0
  2  3  2  0
  3  4  1  0
  3  5  1  0
  5  6  1  0
  6  7  1  0
  6  8  1  0
  6  9  1  0
  5 10  2  0
 10 11  1  0
 10 12  1  0
 12 13  1  0
 12 14  2  0
 14 15  1  0
 15 16  2  0
 16 17  1  0
 17 18  1  0
 18 19  2  0
 18 20  1  0
 20 21  1  0
 20 22  2  0
 22 23  1  0
 23 24  1  0
 23 25  1  0
 23 26  1  0
 26 27  1  0
 26 28  1  0
 26 29  1  0
 22 30  1  0
 30 31  1  0
 14  2  1  0
 30 16  1  0
M  CHG  1  17  -1
M  END
>  <UniqueID>  (3) 
3

>  <SMILES>  (3) 
CCc1cc(=O)[n-]/c(=N/c2ccc(C)cc2)[nH]1

>  <Energy>  (3) 
36.364166361428275

>  <Genealogy>  (3) 
CCc1cc(=O)[n-]c(=Nc2ccc(C)cc2)[nH]1 (protonated)
CCc1cc(=O)[n-]/c(=N/c2ccc(C)cc2)[nH]1 (cis-trans isomerization)
CCc1cc(=O)[n-]/c(=N/c2ccc(C)cc2)[nH]1 (3D coordinates assigned)
CCc1cc(=O)[n-]/c(=N/c2ccc(C)cc2)[nH]1 (optimized conformer: 36.364166361428275 kcal/mol)

>  <smiles>  (3) 
CCc1cc(=O)[nH]c(=Nc2ccc(C)cc2)[nH]1

>  <score_type>  (3) 
oracle

>  <origin>  (3) 
adg

>  <m_score__min__energy>  (3) 
-8.25

>  <m_primary>  (3) 
energy

$$$$
3:0
     RDKit          3D

 35 37  0  0  0  0  0  0  0  0999 V2000
   55.3680   29.3580   45.1080 O   0  0  0  0  0  0  0  0  0  0  0  0
   55.4170   29.7020   43.7510 C   0  0  0  0  0  0  0  0  0  0  0  0
   56.8260   30.1590   43.3800 C   0  0  0  0  0  0  0  0  0  0  0  0
   57.3600   31.0540   44.4020 N   0  0  0  0  0  0  0  0  0  0  0  0
   58.5870   30.9830   44.9510 C   0  0  0  0  0  0  0  0  0  0  0  0
   58.6860   31.9720   45.9140 C   0  0  0  0  0  0  0  0  0  0  0  0
   59.8510   32.2790   46.7840 C   0  0  0  0  0  0  0  0  0  0  0  0
   60.7790   31.2770   47.1200 C   0  0  0  0  0  0  0  0  0  0  0  0
   61.8750   31.5660   47.9380 C   0  0  0  0  0  0  0  0  0  0  0  0
   62.0700   32.8630   48.4410 C   0  0  0  0  0  0  0  0  0  0  0  0
   63.2340   33.1700   49.3100 C   0  0  0  0  0  0  0  0  0  0  0  0
   63.0810   33.9690   50.4570 C   0  0  0  0  0  0  0  0  0  0  0  0
   64.1900   34.2460   51.2620 C   0  0  0  0  0  0  0  0  0  0  0  0
   65.4110   33.7470   50.9360 N   0  0  0  0  0  0  0  0  0  0  0  0
   65.5930   32.9720   49.8340 C   0  0  0  0  0  0  0  0  0  0  0  0
   64.5120   32.6700   49.0030 C   0  0  0  0  0  0  0  0  0  0  0  0
   61.1430   33.8650   48.1080 C   0  0  0  0  0  0  0  0  0  0  0  0
   60.0480   33.5770   47.2890 C   0  0  0  0  0  0  0  0  0  0  0  0
   57.4500   32.6060   45.8940 C   0  0  0  0  0  0  0  0  0  0  0  0
   56.6610   32.0230   44.9710 N   0  0  0  0  0  0  0  0  0  0  0  0
   55.8090   30.1010   45.5950 H   0  0  0  0  0  0  0  0  0  0  0  0
   55.1459   28.8263   43.1430 H   0  0  0  0  0  0  0  0  0  0  0  0
   54.7089   30.5218   43.5599 H   0  0  0  0  0  0  0  0  0  0  0  0
   57.4803   29.2791   43.2919 H   0  0  0  0  0  0  0  0  0  0  0  0
   56.7839   30.6983   42.4222 H   0  0  0  0  0  0  0  0  0  0  0  0
   59.3743   30.2638   44.6811 H   0  0  0  0  0  0  0  0  0  0  0  0
   60.6409   30.2558   46.7353 H   0  0  0  0  0  0  0  0  0  0  0  0
   62.5915   30.7704   48.1902 H   0  0  0  0  0  0  0  0  0  0  0  0
   62.0928   34.3744   50.7198 H   0  0  0  0  0  0  0  0  0  0  0  0
   64.0738   34.8691   52.1610 H   0  0  0  0  0  0  0  0  0  0  0  0
   66.5937   32.5820   49.5964 H   0  0  0  0  0  0  0  0  0  0  0  0
   64.6597   32.0431   48.1113 H   0  0  0  0  0  0  0  0  0  0  0  0
   61.2805   34.8853   48.4955 H   0  0  0  0  0  0  0  0  0  0  0  0
   59.3327   34.3736   47.0366 H   0  0  0  0  0  0  0  0  0  0  0  0
   57.1604   33.4531   46.5331 H   0  0  0  0  0  0  0  0  0  0  0  0
  1  2  1  0
  2  3  1  0
  3  4  1  0
  4  5  1  0
  5  6  2  0
  6  7  1  0
  7  8  2  0
  8  9  1  0
  9 10  2  0
 10 11  1  0
 11 12  2  0
 12 13  1  0
 13 14  2  0
 14 15  1  0
 15 16  2  0
 10 17  1  0
 17 18  2  0
  6 19  1  0
 19 20  2  0
 20  4  1  0
 18  7  1  0
 16 11  1  0
  1 21  1  0
  2 22  1  0
  2 23  1  0
  3 24  1  0
  3 25  1  0
  5 26  1  0
  8 27  1  0
  9 28  1  0
 12 29  1  0
 13 30  1  0
 15 31  1  0
 16 32  1  0
 17 33  1  0
 18 34  1  0
 19 35  1  0
M  END
>  <UniqueID>  (4) 
4

>  <SMILES>  (4) 
OCCn1cc(-c2ccc(-c3ccncc3)cc2)cn1

>  <Energy>  (4) 
71.94072299393518

>  <Genealogy>  (4) 
OCCn1cc(-c2ccc(-c3ccncc3)cc2)cn1 (3D coordinates assigned)
OCCn1cc(-c2ccc(-c3ccncc3)cc2)cn1 (optimized conformer: 71.94072299393518 kcal/mol)

>  <smiles>  (4) 
OCCn1cc(-c2ccc(-c3ccncc3)cc2)cn1

>  <score_type>  (4) 
oracle

>  <origin>  (4) 
adg

>  <m_score__min__energy>  (4) 
-7.0899999999999999

>  <m_primary>  (4) 
energy

$$$$
4:0
     RDKit          3D

 30 32  0  0  0  0  0  0  0  0999 V2000
   54.8100   26.3380   45.9960 O   0  0  0  0  0  0  0  0  0  0  0  0
   56.0350   26.0490   46.0050 C   0  0  0  0  0  0  0  0  0  0  0  0
   56.4960   24.7860   46.5170 N   0  0  0  0  0  0  0  0  0  0  0  0
   55.6730   23.7370   47.0590 C   0  0  0  0  0  0  0  0  0  0  0  0
   55.8870   22.9840   48.2120 C   0  0  0  0  0  0  0  0  0  0  0  0
   54.8760   22.0410   48.4430 C   0  0  0  0  0  0  0  0  0  0  0  0
   53.8730   22.0460   47.4820 C   0  0  0  0  0  0  0  0  0  0  0  0
   54.2410   23.2260   46.3420 S   0  0  0  0  0  0  0  0  0  0  0  0
   57.0050   27.0240   45.4820 C   0  0  0  0  0  0  0  0  0  0  0  0
   58.1230   26.7320   44.7250 C   0  0  0  0  0  0  0  0  0  0  0  0
   58.7280   27.9420   44.4650 C   0  0  0  0  0  0  0  0  0  0  0  0
   57.9400   28.9040   45.0820 C   0  0  0  0  0  0  0  0  0  0  0  0
   58.1640   30.3680   45.0970 C   0  0  0  0  0  0  0  0  0  0  0  0
   58.9650   30.9360   46.1040 C   0  0  0  0  0  0  0  0  0  0  0  0
   59.1900   32.3150   46.1380 C   0  0  0  0  0  0  0  0  0  0  0  0
   58.6200   33.1430   45.1680 C   0  0  0  0  0  0  0  0  0  0  0  0
   58.9050   34.8740   45.2120 Cl  0  0  0  0  0  0  0  0  0  0  0  0
   57.8230   32.5900   44.1620 C   0  0  0  0  0  0  0  0  0  0  0  0
   57.5950   31.2110   44.1240 C   0  0  0  0  0  0  0  0  0  0  0  0
   56.9230   28.3200   45.6780 O   0  0  0  0  0  0  0  0  0  0  0  0
   57.5240   24.6020   46.4990 H   0  0  0  0  0  0  0  0  0  0  0  0
   56.7576   23.1158   48.8713 H   0  0  0  0  0  0  0  0  0  0  0  0
   54.8768   21.3593   49.3063 H   0  0  0  0  0  0  0  0  0  0  0  0
   52.9897   21.3906   47.4690 H   0  0  0  0  0  0  0  0  0  0  0  0
   58.4607   25.7378   44.3972 H   0  0  0  0  0  0  0  0  0  0  0  0
   59.6481   28.1114   43.8864 H   0  0  0  0  0  0  0  0  0  0  0  0
   59.4178   30.2900   46.8706 H   0  0  0  0  0  0  0  0  0  0  0  0
   59.8173   32.7493   46.9304 H   0  0  0  0  0  0  0  0  0  0  0  0
   57.3738   33.2414   43.3979 H   0  0  0  0  0  0  0  0  0  0  0  0
   56.9672   30.7824   43.3289 H   0  0  0  0  0  0  0  0  0  0  0  0
  1  2  2  0
  2  3  1  0
  3  4  1  0
  4  5  2  0
  5  6  1  0
  6  7  2  0
  7  8  1  0
  2  9  1  0
  9 10  2  0
 10 11  1  0
 11 12  2  0
 12 13  1  0
 13 14  2  0
 14 15  1  0
 15 16  2  0
 16 17  1  0
 16 18  1  0
 18 19  2  0
 12 20  1  0
  8  4  1  0
 20  9  1  0
 19 13  1  0
  3 21  1  0
  5 22  1  0
  6 23  1  0
  7 24  1  0
 10 25  1  0
 11 26  1  0
 14 27  1  0
 15 28  1  0
 18 29  1  0
 19 30  1  0
M  END
>  <UniqueID>  (5) 
5

>  <SMILES>  (5) 
O=C(Nc1cccs1)c1ccc(-c2ccc(Cl)cc2)o1

>  <Energy>  (5) 
87.43766457053214

>  <Genealogy>  (5) 
O=C(Nc1cccs1)c1ccc(-c2ccc(Cl)cc2)o1 (3D coordinates assigned)
O=C(Nc1cccs1)c1ccc(-c2ccc(Cl)cc2)o1 (optimized conformer: 87.43766457053214 kcal/mol)

>  <smiles>  (5) 
O=C(Nc1cccs1)c1ccc(-c2ccc(Cl)cc2)o1

>  <score_type>  (5) 
oracle

>  <origin>  (5) 
adg

>  <m_score__min__energy>  (5) 
-6.6200000000000001

>  <m_primary>  (5) 
energy

$$$$
5:0
     RDKit          3D

 57 61  0  0  0  0  0  0  0  0999 V2000
   56.8360   25.8760   46.3950 C   0  0  0  0  0  0  0  0  0  0  0  0
   57.2590   26.2360   44.9880 C   0  0  0  0  0  0  0  0  0  0  0  0
   57.5110   27.5900   44.6610 C   0  0  0  0  0  0  0  0  0  0  0  0
   57.4330   28.5930   45.6880 N   0  0  0  0  0  0  0  0  0  0  0  0
   57.3590   30.0120   45.4930 C   0  0  0  0  0  0  0  0  0  0  0  0
   56.3780   30.5160   44.8840 O   0  0  0  0  0  0  0  0  0  0  0  0
   58.4080   30.8910   46.0620 C   0  0  0  0  0  0  0  0  0  0  0  0
   58.1900   32.2680   46.2160 C   0  0  0  0  0  0  0  0  0  0  0  0
   59.1890   33.0840   46.7460 C   0  0  0  0  0  0  0  0  0  0  0  0
   60.4200   32.5230   47.1240 C   0  0  0  0  0  0  0  0  0  0  0  0
   61.4740   33.3340   47.6860 N   0  0  0  0  0  0  0  0  0  0  0  0
   62.7140   33.5770   46.9350 C   0  0  0  0  0  0  0  0  0  0  0  0
   63.9430   33.1220   47.7430 C   0  0  0  0  0  0  0  0  0  0  0  0
   63.7850   33.2960   49.2810 C   0  0  0  0  0  0  0  0  0  0  0  0
   62.6970   34.3360   49.6110 C   0  0  0  0  0  0  0  0  0  0  0  0
   61.3370   33.9090   49.0360 C   0  0  0  0  0  0  0  0  0  0  0  0
   65.0110   33.7460   49.8210 O   0  0  0  0  0  0  0  0  0  0  0  0
   65.4330   32.7610   50.7120 C   0  0  0  0  0  0  0  0  0  0  0  0
   64.5520   31.5740   50.4840 C   0  0  0  0  0  0  0  0  0  0  0  0
   63.4110   32.0580   49.8510 O   0  0  0  0  0  0  0  0  0  0  0  0
   60.6090   31.1840   46.9650 N   0  0  0  0  0  0  0  0  0  0  0  0
   59.6500   30.3670   46.4540 C   0  0  0  0  0  0  0  0  0  0  0  0
   57.8980   27.9300   43.3520 C   0  0  0  0  0  0  0  0  0  0  0  0
   58.0080   26.9490   42.3700 C   0  0  0  0  0  0  0  0  0  0  0  0
   57.7710   25.6130   42.6840 C   0  0  0  0  0  0  0  0  0  0  0  0
   57.4190   25.2380   43.9910 C   0  0  0  0  0  0  0  0  0  0  0  0
   57.2350   23.7960   44.2810 C   0  0  0  0  0  0  0  0  0  0  0  0
   57.9970   23.1680   45.2740 C   0  0  0  0  0  0  0  0  0  0  0  0
   57.8120   21.8100   45.5420 C   0  0  0  0  0  0  0  0  0  0  0  0
   56.8580   21.0940   44.8180 C   0  0  0  0  0  0  0  0  0  0  0  0
   56.1160   21.7180   43.8650 N   0  0  0  0  0  0  0  0  0  0  0  0
   56.2800   23.0390   43.5850 C   0  0  0  0  0  0  0  0  0  0  0  0
   57.4681   26.4139   47.1169 H   0  0  0  0  0  0  0  0  0  0  0  0
   55.7841   26.1601   46.5456 H   0  0  0  0  0  0  0  0  0  0  0  0
   56.9483   24.7922   46.5456 H   0  0  0  0  0  0  0  0  0  0  0  0
   57.2264   32.7064   45.9173 H   0  0  0  0  0  0  0  0  0  0  0  0
   59.0136   34.1631   46.8676 H   0  0  0  0  0  0  0  0  0  0  0  0
   62.6776   33.0173   45.9887 H   0  0  0  0  0  0  0  0  0  0  0  0
   62.8012   34.6560   46.7397 H   0  0  0  0  0  0  0  0  0  0  0  0
   64.1221   32.0575   47.5313 H   0  0  0  0  0  0  0  0  0  0  0  0
   64.7833   33.7609   47.4337 H   0  0  0  0  0  0  0  0  0  0  0  0
   62.6115   34.4334   50.7033 H   0  0  0  0  0  0  0  0  0  0  0  0
   62.9824   35.2980   49.1604 H   0  0  0  0  0  0  0  0  0  0  0  0
   60.8892   33.1557   49.7009 H   0  0  0  0  0  0  0  0  0  0  0  0
   60.6980   34.8016   48.9660 H   0  0  0  0  0  0  0  0  0  0  0  0
   66.4831   32.4975   50.5173 H   0  0  0  0  0  0  0  0  0  0  0  0
   65.3656   33.1115   51.7525 H   0  0  0  0  0  0  0  0  0  0  0  0
   65.0607   30.8379   49.8442 H   0  0  0  0  0  0  0  0  0  0  0  0
   64.3043   31.0690   51.4293 H   0  0  0  0  0  0  0  0  0  0  0  0
   59.8482   29.2903   46.3472 H   0  0  0  0  0  0  0  0  0  0  0  0
   58.1154   28.9790   43.1023 H   0  0  0  0  0  0  0  0  0  0  0  0
   58.2830   27.2302   41.3427 H   0  0  0  0  0  0  0  0  0  0  0  0
   57.8603   24.8449   41.9017 H   0  0  0  0  0  0  0  0  0  0  0  0
   58.7413   23.7444   45.8429 H   0  0  0  0  0  0  0  0  0  0  0  0
   58.4124   21.3098   46.3162 H   0  0  0  0  0  0  0  0  0  0  0  0
   56.7061   20.0232   45.0186 H   0  0  0  0  0  0  0  0  0  0  0  0
   55.6617   23.5157   42.8101 H   0  0  0  0  0  0  0  0  0  0  0  0
  1  2  1  0
  2  3  2  0
  3  4  1  0
  4  5  1  0
  5  6  2  0
  5  7  1  0
  7  8  2  0
  8  9  1  0
  9 10  2  0
 10 11  1  0
 11 12  1  0
 12 13  1  0
 13 14  1  0
 14 15  1  0
 15 16  1  0
 14 17  1  0
 17 18  1  0
 18 19  1  0
 19 20  1  0
 10 21  1  0
 21 22  2  0
  3 23  1  0
 23 24  2  0
 24 25  1  0
 25 26  2  0
 26 27  1  0
 27 28  2  0
 28 29  1  0
 29 30  2  0
 30 31  1  0
 31 32  2  0
 26  2  1  0
 32 27  1  0
 22  7  1  0
 16 11  1  0
 20 14  1  0
  1 33  1  0
  1 34  1  0
  1 35  1  0
  8 36  1  0
  9 37  1  0
 12 38  1  0
 12 39  1  0
 13 40  1  0
 13 41  1  0
 15 42  1  0
 15 43  1  0
 16 44  1  0
 16 45  1  0
 18 46  1  0
 18 47  1  0
 19 48  1  0
 19 49  1  0
 22 50  1  0
 23 51  1  0
 24 52  1  0
 25 53  1  0
 28 54  1  0
 29 55  1  0
 30 56  1  0
 32 57  1  0
M  CHG  1   4  -1
M  END
>  <UniqueID>  (6) 
6

>  <SMILES>  (6) 
Cc1c([N-]C(=O)c2ccc(N3CCC4(CC3)OCCO4)nc2)cccc1-c1cccnc1

>  <Energy>  (6) 
78.25170409162837

>  <Genealogy>  (6) 
Cc1c([N-]C(=O)c2ccc(N3CCC4(CC3)OCCO4)nc2)cccc1-c1cccnc1 (protonated)
Cc1c([N-]C(=O)c2ccc(N3CCC4(CC3)OCCO4)nc2)cccc1-c1cccnc1 (3D coordinates assigned)
Cc1c([N-]C(=O)c2ccc(N3CCC4(CC3)OCCO4)nc2)cccc1-c1cccnc1 (nonaromatic ring conformer: 78.25170409162837 kcal/mol)

>  <smiles>  (6) 
Cc1c(NC(=O)c2ccc(N3CCC4(CC3)OCCO4)nc2)cccc1-c1cccnc1

>  <score_type>  (6) 
oracle

>  <origin>  (6) 
adg

>  <m_score__min__energy>  (6) 
-10.44

>  <m_primary>  (6) 
energy

$$$$
6:0
     RDKit          3D

 20 20  0  0  0  0  0  0  0  0999 V2000
   58.3260   33.2167   44.9933 H   0  0  0  0  0  0  0  0  0  0  0  0
   57.8130   32.6170   44.2270 C   0  0  0  0  0  0  0  0  0  0  0  0
   58.5593   32.1078   43.5995 H   0  0  0  0  0  0  0  0  0  0  0  0
   57.1943   33.2754   43.5995 H   0  0  0  0  0  0  0  0  0  0  0  0
   56.9910   31.6560   44.8540 O   0  0  0  0  0  0  0  0  0  0  0  0
   57.2270   30.3750   44.3000 C   0  0  0  0  0  0  0  0  0  0  0  0
   56.9422   30.3852   43.2376 H   0  0  0  0  0  0  0  0  0  0  0  0
   58.2952   30.1377   44.4122 H   0  0  0  0  0  0  0  0  0  0  0  0
   56.4250   29.3180   45.0140 C   0  0  0  0  0  0  0  0  0  0  0  0
   55.1770   29.3010   44.8500 O   0  0  0  0  0  0  0  0  0  0  0  0
   57.0230   28.2820   45.8110 N   0  0  0  0  0  0  0  0  0  0  0  0
   56.6570   27.0390   45.9440 C   0  0  0  0  0  0  0  0  0  0  0  0
   55.3560   26.6820   46.0000 N   0  0  0  0  0  0  0  0  0  0  0  0
   55.1740   25.3750   46.1750 N   0  0  0  0  0  0  0  0  0  0  0  0
   56.3290   24.6830   46.2830 C   0  0  0  0  0  0  0  0  0  0  0  0
   56.3940   23.2010   46.4200 C   0  0  0  0  0  0  0  0  0  0  0  0
   56.4058   22.9315   47.4864 H   0  0  0  0  0  0  0  0  0  0  0  0
   55.5148   22.7492   45.9374 H   0  0  0  0  0  0  0  0  0  0  0  0
   57.3094   22.8280   45.9374 H   0  0  0  0  0  0  0  0  0  0  0  0
   57.6660   25.6960   46.1350 S   0  0  0  0  0  0  0  0  0  0  0  0
  1  2  1  0
  2  3  1  0
  2  4  1  0
  2  5  1  0
  5  6  1  0
  6  7  1  0
  6  8  1  0
  6  9  1  0
  9 10  2  0
  9 11  1  0
 11 12  2  0
 12 13  1  0
 13 14  1  0
 14 15  2  0
 15 16  1  0
 16 17  1  0
 16 18  1  0
 16 19  1  0
 15 20  1  0
 20 12  1  0
M  CHG  1  13  -1
M  END
>  <UniqueID>  (7) 
7

>  <SMILES>  (7) 
COCC(=O)/N=c1/[n-]nc(C)s1

>  <Energy>  (7) 
58.265788792094824

>  <Genealogy>  (7) 
COCC(=O)N=c1[n-]nc(C)s1 (protonated)
COCC(=O)/N=c1/[n-]nc(C)s1 (cis-trans isomerization)
COCC(=O)/N=c1/[n-]nc(C)s1 (3D coordinates assigned)
COCC(=O)/N=c1/[n-]nc(C)s1 (optimized conformer: 58.265788792094824 kcal/mol)

>  <smiles>  (7) 
COCC(=O)N=c1[nH]nc(C)s1

>  <score_type>  (7) 
oracle

>  <origin>  (7) 
adg

>  <m_score__min__energy>  (7) 
-7.3799999999999999

>  <m_primary>  (7) 
energy

$$$$
7:0
     RDKit          3D

 28 29  0  0  0  0  0  0  0  0999 V2000
   55.2540   29.7230   43.8780 C   0  0  0  0  0  0  0  0  0  0  0  0
   55.5570   28.7830   44.9040 O   0  0  0  0  0  0  0  0  0  0  0  0
   56.8440   28.3000   45.1900 C   0  0  0  0  0  0  0  0  0  0  0  0
   58.0010   28.9880   44.7740 C   0  0  0  0  0  0  0  0  0  0  0  0
   59.2680   28.4560   45.0220 C   0  0  0  0  0  0  0  0  0  0  0  0
   59.3980   27.2320   45.6780 C   0  0  0  0  0  0  0  0  0  0  0  0
   58.2600   26.5440   46.1050 C   0  0  0  0  0  0  0  0  0  0  0  0
   56.9840   27.0810   45.8930 C   0  0  0  0  0  0  0  0  0  0  0  0
   55.8490   26.3410   46.3680 N   0  0  0  0  0  0  0  0  0  0  0  0
   55.1370   25.3210   45.6540 C   0  0  0  0  0  0  0  0  0  0  0  0
   53.8800   25.3860   45.6050 O   0  0  0  0  0  0  0  0  0  0  0  0
   55.8340   24.2260   44.9380 C   0  0  0  0  0  0  0  0  0  0  0  0
   57.0980   23.7730   45.3500 C   0  0  0  0  0  0  0  0  0  0  0  0
   57.7280   22.7330   44.6650 C   0  0  0  0  0  0  0  0  0  0  0  0
   57.0950   22.1580   43.5630 C   0  0  0  0  0  0  0  0  0  0  0  0
   55.8790   22.6140   43.1610 N   0  0  0  0  0  0  0  0  0  0  0  0
   55.2450   23.6260   43.8130 C   0  0  0  0  0  0  0  0  0  0  0  0
   54.9468   30.6762   44.3331 H   0  0  0  0  0  0  0  0  0  0  0  0
   56.1454   29.8850   43.2542 H   0  0  0  0  0  0  0  0  0  0  0  0
   54.4358   29.3339   43.2542 H   0  0  0  0  0  0  0  0  0  0  0  0
   57.9056   29.9507   44.2504 H   0  0  0  0  0  0  0  0  0  0  0  0
   60.1658   29.0036   44.6992 H   0  0  0  0  0  0  0  0  0  0  0  0
   60.3969   26.8085   45.8591 H   0  0  0  0  0  0  0  0  0  0  0  0
   58.3667   25.5734   46.6115 H   0  0  0  0  0  0  0  0  0  0  0  0
   57.5927   24.2392   46.2149 H   0  0  0  0  0  0  0  0  0  0  0  0
   58.7140   22.3703   44.9909 H   0  0  0  0  0  0  0  0  0  0  0  0
   57.5803   21.3346   43.0186 H   0  0  0  0  0  0  0  0  0  0  0  0
   54.2650   23.9764   43.4568 H   0  0  0  0  0  0  0  0  0  0  0  0
  1  2  1  0
  2  3  1  0
  3  4  2  0
  4  5  1  0
  5  6  2  0
  6  7  1  0
  7  8  2  0
  8  9  1  0
  9 10  1  0
 10 11  2  0
 10 12  1  0
 12 13  2  0
 13 14  1  0
 14 15  2  0
 15 16  1  0
 16 17  2  0
  8  3  1  0
 17 12  1  0
  1 18  1  0
  1 19  1  0
  1 20  1  0
  4 21  1  0
  5 22  1  0
  6 23  1  0
  7 24  1  0
 13 25  1  0
 14 26  1  0
 15 27  1  0
 17 28  1  0
M  CHG  1   9  -1
M  END
>  <UniqueID>  (8) 
8

>  <SMILES>  (8) 
COc1ccccc1[N-]C(=O)c1cccnc1

>  <Energy>  (8) 
36.852339545357765

>  <Genealogy>  (8) 
COc1ccccc1[N-]C(=O)c1cccnc1 (protonated)
COc1ccccc1[N-]C(=O)c1cccnc1 (3D coordinates assigned)
COc1ccccc1[N-]C(=O)c1cccnc1 (optimized conformer: 36.852339545357765 kcal/mol)

>  <smiles>  (8) 
COc1ccccc1NC(=O)c1cccnc1

>  <score_type>  (8) 
oracle

>  <origin>  (8) 
adg

>  <m_score__min__energy>  (8) 
-8.6400000000000006

>  <m_primary>  (8) 
energy

$$$$
8:0
     RDKit          3D

 36 38  0  0  0  0  0  0  0  0999 V2000
   56.9970   30.4910   45.2110 O   0  0  0  0  0  0  0  0  0  0  0  0
   58.2070   30.7790   45.4200 C   0  0  0  0  0  0  0  0  0  0  0  0
   59.1850   29.7270   45.5370 N   0  0  0  0  0  0  0  0  0  0  0  0
   58.8580   28.3270   45.5330 C   0  0  0  0  0  0  0  0  0  0  0  0
   58.3700   27.7380   44.3570 C   0  0  0  0  0  0  0  0  0  0  0  0
   58.0690   26.3740   44.3200 C   0  0  0  0  0  0  0  0  0  0  0  0
   58.2440   25.5790   45.4640 C   0  0  0  0  0  0  0  0  0  0  0  0
   57.9970   24.1650   45.4330 N   0  0  0  0  0  0  0  0  0  0  0  0
   57.3070   23.4970   44.5490 C   0  0  0  0  0  0  0  0  0  0  0  0
   57.7700   22.2340   44.1570 C   0  0  0  0  0  0  0  0  0  0  0  0
   57.0490   21.4890   43.2200 C   0  0  0  0  0  0  0  0  0  0  0  0
   55.8950   21.9820   42.7000 N   0  0  0  0  0  0  0  0  0  0  0  0
   55.4070   23.1940   43.0710 C   0  0  0  0  0  0  0  0  0  0  0  0
   56.0960   23.9730   44.0040 C   0  0  0  0  0  0  0  0  0  0  0  0
   58.7880   26.1510   46.6190 C   0  0  0  0  0  0  0  0  0  0  0  0
   59.0890   27.5160   46.6590 C   0  0  0  0  0  0  0  0  0  0  0  0
   58.5950   32.2060   45.5330 C   0  0  0  0  0  0  0  0  0  0  0  0
   59.6680   32.6150   46.3500 C   0  0  0  0  0  0  0  0  0  0  0  0
   60.0170   33.9650   46.4350 C   0  0  0  0  0  0  0  0  0  0  0  0
   59.3090   34.9220   45.7040 C   0  0  0  0  0  0  0  0  0  0  0  0
   59.6500   36.2310   45.7880 F   0  0  0  0  0  0  0  0  0  0  0  0
   58.2520   34.5280   44.8800 C   0  0  0  0  0  0  0  0  0  0  0  0
   57.8990   33.1780   44.7910 C   0  0  0  0  0  0  0  0  0  0  0  0
   60.1980   29.9740   45.5780 H   0  0  0  0  0  0  0  0  0  0  0  0
   58.2233   28.3543   43.4577 H   0  0  0  0  0  0  0  0  0  0  0  0
   57.6933   25.9211   43.3906 H   0  0  0  0  0  0  0  0  0  0  0  0
   58.6989   21.8298   44.5858 H   0  0  0  0  0  0  0  0  0  0  0  0
   57.4165   20.5018   42.9031 H   0  0  0  0  0  0  0  0  0  0  0  0
   54.4667   23.5633   42.6357 H   0  0  0  0  0  0  0  0  0  0  0  0
   55.6969   24.9508   44.3115 H   0  0  0  0  0  0  0  0  0  0  0  0
   58.9802   25.5229   47.5014 H   0  0  0  0  0  0  0  0  0  0  0  0
   59.5083   27.9576   47.5751 H   0  0  0  0  0  0  0  0  0  0  0  0
   60.2341   31.8668   46.9242 H   0  0  0  0  0  0  0  0  0  0  0  0
   60.8523   34.2756   47.0799 H   0  0  0  0  0  0  0  0  0  0  0  0
   57.6969   35.2805   44.3007 H   0  0  0  0  0  0  0  0  0  0  0  0
   57.0701   32.8732   44.1353 H   0  0  0  0  0  0  0  0  0  0  0  0
  1  2  2  0
  2  3  1  0
  3  4  1  0
  4  5  2  0
  5  6  1  0
  6  7  2  0
  7  8  1  0
  8  9  2  3
  9 10  1  0
 10 11  2  0
 11 12  1  0
 12 13  1  0
 13 14  2  0
  7 15  1  0
 15 16  2  0
  2 17  1  0
 17 18  2  0
 18 19  1  0
 19 20  2  0
 20 21  1  0
 20 22  1  0
 22 23  2  0
 16  4  1  0
 23 17  1  0
 14  9  1  0
  3 24  1  0
  5 25  1  0
  6 26  1  0
 10 27  1  0
 11 28  1  0
 13 29  1  0
 14 30  1  0
 15 31  1  0
 16 32  1  0
 18 33  1  0
 19 34  1  0
 22 35  1  0
 23 36  1  0
M  CHG  1  12  -1
M  END
>  <UniqueID>  (9) 
9

>  <SMILES>  (9) 
O=C(Nc1ccc(N=c2cc[n-]cc2)cc1)c1ccc(F)cc1

>  <Energy>  (9) 
56.47359448733917

>  <Genealogy>  (9) 
O=C(Nc1ccc(N=c2cc[n-]cc2)cc1)c1ccc(F)cc1 (protonated)
O=C(Nc1ccc(N=c2cc[n-]cc2)cc1)c1ccc(F)cc1 (3D coordinates assigned)
O=C(Nc1ccc(N=c2cc[n-]cc2)cc1)c1ccc(F)cc1 (optimized conformer: 56.47359448733917 kcal/mol)

>  <smiles>  (9) 
O=C(Nc1ccc(N=c2cc[nH]cc2)cc1)c1ccc(F)cc1

>  <score_type>  (9) 
oracle

>  <origin>  (9) 
adg

>  <m_score__min__energy>  (9) 
-8.8599999999999994

>  <m_primary>  (9) 
energy

$$$$
9:0
     RDKit          3D

 36 37  0  0  0  0  0  0  0  0999 V2000
   57.7210   31.9910   41.9520 C   0  0  0  0  0  0  0  0  0  0  0  0
   57.0340   30.9640   42.6560 O   0  0  0  0  0  0  0  0  0  0  0  0
   56.7270   31.0560   44.0180 C   0  0  0  0  0  0  0  0  0  0  0  0
   55.7880   30.3650   44.5020 O   0  0  0  0  0  0  0  0  0  0  0  0
   57.5070   31.9640   44.8890 C   0  0  0  0  0  0  0  0  0  0  0  0
   57.3840   33.3570   44.7530 C   0  0  0  0  0  0  0  0  0  0  0  0
   58.1380   34.2170   45.5560 C   0  0  0  0  0  0  0  0  0  0  0  0
   59.0350   33.6990   46.5020 C   0  0  0  0  0  0  0  0  0  0  0  0
   59.9070   34.6200   47.3150 C   0  0  0  0  0  0  0  0  0  0  0  0
   59.5690   34.5420   48.7470 N   0  0  0  0  0  0  0  0  0  0  0  0
   60.7090   34.1210   49.5780 C   0  0  0  0  0  0  0  0  0  0  0  0
   61.7540   33.4190   48.7480 C   0  0  0  0  0  0  0  0  0  0  0  0
   62.8440   34.1310   48.2190 C   0  0  0  0  0  0  0  0  0  0  0  0
   63.7800   33.4850   47.4070 C   0  0  0  0  0  0  0  0  0  0  0  0
   63.6430   32.1230   47.1250 C   0  0  0  0  0  0  0  0  0  0  0  0
   62.5720   31.4030   47.6640 C   0  0  0  0  0  0  0  0  0  0  0  0
   61.6330   32.0450   48.4760 C   0  0  0  0  0  0  0  0  0  0  0  0
   59.1400   32.3090   46.6590 C   0  0  0  0  0  0  0  0  0  0  0  0
   58.3880   31.4490   45.8560 C   0  0  0  0  0  0  0  0  0  0  0  0
   58.1836   32.6825   42.6716 H   0  0  0  0  0  0  0  0  0  0  0  0
   58.5019   31.5431   41.3199 H   0  0  0  0  0  0  0  0  0  0  0  0
   57.0089   32.5418   41.3199 H   0  0  0  0  0  0  0  0  0  0  0  0
   56.6891   33.7737   44.0090 H   0  0  0  0  0  0  0  0  0  0  0  0
   58.0275   35.3059   45.4457 H   0  0  0  0  0  0  0  0  0  0  0  0
   60.9598   34.3321   47.1780 H   0  0  0  0  0  0  0  0  0  0  0  0
   59.7411   35.6519   46.9721 H   0  0  0  0  0  0  0  0  0  0  0  0
   59.3030   35.5080   49.0530 H   0  0  0  0  0  0  0  0  0  0  0  0
   61.1590   35.0083   50.0472 H   0  0  0  0  0  0  0  0  0  0  0  0
   60.3438   33.4222   50.3450 H   0  0  0  0  0  0  0  0  0  0  0  0
   62.9609   35.2012   48.4450 H   0  0  0  0  0  0  0  0  0  0  0  0
   64.6264   34.0496   46.9889 H   0  0  0  0  0  0  0  0  0  0  0  0
   64.3768   31.6178   46.4798 H   0  0  0  0  0  0  0  0  0  0  0  0
   62.4685   30.3293   47.4484 H   0  0  0  0  0  0  0  0  0  0  0  0
   60.7963   31.4732   48.9038 H   0  0  0  0  0  0  0  0  0  0  0  0
   59.8185   31.8941   47.4189 H   0  0  0  0  0  0  0  0  0  0  0  0
   58.4857   30.3605   45.9810 H   0  0  0  0  0  0  0  0  0  0  0  0
  1  2  1  0
  2  3  1  0
  3  4  2  0
  3  5  1  0
  5  6  2  0
  6  7  1  0
  7  8  2  0
  8  9  1  0
  9 10  1  0
 10 11  1  0
 11 12  1  0
 12 13  2  0
 13 14  1  0
 14 15  2  0
 15 16  1  0
 16 17  2  0
  8 18  1  0
 18 19  2  0
 19  5  1  0
 17 12  1  0
  1 20  1  0
  1 21  1  0
  1 22  1  0
  6 23  1  0
  7 24  1  0
  9 25  1  0
  9 26  1  0
 10 27  1  0
 11 28  1  0
 11 29  1  0
 13 30  1  0
 14 31  1  0
 15 32  1  0
 16 33  1  0
 17 34  1  0
 18 35  1  0
 19 36  1  0
M  END
>  <UniqueID>  (10) 
10

>  <SMILES>  (10) 
COC(=O)c1ccc(CNCc2ccccc2)cc1

>  <Energy>  (10) 
31.313171694392146

>  <Genealogy>  (10) 
COC(=O)c1ccc(CNCc2ccccc2)cc1 (3D coordinates assigned)
COC(=O)c1ccc(CNCc2ccccc2)cc1 (optimized conformer: 31.313171694392146 kcal/mol)

>  <smiles>  (10) 
COC(=O)c1ccc(CNCc2ccccc2)cc1

>  <score_type>  (10) 
oracle

>  <origin>  (10) 
adg

>  <m_score__min__energy>  (10) 
-6.6799999999999997

>  <m_primary>  (10) 
energy

$$$$
10:0
     RDKit          3D

 50 54  0  0  0  0  0  0  0  0999 V2000
   56.6710   20.6070   43.3850 N   0  0  0  0  0  0  0  0  0  0  0  0
   57.0750   21.9630   43.7600 C   0  0  0  0  0  0  0  0  0  0  0  0
   56.1830   22.9940   43.0480 C   0  0  0  0  0  0  0  0  0  0  0  0
   56.6370   24.4170   43.4000 C   0  0  0  0  0  0  0  0  0  0  0  0
   56.9170   24.5670   44.8400 N   0  0  0  0  0  0  0  0  0  0  0  0
   57.5600   25.7610   45.3470 C   0  0  0  0  0  0  0  0  0  0  0  0
   58.5700   25.6980   46.3420 C   0  0  0  0  0  0  0  0  0  0  0  0
   59.1640   26.8740   46.8180 C   0  0  0  0  0  0  0  0  0  0  0  0
   58.7380   28.0760   46.2650 C   0  0  0  0  0  0  0  0  0  0  0  0
   59.1020   29.3810   46.5420 C   0  0  0  0  0  0  0  0  0  0  0  0
   60.0480   29.8500   47.5760 C   0  0  0  0  0  0  0  0  0  0  0  0
   61.0670   30.7570   47.2540 C   0  0  0  0  0  0  0  0  0  0  0  0
   61.9510   31.1940   48.2420 C   0  0  0  0  0  0  0  0  0  0  0  0
   61.8080   30.7180   49.5460 C   0  0  0  0  0  0  0  0  0  0  0  0
   60.8170   29.8370   49.8450 N   0  0  0  0  0  0  0  0  0  0  0  0
   59.9440   29.3970   48.9000 C   0  0  0  0  0  0  0  0  0  0  0  0
   58.2700   30.1420   45.7060 C   0  0  0  0  0  0  0  0  0  0  0  0
   58.2480   31.6140   45.5630 C   0  0  0  0  0  0  0  0  0  0  0  0
   58.1580   32.4200   46.7090 C   0  0  0  0  0  0  0  0  0  0  0  0
   58.1350   33.8090   46.5720 C   0  0  0  0  0  0  0  0  0  0  0  0
   58.1910   34.3820   45.3030 C   0  0  0  0  0  0  0  0  0  0  0  0
   58.2610   33.5530   44.1820 C   0  0  0  0  0  0  0  0  0  0  0  0
   58.2820   32.2000   44.3300 N   0  0  0  0  0  0  0  0  0  0  0  0
   57.4660   29.3230   44.9850 N   0  0  0  0  0  0  0  0  0  0  0  0
   57.7730   28.0900   45.3400 N   0  0  0  0  0  0  0  0  0  0  0  0
   57.1860   26.9900   44.8750 N   0  0  0  0  0  0  0  0  0  0  0  0
   56.4860   23.4980   45.7570 C   0  0  0  0  0  0  0  0  0  0  0  0
   57.0220   22.1310   45.3010 C   0  0  0  0  0  0  0  0  0  0  0  0
   57.1810   20.3410   42.5100 H   0  0  0  0  0  0  0  0  0  0  0  0
   57.0100   19.9490   44.1240 H   0  0  0  0  0  0  0  0  0  0  0  0
   58.1132   22.1353   43.4399 H   0  0  0  0  0  0  0  0  0  0  0  0
   56.2551   22.8478   41.9601 H   0  0  0  0  0  0  0  0  0  0  0  0
   55.1420   22.8568   43.3760 H   0  0  0  0  0  0  0  0  0  0  0  0
   57.5517   24.6481   42.8344 H   0  0  0  0  0  0  0  0  0  0  0  0
   55.8222   25.1082   43.1384 H   0  0  0  0  0  0  0  0  0  0  0  0
   58.8873   24.7231   46.7405 H   0  0  0  0  0  0  0  0  0  0  0  0
   59.9378   26.8472   47.5994 H   0  0  0  0  0  0  0  0  0  0  0  0
   61.1701   31.1246   46.2224 H   0  0  0  0  0  0  0  0  0  0  0  0
   62.7521   31.9063   47.9952 H   0  0  0  0  0  0  0  0  0  0  0  0
   62.4982   31.0562   50.3330 H   0  0  0  0  0  0  0  0  0  0  0  0
   59.1533   28.6833   49.1744 H   0  0  0  0  0  0  0  0  0  0  0  0
   58.1060   31.9605   47.7071 H   0  0  0  0  0  0  0  0  0  0  0  0
   58.0728   34.4499   47.4639 H   0  0  0  0  0  0  0  0  0  0  0  0
   58.1802   35.4757   45.1859 H   0  0  0  0  0  0  0  0  0  0  0  0
   58.2993   33.9948   43.1753 H   0  0  0  0  0  0  0  0  0  0  0  0
   58.2970   31.6120   43.4670 H   0  0  0  0  0  0  0  0  0  0  0  0
   56.8661   23.7149   46.7662 H   0  0  0  0  0  0  0  0  0  0  0  0
   55.3866   23.4603   45.7589 H   0  0  0  0  0  0  0  0  0  0  0  0
   58.0401   22.0072   45.6988 H   0  0  0  0  0  0  0  0  0  0  0  0
   56.3259   21.3698   45.6830 H   0  0  0  0  0  0  0  0  0  0  0  0
  1  2  1  0
  2  3  1  0
  3  4  1  0
  4  5  1  0
  5  6  1  0
  6  7  1  0
  7  8  2  0
  8  9  1  0
  9 10  2  0
 10 11  1  0
 11 12  2  0
 12 13  1  0
 13 14  2  0
 14 15  1  0
 15 16  2  0
 10 17  1  0
 17 18  1  0
 18 19  2  0
 19 20  1  0
 20 21  2  0
 21 22  1  0
 22 23  2  0
 17 24  2  0
 24 25  1  0
 25 26  1  0
  5 27  1  0
 27 28  1  0
 28  2  1  0
 26  6  2  0
 25  9  1  0
 16 11  1  0
 23 18  1  0
  1 29  1  0
  1 30  1  0
  2 31  1  0
  3 32  1  0
  3 33  1  0
  4 34  1  0
  4 35  1  0
  7 36  1  0
  8 37  1  0
 12 38  1  0
 13 39  1  0
 14 40  1  0
 16 41  1  0
 19 42  1  0
 20 43  1  0
 21 44  1  0
 22 45  1  0
 23 46  1  0
 27 47  1  0
 27 48  1  0
 28 49  1  0
 28 50  1  0
M  CHG  1  23   1
M  END
>  <UniqueID>  (11) 
11

>  <SMILES>  (11) 
NC1CCN(c2ccc3c(-c4cccnc4)c(-c4cccc[nH+]4)nn3n2)CC1

>  <Energy>  (11) 
105.13906920515907

>  <Genealogy>  (11) 
NC1CCN(c2ccc3c(-c4cccnc4)c(-c4cccc[nH+]4)nn3n2)CC1 (protonated)
NC1CCN(c2ccc3c(-c4cccnc4)c(-c4cccc[nH+]4)nn3n2)CC1 (3D coordinates assigned)
NC1CCN(c2ccc3c(-c4cccnc4)c(-c4cccc[nH+]4)nn3n2)CC1 (nonaromatic ring conformer: 105.13906920515907 kcal/mol)

>  <smiles>  (11) 
NC1CCN(c2ccc3c(-c4cccnc4)c(-c4ccccn4)nn3n2)CC1

>  <score_type>  (11) 
oracle

>  <origin>  (11) 
adg

>  <m_score__min__energy>  (11) 
-6.8600000000000003

>  <m_primary>  (11) 
energy

$$$$
11:0
     RDKit          3D

 45 47  0  0  0  0  0  0  0  0999 V2000
   57.3610   32.2020   41.1370 C   0  0  0  0  0  0  0  0  0  0  0  0
   57.4000   31.8630   42.5920 C   0  0  0  0  0  0  0  0  0  0  0  0
   57.9600   32.7540   43.5140 C   0  0  0  0  0  0  0  0  0  0  0  0
   57.9820   32.4000   44.8730 C   0  0  0  0  0  0  0  0  0  0  0  0
   58.5490   33.3010   45.9110 C   0  0  0  0  0  0  0  0  0  0  0  0
   59.2630   34.4670   45.5660 C   0  0  0  0  0  0  0  0  0  0  0  0
   59.7900   35.2960   46.5620 C   0  0  0  0  0  0  0  0  0  0  0  0
   59.6220   34.9710   47.9080 C   0  0  0  0  0  0  0  0  0  0  0  0
   58.9290   33.8110   48.2640 C   0  0  0  0  0  0  0  0  0  0  0  0
   58.3990   32.9790   47.2740 C   0  0  0  0  0  0  0  0  0  0  0  0
   57.4500   31.2040   45.2480 N   0  0  0  0  0  0  0  0  0  0  0  0
   56.9210   30.3450   44.3400 C   0  0  0  0  0  0  0  0  0  0  0  0
   56.2310   28.7830   44.8800 S   0  0  0  0  0  0  0  0  0  0  0  0
   57.8390   27.9190   44.9890 C   0  0  0  0  0  0  0  0  0  0  0  0
   58.0670   27.3820   46.3740 C   0  0  0  0  0  0  0  0  0  0  0  0
   57.8910   26.1540   46.5880 O   0  0  0  0  0  0  0  0  0  0  0  0
   58.3730   28.2360   47.4850 N   0  0  0  0  0  0  0  0  0  0  0  0
   59.3300   29.3040   47.5080 C   0  0  0  0  0  0  0  0  0  0  0  0
   60.0380   29.6820   46.3560 C   0  0  0  0  0  0  0  0  0  0  0  0
   60.9840   30.7090   46.4150 C   0  0  0  0  0  0  0  0  0  0  0  0
   61.2470   31.3560   47.6310 C   0  0  0  0  0  0  0  0  0  0  0  0
   62.4380   32.6510   47.7240 S   0  0  0  0  0  0  0  0  0  0  0  0
   64.0270   31.9780   47.8260 N   0  0  0  0  0  0  0  0  0  0  0  0
   62.1650   33.4910   48.9390 O   0  0  0  0  0  0  0  0  0  0  0  0
   62.3550   33.5220   46.5020 O   0  0  0  0  0  0  0  0  0  0  0  0
   60.5640   30.9570   48.7870 C   0  0  0  0  0  0  0  0  0  0  0  0
   59.6180   29.9300   48.7270 C   0  0  0  0  0  0  0  0  0  0  0  0
   56.8960   30.6770   43.0240 N   0  0  0  0  0  0  0  0  0  0  0  0
   57.2360   33.2882   41.0168 H   0  0  0  0  0  0  0  0  0  0  0  0
   58.3014   31.8863   40.6616 H   0  0  0  0  0  0  0  0  0  0  0  0
   56.5169   31.6810   40.6616 H   0  0  0  0  0  0  0  0  0  0  0  0
   58.3762   33.7159   43.1800 H   0  0  0  0  0  0  0  0  0  0  0  0
   59.4065   34.7264   44.5067 H   0  0  0  0  0  0  0  0  0  0  0  0
   60.3389   36.2074   46.2827 H   0  0  0  0  0  0  0  0  0  0  0  0
   60.0346   35.6272   48.6885 H   0  0  0  0  0  0  0  0  0  0  0  0
   58.8004   33.5522   49.3254 H   0  0  0  0  0  0  0  0  0  0  0  0
   57.8598   32.0644   47.5618 H   0  0  0  0  0  0  0  0  0  0  0  0
   57.8483   27.0840   44.2730 H   0  0  0  0  0  0  0  0  0  0  0  0
   58.6396   28.6359   44.7540 H   0  0  0  0  0  0  0  0  0  0  0  0
   59.8472   29.1675   45.4027 H   0  0  0  0  0  0  0  0  0  0  0  0
   61.5237   31.0106   45.5052 H   0  0  0  0  0  0  0  0  0  0  0  0
   64.6260   32.4980   47.1470 H   0  0  0  0  0  0  0  0  0  0  0  0
   63.9670   30.9930   47.4810 H   0  0  0  0  0  0  0  0  0  0  0  0
   60.7730   31.4539   49.7458 H   0  0  0  0  0  0  0  0  0  0  0  0
   59.0970   29.6118   49.6421 H   0  0  0  0  0  0  0  0  0  0  0  0
  1  2  1  0
  2  3  2  0
  3  4  1  0
  4  5  1  0
  5  6  2  0
  6  7  1  0
  7  8  2  0
  8  9  1  0
  9 10  2  0
  4 11  2  0
 11 12  1  0
 12 13  1  0
 13 14  1  0
 14 15  1  0
 15 16  2  0
 15 17  1  0
 17 18  1  0
 18 19  2  0
 19 20  1  0
 20 21  2  0
 21 22  1  0
 22 23  1  0
 22 24  2  0
 22 25  2  0
 21 26  1  0
 26 27  2  0
 12 28  2  0
 28  2  1  0
 10  5  1  0
 27 18  1  0
  1 29  1  0
  1 30  1  0
  1 31  1  0
  3 32  1  0
  6 33  1  0
  7 34  1  0
  8 35  1  0
  9 36  1  0
 10 37  1  0
 14 38  1  0
 14 39  1  0
 19 40  1  0
 20 41  1  0
 23 42  1  0
 23 43  1  0
 26 44  1  0
 27 45  1  0
M  CHG  1  17  -1
M  END
>  <UniqueID>  (12) 
12

>  <SMILES>  (12) 
Cc1cc(-c2ccccc2)nc(SCC(=O)[N-]c2ccc(S(N)(=O)=O)cc2)n1

>  <Energy>  (12) 
50.84279726727762

>  <Genealogy>  (12) 
Cc1cc(-c2ccccc2)nc(SCC(=O)[N-]c2ccc(S(N)(=O)=O)cc2)n1 (protonated)
Cc1cc(-c2ccccc2)nc(SCC(=O)[N-]c2ccc(S(N)(=O)=O)cc2)n1 (3D coordinates assigned)
Cc1cc(-c2ccccc2)nc(SCC(=O)[N-]c2ccc(S(N)(=O)=O)cc2)n1 (optimized conformer: 50.84279726727762 kcal/mol)

>  <smiles>  (12) 
Cc1cc(-c2ccccc2)nc(SCC(=O)Nc2ccc(S(N)(=O)=O)cc2)n1

>  <score_type>  (12) 
oracle

>  <origin>  (12) 
adg

>  <m_score__min__energy>  (12) 
-11.31

>  <m_primary>  (12) 
energy

$$$$
12:0
     RDKit          3D

 49 51  0  0  0  0  0  0  0  0999 V2000
   66.6620   32.5350   50.4500 C   0  0  0  0  0  0  0  0  0  0  0  0
   65.5420   32.0180   49.7680 O   0  0  0  0  0  0  0  0  0  0  0  0
   64.7600   33.0830   49.2760 C   0  0  0  0  0  0  0  0  0  0  0  0
   63.5260   32.5220   48.6290 C   0  0  0  0  0  0  0  0  0  0  0  0
   62.8560   31.4340   49.1980 C   0  0  0  0  0  0  0  0  0  0  0  0
   61.7340   30.8970   48.5680 C   0  0  0  0  0  0  0  0  0  0  0  0
   61.2900   31.4440   47.3530 C   0  0  0  0  0  0  0  0  0  0  0  0
   60.0930   30.8890   46.6710 C   0  0  0  0  0  0  0  0  0  0  0  0
   58.8950   31.6190   46.6160 C   0  0  0  0  0  0  0  0  0  0  0  0
   57.7700   31.0910   45.9800 C   0  0  0  0  0  0  0  0  0  0  0  0
   57.8140   29.8210   45.3780 C   0  0  0  0  0  0  0  0  0  0  0  0
   56.6050   29.2730   44.7120 C   0  0  0  0  0  0  0  0  0  0  0  0
   56.1510   29.8130   43.6670 O   0  0  0  0  0  0  0  0  0  0  0  0
   55.9450   28.1210   45.2530 N   0  0  0  0  0  0  0  0  0  0  0  0
   56.6310   27.0690   45.9960 C   0  0  0  0  0  0  0  0  0  0  0  0
   56.4390   25.7420   45.3150 C   0  0  0  0  0  0  0  0  0  0  0  0
   55.3150   24.9500   45.5950 C   0  0  0  0  0  0  0  0  0  0  0  0
   55.1280   23.7310   44.9360 C   0  0  0  0  0  0  0  0  0  0  0  0
   56.0640   23.2880   43.9820 C   0  0  0  0  0  0  0  0  0  0  0  0
   55.9190   22.0770   43.2910 O   0  0  0  0  0  0  0  0  0  0  0  0
   56.9910   21.1850   42.9990 C   0  0  0  0  0  0  0  0  0  0  0  0
   57.1830   24.0830   43.7040 C   0  0  0  0  0  0  0  0  0  0  0  0
   57.3700   25.3010   44.3620 C   0  0  0  0  0  0  0  0  0  0  0  0
   59.0190   29.0880   45.4310 C   0  0  0  0  0  0  0  0  0  0  0  0
   59.1200   27.8590   44.8650 F   0  0  0  0  0  0  0  0  0  0  0  0
   60.1420   29.6200   46.0730 C   0  0  0  0  0  0  0  0  0  0  0  0
   61.9690   32.4970   46.8060 N   0  0  0  0  0  0  0  0  0  0  0  0
   63.0660   33.0330   47.4070 C   0  0  0  0  0  0  0  0  0  0  0  0
   66.4978   32.4592   51.5350 H   0  0  0  0  0  0  0  0  0  0  0  0
   67.5576   31.9592   50.1736 H   0  0  0  0  0  0  0  0  0  0  0  0
   66.8047   33.5901   50.1736 H   0  0  0  0  0  0  0  0  0  0  0  0
   64.4732   33.7449   50.1065 H   0  0  0  0  0  0  0  0  0  0  0  0
   65.3377   33.6602   48.5390 H   0  0  0  0  0  0  0  0  0  0  0  0
   63.2147   31.0015   50.1437 H   0  0  0  0  0  0  0  0  0  0  0  0
   61.1991   30.0489   49.0204 H   0  0  0  0  0  0  0  0  0  0  0  0
   58.8423   32.6158   47.0781 H   0  0  0  0  0  0  0  0  0  0  0  0
   56.8384   31.6752   45.9494 H   0  0  0  0  0  0  0  0  0  0  0  0
   57.7053   27.3002   46.0449 H   0  0  0  0  0  0  0  0  0  0  0  0
   56.2117   27.0151   47.0115 H   0  0  0  0  0  0  0  0  0  0  0  0
   54.5772   25.2898   46.3367 H   0  0  0  0  0  0  0  0  0  0  0  0
   54.2455   23.1152   45.1640 H   0  0  0  0  0  0  0  0  0  0  0  0
   57.4302   20.8195   43.9389 H   0  0  0  0  0  0  0  0  0  0  0  0
   56.6107   20.3330   42.4163 H   0  0  0  0  0  0  0  0  0  0  0  0
   57.7597   21.7138   42.4163 H   0  0  0  0  0  0  0  0  0  0  0  0
   57.9208   23.7455   42.9613 H   0  0  0  0  0  0  0  0  0  0  0  0
   58.2515   25.9175   44.1320 H   0  0  0  0  0  0  0  0  0  0  0  0
   61.0742   29.0373   46.1097 H   0  0  0  0  0  0  0  0  0  0  0  0
   61.6680   32.8970   45.8890 H   0  0  0  0  0  0  0  0  0  0  0  0
   63.5949   33.8720   46.9314 H   0  0  0  0  0  0  0  0  0  0  0  0
  1  2  1  0
  2  3  1  0
  3  4  1  0
  4  5  2  0
  5  6  1  0
  6  7  2  0
  7  8  1  0
  8  9  2  0
  9 10  1  0
 10 11  2  0
 11 12  1  0
 12 13  2  0
 12 14  1  0
 14 15  1  0
 15 16  1  0
 16 17  2  0
 17 18  1  0
 18 19  2  0
 19 20  1  0
 20 21  1  0
 19 22  1  0
 22 23  2  0
 11 24  1  0
 24 25  1  0
 24 26  2  0
  7 27  1  0
 27 28  2  0
 28  4  1  0
 26  8  1  0
 23 16  1  0
  1 29  1  0
  1 30  1  0
  1 31  1  0
  3 32  1  0
  3 33  1  0
  5 34  1  0
  6 35  1  0
  9 36  1  0
 10 37  1  0
 15 38  1  0
 15 39  1  0
 17 40  1  0
 18 41  1  0
 21 42  1  0
 21 43  1  0
 21 44  1  0
 22 45  1  0
 23 46  1  0
 26 47  1  0
 27 48  1  0
 28 49  1  0
M  CHG  2  14  -1  27   1
M  END
>  <UniqueID>  (13) 
13

>  <SMILES>  (13) 
COCc1ccc(-c2ccc(C(=O)[N-]Cc3ccc(OC)cc3)c(F)c2)[nH+]c1

>  <Energy>  (13) 
55.46545066680138

>  <Genealogy>  (13) 
COCc1ccc(-c2ccc(C(=O)[N-]Cc3ccc(OC)cc3)c(F)c2)[nH+]c1 (protonated)
COCc1ccc(-c2ccc(C(=O)[N-]Cc3ccc(OC)cc3)c(F)c2)[nH+]c1 (3D coordinates assigned)
COCc1ccc(-c2ccc(C(=O)[N-]Cc3ccc(OC)cc3)c(F)c2)[nH+]c1 (optimized conformer: 55.46545066680138 kcal/mol)

>  <smiles>  (13) 
COCc1ccc(-c2ccc(C(=O)NCc3ccc(OC)cc3)c(F)c2)nc1

>  <score_type>  (13) 
oracle

>  <origin>  (13) 
adg

>  <m_score__min__energy>  (13) 
-8.2799999999999994

>  <m_primary>  (13) 
energy

$$$$
13:0
     RDKit          3D

 40 42  0  0  0  0  0  0  0  0999 V2000
   64.3330   32.8430   49.0040 C   0  0  0  0  0  0  0  0  0  0  0  0
   63.0360   33.3050   48.4110 C   0  0  0  0  0  0  0  0  0  0  0  0
   62.8780   33.3750   47.0190 C   0  0  0  0  0  0  0  0  0  0  0  0
   61.6820   33.8410   46.4680 C   0  0  0  0  0  0  0  0  0  0  0  0
   60.6320   34.2610   47.2940 C   0  0  0  0  0  0  0  0  0  0  0  0
   59.4540   34.7200   46.6820 O   0  0  0  0  0  0  0  0  0  0  0  0
   59.2360   34.8320   45.2750 C   0  0  0  0  0  0  0  0  0  0  0  0
   57.8630   34.2750   44.8730 C   0  0  0  0  0  0  0  0  0  0  0  0
   57.2970   33.2770   45.8920 C   0  0  0  0  0  0  0  0  0  0  0  0
   57.4930   31.8910   45.4460 N   0  0  0  0  0  0  0  0  0  0  0  0
   56.6000   31.3800   44.5930 N   0  0  0  0  0  0  0  0  0  0  0  0
   56.6780   30.1060   44.1340 C   0  0  0  0  0  0  0  0  0  0  0  0
   57.7190   29.2830   44.5590 C   0  0  0  0  0  0  0  0  0  0  0  0
   57.8240   27.9590   44.1030 C   0  0  0  0  0  0  0  0  0  0  0  0
   58.8740   27.1500   44.5420 C   0  0  0  0  0  0  0  0  0  0  0  0
   59.8220   27.6540   45.4360 C   0  0  0  0  0  0  0  0  0  0  0  0
   59.7250   28.9700   45.8960 C   0  0  0  0  0  0  0  0  0  0  0  0
   58.6720   29.7980   45.4610 C   0  0  0  0  0  0  0  0  0  0  0  0
   58.5400   31.1280   45.9010 C   0  0  0  0  0  0  0  0  0  0  0  0
   59.3790   31.6110   46.7110 O   0  0  0  0  0  0  0  0  0  0  0  0
   60.7940   34.2020   48.6920 C   0  0  0  0  0  0  0  0  0  0  0  0
   61.9910   33.7360   49.2430 C   0  0  0  0  0  0  0  0  0  0  0  0
   64.2638   32.8677   50.1015 H   0  0  0  0  0  0  0  0  0  0  0  0
   64.5421   31.8151   48.6728 H   0  0  0  0  0  0  0  0  0  0  0  0
   65.1448   33.5072   48.6728 H   0  0  0  0  0  0  0  0  0  0  0  0
   63.6997   33.0615   46.3583 H   0  0  0  0  0  0  0  0  0  0  0  0
   61.5638   33.8784   45.3750 H   0  0  0  0  0  0  0  0  0  0  0  0
   59.2895   35.8926   44.9882 H   0  0  0  0  0  0  0  0  0  0  0  0
   60.0109   34.2472   44.7578 H   0  0  0  0  0  0  0  0  0  0  0  0
   57.1589   35.1147   44.7770 H   0  0  0  0  0  0  0  0  0  0  0  0
   57.9928   33.7360   43.9229 H   0  0  0  0  0  0  0  0  0  0  0  0
   57.8085   33.4193   46.8554 H   0  0  0  0  0  0  0  0  0  0  0  0
   56.2171   33.4597   45.9945 H   0  0  0  0  0  0  0  0  0  0  0  0
   55.9236   29.7246   43.4301 H   0  0  0  0  0  0  0  0  0  0  0  0
   57.0788   27.5590   43.3997 H   0  0  0  0  0  0  0  0  0  0  0  0
   58.9550   26.1134   44.1831 H   0  0  0  0  0  0  0  0  0  0  0  0
   60.6474   27.0128   45.7789 H   0  0  0  0  0  0  0  0  0  0  0  0
   60.4740   29.3607   46.6006 H   0  0  0  0  0  0  0  0  0  0  0  0
   59.9754   34.5239   49.3525 H   0  0  0  0  0  0  0  0  0  0  0  0
   62.1149   33.7069   50.3356 H   0  0  0  0  0  0  0  0  0  0  0  0
  1  2  1  0
  2  3  2  0
  3  4  1  0
  4  5  2  0
  5  6  1  0
  6  7  1  0
  7  8  1  0
  8  9  1  0
  9 10  1  0
 10 11  1  0
 11 12  2  0
 12 13  1  0
 13 14  2  0
 14 15  1  0
 15 16  2  0
 16 17  1  0
 17 18  2  0
 18 19  1  0
 19 20  2  0
  5 21  1  0
 21 22  2  0
 22  2  1  0
 19 10  1  0
 18 13  1  0
  1 23  1  0
  1 24  1  0
  1 25  1  0
  3 26  1  0
  4 27  1  0
  7 28  1  0
  7 29  1  0
  8 30  1  0
  8 31  1  0
  9 32  1  0
  9 33  1  0
 12 34  1  0
 14 35  1  0
 15 36  1  0
 16 37  1  0
 17 38  1  0
 21 39  1  0
 22 40  1  0
M  END
>  <UniqueID>  (14) 
14

>  <SMILES>  (14) 
Cc1ccc(OCCCn2ncc3ccccc3c2=O)cc1

>  <Energy>  (14) 
44.504331179309986

>  <Genealogy>  (14) 
Cc1ccc(OCCCn2ncc3ccccc3c2=O)cc1 (3D coordinates assigned)
Cc1ccc(OCCCn2ncc3ccccc3c2=O)cc1 (optimized conformer: 44.504331179309986 kcal/mol)

>  <smiles>  (14) 
Cc1ccc(OCCCn2ncc3ccccc3c2=O)cc1

>  <score_type>  (14) 
oracle

>  <origin>  (14) 
adg

>  <m_score__min__energy>  (14) 
-7.4199999999999999

>  <m_primary>  (14) 
energy

$$$$
14:0
     RDKit          3D

 60 64  0  0  0  0  0  0  0  0999 V2000
   55.9500   22.1320   42.7320 O   0  0  0  0  0  0  0  0  0  0  0  0
   56.7580   22.7880   43.4410 C   0  0  0  0  0  0  0  0  0  0  0  0
   57.7810   22.0720   44.2770 C   0  0  0  0  0  0  0  0  0  0  0  0
   58.2840   22.9030   45.3320 O   0  0  0  0  0  0  0  0  0  0  0  0
   58.3300   24.3000   45.2440 C   0  0  0  0  0  0  0  0  0  0  0  0
   59.0930   25.0400   46.1480 C   0  0  0  0  0  0  0  0  0  0  0  0
   59.1180   26.4330   46.0550 C   0  0  0  0  0  0  0  0  0  0  0  0
   58.3670   27.0730   45.0560 C   0  0  0  0  0  0  0  0  0  0  0  0
   58.3690   28.5740   44.9450 C   0  0  0  0  0  0  0  0  0  0  0  0
   57.6380   28.9930   43.7420 N   0  0  0  0  0  0  0  0  0  0  0  0
   57.1040   30.3660   43.8540 C   0  0  0  0  0  0  0  0  0  0  0  0
   57.6850   31.2200   42.7080 C   0  0  0  0  0  0  0  0  0  0  0  0
   57.7150   32.7010   43.0960 C   0  0  0  0  0  0  0  0  0  0  0  0
   58.6210   32.9400   44.2450 N   0  0  0  0  0  0  0  0  0  0  0  0
   58.4150   34.2750   44.8550 C   0  0  0  0  0  0  0  0  0  0  0  0
   59.6110   34.6290   45.7330 C   0  0  0  0  0  0  0  0  0  0  0  0
   59.1960   34.4340   47.5010 S   0  0  0  0  0  0  0  0  0  0  0  0
   60.8660   33.9660   47.9590 C   0  0  0  0  0  0  0  0  0  0  0  0
   61.7100   33.3800   47.0100 C   0  0  0  0  0  0  0  0  0  0  0  0
   63.0180   33.0270   47.3530 C   0  0  0  0  0  0  0  0  0  0  0  0
   63.4900   33.2540   48.6530 C   0  0  0  0  0  0  0  0  0  0  0  0
   64.8060   32.9110   49.0090 C   0  0  0  0  0  0  0  0  0  0  0  0
   65.2670   33.1480   50.3070 C   0  0  0  0  0  0  0  0  0  0  0  0
   64.4220   33.7260   51.2590 C   0  0  0  0  0  0  0  0  0  0  0  0
   63.1100   34.0700   50.9200 C   0  0  0  0  0  0  0  0  0  0  0  0
   62.6350   33.8390   49.6190 C   0  0  0  0  0  0  0  0  0  0  0  0
   61.3240   34.1890   49.2630 C   0  0  0  0  0  0  0  0  0  0  0  0
   58.6800   31.8290   45.2330 C   0  0  0  0  0  0  0  0  0  0  0  0
   57.3940   30.9890   45.2490 C   0  0  0  0  0  0  0  0  0  0  0  0
   57.6210   26.3280   44.1870 N   0  0  0  0  0  0  0  0  0  0  0  0
   57.5870   24.9690   44.2650 C   0  0  0  0  0  0  0  0  0  0  0  0
   56.7530   24.2150   43.3840 N   0  0  0  0  0  0  0  0  0  0  0  0
   57.3169   21.1779   44.7188 H   0  0  0  0  0  0  0  0  0  0  0  0
   58.6243   21.7994   43.6254 H   0  0  0  0  0  0  0  0  0  0  0  0
   59.6723   24.5282   46.9306 H   0  0  0  0  0  0  0  0  0  0  0  0
   59.7215   27.0246   46.7591 H   0  0  0  0  0  0  0  0  0  0  0  0
   57.8845   29.0050   45.8335 H   0  0  0  0  0  0  0  0  0  0  0  0
   59.4081   28.9281   44.8760 H   0  0  0  0  0  0  0  0  0  0  0  0
   58.2770   28.9260   42.9150 H   0  0  0  0  0  0  0  0  0  0  0  0
   56.0083   30.3365   43.7610 H   0  0  0  0  0  0  0  0  0  0  0  0
   58.7093   30.8832   42.4906 H   0  0  0  0  0  0  0  0  0  0  0  0
   57.0466   31.1006   41.8202 H   0  0  0  0  0  0  0  0  0  0  0  0
   58.0653   33.2896   42.2353 H   0  0  0  0  0  0  0  0  0  0  0  0
   56.6984   33.0036   43.3874 H   0  0  0  0  0  0  0  0  0  0  0  0
   58.3094   35.0279   44.0600 H   0  0  0  0  0  0  0  0  0  0  0  0
   57.5036   34.2576   45.4706 H   0  0  0  0  0  0  0  0  0  0  0  0
   60.4509   33.9638   45.4840 H   0  0  0  0  0  0  0  0  0  0  0  0
   59.8864   35.6779   45.5485 H   0  0  0  0  0  0  0  0  0  0  0  0
   61.3427   33.1962   45.9895 H   0  0  0  0  0  0  0  0  0  0  0  0
   63.6784   32.5701   46.6012 H   0  0  0  0  0  0  0  0  0  0  0  0
   65.4746   32.4549   48.2641 H   0  0  0  0  0  0  0  0  0  0  0  0
   66.2979   32.8789   50.5803 H   0  0  0  0  0  0  0  0  0  0  0  0
   64.7908   33.9108   52.2787 H   0  0  0  0  0  0  0  0  0  0  0  0
   62.4487   34.5224   51.6737 H   0  0  0  0  0  0  0  0  0  0  0  0
   60.6543   34.6397   50.0102 H   0  0  0  0  0  0  0  0  0  0  0  0
   59.5262   31.1742   44.9778 H   0  0  0  0  0  0  0  0  0  0  0  0
   58.8012   32.2748   46.2313 H   0  0  0  0  0  0  0  0  0  0  0  0
   57.5045   30.1799   45.9860 H   0  0  0  0  0  0  0  0  0  0  0  0
   56.5542   31.6479   45.5145 H   0  0  0  0  0  0  0  0  0  0  0  0
   57.0530   26.8060   43.4510 H   0  0  0  0  0  0  0  0  0  0  0  0
  1  2  2  0
  2  3  1  0
  3  4  1  0
  4  5  1  0
  5  6  2  0
  6  7  1  0
  7  8  2  0
  8  9  1  0
  9 10  1  0
 10 11  1  0
 11 12  1  0
 12 13  1  0
 13 14  1  0
 14 15  1  0
 15 16  1  0
 16 17  1  0
 17 18  1  0
 18 19  2  0
 19 20  1  0
 20 21  2  0
 21 22  1  0
 22 23  2  0
 23 24  1  0
 24 25  2  0
 25 26  1  0
 26 27  2  0
 14 28  1  0
 28 29  1  0
  8 30  1  0
 30 31  2  0
 31 32  1  0
 32  2  1  0
 31  5  1  0
 29 11  1  0
 27 18  1  0
 26 21  1  0
  3 33  1  0
  3 34  1  0
  6 35  1  0
  7 36  1  0
  9 37  1  0
  9 38  1  0
 10 39  1  0
 11 40  1  0
 12 41  1  0
 12 42  1  0
 13 43  1  0
 13 44  1  0
 15 45  1  0
 15 46  1  0
 16 47  1  0
 16 48  1  0
 19 49  1  0
 20 50  1  0
 22 51  1  0
 23 52  1  0
 24 53  1  0
 25 54  1  0
 27 55  1  0
 28 56  1  0
 28 57  1  0
 29 58  1  0
 29 59  1  0
 30 60  1  0
M  CHG  2  30   1  32  -1
M  END
>  <UniqueID>  (15) 
15

>  <SMILES>  (15) 
O=C1COc2ccc(CNC3CCN(CCSc4ccc5ccccc5c4)CC3)[nH+]c2[N-]1

>  <Energy>  (15) 
75.81265407895066

>  <Genealogy>  (15) 
O=C1COc2ccc(CNC3CCN(CCSc4ccc5ccccc5c4)CC3)[nH+]c2[N-]1 (protonated)
O=C1COc2ccc(CNC3CCN(CCSc4ccc5ccccc5c4)CC3)[nH+]c2[N-]1 (3D coordinates assigned)
O=C1COc2ccc(CNC3CCN(CCSc4ccc5ccccc5c4)CC3)[nH+]c2[N-]1 (nonaromatic ring conformer: 75.81265407895066 kcal/mol)

>  <smiles>  (15) 
O=C1COc2ccc(CNC3CCN(CCSc4ccc5ccccc5c4)CC3)nc2N1

>  <score_type>  (15) 
oracle

>  <origin>  (15) 
adg

>  <m_score__min__energy>  (15) 
-10.630000000000001

>  <m_primary>  (15) 
energy

$$$$
15:0
     RDKit          3D

 34 35  0  0  0  0  0  0  0  0999 V2000
   59.9210   28.5740   44.6970 C   0  0  0  0  0  0  0  0  0  0  0  0
   58.5270   27.9720   44.8210 C   0  0  0  0  0  0  0  0  0  0  0  0
   57.4180   28.6130   43.5200 S   0  0  0  0  0  0  0  0  0  0  0  0
   56.6450   29.8540   44.5680 C   0  0  0  0  0  0  0  0  0  0  0  0
   55.4310   29.7010   44.8720 O   0  0  0  0  0  0  0  0  0  0  0  0
   57.3970   31.0260   45.0850 C   0  0  0  0  0  0  0  0  0  0  0  0
   58.1370   30.9190   46.2780 C   0  0  0  0  0  0  0  0  0  0  0  0
   58.8470   32.0160   46.7750 C   0  0  0  0  0  0  0  0  0  0  0  0
   58.8240   33.2380   46.0960 C   0  0  0  0  0  0  0  0  0  0  0  0
   59.7370   34.6100   46.7100 S   0  0  0  0  0  0  0  0  0  0  0  0
   59.9260   35.6300   45.6210 O   0  0  0  0  0  0  0  0  0  0  0  0
   58.9850   35.2640   47.8360 O   0  0  0  0  0  0  0  0  0  0  0  0
   61.3030   34.0480   47.2830 C   0  0  0  0  0  0  0  0  0  0  0  0
   62.3540   33.8450   46.3770 C   0  0  0  0  0  0  0  0  0  0  0  0
   63.6040   33.4180   46.8360 C   0  0  0  0  0  0  0  0  0  0  0  0
   63.8100   33.1980   48.2010 C   0  0  0  0  0  0  0  0  0  0  0  0
   62.7670   33.4070   49.1090 C   0  0  0  0  0  0  0  0  0  0  0  0
   61.5170   33.8340   48.6520 C   0  0  0  0  0  0  0  0  0  0  0  0
   58.0990   33.3530   44.9040 C   0  0  0  0  0  0  0  0  0  0  0  0
   57.3890   32.2580   44.4010 C   0  0  0  0  0  0  0  0  0  0  0  0
   60.3340   28.7524   45.7008 H   0  0  0  0  0  0  0  0  0  0  0  0
   60.5738   27.8776   44.1503 H   0  0  0  0  0  0  0  0  0  0  0  0
   59.8617   29.5267   44.1503 H   0  0  0  0  0  0  0  0  0  0  0  0
   58.5979   26.8784   44.7262 H   0  0  0  0  0  0  0  0  0  0  0  0
   58.1124   28.2483   45.8017 H   0  0  0  0  0  0  0  0  0  0  0  0
   58.1567   29.9641   46.8237 H   0  0  0  0  0  0  0  0  0  0  0  0
   59.4265   31.9173   47.7047 H   0  0  0  0  0  0  0  0  0  0  0  0
   62.1948   34.0220   45.3031 H   0  0  0  0  0  0  0  0  0  0  0  0
   64.4254   33.2552   46.1227 H   0  0  0  0  0  0  0  0  0  0  0  0
   64.7930   32.8603   48.5612 H   0  0  0  0  0  0  0  0  0  0  0  0
   62.9304   33.2353   50.1832 H   0  0  0  0  0  0  0  0  0  0  0  0
   60.6992   34.0025   49.3681 H   0  0  0  0  0  0  0  0  0  0  0  0
   58.0877   34.3092   44.3603 H   0  0  0  0  0  0  0  0  0  0  0  0
   56.8203   32.3592   43.4649 H   0  0  0  0  0  0  0  0  0  0  0  0
  1  2  1  0
  2  3  1  0
  3  4  1  0
  4  5  2  0
  4  6  1  0
  6  7  2  0
  7  8  1  0
  8  9  2  0
  9 10  1  0
 10 11  2  0
 10 12  2  0
 10 13  1  0
 13 14  2  0
 14 15  1  0
 15 16  2  0
 16 17  1  0
 17 18  2  0
  9 19  1  0
 19 20  2  0
 20  6  1  0
 18 13  1  0
  1 21  1  0
  1 22  1  0
  1 23  1  0
  2 24  1  0
  2 25  1  0
  7 26  1  0
  8 27  1  0
 14 28  1  0
 15 29  1  0
 16 30  1  0
 17 31  1  0
 18 32  1  0
 19 33  1  0
 20 34  1  0
M  END
>  <UniqueID>  (16) 
16

>  <SMILES>  (16) 
CCSC(=O)c1ccc(S(=O)(=O)c2ccccc2)cc1

>  <Energy>  (16) 
31.76592925934619

>  <Genealogy>  (16) 
CCSC(=O)c1ccc(S(=O)(=O)c2ccccc2)cc1 (3D coordinates assigned)
CCSC(=O)c1ccc(S(=O)(=O)c2ccccc2)cc1 (optimized conformer: 31.76592925934619 kcal/mol)

>  <smiles>  (16) 
CCSC(=O)c1ccc(S(=O)(=O)c2ccccc2)cc1

>  <score_type>  (16) 
oracle

>  <origin>  (16) 
adg

>  <m_score__min__energy>  (16) 
-8.5399999999999991

>  <m_primary>  (16) 
energy

$$$$
16:0
     RDKit          3D

 42 43  0  0  0  0  0  0  0  0999 V2000
   55.8670   29.7170   44.1590 C   0  0  0  0  0  0  0  0  0  0  0  0
   56.4270   30.4000   42.9110 C   0  0  0  0  0  0  0  0  0  0  0  0
   57.7560   30.9810   43.1540 N   0  0  0  0  0  0  0  0  0  0  0  0
   58.0980   32.2920   42.5820 C   0  0  0  0  0  0  0  0  0  0  0  0
   57.7520   32.3430   41.0990 C   0  0  0  0  0  0  0  0  0  0  0  0
   58.4580   30.5700   44.3390 C   0  0  0  0  0  0  0  0  0  0  0  0
   59.1920   29.4200   44.3000 N   0  0  0  0  0  0  0  0  0  0  0  0
   59.8400   28.9410   45.3950 C   0  0  0  0  0  0  0  0  0  0  0  0
   59.7650   29.6230   46.6060 C   0  0  0  0  0  0  0  0  0  0  0  0
   59.0290   30.8030   46.6810 C   0  0  0  0  0  0  0  0  0  0  0  0
   58.3690   31.3060   45.5470 C   0  0  0  0  0  0  0  0  0  0  0  0
   57.6120   32.5760   45.6520 C   0  0  0  0  0  0  0  0  0  0  0  0
   56.4240   32.6410   45.2420 O   0  0  0  0  0  0  0  0  0  0  0  0
   58.2600   33.7500   46.1620 N   0  0  0  0  0  0  0  0  0  0  0  0
   59.5280   33.7980   46.8310 C   0  0  0  0  0  0  0  0  0  0  0  0
   60.6960   33.7800   46.0600 C   0  0  0  0  0  0  0  0  0  0  0  0
   61.9520   33.8030   46.6740 C   0  0  0  0  0  0  0  0  0  0  0  0
   62.0540   33.8410   48.0730 C   0  0  0  0  0  0  0  0  0  0  0  0
   63.4010   33.8230   48.7330 C   0  0  0  0  0  0  0  0  0  0  0  0
   60.8860   33.8150   48.8490 C   0  0  0  0  0  0  0  0  0  0  0  0
   59.6290   33.7930   48.2340 C   0  0  0  0  0  0  0  0  0  0  0  0
   56.2694   30.2078   45.0574 H   0  0  0  0  0  0  0  0  0  0  0  0
   54.7698   29.7953   44.1587 H   0  0  0  0  0  0  0  0  0  0  0  0
   56.1589   28.6564   44.1587 H   0  0  0  0  0  0  0  0  0  0  0  0
   56.5059   29.6568   42.1039 H   0  0  0  0  0  0  0  0  0  0  0  0
   55.7437   31.2160   42.6330 H   0  0  0  0  0  0  0  0  0  0  0  0
   57.5339   33.0743   43.1109 H   0  0  0  0  0  0  0  0  0  0  0  0
   59.1797   32.4552   42.6972 H   0  0  0  0  0  0  0  0  0  0  0  0
   56.6701   32.5025   40.9802 H   0  0  0  0  0  0  0  0  0  0  0  0
   58.2990   33.1702   40.6231 H   0  0  0  0  0  0  0  0  0  0  0  0
   58.0371   31.3931   40.6231 H   0  0  0  0  0  0  0  0  0  0  0  0
   59.2540   28.8800   43.4080 H   0  0  0  0  0  0  0  0  0  0  0  0
   60.4250   28.0122   45.3237 H   0  0  0  0  0  0  0  0  0  0  0  0
   60.2821   29.2337   47.4954 H   0  0  0  0  0  0  0  0  0  0  0  0
   58.9638   31.3456   47.6356 H   0  0  0  0  0  0  0  0  0  0  0  0
   60.6253   33.7475   44.9628 H   0  0  0  0  0  0  0  0  0  0  0  0
   62.8634   33.7913   46.0582 H   0  0  0  0  0  0  0  0  0  0  0  0
   63.2740   33.8247   49.8256 H   0  0  0  0  0  0  0  0  0  0  0  0
   63.9464   32.9175   48.4287 H   0  0  0  0  0  0  0  0  0  0  0  0
   63.9704   34.7136   48.4287 H   0  0  0  0  0  0  0  0  0  0  0  0
   60.9583   33.8119   49.9466 H   0  0  0  0  0  0  0  0  0  0  0  0
   58.7175   33.7717   48.8495 H   0  0  0  0  0  0  0  0  0  0  0  0
  1  2  1  0
  2  3  1  0
  3  4  1  0
  4  5  1  0
  3  6  1  0
  6  7  2  0
  7  8  1  0
  8  9  2  0
  9 10  1  0
 10 11  2  0
 11 12  1  0
 12 13  2  0
 12 14  1  0
 14 15  1  0
 15 16  2  0
 16 17  1  0
 17 18  2  0
 18 19  1  0
 18 20  1  0
 20 21  2  0
 11  6  1  0
 21 15  1  0
  1 22  1  0
  1 23  1  0
  1 24  1  0
  2 25  1  0
  2 26  1  0
  4 27  1  0
  4 28  1  0
  5 29  1  0
  5 30  1  0
  5 31  1  0
  7 32  1  0
  8 33  1  0
  9 34  1  0
 10 35  1  0
 16 36  1  0
 17 37  1  0
 19 38  1  0
 19 39  1  0
 19 40  1  0
 20 41  1  0
 21 42  1  0
M  CHG  2   7   1  14  -1
M  END
>  <UniqueID>  (17) 
17

>  <SMILES>  (17) 
CCN(CC)c1[nH+]cccc1C(=O)[N-]c1ccc(C)cc1

>  <Energy>  (17) 
47.305609766376726

>  <Genealogy>  (17) 
CCN(CC)c1[nH+]cccc1C(=O)[N-]c1ccc(C)cc1 (protonated)
CCN(CC)c1[nH+]cccc1C(=O)[N-]c1ccc(C)cc1 (3D coordinates assigned)
CCN(CC)c1[nH+]cccc1C(=O)[N-]c1ccc(C)cc1 (optimized conformer: 47.305609766376726 kcal/mol)

>  <smiles>  (17) 
CCN(CC)c1ncccc1C(=O)Nc1ccc(C)cc1

>  <score_type>  (17) 
oracle

>  <origin>  (17) 
adg

>  <m_score__min__energy>  (17) 
-6.3899999999999997

>  <m_primary>  (17) 
energy

$$$$
17:0
     RDKit          3D

 36 36  0  0  0  0  0  0  0  0999 V2000
   60.7950   34.3840   46.3170 C   0  0  0  0  0  0  0  0  0  0  0  0
   59.7170   35.1600   46.1760 C   0  0  0  0  0  0  0  0  0  0  0  0
   58.5990   34.7980   45.2380 C   0  0  0  0  0  0  0  0  0  0  0  0
   58.3540   33.3130   45.2490 C   0  0  0  0  0  0  0  0  0  0  0  0
   58.0460   32.6340   44.0600 C   0  0  0  0  0  0  0  0  0  0  0  0
   57.7910   31.2600   44.0790 C   0  0  0  0  0  0  0  0  0  0  0  0
   57.8300   30.5440   45.2810 C   0  0  0  0  0  0  0  0  0  0  0  0
   57.5640   29.1650   45.2380 O   0  0  0  0  0  0  0  0  0  0  0  0
   58.2120   28.1690   46.0320 C   0  0  0  0  0  0  0  0  0  0  0  0
   57.9810   26.7580   45.4500 C   0  0  2  0  0  0  0  0  0  0  0  0
   58.1580   26.7360   43.9100 C   0  0  0  0  0  0  0  0  0  0  0  0
   57.3940   27.7790   43.2180 N   0  0  0  0  0  0  0  0  0  0  0  0
   56.6260   26.1880   45.9100 C   0  0  0  0  0  0  0  0  0  0  0  0
   55.5950   27.0950   45.6270 O   0  0  0  0  0  0  0  0  0  0  0  0
   58.1350   31.2260   46.4750 C   0  0  0  0  0  0  0  0  0  0  0  0
   58.3890   32.6000   46.4570 C   0  0  0  0  0  0  0  0  0  0  0  0
   61.5962   34.6765   47.0116 H   0  0  0  0  0  0  0  0  0  0  0  0
   60.8816   33.4524   45.7385 H   0  0  0  0  0  0  0  0  0  0  0  0
   59.6452   36.0884   46.7616 H   0  0  0  0  0  0  0  0  0  0  0  0
   57.6817   35.3175   45.5522 H   0  0  0  0  0  0  0  0  0  0  0  0
   58.8803   35.1021   44.2190 H   0  0  0  0  0  0  0  0  0  0  0  0
   58.0051   33.1855   43.1091 H   0  0  0  0  0  0  0  0  0  0  0  0
   57.5574   30.7363   43.1403 H   0  0  0  0  0  0  0  0  0  0  0  0
   59.2922   28.3754   46.0561 H   0  0  0  0  0  0  0  0  0  0  0  0
   57.7896   28.2019   47.0471 H   0  0  0  0  0  0  0  0  0  0  0  0
   58.7576   26.0899   45.8506 H   0  0  0  0  0  0  0  0  0  0  0  0
   59.2247   26.8755   43.6802 H   0  0  0  0  0  0  0  0  0  0  0  0
   57.7776   25.7670   43.5546 H   0  0  0  0  0  0  0  0  0  0  0  0
   56.5530   28.0540   43.7730 H   0  0  0  0  0  0  0  0  0  0  0  0
   57.1110   27.4570   42.2650 H   0  0  0  0  0  0  0  0  0  0  0  0
   58.0020   28.6220   43.1080 H   0  0  0  0  0  0  0  0  0  0  0  0
   56.4323   25.2424   45.3825 H   0  0  0  0  0  0  0  0  0  0  0  0
   56.6612   26.0138   46.9955 H   0  0  0  0  0  0  0  0  0  0  0  0
   55.9650   27.7340   44.9650 H   0  0  0  0  0  0  0  0  0  0  0  0
   58.1734   30.6745   47.4260 H   0  0  0  0  0  0  0  0  0  0  0  0
   58.6178   33.1259   47.3957 H   0  0  0  0  0  0  0  0  0  0  0  0
  1  2  2  0
  2  3  1  0
  3  4  1  0
  4  5  2  0
  5  6  1  0
  6  7  2  0
  7  8  1  0
  8  9  1  0
  9 10  1  0
 10 11  1  0
 11 12  1  0
 10 13  1  0
 13 14  1  0
  7 15  1  0
 15 16  2  0
 16  4  1  0
  1 17  1  0
  1 18  1  0
  2 19  1  0
  3 20  1  0
  3 21  1  0
  5 22  1  0
  6 23  1  0
  9 24  1  0
  9 25  1  0
 10 26  1  1
 11 27  1  0
 11 28  1  0
 12 29  1  0
 12 30  1  0
 12 31  1  0
 13 32  1  0
 13 33  1  0
 14 34  1  0
 15 35  1  0
 16 36  1  0
M  CHG  1  12   1
M  END
>  <UniqueID>  (18) 
18

>  <SMILES>  (18) 
C=CCc1ccc(OC[C@H](C[NH3+])CO)cc1

>  <Energy>  (18) 
26.829176533693918

>  <Genealogy>  (18) 
C=CCc1ccc(OCC(C[NH3+])CO)cc1 (protonated)
C=CCc1ccc(OC[C@H](C[NH3+])CO)cc1 (chirality)
C=CCc1ccc(OC[C@H](C[NH3+])CO)cc1 (3D coordinates assigned)
C=CCc1ccc(OC[C@H](C[NH3+])CO)cc1 (optimized conformer: 26.829176533693918 kcal/mol)

>  <smiles>  (18) 
C=CCc1ccc(OCC(CN)CO)cc1

>  <score_type>  (18) 
oracle

>  <origin>  (18) 
adg

>  <m_score__min__energy>  (18) 
-4.9199999999999999

>  <m_primary>  (18) 
energy

$$$$
18:0
     RDKit          3D

 52 53  0  0  0  0  0  0  0  0999 V2000
   55.7950   22.2540   48.8980 C   0  0  0  0  0  0  0  0  0  0  0  0
   57.0170   22.2780   48.1700 O   0  0  0  0  0  0  0  0  0  0  0  0
   57.1790   22.8550   46.8990 C   0  0  0  0  0  0  0  0  0  0  0  0
   57.8710   24.0650   46.7200 C   0  0  0  0  0  0  0  0  0  0  0  0
   58.0170   24.6170   45.4430 C   0  0  0  0  0  0  0  0  0  0  0  0
   58.8000   25.8940   45.2620 C   0  0  0  0  0  0  0  0  0  0  0  0
   57.9290   27.1470   45.4870 C   0  0  0  0  0  0  0  0  0  0  0  0
   57.4530   27.7890   44.2330 N   0  0  2  0  0  0  0  0  0  0  0  0
   58.1250   27.1820   43.0690 C   0  0  0  0  0  0  0  0  0  0  0  0
   57.5990   29.2690   44.2140 C   0  0  0  0  0  0  0  0  0  0  0  0
   56.3300   30.0050   44.5480 C   0  0  0  0  0  0  0  0  0  0  0  0
   55.2880   29.3520   44.8250 O   0  0  0  0  0  0  0  0  0  0  0  0
   56.3360   31.4380   44.6010 N   0  0  0  0  0  0  0  0  0  0  0  0
   57.3740   32.2790   45.1200 C   0  0  0  0  0  0  0  0  0  0  0  0
   57.7240   33.5020   44.5170 C   0  0  0  0  0  0  0  0  0  0  0  0
   58.7470   34.2860   45.0580 C   0  0  0  0  0  0  0  0  0  0  0  0
   59.4420   33.8500   46.1890 C   0  0  0  0  0  0  0  0  0  0  0  0
   60.4410   34.6030   46.7070 F   0  0  0  0  0  0  0  0  0  0  0  0
   59.1250   32.6190   46.7700 C   0  0  0  0  0  0  0  0  0  0  0  0
   58.0990   31.8340   46.2360 C   0  0  0  0  0  0  0  0  0  0  0  0
   57.4690   23.9550   44.3370 C   0  0  0  0  0  0  0  0  0  0  0  0
   56.7700   22.7420   44.4930 C   0  0  0  0  0  0  0  0  0  0  0  0
   56.2070   22.0920   43.3850 O   0  0  0  0  0  0  0  0  0  0  0  0
   56.8410   21.0660   42.6260 C   0  0  0  0  0  0  0  0  0  0  0  0
   56.6310   22.1850   45.7910 C   0  0  0  0  0  0  0  0  0  0  0  0
   55.9670   20.9700   46.0520 O   0  0  0  0  0  0  0  0  0  0  0  0
   54.5620   20.7840   46.1680 C   0  0  0  0  0  0  0  0  0  0  0  0
   56.0107   22.2582   49.9766 H   0  0  0  0  0  0  0  0  0  0  0  0
   55.1971   23.1406   48.6401 H   0  0  0  0  0  0  0  0  0  0  0  0
   55.2324   21.3446   48.6401 H   0  0  0  0  0  0  0  0  0  0  0  0
   58.3010   24.5819   47.5906 H   0  0  0  0  0  0  0  0  0  0  0  0
   59.6307   25.9056   45.9830 H   0  0  0  0  0  0  0  0  0  0  0  0
   59.1693   25.9204   44.2262 H   0  0  0  0  0  0  0  0  0  0  0  0
   57.0502   26.8547   46.0805 H   0  0  0  0  0  0  0  0  0  0  0  0
   58.5623   27.8853   46.0006 H   0  0  0  0  0  0  0  0  0  0  0  0
   56.4330   27.5770   44.1250 H   0  0  0  0  0  0  0  0  0  0  0  0
   58.8995   26.4824   43.4164 H   0  0  0  0  0  0  0  0  0  0  0  0
   57.3863   26.6389   42.4612 H   0  0  0  0  0  0  0  0  0  0  0  0
   58.5904   27.9719   42.4612 H   0  0  0  0  0  0  0  0  0  0  0  0
   58.3682   29.5518   44.9478 H   0  0  0  0  0  0  0  0  0  0  0  0
   57.8749   29.5522   43.1875 H   0  0  0  0  0  0  0  0  0  0  0  0
   57.1906   33.8418   43.6170 H   0  0  0  0  0  0  0  0  0  0  0  0
   59.0055   35.2484   44.5923 H   0  0  0  0  0  0  0  0  0  0  0  0
   59.6842   32.2671   47.6495 H   0  0  0  0  0  0  0  0  0  0  0  0
   57.8588   30.8626   46.6929 H   0  0  0  0  0  0  0  0  0  0  0  0
   57.5861   24.3883   43.3327 H   0  0  0  0  0  0  0  0  0  0  0  0
   57.2945   20.3321   43.3085 H   0  0  0  0  0  0  0  0  0  0  0  0
   56.0949   20.5648   41.9918 H   0  0  0  0  0  0  0  0  0  0  0  0
   57.6230   21.5091   41.9918 H   0  0  0  0  0  0  0  0  0  0  0  0
   54.2836   20.7471   47.2315 H   0  0  0  0  0  0  0  0  0  0  0  0
   54.0399   21.6209   45.6811 H   0  0  0  0  0  0  0  0  0  0  0  0
   54.2757   19.8401   45.6811 H   0  0  0  0  0  0  0  0  0  0  0  0
  1  2  1  0
  2  3  1  0
  3  4  2  0
  4  5  1  0
  5  6  1  0
  6  7  1  0
  7  8  1  0
  8  9  1  0
  8 10  1  0
 10 11  1  0
 11 12  2  0
 11 13  1  0
 13 14  1  0
 14 15  2  0
 15 16  1  0
 16 17  2  0
 17 18  1  0
 17 19  1  0
 19 20  2  0
  5 21  2  0
 21 22  1  0
 22 23  1  0
 23 24  1  0
 22 25  2  0
 25 26  1  0
 26 27  1  0
 25  3  1  0
 20 14  1  0
  1 28  1  0
  1 29  1  0
  1 30  1  0
  4 31  1  0
  6 32  1  0
  6 33  1  0
  7 34  1  0
  7 35  1  0
  8 36  1  6
  9 37  1  0
  9 38  1  0
  9 39  1  0
 10 40  1  0
 10 41  1  0
 15 42  1  0
 16 43  1  0
 19 44  1  0
 20 45  1  0
 21 46  1  0
 24 47  1  0
 24 48  1  0
 24 49  1  0
 27 50  1  0
 27 51  1  0
 27 52  1  0
M  CHG  2   8   1  13  -1
M  END
>  <UniqueID>  (19) 
19

>  <SMILES>  (19) 
COc1cc(CC[N@H+](C)CC(=O)[N-]c2ccc(F)cc2)cc(OC)c1OC

>  <Energy>  (19) 
57.802941090878825

>  <Genealogy>  (19) 
COc1cc(CC[NH+](C)CC(=O)[N-]c2ccc(F)cc2)cc(OC)c1OC (protonated)
COc1cc(CC[N@H+](C)CC(=O)[N-]c2ccc(F)cc2)cc(OC)c1OC (chirality)
COc1cc(CC[N@H+](C)CC(=O)[N-]c2ccc(F)cc2)cc(OC)c1OC (3D coordinates assigned)
COc1cc(CC[N@H+](C)CC(=O)[N-]c2ccc(F)cc2)cc(OC)c1OC (optimized conformer: 57.802941090878825 kcal/mol)

>  <smiles>  (19) 
COc1cc(CCN(C)CC(=O)Nc2ccc(F)cc2)cc(OC)c1OC

>  <score_type>  (19) 
oracle

>  <origin>  (19) 
adg

>  <m_score__min__energy>  (19) 
-7.2400000000000002

>  <m_primary>  (19) 
energy

$$$$
19:0
     RDKit          3D

 42 44  0  0  0  0  0  0  0  0999 V2000
   56.6150   23.9110   47.4550 C   0  0  0  0  0  0  0  0  0  0  0  0
   57.7770   24.6410   47.0740 O   0  0  0  0  0  0  0  0  0  0  0  0
   57.7630   25.7840   46.2620 C   0  0  0  0  0  0  0  0  0  0  0  0
   58.1220   25.6480   44.9170 C   0  0  0  0  0  0  0  0  0  0  0  0
   58.1210   26.7570   44.0660 C   0  0  0  0  0  0  0  0  0  0  0  0
   57.7570   28.0240   44.5440 C   0  0  0  0  0  0  0  0  0  0  0  0
   57.7600   29.1430   43.6390 N   0  0  0  0  0  0  0  0  0  0  0  0
   57.2650   30.7480   44.0790 S   0  0  0  0  0  0  0  0  0  0  0  0
   55.9550   30.6790   44.8120 O   0  0  0  0  0  0  0  0  0  0  0  0
   57.0840   31.5650   42.8320 O   0  0  0  0  0  0  0  0  0  0  0  0
   58.4670   31.4790   45.1370 C   0  0  0  0  0  0  0  0  0  0  0  0
   58.5310   32.8720   45.2630 C   0  0  0  0  0  0  0  0  0  0  0  0
   59.4710   33.4590   46.1150 C   0  0  0  0  0  0  0  0  0  0  0  0
   60.3710   32.6620   46.8440 C   0  0  0  0  0  0  0  0  0  0  0  0
   61.3290   33.2720   47.7310 N   0  0  0  0  0  0  0  0  0  0  0  0
   60.9880   34.1660   48.8280 C   0  0  0  0  0  0  0  0  0  0  0  0
   62.2860   34.3710   49.6300 C   0  0  0  0  0  0  0  0  0  0  0  0
   63.4360   33.8220   48.7760 C   0  0  0  0  0  0  0  0  0  0  0  0
   62.7380   33.1210   47.6800 C   0  0  0  0  0  0  0  0  0  0  0  0
   63.3390   32.5140   46.7530 O   0  0  0  0  0  0  0  0  0  0  0  0
   60.2960   31.2630   46.7170 C   0  0  0  0  0  0  0  0  0  0  0  0
   59.3530   30.6780   45.8670 C   0  0  0  0  0  0  0  0  0  0  0  0
   57.4030   28.1630   45.9000 C   0  0  0  0  0  0  0  0  0  0  0  0
   57.4030   27.0540   46.7500 C   0  0  0  0  0  0  0  0  0  0  0  0
   56.5508   23.8706   48.5524 H   0  0  0  0  0  0  0  0  0  0  0  0
   55.7206   24.4098   47.0534 H   0  0  0  0  0  0  0  0  0  0  0  0
   56.6762   22.8887   47.0534 H   0  0  0  0  0  0  0  0  0  0  0  0
   58.4074   24.6604   44.5257 H   0  0  0  0  0  0  0  0  0  0  0  0
   58.4085   26.6346   43.0113 H   0  0  0  0  0  0  0  0  0  0  0  0
   58.0010   28.9830   42.6360 H   0  0  0  0  0  0  0  0  0  0  0  0
   57.8393   33.5066   44.6896 H   0  0  0  0  0  0  0  0  0  0  0  0
   59.5068   34.5538   46.2159 H   0  0  0  0  0  0  0  0  0  0  0  0
   60.6243   35.1280   48.4377 H   0  0  0  0  0  0  0  0  0  0  0  0
   60.1893   33.7451   49.4564 H   0  0  0  0  0  0  0  0  0  0  0  0
   62.4415   35.4417   49.8287 H   0  0  0  0  0  0  0  0  0  0  0  0
   62.2343   33.8507   50.5978 H   0  0  0  0  0  0  0  0  0  0  0  0
   64.0623   34.6380   48.3864 H   0  0  0  0  0  0  0  0  0  0  0  0
   64.1183   33.1690   49.3400 H   0  0  0  0  0  0  0  0  0  0  0  0
   60.9843   30.6249   47.2906 H   0  0  0  0  0  0  0  0  0  0  0  0
   59.3069   29.5831   45.7713 H   0  0  0  0  0  0  0  0  0  0  0  0
   57.1244   29.1520   46.2929 H   0  0  0  0  0  0  0  0  0  0  0  0
   57.1201   27.1742   47.8062 H   0  0  0  0  0  0  0  0  0  0  0  0
  1  2  1  0
  2  3  1  0
  3  4  2  0
  4  5  1  0
  5  6  2  0
  6  7  1  0
  7  8  1  0
  8  9  2  0
  8 10  2  0
  8 11  1  0
 11 12  2  0
 12 13  1  0
 13 14  2  0
 14 15  1  0
 15 16  1  0
 16 17  1  0
 17 18  1  0
 18 19  1  0
 19 20  2  0
 14 21  1  0
 21 22  2  0
  6 23  1  0
 23 24  2  0
 24  3  1  0
 22 11  1  0
 19 15  1  0
  1 25  1  0
  1 26  1  0
  1 27  1  0
  4 28  1  0
  5 29  1  0
  7 30  1  0
 12 31  1  0
 13 32  1  0
 16 33  1  0
 16 34  1  0
 17 35  1  0
 17 36  1  0
 18 37  1  0
 18 38  1  0
 21 39  1  0
 22 40  1  0
 23 41  1  0
 24 42  1  0
M  END
>  <UniqueID>  (20) 
20

>  <SMILES>  (20) 
COc1ccc(NS(=O)(=O)c2ccc(N3CCCC3=O)cc2)cc1

>  <Energy>  (20) 
55.670426233579015

>  <Genealogy>  (20) 
COc1ccc(NS(=O)(=O)c2ccc(N3CCCC3=O)cc2)cc1 (3D coordinates assigned)
COc1ccc(NS(=O)(=O)c2ccc(N3CCCC3=O)cc2)cc1 (nonaromatic ring conformer: 55.670426233579015 kcal/mol)

>  <smiles>  (20) 
COc1ccc(NS(=O)(=O)c2ccc(N3CCCC3=O)cc2)cc1

>  <score_type>  (20) 
oracle

>  <origin>  (20) 
adg

>  <m_score__min__energy>  (20) 
-7.75

>  <m_primary>  (20) 
energy

$$$$
20:0
     RDKit          3D

 56 59  0  0  0  0  0  0  0  0999 V2000
   62.3230   33.4580   47.6390 C   0  0  0  0  0  0  0  0  0  0  0  0
   61.7120   34.0940   46.3900 C   0  0  0  0  0  0  0  0  0  0  0  0
   60.5430   34.9490   46.7090 N   0  0  0  0  0  0  0  0  0  0  0  0
   59.6300   35.1760   45.5680 C   0  0  0  0  0  0  0  0  0  0  0  0
   58.9900   33.8670   45.0890 C   0  0  0  0  0  0  0  0  0  0  0  0
   58.6390   33.0040   46.2250 N   0  0  0  0  0  0  0  0  0  0  0  0
   58.1700   31.6630   45.9700 C   0  0  0  0  0  0  0  0  0  0  0  0
   57.3160   31.4240   44.9370 N   0  0  0  0  0  0  0  0  0  0  0  0
   56.8480   30.1780   44.6590 C   0  0  0  0  0  0  0  0  0  0  0  0
   55.9080   30.0120   43.5010 C   0  0  0  0  0  0  0  0  0  0  0  0
   57.2590   29.0920   45.4620 C   0  0  0  0  0  0  0  0  0  0  0  0
   56.8200   27.7700   45.2470 C   0  0  0  0  0  0  0  0  0  0  0  0
   57.2780   26.7230   46.0700 C   0  0  0  0  0  0  0  0  0  0  0  0
   56.8270   25.3690   45.8830 N   0  0  0  0  0  0  0  0  0  0  0  0
   55.4540   24.9550   45.9720 C   0  0  0  0  0  0  0  0  0  0  0  0
   54.5240   25.8060   45.9590 O   0  0  0  0  0  0  0  0  0  0  0  0
   55.1110   23.4960   45.9840 C   0  0  0  0  0  0  0  0  0  0  0  0
   55.9320   22.7630   44.9580 C   0  0  0  0  0  0  0  0  0  0  0  0
   55.7190   22.9870   43.5870 C   0  0  0  0  0  0  0  0  0  0  0  0
   56.4620   22.2850   42.6350 C   0  0  0  0  0  0  0  0  0  0  0  0
   57.4160   21.3480   43.0430 C   0  0  0  0  0  0  0  0  0  0  0  0
   57.6250   21.1090   44.4050 C   0  0  0  0  0  0  0  0  0  0  0  0
   56.8840   21.8100   45.3610 C   0  0  0  0  0  0  0  0  0  0  0  0
   58.1420   27.0140   47.1340 C   0  0  0  0  0  0  0  0  0  0  0  0
   58.5790   28.3220   47.3580 C   0  0  0  0  0  0  0  0  0  0  0  0
   58.1450   29.3590   46.5280 C   0  0  0  0  0  0  0  0  0  0  0  0
   58.5730   30.6270   46.7530 N   0  0  0  0  0  0  0  0  0  0  0  0
   58.5660   33.5900   47.5740 C   0  0  0  0  0  0  0  0  0  0  0  0
   59.8100   34.4500   47.9000 C   0  0  0  0  0  0  0  0  0  0  0  0
   61.8826   33.9164   48.5367 H   0  0  0  0  0  0  0  0  0  0  0  0
   62.1153   32.3778   47.6394 H   0  0  0  0  0  0  0  0  0  0  0  0
   63.4107   33.6222   47.6394 H   0  0  0  0  0  0  0  0  0  0  0  0
   62.4774   34.7109   45.8965 H   0  0  0  0  0  0  0  0  0  0  0  0
   61.3662   33.2820   45.7334 H   0  0  0  0  0  0  0  0  0  0  0  0
   58.8348   35.8693   45.8794 H   0  0  0  0  0  0  0  0  0  0  0  0
   60.2151   35.5975   44.7373 H   0  0  0  0  0  0  0  0  0  0  0  0
   58.0782   34.1001   44.5195 H   0  0  0  0  0  0  0  0  0  0  0  0
   59.7151   33.3343   44.4561 H   0  0  0  0  0  0  0  0  0  0  0  0
   54.8903   29.8323   43.8777 H   0  0  0  0  0  0  0  0  0  0  0  0
   55.9162   30.9255   42.8882 H   0  0  0  0  0  0  0  0  0  0  0  0
   56.2286   29.1566   42.8882 H   0  0  0  0  0  0  0  0  0  0  0  0
   56.1148   27.5546   44.4307 H   0  0  0  0  0  0  0  0  0  0  0  0
   57.5300   24.6550   45.5870 H   0  0  0  0  0  0  0  0  0  0  0  0
   55.3202   23.0813   46.9811 H   0  0  0  0  0  0  0  0  0  0  0  0
   54.0442   23.3751   45.7445 H   0  0  0  0  0  0  0  0  0  0  0  0
   54.9641   23.7182   43.2623 H   0  0  0  0  0  0  0  0  0  0  0  0
   56.2963   22.4696   41.5633 H   0  0  0  0  0  0  0  0  0  0  0  0
   58.0027   20.7983   42.2922 H   0  0  0  0  0  0  0  0  0  0  0  0
   58.3732   20.3686   44.7244 H   0  0  0  0  0  0  0  0  0  0  0  0
   57.0462   21.6155   46.4314 H   0  0  0  0  0  0  0  0  0  0  0  0
   58.4793   26.2053   47.7990 H   0  0  0  0  0  0  0  0  0  0  0  0
   59.2663   28.5360   48.1897 H   0  0  0  0  0  0  0  0  0  0  0  0
   57.6693   34.2239   47.6379 H   0  0  0  0  0  0  0  0  0  0  0  0
   58.5228   32.7655   48.3009 H   0  0  0  0  0  0  0  0  0  0  0  0
   59.4822   35.3183   48.4904 H   0  0  0  0  0  0  0  0  0  0  0  0
   60.5073   33.7973   48.4456 H   0  0  0  0  0  0  0  0  0  0  0  0
  1  2  1  0
  2  3  1  0
  3  4  1  0
  4  5  1  0
  5  6  1  0
  6  7  1  0
  7  8  2  0
  8  9  1  0
  9 10  1  0
  9 11  2  0
 11 12  1  0
 12 13  2  0
 13 14  1  0
 14 15  1  0
 15 16  2  0
 15 17  1  0
 17 18  1  0
 18 19  2  0
 19 20  1  0
 20 21  2  0
 21 22  1  0
 22 23  2  0
 13 24  1  0
 24 25  2  0
 25 26  1  0
 26 27  2  0
  6 28  1  0
 28 29  1  0
 29  3  1  0
 27  7  1  0
 26 11  1  0
 23 18  1  0
  1 30  1  0
  1 31  1  0
  1 32  1  0
  2 33  1  0
  2 34  1  0
  4 35  1  0
  4 36  1  0
  5 37  1  0
  5 38  1  0
 10 39  1  0
 10 40  1  0
 10 41  1  0
 12 42  1  0
 14 43  1  0
 17 44  1  0
 17 45  1  0
 19 46  1  0
 20 47  1  0
 21 48  1  0
 22 49  1  0
 23 50  1  0
 24 51  1  0
 25 52  1  0
 28 53  1  0
 28 54  1  0
 29 55  1  0
 29 56  1  0
M  END
>  <UniqueID>  (21) 
21

>  <SMILES>  (21) 
CCN1CCN(c2nc(C)c3cc(NC(=O)Cc4ccccc4)ccc3n2)CC1

>  <Energy>  (21) 
72.12489516872057

>  <Genealogy>  (21) 
CCN1CCN(c2nc(C)c3cc(NC(=O)Cc4ccccc4)ccc3n2)CC1 (3D coordinates assigned)
CCN1CCN(c2nc(C)c3cc(NC(=O)Cc4ccccc4)ccc3n2)CC1 (nonaromatic ring conformer: 72.12489516872057 kcal/mol)

>  <smiles>  (21) 
CCN1CCN(c2nc(C)c3cc(NC(=O)Cc4ccccc4)ccc3n2)CC1

>  <score_type>  (21) 
oracle

>  <origin>  (21) 
adg

>  <m_score__min__energy>  (21) 
-9.2699999999999996

>  <m_primary>  (21) 
energy

$$$$
21:0
     RDKit          3D

 25 26  0  0  0  0  0  0  0  0999 V2000
   60.3570   27.3370   46.1990 C   0  0  0  0  0  0  0  0  0  0  0  0
   59.4860   27.2740   45.0790 O   0  0  0  0  0  0  0  0  0  0  0  0
   58.3010   28.0090   45.0040 C   0  0  0  0  0  0  0  0  0  0  0  0
   57.9010   29.2320   44.4820 C   0  0  0  0  0  0  0  0  0  0  0  0
   58.5370   30.3120   43.7860 N   0  0  0  0  0  0  0  0  0  0  0  0
   58.3520   31.5320   44.5280 C   0  0  0  0  0  0  0  0  0  0  0  0
   58.6830   31.5930   45.8950 C   0  0  0  0  0  0  0  0  0  0  0  0
   58.4730   32.7690   46.6210 C   0  0  0  0  0  0  0  0  0  0  0  0
   57.9260   33.8920   45.9940 C   0  0  0  0  0  0  0  0  0  0  0  0
   57.5850   33.8400   44.6400 C   0  0  0  0  0  0  0  0  0  0  0  0
   57.7920   32.6660   43.9090 C   0  0  0  0  0  0  0  0  0  0  0  0
   56.6120   28.9900   44.9190 C   0  0  0  0  0  0  0  0  0  0  0  0
   55.5220   29.6180   44.8650 O   0  0  0  0  0  0  0  0  0  0  0  0
   57.0130   27.7790   45.4430 C   0  0  0  0  0  0  0  0  0  0  0  0
   56.4400   26.8460   46.0630 O   0  0  0  0  0  0  0  0  0  0  0  0
   59.7661   27.2943   47.1259 H   0  0  0  0  0  0  0  0  0  0  0  0
   61.0545   26.4870   46.1693 H   0  0  0  0  0  0  0  0  0  0  0  0
   60.9249   28.2786   46.1693 H   0  0  0  0  0  0  0  0  0  0  0  0
   59.5550   30.1130   43.6690 H   0  0  0  0  0  0  0  0  0  0  0  0
   58.1120   30.3940   42.8340 H   0  0  0  0  0  0  0  0  0  0  0  0
   59.1092   30.7105   46.3945 H   0  0  0  0  0  0  0  0  0  0  0  0
   58.7387   32.8106   47.6876 H   0  0  0  0  0  0  0  0  0  0  0  0
   57.7639   34.8171   46.5667 H   0  0  0  0  0  0  0  0  0  0  0  0
   57.1530   34.7240   44.1482 H   0  0  0  0  0  0  0  0  0  0  0  0
   57.5159   32.6282   42.8449 H   0  0  0  0  0  0  0  0  0  0  0  0
  1  2  1  0
  2  3  1  0
  3  4  2  0
  4  5  1  0
  5  6  1  0
  6  7  2  0
  7  8  1  0
  8  9  2  0
  9 10  1  0
 10 11  2  0
  4 12  1  0
 12 13  2  0
 12 14  1  0
 14 15  2  0
 14  3  1  0
 11  6  1  0
  1 16  1  0
  1 17  1  0
  1 18  1  0
  5 19  1  0
  5 20  1  0
  7 21  1  0
  8 22  1  0
  9 23  1  0
 10 24  1  0
 11 25  1  0
M  CHG  1   5   1
M  END
>  <UniqueID>  (22) 
22

>  <SMILES>  (22) 
COc1c([NH2+]c2ccccc2)c(=O)c1=O

>  <Energy>  (22) 
14.991249482566325

>  <Genealogy>  (22) 
COc1c([NH2+]c2ccccc2)c(=O)c1=O (protonated)
COc1c([NH2+]c2ccccc2)c(=O)c1=O (3D coordinates assigned)
COc1c([NH2+]c2ccccc2)c(=O)c1=O (optimized conformer: 14.991249482566325 kcal/mol)

>  <smiles>  (22) 
COc1c(Nc2ccccc2)c(=O)c1=O

>  <score_type>  (22) 
oracle

>  <origin>  (22) 
adg

>  <m_score__min__energy>  (22) 
-4.3499999999999996

>  <m_primary>  (22) 
energy

$$$$
22:0
     RDKit          3D

 20 21  0  0  1  0  0  0  0  0999 V2000
   56.5360   29.7810   42.7700 C   0  0  0  0  0  0  0  0  0  0  0  0
   56.0600   30.0710   44.1440 C   0  0  0  0  0  0  0  0  0  0  0  0
   55.1430   29.3410   44.6030 O   0  0  0  0  0  0  0  0  0  0  0  0
   56.6480   31.1430   44.8720 N   0  0  0  0  0  0  0  0  0  0  0  0
   57.7560   31.0790   45.5030 C   0  0  0  0  0  0  0  0  0  0  0  0
   58.5360   32.2010   45.6940 C   0  0  0  0  0  0  0  0  0  0  0  0
   57.9690   33.8950   45.0100 Br  0  0  0  0  0  0  0  0  0  0  0  0
   59.7380   32.0710   46.3940 C   0  0  0  0  0  0  0  0  0  0  0  0
   60.1100   30.8530   46.8660 N   0  0  0  0  0  0  0  0  0  0  0  0
   59.3210   29.7790   46.6600 C   0  0  0  0  0  0  0  0  0  0  0  0
   59.4810   28.4860   47.0300 N   0  0  0  0  0  0  0  0  0  0  0  0
   58.4100   27.7880   46.5850 C   0  0  0  0  0  0  0  0  0  0  0  0
   57.5990   28.6490   45.9440 N   0  0  0  0  0  0  0  0  0  0  0  0
   58.1460   29.8630   45.9850 N   0  0  0  0  0  0  0  0  0  0  0  0
   57.4744   29.2093   42.8201 H   0  0  0  0  0  0  0  0  0  0  0  0
   55.7761   29.1923   42.2353 H   0  0  0  0  0  0  0  0  0  0  0  0
   56.7106   30.7263   42.2353 H   0  0  0  0  0  0  0  0  0  0  0  0
   60.3788   32.9492   46.5618 H   0  0  0  0  0  0  0  0  0  0  0  0
   61.0140   30.7550   47.3920 H   0  0  0  0  0  0  0  0  0  0  0  0
   58.2344   26.7109   46.7227 H   0  0  0  0  0  0  0  0  0  0  0  0
  1  2  1  0
  2  3  2  0
  2  4  1  0
  4  5  2  0
  5  6  1  0
  6  7  1  0
  6  8  2  0
  8  9  1  0
  9 10  1  0
 10 11  2  0
 11 12  1  0
 12 13  2  0
 13 14  1  0
 14  5  1  0
 14 10  1  0
  1 15  1  0
  1 16  1  0
  1 17  1  0
  8 18  1  0
  9 19  1  0
 12 20  1  0
M  END
>  <smiles>  (23) 
CC(=O)N=c1c(Br)c[nH]c2ncnn12

>  <score_type>  (23) 
oracle

>  <origin>  (23) 
adg

>  <m_score__min__energy>  (23) 
-5.71

>  <m_primary>  (23) 
energy

$$$$
23:0
     RDKit          3D

 43 46  0  0  0  0  0  0  0  0999 V2000
   53.8927   24.7099   45.8700 H   0  0  0  0  0  0  0  0  0  0  0  0
   54.9670   24.9370   45.8040 C   0  0  0  0  0  0  0  0  0  0  0  0
   55.4070   26.2050   46.0180 N   0  0  0  0  0  0  0  0  0  0  0  0
   56.7230   26.5420   45.9410 C   0  0  0  0  0  0  0  0  0  0  0  0
   57.0630   27.7790   46.1770 N   0  0  0  0  0  0  0  0  0  0  0  0
   57.0900   28.8610   45.2320 C   0  0  0  0  0  0  0  0  0  0  0  0
   55.8910   29.3900   44.7220 C   0  0  0  0  0  0  0  0  0  0  0  0
   54.9261   28.9804   45.0556 H   0  0  0  0  0  0  0  0  0  0  0  0
   55.9200   30.4340   43.7930 C   0  0  0  0  0  0  0  0  0  0  0  0
   54.9793   30.8375   43.3902 H   0  0  0  0  0  0  0  0  0  0  0  0
   57.1420   30.9650   43.3760 C   0  0  0  0  0  0  0  0  0  0  0  0
   57.1639   31.7777   42.6350 H   0  0  0  0  0  0  0  0  0  0  0  0
   58.3370   30.4650   43.8990 C   0  0  0  0  0  0  0  0  0  0  0  0
   59.2983   30.8814   43.5637 H   0  0  0  0  0  0  0  0  0  0  0  0
   58.3160   29.4340   44.8500 C   0  0  0  0  0  0  0  0  0  0  0  0
   59.8700   28.8260   45.5230 S   0  0  0  0  0  0  0  0  0  0  0  0
   59.5400   29.4630   47.1740 C   0  0  0  0  0  0  0  0  0  0  0  0
   59.1710   28.5580   48.1810 C   0  0  0  0  0  0  0  0  0  0  0  0
   59.0497   27.4914   47.9408 H   0  0  0  0  0  0  0  0  0  0  0  0
   58.9570   29.0050   49.4870 C   0  0  0  0  0  0  0  0  0  0  0  0
   58.6691   28.2902   50.2720 H   0  0  0  0  0  0  0  0  0  0  0  0
   59.1080   30.3570   49.7970 C   0  0  0  0  0  0  0  0  0  0  0  0
   58.9512   30.7049   50.8287 H   0  0  0  0  0  0  0  0  0  0  0  0
   59.4580   31.2690   48.7990 C   0  0  0  0  0  0  0  0  0  0  0  0
   59.5837   32.3326   49.0498 H   0  0  0  0  0  0  0  0  0  0  0  0
   59.6500   30.8370   47.4800 C   0  0  0  0  0  0  0  0  0  0  0  0
   59.9910   31.8090   46.4800 N   0  0  0  0  0  0  0  0  0  0  0  0
   59.2110   32.7460   46.0170 C   0  0  0  0  0  0  0  0  0  0  0  0
   59.7940   33.8650   45.4120 C   0  0  0  0  0  0  0  0  0  0  0  0
   60.8887   33.9447   45.3400 H   0  0  0  0  0  0  0  0  0  0  0  0
   58.9840   34.8800   44.9000 C   0  0  0  0  0  0  0  0  0  0  0  0
   59.4407   35.7539   44.4125 H   0  0  0  0  0  0  0  0  0  0  0  0
   57.6320   34.7900   45.0030 N   0  0  0  0  0  0  0  0  0  0  0  0
   57.0330   33.7270   45.6020 C   0  0  0  0  0  0  0  0  0  0  0  0
   55.9363   33.6855   45.6760 H   0  0  0  0  0  0  0  0  0  0  0  0
   57.8060   32.6870   46.1240 C   0  0  0  0  0  0  0  0  0  0  0  0
   57.3228   31.8291   46.6145 H   0  0  0  0  0  0  0  0  0  0  0  0
   57.6700   25.5350   45.6520 C   0  0  0  0  0  0  0  0  0  0  0  0
   58.7415   25.7789   45.6037 H   0  0  0  0  0  0  0  0  0  0  0  0
   57.2350   24.2270   45.4280 C   0  0  0  0  0  0  0  0  0  0  0  0
   57.9636   23.4367   45.1943 H   0  0  0  0  0  0  0  0  0  0  0  0
   55.8750   23.9240   45.5010 C   0  0  0  0  0  0  0  0  0  0  0  0
   55.5234   22.8973   45.3214 H   0  0  0  0  0  0  0  0  0  0  0  0
  1  2  1  0
  2  3  1  0
  3  4  1  0
  4  5  2  0
  5  6  1  0
  6  7  2  0
  7  8  1  0
  7  9  1  0
  9 10  1  0
  9 11  2  0
 11 12  1  0
 11 13  1  0
 13 14  1  0
 13 15  2  0
 15 16  1  0
 16 17  1  0
 17 18  2  0
 18 19  1  0
 18 20  1  0
 20 21  1  0
 20 22  2  0
 22 23  1  0
 22 24  1  0
 24 25  1  0
 24 26  2  0
 26 27  1  0
 27 28  2  3
 28 29  1  0
 29 30  1  0
 29 31  2  0
 31 32  1  0
 31 33  1  0
 33 34  1  0
 34 35  1  0
 34 36  2  0
 36 37  1  0
  4 38  1  0
 38 39  1  0
 38 40  2  0
 40 41  1  0
 40 42  1  0
 42 43  1  0
 42  2  2  0
 15  6  1  0
 26 17  1  0
 36 28  1  0
M  CHG  2   3  -1  33  -1
M  END
>  <UniqueID>  (24) 
23

>  <SMILES>  (24) 
c1cc/c(=N\c2ccccc2Sc2ccccc2N=c2cc[n-]cc2)[n-]c1

>  <Energy>  (24) 
64.55407406086083

>  <Genealogy>  (24) 
c1ccc(=Nc2ccccc2Sc2ccccc2N=c2cc[n-]cc2)[n-]c1 (protonated)
c1cc/c(=N\c2ccccc2Sc2ccccc2N=c2cc[n-]cc2)[n-]c1 (cis-trans isomerization)
c1cc/c(=N\c2ccccc2Sc2ccccc2N=c2cc[n-]cc2)[n-]c1 (3D coordinates assigned)
c1cc/c(=N\c2ccccc2Sc2ccccc2N=c2cc[n-]cc2)[n-]c1 (optimized conformer: 64.55407406086083 kcal/mol)

>  <smiles>  (24) 
c1ccc(=Nc2ccccc2Sc2ccccc2N=c2cc[nH]cc2)[nH]c1

>  <score_type>  (24) 
oracle

>  <origin>  (24) 
adg

>  <m_score__min__energy>  (24) 
-11.460000000000001

>  <m_primary>  (24) 
energy

$$$$
24:0
     RDKit          3D

 36 38  0  0  0  0  0  0  0  0999 V2000
   58.1750   27.7860   44.2600 C   0  0  0  0  0  0  0  0  0  0  0  0
   58.6660   29.0690   44.8810 C   0  0  0  0  0  0  0  0  0  0  0  0
   58.0650   30.2810   44.5150 C   0  0  0  0  0  0  0  0  0  0  0  0
   58.4760   31.4950   45.0820 C   0  0  0  0  0  0  0  0  0  0  0  0
   59.5460   31.5130   45.9990 C   0  0  0  0  0  0  0  0  0  0  0  0
   60.1290   30.2900   46.3920 C   0  0  0  0  0  0  0  0  0  0  0  0
   59.6920   29.0690   45.8510 C   0  0  0  0  0  0  0  0  0  0  0  0
   60.3560   27.7890   46.2880 C   0  0  0  0  0  0  0  0  0  0  0  0
   60.0230   32.8530   46.5320 C   0  0  2  0  0  0  0  0  0  0  0  0
   61.3450   32.7920   47.2760 C   0  0  0  0  0  0  0  0  0  0  0  0
   62.4950   33.4360   46.7780 C   0  0  0  0  0  0  0  0  0  0  0  0
   63.6930   33.4020   47.4980 C   0  0  0  0  0  0  0  0  0  0  0  0
   63.7540   32.7360   48.7260 C   0  0  0  0  0  0  0  0  0  0  0  0
   64.9160   32.7070   49.4230 F   0  0  0  0  0  0  0  0  0  0  0  0
   62.6160   32.1100   49.2370 C   0  0  0  0  0  0  0  0  0  0  0  0
   61.4150   32.1410   48.5200 C   0  0  0  0  0  0  0  0  0  0  0  0
   58.9920   33.4360   47.3870 N   0  0  0  0  0  0  0  0  0  0  0  0
   57.8160   33.8190   46.9870 C   0  0  0  0  0  0  0  0  0  0  0  0
   57.3560   33.7190   45.5870 C   0  0  0  0  0  0  0  0  0  0  0  0
   56.4880   34.5420   45.1910 O   0  0  0  0  0  0  0  0  0  0  0  0
   57.8130   32.7050   44.6760 N   0  0  0  0  0  0  0  0  0  0  0  0
   57.9029   27.0750   45.0540 H   0  0  0  0  0  0  0  0  0  0  0  0
   57.2931   27.9945   43.6365 H   0  0  0  0  0  0  0  0  0  0  0  0
   58.9707   27.3524   43.6365 H   0  0  0  0  0  0  0  0  0  0  0  0
   57.2563   30.2794   43.7694 H   0  0  0  0  0  0  0  0  0  0  0  0
   60.9400   30.2922   47.1351 H   0  0  0  0  0  0  0  0  0  0  0  0
   60.3791   27.7445   47.3869 H   0  0  0  0  0  0  0  0  0  0  0  0
   59.7896   26.9304   45.8981 H   0  0  0  0  0  0  0  0  0  0  0  0
   61.3841   27.7576   45.8981 H   0  0  0  0  0  0  0  0  0  0  0  0
   60.2040   33.4883   45.6524 H   0  0  0  0  0  0  0  0  0  0  0  0
   62.4500   33.9689   45.8167 H   0  0  0  0  0  0  0  0  0  0  0  0
   64.5887   33.8998   47.0980 H   0  0  0  0  0  0  0  0  0  0  0  0
   62.6635   31.5910   50.2057 H   0  0  0  0  0  0  0  0  0  0  0  0
   60.5197   31.6528   48.9324 H   0  0  0  0  0  0  0  0  0  0  0  0
   57.1254   34.2408   47.7321 H   0  0  0  0  0  0  0  0  0  0  0  0
   57.4230   32.7360   43.7070 H   0  0  0  0  0  0  0  0  0  0  0  0
  1  2  1  0
  2  3  2  0
  3  4  1  0
  4  5  2  0
  5  6  1  0
  6  7  2  0
  7  8  1  0
  5  9  1  0
  9 10  1  0
 10 11  2  0
 11 12  1  0
 12 13  2  0
 13 14  1  0
 13 15  1  0
 15 16  2  0
  9 17  1  0
 17 18  2  0
 18 19  1  0
 19 20  2  0
 19 21  1  0
  7  2  1  0
 16 10  1  0
 21  4  1  0
  1 22  1  0
  1 23  1  0
  1 24  1  0
  3 25  1  0
  6 26  1  0
  8 27  1  0
  8 28  1  0
  8 29  1  0
  9 30  1  6
 11 31  1  0
 12 32  1  0
 15 33  1  0
 16 34  1  0
 18 35  1  0
 21 36  1  0
M  END
>  <UniqueID>  (25) 
24

>  <SMILES>  (25) 
Cc1cc2c(cc1C)[C@H](c1ccc(F)cc1)N=CC(=O)N2

>  <Energy>  (25) 
50.955672641135095

>  <Genealogy>  (25) 
Cc1cc2c(cc1C)[C@H](c1ccc(F)cc1)N=CC(=O)N2 (chirality)
Cc1cc2c(cc1C)[C@H](c1ccc(F)cc1)N=CC(=O)N2 (3D coordinates assigned)
Cc1cc2c(cc1C)[C@H](c1ccc(F)cc1)N=CC(=O)N2 (nonaromatic ring conformer: 50.955672641135095 kcal/mol)

>  <smiles>  (25) 
Cc1cc2c(cc1C)C(c1ccc(F)cc1)N=CC(=O)N2

>  <score_type>  (25) 
oracle

>  <origin>  (25) 
adg

>  <m_score__min__energy>  (25) 
-5.6600000000000001

>  <m_primary>  (25) 
energy

$$$$
25:0
     RDKit          3D

 46 49  0  0  0  0  0  0  0  0999 V2000
   61.0859   28.6300   49.4140 H   0  0  0  0  0  0  0  0  0  0  0  0
   60.3820   28.2770   48.6460 C   0  0  0  0  0  0  0  0  0  0  0  0
   59.7430   29.1710   47.8410 N   0  0  0  0  0  0  0  0  0  0  0  0
   58.8900   28.7310   46.9170 N   0  0  0  0  0  0  0  0  0  0  0  0
   58.1720   29.4570   46.0390 C   0  0  0  0  0  0  0  0  0  0  0  0
   58.1970   30.9350   45.9560 C   0  0  0  0  0  0  0  0  0  0  0  0
   57.1490   31.5510   45.6290 O   0  0  0  0  0  0  0  0  0  0  0  0
   59.3970   31.6900   46.1820 N   0  0  0  0  0  0  0  0  0  0  0  0
   59.4890   32.9870   46.2540 C   0  0  0  0  0  0  0  0  0  0  0  0
   59.8470   33.6070   47.4160 N   0  0  0  0  0  0  0  0  0  0  0  0
   59.9360   34.9600   47.5120 C   0  0  0  0  0  0  0  0  0  0  0  0
   60.2350   35.4254   48.4628 H   0  0  0  0  0  0  0  0  0  0  0  0
   59.6480   35.7590   46.4040 C   0  0  0  0  0  0  0  0  0  0  0  0
   59.7206   36.8543   46.4745 H   0  0  0  0  0  0  0  0  0  0  0  0
   59.2670   35.1530   45.2060 C   0  0  0  0  0  0  0  0  0  0  0  0
   59.0326   35.7701   44.3261 H   0  0  0  0  0  0  0  0  0  0  0  0
   59.1840   33.7600   45.1270 C   0  0  0  0  0  0  0  0  0  0  0  0
   58.8816   33.2749   44.1872 H   0  0  0  0  0  0  0  0  0  0  0  0
   57.4360   28.5830   45.2340 C   0  0  0  0  0  0  0  0  0  0  0  0
   56.4970   28.9670   44.1160 C   0  0  0  0  0  0  0  0  0  0  0  0
   57.0801   29.4058   43.2929 H   0  0  0  0  0  0  0  0  0  0  0  0
   55.9692   28.0625   43.7794 H   0  0  0  0  0  0  0  0  0  0  0  0
   55.5040   29.9400   44.5680 N   0  0  0  0  0  0  0  0  0  0  0  0
   55.7180   30.8690   44.1370 H   0  0  0  0  0  0  0  0  0  0  0  0
   55.5790   30.0510   45.6040 H   0  0  0  0  0  0  0  0  0  0  0  0
   57.7280   27.2840   45.6720 C   0  0  0  0  0  0  0  0  0  0  0  0
   57.2080   26.0120   45.1290 C   0  0  0  0  0  0  0  0  0  0  0  0
   56.2370   25.2830   45.8290 C   0  0  0  0  0  0  0  0  0  0  0  0
   55.8555   25.6622   46.7885 H   0  0  0  0  0  0  0  0  0  0  0  0
   55.7500   24.0770   45.3160 C   0  0  0  0  0  0  0  0  0  0  0  0
   54.9874   23.5124   45.8725 H   0  0  0  0  0  0  0  0  0  0  0  0
   56.2330   23.5830   44.0890 C   0  0  0  0  0  0  0  0  0  0  0  0
   55.7770   22.3790   43.5300 O   0  0  0  0  0  0  0  0  0  0  0  0
   56.6280   21.3540   43.0280 C   0  0  0  0  0  0  0  0  0  0  0  0
   57.0808   20.8087   43.8692 H   0  0  0  0  0  0  0  0  0  0  0  0
   56.0394   20.6570   42.4135 H   0  0  0  0  0  0  0  0  0  0  0  0
   57.4214   21.8044   42.4135 H   0  0  0  0  0  0  0  0  0  0  0  0
   57.2050   24.3120   43.3940 C   0  0  0  0  0  0  0  0  0  0  0  0
   57.5886   23.9342   42.4348 H   0  0  0  0  0  0  0  0  0  0  0  0
   57.6920   25.5170   43.9100 C   0  0  0  0  0  0  0  0  0  0  0  0
   58.4586   26.0792   43.3567 H   0  0  0  0  0  0  0  0  0  0  0  0
   58.6350   27.4300   46.7100 C   0  0  0  0  0  0  0  0  0  0  0  0
   59.2460   26.4610   47.5040 C   0  0  0  0  0  0  0  0  0  0  0  0
   59.0361   25.3907   47.3614 H   0  0  0  0  0  0  0  0  0  0  0  0
   60.1380   26.9020   48.4910 C   0  0  0  0  0  0  0  0  0  0  0  0
   60.6451   26.1745   49.1418 H   0  0  0  0  0  0  0  0  0  0  0  0
  1  2  1  0
  2  3  2  0
  3  4  1  0
  4  5  1  0
  5  6  1  0
  6  7  2  0
  6  8  1  0
  8  9  2  0
  9 10  1  0
 10 11  1  0
 11 12  1  0
 11 13  2  0
 13 14  1  0
 13 15  1  0
 15 16  1  0
 15 17  2  0
 17 18  1  0
  5 19  2  0
 19 20  1  0
 20 21  1  0
 20 22  1  0
 20 23  1  0
 23 24  1  0
 23 25  1  0
 19 26  1  0
 26 27  1  0
 27 28  2  0
 28 29  1  0
 28 30  1  0
 30 31  1  0
 30 32  2  0
 32 33  1  0
 33 34  1  0
 34 35  1  0
 34 36  1  0
 34 37  1  0
 32 38  1  0
 38 39  1  0
 38 40  2  0
 40 41  1  0
 26 42  2  0
 42 43  1  0
 43 44  1  0
 43 45  2  0
 45 46  1  0
 45  2  1  0
 42  4  1  0
 17  9  1  0
 40 27  1  0
M  CHG  1  10  -1
M  END
>  <UniqueID>  (26) 
25

>  <SMILES>  (26) 
COc1ccc(-c2c(CN)c(C(=O)/N=c3/cccc[n-]3)n3ncccc23)cc1

>  <Energy>  (26) 
95.71872263856604

>  <Genealogy>  (26) 
COc1ccc(-c2c(CN)c(C(=O)N=c3cccc[n-]3)n3ncccc23)cc1 (protonated)
COc1ccc(-c2c(CN)c(C(=O)/N=c3/cccc[n-]3)n3ncccc23)cc1 (cis-trans isomerization)
COc1ccc(-c2c(CN)c(C(=O)/N=c3/cccc[n-]3)n3ncccc23)cc1 (3D coordinates assigned)
COc1ccc(-c2c(CN)c(C(=O)/N=c3/cccc[n-]3)n3ncccc23)cc1 (optimized conformer: 95.71872263856604 kcal/mol)

>  <smiles>  (26) 
COc1ccc(-c2c(CN)c(C(=O)N=c3cccc[nH]3)n3ncccc23)cc1

>  <score_type>  (26) 
oracle

>  <origin>  (26) 
adg

>  <m_score__min__energy>  (26) 
-9.9100000000000001

>  <m_primary>  (26) 
energy

$$$$
26:0
     RDKit          3D

 34 35  0  0  0  0  0  0  0  0999 V2000
   54.8160   29.7030   43.8380 O   0  0  0  0  0  0  0  0  0  0  0  0
   55.8850   29.3500   44.4070 C   0  0  0  0  0  0  0  0  0  0  0  0
   57.1460   30.1180   44.1600 C   0  0  0  0  0  0  0  0  0  0  0  0
   57.1410   31.3460   44.8870 O   0  0  0  0  0  0  0  0  0  0  0  0
   57.8090   32.4980   44.4540 C   0  0  0  0  0  0  0  0  0  0  0  0
   57.8780   32.7760   43.2250 O   0  0  0  0  0  0  0  0  0  0  0  0
   58.4220   33.3910   45.4420 C   0  0  0  0  0  0  0  0  0  0  0  0
   59.2670   34.4610   45.1680 C   0  0  0  0  0  0  0  0  0  0  0  0
   59.6830   35.1410   46.3190 C   0  0  0  0  0  0  0  0  0  0  0  0
   59.1700   34.6120   47.4960 C   0  0  0  0  0  0  0  0  0  0  0  0
   58.1970   33.2980   47.1060 S   0  0  0  0  0  0  0  0  0  0  0  0
   55.9050   28.2070   45.2640 N   0  0  0  0  0  0  0  0  0  0  0  0
   57.0540   27.3170   45.3700 C   0  0  0  0  0  0  0  0  0  0  0  0
   57.7070   27.4600   46.7440 C   0  0  0  0  0  0  0  0  0  0  0  0
   58.7760   28.5250   46.7400 C   0  0  0  0  0  0  0  0  0  0  0  0
   58.8800   29.4330   47.8070 C   0  0  0  0  0  0  0  0  0  0  0  0
   59.8830   30.4070   47.8080 C   0  0  0  0  0  0  0  0  0  0  0  0
   60.8010   30.4690   46.7560 C   0  0  0  0  0  0  0  0  0  0  0  0
   60.7130   29.5600   45.6990 C   0  0  0  0  0  0  0  0  0  0  0  0
   59.7050   28.5910   45.6880 C   0  0  0  0  0  0  0  0  0  0  0  0
   58.0062   29.5122   44.4810 H   0  0  0  0  0  0  0  0  0  0  0  0
   57.2170   30.3440   43.0858 H   0  0  0  0  0  0  0  0  0  0  0  0
   59.5768   34.7441   44.1512 H   0  0  0  0  0  0  0  0  0  0  0  0
   60.3534   36.0127   46.2934 H   0  0  0  0  0  0  0  0  0  0  0  0
   59.3668   34.9886   48.5106 H   0  0  0  0  0  0  0  0  0  0  0  0
   56.7223   26.2773   45.2317 H   0  0  0  0  0  0  0  0  0  0  0  0
   57.7873   27.5835   44.5945 H   0  0  0  0  0  0  0  0  0  0  0  0
   56.9356   27.7306   47.4800 H   0  0  0  0  0  0  0  0  0  0  0  0
   58.1770   26.5002   47.0044 H   0  0  0  0  0  0  0  0  0  0  0  0
   58.1695   29.3774   48.6449 H   0  0  0  0  0  0  0  0  0  0  0  0
   59.9497   31.1257   48.6381 H   0  0  0  0  0  0  0  0  0  0  0  0
   61.5923   31.2331   46.7604 H   0  0  0  0  0  0  0  0  0  0  0  0
   61.4384   29.6066   44.8734 H   0  0  0  0  0  0  0  0  0  0  0  0
   59.6391   27.8780   44.8530 H   0  0  0  0  0  0  0  0  0  0  0  0
  1  2  2  0
  2  3  1  0
  3  4  1  0
  4  5  1  0
  5  6  2  0
  5  7  1  0
  7  8  2  0
  8  9  1  0
  9 10  2  0
 10 11  1  0
  2 12  1  0
 12 13  1  0
 13 14  1  0
 14 15  1  0
 15 16  2  0
 16 17  1  0
 17 18  2  0
 18 19  1  0
 19 20  2  0
 11  7  1  0
 20 15  1  0
  3 21  1  0
  3 22  1  0
  8 23  1  0
  9 24  1  0
 10 25  1  0
 13 26  1  0
 13 27  1  0
 14 28  1  0
 14 29  1  0
 16 30  1  0
 17 31  1  0
 18 32  1  0
 19 33  1  0
 20 34  1  0
M  CHG  1  12  -1
M  END
>  <UniqueID>  (27) 
26

>  <SMILES>  (27) 
O=C(COC(=O)c1cccs1)[N-]CCc1ccccc1

>  <Energy>  (27) 
48.16364980556961

>  <Genealogy>  (27) 
O=C(COC(=O)c1cccs1)[N-]CCc1ccccc1 (protonated)
O=C(COC(=O)c1cccs1)[N-]CCc1ccccc1 (3D coordinates assigned)
O=C(COC(=O)c1cccs1)[N-]CCc1ccccc1 (optimized conformer: 48.16364980556961 kcal/mol)

>  <smiles>  (27) 
O=C(COC(=O)c1cccs1)NCCc1ccccc1

>  <score_type>  (27) 
oracle

>  <origin>  (27) 
adg

>  <m_score__min__energy>  (27) 
-8.9299999999999997

>  <m_primary>  (27) 
energy

$$$$
27:0
     RDKit          3D

 49 51  0  0  0  0  0  0  0  0999 V2000
   55.1750   29.3370   44.8770 O   0  0  0  0  0  0  0  0  0  0  0  0
   56.3970   29.6330   44.8440 C   0  0  0  0  0  0  0  0  0  0  0  0
   57.3800   28.6040   44.3460 C   0  0  0  0  0  0  0  0  0  0  0  0
   57.9340   27.8390   45.4850 N   0  0  0  0  0  0  0  0  0  0  0  0
   59.0360   28.3010   46.1640 C   0  0  0  0  0  0  0  0  0  0  0  0
   59.9110   29.7580   45.6860 Cl  0  0  0  0  0  0  0  0  0  0  0  0
   59.5000   27.6120   47.2830 C   0  0  0  0  0  0  0  0  0  0  0  0
   58.8450   26.5120   47.7150 N   0  0  0  0  0  0  0  0  0  0  0  0
   57.7450   26.0300   47.0850 C   0  0  0  0  0  0  0  0  0  0  0  0
   57.1610   24.9830   47.6060 N   0  0  0  0  0  0  0  0  0  0  0  0
   57.0410   23.6170   47.0890 C   0  0  0  0  0  0  0  0  0  0  0  0
   57.5260   23.5320   45.6280 C   0  0  1  0  0  0  0  0  0  0  0  0
   58.1830   22.1560   45.3500 C   0  0  0  0  0  0  0  0  0  0  0  0
   58.1600   21.8470   43.8540 C   0  0  0  0  0  0  0  0  0  0  0  0
   56.7170   21.8030   43.3210 C   0  0  0  0  0  0  0  0  0  0  0  0
   55.7480   22.6500   44.1670 C   0  0  0  0  0  0  0  0  0  0  0  0
   56.4080   23.8470   44.7080 N   0  0  0  0  0  0  0  0  0  0  0  0
   57.2950   26.6980   45.9140 C   0  0  0  0  0  0  0  0  0  0  0  0
   56.3220   26.2460   45.2550 O   0  0  0  0  0  0  0  0  0  0  0  0
   56.7910   30.9520   45.2450 N   0  0  0  0  0  0  0  0  0  0  0  0
   57.3760   31.9690   44.3800 C   0  0  0  0  0  0  0  0  0  0  0  0
   58.1420   32.9490   45.2180 C   0  0  0  0  0  0  0  0  0  0  0  0
   58.5990   34.1490   44.6490 C   0  0  0  0  0  0  0  0  0  0  0  0
   59.2920   35.0800   45.4290 C   0  0  0  0  0  0  0  0  0  0  0  0
   59.5210   34.8260   46.7840 C   0  0  0  0  0  0  0  0  0  0  0  0
   59.0550   33.6400   47.3630 C   0  0  0  0  0  0  0  0  0  0  0  0
   59.3330   33.3280   49.0670 Cl  0  0  0  0  0  0  0  0  0  0  0  0
   58.3610   32.7060   46.5840 C   0  0  0  0  0  0  0  0  0  0  0  0
   56.8682   27.9143   43.6587 H   0  0  0  0  0  0  0  0  0  0  0  0
   58.2010   29.1141   43.8208 H   0  0  0  0  0  0  0  0  0  0  0  0
   60.3975   27.9629   47.8134 H   0  0  0  0  0  0  0  0  0  0  0  0
   57.6501   22.9432   47.7095 H   0  0  0  0  0  0  0  0  0  0  0  0
   55.9818   23.3222   47.1233 H   0  0  0  0  0  0  0  0  0  0  0  0
   58.3086   24.2841   45.4492 H   0  0  0  0  0  0  0  0  0  0  0  0
   59.2256   22.1749   45.7001 H   0  0  0  0  0  0  0  0  0  0  0  0
   57.6189   21.3770   45.8838 H   0  0  0  0  0  0  0  0  0  0  0  0
   58.7180   22.6281   43.3169 H   0  0  0  0  0  0  0  0  0  0  0  0
   58.6228   20.8622   43.6929 H   0  0  0  0  0  0  0  0  0  0  0  0
   56.7105   22.1849   42.2895 H   0  0  0  0  0  0  0  0  0  0  0  0
   56.3756   20.7584   43.3685 H   0  0  0  0  0  0  0  0  0  0  0  0
   54.9028   22.9625   43.5362 H   0  0  0  0  0  0  0  0  0  0  0  0
   55.4014   22.0363   45.0116 H   0  0  0  0  0  0  0  0  0  0  0  0
   56.7730   24.4110   43.9040 H   0  0  0  0  0  0  0  0  0  0  0  0
   58.0556   31.4917   43.6587 H   0  0  0  0  0  0  0  0  0  0  0  0
   56.5776   32.4940   43.8350 H   0  0  0  0  0  0  0  0  0  0  0  0
   58.4110   34.3573   43.5854 H   0  0  0  0  0  0  0  0  0  0  0  0
   59.6573   36.0133   44.9756 H   0  0  0  0  0  0  0  0  0  0  0  0
   60.0678   35.5586   47.3958 H   0  0  0  0  0  0  0  0  0  0  0  0
   57.9862   31.7793   47.0431 H   0  0  0  0  0  0  0  0  0  0  0  0
  1  2  2  0
  2  3  1  0
  3  4  1  0
  4  5  1  0
  5  6  1  0
  5  7  2  0
  7  8  1  0
  8  9  1  0
  9 10  2  3
 10 11  1  0
 11 12  1  0
 12 13  1  0
 13 14  1  0
 14 15  1  0
 15 16  1  0
 16 17  1  0
  9 18  1  0
 18 19  2  0
  2 20  1  0
 20 21  1  0
 21 22  1  0
 22 23  2  0
 23 24  1  0
 24 25  2  0
 25 26  1  0
 26 27  1  0
 26 28  2  0
 18  4  1  0
 28 22  1  0
 17 12  1  0
  3 29  1  0
  3 30  1  0
  7 31  1  0
 11 32  1  0
 11 33  1  0
 12 34  1  1
 13 35  1  0
 13 36  1  0
 14 37  1  0
 14 38  1  0
 15 39  1  0
 15 40  1  0
 16 41  1  0
 16 42  1  0
 17 43  1  0
 21 44  1  0
 21 45  1  0
 23 46  1  0
 24 47  1  0
 25 48  1  0
 28 49  1  0
M  CHG  2   8  -1  20  -1
M  END
>  <UniqueID>  (28) 
27

>  <SMILES>  (28) 
O=C(Cn1c(Cl)c[n-]c(=NC[C@H]2CCCCN2)c1=O)[N-]Cc1cccc(Cl)c1

>  <Energy>  (28) 
61.434314734121045

>  <Genealogy>  (28) 
O=C(Cn1c(Cl)c[n-]c(=NCC2CCCCN2)c1=O)[N-]Cc1cccc(Cl)c1 (protonated)
O=C(Cn1c(Cl)c[n-]c(=NC[C@H]2CCCCN2)c1=O)[N-]Cc1cccc(Cl)c1 (chirality)
O=C(Cn1c(Cl)c[n-]c(=NC[C@H]2CCCCN2)c1=O)[N-]Cc1cccc(Cl)c1 (3D coordinates assigned)
O=C(Cn1c(Cl)c[n-]c(=NC[C@H]2CCCCN2)c1=O)[N-]Cc1cccc(Cl)c1 (nonaromatic ring conformer: 61.434314734121045 kcal/mol)

>  <smiles>  (28) 
O=C(Cn1c(Cl)c[nH]c(=NCC2CCCCN2)c1=O)NCc1cccc(Cl)c1

>  <score_type>  (28) 
oracle

>  <origin>  (28) 
adg

>  <m_score__min__energy>  (28) 
-11.98

>  <m_primary>  (28) 
energy

$$$$
28:0
     RDKit          3D

 30 30  0  0  0  0  0  0  0  0999 V2000
   55.5410   29.7080   44.1180 C   0  0  0  0  0  0  0  0  0  0  0  0
   56.8620   29.3910   44.7640 C   0  0  0  0  0  0  0  0  0  0  0  0
   57.9370   30.2880   44.6410 C   0  0  0  0  0  0  0  0  0  0  0  0
   59.1670   30.0010   45.2370 C   0  0  0  0  0  0  0  0  0  0  0  0
   59.3350   28.8240   45.9660 C   0  0  0  0  0  0  0  0  0  0  0  0
   58.2750   27.9230   46.0950 C   0  0  0  0  0  0  0  0  0  0  0  0
   57.0380   28.1870   45.4770 C   0  0  0  0  0  0  0  0  0  0  0  0
   55.9330   27.2810   45.6260 N   0  0  0  0  0  0  0  0  0  0  0  0
   56.0030   25.8490   45.6390 C   0  0  0  0  0  0  0  0  0  0  0  0
   55.1470   25.2060   46.3030 O   0  0  0  0  0  0  0  0  0  0  0  0
   57.0440   25.0980   44.8520 C   0  0  0  0  0  0  0  0  0  0  0  0
   56.4120   24.3480   43.6740 C   0  0  0  0  0  0  0  0  0  0  0  0
   56.5470   22.5790   43.8870 S   0  0  0  0  0  0  0  0  0  0  0  0
   58.1760   22.1400   44.4540 C   0  0  0  0  0  0  0  0  0  0  0  0
   56.2690   21.8860   42.5820 O   0  0  0  0  0  0  0  0  0  0  0  0
   55.5380   22.1320   44.9070 O   0  0  0  0  0  0  0  0  0  0  0  0
   54.7859   29.8892   44.8971 H   0  0  0  0  0  0  0  0  0  0  0  0
   55.6451   30.6067   43.4922 H   0  0  0  0  0  0  0  0  0  0  0  0
   55.2260   28.8600   43.4922 H   0  0  0  0  0  0  0  0  0  0  0  0
   57.8089   31.2209   44.0724 H   0  0  0  0  0  0  0  0  0  0  0  0
   60.0055   30.7051   45.1312 H   0  0  0  0  0  0  0  0  0  0  0  0
   60.3031   28.6048   46.4400 H   0  0  0  0  0  0  0  0  0  0  0  0
   58.4077   27.0026   46.6825 H   0  0  0  0  0  0  0  0  0  0  0  0
   57.7867   25.8118   44.4663 H   0  0  0  0  0  0  0  0  0  0  0  0
   57.5218   24.3637   45.5172 H   0  0  0  0  0  0  0  0  0  0  0  0
   55.3487   24.6208   43.6039 H   0  0  0  0  0  0  0  0  0  0  0  0
   56.9462   24.6299   42.7547 H   0  0  0  0  0  0  0  0  0  0  0  0
   58.1926   22.1355   45.5539 H   0  0  0  0  0  0  0  0  0  0  0  0
   58.4374   21.1394   44.0793 H   0  0  0  0  0  0  0  0  0  0  0  0
   58.9048   22.8738   44.0793 H   0  0  0  0  0  0  0  0  0  0  0  0
  1  2  1  0
  2  3  2  0
  3  4  1  0
  4  5  2  0
  5  6  1  0
  6  7  2  0
  7  8  1  0
  8  9  1  0
  9 10  2  0
  9 11  1  0
 11 12  1  0
 12 13  1  0
 13 14  1  0
 13 15  2  0
 13 16  2  0
  7  2  1  0
  1 17  1  0
  1 18  1  0
  1 19  1  0
  3 20  1  0
  4 21  1  0
  5 22  1  0
  6 23  1  0
 11 24  1  0
 11 25  1  0
 12 26  1  0
 12 27  1  0
 14 28  1  0
 14 29  1  0
 14 30  1  0
M  CHG  1   8  -1
M  END
>  <UniqueID>  (29) 
28

>  <SMILES>  (29) 
Cc1ccccc1[N-]C(=O)CCS(C)(=O)=O

>  <Energy>  (29) 
22.776412976143604

>  <Genealogy>  (29) 
Cc1ccccc1[N-]C(=O)CCS(C)(=O)=O (protonated)
Cc1ccccc1[N-]C(=O)CCS(C)(=O)=O (3D coordinates assigned)
Cc1ccccc1[N-]C(=O)CCS(C)(=O)=O (optimized conformer: 22.776412976143604 kcal/mol)

>  <smiles>  (29) 
Cc1ccccc1NC(=O)CCS(C)(=O)=O

>  <score_type>  (29) 
oracle

>  <origin>  (29) 
adg

>  <m_score__min__energy>  (29) 
-8.4800000000000004

>  <m_primary>  (29) 
energy

$$$$
29:0
     RDKit          3D

 27 28  0  0  0  0  0  0  0  0999 V2000
   56.2270   29.7440   44.3270 C   0  0  0  0  0  0  0  0  0  0  0  0
   56.9170   30.8150   43.4890 C   0  0  0  0  0  0  0  0  0  0  0  0
   57.7820   31.6930   44.3530 C   0  0  0  0  0  0  0  0  0  0  0  0
   57.8310   33.0780   44.1310 C   0  0  0  0  0  0  0  0  0  0  0  0
   58.6100   33.8980   44.9520 C   0  0  0  0  0  0  0  0  0  0  0  0
   59.3350   33.3500   46.0240 C   0  0  0  0  0  0  0  0  0  0  0  0
   60.1670   34.2300   46.8750 C   0  0  0  0  0  0  0  0  0  0  0  0
   59.7630   35.3980   47.1240 O   0  0  0  0  0  0  0  0  0  0  0  0
   61.4450   33.7780   47.4620 C   0  0  0  0  0  0  0  0  0  0  0  0
   62.5590   33.3510   46.7460 C   0  0  0  0  0  0  0  0  0  0  0  0
   63.6400   33.0440   47.5130 N   0  0  0  0  0  0  0  0  0  0  0  0
   63.4220   33.2290   48.8320 C   0  0  0  0  0  0  0  0  0  0  0  0
   61.8600   33.7900   49.0980 S   0  0  0  0  0  0  0  0  0  0  0  0
   59.2890   31.9620   46.2400 C   0  0  0  0  0  0  0  0  0  0  0  0
   58.5110   31.1420   45.4180 C   0  0  0  0  0  0  0  0  0  0  0  0
   56.3698   29.9656   45.3950 H   0  0  0  0  0  0  0  0  0  0  0  0
   55.1517   29.7334   44.0953 H   0  0  0  0  0  0  0  0  0  0  0  0
   56.6618   28.7605   44.0953 H   0  0  0  0  0  0  0  0  0  0  0  0
   57.5438   30.3287   42.7270 H   0  0  0  0  0  0  0  0  0  0  0  0
   56.1478   31.4387   43.0101 H   0  0  0  0  0  0  0  0  0  0  0  0
   57.2531   33.5205   43.3063 H   0  0  0  0  0  0  0  0  0  0  0  0
   58.6560   34.9797   44.7578 H   0  0  0  0  0  0  0  0  0  0  0  0
   62.5652   33.2684   45.6491 H   0  0  0  0  0  0  0  0  0  0  0  0
   64.5460   32.7070   47.1200 H   0  0  0  0  0  0  0  0  0  0  0  0
   64.1630   33.0392   49.6225 H   0  0  0  0  0  0  0  0  0  0  0  0
   59.8695   31.5178   47.0620 H   0  0  0  0  0  0  0  0  0  0  0  0
   58.4699   30.0591   45.6068 H   0  0  0  0  0  0  0  0  0  0  0  0
  1  2  1  0
  2  3  1  0
  3  4  2  0
  4  5  1  0
  5  6  2  0
  6  7  1  0
  7  8  2  0
  7  9  1  0
  9 10  2  0
 10 11  1  0
 11 12  2  0
 12 13  1  0
  6 14  1  0
 14 15  2  0
 15  3  1  0
 13  9  1  0
  1 16  1  0
  1 17  1  0
  1 18  1  0
  2 19  1  0
  2 20  1  0
  4 21  1  0
  5 22  1  0
 10 23  1  0
 11 24  1  0
 12 25  1  0
 14 26  1  0
 15 27  1  0
M  CHG  1  11   1
M  END
>  <UniqueID>  (30) 
29

>  <SMILES>  (30) 
CCc1ccc(C(=O)c2c[nH+]cs2)cc1

>  <Energy>  (30) 
57.62993169829611

>  <Genealogy>  (30) 
CCc1ccc(C(=O)c2c[nH+]cs2)cc1 (protonated)
CCc1ccc(C(=O)c2c[nH+]cs2)cc1 (3D coordinates assigned)
CCc1ccc(C(=O)c2c[nH+]cs2)cc1 (optimized conformer: 57.62993169829611 kcal/mol)

>  <smiles>  (30) 
CCc1ccc(C(=O)c2cncs2)cc1

>  <score_type>  (30) 
oracle

>  <origin>  (30) 
adg

>  <m_score__min__energy>  (30) 
-5.1399999999999997

>  <m_primary>  (30) 
energy

$$$$
30:0
     RDKit          3D

 41 43  0  0  0  0  0  0  0  0999 V2000
   53.2398   23.7458   44.5308 H   0  0  0  0  0  0  0  0  0  0  0  0
   54.2870   24.0770   44.5910 C   0  0  0  0  0  0  0  0  0  0  0  0
   54.6990   24.8410   45.6370 N   0  0  0  0  0  0  0  0  0  0  0  0
   55.9840   25.2720   45.7620 C   0  0  0  0  0  0  0  0  0  0  0  0
   56.2900   26.0120   46.7900 N   0  0  0  0  0  0  0  0  0  0  0  0
   57.6280   26.3180   47.3020 C   0  0  0  0  0  0  0  0  0  0  0  0
   58.2743   25.4389   47.1625 H   0  0  0  0  0  0  0  0  0  0  0  0
   57.5407   26.5729   48.3685 H   0  0  0  0  0  0  0  0  0  0  0  0
   58.2380   27.4960   46.5800 C   0  0  0  0  0  0  0  0  0  0  0  0
   57.4190   28.3300   45.7990 C   0  0  0  0  0  0  0  0  0  0  0  0
   56.3560   28.0797   45.6674 H   0  0  0  0  0  0  0  0  0  0  0  0
   57.9430   29.4790   45.1850 C   0  0  0  0  0  0  0  0  0  0  0  0
   57.0960   30.3930   44.4730 N   0  0  0  0  0  0  0  0  0  0  0  0
   56.6580   31.5080   44.9200 N   0  0  0  0  0  0  0  0  0  0  0  0
   57.4680   32.6130   45.3520 C   0  0  0  0  0  0  0  0  0  0  0  0
   58.0400   33.5040   44.4270 C   0  0  0  0  0  0  0  0  0  0  0  0
   57.8171   33.4002   43.3548 H   0  0  0  0  0  0  0  0  0  0  0  0
   58.8910   34.5210   44.8670 C   0  0  0  0  0  0  0  0  0  0  0  0
   59.3312   35.2207   44.1413 H   0  0  0  0  0  0  0  0  0  0  0  0
   59.1840   34.6510   46.2270 C   0  0  0  0  0  0  0  0  0  0  0  0
   59.8475   35.4577   46.5720 H   0  0  0  0  0  0  0  0  0  0  0  0
   58.6340   33.7560   47.1490 C   0  0  0  0  0  0  0  0  0  0  0  0
   58.9290   33.8750   48.4680 F   0  0  0  0  0  0  0  0  0  0  0  0
   57.7900   32.7310   46.7110 C   0  0  0  0  0  0  0  0  0  0  0  0
   57.3770   32.0142   47.4360 H   0  0  0  0  0  0  0  0  0  0  0  0
   59.2860   29.8080   45.3790 C   0  0  0  0  0  0  0  0  0  0  0  0
   59.6959   30.7208   44.9220 H   0  0  0  0  0  0  0  0  0  0  0  0
   60.1120   28.9880   46.1480 C   0  0  0  0  0  0  0  0  0  0  0  0
   61.1742   29.2458   46.2718 H   0  0  0  0  0  0  0  0  0  0  0  0
   59.5970   27.8330   46.7670 C   0  0  0  0  0  0  0  0  0  0  0  0
   60.3970   27.0140   47.5800 O   0  0  0  0  0  0  0  0  0  0  0  0
   60.6420   27.2390   48.9650 C   0  0  0  0  0  0  0  0  0  0  0  0
   59.9623   26.6148   49.5637 H   0  0  0  0  0  0  0  0  0  0  0  0
   61.6839   26.9765   49.2004 H   0  0  0  0  0  0  0  0  0  0  0  0
   60.4689   28.2995   49.2004 H   0  0  0  0  0  0  0  0  0  0  0  0
   56.9260   24.9140   44.7760 C   0  0  0  0  0  0  0  0  0  0  0  0
   57.9725   25.2418   44.8620 H   0  0  0  0  0  0  0  0  0  0  0  0
   56.5160   24.1380   43.6880 C   0  0  0  0  0  0  0  0  0  0  0  0
   57.2386   23.8627   42.9057 H   0  0  0  0  0  0  0  0  0  0  0  0
   55.1920   23.7130   43.5940 C   0  0  0  0  0  0  0  0  0  0  0  0
   54.7870   22.9570   42.5440 F   0  0  0  0  0  0  0  0  0  0  0  0
  1  2  1  0
  2  3  1  0
  3  4  1  0
  4  5  2  0
  5  6  1  0
  6  7  1  0
  6  8  1  0
  6  9  1  0
  9 10  2  0
 10 11  1  0
 10 12  1  0
 12 13  1  0
 13 14  2  0
 14 15  1  0
 15 16  2  0
 16 17  1  0
 16 18  1  0
 18 19  1  0
 18 20  2  0
 20 21  1  0
 20 22  1  0
 22 23  1  0
 22 24  2  0
 24 25  1  0
 12 26  2  0
 26 27  1  0
 26 28  1  0
 28 29  1  0
 28 30  2  0
 30 31  1  0
 31 32  1  0
 32 33  1  0
 32 34  1  0
 32 35  1  0
  4 36  1  0
 36 37  1  0
 36 38  2  0
 38 39  1  0
 38 40  1  0
 40 41  1  0
 40  2  2  0
 30  9  1  0
 24 15  1  0
M  CHG  1   3  -1
M  END
>  <UniqueID>  (31) 
30

>  <SMILES>  (31) 
COc1ccc(/N=N\c2cccc(F)c2)cc1C/N=c1\ccc(F)c[n-]1

>  <Energy>  (31) 
57.39292636313023

>  <Genealogy>  (31) 
COc1ccc(N=Nc2cccc(F)c2)cc1CN=c1ccc(F)c[n-]1 (protonated)
COc1ccc(/N=N\c2cccc(F)c2)cc1C/N=c1\ccc(F)c[n-]1 (cis-trans isomerization)
COc1ccc(/N=N\c2cccc(F)c2)cc1C/N=c1\ccc(F)c[n-]1 (3D coordinates assigned)
COc1ccc(/N=N\c2cccc(F)c2)cc1C/N=c1\ccc(F)c[n-]1 (optimized conformer: 57.39292636313023 kcal/mol)

>  <smiles>  (31) 
COc1ccc(N=Nc2cccc(F)c2)cc1CN=c1ccc(F)c[nH]1

>  <score_type>  (31) 
oracle

>  <origin>  (31) 
adg

>  <m_score__min__energy>  (31) 
-9.5700000000000003

>  <m_primary>  (31) 
energy

$$$$
31:0
     RDKit          3D

 36 38  0  0  1  0  0  0  0  0999 V2000
   63.7330   33.9610   50.4510 N   0  0  0  0  0  0  0  0  0  0  0  0
   63.3520   33.7460   49.2530 C   0  0  0  0  0  0  0  0  0  0  0  0
   64.2150   33.2570   48.3560 N   0  0  0  0  0  0  0  0  0  0  0  0
   63.8520   33.0220   47.1010 C   0  0  0  0  0  0  0  0  0  0  0  0
   62.5960   33.2800   46.7270 N   0  0  0  0  0  0  0  0  0  0  0  0
   61.6850   33.7690   47.5710 C   0  0  0  0  0  0  0  0  0  0  0  0
   62.0600   34.0120   48.8670 C   0  0  0  0  0  0  0  0  0  0  0  0
   60.9670   34.4920   49.4840 N   0  0  0  0  0  0  0  0  0  0  0  0
   59.9610   34.5370   48.5860 C   0  0  0  0  0  0  0  0  0  0  0  0
   60.3870   34.0920   47.3920 N   0  0  0  0  0  0  0  0  0  0  0  0
   59.6620   33.9620   46.1430 C   0  0  2  0  0  0  0  0  0  0  0  0
   58.2070   34.2220   46.4460 C   0  0  0  0  0  0  0  0  0  0  0  0
   57.5380   33.3520   45.4100 C   0  0  2  0  0  0  0  0  0  0  0  0
   56.2740   32.9390   45.7500 O   0  0  0  0  0  0  0  0  0  0  0  0
   58.5200   32.1840   45.3810 C   0  0  1  0  0  0  0  0  0  0  0  0
   58.3750   31.5600   43.9880 C   0  0  0  0  0  0  0  0  0  0  0  0
   57.0700   31.4420   43.5810 O   0  0  0  0  0  0  0  0  0  0  0  0
   56.5250   29.9240   44.1090 S   0  0  0  0  0  0  0  0  0  0  0  0
   57.3690   28.6370   43.3480 N   0  0  0  0  0  0  0  0  0  0  0  0
   55.0650   29.7370   43.7750 O   0  0  0  0  0  0  0  0  0  0  0  0
   56.6470   29.8360   45.6010 O   0  0  0  0  0  0  0  0  0  0  0  0
   59.7650   32.7090   45.5690 O   0  0  0  0  0  0  0  0  0  0  0  0
   63.0630   34.2760   51.1650 H   0  0  0  0  0  0  0  0  0  0  0  0
   65.2010   33.0500   48.6340 H   0  0  0  0  0  0  0  0  0  0  0  0
   64.5767   32.6197   46.3779 H   0  0  0  0  0  0  0  0  0  0  0  0
   58.9405   34.8871   48.8003 H   0  0  0  0  0  0  0  0  0  0  0  0
   60.0938   34.6761   45.4264 H   0  0  0  0  0  0  0  0  0  0  0  0
   57.9446   33.9086   47.4673 H   0  0  0  0  0  0  0  0  0  0  0  0
   57.9172   35.2823   46.4038 H   0  0  0  0  0  0  0  0  0  0  0  0
   57.3645   33.8645   44.4523 H   0  0  0  0  0  0  0  0  0  0  0  0
   56.2270   31.9670   45.5690 H   0  0  0  0  0  0  0  0  0  0  0  0
   58.3407   31.4210   46.1528 H   0  0  0  0  0  0  0  0  0  0  0  0
   58.9109   32.1919   43.2645 H   0  0  0  0  0  0  0  0  0  0  0  0
   58.7940   30.5442   44.0400 H   0  0  0  0  0  0  0  0  0  0  0  0
   58.0950   28.9660   42.6800 H   0  0  0  0  0  0  0  0  0  0  0  0
   56.7590   27.9080   42.9550 H   0  0  0  0  0  0  0  0  0  0  0  0
  1  2  2  3
  2  3  1  0
  3  4  1  0
  4  5  2  0
  5  6  1  0
  6  7  2  0
  7  8  1  0
  8  9  2  0
  9 10  1  0
 10 11  1  0
 11 12  1  0
 12 13  1  0
 13 14  1  0
 13 15  1  0
 15 16  1  0
 16 17  1  0
 17 18  1  0
 18 19  1  0
 18 20  2  0
 18 21  2  0
 15 22  1  0
  7  2  1  0
 22 11  1  0
 10  6  1  0
  1 23  1  0
  3 24  1  0
  4 25  1  0
  9 26  1  0
 11 27  1  6
 12 28  1  0
 12 29  1  0
 13 30  1  6
 14 31  1  0
 15 32  1  1
 16 33  1  0
 16 34  1  0
 19 35  1  0
 19 36  1  0
M  END
>  <smiles>  (32) 
N=c1[nH]cnc2c1ncn2C1CC(O)C(COS(N)(=O)=O)O1

>  <score_type>  (32) 
oracle

>  <origin>  (32) 
adg

>  <m_score__min__energy>  (32) 
-7.7000000000000002

>  <m_primary>  (32) 
energy

$$$$
32:0
     RDKit          3D

 66 69  0  0  0  0  0  0  0  0999 V2000
   58.1270   27.3050   43.3500 C   0  0  0  0  0  0  0  0  0  0  0  0
   57.8560   26.9760   44.7640 N   0  0  0  0  0  0  0  0  0  0  0  0
   57.8930   25.5930   44.8380 C   0  0  0  0  0  0  0  0  0  0  0  0
   56.7420   24.7700   45.1930 C   0  0  0  0  0  0  0  0  0  0  0  0
   56.8280   23.3670   45.1190 C   0  0  0  0  0  0  0  0  0  0  0  0
   55.7690   22.5510   45.4320 C   0  0  0  0  0  0  0  0  0  0  0  0
   55.9320   20.6540   45.3170 Br  0  0  0  0  0  0  0  0  0  0  0  0
   54.5620   23.0630   45.8370 C   0  0  0  0  0  0  0  0  0  0  0  0
   54.4470   24.4290   45.9200 C   0  0  0  0  0  0  0  0  0  0  0  0
   55.5120   25.2470   45.6050 C   0  0  0  0  0  0  0  0  0  0  0  0
   55.3050   26.6130   45.7200 O   0  0  0  0  0  0  0  0  0  0  0  0
   58.4260   27.8900   45.6480 C   0  0  0  0  0  0  0  0  0  0  0  0
   59.9320   27.8590   45.6050 C   0  0  0  0  0  0  0  0  0  0  0  0
   58.0470   27.4520   47.0800 C   0  0  0  0  0  0  0  0  0  0  0  0
   57.8980   29.2670   45.5470 C   0  0  0  0  0  0  0  0  0  0  0  0
   56.6530   29.3700   45.2790 O   0  0  0  0  0  0  0  0  0  0  0  0
   58.6050   30.4670   45.7110 N   0  0  0  0  0  0  0  0  0  0  0  0
   57.8530   31.7060   45.5590 C   0  0  0  0  0  0  0  0  0  0  0  0
   57.9600   32.6510   46.7070 C   0  0  0  0  0  0  0  0  0  0  0  0
   59.1250   32.3390   47.4840 N   0  0  0  0  0  0  0  0  0  0  0  0
   59.2150   32.4240   48.8940 C   0  0  0  0  0  0  0  0  0  0  0  0
   58.0760   32.2530   49.6070 N   0  0  0  0  0  0  0  0  0  0  0  0
   58.0720   32.3130   50.9540 C   0  0  0  0  0  0  0  0  0  0  0  0
   59.2070   32.5470   51.6650 N   0  0  0  0  0  0  0  0  0  0  0  0
   60.3720   32.7240   50.9760 C   0  0  0  0  0  0  0  0  0  0  0  0
   61.4340   32.9440   51.6630 N   0  0  0  0  0  0  0  0  0  0  0  0
   60.3800   32.6620   49.5860 C   0  0  0  0  0  0  0  0  0  0  0  0
   61.6340   32.8600   48.8770 C   0  0  0  0  0  0  0  0  0  0  0  0
   62.5610   31.8120   48.9120 C   0  0  0  0  0  0  0  0  0  0  0  0
   63.7660   31.9830   48.2390 C   0  0  0  0  0  0  0  0  0  0  0  0
   64.0100   33.1730   47.5640 C   0  0  0  0  0  0  0  0  0  0  0  0
   63.0950   34.2060   47.5290 C   0  0  0  0  0  0  0  0  0  0  0  0
   61.8920   34.0340   48.2000 C   0  0  0  0  0  0  0  0  0  0  0  0
   60.3080   31.8890   46.7550 C   0  0  0  0  0  0  0  0  0  0  0  0
   60.0080   30.6000   46.0110 C   0  0  0  0  0  0  0  0  0  0  0  0
   58.8256   28.1531   43.2983 H   0  0  0  0  0  0  0  0  0  0  0  0
   58.5719   26.4324   42.8493 H   0  0  0  0  0  0  0  0  0  0  0  0
   57.1854   27.5745   42.8493 H   0  0  0  0  0  0  0  0  0  0  0  0
   58.2124   25.2482   43.8435 H   0  0  0  0  0  0  0  0  0  0  0  0
   58.5388   25.4447   45.7160 H   0  0  0  0  0  0  0  0  0  0  0  0
   57.7757   22.9088   44.7996 H   0  0  0  0  0  0  0  0  0  0  0  0
   53.7176   22.4035   46.0860 H   0  0  0  0  0  0  0  0  0  0  0  0
   53.4946   24.8759   46.2414 H   0  0  0  0  0  0  0  0  0  0  0  0
   55.8900   27.3030   45.2680 H   0  0  0  0  0  0  0  0  0  0  0  0
   60.3280   27.8508   46.6312 H   0  0  0  0  0  0  0  0  0  0  0  0
   60.2652   26.9538   45.0762 H   0  0  0  0  0  0  0  0  0  0  0  0
   60.3021   28.7497   45.0762 H   0  0  0  0  0  0  0  0  0  0  0  0
   58.5861   28.0751   47.8088 H   0  0  0  0  0  0  0  0  0  0  0  0
   56.9633   27.5722   47.2255 H   0  0  0  0  0  0  0  0  0  0  0  0
   58.3217   26.3968   47.2255 H   0  0  0  0  0  0  0  0  0  0  0  0
   58.2199   32.2199   44.6583 H   0  0  0  0  0  0  0  0  0  0  0  0
   56.7934   31.4175   45.4951 H   0  0  0  0  0  0  0  0  0  0  0  0
   58.0389   33.6803   46.3270 H   0  0  0  0  0  0  0  0  0  0  0  0
   57.0649   32.5580   47.3396 H   0  0  0  0  0  0  0  0  0  0  0  0
   57.1239   32.1686   51.4927 H   0  0  0  0  0  0  0  0  0  0  0  0
   59.2210   32.5950   52.6980 H   0  0  0  0  0  0  0  0  0  0  0  0
   62.1800   32.2210   51.6860 H   0  0  0  0  0  0  0  0  0  0  0  0
   62.3430   30.8809   49.4556 H   0  0  0  0  0  0  0  0  0  0  0  0
   64.5203   31.1823   48.2410 H   0  0  0  0  0  0  0  0  0  0  0  0
   64.9681   33.2964   47.0379 H   0  0  0  0  0  0  0  0  0  0  0  0
   63.3126   35.1374   46.9858 H   0  0  0  0  0  0  0  0  0  0  0  0
   61.1409   34.8376   48.1919 H   0  0  0  0  0  0  0  0  0  0  0  0
   60.6064   32.6638   46.0334 H   0  0  0  0  0  0  0  0  0  0  0  0
   61.1231   31.7081   47.4712 H   0  0  0  0  0  0  0  0  0  0  0  0
   60.5754   30.5930   45.0687 H   0  0  0  0  0  0  0  0  0  0  0  0
   60.3001   29.7582   46.6560 H   0  0  0  0  0  0  0  0  0  0  0  0
  1  2  1  0
  2  3  1  0
  3  4  1  0
  4  5  2  0
  5  6  1  0
  6  7  1  0
  6  8  2  0
  8  9  1  0
  9 10  2  0
 10 11  1  0
  2 12  1  0
 12 13  1  0
 12 14  1  0
 12 15  1  0
 15 16  2  0
 15 17  1  0
 17 18  1  0
 18 19  1  0
 19 20  1  0
 20 21  1  0
 21 22  1  0
 22 23  2  0
 23 24  1  0
 24 25  1  0
 25 26  2  3
 25 27  1  0
 27 28  1  0
 28 29  2  0
 29 30  1  0
 30 31  2  0
 31 32  1  0
 32 33  2  0
 20 34  1  0
 34 35  1  0
 10  4  1  0
 35 17  1  0
 27 21  2  0
 33 28  1  0
  1 36  1  0
  1 37  1  0
  1 38  1  0
  3 39  1  0
  3 40  1  0
  5 41  1  0
  8 42  1  0
  9 43  1  0
 11 44  1  0
 13 45  1  0
 13 46  1  0
 13 47  1  0
 14 48  1  0
 14 49  1  0
 14 50  1  0
 18 51  1  0
 18 52  1  0
 19 53  1  0
 19 54  1  0
 23 55  1  0
 24 56  1  0
 26 57  1  0
 29 58  1  0
 30 59  1  0
 31 60  1  0
 32 61  1  0
 33 62  1  0
 34 63  1  0
 34 64  1  0
 35 65  1  0
 35 66  1  0
M  END
>  <smiles>  (33) 
CN(Cc1cc(Br)ccc1O)C(C)(C)C(=O)N1CCN(c2nc[nH]c(=N)c2-c2ccccc2)CC1

>  <score_type>  (33) 
oracle

>  <origin>  (33) 
adg

>  <m_score__min__energy>  (33) 
-8.7400000000000002

>  <m_primary>  (33) 
energy

$$$$
33:0
     RDKit          3D

 41 43  0  0  0  0  0  0  0  0999 V2000
   65.9600   32.3700   50.6610 C   0  0  0  0  0  0  0  0  0  0  0  0
   64.7780   33.0960   50.1040 C   0  0  0  0  0  0  0  0  0  0  0  0
   64.2990   34.0740   50.7380 O   0  0  0  0  0  0  0  0  0  0  0  0
   64.2630   32.7340   48.8130 N   0  0  0  0  0  0  0  0  0  0  0  0
   63.0310   33.2380   48.2660 C   0  0  0  0  0  0  0  0  0  0  0  0
   62.0370   33.7980   49.0890 C   0  0  0  0  0  0  0  0  0  0  0  0
   60.8400   34.2600   48.5340 C   0  0  0  0  0  0  0  0  0  0  0  0
   60.6100   34.1540   47.1550 C   0  0  0  0  0  0  0  0  0  0  0  0
   59.3260   34.6760   46.5630 C   0  0  0  0  0  0  0  0  0  0  0  0
   58.1580   33.9390   47.0970 N   0  0  0  0  0  0  0  0  0  0  0  0
   57.0290   33.8380   46.1450 C   0  0  0  0  0  0  0  0  0  0  0  0
   57.3720   33.0060   44.8990 C   0  0  0  0  0  0  0  0  0  0  0  0
   58.1710   31.7720   45.2280 C   0  0  0  0  0  0  0  0  0  0  0  0
   58.3770   30.8050   44.2310 C   0  0  0  0  0  0  0  0  0  0  0  0
   59.1560   29.6750   44.4940 C   0  0  0  0  0  0  0  0  0  0  0  0
   59.7390   29.5030   45.7500 C   0  0  0  0  0  0  0  0  0  0  0  0
   59.5490   30.4630   46.7480 C   0  0  0  0  0  0  0  0  0  0  0  0
   58.7810   31.6100   46.4910 C   0  0  0  0  0  0  0  0  0  0  0  0
   58.5340   32.6030   47.6010 C   0  0  0  0  0  0  0  0  0  0  0  0
   61.5930   33.5790   46.3360 C   0  0  0  0  0  0  0  0  0  0  0  0
   62.7890   33.1170   46.8900 C   0  0  0  0  0  0  0  0  0  0  0  0
   65.9206   32.3942   51.7600 H   0  0  0  0  0  0  0  0  0  0  0  0
   65.9445   31.3255   50.3164 H   0  0  0  0  0  0  0  0  0  0  0  0
   66.8846   32.8561   50.3164 H   0  0  0  0  0  0  0  0  0  0  0  0
   64.8620   32.1340   48.2030 H   0  0  0  0  0  0  0  0  0  0  0  0
   62.2023   33.8727   50.1739 H   0  0  0  0  0  0  0  0  0  0  0  0
   60.0740   34.7094   49.1831 H   0  0  0  0  0  0  0  0  0  0  0  0
   59.2227   35.7426   46.8114 H   0  0  0  0  0  0  0  0  0  0  0  0
   59.3603   34.5362   45.4725 H   0  0  0  0  0  0  0  0  0  0  0  0
   56.1777   33.3672   46.6584 H   0  0  0  0  0  0  0  0  0  0  0  0
   56.7894   34.8569   45.8067 H   0  0  0  0  0  0  0  0  0  0  0  0
   56.4349   32.6993   44.4113 H   0  0  0  0  0  0  0  0  0  0  0  0
   57.9868   33.6344   44.2378 H   0  0  0  0  0  0  0  0  0  0  0  0
   57.9229   30.9376   43.2379 H   0  0  0  0  0  0  0  0  0  0  0  0
   59.3099   28.9196   43.7093 H   0  0  0  0  0  0  0  0  0  0  0  0
   60.3489   28.6108   45.9550 H   0  0  0  0  0  0  0  0  0  0  0  0
   60.0033   30.3192   47.7394 H   0  0  0  0  0  0  0  0  0  0  0  0
   57.7200   32.2248   48.2369 H   0  0  0  0  0  0  0  0  0  0  0  0
   59.4726   32.7123   48.1641 H   0  0  0  0  0  0  0  0  0  0  0  0
   61.4212   33.4916   45.2530 H   0  0  0  0  0  0  0  0  0  0  0  0
   63.5475   32.6543   46.2415 H   0  0  0  0  0  0  0  0  0  0  0  0
  1  2  1  0
  2  3  2  0
  2  4  1  0
  4  5  1  0
  5  6  2  0
  6  7  1  0
  7  8  2  0
  8  9  1  0
  9 10  1  0
 10 11  1  0
 11 12  1  0
 12 13  1  0
 13 14  2  0
 14 15  1  0
 15 16  2  0
 16 17  1  0
 17 18  2  0
 18 19  1  0
  8 20  1  0
 20 21  2  0
 21  5  1  0
 19 10  1  0
 18 13  1  0
  1 22  1  0
  1 23  1  0
  1 24  1  0
  4 25  1  0
  6 26  1  0
  7 27  1  0
  9 28  1  0
  9 29  1  0
 11 30  1  0
 11 31  1  0
 12 32  1  0
 12 33  1  0
 14 34  1  0
 15 35  1  0
 16 36  1  0
 17 37  1  0
 19 38  1  0
 19 39  1  0
 20 40  1  0
 21 41  1  0
M  END
>  <UniqueID>  (34) 
31

>  <SMILES>  (34) 
CC(=O)Nc1ccc(CN2CCc3ccccc3C2)cc1

>  <Energy>  (34) 
49.92641045191558

>  <Genealogy>  (34) 
CC(=O)Nc1ccc(CN2CCc3ccccc3C2)cc1 (3D coordinates assigned)
CC(=O)Nc1ccc(CN2CCc3ccccc3C2)cc1 (nonaromatic ring conformer: 49.92641045191558 kcal/mol)

>  <smiles>  (34) 
CC(=O)Nc1ccc(CN2CCc3ccccc3C2)cc1

>  <score_type>  (34) 
oracle

>  <origin>  (34) 
adg

>  <m_score__min__energy>  (34) 
-7.3799999999999999

>  <m_primary>  (34) 
energy

$$$$
34:0
     RDKit          3D

 35 35  0  0  0  0  0  0  0  0999 V2000
   60.0850   28.4510   45.2020 C   0  0  0  0  0  0  0  0  0  0  0  0
   59.2060   29.6270   44.7610 C   0  0  0  0  0  0  0  0  0  0  0  0
   58.0000   29.1810   44.0250 N   0  0  0  0  0  0  0  0  0  0  0  0
   57.8990   27.7040   44.0590 C   0  0  0  0  0  0  0  0  0  0  0  0
   58.1350   27.0740   42.6810 C   0  0  0  0  0  0  0  0  0  0  0  0
   56.8130   29.7840   44.5890 C   0  0  0  0  0  0  0  0  0  0  0  0
   55.9750   29.0610   45.1960 O   0  0  0  0  0  0  0  0  0  0  0  0
   56.6120   31.2040   44.5030 N   0  0  0  0  0  0  0  0  0  0  0  0
   57.5050   32.2170   44.9860 C   0  0  0  0  0  0  0  0  0  0  0  0
   57.9830   33.1730   44.0860 C   0  0  0  0  0  0  0  0  0  0  0  0
   58.8370   34.1870   44.5220 C   0  0  0  0  0  0  0  0  0  0  0  0
   59.2090   34.2650   45.8650 C   0  0  0  0  0  0  0  0  0  0  0  0
   58.7180   33.3300   46.7980 C   0  0  0  0  0  0  0  0  0  0  0  0
   59.0880   33.4090   48.2380 C   0  0  0  0  0  0  0  0  0  0  0  0
   60.1820   34.3100   48.7270 C   0  0  0  0  0  0  0  0  0  0  0  0
   58.4720   32.7030   49.0820 O   0  0  0  0  0  0  0  0  0  0  0  0
   57.8580   32.3110   46.3450 C   0  0  0  0  0  0  0  0  0  0  0  0
   60.1166   28.4087   46.3007 H   0  0  0  0  0  0  0  0  0  0  0  0
   59.6652   27.5125   44.8109 H   0  0  0  0  0  0  0  0  0  0  0  0
   61.1039   28.5879   44.8109 H   0  0  0  0  0  0  0  0  0  0  0  0
   58.8892   30.1864   45.6536 H   0  0  0  0  0  0  0  0  0  0  0  0
   59.8009   30.2568   44.0831 H   0  0  0  0  0  0  0  0  0  0  0  0
   58.1020   29.4780   43.0250 H   0  0  0  0  0  0  0  0  0  0  0  0
   58.6514   27.3138   44.7602 H   0  0  0  0  0  0  0  0  0  0  0  0
   56.8793   27.4431   44.3788 H   0  0  0  0  0  0  0  0  0  0  0  0
   58.5184   26.0506   42.8065 H   0  0  0  0  0  0  0  0  0  0  0  0
   57.1869   27.0447   42.1240 H   0  0  0  0  0  0  0  0  0  0  0  0
   58.8690   27.6748   42.1240 H   0  0  0  0  0  0  0  0  0  0  0  0
   57.6846   33.1261   43.0283 H   0  0  0  0  0  0  0  0  0  0  0  0
   59.2186   34.9280   43.8041 H   0  0  0  0  0  0  0  0  0  0  0  0
   59.8903   35.0620   46.1975 H   0  0  0  0  0  0  0  0  0  0  0  0
   60.1884   34.3153   49.8270 H   0  0  0  0  0  0  0  0  0  0  0  0
   61.1511   33.9446   48.3564 H   0  0  0  0  0  0  0  0  0  0  0  0
   60.0091   35.3312   48.3564 H   0  0  0  0  0  0  0  0  0  0  0  0
   57.4573   31.5796   47.0622 H   0  0  0  0  0  0  0  0  0  0  0  0
  1  2  1  0
  2  3  1  0
  3  4  1  0
  4  5  1  0
  3  6  1  0
  6  7  2  0
  6  8  1  0
  8  9  1  0
  9 10  2  0
 10 11  1  0
 11 12  2  0
 12 13  1  0
 13 14  1  0
 14 15  1  0
 14 16  2  0
 13 17  2  0
 17  9  1  0
  1 18  1  0
  1 19  1  0
  1 20  1  0
  2 21  1  0
  2 22  1  0
  3 23  1  0
  4 24  1  0
  4 25  1  0
  5 26  1  0
  5 27  1  0
  5 28  1  0
 10 29  1  0
 11 30  1  0
 12 31  1  0
 15 32  1  0
 15 33  1  0
 15 34  1  0
 17 35  1  0
M  CHG  2   3   1   8  -1
M  END
>  <UniqueID>  (35) 
32

>  <SMILES>  (35) 
CC[NH+](CC)C(=O)[N-]c1cccc(C(C)=O)c1

>  <Energy>  (35) 
35.02236554388293

>  <Genealogy>  (35) 
CC[NH+](CC)C(=O)[N-]c1cccc(C(C)=O)c1 (protonated)
CC[NH+](CC)C(=O)[N-]c1cccc(C(C)=O)c1 (3D coordinates assigned)
CC[NH+](CC)C(=O)[N-]c1cccc(C(C)=O)c1 (optimized conformer: 35.02236554388293 kcal/mol)

>  <smiles>  (35) 
CCN(CC)C(=O)Nc1cccc(C(C)=O)c1

>  <score_type>  (35) 
oracle

>  <origin>  (35) 
adg

>  <m_score__min__energy>  (35) 
-6.4100000000000001

>  <m_primary>  (35) 
energy

$$$$
35:0
     RDKit          3D

 24 24  0  0  0  0  0  0  0  0999 V2000
   56.6380   29.0180   42.6020 N   0  0  0  0  0  0  0  0  0  0  0  0
   56.3780   30.1320   43.5150 C   0  0  0  0  0  0  0  0  0  0  0  0
   57.6770   30.7740   44.0310 C   0  0  0  0  0  0  0  0  0  0  0  0
   57.7960   32.2550   43.6480 C   0  0  0  0  0  0  0  0  0  0  0  0
   58.2170   33.0760   44.8380 C   0  0  0  0  0  0  0  0  0  0  0  0
   57.7820   32.7270   46.1270 C   0  0  0  0  0  0  0  0  0  0  0  0
   58.2000   33.4720   47.2360 C   0  0  0  0  0  0  0  0  0  0  0  0
   59.0610   34.5590   47.0660 C   0  0  0  0  0  0  0  0  0  0  0  0
   59.5090   34.9030   45.7870 C   0  0  0  0  0  0  0  0  0  0  0  0
   59.0940   34.1620   44.6760 C   0  0  0  0  0  0  0  0  0  0  0  0
   57.5780   29.1220   42.1580 H   0  0  0  0  0  0  0  0  0  0  0  0
   55.8970   28.9700   41.8650 H   0  0  0  0  0  0  0  0  0  0  0  0
   56.6280   28.1250   43.1460 H   0  0  0  0  0  0  0  0  0  0  0  0
   55.7916   30.8962   42.9838 H   0  0  0  0  0  0  0  0  0  0  0  0
   55.8281   29.7374   44.3821 H   0  0  0  0  0  0  0  0  0  0  0  0
   57.6996   30.6908   45.1276 H   0  0  0  0  0  0  0  0  0  0  0  0
   58.5195   30.2410   43.5661 H   0  0  0  0  0  0  0  0  0  0  0  0
   58.5455   32.3634   42.8502 H   0  0  0  0  0  0  0  0  0  0  0  0
   56.8158   32.6117   43.2989 H   0  0  0  0  0  0  0  0  0  0  0  0
   57.1113   31.8662   46.2654 H   0  0  0  0  0  0  0  0  0  0  0  0
   57.8499   33.2011   48.2430 H   0  0  0  0  0  0  0  0  0  0  0  0
   59.3865   35.1443   47.9386 H   0  0  0  0  0  0  0  0  0  0  0  0
   60.1888   35.7576   45.6545 H   0  0  0  0  0  0  0  0  0  0  0  0
   59.4552   34.4301   43.6722 H   0  0  0  0  0  0  0  0  0  0  0  0
  1  2  1  0
  2  3  1  0
  3  4  1  0
  4  5  1  0
  5  6  2  0
  6  7  1  0
  7  8  2  0
  8  9  1  0
  9 10  2  0
 10  5  1  0
  1 11  1  0
  1 12  1  0
  1 13  1  0
  2 14  1  0
  2 15  1  0
  3 16  1  0
  3 17  1  0
  4 18  1  0
  4 19  1  0
  6 20  1  0
  7 21  1  0
  8 22  1  0
  9 23  1  0
 10 24  1  0
M  CHG  1   1   1
M  END
>  <UniqueID>  (36) 
33

>  <SMILES>  (36) 
[NH3+]CCCc1ccccc1

>  <Energy>  (36) 
16.867226280455768

>  <Genealogy>  (36) 
[NH3+]CCCc1ccccc1 (protonated)
[NH3+]CCCc1ccccc1 (3D coordinates assigned)
[NH3+]CCCc1ccccc1 (optimized conformer: 16.867226280455768 kcal/mol)

>  <smiles>  (36) 
NCCCc1ccccc1

>  <score_type>  (36) 
oracle

>  <origin>  (36) 
adg

>  <m_score__min__energy>  (36) 
-3.8199999999999998

>  <m_primary>  (36) 
energy

$$$$
36:0
     RDKit          3D

 30 31  0  0  0  0  0  0  0  0999 V2000
   58.1250   26.7180   42.5050 C   0  0  0  0  0  0  0  0  0  0  0  0
   58.5250   27.3750   43.7030 O   0  0  0  0  0  0  0  0  0  0  0  0
   58.0710   28.6420   44.1000 C   0  0  0  0  0  0  0  0  0  0  0  0
   58.6260   29.3350   45.1910 C   0  0  0  0  0  0  0  0  0  0  0  0
   58.1380   30.5970   45.5450 C   0  0  0  0  0  0  0  0  0  0  0  0
   57.0970   31.1870   44.8210 C   0  0  0  0  0  0  0  0  0  0  0  0
   56.6490   32.4590   45.2180 O   0  0  0  0  0  0  0  0  0  0  0  0
   57.3630   33.6810   45.0270 C   0  0  0  0  0  0  0  0  0  0  0  0
   58.5000   33.7960   46.0070 C   0  0  0  0  0  0  0  0  0  0  0  0
   59.7900   34.1400   45.5680 C   0  0  0  0  0  0  0  0  0  0  0  0
   60.8400   34.2530   46.4850 C   0  0  0  0  0  0  0  0  0  0  0  0
   60.6090   34.0340   47.8460 C   0  0  0  0  0  0  0  0  0  0  0  0
   61.9270   34.1770   48.9950 Cl  0  0  0  0  0  0  0  0  0  0  0  0
   59.3250   33.7050   48.2920 C   0  0  0  0  0  0  0  0  0  0  0  0
   58.2740   33.5900   47.3780 C   0  0  0  0  0  0  0  0  0  0  0  0
   56.5380   30.4900   43.7330 C   0  0  0  0  0  0  0  0  0  0  0  0
   57.0270   29.2290   43.3790 C   0  0  0  0  0  0  0  0  0  0  0  0
   57.5682   25.8034   42.7568 H   0  0  0  0  0  0  0  0  0  0  0  0
   57.4817   27.3886   41.9163 H   0  0  0  0  0  0  0  0  0  0  0  0
   59.0160   26.4544   41.9163 H   0  0  0  0  0  0  0  0  0  0  0  0
   59.4465   28.8829   45.7676 H   0  0  0  0  0  0  0  0  0  0  0  0
   58.5771   31.1305   46.4009 H   0  0  0  0  0  0  0  0  0  0  0  0
   57.7653   33.7072   44.0035 H   0  0  0  0  0  0  0  0  0  0  0  0
   56.6721   34.5215   45.1891 H   0  0  0  0  0  0  0  0  0  0  0  0
   59.9746   34.3211   44.4988 H   0  0  0  0  0  0  0  0  0  0  0  0
   61.8493   34.5147   46.1345 H   0  0  0  0  0  0  0  0  0  0  0  0
   59.1421   33.5365   49.3635 H   0  0  0  0  0  0  0  0  0  0  0  0
   57.2645   33.3368   47.7341 H   0  0  0  0  0  0  0  0  0  0  0  0
   55.7137   30.9391   43.1595 H   0  0  0  0  0  0  0  0  0  0  0  0
   56.5861   28.6937   42.5251 H   0  0  0  0  0  0  0  0  0  0  0  0
  1  2  1  0
  2  3  1  0
  3  4  2  0
  4  5  1  0
  5  6  2  0
  6  7  1  0
  7  8  1  0
  8  9  1  0
  9 10  2  0
 10 11  1  0
 11 12  2  0
 12 13  1  0
 12 14  1  0
 14 15  2  0
  6 16  1  0
 16 17  2  0
 17  3  1  0
 15  9  1  0
  1 18  1  0
  1 19  1  0
  1 20  1  0
  4 21  1  0
  5 22  1  0
  8 23  1  0
  8 24  1  0
 10 25  1  0
 11 26  1  0
 14 27  1  0
 15 28  1  0
 16 29  1  0
 17 30  1  0
M  END
>  <UniqueID>  (37) 
34

>  <SMILES>  (37) 
COc1ccc(OCc2ccc(Cl)cc2)cc1

>  <Energy>  (37) 
29.508862379805873

>  <Genealogy>  (37) 
COc1ccc(OCc2ccc(Cl)cc2)cc1 (3D coordinates assigned)
COc1ccc(OCc2ccc(Cl)cc2)cc1 (optimized conformer: 29.508862379805873 kcal/mol)

>  <smiles>  (37) 
COc1ccc(OCc2ccc(Cl)cc2)cc1

>  <score_type>  (37) 
oracle

>  <origin>  (37) 
adg

>  <m_score__min__energy>  (37) 
-6.2400000000000002

>  <m_primary>  (37) 
energy

$$$$
37:0
     RDKit          3D

 24 25  0  0  0  0  0  0  0  0999 V2000
   58.5360   34.1850   46.0510 C   0  0  0  0  0  0  0  0  0  0  0  0
   57.7650   33.6030   44.4950 S   0  0  0  0  0  0  0  0  0  0  0  0
   57.5650   31.8310   44.6700 C   0  0  0  0  0  0  0  0  0  0  0  0
   56.3810   31.2150   44.5070 N   0  0  0  0  0  0  0  0  0  0  0  0
   56.2800   29.8610   44.6510 C   0  0  0  0  0  0  0  0  0  0  0  0
   55.1630   29.2880   44.4970 O   0  0  0  0  0  0  0  0  0  0  0  0
   57.3980   29.1100   44.9650 C   0  0  0  0  0  0  0  0  0  0  0  0
   57.3530   27.7340   45.1230 C   0  0  0  0  0  0  0  0  0  0  0  0
   58.5310   27.0710   45.4390 C   0  0  0  0  0  0  0  0  0  0  0  0
   58.5370   25.5920   45.6190 C   0  0  0  0  0  0  0  0  0  0  0  0
   59.7280   27.7510   45.5950 C   0  0  0  0  0  0  0  0  0  0  0  0
   59.7520   29.1110   45.4350 C   0  0  0  0  0  0  0  0  0  0  0  0
   58.5970   29.7920   45.1230 C   0  0  0  0  0  0  0  0  0  0  0  0
   58.6730   31.1260   44.9770 N   0  0  0  0  0  0  0  0  0  0  0  0
   57.9871   33.7707   46.9095 H   0  0  0  0  0  0  0  0  0  0  0  0
   59.5831   33.8501   46.0890 H   0  0  0  0  0  0  0  0  0  0  0  0
   58.5009   35.2838   46.0890 H   0  0  0  0  0  0  0  0  0  0  0  0
   56.4093   27.1820   45.0013 H   0  0  0  0  0  0  0  0  0  0  0  0
   58.5380   25.3533   46.6928 H   0  0  0  0  0  0  0  0  0  0  0  0
   57.6406   25.1617   45.1485 H   0  0  0  0  0  0  0  0  0  0  0  0
   59.4369   25.1690   45.1485 H   0  0  0  0  0  0  0  0  0  0  0  0
   60.6493   27.2044   45.8447 H   0  0  0  0  0  0  0  0  0  0  0  0
   60.6970   29.6608   45.5562 H   0  0  0  0  0  0  0  0  0  0  0  0
   59.5940   31.6080   45.1020 H   0  0  0  0  0  0  0  0  0  0  0  0
  1  2  1  0
  2  3  1  0
  3  4  2  0
  4  5  1  0
  5  6  2  0
  5  7  1  0
  7  8  2  0
  8  9  1  0
  9 10  1  0
  9 11  2  0
 11 12  1  0
 12 13  2  0
 13 14  1  0
 14  3  1  0
 13  7  1  0
  1 15  1  0
  1 16  1  0
  1 17  1  0
  8 18  1  0
 10 19  1  0
 10 20  1  0
 10 21  1  0
 11 22  1  0
 12 23  1  0
 14 24  1  0
M  END
>  <smiles>  (38) 
CSc1nc(=O)c2cc(C)ccc2[nH]1

>  <score_type>  (38) 
oracle

>  <origin>  (38) 
adg

>  <m_score__min__energy>  (38) 
-6.0300000000000002

>  <m_primary>  (38) 
energy

$$$$
38:0
     RDKit          3D

 37 38  0  0  0  0  0  0  0  0999 V2000
   54.7480   26.2990   45.9990 N   0  0  0  0  0  0  0  0  0  0  0  0
   56.3530   25.6620   45.9580 S   0  0  0  0  0  0  0  0  0  0  0  0
   56.6260   25.0700   44.6040 O   0  0  0  0  0  0  0  0  0  0  0  0
   56.4870   24.5800   46.9930 O   0  0  0  0  0  0  0  0  0  0  0  0
   57.5070   26.9510   46.2870 C   0  0  0  0  0  0  0  0  0  0  0  0
   58.3620   26.8700   47.3940 C   0  0  0  0  0  0  0  0  0  0  0  0
   59.2590   27.9080   47.6630 C   0  0  0  0  0  0  0  0  0  0  0  0
   59.3110   29.0250   46.8260 C   0  0  0  0  0  0  0  0  0  0  0  0
   58.4770   29.1080   45.7040 C   0  0  0  0  0  0  0  0  0  0  0  0
   58.5370   30.2790   44.8790 N   0  0  0  0  0  0  0  0  0  0  0  0
   57.4560   31.1790   44.6000 C   0  0  0  0  0  0  0  0  0  0  0  0
   56.2760   30.7930   44.8090 O   0  0  0  0  0  0  0  0  0  0  0  0
   57.6930   32.5840   44.1130 C   0  0  0  0  0  0  0  0  0  0  0  0
   57.4900   33.5500   45.2130 N   0  0  0  0  0  0  0  0  0  0  0  0
   58.4670   34.6590   45.1630 C   0  0  0  0  0  0  0  0  0  0  0  0
   59.8980   34.1940   45.4970 C   0  0  0  0  0  0  0  0  0  0  0  0
   59.9380   33.1230   46.6010 C   0  0  0  0  0  0  0  0  0  0  0  0
   58.6580   33.1230   47.4350 C   0  0  0  0  0  0  0  0  0  0  0  0
   57.4160   32.8960   46.5490 C   0  0  0  0  0  0  0  0  0  0  0  0
   57.5530   28.0770   45.4550 C   0  0  0  0  0  0  0  0  0  0  0  0
   54.7530   27.0920   46.6800 H   0  0  0  0  0  0  0  0  0  0  0  0
   58.3274   25.9891   48.0519 H   0  0  0  0  0  0  0  0  0  0  0  0
   59.9254   27.8449   48.5359 H   0  0  0  0  0  0  0  0  0  0  0  0
   60.0107   29.8438   47.0493 H   0  0  0  0  0  0  0  0  0  0  0  0
   58.7245   32.6697   43.7407 H   0  0  0  0  0  0  0  0  0  0  0  0
   56.9806   32.8073   43.3051 H   0  0  0  0  0  0  0  0  0  0  0  0
   58.4622   35.0892   44.1506 H   0  0  0  0  0  0  0  0  0  0  0  0
   58.1704   35.4028   45.9172 H   0  0  0  0  0  0  0  0  0  0  0  0
   60.3527   33.7765   44.5865 H   0  0  0  0  0  0  0  0  0  0  0  0
   60.4514   35.0697   45.8669 H   0  0  0  0  0  0  0  0  0  0  0  0
   60.0594   32.1343   46.1343 H   0  0  0  0  0  0  0  0  0  0  0  0
   60.7822   33.3501   47.2686 H   0  0  0  0  0  0  0  0  0  0  0  0
   58.7171   32.3188   48.1832 H   0  0  0  0  0  0  0  0  0  0  0  0
   58.5617   34.1026   47.9260 H   0  0  0  0  0  0  0  0  0  0  0  0
   57.2944   31.8134   46.3966 H   0  0  0  0  0  0  0  0  0  0  0  0
   56.5647   33.3510   47.0764 H   0  0  0  0  0  0  0  0  0  0  0  0
   56.8627   28.1554   44.6022 H   0  0  0  0  0  0  0  0  0  0  0  0
  1  2  1  0
  2  3  2  0
  2  4  2  0
  2  5  1  0
  5  6  2  0
  6  7  1  0
  7  8  2  0
  8  9  1  0
  9 10  1  0
 10 11  1  0
 11 12  2  0
 11 13  1  0
 13 14  1  0
 14 15  1  0
 15 16  1  0
 16 17  1  0
 17 18  1  0
 18 19  1  0
  9 20  2  0
 20  5  1  0
 19 14  1  0
  1 21  1  0
  6 22  1  0
  7 23  1  0
  8 24  1  0
 13 25  1  0
 13 26  1  0
 15 27  1  0
 15 28  1  0
 16 29  1  0
 16 30  1  0
 17 31  1  0
 17 32  1  0
 18 33  1  0
 18 34  1  0
 19 35  1  0
 19 36  1  0
 20 37  1  0
M  CHG  2   1  -1  10  -1
M  END
>  <UniqueID>  (39) 
35

>  <SMILES>  (39) 
[NH-]S(=O)(=O)c1cccc([N-]C(=O)CN2CCCCC2)c1

>  <Energy>  (39) 
47.44956921063567

>  <Genealogy>  (39) 
[NH-]S(=O)(=O)c1cccc([N-]C(=O)CN2CCCCC2)c1 (protonated)
[NH-]S(=O)(=O)c1cccc([N-]C(=O)CN2CCCCC2)c1 (3D coordinates assigned)
[NH-]S(=O)(=O)c1cccc([N-]C(=O)CN2CCCCC2)c1 (nonaromatic ring conformer: 47.44956921063567 kcal/mol)

>  <smiles>  (39) 
NS(=O)(=O)c1cccc(NC(=O)CN2CCCCC2)c1

>  <score_type>  (39) 
oracle

>  <origin>  (39) 
adg

>  <m_score__min__energy>  (39) 
-12.25

>  <m_primary>  (39) 
energy

$$$$
39:0
     RDKit          3D

 31 32  0  0  0  0  0  0  0  0999 V2000
   56.5020   29.4150   44.1620 C   0  0  0  0  0  0  0  0  0  0  0  0
   55.8780   28.5980   45.1480 O   0  0  0  0  0  0  0  0  0  0  0  0
   56.4920   27.5060   45.7810 C   0  0  0  0  0  0  0  0  0  0  0  0
   57.8470   27.5260   46.1680 C   0  0  0  0  0  0  0  0  0  0  0  0
   58.4310   26.4160   46.8100 C   0  0  0  0  0  0  0  0  0  0  0  0
   59.9070   26.3830   47.2050 C   0  0  2  0  0  0  0  0  0  0  0  0
   60.2240   27.1460   48.5160 C   0  0  0  0  0  0  0  0  0  0  0  0
   60.4840   28.6170   48.2980 C   0  0  0  0  0  0  0  0  0  0  0  0
   60.5010   29.5540   49.4640 C   0  0  0  0  0  0  0  0  0  0  0  0
   60.7330   29.0870   47.1130 N   0  0  0  0  0  0  0  0  0  0  0  0
   60.7650   28.2530   45.9520 C   0  0  0  0  0  0  0  0  0  0  0  0
   61.0870   28.9350   44.5010 S   0  0  0  0  0  0  0  0  0  0  0  0
   60.7730   26.8220   46.0940 N   0  0  0  0  0  0  0  0  0  0  0  0
   57.6420   25.2730   47.0310 C   0  0  0  0  0  0  0  0  0  0  0  0
   56.3000   25.2500   46.6500 C   0  0  0  0  0  0  0  0  0  0  0  0
   55.7260   26.3600   46.0300 C   0  0  0  0  0  0  0  0  0  0  0  0
   54.3870   26.3230   45.6570 O   0  0  0  0  0  0  0  0  0  0  0  0
   57.0984   30.1958   44.6567 H   0  0  0  0  0  0  0  0  0  0  0  0
   57.1585   28.7949   43.5340 H   0  0  0  0  0  0  0  0  0  0  0  0
   55.7310   29.8852   43.5340 H   0  0  0  0  0  0  0  0  0  0  0  0
   58.4563   28.4194   45.9663 H   0  0  0  0  0  0  0  0  0  0  0  0
   60.1335   25.3283   47.4200 H   0  0  0  0  0  0  0  0  0  0  0  0
   59.3681   27.0393   49.1987 H   0  0  0  0  0  0  0  0  0  0  0  0
   61.1426   26.7095   48.9352 H   0  0  0  0  0  0  0  0  0  0  0  0
   60.4905   28.9754   50.3995 H   0  0  0  0  0  0  0  0  0  0  0  0
   61.4105   30.1715   49.4249 H   0  0  0  0  0  0  0  0  0  0  0  0
   59.6145   30.2041   49.4249 H   0  0  0  0  0  0  0  0  0  0  0  0
   60.4620   26.3680   45.2030 H   0  0  0  0  0  0  0  0  0  0  0  0
   61.7580   26.5220   46.2880 H   0  0  0  0  0  0  0  0  0  0  0  0
   58.0874   24.3881   47.5091 H   0  0  0  0  0  0  0  0  0  0  0  0
   55.6921   24.3530   46.8393 H   0  0  0  0  0  0  0  0  0  0  0  0
  1  2  1  0
  2  3  1  0
  3  4  2  0
  4  5  1  0
  5  6  1  0
  6  7  1  0
  7  8  1  0
  8  9  1  0
  8 10  2  0
 10 11  1  0
 11 12  2  0
 11 13  1  0
  5 14  2  0
 14 15  1  0
 15 16  2  0
 16 17  1  0
 16  3  1  0
 13  6  1  0
  1 18  1  0
  1 19  1  0
  1 20  1  0
  4 21  1  0
  6 22  1  1
  7 23  1  0
  7 24  1  0
  9 25  1  0
  9 26  1  0
  9 27  1  0
 13 28  1  0
 13 29  1  0
 14 30  1  0
 15 31  1  0
M  CHG  2  13   1  17  -1
M  END
>  <UniqueID>  (40) 
36

>  <SMILES>  (40) 
COc1cc([C@@H]2CC(C)=NC(=S)[NH2+]2)ccc1[O-]

>  <Energy>  (40) 
32.45722049743796

>  <Genealogy>  (40) 
COc1cc(C2CC(C)=NC(=S)[NH2+]2)ccc1[O-] (protonated)
COc1cc([C@@H]2CC(C)=NC(=S)[NH2+]2)ccc1[O-] (chirality)
COc1cc([C@@H]2CC(C)=NC(=S)[NH2+]2)ccc1[O-] (3D coordinates assigned)
COc1cc([C@@H]2CC(C)=NC(=S)[NH2+]2)ccc1[O-] (nonaromatic ring conformer: 32.45722049743796 kcal/mol)

>  <smiles>  (40) 
COc1cc(C2CC(C)=NC(=S)N2)ccc1O

>  <score_type>  (40) 
oracle

>  <origin>  (40) 
adg

>  <m_score__min__energy>  (40) 
-8.6099999999999994

>  <m_primary>  (40) 
energy

$$$$
40:0
     RDKit          3D

 30 32  0  0  0  0  0  0  0  0999 V2000
   59.5990   35.2210   46.6410 C   0  0  0  0  0  0  0  0  0  0  0  0
   59.2610   34.9860   44.8680 S   0  0  0  0  0  0  0  0  0  0  0  0
   58.7640   33.2750   45.0680 C   0  0  0  0  0  0  0  0  0  0  0  0
   57.8810   32.6900   44.1540 C   0  0  0  0  0  0  0  0  0  0  0  0
   57.4950   31.3550   44.3060 C   0  0  0  0  0  0  0  0  0  0  0  0
   57.9930   30.5870   45.3750 C   0  0  0  0  0  0  0  0  0  0  0  0
   57.5850   29.1730   45.5370 C   0  0  0  0  0  0  0  0  0  0  0  0
   58.4820   28.1550   45.6650 N   0  0  0  0  0  0  0  0  0  0  0  0
   57.6860   27.0830   45.7840 C   0  0  0  0  0  0  0  0  0  0  0  0
   58.0260   25.7480   45.9370 C   0  0  0  0  0  0  0  0  0  0  0  0
   59.2390   25.4030   45.9690 O   0  0  0  0  0  0  0  0  0  0  0  0
   57.0090   24.8230   46.0460 N   0  0  0  0  0  0  0  0  0  0  0  0
   57.3250   23.3920   46.1770 C   0  0  0  0  0  0  0  0  0  0  0  0
   55.6900   25.2380   45.9590 C   0  0  0  0  0  0  0  0  0  0  0  0
   54.7480   24.3990   46.0160 O   0  0  0  0  0  0  0  0  0  0  0  0
   55.3830   26.5610   45.8060 N   0  0  0  0  0  0  0  0  0  0  0  0
   56.3940   27.4540   45.7280 C   0  0  0  0  0  0  0  0  0  0  0  0
   56.2810   28.7790   45.5700 N   0  0  0  0  0  0  0  0  0  0  0  0
   58.8840   31.1810   46.2860 C   0  0  0  0  0  0  0  0  0  0  0  0
   59.2670   32.5170   46.1310 C   0  0  0  0  0  0  0  0  0  0  0  0
   58.8376   34.6917   47.2327 H   0  0  0  0  0  0  0  0  0  0  0  0
   60.5945   34.8193   46.8809 H   0  0  0  0  0  0  0  0  0  0  0  0
   59.5691   36.2941   46.8809 H   0  0  0  0  0  0  0  0  0  0  0  0
   57.4895   33.2820   43.3136 H   0  0  0  0  0  0  0  0  0  0  0  0
   56.7978   30.9021   43.5857 H   0  0  0  0  0  0  0  0  0  0  0  0
   57.3838   23.1255   47.2426 H   0  0  0  0  0  0  0  0  0  0  0  0
   56.5367   22.7966   45.6932 H   0  0  0  0  0  0  0  0  0  0  0  0
   58.2907   23.1840   45.6932 H   0  0  0  0  0  0  0  0  0  0  0  0
   59.2820   30.5917   47.1252 H   0  0  0  0  0  0  0  0  0  0  0  0
   59.9661   32.9735   46.8472 H   0  0  0  0  0  0  0  0  0  0  0  0
  1  2  1  0
  2  3  1  0
  3  4  2  0
  4  5  1  0
  5  6  2  0
  6  7  1  0
  7  8  2  0
  8  9  1  0
  9 10  1  0
 10 11  2  0
 10 12  1  0
 12 13  1  0
 12 14  1  0
 14 15  2  0
 14 16  1  0
 16 17  1  0
 17 18  1  0
  6 19  1  0
 19 20  2  0
 20  3  1  0
 18  7  1  0
 17  9  2  0
  1 21  1  0
  1 22  1  0
  1 23  1  0
  4 24  1  0
  5 25  1  0
 13 26  1  0
 13 27  1  0
 13 28  1  0
 19 29  1  0
 20 30  1  0
M  CHG  2  16  -1  18  -1
M  END
>  <UniqueID>  (41) 
37

>  <SMILES>  (41) 
CSc1ccc(-c2nc3c(=O)n(C)c(=O)[n-]c3[n-]2)cc1

>  <Energy>  (41) 
70.12384540008593

>  <Genealogy>  (41) 
CSc1ccc(-c2nc3c(=O)n(C)c(=O)[n-]c3[n-]2)cc1 (protonated)
CSc1ccc(-c2nc3c(=O)n(C)c(=O)[n-]c3[n-]2)cc1 (3D coordinates assigned)
CSc1ccc(-c2nc3c(=O)n(C)c(=O)[n-]c3[n-]2)cc1 (optimized conformer: 70.12384540008593 kcal/mol)

>  <smiles>  (41) 
CSc1ccc(-c2nc3c(=O)n(C)c(=O)[nH]c3[nH]2)cc1

>  <score_type>  (41) 
oracle

>  <origin>  (41) 
adg

>  <m_score__min__energy>  (41) 
-10.44

>  <m_primary>  (41) 
energy

$$$$
41:0
     RDKit          3D

 42 44  0  0  0  0  0  0  0  0999 V2000
   56.3140   29.7120   42.7210 C   0  0  0  0  0  0  0  0  0  0  0  0
   56.9980   30.8460   43.4240 C   0  0  0  0  0  0  0  0  0  0  0  0
   57.0400   30.8870   44.8260 C   0  0  0  0  0  0  0  0  0  0  0  0
   57.7010   31.9290   45.4820 C   0  0  0  0  0  0  0  0  0  0  0  0
   58.3270   32.9460   44.7450 C   0  0  0  0  0  0  0  0  0  0  0  0
   58.9940   34.0990   45.4450 C   0  0  0  0  0  0  0  0  0  0  0  0
   58.6650   34.1030   46.8690 N   0  0  0  0  0  0  0  0  0  0  0  0
   59.3850   33.3850   47.8810 C   0  0  0  0  0  0  0  0  0  0  0  0
   58.7970   33.0820   48.9510 O   0  0  0  0  0  0  0  0  0  0  0  0
   60.7970   33.0060   47.7010 C   0  0  0  0  0  0  0  0  0  0  0  0
   61.6460   33.8590   46.9850 C   0  0  0  0  0  0  0  0  0  0  0  0
   62.9650   33.4830   46.7340 C   0  0  0  0  0  0  0  0  0  0  0  0
   63.4210   32.2480   47.1900 C   0  0  0  0  0  0  0  0  0  0  0  0
   62.5900   31.4240   47.8820 N   0  0  0  0  0  0  0  0  0  0  0  0
   61.3020   31.7740   48.1680 C   0  0  0  0  0  0  0  0  0  0  0  0
   60.2580   30.6050   49.0550 S   0  0  0  0  0  0  0  0  0  0  0  0
   59.7750   29.7230   47.5680 C   0  0  0  0  0  0  0  0  0  0  0  0
   60.4650   29.9290   46.3670 C   0  0  0  0  0  0  0  0  0  0  0  0
   60.0870   29.2380   45.2120 C   0  0  0  0  0  0  0  0  0  0  0  0
   59.0240   28.3290   45.2550 C   0  0  0  0  0  0  0  0  0  0  0  0
   58.5500   27.4620   43.8060 Cl  0  0  0  0  0  0  0  0  0  0  0  0
   58.3450   28.1070   46.4580 C   0  0  0  0  0  0  0  0  0  0  0  0
   58.7230   28.7970   47.6130 C   0  0  0  0  0  0  0  0  0  0  0  0
   58.3130   32.8870   43.3420 C   0  0  0  0  0  0  0  0  0  0  0  0
   57.6560   31.8420   42.6860 C   0  0  0  0  0  0  0  0  0  0  0  0
   55.8956   29.0183   43.4651 H   0  0  0  0  0  0  0  0  0  0  0  0
   55.5032   30.1068   42.0911 H   0  0  0  0  0  0  0  0  0  0  0  0
   57.0414   29.1790   42.0911 H   0  0  0  0  0  0  0  0  0  0  0  0
   56.5502   30.0950   45.4116 H   0  0  0  0  0  0  0  0  0  0  0  0
   57.7307   31.9521   46.5814 H   0  0  0  0  0  0  0  0  0  0  0  0
   60.0841   34.0105   45.3271 H   0  0  0  0  0  0  0  0  0  0  0  0
   58.6352   35.0378   44.9979 H   0  0  0  0  0  0  0  0  0  0  0  0
   61.2718   34.8269   46.6201 H   0  0  0  0  0  0  0  0  0  0  0  0
   63.6387   34.1546   46.1816 H   0  0  0  0  0  0  0  0  0  0  0  0
   64.4573   31.9384   46.9894 H   0  0  0  0  0  0  0  0  0  0  0  0
   62.9540   30.4970   48.1960 H   0  0  0  0  0  0  0  0  0  0  0  0
   61.3067   30.6364   46.3323 H   0  0  0  0  0  0  0  0  0  0  0  0
   60.6258   29.4090   44.2684 H   0  0  0  0  0  0  0  0  0  0  0  0
   57.5128   27.3886   46.4947 H   0  0  0  0  0  0  0  0  0  0  0  0
   58.1940   28.6132   48.5598 H   0  0  0  0  0  0  0  0  0  0  0  0
   58.8216   33.6670   42.7563 H   0  0  0  0  0  0  0  0  0  0  0  0
   57.6547   31.8002   41.5868 H   0  0  0  0  0  0  0  0  0  0  0  0
  1  2  1  0
  2  3  2  0
  3  4  1  0
  4  5  2  0
  5  6  1  0
  6  7  1  0
  7  8  1  0
  8  9  2  0
  8 10  1  0
 10 11  2  0
 11 12  1  0
 12 13  2  0
 13 14  1  0
 14 15  2  0
 15 16  1  0
 16 17  1  0
 17 18  2  0
 18 19  1  0
 19 20  2  0
 20 21  1  0
 20 22  1  0
 22 23  2  0
  5 24  1  0
 24 25  2  0
 25  2  1  0
 15 10  1  0
 23 17  1  0
  1 26  1  0
  1 27  1  0
  1 28  1  0
  3 29  1  0
  4 30  1  0
  6 31  1  0
  6 32  1  0
 11 33  1  0
 12 34  1  0
 13 35  1  0
 14 36  1  0
 18 37  1  0
 19 38  1  0
 22 39  1  0
 23 40  1  0
 24 41  1  0
 25 42  1  0
M  CHG  2   7  -1  14   1
M  END
>  <UniqueID>  (42) 
38

>  <SMILES>  (42) 
Cc1ccc(C[N-]C(=O)c2ccc[nH+]c2Sc2ccc(Cl)cc2)cc1

>  <Energy>  (42) 
42.38632207931771

>  <Genealogy>  (42) 
Cc1ccc(C[N-]C(=O)c2ccc[nH+]c2Sc2ccc(Cl)cc2)cc1 (protonated)
Cc1ccc(C[N-]C(=O)c2ccc[nH+]c2Sc2ccc(Cl)cc2)cc1 (3D coordinates assigned)
Cc1ccc(C[N-]C(=O)c2ccc[nH+]c2Sc2ccc(Cl)cc2)cc1 (optimized conformer: 42.38632207931771 kcal/mol)

>  <smiles>  (42) 
Cc1ccc(CNC(=O)c2cccnc2Sc2ccc(Cl)cc2)cc1

>  <score_type>  (42) 
oracle

>  <origin>  (42) 
adg

>  <m_score__min__energy>  (42) 
-9.5199999999999996

>  <m_primary>  (42) 
energy

$$$$
42:0
     RDKit          3D

 32 34  0  0  0  0  0  0  0  0999 V2000
   55.2050   29.1140   44.4980 O   0  0  0  0  0  0  0  0  0  0  0  0
   56.3140   29.6060   44.8380 C   0  0  0  0  0  0  0  0  0  0  0  0
   56.9760   29.0830   45.9980 N   0  0  0  0  0  0  0  0  0  0  0  0
   58.2470   28.4170   46.0220 C   0  0  0  0  0  0  0  0  0  0  0  0
   58.4680   27.2700   46.8060 C   0  0  0  0  0  0  0  0  0  0  0  0
   59.7170   26.6400   46.7940 C   0  0  0  0  0  0  0  0  0  0  0  0
   60.7450   27.1380   45.9880 C   0  0  0  0  0  0  0  0  0  0  0  0
   60.5220   28.2600   45.1860 C   0  0  0  0  0  0  0  0  0  0  0  0
   59.2750   28.8920   45.1970 C   0  0  0  0  0  0  0  0  0  0  0  0
   56.9060   30.6860   44.0150 C   0  0  0  0  0  0  0  0  0  0  0  0
   56.8790   30.6400   42.5990 C   0  0  0  0  0  0  0  0  0  0  0  0
   56.2210   29.6270   41.8980 O   0  0  0  0  0  0  0  0  0  0  0  0
   57.5040   31.6520   41.8590 C   0  0  0  0  0  0  0  0  0  0  0  0
   58.1360   32.7180   42.5030 C   0  0  0  0  0  0  0  0  0  0  0  0
   58.1510   32.7780   43.8960 C   0  0  0  0  0  0  0  0  0  0  0  0
   57.5190   31.7810   44.6520 C   0  0  0  0  0  0  0  0  0  0  0  0
   57.5330   31.8910   46.0490 O   0  0  0  0  0  0  0  0  0  0  0  0
   57.9080   33.1090   46.6950 C   0  0  0  0  0  0  0  0  0  0  0  0
   59.0820   33.7600   45.9530 C   0  0  0  0  0  0  0  0  0  0  0  0
   58.8030   33.8260   44.5540 O   0  0  0  0  0  0  0  0  0  0  0  0
   57.6566   26.8675   47.4301 H   0  0  0  0  0  0  0  0  0  0  0  0
   59.8904   25.7519   47.4194 H   0  0  0  0  0  0  0  0  0  0  0  0
   61.7291   26.6466   45.9853 H   0  0  0  0  0  0  0  0  0  0  0  0
   61.3283   28.6465   44.5453 H   0  0  0  0  0  0  0  0  0  0  0  0
   59.0999   29.7673   44.5542 H   0  0  0  0  0  0  0  0  0  0  0  0
   55.5140   29.0360   42.3170 H   0  0  0  0  0  0  0  0  0  0  0  0
   57.4969   31.6066   40.7600 H   0  0  0  0  0  0  0  0  0  0  0  0
   58.6212   33.5090   41.9123 H   0  0  0  0  0  0  0  0  0  0  0  0
   57.0511   33.7988   46.6963 H   0  0  0  0  0  0  0  0  0  0  0  0
   58.2132   32.8889   47.7286 H   0  0  0  0  0  0  0  0  0  0  0  0
   59.2384   34.7773   46.3411 H   0  0  0  0  0  0  0  0  0  0  0  0
   59.9873   33.1555   46.1112 H   0  0  0  0  0  0  0  0  0  0  0  0
  1  2  2  0
  2  3  1  0
  3  4  1  0
  4  5  2  0
  5  6  1  0
  6  7  2  0
  7  8  1  0
  8  9  2  0
  2 10  1  0
 10 11  2  0
 11 12  1  0
 11 13  1  0
 13 14  2  0
 14 15  1  0
 15 16  2  0
 16 17  1  0
 17 18  1  0
 18 19  1  0
 19 20  1  0
  9  4  1  0
 16 10  1  0
 20 15  1  0
  5 21  1  0
  6 22  1  0
  7 23  1  0
  8 24  1  0
  9 25  1  0
 12 26  1  0
 13 27  1  0
 14 28  1  0
 18 29  1  0
 18 30  1  0
 19 31  1  0
 19 32  1  0
M  CHG  1   3  -1
M  END
>  <UniqueID>  (43) 
39

>  <SMILES>  (43) 
O=C([N-]c1ccccc1)c1c(O)ccc2c1OCCO2

>  <Energy>  (43) 
45.056536532996695

>  <Genealogy>  (43) 
O=C([N-]c1ccccc1)c1c(O)ccc2c1OCCO2 (protonated)
O=C([N-]c1ccccc1)c1c(O)ccc2c1OCCO2 (3D coordinates assigned)
O=C([N-]c1ccccc1)c1c(O)ccc2c1OCCO2 (nonaromatic ring conformer: 45.056536532996695 kcal/mol)

>  <smiles>  (43) 
O=C(Nc1ccccc1)c1c(O)ccc2c1OCCO2

>  <score_type>  (43) 
oracle

>  <origin>  (43) 
adg

>  <m_score__min__energy>  (43) 
-8.7699999999999996

>  <m_primary>  (43) 
energy

$$$$
43:0
     RDKit          3D

 27 29  0  0  0  0  0  0  0  0999 V2000
   55.4770   29.0010   44.7410 O   0  0  0  0  0  0  0  0  0  0  0  0
   56.6560   29.2280   45.1240 C   0  0  0  0  0  0  0  0  0  0  0  0
   57.0720   30.5110   45.2660 N   0  0  0  0  0  0  0  0  0  0  0  0
   58.3320   30.8280   45.6760 C   0  0  0  0  0  0  0  0  0  0  0  0
   58.7020   32.2760   45.8050 C   0  0  0  0  0  0  0  0  0  0  0  0
   58.4230   33.2280   44.7980 C   0  0  0  0  0  0  0  0  0  0  0  0
   58.7860   34.5690   44.9610 C   0  0  0  0  0  0  0  0  0  0  0  0
   59.4300   34.9870   46.1250 C   0  0  0  0  0  0  0  0  0  0  0  0
   59.7150   34.0650   47.1320 C   0  0  0  0  0  0  0  0  0  0  0  0
   60.5250   34.5910   48.5970 Cl  0  0  0  0  0  0  0  0  0  0  0  0
   59.3550   32.7230   46.9750 C   0  0  0  0  0  0  0  0  0  0  0  0
   59.2130   29.8170   45.9540 N   0  0  0  0  0  0  0  0  0  0  0  0
   58.8450   28.5080   45.8260 C   0  0  0  0  0  0  0  0  0  0  0  0
   59.7590   27.4800   46.1140 C   0  0  0  0  0  0  0  0  0  0  0  0
   59.3780   26.1410   45.9830 C   0  0  0  0  0  0  0  0  0  0  0  0
   58.0860   25.8170   45.5630 C   0  0  0  0  0  0  0  0  0  0  0  0
   57.1670   26.8280   45.2730 C   0  0  0  0  0  0  0  0  0  0  0  0
   57.5400   28.1790   45.4020 C   0  0  0  0  0  0  0  0  0  0  0  0
   57.9146   32.9106   43.8756 H   0  0  0  0  0  0  0  0  0  0  0  0
   58.5624   35.2971   44.1673 H   0  0  0  0  0  0  0  0  0  0  0  0
   59.7130   36.0427   46.2489 H   0  0  0  0  0  0  0  0  0  0  0  0
   59.5840   32.0040   47.7754 H   0  0  0  0  0  0  0  0  0  0  0  0
   60.1830   30.0180   46.2680 H   0  0  0  0  0  0  0  0  0  0  0  0
   60.7782   27.7297   46.4438 H   0  0  0  0  0  0  0  0  0  0  0  0
   60.0976   25.3409   46.2113 H   0  0  0  0  0  0  0  0  0  0  0  0
   57.7913   24.7622   45.4603 H   0  0  0  0  0  0  0  0  0  0  0  0
   56.1503   26.5680   44.9433 H   0  0  0  0  0  0  0  0  0  0  0  0
  1  2  2  0
  2  3  1  0
  3  4  2  0
  4  5  1  0
  5  6  2  0
  6  7  1  0
  7  8  2  0
  8  9  1  0
  9 10  1  0
  9 11  2  0
  4 12  1  0
 12 13  1  0
 13 14  2  0
 14 15  1  0
 15 16  2  0
 16 17  1  0
 17 18  2  0
 18  2  1  0
 11  5  1  0
 18 13  1  0
  6 19  1  0
  7 20  1  0
  8 21  1  0
 11 22  1  0
 12 23  1  0
 14 24  1  0
 15 25  1  0
 16 26  1  0
 17 27  1  0
M  END
>  <UniqueID>  (44) 
40

>  <SMILES>  (44) 
O=c1nc(-c2cccc(Cl)c2)[nH]c2ccccc12

>  <Energy>  (44) 
39.519346522367755

>  <Genealogy>  (44) 
O=c1nc(-c2cccc(Cl)c2)[nH]c2ccccc12 (3D coordinates assigned)
O=c1nc(-c2cccc(Cl)c2)[nH]c2ccccc12 (optimized conformer: 39.519346522367755 kcal/mol)

>  <smiles>  (44) 
O=c1nc(-c2cccc(Cl)c2)[nH]c2ccccc12

>  <score_type>  (44) 
oracle

>  <origin>  (44) 
adg

>  <m_score__min__energy>  (44) 
-7.3499999999999996

>  <m_primary>  (44) 
energy

$$$$
44:0
     RDKit          3D

 40 42  0  0  0  0  0  0  0  0999 V2000
   56.2390   30.6600   44.8050 O   0  0  0  0  0  0  0  0  0  0  0  0
   57.3560   30.2650   44.3720 C   0  0  0  0  0  0  0  0  0  0  0  0
   58.1420   31.1350   43.5430 N   0  0  0  0  0  0  0  0  0  0  0  0
   57.8310   32.5540   43.3850 C   0  0  0  0  0  0  0  0  0  0  0  0
   58.2260   33.3100   44.6250 C   0  0  0  0  0  0  0  0  0  0  0  0
   59.2690   34.2490   44.5900 C   0  0  0  0  0  0  0  0  0  0  0  0
   59.6110   34.9660   45.7410 C   0  0  0  0  0  0  0  0  0  0  0  0
   58.9110   34.7520   46.9330 C   0  0  0  0  0  0  0  0  0  0  0  0
   57.8670   33.8230   46.9730 C   0  0  0  0  0  0  0  0  0  0  0  0
   57.5220   33.1060   45.8240 C   0  0  0  0  0  0  0  0  0  0  0  0
   57.8310   28.9030   44.7170 C   0  0  0  0  0  0  0  0  0  0  0  0
   57.6570   27.8470   43.8070 C   0  0  0  0  0  0  0  0  0  0  0  0
   58.0960   26.5590   44.1250 C   0  0  0  0  0  0  0  0  0  0  0  0
   58.7180   26.3030   45.3490 C   0  0  0  0  0  0  0  0  0  0  0  0
   59.1520   25.0010   45.6250 O   0  0  0  0  0  0  0  0  0  0  0  0
   58.3630   23.8500   45.4770 C   0  0  0  0  0  0  0  0  0  0  0  0
   58.9300   22.7210   44.8740 C   0  0  0  0  0  0  0  0  0  0  0  0
   58.1810   21.5520   44.7140 C   0  0  0  0  0  0  0  0  0  0  0  0
   56.8580   21.5000   45.1650 C   0  0  0  0  0  0  0  0  0  0  0  0
   55.9170   20.0330   44.9630 Cl  0  0  0  0  0  0  0  0  0  0  0  0
   56.2870   22.6190   45.7800 C   0  0  0  0  0  0  0  0  0  0  0  0
   57.0360   23.7890   45.9420 C   0  0  0  0  0  0  0  0  0  0  0  0
   58.8620   27.3460   46.2850 C   0  0  0  0  0  0  0  0  0  0  0  0
   59.5150   27.0500   47.8910 Cl  0  0  0  0  0  0  0  0  0  0  0  0
   58.4230   28.6360   45.9640 C   0  0  0  0  0  0  0  0  0  0  0  0
   58.9400   30.7460   42.9920 H   0  0  0  0  0  0  0  0  0  0  0  0
   58.3846   32.9542   42.5228 H   0  0  0  0  0  0  0  0  0  0  0  0
   56.7495   32.6700   43.2212 H   0  0  0  0  0  0  0  0  0  0  0  0
   59.8195   34.4215   43.6534 H   0  0  0  0  0  0  0  0  0  0  0  0
   60.4309   35.6986   45.7089 H   0  0  0  0  0  0  0  0  0  0  0  0
   59.1819   35.3145   47.8387 H   0  0  0  0  0  0  0  0  0  0  0  0
   57.3162   33.6561   47.9104 H   0  0  0  0  0  0  0  0  0  0  0  0
   56.6967   32.3796   45.8583 H   0  0  0  0  0  0  0  0  0  0  0  0
   57.1720   28.0352   42.8378 H   0  0  0  0  0  0  0  0  0  0  0  0
   57.9505   25.7399   43.4053 H   0  0  0  0  0  0  0  0  0  0  0  0
   59.9722   22.7542   44.5237 H   0  0  0  0  0  0  0  0  0  0  0  0
   58.6324   20.6718   44.2329 H   0  0  0  0  0  0  0  0  0  0  0  0
   55.2472   22.5788   46.1368 H   0  0  0  0  0  0  0  0  0  0  0  0
   56.5866   24.6641   46.4343 H   0  0  0  0  0  0  0  0  0  0  0  0
   58.5425   29.4492   46.6950 H   0  0  0  0  0  0  0  0  0  0  0  0
  1  2  2  0
  2  3  1  0
  3  4  1  0
  4  5  1  0
  5  6  2  0
  6  7  1  0
  7  8  2  0
  8  9  1  0
  9 10  2  0
  2 11  1  0
 11 12  2  0
 12 13  1  0
 13 14  2  0
 14 15  1  0
 15 16  1  0
 16 17  2  0
 17 18  1  0
 18 19  2  0
 19 20  1  0
 19 21  1  0
 21 22  2  0
 14 23  1  0
 23 24  1  0
 23 25  2  0
 10  5  1  0
 25 11  1  0
 22 16  1  0
  3 26  1  0
  4 27  1  0
  4 28  1  0
  6 29  1  0
  7 30  1  0
  8 31  1  0
  9 32  1  0
 10 33  1  0
 12 34  1  0
 13 35  1  0
 17 36  1  0
 18 37  1  0
 21 38  1  0
 22 39  1  0
 25 40  1  0
M  END
>  <UniqueID>  (45) 
41

>  <SMILES>  (45) 
O=C(NCc1ccccc1)c1ccc(Oc2ccc(Cl)cc2)c(Cl)c1

>  <Energy>  (45) 
51.15338757168334

>  <Genealogy>  (45) 
O=C(NCc1ccccc1)c1ccc(Oc2ccc(Cl)cc2)c(Cl)c1 (3D coordinates assigned)
O=C(NCc1ccccc1)c1ccc(Oc2ccc(Cl)cc2)c(Cl)c1 (optimized conformer: 51.15338757168334 kcal/mol)

>  <smiles>  (45) 
O=C(NCc1ccccc1)c1ccc(Oc2ccc(Cl)cc2)c(Cl)c1

>  <score_type>  (45) 
oracle

>  <origin>  (45) 
adg

>  <m_score__min__energy>  (45) 
-8.25

>  <m_primary>  (45) 
energy

$$$$
45:0
     RDKit          3D

 39 41  0  0  0  0  0  0  0  0999 V2000
   58.5890   28.7400   48.2730 C   0  0  0  0  0  0  0  0  0  0  0  0
   59.8110   29.5410   48.6460 C   0  0  0  0  0  0  0  0  0  0  0  0
   60.3270   29.4110   49.9460 C   0  0  0  0  0  0  0  0  0  0  0  0
   61.4460   30.1390   50.3450 C   0  0  0  0  0  0  0  0  0  0  0  0
   62.0640   31.0150   49.4570 C   0  0  0  0  0  0  0  0  0  0  0  0
   61.5690   31.1710   48.1590 C   0  0  0  0  0  0  0  0  0  0  0  0
   62.3950   32.3060   47.0970 Cl  0  0  0  0  0  0  0  0  0  0  0  0
   60.4350   30.4360   47.7290 C   0  0  0  0  0  0  0  0  0  0  0  0
   59.9380   30.6030   46.3750 N   0  0  0  0  0  0  0  0  0  0  0  0
   59.0330   31.7340   46.2560 C   0  0  0  0  0  0  0  0  0  0  0  0
   59.1430   32.8200   47.1550 C   0  0  0  0  0  0  0  0  0  0  0  0
   58.3210   33.9400   47.0350 C   0  0  0  0  0  0  0  0  0  0  0  0
   57.3930   34.0180   46.0000 C   0  0  0  0  0  0  0  0  0  0  0  0
   57.2920   32.9830   45.0730 C   0  0  0  0  0  0  0  0  0  0  0  0
   58.1070   31.8400   45.1750 C   0  0  0  0  0  0  0  0  0  0  0  0
   57.9900   30.7820   44.0980 C   0  0  0  0  0  0  0  0  0  0  0  0
   57.9580   29.4080   44.7050 C   0  0  0  0  0  0  0  0  0  0  0  0
   59.0650   28.6610   44.9060 N   0  0  0  0  0  0  0  0  0  0  0  0
   58.6750   27.5100   45.4390 N   0  0  0  0  0  0  0  0  0  0  0  0
   57.3360   27.5670   45.5520 C   0  0  0  0  0  0  0  0  0  0  0  0
   56.4280   26.3490   46.1620 S   0  0  0  0  0  0  0  0  0  0  0  0
   56.8540   28.7370   45.0980 N   0  0  0  0  0  0  0  0  0  0  0  0
   55.5110   29.1450   45.0360 N   0  0  0  0  0  0  0  0  0  0  0  0
   58.0773   28.4046   49.1872 H   0  0  0  0  0  0  0  0  0  0  0  0
   57.9068   29.3667   47.6799 H   0  0  0  0  0  0  0  0  0  0  0  0
   58.8915   27.8644   47.6799 H   0  0  0  0  0  0  0  0  0  0  0  0
   59.8419   28.7264   50.6574 H   0  0  0  0  0  0  0  0  0  0  0  0
   61.8421   30.0212   51.3644 H   0  0  0  0  0  0  0  0  0  0  0  0
   62.9466   31.5875   49.7784 H   0  0  0  0  0  0  0  0  0  0  0  0
   60.7060   30.7320   45.6810 H   0  0  0  0  0  0  0  0  0  0  0  0
   59.4770   29.7060   46.1140 H   0  0  0  0  0  0  0  0  0  0  0  0
   59.8892   32.7806   47.9622 H   0  0  0  0  0  0  0  0  0  0  0  0
   58.4059   34.7634   47.7594 H   0  0  0  0  0  0  0  0  0  0  0  0
   56.7387   34.8981   45.9141 H   0  0  0  0  0  0  0  0  0  0  0  0
   56.5657   33.0601   44.2505 H   0  0  0  0  0  0  0  0  0  0  0  0
   57.0633   30.9470   43.5288 H   0  0  0  0  0  0  0  0  0  0  0  0
   58.8638   30.8551   43.4338 H   0  0  0  0  0  0  0  0  0  0  0  0
   55.1960   30.0120   45.5260 H   0  0  0  0  0  0  0  0  0  0  0  0
   54.7950   28.5950   44.5160 H   0  0  0  0  0  0  0  0  0  0  0  0
  1  2  1  0
  2  3  2  0
  3  4  1  0
  4  5  2  0
  5  6  1  0
  6  7  1  0
  6  8  2  0
  8  9  1  0
  9 10  1  0
 10 11  2  0
 11 12  1  0
 12 13  2  0
 13 14  1  0
 14 15  2  0
 15 16  1  0
 16 17  1  0
 17 18  2  0
 18 19  1  0
 19 20  1  0
 20 21  2  0
 20 22  1  0
 22 23  1  0
  8  2  1  0
 15 10  1  0
 22 17  1  0
  1 24  1  0
  1 25  1  0
  1 26  1  0
  3 27  1  0
  4 28  1  0
  5 29  1  0
  9 30  1  0
  9 31  1  0
 11 32  1  0
 12 33  1  0
 13 34  1  0
 14 35  1  0
 16 36  1  0
 16 37  1  0
 23 38  1  0
 23 39  1  0
M  CHG  2   9   1  19  -1
M  END
>  <UniqueID>  (46) 
42

>  <SMILES>  (46) 
Cc1cccc(Cl)c1[NH2+]c1ccccc1Cc1n[n-]c(=S)n1N

>  <Energy>  (46) 
86.82911474628366

>  <Genealogy>  (46) 
Cc1cccc(Cl)c1[NH2+]c1ccccc1Cc1n[n-]c(=S)n1N (protonated)
Cc1cccc(Cl)c1[NH2+]c1ccccc1Cc1n[n-]c(=S)n1N (3D coordinates assigned)
Cc1cccc(Cl)c1[NH2+]c1ccccc1Cc1n[n-]c(=S)n1N (optimized conformer: 86.82911474628366 kcal/mol)

>  <smiles>  (46) 
Cc1cccc(Cl)c1Nc1ccccc1Cc1n[nH]c(=S)n1N

>  <score_type>  (46) 
oracle

>  <origin>  (46) 
adg

>  <m_score__min__energy>  (46) 
-8.0500000000000007

>  <m_primary>  (46) 
energy

$$$$
46:0
     RDKit          3D

 34 36  0  0  1  0  0  0  0  0999 V2000
   55.8950   29.7010   42.7510 C   0  0  0  0  0  0  0  0  0  0  0  0
   55.8120   29.8120   44.1880 N   0  0  0  0  0  0  0  0  0  0  0  0
   56.8500   30.1410   44.8700 C   0  0  0  0  0  0  0  0  0  0  0  0
   57.0780   31.4760   45.0050 N   0  0  0  0  0  0  0  0  0  0  0  0
   58.1530   31.8870   45.7110 C   0  0  0  0  0  0  0  0  0  0  0  0
   58.9960   30.9640   46.2800 C   0  0  0  0  0  0  0  0  0  0  0  0
   58.7690   29.5920   46.1460 C   0  0  0  0  0  0  0  0  0  0  0  0
   57.6780   29.2480   45.4280 N   0  0  0  0  0  0  0  0  0  0  0  0
   60.1030   31.3390   47.0080 C   0  0  0  0  0  0  0  0  0  0  0  0
   60.3360   32.7040   47.1440 C   0  0  0  0  0  0  0  0  0  0  0  0
   61.4970   33.1110   47.9080 C   0  0  0  0  0  0  0  0  0  0  0  0
   62.7460   32.9640   47.3190 C   0  0  0  0  0  0  0  0  0  0  0  0
   63.8760   33.3420   48.0150 C   0  0  0  0  0  0  0  0  0  0  0  0
   63.7560   33.8600   49.2910 C   0  0  0  0  0  0  0  0  0  0  0  0
   62.5210   34.0210   49.9120 C   0  0  0  0  0  0  0  0  0  0  0  0
   61.4120   33.6340   49.1880 C   0  0  0  0  0  0  0  0  0  0  0  0
   59.8200   33.8120   49.9180 Cl  0  0  0  0  0  0  0  0  0  0  0  0
   59.4840   33.6270   46.5700 C   0  0  0  0  0  0  0  0  0  0  0  0
   59.7110   34.8590   46.7060 O   0  0  0  0  0  0  0  0  0  0  0  0
   58.4030   33.2040   45.8610 N   0  0  0  0  0  0  0  0  0  0  0  0
   57.5430   34.1970   45.2800 C   0  0  0  0  0  0  0  0  0  0  0  0
   56.5343   28.8461   42.4856 H   0  0  0  0  0  0  0  0  0  0  0  0
   54.8877   29.5483   42.3362 H   0  0  0  0  0  0  0  0  0  0  0  0
   56.3263   30.6240   42.3362 H   0  0  0  0  0  0  0  0  0  0  0  0
   59.4352   28.8411   46.5958 H   0  0  0  0  0  0  0  0  0  0  0  0
   57.4760   28.2370   45.3070 H   0  0  0  0  0  0  0  0  0  0  0  0
   60.7727   30.5934   47.4614 H   0  0  0  0  0  0  0  0  0  0  0  0
   62.8340   32.5489   46.3041 H   0  0  0  0  0  0  0  0  0  0  0  0
   64.8694   33.2314   47.5558 H   0  0  0  0  0  0  0  0  0  0  0  0
   64.6665   34.1546   49.8333 H   0  0  0  0  0  0  0  0  0  0  0  0
   62.4335   34.4352   50.9273 H   0  0  0  0  0  0  0  0  0  0  0  0
   57.0488   34.7676   46.0802 H   0  0  0  0  0  0  0  0  0  0  0  0
   58.1397   34.8799   44.6575 H   0  0  0  0  0  0  0  0  0  0  0  0
   56.7819   33.7039   44.6575 H   0  0  0  0  0  0  0  0  0  0  0  0
  1  2  1  0
  2  3  2  0
  3  4  1  0
  4  5  2  0
  5  6  1  0
  6  7  2  0
  7  8  1  0
  6  9  1  0
  9 10  2  0
 10 11  1  0
 11 12  2  0
 12 13  1  0
 13 14  2  0
 14 15  1  0
 15 16  2  0
 16 17  1  0
 10 18  1  0
 18 19  2  0
 18 20  1  0
 20 21  1  0
  8  3  1  0
 16 11  1  0
 20  5  1  0
  1 22  1  0
  1 23  1  0
  1 24  1  0
  7 25  1  0
  8 26  1  0
  9 27  1  0
 12 28  1  0
 13 29  1  0
 14 30  1  0
 15 31  1  0
 21 32  1  0
 21 33  1  0
 21 34  1  0
M  END
>  <smiles>  (47) 
CN=c1nc2c(c[nH]1)cc(-c1ccccc1Cl)c(=O)n2C

>  <score_type>  (47) 
oracle

>  <origin>  (47) 
adg

>  <m_score__min__energy>  (47) 
-7.3899999999999997

>  <m_primary>  (47) 
energy

$$$$
47:0
     RDKit          3D

 31 32  0  0  0  0  0  0  0  0999 V2000
   55.2600   26.7040   46.0400 N   0  0  0  0  0  0  0  0  0  0  0  0
   56.6480   27.0300   46.1060 C   0  0  0  0  0  0  0  0  0  0  0  0
   57.4550   26.1830   46.5780 O   0  0  0  0  0  0  0  0  0  0  0  0
   57.1380   28.3440   45.6280 C   0  0  0  0  0  0  0  0  0  0  0  0
   56.5390   28.9670   44.5170 C   0  0  0  0  0  0  0  0  0  0  0  0
   57.0060   30.2010   44.0620 C   0  0  0  0  0  0  0  0  0  0  0  0
   58.0690   30.8340   44.7100 C   0  0  0  0  0  0  0  0  0  0  0  0
   58.6700   30.2390   45.8320 C   0  0  0  0  0  0  0  0  0  0  0  0
   59.7810   30.8600   46.5020 N   0  0  0  0  0  0  0  0  0  0  0  0
   59.8870   32.2750   46.7380 C   0  0  0  0  0  0  0  0  0  0  0  0
   58.7340   33.0780   46.6740 C   0  0  0  0  0  0  0  0  0  0  0  0
   58.7990   34.4390   46.9730 C   0  0  0  0  0  0  0  0  0  0  0  0
   60.0120   35.0140   47.3520 C   0  0  0  0  0  0  0  0  0  0  0  0
   61.1640   34.2300   47.4330 C   0  0  0  0  0  0  0  0  0  0  0  0
   61.1190   32.8550   47.1330 C   0  0  0  0  0  0  0  0  0  0  0  0
   62.3700   32.0610   47.1840 C   0  0  0  0  0  0  0  0  0  0  0  0
   63.6330   32.6590   46.8830 N   0  0  0  0  0  0  0  0  0  0  0  0
   62.3280   30.8370   47.4830 O   0  0  0  0  0  0  0  0  0  0  0  0
   58.2090   28.9880   46.2740 C   0  0  0  0  0  0  0  0  0  0  0  0
   54.5860   27.0800   46.7440 H   0  0  0  0  0  0  0  0  0  0  0  0
   55.6975   28.4782   44.0041 H   0  0  0  0  0  0  0  0  0  0  0  0
   56.5349   30.6770   43.1894 H   0  0  0  0  0  0  0  0  0  0  0  0
   58.4372   31.8024   44.3404 H   0  0  0  0  0  0  0  0  0  0  0  0
   60.5400   30.2450   46.8760 H   0  0  0  0  0  0  0  0  0  0  0  0
   57.7723   32.6287   46.3855 H   0  0  0  0  0  0  0  0  0  0  0  0
   57.8928   35.0593   46.9098 H   0  0  0  0  0  0  0  0  0  0  0  0
   60.0608   36.0874   47.5875 H   0  0  0  0  0  0  0  0  0  0  0  0
   62.1163   34.6908   47.7341 H   0  0  0  0  0  0  0  0  0  0  0  0
   64.5000   32.0770   46.8770 H   0  0  0  0  0  0  0  0  0  0  0  0
   63.7230   33.6870   46.7250 H   0  0  0  0  0  0  0  0  0  0  0  0
   58.6918   28.5055   47.1366 H   0  0  0  0  0  0  0  0  0  0  0  0
  1  2  1  0
  2  3  2  0
  2  4  1  0
  4  5  2  0
  5  6  1  0
  6  7  2  0
  7  8  1  0
  8  9  1  0
  9 10  1  0
 10 11  2  0
 11 12  1  0
 12 13  2  0
 13 14  1  0
 14 15  2  0
 15 16  1  0
 16 17  1  0
 16 18  2  0
  8 19  2  0
 19  4  1  0
 15 10  1  0
  1 20  1  0
  5 21  1  0
  6 22  1  0
  7 23  1  0
  9 24  1  0
 11 25  1  0
 12 26  1  0
 13 27  1  0
 14 28  1  0
 17 29  1  0
 17 30  1  0
 19 31  1  0
M  CHG  1   1  -1
M  END
>  <UniqueID>  (48) 
43

>  <SMILES>  (48) 
[NH-]C(=O)c1cccc(Nc2ccccc2C(N)=O)c1

>  <Energy>  (48) 
41.00703821219583

>  <Genealogy>  (48) 
[NH-]C(=O)c1cccc(Nc2ccccc2C(N)=O)c1 (protonated)
[NH-]C(=O)c1cccc(Nc2ccccc2C(N)=O)c1 (3D coordinates assigned)
[NH-]C(=O)c1cccc(Nc2ccccc2C(N)=O)c1 (optimized conformer: 41.00703821219583 kcal/mol)

>  <smiles>  (48) 
NC(=O)c1cccc(Nc2ccccc2C(N)=O)c1

>  <score_type>  (48) 
oracle

>  <origin>  (48) 
adg

>  <m_score__min__energy>  (48) 
-11.48

>  <m_primary>  (48) 
energy

$$$$
48:0
     RDKit          3D

 23 24  0  0  0  0  0  0  0  0999 V2000
   54.6290   29.7270   45.3260 H   0  0  0  0  0  0  0  0  0  0  0  0
   55.5260   29.4560   44.8630 N   0  0  0  0  0  0  0  0  0  0  0  0
   56.2540   30.3240   44.2390 C   0  0  0  0  0  0  0  0  0  0  0  0
   56.2680   30.3520   42.8790 N   0  0  0  0  0  0  0  0  0  0  0  0
   57.0250   31.2470   42.1910 C   0  0  0  0  0  0  0  0  0  0  0  0
   57.0151   31.2432   41.0911 H   0  0  0  0  0  0  0  0  0  0  0  0
   57.8150   32.1710   42.8770 C   0  0  0  0  0  0  0  0  0  0  0  0
   58.4292   32.8935   42.3195 H   0  0  0  0  0  0  0  0  0  0  0  0
   57.8230   32.1750   44.2820 C   0  0  0  0  0  0  0  0  0  0  0  0
   58.6540   33.1490   45.0330 C   0  0  0  0  0  0  0  0  0  0  0  0
   58.4980   34.5350   44.9270 C   0  0  0  0  0  0  0  0  0  0  0  0
   57.7606   35.0527   44.2959 H   0  0  0  0  0  0  0  0  0  0  0  0
   59.6300   35.2770   45.9290 S   0  0  0  0  0  0  0  0  0  0  0  0
   60.2700   33.8120   46.4610 C   0  0  0  0  0  0  0  0  0  0  0  0
   61.2390   33.6710   47.3150 N   0  0  0  0  0  0  0  0  0  0  0  0
   62.6340   33.4690   46.9400 C   0  0  0  0  0  0  0  0  0  0  0  0
   63.2486   33.3800   47.8480 H   0  0  0  0  0  0  0  0  0  0  0  0
   62.7240   32.5485   46.3446 H   0  0  0  0  0  0  0  0  0  0  0  0
   62.9815   34.3262   46.3446 H   0  0  0  0  0  0  0  0  0  0  0  0
   59.6430   32.7620   45.8900 N   0  0  0  0  0  0  0  0  0  0  0  0
   59.8810   31.7690   46.1090 H   0  0  0  0  0  0  0  0  0  0  0  0
   57.0310   31.2350   44.9640 C   0  0  0  0  0  0  0  0  0  0  0  0
   57.0219   31.2154   46.0638 H   0  0  0  0  0  0  0  0  0  0  0  0
  1  2  1  0
  2  3  2  0
  3  4  1  0
  4  5  1  0
  5  6  1  0
  5  7  2  0
  7  8  1  0
  7  9  1  0
  9 10  1  0
 10 11  2  0
 11 12  1  0
 11 13  1  0
 13 14  1  0
 14 15  2  0
 15 16  1  0
 16 17  1  0
 16 18  1  0
 16 19  1  0
 14 20  1  0
 20 21  1  0
  9 22  2  0
 22 23  1  0
 22  3  1  0
 20 10  1  0
M  CHG  1   4  -1
M  END
>  <UniqueID>  (49) 
44

>  <SMILES>  (49) 
[H]/N=c1/cc(-c2cs/c(=N\C)[nH]2)cc[n-]1

>  <Energy>  (49) 
56.30120632014889

>  <Genealogy>  (49) 
CN=c1[nH]c(-c2cc[n-]c(=N)c2)cs1 (protonated)
[H]/N=c1/cc(-c2cs/c(=N\C)[nH]2)cc[n-]1 (cis-trans isomerization)
[H]/N=c1/cc(-c2cs/c(=N\C)[nH]2)cc[n-]1 (3D coordinates assigned)
[H]/N=c1/cc(-c2cs/c(=N\C)[nH]2)cc[n-]1 (optimized conformer: 56.30120632014889 kcal/mol)

>  <smiles>  (49) 
CN=c1[nH]c(-c2cc[nH]c(=N)c2)cs1

>  <score_type>  (49) 
oracle

>  <origin>  (49) 
adg

>  <m_score__min__energy>  (49) 
-8.7799999999999994

>  <m_primary>  (49) 
energy

$$$$
49:0
     RDKit          3D

 50 53  0  0  0  0  0  0  0  0999 V2000
   57.6070   29.8980   44.1510 C   0  0  0  0  0  0  0  0  0  0  0  0
   56.8690   31.2320   44.1660 C   0  0  0  0  0  0  0  0  0  0  0  0
   57.6050   32.2060   44.9670 N   0  0  0  0  0  0  0  0  0  0  0  0
   58.7630   31.9790   45.6130 C   0  0  0  0  0  0  0  0  0  0  0  0
   59.1680   33.1670   46.1950 C   0  0  0  0  0  0  0  0  0  0  0  0
   60.3880   33.4080   47.0040 C   0  0  0  0  0  0  0  0  0  0  0  0
   61.6640   33.5090   46.3760 C   0  0  0  0  0  0  0  0  0  0  0  0
   62.8260   33.7330   47.1350 C   0  0  0  0  0  0  0  0  0  0  0  0
   62.6920   33.8540   48.5120 C   0  0  0  0  0  0  0  0  0  0  0  0
   63.6410   34.0680   49.3910 O   0  0  0  0  0  0  0  0  0  0  0  0
   63.0670   34.1110   50.5800 C   0  0  0  0  0  0  0  0  0  0  0  0
   63.8150   34.3580   51.8530 C   0  0  0  0  0  0  0  0  0  0  0  0
   65.0970   33.4990   51.8940 C   0  0  0  0  0  0  0  0  0  0  0  0
   65.3070   32.5950   50.7270 N   0  0  2  0  0  0  0  0  0  0  0  0
   64.7110   31.2600   50.9250 C   0  0  0  0  0  0  0  0  0  0  0  0
   65.8430   30.2840   51.2610 C   0  0  0  0  0  0  0  0  0  0  0  0
   67.1430   31.0340   50.9960 C   0  0  0  0  0  0  0  0  0  0  0  0
   66.7070   32.3280   50.3130 C   0  0  2  0  0  0  0  0  0  0  0  0
   67.6970   33.4930   50.4930 C   0  0  0  0  0  0  0  0  0  0  0  0
   61.6890   33.9240   50.4750 C   0  0  0  0  0  0  0  0  0  0  0  0
   61.4740   33.7610   49.1260 C   0  0  0  0  0  0  0  0  0  0  0  0
   60.2990   33.5410   48.4120 C   0  0  0  0  0  0  0  0  0  0  0  0
   58.1910   34.0870   45.8420 C   0  0  0  0  0  0  0  0  0  0  0  0
   57.2580   33.4780   45.0860 N   0  0  0  0  0  0  0  0  0  0  0  0
   57.7894   29.5683   45.1844 H   0  0  0  0  0  0  0  0  0  0  0  0
   56.9961   29.1469   43.6289 H   0  0  0  0  0  0  0  0  0  0  0  0
   58.5679   30.0164   43.6289 H   0  0  0  0  0  0  0  0  0  0  0  0
   56.7737   31.6062   43.1360 H   0  0  0  0  0  0  0  0  0  0  0  0
   55.8715   31.0856   44.6060 H   0  0  0  0  0  0  0  0  0  0  0  0
   59.2946   31.0176   45.6687 H   0  0  0  0  0  0  0  0  0  0  0  0
   61.7403   33.4103   45.2831 H   0  0  0  0  0  0  0  0  0  0  0  0
   63.8116   33.8101   46.6527 H   0  0  0  0  0  0  0  0  0  0  0  0
   64.0885   35.4218   51.9131 H   0  0  0  0  0  0  0  0  0  0  0  0
   63.1737   34.0861   52.7044 H   0  0  0  0  0  0  0  0  0  0  0  0
   65.9586   34.1803   51.9531 H   0  0  0  0  0  0  0  0  0  0  0  0
   64.9886   32.8401   52.7681 H   0  0  0  0  0  0  0  0  0  0  0  0
   64.8180   33.0520   49.9180 H   0  0  0  0  0  0  0  0  0  0  0  0
   63.9877   31.2927   51.7531 H   0  0  0  0  0  0  0  0  0  0  0  0
   64.1840   30.9369   50.0151 H   0  0  0  0  0  0  0  0  0  0  0  0
   65.7854   29.9821   52.3172 H   0  0  0  0  0  0  0  0  0  0  0  0
   65.7770   29.3690   50.6541 H   0  0  0  0  0  0  0  0  0  0  0  0
   67.6664   31.2497   51.9392 H   0  0  0  0  0  0  0  0  0  0  0  0
   67.8431   30.4514   50.3792 H   0  0  0  0  0  0  0  0  0  0  0  0
   66.7260   32.2124   49.2193 H   0  0  0  0  0  0  0  0  0  0  0  0
   67.8543   33.6781   51.5659 H   0  0  0  0  0  0  0  0  0  0  0  0
   68.6565   33.2351   50.0209 H   0  0  0  0  0  0  0  0  0  0  0  0
   67.2877   34.3983   50.0209 H   0  0  0  0  0  0  0  0  0  0  0  0
   60.9448   33.9100   51.2849 H   0  0  0  0  0  0  0  0  0  0  0  0
   59.3291   33.4724   48.9264 H   0  0  0  0  0  0  0  0  0  0  0  0
   58.1804   35.1475   46.1340 H   0  0  0  0  0  0  0  0  0  0  0  0
  1  2  1  0
  2  3  1  0
  3  4  1  0
  4  5  2  0
  5  6  1  0
  6  7  2  0
  7  8  1  0
  8  9  2  0
  9 10  1  0
 10 11  1  0
 11 12  1  0
 12 13  1  0
 13 14  1  0
 14 15  1  0
 15 16  1  0
 16 17  1  0
 17 18  1  0
 18 19  1  0
 11 20  2  0
 20 21  1  0
 21 22  2  0
  5 23  1  0
 23 24  2  0
 24  3  1  0
 22  6  1  0
 21  9  1  0
 18 14  1  0
  1 25  1  0
  1 26  1  0
  1 27  1  0
  2 28  1  0
  2 29  1  0
  4 30  1  0
  7 31  1  0
  8 32  1  0
 12 33  1  0
 12 34  1  0
 13 35  1  0
 13 36  1  0
 14 37  1  6
 15 38  1  0
 15 39  1  0
 16 40  1  0
 16 41  1  0
 17 42  1  0
 17 43  1  0
 18 44  1  6
 19 45  1  0
 19 46  1  0
 19 47  1  0
 20 48  1  0
 22 49  1  0
 23 50  1  0
M  CHG  1  14   1
M  END
>  <UniqueID>  (50) 
45

>  <SMILES>  (50) 
CCn1cc(-c2ccc3oc(CC[N@@H+]4CCC[C@@H]4C)cc3c2)cn1

>  <Energy>  (50) 
122.8560657386666

>  <Genealogy>  (50) 
CCn1cc(-c2ccc3oc(CC[NH+]4CCCC4C)cc3c2)cn1 (protonated)
CCn1cc(-c2ccc3oc(CC[N@@H+]4CCC[C@@H]4C)cc3c2)cn1 (chirality)
CCn1cc(-c2ccc3oc(CC[N@@H+]4CCC[C@@H]4C)cc3c2)cn1 (3D coordinates assigned)
CCn1cc(-c2ccc3oc(CC[N@@H+]4CCC[C@@H]4C)cc3c2)cn1 (nonaromatic ring conformer: 122.8560657386666 kcal/mol)

>  <smiles>  (50) 
CCn1cc(-c2ccc3oc(CCN4CCCC4C)cc3c2)cn1

>  <score_type>  (50) 
oracle

>  <origin>  (50) 
adg

>  <m_score__min__energy>  (50) 
-5.8700000000000001

>  <m_primary>  (50) 
energy

$$$$
50:0
     RDKit          3D

 38 41  0  0  0  0  0  0  0  0999 V2000
   63.4640   33.4040   49.1730 C   0  0  0  0  0  0  0  0  0  0  0  0
   63.8690   33.1310   47.8630 C   0  0  0  0  0  0  0  0  0  0  0  0
   62.9740   33.2980   46.8020 C   0  0  0  0  0  0  0  0  0  0  0  0
   61.6650   33.7400   47.0460 C   0  0  0  0  0  0  0  0  0  0  0  0
   60.7580   33.9100   45.9890 C   0  0  0  0  0  0  0  0  0  0  0  0
   59.4470   34.3460   46.2410 C   0  0  0  0  0  0  0  0  0  0  0  0
   58.4890   34.5630   45.1020 C   0  0  0  0  0  0  0  0  0  0  0  0
   57.2780   33.6370   45.2340 C   0  0  0  0  0  0  0  0  0  0  0  0
   57.6580   32.2230   44.9090 C   0  0  0  0  0  0  0  0  0  0  0  0
   57.5810   31.6090   43.6640 C   0  0  0  0  0  0  0  0  0  0  0  0
   58.0790   30.3520   43.7260 N   0  0  0  0  0  0  0  0  0  0  0  0
   58.4810   30.1750   44.9970 C   0  0  0  0  0  0  0  0  0  0  0  0
   59.0810   29.0410   45.5430 C   0  0  0  0  0  0  0  0  0  0  0  0
   59.4440   29.0790   46.9020 C   0  0  0  0  0  0  0  0  0  0  0  0
   59.2060   30.2380   47.6740 C   0  0  0  0  0  0  0  0  0  0  0  0
   58.6000   31.3690   47.0960 C   0  0  0  0  0  0  0  0  0  0  0  0
   58.2460   31.2980   45.7480 C   0  0  0  0  0  0  0  0  0  0  0  0
   59.0540   34.6330   47.5580 C   0  0  0  0  0  0  0  0  0  0  0  0
   59.9490   34.4640   48.6180 C   0  0  0  0  0  0  0  0  0  0  0  0
   61.2550   34.0180   48.3730 C   0  0  0  0  0  0  0  0  0  0  0  0
   62.1630   33.8470   49.4300 C   0  0  0  0  0  0  0  0  0  0  0  0
   64.1715   33.2698   50.0045 H   0  0  0  0  0  0  0  0  0  0  0  0
   64.8942   32.7840   47.6666 H   0  0  0  0  0  0  0  0  0  0  0  0
   63.2971   33.0822   45.7729 H   0  0  0  0  0  0  0  0  0  0  0  0
   61.0757   33.7005   44.9569 H   0  0  0  0  0  0  0  0  0  0  0  0
   58.1474   35.6086   45.1109 H   0  0  0  0  0  0  0  0  0  0  0  0
   59.0052   34.3398   44.1566 H   0  0  0  0  0  0  0  0  0  0  0  0
   56.8993   33.6817   46.2658 H   0  0  0  0  0  0  0  0  0  0  0  0
   56.5005   33.9666   44.5292 H   0  0  0  0  0  0  0  0  0  0  0  0
   57.1730   32.0785   42.7567 H   0  0  0  0  0  0  0  0  0  0  0  0
   58.1490   29.6690   42.9400 H   0  0  0  0  0  0  0  0  0  0  0  0
   59.2647   28.1455   44.9311 H   0  0  0  0  0  0  0  0  0  0  0  0
   59.9161   28.2006   47.3663 H   0  0  0  0  0  0  0  0  0  0  0  0
   59.4965   30.2565   48.7348 H   0  0  0  0  0  0  0  0  0  0  0  0
   58.4118   32.2778   47.6865 H   0  0  0  0  0  0  0  0  0  0  0  0
   58.0340   34.9936   47.7570 H   0  0  0  0  0  0  0  0  0  0  0  0
   59.6277   34.6816   49.6473 H   0  0  0  0  0  0  0  0  0  0  0  0
   61.8503   34.0620   50.4625 H   0  0  0  0  0  0  0  0  0  0  0  0
  1  2  2  0
  2  3  1  0
  3  4  2  0
  4  5  1  0
  5  6  2  0
  6  7  1  0
  7  8  1  0
  8  9  1  0
  9 10  2  0
 10 11  1  0
 11 12  1  0
 12 13  2  0
 13 14  1  0
 14 15  2  0
 15 16  1  0
 16 17  2  0
  6 18  1  0
 18 19  2  0
 19 20  1  0
 20 21  2  0
 21  1  1  0
 20  4  1  0
 17  9  1  0
 17 12  1  0
  1 22  1  0
  2 23  1  0
  3 24  1  0
  5 25  1  0
  7 26  1  0
  7 27  1  0
  8 28  1  0
  8 29  1  0
 10 30  1  0
 11 31  1  0
 13 32  1  0
 14 33  1  0
 15 34  1  0
 16 35  1  0
 18 36  1  0
 19 37  1  0
 21 38  1  0
M  END
>  <UniqueID>  (51) 
46

>  <SMILES>  (51) 
c1ccc2cc(CCc3c[nH]c4ccccc34)ccc2c1

>  <Energy>  (51) 
74.40819947547324

>  <Genealogy>  (51) 
c1ccc2cc(CCc3c[nH]c4ccccc34)ccc2c1 (3D coordinates assigned)
c1ccc2cc(CCc3c[nH]c4ccccc34)ccc2c1 (optimized conformer: 74.40819947547324 kcal/mol)

>  <smiles>  (51) 
c1ccc2cc(CCc3c[nH]c4ccccc34)ccc2c1

>  <score_type>  (51) 
oracle

>  <origin>  (51) 
adg

>  <m_score__min__energy>  (51) 
-8.9000000000000004

>  <m_primary>  (51) 
energy

$$$$
51:0
     RDKit          3D

 38 41  0  0  0  0  0  0  0  0999 V2000
   63.3676   33.5721   47.7433 H   0  0  0  0  0  0  0  0  0  0  0  0
   62.4960   32.9750   47.4370 C   0  0  0  0  0  0  0  0  0  0  0  0
   62.5370   31.5820   47.5260 C   0  0  0  0  0  0  0  0  0  0  0  0
   63.4421   31.0829   47.9025 H   0  0  0  0  0  0  0  0  0  0  0  0
   61.4310   30.8200   47.1380 C   0  0  0  0  0  0  0  0  0  0  0  0
   61.4704   29.7232   47.2113 H   0  0  0  0  0  0  0  0  0  0  0  0
   60.2670   31.4470   46.6540 C   0  0  0  0  0  0  0  0  0  0  0  0
   59.0890   30.6420   46.2420 C   0  0  0  0  0  0  0  0  0  0  0  0
   58.1390   31.1750   45.3260 C   0  0  0  0  0  0  0  0  0  0  0  0
   58.2813   32.1886   44.9232 H   0  0  0  0  0  0  0  0  0  0  0  0
   57.0200   30.4200   44.9300 C   0  0  0  0  0  0  0  0  0  0  0  0
   56.2809   30.8271   44.2244 H   0  0  0  0  0  0  0  0  0  0  0  0
   56.8790   29.1420   45.4600 C   0  0  0  0  0  0  0  0  0  0  0  0
   55.8990   28.2600   45.2230 N   0  0  0  0  0  0  0  0  0  0  0  0
   56.2710   27.2000   45.9900 C   0  0  0  0  0  0  0  0  0  0  0  0
   55.5760   26.1050   46.0910 N   0  0  0  0  0  0  0  0  0  0  0  0
   55.8380   24.8580   45.4260 C   0  0  0  0  0  0  0  0  0  0  0  0
   54.9890   23.7440   45.5650 C   0  0  0  0  0  0  0  0  0  0  0  0
   54.1081   23.8056   46.2210 H   0  0  0  0  0  0  0  0  0  0  0  0
   55.2600   22.5590   44.8730 C   0  0  0  0  0  0  0  0  0  0  0  0
   54.5943   21.6912   44.9908 H   0  0  0  0  0  0  0  0  0  0  0  0
   56.3780   22.4730   44.0290 C   0  0  0  0  0  0  0  0  0  0  0  0
   56.6460   21.2150   43.2560 C   0  0  0  0  0  0  0  0  0  0  0  0
   56.8228   20.3851   43.9560 H   0  0  0  0  0  0  0  0  0  0  0  0
   55.7774   20.9817   42.6227 H   0  0  0  0  0  0  0  0  0  0  0  0
   57.5343   21.3560   42.6227 H   0  0  0  0  0  0  0  0  0  0  0  0
   57.1950   23.5990   43.8530 C   0  0  0  0  0  0  0  0  0  0  0  0
   58.0544   23.5498   43.1682 H   0  0  0  0  0  0  0  0  0  0  0  0
   56.9230   24.7830   44.5430 C   0  0  0  0  0  0  0  0  0  0  0  0
   57.5656   25.6629   44.3918 H   0  0  0  0  0  0  0  0  0  0  0  0
   57.4170   27.3830   46.6960 N   0  0  0  0  0  0  0  0  0  0  0  0
   57.7810   28.6230   46.3350 C   0  0  0  0  0  0  0  0  0  0  0  0
   58.9000   29.3360   46.7550 C   0  0  0  0  0  0  0  0  0  0  0  0
   59.6168   28.8976   47.4649 H   0  0  0  0  0  0  0  0  0  0  0  0
   60.2380   32.8520   46.5710 C   0  0  0  0  0  0  0  0  0  0  0  0
   59.3354   33.3582   46.1981 H   0  0  0  0  0  0  0  0  0  0  0  0
   61.3480   33.6090   46.9590 C   0  0  0  0  0  0  0  0  0  0  0  0
   61.3163   34.7062   46.8874 H   0  0  0  0  0  0  0  0  0  0  0  0
  1  2  1  0
  2  3  2  0
  3  4  1  0
  3  5  1  0
  5  6  1  0
  5  7  2  0
  7  8  1  0
  8  9  2  0
  9 10  1  0
  9 11  1  0
 11 12  1  0
 11 13  2  0
 13 14  1  0
 14 15  1  0
 15 16  2  0
 16 17  1  0
 17 18  2  0
 18 19  1  0
 18 20  1  0
 20 21  1  0
 20 22  2  0
 22 23  1  0
 23 24  1  0
 23 25  1  0
 23 26  1  0
 22 27  1  0
 27 28  1  0
 27 29  2  0
 29 30  1  0
 15 31  1  0
 31 32  1  0
 32 33  2  0
 33 34  1  0
  7 35  1  0
 35 36  1  0
 35 37  2  0
 37 38  1  0
 37  2  1  0
 33  8  1  0
 32 13  1  0
 29 17  1  0
M  CHG  2  14  -1  31  -1
M  END
>  <UniqueID>  (52) 
47

>  <SMILES>  (52) 
Cc1ccc(/N=c2\[n-]c3ccc(-c4ccccc4)cc3[n-]2)cc1

>  <Energy>  (52) 
87.97474259676049

>  <Genealogy>  (52) 
Cc1ccc(N=c2[n-]c3ccc(-c4ccccc4)cc3[n-]2)cc1 (protonated)
Cc1ccc(/N=c2\[n-]c3ccc(-c4ccccc4)cc3[n-]2)cc1 (cis-trans isomerization)
Cc1ccc(/N=c2\[n-]c3ccc(-c4ccccc4)cc3[n-]2)cc1 (3D coordinates assigned)
Cc1ccc(/N=c2\[n-]c3ccc(-c4ccccc4)cc3[n-]2)cc1 (optimized conformer: 87.97474259676049 kcal/mol)

>  <smiles>  (52) 
Cc1ccc(N=c2[nH]c3ccc(-c4ccccc4)cc3[nH]2)cc1

>  <score_type>  (52) 
oracle

>  <origin>  (52) 
adg

>  <m_score__min__energy>  (52) 
-10.98

>  <m_primary>  (52) 
energy

$$$$
52:0
     RDKit          3D

 21 22  0  0  0  0  0  0  0  0999 V2000
   56.6450   29.5030   42.6850 C   0  0  0  0  0  0  0  0  0  0  0  0
   57.2180   30.5460   43.5920 C   0  0  0  0  0  0  0  0  0  0  0  0
   57.3910   30.3540   45.2630 S   0  0  0  0  0  0  0  0  0  0  0  0
   58.0630   31.8680   45.5210 C   0  0  0  0  0  0  0  0  0  0  0  0
   58.4780   32.4280   46.7270 C   0  0  0  0  0  0  0  0  0  0  0  0
   59.0170   33.7220   46.7080 C   0  0  0  0  0  0  0  0  0  0  0  0
   59.1290   34.4280   45.4950 C   0  0  0  0  0  0  0  0  0  0  0  0
   58.7030   33.8440   44.2900 C   0  0  0  0  0  0  0  0  0  0  0  0
   58.1660   32.5490   44.3150 C   0  0  0  0  0  0  0  0  0  0  0  0
   57.6900   31.8110   43.2140 C   0  0  0  0  0  0  0  0  0  0  0  0
   57.6960   32.3320   41.8040 C   0  0  0  0  0  0  0  0  0  0  0  0
   56.2019   28.6964   43.2876 H   0  0  0  0  0  0  0  0  0  0  0  0
   55.8688   29.9554   42.0503 H   0  0  0  0  0  0  0  0  0  0  0  0
   57.4431   29.0904   42.0503 H   0  0  0  0  0  0  0  0  0  0  0  0
   58.3852   31.8693   47.6700 H   0  0  0  0  0  0  0  0  0  0  0  0
   59.3541   34.1881   47.6456 H   0  0  0  0  0  0  0  0  0  0  0  0
   59.5527   35.4431   45.4906 H   0  0  0  0  0  0  0  0  0  0  0  0
   58.7895   34.3944   43.3415 H   0  0  0  0  0  0  0  0  0  0  0  0
   57.7087   33.4318   41.8195 H   0  0  0  0  0  0  0  0  0  0  0  0
   58.5899   31.9624   41.2803 H   0  0  0  0  0  0  0  0  0  0  0  0
   56.7938   31.9831   41.2803 H   0  0  0  0  0  0  0  0  0  0  0  0
  1  2  1  0
  2  3  1  0
  3  4  1  0
  4  5  2  0
  5  6  1  0
  6  7  2  0
  7  8  1  0
  8  9  2  0
  9 10  1  0
 10 11  1  0
 10  2  2  0
  9  4  1  0
  1 12  1  0
  1 13  1  0
  1 14  1  0
  5 15  1  0
  6 16  1  0
  7 17  1  0
  8 18  1  0
 11 19  1  0
 11 20  1  0
 11 21  1  0
M  END
>  <UniqueID>  (53) 
48

>  <SMILES>  (53) 
Cc1sc2ccccc2c1C

>  <Energy>  (53) 
50.81224133274775

>  <Genealogy>  (53) 
Cc1sc2ccccc2c1C (3D coordinates assigned)
Cc1sc2ccccc2c1C (optimized conformer: 50.81224133274775 kcal/mol)

>  <smiles>  (53) 
Cc1sc2ccccc2c1C

>  <score_type>  (53) 
oracle

>  <origin>  (53) 
adg

>  <m_score__min__energy>  (53) 
-5.54

>  <m_primary>  (53) 
energy

$$$$
53:0
     RDKit          3D

 38 39  0  0  0  0  0  0  0  0999 V2000
   57.0160   28.2570   45.4440 C   0  0  0  0  0  0  0  0  0  0  0  0
   56.3620   29.4950   45.1900 O   0  0  0  0  0  0  0  0  0  0  0  0
   56.9300   30.5610   44.4760 C   0  0  0  0  0  0  0  0  0  0  0  0
   56.8280   30.5520   43.0810 C   0  0  0  0  0  0  0  0  0  0  0  0
   57.3840   31.5830   42.3230 C   0  0  0  0  0  0  0  0  0  0  0  0
   58.0470   32.6380   42.9550 C   0  0  0  0  0  0  0  0  0  0  0  0
   58.1550   32.6750   44.3500 C   0  0  0  0  0  0  0  0  0  0  0  0
   58.8300   33.7600   44.9300 O   0  0  0  0  0  0  0  0  0  0  0  0
   58.6170   34.2590   46.2510 C   0  0  0  0  0  0  0  0  0  0  0  0
   59.8030   33.9500   47.1290 C   0  0  0  0  0  0  0  0  0  0  0  0
   59.8140   34.3890   48.2720 O   0  0  0  0  0  0  0  0  0  0  0  0
   60.9230   33.1680   46.6370 N   0  0  0  0  0  0  0  0  0  0  0  0
   60.9520   31.8230   47.2810 C   0  0  0  0  0  0  0  0  0  0  0  0
   61.9630   31.7370   48.4340 C   0  0  0  0  0  0  0  0  0  0  0  0
   63.3890   32.0440   47.9420 C   0  0  0  0  0  0  0  0  0  0  0  0
   63.4130   33.0350   46.7660 C   0  0  0  0  0  0  0  0  0  0  0  0
   62.1800   33.9460   46.7890 C   0  0  0  0  0  0  0  0  0  0  0  0
   57.5960   31.6290   45.1110 C   0  0  0  0  0  0  0  0  0  0  0  0
   57.0980   28.1017   46.5299 H   0  0  0  0  0  0  0  0  0  0  0  0
   56.4336   27.4366   44.9992 H   0  0  0  0  0  0  0  0  0  0  0  0
   58.0219   28.2757   44.9992 H   0  0  0  0  0  0  0  0  0  0  0  0
   56.3052   29.7254   42.5775 H   0  0  0  0  0  0  0  0  0  0  0  0
   57.3002   31.5652   41.2263 H   0  0  0  0  0  0  0  0  0  0  0  0
   58.4874   33.4456   42.3518 H   0  0  0  0  0  0  0  0  0  0  0  0
   58.4727   35.3486   46.2076 H   0  0  0  0  0  0  0  0  0  0  0  0
   57.7246   33.7752   46.6748 H   0  0  0  0  0  0  0  0  0  0  0  0
   60.7890   33.0080   45.6110 H   0  0  0  0  0  0  0  0  0  0  0  0
   59.9495   31.6004   47.6752 H   0  0  0  0  0  0  0  0  0  0  0  0
   61.2601   31.0957   46.5154 H   0  0  0  0  0  0  0  0  0  0  0  0
   61.6858   32.4653   49.2104 H   0  0  0  0  0  0  0  0  0  0  0  0
   61.9450   30.7149   48.8401 H   0  0  0  0  0  0  0  0  0  0  0  0
   63.9636   32.4739   48.7757 H   0  0  0  0  0  0  0  0  0  0  0  0
   63.8280   31.0994   47.5883 H   0  0  0  0  0  0  0  0  0  0  0  0
   64.3192   33.6546   46.8363 H   0  0  0  0  0  0  0  0  0  0  0  0
   63.4085   32.4633   45.8262 H   0  0  0  0  0  0  0  0  0  0  0  0
   62.1524   34.4855   47.7472 H   0  0  0  0  0  0  0  0  0  0  0  0
   62.2547   34.6480   45.9454 H   0  0  0  0  0  0  0  0  0  0  0  0
   57.6799   31.6459   46.2077 H   0  0  0  0  0  0  0  0  0  0  0  0
  1  2  1  0
  2  3  1  0
  3  4  2  0
  4  5  1  0
  5  6  2  0
  6  7  1  0
  7  8  1  0
  8  9  1  0
  9 10  1  0
 10 11  2  0
 10 12  1  0
 12 13  1  0
 13 14  1  0
 14 15  1  0
 15 16  1  0
 16 17  1  0
  7 18  2  0
 18  3  1  0
 17 12  1  0
  1 19  1  0
  1 20  1  0
  1 21  1  0
  4 22  1  0
  5 23  1  0
  6 24  1  0
  9 25  1  0
  9 26  1  0
 12 27  1  0
 13 28  1  0
 13 29  1  0
 14 30  1  0
 14 31  1  0
 15 32  1  0
 15 33  1  0
 16 34  1  0
 16 35  1  0
 17 36  1  0
 17 37  1  0
 18 38  1  0
M  CHG  1  12   1
M  END
>  <UniqueID>  (54) 
49

>  <SMILES>  (54) 
COc1cccc(OCC(=O)[NH+]2CCCCC2)c1

>  <Energy>  (54) 
41.514330199514156

>  <Genealogy>  (54) 
COc1cccc(OCC(=O)[NH+]2CCCCC2)c1 (protonated)
COc1cccc(OCC(=O)[NH+]2CCCCC2)c1 (3D coordinates assigned)
COc1cccc(OCC(=O)[NH+]2CCCCC2)c1 (nonaromatic ring conformer: 41.514330199514156 kcal/mol)

>  <smiles>  (54) 
COc1cccc(OCC(=O)N2CCCCC2)c1

>  <score_type>  (54) 
oracle

>  <origin>  (54) 
adg

>  <m_score__min__energy>  (54) 
-5.4000000000000004

>  <m_primary>  (54) 
energy

$$$$
54:0
     RDKit          3D

 48 50  0  0  0  0  0  0  0  0999 V2000
   58.7830   34.4100   45.1650 F   0  0  0  0  0  0  0  0  0  0  0  0
   59.0090   34.0460   46.4510 C   0  0  0  0  0  0  0  0  0  0  0  0
   58.1780   33.1050   47.0680 C   0  0  0  0  0  0  0  0  0  0  0  0
   58.4110   32.7270   48.3940 C   0  0  0  0  0  0  0  0  0  0  0  0
   59.4730   33.2960   49.1170 C   0  0  0  0  0  0  0  0  0  0  0  0
   59.7260   32.8950   50.5160 C   0  0  0  0  0  0  0  0  0  0  0  0
   58.9010   33.6370   51.7220 S   0  0  0  0  0  0  0  0  0  0  0  0
   60.6550   31.8500   50.8440 N   0  0  0  0  0  0  0  0  0  0  0  0
   61.7330   31.4490   49.9350 C   0  0  0  0  0  0  0  0  0  0  0  0
   61.2360   30.4530   48.8680 C   0  0  2  0  0  0  0  0  0  0  0  0
   61.3180   31.0810   47.4660 C   0  0  0  0  0  0  0  0  0  0  0  0
   60.8550   30.1040   46.3590 C   0  0  0  0  0  0  0  0  0  0  0  0
   59.9890   29.0090   46.8710 N   0  0  2  0  0  0  0  0  0  0  0  0
   59.3120   28.2660   45.7780 C   0  0  0  0  0  0  0  0  0  0  0  0
   58.2250   29.0480   45.0630 C   0  0  0  0  0  0  0  0  0  0  0  0
   56.8810   28.6440   45.1500 C   0  0  0  0  0  0  0  0  0  0  0  0
   55.8840   29.3600   44.4810 C   0  0  0  0  0  0  0  0  0  0  0  0
   56.2190   30.4760   43.7100 C   0  0  0  0  0  0  0  0  0  0  0  0
   57.5540   30.8730   43.6010 C   0  0  0  0  0  0  0  0  0  0  0  0
   58.5550   30.1600   44.2680 C   0  0  0  0  0  0  0  0  0  0  0  0
   59.0460   29.5000   47.8970 C   0  0  0  0  0  0  0  0  0  0  0  0
   59.7920   29.9740   49.1640 C   0  0  0  0  0  0  0  0  0  0  0  0
   60.3090   34.2310   48.4870 C   0  0  0  0  0  0  0  0  0  0  0  0
   60.0750   34.6070   47.1600 C   0  0  0  0  0  0  0  0  0  0  0  0
   57.3403   32.6619   46.5095 H   0  0  0  0  0  0  0  0  0  0  0  0
   57.7600   31.9809   48.8732 H   0  0  0  0  0  0  0  0  0  0  0  0
   60.6490   31.4860   51.8240 H   0  0  0  0  0  0  0  0  0  0  0  0
   62.1267   32.3443   49.4315 H   0  0  0  0  0  0  0  0  0  0  0  0
   62.5165   30.9547   50.5281 H   0  0  0  0  0  0  0  0  0  0  0  0
   61.8936   29.5718   48.9015 H   0  0  0  0  0  0  0  0  0  0  0  0
   60.6771   31.9747   47.4403 H   0  0  0  0  0  0  0  0  0  0  0  0
   62.3701   31.3366   47.2719 H   0  0  0  0  0  0  0  0  0  0  0  0
   60.2913   30.6721   45.6043 H   0  0  0  0  0  0  0  0  0  0  0  0
   61.7568   29.6377   45.9355 H   0  0  0  0  0  0  0  0  0  0  0  0
   60.6160   28.3060   47.3330 H   0  0  0  0  0  0  0  0  0  0  0  0
   60.0719   27.9779   45.0367 H   0  0  0  0  0  0  0  0  0  0  0  0
   58.8183   27.4020   46.2468 H   0  0  0  0  0  0  0  0  0  0  0  0
   56.6128   27.7602   45.7474 H   0  0  0  0  0  0  0  0  0  0  0  0
   54.8334   29.0441   44.5618 H   0  0  0  0  0  0  0  0  0  0  0  0
   55.4323   31.0416   43.1893 H   0  0  0  0  0  0  0  0  0  0  0  0
   57.8182   31.7482   42.9893 H   0  0  0  0  0  0  0  0  0  0  0  0
   59.6057   30.4705   44.1704 H   0  0  0  0  0  0  0  0  0  0  0  0
   58.4724   30.3422   47.4827 H   0  0  0  0  0  0  0  0  0  0  0  0
   58.3764   28.6735   48.1771 H   0  0  0  0  0  0  0  0  0  0  0  0
   59.2302   30.8073   49.6113 H   0  0  0  0  0  0  0  0  0  0  0  0
   59.8620   29.1150   49.8475 H   0  0  0  0  0  0  0  0  0  0  0  0
   61.1526   34.6704   49.0396 H   0  0  0  0  0  0  0  0  0  0  0  0
   60.7305   35.3448   46.6741 H   0  0  0  0  0  0  0  0  0  0  0  0
  1  2  1  0
  2  3  2  0
  3  4  1  0
  4  5  2  0
  5  6  1  0
  6  7  2  0
  6  8  1  0
  8  9  1  0
  9 10  1  0
 10 11  1  0
 11 12  1  0
 12 13  1  0
 13 14  1  0
 14 15  1  0
 15 16  2  0
 16 17  1  0
 17 18  2  0
 18 19  1  0
 19 20  2  0
 13 21  1  0
 21 22  1  0
  5 23  1  0
 23 24  2  0
 24  2  1  0
 22 10  1  0
 20 15  1  0
  3 25  1  0
  4 26  1  0
  8 27  1  0
  9 28  1  0
  9 29  1  0
 10 30  1  6
 11 31  1  0
 11 32  1  0
 12 33  1  0
 12 34  1  0
 13 35  1  1
 14 36  1  0
 14 37  1  0
 16 38  1  0
 17 39  1  0
 18 40  1  0
 19 41  1  0
 20 42  1  0
 21 43  1  0
 21 44  1  0
 22 45  1  0
 22 46  1  0
 23 47  1  0
 24 48  1  0
M  CHG  1  13   1
M  END
>  <UniqueID>  (55) 
50

>  <SMILES>  (55) 
Fc1ccc(C(=S)NCC2CC[NH+](Cc3ccccc3)CC2)cc1

>  <Energy>  (55) 
61.4517706982144

>  <Genealogy>  (55) 
Fc1ccc(C(=S)NCC2CC[NH+](Cc3ccccc3)CC2)cc1 (protonated)
Fc1ccc(C(=S)NCC2CC[NH+](Cc3ccccc3)CC2)cc1 (3D coordinates assigned)
Fc1ccc(C(=S)NCC2CC[NH+](Cc3ccccc3)CC2)cc1 (nonaromatic ring conformer: 61.4517706982144 kcal/mol)

>  <smiles>  (55) 
Fc1ccc(C(=S)NCC2CCN(Cc3ccccc3)CC2)cc1

>  <score_type>  (55) 
oracle

>  <origin>  (55) 
adg

>  <m_score__min__energy>  (55) 
-6.4400000000000004

>  <m_primary>  (55) 
energy

$$$$
55:0
     RDKit          3D

 27 28  0  0  0  0  0  0  0  0999 V2000
   59.6090   35.4680   45.6390 C   0  0  0  0  0  0  0  0  0  0  0  0
   58.6390   34.7500   44.8840 O   0  0  0  0  0  0  0  0  0  0  0  0
   58.4640   33.3590   44.9400 C   0  0  0  0  0  0  0  0  0  0  0  0
   57.8160   32.6370   43.9200 C   0  0  0  0  0  0  0  0  0  0  0  0
   57.6670   31.2510   44.0230 C   0  0  0  0  0  0  0  0  0  0  0  0
   58.1690   30.5630   45.1390 C   0  0  0  0  0  0  0  0  0  0  0  0
   57.9980   29.0970   45.2590 C   0  0  0  0  0  0  0  0  0  0  0  0
   56.7190   28.5790   45.5280 C   0  0  0  0  0  0  0  0  0  0  0  0
   56.5180   27.1990   45.6340 C   0  0  0  0  0  0  0  0  0  0  0  0
   55.2400   26.7090   45.8940 O   0  0  0  0  0  0  0  0  0  0  0  0
   57.5980   26.3240   45.4780 C   0  0  0  0  0  0  0  0  0  0  0  0
   58.8760   26.8270   45.2230 C   0  0  0  0  0  0  0  0  0  0  0  0
   59.0850   28.2070   45.1150 C   0  0  0  0  0  0  0  0  0  0  0  0
   60.7320   28.7810   44.8630 Cl  0  0  0  0  0  0  0  0  0  0  0  0
   58.8040   31.2860   46.1600 C   0  0  0  0  0  0  0  0  0  0  0  0
   58.9520   32.6710   46.0580 C   0  0  0  0  0  0  0  0  0  0  0  0
   59.4167   35.3257   46.7127 H   0  0  0  0  0  0  0  0  0  0  0  0
   60.6143   35.0947   45.3939 H   0  0  0  0  0  0  0  0  0  0  0  0
   59.5456   36.5385   45.3939 H   0  0  0  0  0  0  0  0  0  0  0  0
   57.4252   33.1658   43.0381 H   0  0  0  0  0  0  0  0  0  0  0  0
   57.1531   30.6958   43.2245 H   0  0  0  0  0  0  0  0  0  0  0  0
   55.8689   29.2652   45.6562 H   0  0  0  0  0  0  0  0  0  0  0  0
   54.9910   26.3320   46.8020 H   0  0  0  0  0  0  0  0  0  0  0  0
   57.4407   25.2381   45.5562 H   0  0  0  0  0  0  0  0  0  0  0  0
   59.7229   26.1348   45.1064 H   0  0  0  0  0  0  0  0  0  0  0  0
   59.1876   30.7589   47.0460 H   0  0  0  0  0  0  0  0  0  0  0  0
   59.4562   33.2262   46.8627 H   0  0  0  0  0  0  0  0  0  0  0  0
  1  2  1  0
  2  3  1  0
  3  4  2  0
  4  5  1  0
  5  6  2  0
  6  7  1  0
  7  8  2  0
  8  9  1  0
  9 10  1  0
  9 11  2  0
 11 12  1  0
 12 13  2  0
 13 14  1  0
  6 15  1  0
 15 16  2  0
 16  3  1  0
 13  7  1  0
  1 17  1  0
  1 18  1  0
  1 19  1  0
  4 20  1  0
  5 21  1  0
  8 22  1  0
 10 23  1  0
 11 24  1  0
 12 25  1  0
 15 26  1  0
 16 27  1  0
M  END
>  <UniqueID>  (56) 
51

>  <SMILES>  (56) 
COc1ccc(-c2cc(O)ccc2Cl)cc1

>  <Energy>  (56) 
34.210212037366155

>  <Genealogy>  (56) 
COc1ccc(-c2cc(O)ccc2Cl)cc1 (3D coordinates assigned)
COc1ccc(-c2cc(O)ccc2Cl)cc1 (optimized conformer: 34.210212037366155 kcal/mol)

>  <smiles>  (56) 
COc1ccc(-c2cc(O)ccc2Cl)cc1

>  <score_type>  (56) 
oracle

>  <origin>  (56) 
adg

>  <m_score__min__energy>  (56) 
-6.8799999999999999

>  <m_primary>  (56) 
energy

$$$$
56:0
     RDKit          3D

 35 37  0  0  0  0  0  0  0  0999 V2000
   55.8730   25.0530   46.5900 O   0  0  0  0  0  0  0  0  0  0  0  0
   56.5520   25.7560   45.7950 C   0  0  0  0  0  0  0  0  0  0  0  0
   56.9900   27.1260   46.2160 C   0  0  0  0  0  0  0  0  0  0  0  0
   57.5310   27.8480   45.1090 O   0  0  0  0  0  0  0  0  0  0  0  0
   57.5740   29.2480   44.9950 C   0  0  0  0  0  0  0  0  0  0  0  0
   57.0560   29.8310   43.8330 C   0  0  0  0  0  0  0  0  0  0  0  0
   57.0870   31.2160   43.6530 C   0  0  0  0  0  0  0  0  0  0  0  0
   57.6390   32.0420   44.6410 C   0  0  0  0  0  0  0  0  0  0  0  0
   57.6810   33.4350   44.4700 C   0  0  0  0  0  0  0  0  0  0  0  0
   58.2370   34.2470   45.4620 C   0  0  0  0  0  0  0  0  0  0  0  0
   58.7520   33.6790   46.6300 C   0  0  0  0  0  0  0  0  0  0  0  0
   58.7150   32.2940   46.8130 C   0  0  0  0  0  0  0  0  0  0  0  0
   58.1600   31.4660   45.8240 C   0  0  0  0  0  0  0  0  0  0  0  0
   58.1210   30.0740   45.9980 C   0  0  0  0  0  0  0  0  0  0  0  0
   56.8540   25.2760   44.4770 N   0  0  0  0  0  0  0  0  0  0  0  0
   56.9010   23.8840   44.1250 C   0  0  0  0  0  0  0  0  0  0  0  0
   57.9740   23.0610   44.5090 C   0  0  0  0  0  0  0  0  0  0  0  0
   57.9990   21.7200   44.1200 C   0  0  0  0  0  0  0  0  0  0  0  0
   56.9570   21.2140   43.3410 C   0  0  0  0  0  0  0  0  0  0  0  0
   55.9360   22.0260   42.9590 N   0  0  0  0  0  0  0  0  0  0  0  0
   55.8890   23.3360   43.3240 C   0  0  0  0  0  0  0  0  0  0  0  0
   56.1243   27.6744   46.6158 H   0  0  0  0  0  0  0  0  0  0  0  0
   57.7689   27.0260   46.9862 H   0  0  0  0  0  0  0  0  0  0  0  0
   56.6192   29.1911   43.0521 H   0  0  0  0  0  0  0  0  0  0  0  0
   56.6771   31.6591   42.7334 H   0  0  0  0  0  0  0  0  0  0  0  0
   57.2754   33.8880   43.5533 H   0  0  0  0  0  0  0  0  0  0  0  0
   58.2694   35.3377   45.3228 H   0  0  0  0  0  0  0  0  0  0  0  0
   59.1877   34.3236   47.4076 H   0  0  0  0  0  0  0  0  0  0  0  0
   59.1217   31.8513   47.7342 H   0  0  0  0  0  0  0  0  0  0  0  0
   58.5187   29.6257   46.9204 H   0  0  0  0  0  0  0  0  0  0  0  0
   57.0370   25.9840   43.7290 H   0  0  0  0  0  0  0  0  0  0  0  0
   58.7937   23.4732   45.1157 H   0  0  0  0  0  0  0  0  0  0  0  0
   58.8316   21.0688   44.4245 H   0  0  0  0  0  0  0  0  0  0  0  0
   56.9621   20.1571   43.0360 H   0  0  0  0  0  0  0  0  0  0  0  0
   55.0533   23.9680   42.9891 H   0  0  0  0  0  0  0  0  0  0  0  0
  1  2  2  0
  2  3  1  0
  3  4  1  0
  4  5  1  0
  5  6  2  0
  6  7  1  0
  7  8  2  0
  8  9  1  0
  9 10  2  0
 10 11  1  0
 11 12  2  0
 12 13  1  0
 13 14  2  0
  2 15  1  0
 15 16  1  0
 16 17  2  0
 17 18  1  0
 18 19  2  0
 19 20  1  0
 20 21  2  0
 14  5  1  0
 21 16  1  0
 13  8  1  0
  3 22  1  0
  3 23  1  0
  6 24  1  0
  7 25  1  0
  9 26  1  0
 10 27  1  0
 11 28  1  0
 12 29  1  0
 14 30  1  0
 15 31  1  0
 17 32  1  0
 18 33  1  0
 19 34  1  0
 21 35  1  0
M  END
>  <UniqueID>  (57) 
52

>  <SMILES>  (57) 
O=C(COc1ccc2ccccc2c1)Nc1cccnc1

>  <Energy>  (57) 
43.25360645077551

>  <Genealogy>  (57) 
O=C(COc1ccc2ccccc2c1)Nc1cccnc1 (3D coordinates assigned)
O=C(COc1ccc2ccccc2c1)Nc1cccnc1 (optimized conformer: 43.25360645077551 kcal/mol)

>  <smiles>  (57) 
O=C(COc1ccc2ccccc2c1)Nc1cccnc1

>  <score_type>  (57) 
oracle

>  <origin>  (57) 
adg

>  <m_score__min__energy>  (57) 
-8.2799999999999994

>  <m_primary>  (57) 
energy

$$$$
57:0
     RDKit          3D

 28 29  0  0  0  0  0  0  0  0999 V2000
   58.0860   26.9730   47.2020 C   0  0  0  0  0  0  0  0  0  0  0  0
   57.2470   27.4510   46.0570 C   0  0  0  0  0  0  0  0  0  0  0  0
   56.0520   27.0640   45.9730 O   0  0  0  0  0  0  0  0  0  0  0  0
   57.7500   28.3670   45.0750 N   0  0  0  0  0  0  0  0  0  0  0  0
   57.8520   29.7940   45.2090 C   0  0  0  0  0  0  0  0  0  0  0  0
   58.9040   30.3720   45.9390 C   0  0  0  0  0  0  0  0  0  0  0  0
   59.0050   31.7640   46.0620 C   0  0  0  0  0  0  0  0  0  0  0  0
   60.0490   32.3430   46.8030 C   0  0  0  0  0  0  0  0  0  0  0  0
   60.1380   33.7330   46.9220 C   0  0  0  0  0  0  0  0  0  0  0  0
   59.1920   34.5540   46.3030 C   0  0  0  0  0  0  0  0  0  0  0  0
   58.1510   33.9900   45.5600 C   0  0  0  0  0  0  0  0  0  0  0  0
   58.0510   32.5950   45.4310 C   0  0  0  0  0  0  0  0  0  0  0  0
   57.0190   32.0190   44.6790 C   0  0  0  0  0  0  0  0  0  0  0  0
   56.9250   30.6240   44.5450 C   0  0  0  0  0  0  0  0  0  0  0  0
   55.7890   30.0300   43.7490 C   0  0  0  0  0  0  0  0  0  0  0  0
   55.1440   29.0370   44.4970 O   0  0  0  0  0  0  0  0  0  0  0  0
   57.6025   27.2484   48.1509 H   0  0  0  0  0  0  0  0  0  0  0  0
   58.1912   25.8794   47.1480 H   0  0  0  0  0  0  0  0  0  0  0  0
   59.0804   27.4401   47.1480 H   0  0  0  0  0  0  0  0  0  0  0  0
   59.6547   29.7263   46.4180 H   0  0  0  0  0  0  0  0  0  0  0  0
   60.7977   31.7013   47.2904 H   0  0  0  0  0  0  0  0  0  0  0  0
   60.9557   34.1820   47.5050 H   0  0  0  0  0  0  0  0  0  0  0  0
   59.2666   35.6471   46.4006 H   0  0  0  0  0  0  0  0  0  0  0  0
   57.4082   34.6404   45.0751 H   0  0  0  0  0  0  0  0  0  0  0  0
   56.2756   32.6650   44.1891 H   0  0  0  0  0  0  0  0  0  0  0  0
   55.0681   30.8218   43.4975 H   0  0  0  0  0  0  0  0  0  0  0  0
   56.1906   29.5827   42.8278 H   0  0  0  0  0  0  0  0  0  0  0  0
   55.7370   28.2420   44.4820 H   0  0  0  0  0  0  0  0  0  0  0  0
  1  2  1  0
  2  3  2  0
  2  4  1  0
  4  5  1  0
  5  6  2  0
  6  7  1  0
  7  8  2  0
  8  9  1  0
  9 10  2  0
 10 11  1  0
 11 12  2  0
 12 13  1  0
 13 14  2  0
 14 15  1  0
 15 16  1  0
 14  5  1  0
 12  7  1  0
  1 17  1  0
  1 18  1  0
  1 19  1  0
  6 20  1  0
  8 21  1  0
  9 22  1  0
 10 23  1  0
 11 24  1  0
 13 25  1  0
 15 26  1  0
 15 27  1  0
 16 28  1  0
M  CHG  1   4  -1
M  END
>  <UniqueID>  (58) 
53

>  <SMILES>  (58) 
CC(=O)[N-]c1cc2ccccc2cc1CO

>  <Energy>  (58) 
34.79567285681

>  <Genealogy>  (58) 
CC(=O)[N-]c1cc2ccccc2cc1CO (protonated)
CC(=O)[N-]c1cc2ccccc2cc1CO (3D coordinates assigned)
CC(=O)[N-]c1cc2ccccc2cc1CO (optimized conformer: 34.79567285681 kcal/mol)

>  <smiles>  (58) 
CC(=O)Nc1cc2ccccc2cc1CO

>  <score_type>  (58) 
oracle

>  <origin>  (58) 
adg

>  <m_score__min__energy>  (58) 
-8.4399999999999995

>  <m_primary>  (58) 
energy

$$$$
58:0
     RDKit          3D

 38 41  0  0  0  0  0  0  0  0999 V2000
   56.2580   21.5440   42.6650 N   0  0  0  0  0  0  0  0  0  0  0  0
   56.3400   22.5170   43.2870 C   0  0  0  0  0  0  0  0  0  0  0  0
   56.4420   23.7260   44.0610 C   0  0  0  0  0  0  0  0  0  0  0  0
   55.4960   24.0080   45.0530 C   0  0  0  0  0  0  0  0  0  0  0  0
   55.5960   25.1830   45.8040 C   0  0  0  0  0  0  0  0  0  0  0  0
   56.6510   26.0770   45.5830 C   0  0  0  0  0  0  0  0  0  0  0  0
   56.7200   27.2750   46.3700 N   0  0  0  0  0  0  0  0  0  0  0  0
   57.9100   28.0130   46.6850 C   0  0  0  0  0  0  0  0  0  0  0  0
   58.8350   27.4280   47.3070 O   0  0  0  0  0  0  0  0  0  0  0  0
   58.1180   29.3980   46.2000 C   0  0  0  0  0  0  0  0  0  0  0  0
   58.7910   30.3000   47.0390 C   0  0  0  0  0  0  0  0  0  0  0  0
   58.9890   31.6290   46.6350 C   0  0  0  0  0  0  0  0  0  0  0  0
   59.7020   32.6040   47.4830 C   0  0  0  0  0  0  0  0  0  0  0  0
   61.0710   32.8010   47.5700 C   0  0  0  0  0  0  0  0  0  0  0  0
   61.2440   33.8160   48.4850 C   0  0  0  0  0  0  0  0  0  0  0  0
   59.9810   34.1780   48.9020 C   0  0  0  0  0  0  0  0  0  0  0  0
   59.0850   33.4400   48.2880 O   0  0  0  0  0  0  0  0  0  0  0  0
   58.5150   32.0380   45.4300 N   0  0  0  0  0  0  0  0  0  0  0  0
   57.8610   31.2010   44.5830 C   0  0  0  0  0  0  0  0  0  0  0  0
   57.4130   31.6850   43.3490 C   0  0  0  0  0  0  0  0  0  0  0  0
   56.7680   30.8310   42.4530 C   0  0  0  0  0  0  0  0  0  0  0  0
   56.5780   29.4880   42.7800 C   0  0  0  0  0  0  0  0  0  0  0  0
   57.0180   28.9920   44.0110 C   0  0  0  0  0  0  0  0  0  0  0  0
   57.6510   29.8460   44.9400 C   0  0  0  0  0  0  0  0  0  0  0  0
   57.5830   25.8050   44.5660 C   0  0  0  0  0  0  0  0  0  0  0  0
   57.4830   24.6300   43.8150 C   0  0  0  0  0  0  0  0  0  0  0  0
   54.6723   23.3039   45.2422 H   0  0  0  0  0  0  0  0  0  0  0  0
   54.8417   25.4065   46.5728 H   0  0  0  0  0  0  0  0  0  0  0  0
   59.1647   29.9635   48.0173 H   0  0  0  0  0  0  0  0  0  0  0  0
   61.8562   32.2594   47.0222 H   0  0  0  0  0  0  0  0  0  0  0  0
   62.1986   34.2505   48.8165 H   0  0  0  0  0  0  0  0  0  0  0  0
   59.7577   34.9652   49.6371 H   0  0  0  0  0  0  0  0  0  0  0  0
   57.5695   32.7412   43.0843 H   0  0  0  0  0  0  0  0  0  0  0  0
   56.4090   31.2173   41.4877 H   0  0  0  0  0  0  0  0  0  0  0  0
   56.0796   28.8161   42.0658 H   0  0  0  0  0  0  0  0  0  0  0  0
   56.8701   27.9301   44.2571 H   0  0  0  0  0  0  0  0  0  0  0  0
   58.3938   26.5193   44.3605 H   0  0  0  0  0  0  0  0  0  0  0  0
   58.2229   24.4153   43.0299 H   0  0  0  0  0  0  0  0  0  0  0  0
  1  2  3  0
  2  3  1  0
  3  4  2  0
  4  5  1  0
  5  6  2  0
  6  7  1  0
  7  8  1  0
  8  9  2  0
  8 10  1  0
 10 11  2  0
 11 12  1  0
 12 13  1  0
 13 14  2  0
 14 15  1  0
 15 16  2  0
 16 17  1  0
 12 18  2  0
 18 19  1  0
 19 20  2  0
 20 21  1  0
 21 22  2  0
 22 23  1  0
 23 24  2  0
  6 25  1  0
 25 26  2  0
 26  3  1  0
 24 10  1  0
 17 13  1  0
 24 19  1  0
  4 27  1  0
  5 28  1  0
 11 29  1  0
 14 30  1  0
 15 31  1  0
 16 32  1  0
 20 33  1  0
 21 34  1  0
 22 35  1  0
 23 36  1  0
 25 37  1  0
 26 38  1  0
M  CHG  1   7  -1
M  END
>  <UniqueID>  (59) 
54

>  <SMILES>  (59) 
N#Cc1ccc([N-]C(=O)c2cc(-c3ccco3)nc3ccccc23)cc1

>  <Energy>  (59) 
81.74716131837516

>  <Genealogy>  (59) 
N#Cc1ccc([N-]C(=O)c2cc(-c3ccco3)nc3ccccc23)cc1 (protonated)
N#Cc1ccc([N-]C(=O)c2cc(-c3ccco3)nc3ccccc23)cc1 (3D coordinates assigned)
N#Cc1ccc([N-]C(=O)c2cc(-c3ccco3)nc3ccccc23)cc1 (optimized conformer: 81.74716131837516 kcal/mol)

>  <smiles>  (59) 
N#Cc1ccc(NC(=O)c2cc(-c3ccco3)nc3ccccc23)cc1

>  <score_type>  (59) 
oracle

>  <origin>  (59) 
adg

>  <m_score__min__energy>  (59) 
-9.2400000000000002

>  <m_primary>  (59) 
energy

$$$$
59:0
     RDKit          3D

 45 48  0  0  0  0  0  0  0  0999 V2000
   55.2907   28.8961   45.0264 H   0  0  0  0  0  0  0  0  0  0  0  0
   56.1660   29.5450   44.8750 C   0  0  0  0  0  0  0  0  0  0  0  0
   56.0620   30.8320   44.4580 N   0  0  0  0  0  0  0  0  0  0  0  0
   57.2740   31.4120   44.3230 C   0  0  0  0  0  0  0  0  0  0  0  0
   57.4050   32.6710   44.0400 N   0  0  0  0  0  0  0  0  0  0  0  0
   57.3690   33.7460   44.9880 C   0  0  0  0  0  0  0  0  0  0  0  0
   56.6130   34.7370   44.7890 O   0  0  0  0  0  0  0  0  0  0  0  0
   58.2000   33.6890   46.2100 C   0  0  0  0  0  0  0  0  0  0  0  0
   59.2620   34.5920   46.3960 C   0  0  0  0  0  0  0  0  0  0  0  0
   59.5234   35.2956   45.5919 H   0  0  0  0  0  0  0  0  0  0  0  0
   59.9900   34.6070   47.5900 C   0  0  0  0  0  0  0  0  0  0  0  0
   60.8119   35.3260   47.7224 H   0  0  0  0  0  0  0  0  0  0  0  0
   59.6740   33.7050   48.6220 C   0  0  0  0  0  0  0  0  0  0  0  0
   60.3630   33.6970   49.8480 O   0  0  0  0  0  0  0  0  0  0  0  0
   59.7580   33.4360   51.1120 C   0  0  0  0  0  0  0  0  0  0  0  0
   60.4468   33.7331   51.9165 H   0  0  0  0  0  0  0  0  0  0  0  0
   58.8244   34.0114   51.1974 H   0  0  0  0  0  0  0  0  0  0  0  0
   59.5359   32.3620   51.1974 H   0  0  0  0  0  0  0  0  0  0  0  0
   58.6300   32.7900   48.4320 C   0  0  0  0  0  0  0  0  0  0  0  0
   58.3846   32.0713   49.2277 H   0  0  0  0  0  0  0  0  0  0  0  0
   57.8960   32.7810   47.2400 C   0  0  0  0  0  0  0  0  0  0  0  0
   57.0764   32.0593   47.1082 H   0  0  0  0  0  0  0  0  0  0  0  0
   58.5310   30.3580   44.7110 S   0  0  0  0  0  0  0  0  0  0  0  0
   57.4670   29.1140   45.0950 C   0  0  0  0  0  0  0  0  0  0  0  0
   57.9320   27.5480   45.8420 S   0  0  0  0  0  0  0  0  0  0  0  0
   59.7320   27.8680   45.7690 C   0  0  0  0  0  0  0  0  0  0  0  0
   60.2714   26.9245   45.9390 H   0  0  0  0  0  0  0  0  0  0  0  0
   59.9728   28.2791   44.7775 H   0  0  0  0  0  0  0  0  0  0  0  0
   60.1470   28.8610   46.8070 C   0  0  0  0  0  0  0  0  0  0  0  0
   61.1470   29.6960   46.6800 O   0  0  0  0  0  0  0  0  0  0  0  0
   61.1470   30.4030   47.7870 C   0  0  0  0  0  0  0  0  0  0  0  0
   62.1150   31.4770   48.0890 C   0  0  0  0  0  0  0  0  0  0  0  0
   62.4450   32.4300   47.1110 C   0  0  0  0  0  0  0  0  0  0  0  0
   61.9575   32.3946   46.1256 H   0  0  0  0  0  0  0  0  0  0  0  0
   63.3920   33.4250   47.3850 C   0  0  0  0  0  0  0  0  0  0  0  0
   63.6595   34.1561   46.6079 H   0  0  0  0  0  0  0  0  0  0  0  0
   63.9980   33.4920   48.6420 C   0  0  0  0  0  0  0  0  0  0  0  0
   64.7380   34.2776   48.8547 H   0  0  0  0  0  0  0  0  0  0  0  0
   63.6640   32.5610   49.6290 C   0  0  0  0  0  0  0  0  0  0  0  0
   64.1352   32.6192   50.6213 H   0  0  0  0  0  0  0  0  0  0  0  0
   62.7300   31.5540   49.3560 C   0  0  0  0  0  0  0  0  0  0  0  0
   62.4746   30.8192   50.1337 H   0  0  0  0  0  0  0  0  0  0  0  0
   60.1490   30.0230   48.6140 N   0  0  0  0  0  0  0  0  0  0  0  0
   59.5280   29.0390   47.9870 N   0  0  0  0  0  0  0  0  0  0  0  0
   58.6930   28.5250   48.3510 H   0  0  0  0  0  0  0  0  0  0  0  0
  1  2  1  0
  2  3  1  0
  3  4  1  0
  4  5  2  0
  5  6  1  0
  6  7  2  0
  6  8  1  0
  8  9  2  0
  9 10  1  0
  9 11  1  0
 11 12  1  0
 11 13  2  0
 13 14  1  0
 14 15  1  0
 15 16  1  0
 15 17  1  0
 15 18  1  0
 13 19  1  0
 19 20  1  0
 19 21  2  0
 21 22  1  0
  4 23  1  0
 23 24  1  0
 24 25  1  0
 25 26  1  0
 26 27  1  0
 26 28  1  0
 26 29  1  0
 29 30  1  0
 30 31  1  0
 31 32  1  0
 32 33  2  0
 33 34  1  0
 33 35  1  0
 35 36  1  0
 35 37  2  0
 37 38  1  0
 37 39  1  0
 39 40  1  0
 39 41  2  0
 41 42  1  0
 31 43  2  0
 43 44  1  0
 44 45  1  0
 24  2  2  0
 44 29  2  0
 21  8  1  0
 41 32  1  0
M  CHG  2   3  -1  44   1
M  END
>  <UniqueID>  (60) 
55

>  <SMILES>  (60) 
COc1ccc(C(=O)/N=c2/[n-]cc(SCc3[nH+]nc(-c4ccccc4)o3)s2)cc1

>  <Energy>  (60) 
114.8660377960939

>  <Genealogy>  (60) 
COc1ccc(C(=O)N=c2[n-]cc(SCc3[nH+]nc(-c4ccccc4)o3)s2)cc1 (protonated)
COc1ccc(C(=O)/N=c2/[n-]cc(SCc3[nH+]nc(-c4ccccc4)o3)s2)cc1 (cis-trans isomerization)
COc1ccc(C(=O)/N=c2/[n-]cc(SCc3[nH+]nc(-c4ccccc4)o3)s2)cc1 (3D coordinates assigned)
COc1ccc(C(=O)/N=c2/[n-]cc(SCc3[nH+]nc(-c4ccccc4)o3)s2)cc1 (optimized conformer: 114.8660377960939 kcal/mol)

>  <smiles>  (60) 
COc1ccc(C(=O)N=c2[nH]cc(SCc3nnc(-c4ccccc4)o3)s2)cc1

>  <score_type>  (60) 
oracle

>  <origin>  (60) 
adg

>  <m_score__min__energy>  (60) 
-9.9000000000000004

>  <m_primary>  (60) 
energy

$$$$
60:0
     RDKit          3D

 33 35  0  0  0  0  0  0  0  0999 V2000
   63.3989   32.7544   49.2181 H   0  0  0  0  0  0  0  0  0  0  0  0
   62.6190   33.1910   48.5770 C   0  0  0  0  0  0  0  0  0  0  0  0
   61.4690   33.6580   49.1290 N   0  0  0  0  0  0  0  0  0  0  0  0
   60.4810   34.2070   48.3720 C   0  0  0  0  0  0  0  0  0  0  0  0
   59.5627   34.5745   48.8534 H   0  0  0  0  0  0  0  0  0  0  0  0
   60.6280   34.3070   46.9770 C   0  0  0  0  0  0  0  0  0  0  0  0
   59.5590   34.8960   46.1400 C   0  0  0  0  0  0  0  0  0  0  0  0
   59.6550   36.0910   45.7430 O   0  0  0  0  0  0  0  0  0  0  0  0
   58.3650   34.1500   45.8640 N   0  0  0  0  0  0  0  0  0  0  0  0
   58.2120   33.0050   45.2490 C   0  0  0  0  0  0  0  0  0  0  0  0
   57.7880   33.0720   43.9170 C   0  0  0  0  0  0  0  0  0  0  0  0
   57.4301   34.0278   43.5067 H   0  0  0  0  0  0  0  0  0  0  0  0
   57.8150   31.9360   43.1030 C   0  0  0  0  0  0  0  0  0  0  0  0
   57.3850   32.0330   41.6680 C   0  0  0  0  0  0  0  0  0  0  0  0
   56.3129   32.2748   41.6220 H   0  0  0  0  0  0  0  0  0  0  0  0
   57.9611   32.8237   41.1652 H   0  0  0  0  0  0  0  0  0  0  0  0
   57.5659   31.0715   41.1652 H   0  0  0  0  0  0  0  0  0  0  0  0
   58.2010   30.7390   43.6230 N   0  0  0  0  0  0  0  0  0  0  0  0
   58.2130   29.9000   42.9970 H   0  0  0  0  0  0  0  0  0  0  0  0
   58.5160   30.5980   44.9410 C   0  0  0  0  0  0  0  0  0  0  0  0
   58.8260   29.3230   45.4460 C   0  0  0  0  0  0  0  0  0  0  0  0
   58.9072   28.4681   44.7586 H   0  0  0  0  0  0  0  0  0  0  0  0
   59.0310   29.1350   46.8110 C   0  0  0  0  0  0  0  0  0  0  0  0
   59.3041   28.1410   47.1948 H   0  0  0  0  0  0  0  0  0  0  0  0
   58.8900   30.2060   47.6890 C   0  0  0  0  0  0  0  0  0  0  0  0
   59.0122   30.0469   48.7706 H   0  0  0  0  0  0  0  0  0  0  0  0
   58.5940   31.4820   47.2030 C   0  0  0  0  0  0  0  0  0  0  0  0
   58.4454   32.3113   47.9102 H   0  0  0  0  0  0  0  0  0  0  0  0
   58.4830   31.7210   45.8140 C   0  0  0  0  0  0  0  0  0  0  0  0
   61.8140   33.8240   46.3960 C   0  0  0  0  0  0  0  0  0  0  0  0
   61.9567   33.8867   45.3071 H   0  0  0  0  0  0  0  0  0  0  0  0
   62.8110   33.2650   47.1980 C   0  0  0  0  0  0  0  0  0  0  0  0
   63.7396   32.8864   46.7459 H   0  0  0  0  0  0  0  0  0  0  0  0
  1  2  1  0
  2  3  2  0
  3  4  1  0
  4  5  1  0
  4  6  2  0
  6  7  1  0
  7  8  2  0
  7  9  1  0
  9 10  2  0
 10 11  1  0
 11 12  1  0
 11 13  2  0
 13 14  1  0
 14 15  1  0
 14 16  1  0
 14 17  1  0
 13 18  1  0
 18 19  1  0
 18 20  1  0
 20 21  2  0
 21 22  1  0
 21 23  1  0
 23 24  1  0
 23 25  2  0
 25 26  1  0
 25 27  1  0
 27 28  1  0
 27 29  2  0
  6 30  1  0
 30 31  1  0
 30 32  2  0
 32 33  1  0
 32  2  1  0
 29 10  1  0
 29 20  1  0
M  END
>  <UniqueID>  (61) 
56

>  <SMILES>  (61) 
Cc1c/c(=N/C(=O)c2cccnc2)c2ccccc2[nH]1

>  <Energy>  (61) 
59.29402296656623

>  <Genealogy>  (61) 
Cc1c/c(=N/C(=O)c2cccnc2)c2ccccc2[nH]1 (cis-trans isomerization)
Cc1c/c(=N/C(=O)c2cccnc2)c2ccccc2[nH]1 (3D coordinates assigned)
Cc1c/c(=N/C(=O)c2cccnc2)c2ccccc2[nH]1 (optimized conformer: 59.29402296656623 kcal/mol)

>  <smiles>  (61) 
Cc1cc(=NC(=O)c2cccnc2)c2ccccc2[nH]1

>  <score_type>  (61) 
oracle

>  <origin>  (61) 
adg

>  <m_score__min__energy>  (61) 
-7.1500000000000004

>  <m_primary>  (61) 
energy

$$$$
61:0
     RDKit          3D

 51 55  0  0  0  0  0  0  0  0999 V2000
   60.0020   36.0840   45.9430 C   0  0  0  0  0  0  0  0  0  0  0  0
   59.4790   34.6840   45.8270 C   0  0  0  0  0  0  0  0  0  0  0  0
   59.1900   34.2120   44.5860 N   0  0  0  0  0  0  0  0  0  0  0  0
   58.7110   32.9640   44.3720 C   0  0  0  0  0  0  0  0  0  0  0  0
   58.4840   32.0940   45.4400 C   0  0  0  0  0  0  0  0  0  0  0  0
   58.0460   30.7130   45.1450 C   0  0  0  0  0  0  0  0  0  0  0  0
   56.9140   30.3460   44.4320 C   0  0  0  0  0  0  0  0  0  0  0  0
   56.8670   29.0030   44.3020 N   0  0  0  0  0  0  0  0  0  0  0  0
   57.9480   28.5150   44.9260 C   0  0  0  0  0  0  0  0  0  0  0  0
   58.3620   27.1880   44.9990 C   0  0  0  0  0  0  0  0  0  0  0  0
   59.5710   26.9070   45.6560 C   0  0  0  0  0  0  0  0  0  0  0  0
   60.3820   27.9580   46.1440 C   0  0  0  0  0  0  0  0  0  0  0  0
   59.9590   29.2900   46.0250 C   0  0  0  0  0  0  0  0  0  0  0  0
   58.7110   29.5340   45.4350 C   0  0  0  0  0  0  0  0  0  0  0  0
   58.7500   32.5480   46.7560 C   0  0  0  0  0  0  0  0  0  0  0  0
   58.4620   31.7510   47.8820 C   0  0  0  0  0  0  0  0  0  0  0  0
   58.8030   32.1730   49.1570 C   0  0  0  0  0  0  0  0  0  0  0  0
   59.4240   33.4090   49.3540 C   0  0  0  0  0  0  0  0  0  0  0  0
   59.8410   33.8260   50.7490 C   0  0  0  0  0  0  0  0  0  0  0  0
   61.2220   33.7020   51.0390 O   0  0  0  0  0  0  0  0  0  0  0  0
   61.8170   32.4970   50.6110 C   0  0  0  0  0  0  0  0  0  0  0  0
   62.4990   32.5970   49.2690 C   0  0  0  0  0  0  0  0  0  0  0  0
   62.4920   31.4940   48.4050 C   0  0  0  0  0  0  0  0  0  0  0  0
   63.1130   31.5680   47.1570 C   0  0  0  0  0  0  0  0  0  0  0  0
   63.7470   32.7520   46.7620 C   0  0  0  0  0  0  0  0  0  0  0  0
   63.7420   33.8690   47.6060 C   0  0  0  0  0  0  0  0  0  0  0  0
   63.1080   33.7970   48.8550 C   0  0  0  0  0  0  0  0  0  0  0  0
   59.6360   34.2600   48.2610 C   0  0  0  0  0  0  0  0  0  0  0  0
   59.2930   33.8430   46.9540 C   0  0  0  0  0  0  0  0  0  0  0  0
   60.1018   36.3513   47.0054 H   0  0  0  0  0  0  0  0  0  0  0  0
   60.9853   36.1497   45.4544 H   0  0  0  0  0  0  0  0  0  0  0  0
   59.3026   36.7783   45.4544 H   0  0  0  0  0  0  0  0  0  0  0  0
   58.4983   32.6317   43.3452 H   0  0  0  0  0  0  0  0  0  0  0  0
   56.1655   31.0457   44.0318 H   0  0  0  0  0  0  0  0  0  0  0  0
   56.1220   28.4550   43.7990 H   0  0  0  0  0  0  0  0  0  0  0  0
   57.7592   26.3822   44.5547 H   0  0  0  0  0  0  0  0  0  0  0  0
   59.8893   25.8629   45.7919 H   0  0  0  0  0  0  0  0  0  0  0  0
   61.3478   27.7300   46.6185 H   0  0  0  0  0  0  0  0  0  0  0  0
   60.5877   30.1183   46.3839 H   0  0  0  0  0  0  0  0  0  0  0  0
   57.9601   30.7815   47.7470 H   0  0  0  0  0  0  0  0  0  0  0  0
   58.5829   31.5294   50.0215 H   0  0  0  0  0  0  0  0  0  0  0  0
   59.5603   34.8809   50.8847 H   0  0  0  0  0  0  0  0  0  0  0  0
   59.3270   33.1365   51.4348 H   0  0  0  0  0  0  0  0  0  0  0  0
   62.5654   32.1952   51.3586 H   0  0  0  0  0  0  0  0  0  0  0  0
   61.0071   31.7603   50.5044 H   0  0  0  0  0  0  0  0  0  0  0  0
   61.9935   30.5629   48.7124 H   0  0  0  0  0  0  0  0  0  0  0  0
   63.1042   30.6972   46.4849 H   0  0  0  0  0  0  0  0  0  0  0  0
   64.2506   32.8049   45.7855 H   0  0  0  0  0  0  0  0  0  0  0  0
   64.2341   34.8008   47.2903 H   0  0  0  0  0  0  0  0  0  0  0  0
   63.0865   34.6791   49.5119 H   0  0  0  0  0  0  0  0  0  0  0  0
   60.0714   35.2575   48.4205 H   0  0  0  0  0  0  0  0  0  0  0  0
  1  2  1  0
  2  3  2  0
  3  4  1  0
  4  5  2  0
  5  6  1  0
  6  7  2  0
  7  8  1  0
  8  9  1  0
  9 10  2  0
 10 11  1  0
 11 12  2  0
 12 13  1  0
 13 14  2  0
  5 15  1  0
 15 16  2  0
 16 17  1  0
 17 18  2  0
 18 19  1  0
 19 20  1  0
 20 21  1  0
 21 22  1  0
 22 23  2  0
 23 24  1  0
 24 25  2  0
 25 26  1  0
 26 27  2  0
 18 28  1  0
 28 29  2  0
 29  2  1  0
 14  6  1  0
 29 15  1  0
 14  9  1  0
 27 22  1  0
  1 30  1  0
  1 31  1  0
  1 32  1  0
  4 33  1  0
  7 34  1  0
  8 35  1  0
 10 36  1  0
 11 37  1  0
 12 38  1  0
 13 39  1  0
 16 40  1  0
 17 41  1  0
 19 42  1  0
 19 43  1  0
 21 44  1  0
 21 45  1  0
 23 46  1  0
 24 47  1  0
 25 48  1  0
 26 49  1  0
 27 50  1  0
 28 51  1  0
M  END
>  <UniqueID>  (62) 
57

>  <SMILES>  (62) 
Cc1ncc(-c2c[nH]c3ccccc23)c2ccc(COCc3ccccc3)cc12

>  <Energy>  (62) 
110.42376655089147

>  <Genealogy>  (62) 
Cc1ncc(-c2c[nH]c3ccccc23)c2ccc(COCc3ccccc3)cc12 (3D coordinates assigned)
Cc1ncc(-c2c[nH]c3ccccc23)c2ccc(COCc3ccccc3)cc12 (optimized conformer: 110.42376655089147 kcal/mol)

>  <smiles>  (62) 
Cc1ncc(-c2c[nH]c3ccccc23)c2ccc(COCc3ccccc3)cc12

>  <score_type>  (62) 
oracle

>  <origin>  (62) 
adg

>  <m_score__min__energy>  (62) 
-9.2200000000000006

>  <m_primary>  (62) 
energy

$$$$
62:0
     RDKit          3D

 19 20  0  0  0  0  0  0  0  0999 V2000
   57.0250   22.4870   47.9150 N   0  0  0  0  0  0  0  0  0  0  0  0
   57.0110   23.5530   47.4630 C   0  0  0  0  0  0  0  0  0  0  0  0
   56.9930   24.8820   46.8980 C   0  0  0  0  0  0  0  0  0  0  0  0
   58.1050   25.7120   47.0770 C   0  0  0  0  0  0  0  0  0  0  0  0
   58.1140   26.9990   46.5410 C   0  0  0  0  0  0  0  0  0  0  0  0
   56.9990   27.4570   45.8210 C   0  0  0  0  0  0  0  0  0  0  0  0
   56.9660   28.8120   45.2350 C   0  0  0  0  0  0  0  0  0  0  0  0
   58.0320   29.7050   45.1990 C   0  0  0  0  0  0  0  0  0  0  0  0
   57.7200   30.9230   44.5810 C   0  0  0  0  0  0  0  0  0  0  0  0
   56.4100   30.9980   44.1260 C   0  0  0  0  0  0  0  0  0  0  0  0
   55.6430   29.5490   44.4940 S   0  0  0  0  0  0  0  0  0  0  0  0
   55.9290   26.6310   45.6580 N   0  0  0  0  0  0  0  0  0  0  0  0
   55.8900   25.3720   46.1680 C   0  0  0  0  0  0  0  0  0  0  0  0
   54.5500   24.4620   45.9140 S   0  0  0  0  0  0  0  0  0  0  0  0
   58.9753   25.3478   47.6427 H   0  0  0  0  0  0  0  0  0  0  0  0
   58.9887   27.6512   46.6812 H   0  0  0  0  0  0  0  0  0  0  0  0
   59.0242   29.4768   45.6156 H   0  0  0  0  0  0  0  0  0  0  0  0
   58.4445   31.7428   44.4669 H   0  0  0  0  0  0  0  0  0  0  0  0
   55.9534   31.8575   43.6133 H   0  0  0  0  0  0  0  0  0  0  0  0
  1  2  3  0
  2  3  1  0
  3  4  2  0
  4  5  1  0
  5  6  2  0
  6  7  1  0
  7  8  2  0
  8  9  1  0
  9 10  2  0
 10 11  1  0
  6 12  1  0
 12 13  1  0
 13 14  2  0
 13  3  1  0
 11  7  1  0
  4 15  1  0
  5 16  1  0
  8 17  1  0
  9 18  1  0
 10 19  1  0
M  CHG  1  12  -1
M  END
>  <UniqueID>  (63) 
58

>  <SMILES>  (63) 
N#Cc1ccc(-c2cccs2)[n-]c1=S

>  <Energy>  (63) 
47.934353861021194

>  <Genealogy>  (63) 
N#Cc1ccc(-c2cccs2)[n-]c1=S (protonated)
N#Cc1ccc(-c2cccs2)[n-]c1=S (3D coordinates assigned)
N#Cc1ccc(-c2cccs2)[n-]c1=S (optimized conformer: 47.934353861021194 kcal/mol)

>  <smiles>  (63) 
N#Cc1ccc(-c2cccs2)[nH]c1=S

>  <score_type>  (63) 
oracle

>  <origin>  (63) 
adg

>  <m_score__min__energy>  (63) 
-8.25

>  <m_primary>  (63) 
energy

$$$$
63:0
     RDKit          3D

 29 30  0  0  0  0  0  0  0  0999 V2000
   54.1600   25.1150   45.6210 C   0  0  0  0  0  0  0  0  0  0  0  0
   54.8340   26.3360   45.9150 O   0  0  0  0  0  0  0  0  0  0  0  0
   56.2290   26.4950   45.9160 C   0  0  0  0  0  0  0  0  0  0  0  0
   57.1010   25.4320   46.2270 C   0  0  0  0  0  0  0  0  0  0  0  0
   58.4840   25.6280   46.2110 C   0  0  0  0  0  0  0  0  0  0  0  0
   59.0100   26.8760   45.8770 C   0  0  0  0  0  0  0  0  0  0  0  0
   58.1560   27.9360   45.5670 C   0  0  0  0  0  0  0  0  0  0  0  0
   56.7600   27.7570   45.6020 C   0  0  0  0  0  0  0  0  0  0  0  0
   55.8570   28.8220   45.2680 N   0  0  0  0  0  0  0  0  0  0  0  0
   55.8670   29.6090   44.0700 C   0  0  0  0  0  0  0  0  0  0  0  0
   54.8320   29.7170   43.3590 O   0  0  0  0  0  0  0  0  0  0  0  0
   57.1510   30.2150   43.6030 C   0  0  0  0  0  0  0  0  0  0  0  0
   57.6090   31.2520   44.5770 C   0  0  0  0  0  0  0  0  0  0  0  0
   57.0280   32.5000   44.7690 C   0  0  0  0  0  0  0  0  0  0  0  0
   57.6230   33.2300   45.8040 C   0  0  0  0  0  0  0  0  0  0  0  0
   58.6610   32.5560   46.4360 C   0  0  0  0  0  0  0  0  0  0  0  0
   58.8350   31.0490   45.7090 S   0  0  0  0  0  0  0  0  0  0  0  0
   53.8832   24.6136   46.5602 H   0  0  0  0  0  0  0  0  0  0  0  0
   53.2520   25.3286   45.0380 H   0  0  0  0  0  0  0  0  0  0  0  0
   54.8246   24.4605   45.0380 H   0  0  0  0  0  0  0  0  0  0  0  0
   56.6907   24.4441   46.4833 H   0  0  0  0  0  0  0  0  0  0  0  0
   59.1593   24.7968   46.4622 H   0  0  0  0  0  0  0  0  0  0  0  0
   60.0997   27.0252   45.8578 H   0  0  0  0  0  0  0  0  0  0  0  0
   58.5757   28.9155   45.2942 H   0  0  0  0  0  0  0  0  0  0  0  0
   57.9162   29.4291   43.5204 H   0  0  0  0  0  0  0  0  0  0  0  0
   56.9930   30.6854   42.6213 H   0  0  0  0  0  0  0  0  0  0  0  0
   56.1863   32.8755   44.1686 H   0  0  0  0  0  0  0  0  0  0  0  0
   57.2997   34.2417   46.0903 H   0  0  0  0  0  0  0  0  0  0  0  0
   59.2659   32.9422   47.2697 H   0  0  0  0  0  0  0  0  0  0  0  0
  1  2  1  0
  2  3  1  0
  3  4  2  0
  4  5  1  0
  5  6  2  0
  6  7  1  0
  7  8  2  0
  8  9  1  0
  9 10  1  0
 10 11  2  0
 10 12  1  0
 12 13  1  0
 13 14  2  0
 14 15  1  0
 15 16  2  0
 16 17  1  0
  8  3  1  0
 17 13  1  0
  1 18  1  0
  1 19  1  0
  1 20  1  0
  4 21  1  0
  5 22  1  0
  6 23  1  0
  7 24  1  0
 12 25  1  0
 12 26  1  0
 14 27  1  0
 15 28  1  0
 16 29  1  0
M  CHG  1   9  -1
M  END
>  <UniqueID>  (64) 
59

>  <SMILES>  (64) 
COc1ccccc1[N-]C(=O)Cc1cccs1

>  <Energy>  (64) 
55.40406301924005

>  <Genealogy>  (64) 
COc1ccccc1[N-]C(=O)Cc1cccs1 (protonated)
COc1ccccc1[N-]C(=O)Cc1cccs1 (3D coordinates assigned)
COc1ccccc1[N-]C(=O)Cc1cccs1 (optimized conformer: 55.40406301924005 kcal/mol)

>  <smiles>  (64) 
COc1ccccc1NC(=O)Cc1cccs1

>  <score_type>  (64) 
oracle

>  <origin>  (64) 
adg

>  <m_score__min__energy>  (64) 
-9.1300000000000008

>  <m_primary>  (64) 
energy

$$$$
64:0
     RDKit          3D

 48 50  0  0  0  0  0  0  0  0999 V2000
   57.7690   20.8010   44.8240 N   0  0  0  0  0  0  0  0  0  0  0  0
   56.7770   21.3330   46.1370 S   0  0  0  0  0  0  0  0  0  0  0  0
   57.4620   21.0240   47.4380 O   0  0  0  0  0  0  0  0  0  0  0  0
   55.4600   20.6100   46.1010 O   0  0  0  0  0  0  0  0  0  0  0  0
   56.5090   23.0670   46.0020 C   0  0  0  0  0  0  0  0  0  0  0  0
   55.2380   23.5590   45.6800 C   0  0  0  0  0  0  0  0  0  0  0  0
   55.0250   24.9350   45.5600 C   0  0  0  0  0  0  0  0  0  0  0  0
   56.0820   25.8370   45.7750 C   0  0  0  0  0  0  0  0  0  0  0  0
   55.9050   27.2520   45.6260 N   0  0  0  0  0  0  0  0  0  0  0  0
   56.9410   28.2220   45.4250 C   0  0  0  0  0  0  0  0  0  0  0  0
   57.4490   28.7860   46.4300 O   0  0  0  0  0  0  0  0  0  0  0  0
   57.4010   28.6250   44.0550 C   0  0  0  0  0  0  0  0  0  0  0  0
   57.9930   29.9180   44.1190 O   0  0  0  0  0  0  0  0  0  0  0  0
   57.2990   31.0480   44.5650 C   0  0  0  0  0  0  0  0  0  0  0  0
   56.0460   31.1160   44.4350 O   0  0  0  0  0  0  0  0  0  0  0  0
   58.0420   32.1870   45.1440 C   0  0  0  0  0  0  0  0  0  0  0  0
   57.6750   33.4930   44.7760 C   0  0  0  0  0  0  0  0  0  0  0  0
   58.4080   34.5910   45.2300 C   0  0  0  0  0  0  0  0  0  0  0  0
   59.5110   34.4000   46.0580 C   0  0  0  0  0  0  0  0  0  0  0  0
   59.8780   33.1120   46.4510 C   0  0  0  0  0  0  0  0  0  0  0  0
   59.1460   31.9920   46.0120 C   0  0  0  0  0  0  0  0  0  0  0  0
   59.4690   30.6770   46.5060 N   0  0  0  0  0  0  0  0  0  0  0  0
   60.1450   30.4340   47.7800 C   0  0  0  0  0  0  0  0  0  0  0  0
   60.2590   28.9640   48.0270 C   0  0  0  0  0  0  0  0  0  0  0  0
   60.5810   28.3720   49.2310 C   0  0  0  0  0  0  0  0  0  0  0  0
   60.5250   27.0150   49.0020 C   0  0  0  0  0  0  0  0  0  0  0  0
   60.1710   26.8650   47.6760 C   0  0  0  0  0  0  0  0  0  0  0  0
   60.0170   28.0450   47.1210 O   0  0  0  0  0  0  0  0  0  0  0  0
   57.3590   25.3390   46.0610 C   0  0  0  0  0  0  0  0  0  0  0  0
   57.5720   23.9630   46.1810 C   0  0  0  0  0  0  0  0  0  0  0  0
   58.7190   20.6120   45.2160 H   0  0  0  0  0  0  0  0  0  0  0  0
   57.3860   19.8830   44.5040 H   0  0  0  0  0  0  0  0  0  0  0  0
   54.4040   22.8596   45.5209 H   0  0  0  0  0  0  0  0  0  0  0  0
   54.0265   25.3139   45.2963 H   0  0  0  0  0  0  0  0  0  0  0  0
   58.1418   27.8994   43.6879 H   0  0  0  0  0  0  0  0  0  0  0  0
   56.5412   28.6469   43.3692 H   0  0  0  0  0  0  0  0  0  0  0  0
   56.8028   33.6513   44.1247 H   0  0  0  0  0  0  0  0  0  0  0  0
   58.1137   35.6085   44.9332 H   0  0  0  0  0  0  0  0  0  0  0  0
   60.0945   35.2662   46.4032 H   0  0  0  0  0  0  0  0  0  0  0  0
   60.7473   32.9705   47.1099 H   0  0  0  0  0  0  0  0  0  0  0  0
   59.2580   29.8460   45.9090 H   0  0  0  0  0  0  0  0  0  0  0  0
   61.1513   30.8771   47.7486 H   0  0  0  0  0  0  0  0  0  0  0  0
   59.5605   30.8919   48.5916 H   0  0  0  0  0  0  0  0  0  0  0  0
   60.8302   28.8777   50.1756 H   0  0  0  0  0  0  0  0  0  0  0  0
   60.7224   26.2130   49.7286 H   0  0  0  0  0  0  0  0  0  0  0  0
   60.0380   25.9017   47.1618 H   0  0  0  0  0  0  0  0  0  0  0  0
   58.2002   26.0355   46.1921 H   0  0  0  0  0  0  0  0  0  0  0  0
   58.5767   23.5820   46.4166 H   0  0  0  0  0  0  0  0  0  0  0  0
  1  2  1  0
  2  3  2  0
  2  4  2  0
  2  5  1  0
  5  6  2  0
  6  7  1  0
  7  8  2  0
  8  9  1  0
  9 10  1  0
 10 11  2  0
 10 12  1  0
 12 13  1  0
 13 14  1  0
 14 15  2  0
 14 16  1  0
 16 17  2  0
 17 18  1  0
 18 19  2  0
 19 20  1  0
 20 21  2  0
 21 22  1  0
 22 23  1  0
 23 24  1  0
 24 25  2  0
 25 26  1  0
 26 27  2  0
 27 28  1  0
  8 29  1  0
 29 30  2  0
 30  5  1  0
 21 16  1  0
 28 24  1  0
  1 31  1  0
  1 32  1  0
  6 33  1  0
  7 34  1  0
 12 35  1  0
 12 36  1  0
 17 37  1  0
 18 38  1  0
 19 39  1  0
 20 40  1  0
 22 41  1  0
 23 42  1  0
 23 43  1  0
 25 44  1  0
 26 45  1  0
 27 46  1  0
 29 47  1  0
 30 48  1  0
M  CHG  1   9  -1
M  END
>  <UniqueID>  (65) 
60

>  <SMILES>  (65) 
NS(=O)(=O)c1ccc([N-]C(=O)COC(=O)c2ccccc2NCc2ccco2)cc1

>  <Energy>  (65) 
79.9699500792917

>  <Genealogy>  (65) 
NS(=O)(=O)c1ccc([N-]C(=O)COC(=O)c2ccccc2NCc2ccco2)cc1 (protonated)
NS(=O)(=O)c1ccc([N-]C(=O)COC(=O)c2ccccc2NCc2ccco2)cc1 (3D coordinates assigned)
NS(=O)(=O)c1ccc([N-]C(=O)COC(=O)c2ccccc2NCc2ccco2)cc1 (optimized conformer: 79.9699500792917 kcal/mol)

>  <smiles>  (65) 
NS(=O)(=O)c1ccc(NC(=O)COC(=O)c2ccccc2NCc2ccco2)cc1

>  <score_type>  (65) 
oracle

>  <origin>  (65) 
adg

>  <m_score__min__energy>  (65) 
-10.640000000000001

>  <m_primary>  (65) 
energy

$$$$
65:0
     RDKit          3D

 31 33  0  0  0  0  0  0  0  0999 V2000
   57.6280   32.0320   45.2840 C   0  0  0  0  0  0  0  0  0  0  0  0
   57.2430   30.5890   45.2100 C   0  0  0  0  0  0  0  0  0  0  0  0
   56.2560   30.1260   44.4170 N   0  0  0  0  0  0  0  0  0  0  0  0
   56.1680   28.8450   44.6250 O   0  0  0  0  0  0  0  0  0  0  0  0
   57.0540   28.4380   45.5050 C   0  0  0  0  0  0  0  0  0  0  0  0
   57.1860   27.0310   45.9340 C   0  0  0  0  0  0  0  0  0  0  0  0
   58.4680   26.5070   46.1610 C   0  0  0  0  0  0  0  0  0  0  0  0
   58.6310   25.1770   46.5560 C   0  0  0  0  0  0  0  0  0  0  0  0
   57.5120   24.3600   46.7420 C   0  0  0  0  0  0  0  0  0  0  0  0
   57.6750   23.0360   47.1300 O   0  0  0  0  0  0  0  0  0  0  0  0
   56.2290   24.8780   46.5430 C   0  0  0  0  0  0  0  0  0  0  0  0
   56.0590   26.2110   46.1530 C   0  0  0  0  0  0  0  0  0  0  0  0
   54.7710   26.7160   46.0150 O   0  0  0  0  0  0  0  0  0  0  0  0
   57.7900   29.5370   45.9260 C   0  0  0  0  0  0  0  0  0  0  0  0
   58.8090   29.6060   46.9970 C   0  0  0  0  0  0  0  0  0  0  0  0
   58.5500   29.0540   48.2620 C   0  0  0  0  0  0  0  0  0  0  0  0
   59.5120   29.1290   49.2740 C   0  0  0  0  0  0  0  0  0  0  0  0
   60.7390   29.7550   49.0320 C   0  0  0  0  0  0  0  0  0  0  0  0
   61.9420   29.8500   50.3040 Cl  0  0  0  0  0  0  0  0  0  0  0  0
   61.0040   30.3060   47.7750 C   0  0  0  0  0  0  0  0  0  0  0  0
   60.0450   30.2330   46.7610 C   0  0  0  0  0  0  0  0  0  0  0  0
   57.7092   32.3362   46.3380 H   0  0  0  0  0  0  0  0  0  0  0  0
   58.5968   32.1791   44.7842 H   0  0  0  0  0  0  0  0  0  0  0  0
   56.8612   32.6422   44.7842 H   0  0  0  0  0  0  0  0  0  0  0  0
   59.3514   27.1486   46.0268 H   0  0  0  0  0  0  0  0  0  0  0  0
   59.6405   24.7723   46.7208 H   0  0  0  0  0  0  0  0  0  0  0  0
   55.3493   24.2350   46.6936 H   0  0  0  0  0  0  0  0  0  0  0  0
   57.5865   28.5606   48.4576 H   0  0  0  0  0  0  0  0  0  0  0  0
   59.3032   28.6946   50.2628 H   0  0  0  0  0  0  0  0  0  0  0  0
   61.9691   30.7979   47.5836 H   0  0  0  0  0  0  0  0  0  0  0  0
   60.2583   30.6682   45.7735 H   0  0  0  0  0  0  0  0  0  0  0  0
  1  2  1  0
  2  3  2  0
  3  4  1  0
  4  5  1  0
  5  6  1  0
  6  7  2  0
  7  8  1  0
  8  9  2  0
  9 10  1  0
  9 11  1  0
 11 12  2  0
 12 13  1  0
  5 14  2  0
 14 15  1  0
 15 16  2  0
 16 17  1  0
 17 18  2  0
 18 19  1  0
 18 20  1  0
 20 21  2  0
 14  2  1  0
 21 15  1  0
 12  6  1  0
  1 22  1  0
  1 23  1  0
  1 24  1  0
  7 25  1  0
  8 26  1  0
 11 27  1  0
 16 28  1  0
 17 29  1  0
 20 30  1  0
 21 31  1  0
M  CHG  2  10  -1  13  -1
M  END
>  <UniqueID>  (66) 
61

>  <SMILES>  (66) 
Cc1noc(-c2ccc([O-])cc2[O-])c1-c1ccc(Cl)cc1

>  <Energy>  (66) 
73.44660125550877

>  <Genealogy>  (66) 
Cc1noc(-c2ccc([O-])cc2[O-])c1-c1ccc(Cl)cc1 (protonated)
Cc1noc(-c2ccc([O-])cc2[O-])c1-c1ccc(Cl)cc1 (3D coordinates assigned)
Cc1noc(-c2ccc([O-])cc2[O-])c1-c1ccc(Cl)cc1 (optimized conformer: 73.44660125550877 kcal/mol)

>  <smiles>  (66) 
Cc1noc(-c2ccc(O)cc2O)c1-c1ccc(Cl)cc1

>  <score_type>  (66) 
oracle

>  <origin>  (66) 
adg

>  <m_score__min__energy>  (66) 
-13.15

>  <m_primary>  (66) 
energy

$$$$
66:0
     RDKit          3D

 63 67  0  0  0  0  0  0  0  0999 V2000
   59.9813   36.3742   46.5476 H   0  0  0  0  0  0  0  0  0  0  0  0
   59.5950   35.3650   46.3420 C   0  0  0  0  0  0  0  0  0  0  0  0
   59.4150   34.4580   47.3910 C   0  0  0  0  0  0  0  0  0  0  0  0
   59.6608   34.7543   48.4214 H   0  0  0  0  0  0  0  0  0  0  0  0
   58.9230   33.1750   47.1320 C   0  0  0  0  0  0  0  0  0  0  0  0
   58.7868   32.4626   47.9590 H   0  0  0  0  0  0  0  0  0  0  0  0
   58.6020   32.7930   45.8180 C   0  0  0  0  0  0  0  0  0  0  0  0
   58.1000   31.4040   45.5250 C   0  0  0  0  0  0  0  0  0  0  0  0
   58.7232   30.9518   44.7395 H   0  0  0  0  0  0  0  0  0  0  0  0
   57.0543   31.4664   45.1895 H   0  0  0  0  0  0  0  0  0  0  0  0
   58.1630   30.5740   46.7270 N   0  0  0  0  0  0  0  0  0  0  0  0
   58.3060   29.2810   46.7350 C   0  0  0  0  0  0  0  0  0  0  0  0
   57.8520   28.5280   45.6940 N   0  0  0  0  0  0  0  0  0  0  0  0
   58.0210   27.1820   45.6650 C   0  0  0  0  0  0  0  0  0  0  0  0
   57.5400   26.4300   44.5900 C   0  0  0  0  0  0  0  0  0  0  0  0
   57.0142   26.9293   43.7628 H   0  0  0  0  0  0  0  0  0  0  0  0
   57.7270   25.0330   44.5630 C   0  0  0  0  0  0  0  0  0  0  0  0
   57.2570   24.2410   43.5040 O   0  0  0  0  0  0  0  0  0  0  0  0
   56.2270   23.2640   43.6220 C   0  0  0  0  0  0  0  0  0  0  0  0
   56.0242   23.0717   44.6859 H   0  0  0  0  0  0  0  0  0  0  0  0
   55.3126   23.6346   43.1356 H   0  0  0  0  0  0  0  0  0  0  0  0
   56.5488   22.3313   43.1356 H   0  0  0  0  0  0  0  0  0  0  0  0
   58.4020   24.4000   45.6210 C   0  0  0  0  0  0  0  0  0  0  0  0
   58.5750   23.0070   45.5610 O   0  0  0  0  0  0  0  0  0  0  0  0
   59.6230   22.3550   44.8530 C   0  0  0  0  0  0  0  0  0  0  0  0
   60.3312   21.9144   45.5702 H   0  0  0  0  0  0  0  0  0  0  0  0
   59.1995   21.5607   44.2208 H   0  0  0  0  0  0  0  0  0  0  0  0
   60.1484   23.0859   44.2208 H   0  0  0  0  0  0  0  0  0  0  0  0
   58.8830   25.1650   46.7030 C   0  0  0  0  0  0  0  0  0  0  0  0
   59.4104   24.6717   47.5328 H   0  0  0  0  0  0  0  0  0  0  0  0
   58.6910   26.5480   46.7230 C   0  0  0  0  0  0  0  0  0  0  0  0
   59.1430   27.2950   47.7650 N   0  0  0  0  0  0  0  0  0  0  0  0
   58.9570   28.6430   47.8110 C   0  0  0  0  0  0  0  0  0  0  0  0
   59.4490   29.3840   48.9400 N   0  0  0  0  0  0  0  0  0  0  0  0
   60.8270   29.1570   49.3930 C   0  0  0  0  0  0  0  0  0  0  0  0
   60.9166   28.1232   49.7580 H   0  0  0  0  0  0  0  0  0  0  0  0
   61.5015   29.3343   48.5423 H   0  0  0  0  0  0  0  0  0  0  0  0
   61.2190   30.1210   50.5250 C   0  0  0  0  0  0  0  0  0  0  0  0
   60.7880   29.7520   51.4674 H   0  0  0  0  0  0  0  0  0  0  0  0
   62.3176   30.1558   50.5684 H   0  0  0  0  0  0  0  0  0  0  0  0
   60.7130   31.5620   50.2790 C   0  0  0  0  0  0  0  0  0  0  0  0
   60.7969   32.0964   51.2368 H   0  0  0  0  0  0  0  0  0  0  0  0
   61.5960   32.2880   49.2720 C   0  0  0  0  0  0  0  0  0  0  0  0
   62.1400   33.5440   49.6000 C   0  0  0  0  0  0  0  0  0  0  0  0
   61.9057   34.0023   50.5721 H   0  0  0  0  0  0  0  0  0  0  0  0
   62.9750   34.2140   48.7020 C   0  0  0  0  0  0  0  0  0  0  0  0
   63.3859   35.1998   48.9653 H   0  0  0  0  0  0  0  0  0  0  0  0
   63.2890   33.6340   47.4700 C   0  0  0  0  0  0  0  0  0  0  0  0
   63.9462   34.1629   46.7641 H   0  0  0  0  0  0  0  0  0  0  0  0
   62.7680   32.3830   47.1360 C   0  0  0  0  0  0  0  0  0  0  0  0
   63.0164   31.9258   46.1669 H   0  0  0  0  0  0  0  0  0  0  0  0
   61.9310   31.7100   48.0310 C   0  0  0  0  0  0  0  0  0  0  0  0
   61.5304   30.7208   47.7643 H   0  0  0  0  0  0  0  0  0  0  0  0
   59.1990   31.6310   49.9140 C   0  0  0  0  0  0  0  0  0  0  0  0
   58.6680   32.1515   50.7247 H   0  0  0  0  0  0  0  0  0  0  0  0
   59.1194   32.1652   48.9557 H   0  0  0  0  0  0  0  0  0  0  0  0
   58.5570   30.2510   49.7190 C   0  0  0  0  0  0  0  0  0  0  0  0
   58.3727   29.7935   50.7022 H   0  0  0  0  0  0  0  0  0  0  0  0
   57.6073   30.3697   49.1768 H   0  0  0  0  0  0  0  0  0  0  0  0
   58.7880   33.7080   44.7690 C   0  0  0  0  0  0  0  0  0  0  0  0
   58.5428   33.4163   43.7371 H   0  0  0  0  0  0  0  0  0  0  0  0
   59.2840   34.9890   45.0320 C   0  0  0  0  0  0  0  0  0  0  0  0
   59.4296   35.7017   44.2068 H   0  0  0  0  0  0  0  0  0  0  0  0
  1  2  1  0
  2  3  2  0
  3  4  1  0
  3  5  1  0
  5  6  1  0
  5  7  2  0
  7  8  1  0
  8  9  1  0
  8 10  1  0
  8 11  1  0
 11 12  2  0
 12 13  1  0
 13 14  1  0
 14 15  2  0
 15 16  1  0
 15 17  1  0
 17 18  1  0
 18 19  1  0
 19 20  1  0
 19 21  1  0
 19 22  1  0
 17 23  2  0
 23 24  1  0
 24 25  1  0
 25 26  1  0
 25 27  1  0
 25 28  1  0
 23 29  1  0
 29 30  1  0
 29 31  2  0
 31 32  1  0
 32 33  2  0
 33 34  1  0
 34 35  1  0
 35 36  1  0
 35 37  1  0
 35 38  1  0
 38 39  1  0
 38 40  1  0
 38 41  1  0
 41 42  1  0
 41 43  1  0
 43 44  2  0
 44 45  1  0
 44 46  1  0
 46 47  1  0
 46 48  2  0
 48 49  1  0
 48 50  1  0
 50 51  1  0
 50 52  2  0
 52 53  1  0
 41 54  1  0
 54 55  1  0
 54 56  1  0
 54 57  1  0
 57 58  1  0
 57 59  1  0
  7 60  1  0
 60 61  1  0
 60 62  2  0
 62 63  1  0
 62  2  1  0
 33 12  1  0
 57 34  1  0
 31 14  1  0
 52 43  1  0
M  CHG  1  13  -1
M  END
>  <UniqueID>  (67) 
62

>  <SMILES>  (67) 
COc1cc2nc(N3CCC(c4ccccc4)CC3)/c(=N/Cc3ccccc3)[n-]c2cc1OC

>  <Energy>  (67) 
77.33818986716764

>  <Genealogy>  (67) 
COc1cc2nc(N3CCC(c4ccccc4)CC3)c(=NCc3ccccc3)[n-]c2cc1OC (protonated)
COc1cc2nc(N3CCC(c4ccccc4)CC3)/c(=N/Cc3ccccc3)[n-]c2cc1OC (cis-trans isomerization)
COc1cc2nc(N3CCC(c4ccccc4)CC3)/c(=N/Cc3ccccc3)[n-]c2cc1OC (3D coordinates assigned)
COc1cc2nc(N3CCC(c4ccccc4)CC3)/c(=N/Cc3ccccc3)[n-]c2cc1OC (nonaromatic ring conformer: 77.33818986716764 kcal/mol)

>  <smiles>  (67) 
COc1cc2nc(N3CCC(c4ccccc4)CC3)c(=NCc3ccccc3)[nH]c2cc1OC

>  <score_type>  (67) 
oracle

>  <origin>  (67) 
adg

>  <m_score__min__energy>  (67) 
-10.43

>  <m_primary>  (67) 
energy

$$$$
67:0
     RDKit          3D

 27 29  0  0  0  0  0  0  0  0999 V2000
   57.2710   31.3560   42.2980 N   0  0  0  0  0  0  0  0  0  0  0  0
   57.6090   31.6160   43.3730 C   0  0  0  0  0  0  0  0  0  0  0  0
   58.0290   31.9370   44.7100 C   0  0  0  0  0  0  0  0  0  0  0  0
   58.0220   31.0960   45.8180 C   0  0  0  0  0  0  0  0  0  0  0  0
   58.4940   31.7490   46.9080 N   0  0  0  0  0  0  0  0  0  0  0  0
   58.7960   32.9920   46.4890 C   0  0  0  0  0  0  0  0  0  0  0  0
   59.3150   34.0640   47.2070 C   0  0  0  0  0  0  0  0  0  0  0  0
   59.6680   33.9380   48.9620 S   0  0  0  0  0  0  0  0  0  0  0  0
   61.4140   33.6440   48.6800 C   0  0  0  0  0  0  0  0  0  0  0  0
   62.3170   33.6780   49.7510 C   0  0  0  0  0  0  0  0  0  0  0  0
   63.6790   33.4550   49.5270 C   0  0  0  0  0  0  0  0  0  0  0  0
   64.1420   33.1920   48.2330 C   0  0  0  0  0  0  0  0  0  0  0  0
   63.2420   33.1510   47.1630 C   0  0  0  0  0  0  0  0  0  0  0  0
   61.8790   33.3750   47.3860 C   0  0  0  0  0  0  0  0  0  0  0  0
   59.5420   35.2320   46.5340 N   0  0  0  0  0  0  0  0  0  0  0  0
   59.2630   35.3480   45.1950 C   0  0  0  0  0  0  0  0  0  0  0  0
   58.7490   34.2920   44.4970 N   0  0  0  0  0  0  0  0  0  0  0  0
   58.5270   33.1340   45.1640 C   0  0  0  0  0  0  0  0  0  0  0  0
   57.6818   30.0499   45.8107 H   0  0  0  0  0  0  0  0  0  0  0  0
   58.6050   31.3570   47.8700 H   0  0  0  0  0  0  0  0  0  0  0  0
   61.9538   33.8804   50.7694 H   0  0  0  0  0  0  0  0  0  0  0  0
   64.3869   33.4863   50.3684 H   0  0  0  0  0  0  0  0  0  0  0  0
   65.2137   33.0175   48.0572 H   0  0  0  0  0  0  0  0  0  0  0  0
   63.6059   32.9426   46.1461 H   0  0  0  0  0  0  0  0  0  0  0  0
   61.1716   33.3399   46.5443 H   0  0  0  0  0  0  0  0  0  0  0  0
   59.9320   36.0560   47.0440 H   0  0  0  0  0  0  0  0  0  0  0  0
   59.4551   36.3003   44.6790 H   0  0  0  0  0  0  0  0  0  0  0  0
  1  2  3  0
  2  3  1  0
  3  4  2  0
  4  5  1  0
  5  6  1  0
  6  7  2  0
  7  8  1  0
  8  9  1  0
  9 10  2  0
 10 11  1  0
 11 12  2  0
 12 13  1  0
 13 14  2  0
  7 15  1  0
 15 16  2  0
 16 17  1  0
 17 18  2  0
 18  3  1  0
 18  6  1  0
 14  9  1  0
  4 19  1  0
  5 20  1  0
 10 21  1  0
 11 22  1  0
 12 23  1  0
 13 24  1  0
 14 25  1  0
 15 26  1  0
 16 27  1  0
M  CHG  1  15   1
M  END
>  <UniqueID>  (68) 
63

>  <SMILES>  (68) 
N#Cc1c[nH]c2c(Sc3ccccc3)[nH+]cnc12

>  <Energy>  (68) 
60.8956755014208

>  <Genealogy>  (68) 
N#Cc1c[nH]c2c(Sc3ccccc3)[nH+]cnc12 (protonated)
N#Cc1c[nH]c2c(Sc3ccccc3)[nH+]cnc12 (3D coordinates assigned)
N#Cc1c[nH]c2c(Sc3ccccc3)[nH+]cnc12 (optimized conformer: 60.8956755014208 kcal/mol)

>  <smiles>  (68) 
N#Cc1c[nH]c2c(Sc3ccccc3)ncnc12

>  <score_type>  (68) 
oracle

>  <origin>  (68) 
adg

>  <m_score__min__energy>  (68) 
-4.9699999999999998

>  <m_primary>  (68) 
energy

$$$$
68:0
     RDKit          3D

 35 37  0  0  1  0  0  0  0  0999 V2000
   57.0240   28.9400   44.1600 C   0  0  0  0  0  0  0  0  0  0  0  0
   56.6150   30.0670   44.8890 O   0  0  0  0  0  0  0  0  0  0  0  0
   57.3030   31.2620   44.8700 C   0  0  0  0  0  0  0  0  0  0  0  0
   57.4800   31.9320   43.6740 C   0  0  0  0  0  0  0  0  0  0  0  0
   58.1680   33.1290   43.6490 C   0  0  0  0  0  0  0  0  0  0  0  0
   58.6740   33.6410   44.8440 C   0  0  0  0  0  0  0  0  0  0  0  0
   59.3500   34.8100   44.8520 N   0  0  0  0  0  0  0  0  0  0  0  0
   59.8510   35.3260   46.0080 C   0  0  0  0  0  0  0  0  0  0  0  0
   59.6740   34.6650   47.1730 N   0  0  0  0  0  0  0  0  0  0  0  0
   59.0030   33.4960   47.2040 C   0  0  0  0  0  0  0  0  0  0  0  0
   58.8390   32.8720   48.3260 N   0  0  0  0  0  0  0  0  0  0  0  0
   59.8080   31.9610   48.8510 C   0  0  0  0  0  0  0  0  0  0  0  0
   60.9570   32.6780   49.4920 C   0  0  0  0  0  0  0  0  0  0  0  0
   62.0320   32.9050   48.4670 C   0  0  0  0  0  0  0  0  0  0  0  0
   63.0150   32.0170   48.0820 C   0  0  0  0  0  0  0  0  0  0  0  0
   63.7570   32.6420   47.1390 N   0  0  0  0  0  0  0  0  0  0  0  0
   63.2670   33.8900   46.9240 C   0  0  0  0  0  0  0  0  0  0  0  0
   62.2000   34.0420   47.7510 N   0  0  0  0  0  0  0  0  0  0  0  0
   58.4860   32.9530   46.0410 C   0  0  0  0  0  0  0  0  0  0  0  0
   57.7960   31.7520   46.0680 C   0  0  0  0  0  0  0  0  0  0  0  0
   57.3147   28.1390   44.8556 H   0  0  0  0  0  0  0  0  0  0  0  0
   56.1947   28.5924   43.5264 H   0  0  0  0  0  0  0  0  0  0  0  0
   57.8832   29.2051   43.5264 H   0  0  0  0  0  0  0  0  0  0  0  0
   57.0729   31.5118   42.7425 H   0  0  0  0  0  0  0  0  0  0  0  0
   58.3147   33.6699   42.7025 H   0  0  0  0  0  0  0  0  0  0  0  0
   60.3991   36.2796   45.9935 H   0  0  0  0  0  0  0  0  0  0  0  0
   60.0640   35.0710   48.0580 H   0  0  0  0  0  0  0  0  0  0  0  0
   59.3238   31.3208   49.6031 H   0  0  0  0  0  0  0  0  0  0  0  0
   60.2017   31.3626   48.0162 H   0  0  0  0  0  0  0  0  0  0  0  0
   60.6132   33.6461   49.8851 H   0  0  0  0  0  0  0  0  0  0  0  0
   61.3564   32.0713   50.3181 H   0  0  0  0  0  0  0  0  0  0  0  0
   63.1663   30.9978   48.4672 H   0  0  0  0  0  0  0  0  0  0  0  0
   64.5930   32.2800   46.6120 H   0  0  0  0  0  0  0  0  0  0  0  0
   63.6589   34.6351   46.2160 H   0  0  0  0  0  0  0  0  0  0  0  0
   57.6446   31.2052   47.0104 H   0  0  0  0  0  0  0  0  0  0  0  0
  1  2  1  0
  2  3  1  0
  3  4  2  0
  4  5  1  0
  5  6  2  0
  6  7  1  0
  7  8  2  0
  8  9  1  0
  9 10  1  0
 10 11  2  0
 11 12  1  0
 12 13  1  0
 13 14  1  0
 14 15  2  0
 15 16  1  0
 16 17  1  0
 17 18  2  0
 10 19  1  0
 19 20  2  0
 20  3  1  0
 19  6  1  0
 18 14  1  0
  1 21  1  0
  1 22  1  0
  1 23  1  0
  4 24  1  0
  5 25  1  0
  8 26  1  0
  9 27  1  0
 12 28  1  0
 12 29  1  0
 13 30  1  0
 13 31  1  0
 15 32  1  0
 16 33  1  0
 17 34  1  0
 20 35  1  0
M  END
>  <smiles>  (69) 
COc1ccc2nc[nH]c(=NCCc3c[nH]cn3)c2c1

>  <score_type>  (69) 
oracle

>  <origin>  (69) 
adg

>  <m_score__min__energy>  (69) 
-6.4199999999999999

>  <m_primary>  (69) 
energy

$$$$
69:0
     RDKit          3D

 32 33  0  0  0  0  0  0  0  0999 V2000
   56.8110   34.4830   44.9310 C   0  0  0  0  0  0  0  0  0  0  0  0
   57.9850   33.9540   45.6900 C   0  0  0  0  0  0  0  0  0  0  0  0
   59.2850   34.3420   45.3440 C   0  0  0  0  0  0  0  0  0  0  0  0
   60.3700   33.7940   46.0300 C   0  0  0  0  0  0  0  0  0  0  0  0
   60.1560   32.8500   47.0450 C   0  0  0  0  0  0  0  0  0  0  0  0
   61.3200   32.2200   47.7640 C   0  0  0  0  0  0  0  0  0  0  0  0
   61.0300   30.4460   48.1240 S   0  0  0  0  0  0  0  0  0  0  0  0
   60.9440   29.8550   46.3910 C   0  0  0  0  0  0  0  0  0  0  0  0
   59.5210   29.6240   45.9530 C   0  0  0  0  0  0  0  0  0  0  0  0
   58.7200   28.6750   46.6080 C   0  0  0  0  0  0  0  0  0  0  0  0
   57.3890   28.4920   46.2280 C   0  0  0  0  0  0  0  0  0  0  0  0
   56.8410   29.2400   45.1810 C   0  0  0  0  0  0  0  0  0  0  0  0
   55.5020   29.0410   44.8450 O   0  0  0  0  0  0  0  0  0  0  0  0
   57.6480   30.1690   44.4960 C   0  0  0  0  0  0  0  0  0  0  0  0
   57.0140   31.1380   43.1730 Cl  0  0  0  0  0  0  0  0  0  0  0  0
   58.9830   30.3480   44.8770 C   0  0  0  0  0  0  0  0  0  0  0  0
   58.8350   32.5160   47.3830 C   0  0  0  0  0  0  0  0  0  0  0  0
   57.7940   33.0580   46.6960 N   0  0  0  0  0  0  0  0  0  0  0  0
   56.0429   34.8291   45.6383 H   0  0  0  0  0  0  0  0  0  0  0  0
   57.1320   35.3235   44.2981 H   0  0  0  0  0  0  0  0  0  0  0  0
   56.3941   33.6857   44.2981 H   0  0  0  0  0  0  0  0  0  0  0  0
   59.4499   35.0726   44.5383 H   0  0  0  0  0  0  0  0  0  0  0  0
   61.3943   34.1029   45.7742 H   0  0  0  0  0  0  0  0  0  0  0  0
   62.2175   32.3121   47.1347 H   0  0  0  0  0  0  0  0  0  0  0  0
   61.4493   32.7434   48.7228 H   0  0  0  0  0  0  0  0  0  0  0  0
   61.4017   30.6090   45.7337 H   0  0  0  0  0  0  0  0  0  0  0  0
   61.4830   28.8982   46.3269 H   0  0  0  0  0  0  0  0  0  0  0  0
   59.1434   28.0723   47.4250 H   0  0  0  0  0  0  0  0  0  0  0  0
   56.7669   27.7542   46.7559 H   0  0  0  0  0  0  0  0  0  0  0  0
   54.7680   28.9740   45.5390 H   0  0  0  0  0  0  0  0  0  0  0  0
   59.6157   31.0617   44.3290 H   0  0  0  0  0  0  0  0  0  0  0  0
   58.6412   31.8132   48.2067 H   0  0  0  0  0  0  0  0  0  0  0  0
  1  2  1  0
  2  3  2  0
  3  4  1  0
  4  5  2  0
  5  6  1  0
  6  7  1  0
  7  8  1  0
  8  9  1  0
  9 10  2  0
 10 11  1  0
 11 12  2  0
 12 13  1  0
 12 14  1  0
 14 15  1  0
 14 16  2  0
  5 17  1  0
 17 18  2  0
 18  2  1  0
 16  9  1  0
  1 19  1  0
  1 20  1  0
  1 21  1  0
  3 22  1  0
  4 23  1  0
  6 24  1  0
  6 25  1  0
  8 26  1  0
  8 27  1  0
 10 28  1  0
 11 29  1  0
 13 30  1  0
 16 31  1  0
 17 32  1  0
M  END
>  <UniqueID>  (70) 
64

>  <SMILES>  (70) 
Cc1ccc(CSCc2ccc(O)c(Cl)c2)cn1

>  <Energy>  (70) 
25.969239981953194

>  <Genealogy>  (70) 
Cc1ccc(CSCc2ccc(O)c(Cl)c2)cn1 (3D coordinates assigned)
Cc1ccc(CSCc2ccc(O)c(Cl)c2)cn1 (optimized conformer: 25.969239981953194 kcal/mol)

>  <smiles>  (70) 
Cc1ccc(CSCc2ccc(O)c(Cl)c2)cn1

>  <score_type>  (70) 
oracle

>  <origin>  (70) 
adg

>  <m_score__min__energy>  (70) 
-7.0999999999999996

>  <m_primary>  (70) 
energy

$$$$
70:0
     RDKit          3D

 35 36  0  0  0  0  0  0  0  0999 V2000
   56.3100   22.6090   43.0210 C   0  0  0  0  0  0  0  0  0  0  0  0
   55.2460   23.4710   43.6990 C   0  0  0  0  0  0  0  0  0  0  0  0
   55.7990   24.2710   44.8880 C   0  0  0  0  0  0  0  0  0  0  0  0
   54.7120   25.0670   45.6210 C   0  0  0  0  0  0  0  0  0  0  0  0
   55.2110   26.3860   45.9920 N   0  0  0  0  0  0  0  0  0  0  0  0
   56.6030   26.7130   46.0920 C   0  0  0  0  0  0  0  0  0  0  0  0
   57.4390   25.7980   46.3210 O   0  0  0  0  0  0  0  0  0  0  0  0
   57.0420   28.1270   45.9520 C   0  0  0  0  0  0  0  0  0  0  0  0
   56.3390   28.9780   45.0830 C   0  0  0  0  0  0  0  0  0  0  0  0
   56.7040   30.2780   44.9440 N   0  0  0  0  0  0  0  0  0  0  0  0
   57.7550   30.7890   45.6330 C   0  0  0  0  0  0  0  0  0  0  0  0
   58.1240   32.1990   45.4630 C   0  0  0  0  0  0  0  0  0  0  0  0
   58.1410   32.8990   44.2730 C   0  0  0  0  0  0  0  0  0  0  0  0
   58.5480   34.1760   44.6000 C   0  0  0  0  0  0  0  0  0  0  0  0
   58.7550   34.1740   45.9640 C   0  0  0  0  0  0  0  0  0  0  0  0
   58.4940   32.9830   46.4500 O   0  0  0  0  0  0  0  0  0  0  0  0
   58.4610   29.9900   46.4730 N   0  0  0  0  0  0  0  0  0  0  0  0
   58.1450   28.6790   46.6520 C   0  0  0  0  0  0  0  0  0  0  0  0
   59.0040   27.8740   47.5830 C   0  0  0  0  0  0  0  0  0  0  0  0
   56.9229   22.1125   43.7877 H   0  0  0  0  0  0  0  0  0  0  0  0
   55.8212   21.8491   42.3936 H   0  0  0  0  0  0  0  0  0  0  0  0
   56.9519   23.2449   42.3936 H   0  0  0  0  0  0  0  0  0  0  0  0
   54.8405   24.1763   42.9586 H   0  0  0  0  0  0  0  0  0  0  0  0
   54.4690   22.7955   44.0862 H   0  0  0  0  0  0  0  0  0  0  0  0
   56.2623   23.5707   45.5986 H   0  0  0  0  0  0  0  0  0  0  0  0
   56.5301   24.9918   44.4930 H   0  0  0  0  0  0  0  0  0  0  0  0
   53.8396   25.1820   44.9609 H   0  0  0  0  0  0  0  0  0  0  0  0
   54.4262   24.5238   46.5338 H   0  0  0  0  0  0  0  0  0  0  0  0
   55.4851   28.5874   44.5101 H   0  0  0  0  0  0  0  0  0  0  0  0
   57.8839   32.5182   43.2735 H   0  0  0  0  0  0  0  0  0  0  0  0
   58.6806   35.0242   43.9123 H   0  0  0  0  0  0  0  0  0  0  0  0
   59.0884   35.0398   46.5550 H   0  0  0  0  0  0  0  0  0  0  0  0
   58.7445   28.1172   48.6239 H   0  0  0  0  0  0  0  0  0  0  0  0
   58.8344   26.8020   47.4037 H   0  0  0  0  0  0  0  0  0  0  0  0
   60.0627   28.1127   47.4037 H   0  0  0  0  0  0  0  0  0  0  0  0
  1  2  1  0
  2  3  1  0
  3  4  1  0
  4  5  1  0
  5  6  1  0
  6  7  2  0
  6  8  1  0
  8  9  2  0
  9 10  1  0
 10 11  2  0
 11 12  1  0
 12 13  2  0
 13 14  1  0
 14 15  2  0
 15 16  1  0
 11 17  1  0
 17 18  2  0
 18 19  1  0
 18  8  1  0
 16 12  1  0
  1 20  1  0
  1 21  1  0
  1 22  1  0
  2 23  1  0
  2 24  1  0
  3 25  1  0
  3 26  1  0
  4 27  1  0
  4 28  1  0
  9 29  1  0
 13 30  1  0
 14 31  1  0
 15 32  1  0
 19 33  1  0
 19 34  1  0
 19 35  1  0
M  CHG  1   5  -1
M  END
>  <UniqueID>  (71) 
65

>  <SMILES>  (71) 
CCCC[N-]C(=O)c1cnc(-c2ccco2)nc1C

>  <Energy>  (71) 
56.52437030783542

>  <Genealogy>  (71) 
CCCC[N-]C(=O)c1cnc(-c2ccco2)nc1C (protonated)
CCCC[N-]C(=O)c1cnc(-c2ccco2)nc1C (3D coordinates assigned)
CCCC[N-]C(=O)c1cnc(-c2ccco2)nc1C (optimized conformer: 56.52437030783542 kcal/mol)

>  <smiles>  (71) 
CCCCNC(=O)c1cnc(-c2ccco2)nc1C

>  <score_type>  (71) 
oracle

>  <origin>  (71) 
adg

>  <m_score__min__energy>  (71) 
-7.9199999999999999

>  <m_primary>  (71) 
energy

$$$$
71:0
     RDKit          3D

 28 30  0  0  0  0  0  0  0  0999 V2000
   56.3180   29.4530   42.6920 C   0  0  0  0  0  0  0  0  0  0  0  0
   57.0040   30.1790   43.8210 C   0  0  0  0  0  0  0  0  0  0  0  0
   57.2080   31.5650   43.6990 C   0  0  0  0  0  0  0  0  0  0  0  0
   57.8740   32.2760   44.6990 C   0  0  0  0  0  0  0  0  0  0  0  0
   58.0730   33.6110   44.5640 F   0  0  0  0  0  0  0  0  0  0  0  0
   58.3410   31.6150   45.8340 C   0  0  0  0  0  0  0  0  0  0  0  0
   58.1300   30.2430   45.9810 C   0  0  0  0  0  0  0  0  0  0  0  0
   57.4450   29.5130   44.9940 C   0  0  0  0  0  0  0  0  0  0  0  0
   57.2150   28.0670   45.2160 C   0  0  0  0  0  0  0  0  0  0  0  0
   58.1940   27.0760   45.0960 C   0  0  0  0  0  0  0  0  0  0  0  0
   57.5550   25.9040   45.4340 C   0  0  0  0  0  0  0  0  0  0  0  0
   58.0110   24.5920   45.5060 C   0  0  0  0  0  0  0  0  0  0  0  0
   57.0890   23.6100   45.9100 C   0  0  0  0  0  0  0  0  0  0  0  0
   55.7620   23.9790   46.2270 C   0  0  0  0  0  0  0  0  0  0  0  0
   55.3650   25.2850   46.1430 N   0  0  0  0  0  0  0  0  0  0  0  0
   56.2640   26.2210   45.7460 C   0  0  0  0  0  0  0  0  0  0  0  0
   56.0350   27.5370   45.6240 N   0  0  0  0  0  0  0  0  0  0  0  0
   55.6177   28.7118   43.1046 H   0  0  0  0  0  0  0  0  0  0  0  0
   55.7651   30.1755   42.0738 H   0  0  0  0  0  0  0  0  0  0  0  0
   57.0707   28.9418   42.0738 H   0  0  0  0  0  0  0  0  0  0  0  0
   56.8395   32.0938   42.8076 H   0  0  0  0  0  0  0  0  0  0  0  0
   58.8764   32.1752   46.6147 H   0  0  0  0  0  0  0  0  0  0  0  0
   58.5035   29.7278   46.8782 H   0  0  0  0  0  0  0  0  0  0  0  0
   59.2448   27.2045   44.7970 H   0  0  0  0  0  0  0  0  0  0  0  0
   59.0507   24.3330   45.2570 H   0  0  0  0  0  0  0  0  0  0  0  0
   57.3999   22.5571   45.9791 H   0  0  0  0  0  0  0  0  0  0  0  0
   55.0427   23.2095   46.5439 H   0  0  0  0  0  0  0  0  0  0  0  0
   55.1460   28.0390   45.8420 H   0  0  0  0  0  0  0  0  0  0  0  0
  1  2  1  0
  2  3  2  0
  3  4  1  0
  4  5  1  0
  4  6  2  0
  6  7  1  0
  7  8  2  0
  8  9  1  0
  9 10  2  0
 10 11  1  0
 11 12  2  0
 12 13  1  0
 13 14  2  0
 14 15  1  0
 15 16  2  0
 16 17  1  0
  8  2  1  0
 17  9  1  0
 16 11  1  0
  1 18  1  0
  1 19  1  0
  1 20  1  0
  3 21  1  0
  6 22  1  0
  7 23  1  0
 10 24  1  0
 12 25  1  0
 13 26  1  0
 14 27  1  0
 17 28  1  0
M  END
>  <UniqueID>  (72) 
66

>  <SMILES>  (72) 
Cc1cc(F)ccc1-c1cc2cccnc2[nH]1

>  <Energy>  (72) 
71.15800541003182

>  <Genealogy>  (72) 
Cc1cc(F)ccc1-c1cc2cccnc2[nH]1 (3D coordinates assigned)
Cc1cc(F)ccc1-c1cc2cccnc2[nH]1 (optimized conformer: 71.15800541003182 kcal/mol)

>  <smiles>  (72) 
Cc1cc(F)ccc1-c1cc2cccnc2[nH]1

>  <score_type>  (72) 
oracle

>  <origin>  (72) 
adg

>  <m_score__min__energy>  (72) 
-6.9400000000000004

>  <m_primary>  (72) 
energy

$$$$
72:0
     RDKit          3D

 25 27  0  0  0  0  0  0  0  0999 V2000
   59.9580   26.3660   45.6840 O   0  0  0  0  0  0  0  0  0  0  0  0
   58.9030   27.0500   45.6680 C   0  0  0  0  0  0  0  0  0  0  0  0
   57.6780   26.4480   45.8660 C   0  0  0  0  0  0  0  0  0  0  0  0
   56.5700   27.2770   45.8340 C   0  0  0  0  0  0  0  0  0  0  0  0
   55.3130   26.7280   46.0250 O   0  0  0  0  0  0  0  0  0  0  0  0
   56.7200   28.6030   45.6160 N   0  0  0  0  0  0  0  0  0  0  0  0
   57.9170   29.1820   45.4250 C   0  0  0  0  0  0  0  0  0  0  0  0
   58.0920   30.6090   45.1910 C   0  0  0  0  0  0  0  0  0  0  0  0
   57.6920   31.2420   44.0330 C   0  0  0  0  0  0  0  0  0  0  0  0
   57.8730   32.6120   43.8390 C   0  0  0  0  0  0  0  0  0  0  0  0
   58.4710   33.3510   44.8380 C   0  0  0  0  0  0  0  0  0  0  0  0
   58.8770   32.7380   46.0010 C   0  0  0  0  0  0  0  0  0  0  0  0
   58.6830   31.3950   46.1560 C   0  0  0  0  0  0  0  0  0  0  0  0
   59.4320   33.7300   46.7980 O   0  0  0  0  0  0  0  0  0  0  0  0
   59.3690   34.9940   46.1860 C   0  0  0  0  0  0  0  0  0  0  0  0
   58.7770   34.6990   44.9310 O   0  0  0  0  0  0  0  0  0  0  0  0
   58.9920   28.3760   45.4570 N   0  0  0  0  0  0  0  0  0  0  0  0
   57.5863   25.3658   46.0402 H   0  0  0  0  0  0  0  0  0  0  0  0
   55.1390   26.3350   46.9570 H   0  0  0  0  0  0  0  0  0  0  0  0
   55.8490   29.1750   45.6030 H   0  0  0  0  0  0  0  0  0  0  0  0
   57.2159   30.6491   43.2382 H   0  0  0  0  0  0  0  0  0  0  0  0
   57.5447   33.0937   42.9062 H   0  0  0  0  0  0  0  0  0  0  0  0
   59.0129   30.9203   47.0918 H   0  0  0  0  0  0  0  0  0  0  0  0
   58.7429   35.6865   46.7678 H   0  0  0  0  0  0  0  0  0  0  0  0
   60.3473   35.4901   46.1033 H   0  0  0  0  0  0  0  0  0  0  0  0
  1  2  2  0
  2  3  1  0
  3  4  2  0
  4  5  1  0
  4  6  1  0
  6  7  1  0
  7  8  1  0
  8  9  2  0
  9 10  1  0
 10 11  2  0
 11 12  1  0
 12 13  2  0
 12 14  1  0
 14 15  1  0
 15 16  1  0
  7 17  2  0
 17  2  1  0
 13  8  1  0
 16 11  1  0
  3 18  1  0
  5 19  1  0
  6 20  1  0
  9 21  1  0
 10 22  1  0
 13 23  1  0
 15 24  1  0
 15 25  1  0
M  END
>  <smiles>  (73) 
O=c1cc(O)[nH]c(-c2ccc3c(c2)OCO3)n1

>  <score_type>  (73) 
oracle

>  <origin>  (73) 
adg

>  <m_score__min__energy>  (73) 
-6.4800000000000004

>  <m_primary>  (73) 
energy

$$$$
73:0
     RDKit          3D

 45 48  0  0  0  0  0  0  0  0999 V2000
   59.9710   35.8970   46.2570 C   0  0  0  0  0  0  0  0  0  0  0  0
   59.1120   34.7590   45.7890 C   0  0  0  0  0  0  0  0  0  0  0  0
   59.2740   34.2380   44.4970 C   0  0  0  0  0  0  0  0  0  0  0  0
   58.4980   33.1540   44.0720 C   0  0  0  0  0  0  0  0  0  0  0  0
   57.5690   32.5640   44.9420 C   0  0  0  0  0  0  0  0  0  0  0  0
   56.7100   31.4260   44.4730 C   0  0  0  0  0  0  0  0  0  0  0  0
   57.1170   30.2030   45.1530 N   0  0  0  0  0  0  0  0  0  0  0  0
   56.4080   28.9610   45.0840 C   0  0  0  0  0  0  0  0  0  0  0  0
   55.1700   28.9790   44.8560 O   0  0  0  0  0  0  0  0  0  0  0  0
   57.1040   27.6390   45.2400 C   0  0  0  0  0  0  0  0  0  0  0  0
   57.7810   27.4760   46.9280 S   0  0  0  0  0  0  0  0  0  0  0  0
   59.2200   28.5080   46.6270 C   0  0  0  0  0  0  0  0  0  0  0  0
   59.9480   28.4410   45.4980 N   0  0  0  0  0  0  0  0  0  0  0  0
   60.8650   29.3930   45.5730 N   0  0  0  0  0  0  0  0  0  0  0  0
   60.6740   30.0390   46.7400 C   0  0  0  0  0  0  0  0  0  0  0  0
   61.4640   31.2280   47.1130 C   0  0  0  0  0  0  0  0  0  0  0  0
   61.2110   32.5460   46.7780 C   0  0  0  0  0  0  0  0  0  0  0  0
   62.2430   33.2760   47.3290 C   0  0  0  0  0  0  0  0  0  0  0  0
   63.0640   32.3640   47.9570 C   0  0  0  0  0  0  0  0  0  0  0  0
   62.5780   31.1530   47.8060 O   0  0  0  0  0  0  0  0  0  0  0  0
   59.6590   29.4880   47.4460 N   0  0  0  0  0  0  0  0  0  0  0  0
   59.0480   29.9440   48.6990 C   0  0  0  0  0  0  0  0  0  0  0  0
   58.9230   31.4570   48.8180 C   0  0  0  0  0  0  0  0  0  0  0  0
   59.9870   30.7230   49.6100 C   0  0  0  0  0  0  0  0  0  0  0  0
   57.4090   33.0850   46.2350 C   0  0  0  0  0  0  0  0  0  0  0  0
   58.1840   34.1690   46.6600 C   0  0  0  0  0  0  0  0  0  0  0  0
   59.9860   35.9169   47.3567 H   0  0  0  0  0  0  0  0  0  0  0  0
   60.9952   35.7630   45.8787 H   0  0  0  0  0  0  0  0  0  0  0  0
   59.5615   36.8452   45.8787 H   0  0  0  0  0  0  0  0  0  0  0  0
   60.0137   34.6831   43.8153 H   0  0  0  0  0  0  0  0  0  0  0  0
   58.6170   32.7626   43.0509 H   0  0  0  0  0  0  0  0  0  0  0  0
   55.6563   31.6416   44.7039 H   0  0  0  0  0  0  0  0  0  0  0  0
   56.8268   31.2997   43.3865 H   0  0  0  0  0  0  0  0  0  0  0  0
   56.3854   26.8265   45.0570 H   0  0  0  0  0  0  0  0  0  0  0  0
   57.9298   27.5812   44.5157 H   0  0  0  0  0  0  0  0  0  0  0  0
   60.3627   32.9317   46.1935 H   0  0  0  0  0  0  0  0  0  0  0  0
   62.3828   34.3659   47.2777 H   0  0  0  0  0  0  0  0  0  0  0  0
   63.9865   32.6127   48.5021 H   0  0  0  0  0  0  0  0  0  0  0  0
   58.3673   29.0893   48.8263 H   0  0  0  0  0  0  0  0  0  0  0  0
   59.2121   32.1004   47.9740 H   0  0  0  0  0  0  0  0  0  0  0  0
   58.1082   32.1519   49.0694 H   0  0  0  0  0  0  0  0  0  0  0  0
   61.0476   30.8343   49.3402 H   0  0  0  0  0  0  0  0  0  0  0  0
   60.2629   30.6656   50.6733 H   0  0  0  0  0  0  0  0  0  0  0  0
   56.6707   32.6389   46.9175 H   0  0  0  0  0  0  0  0  0  0  0  0
   58.0654   34.5604   47.6811 H   0  0  0  0  0  0  0  0  0  0  0  0
  1  2  1  0
  2  3  2  0
  3  4  1  0
  4  5  2  0
  5  6  1  0
  6  7  1  0
  7  8  1  0
  8  9  2  0
  8 10  1  0
 10 11  1  0
 11 12  1  0
 12 13  2  0
 13 14  1  0
 14 15  2  0
 15 16  1  0
 16 17  2  0
 17 18  1  0
 18 19  2  0
 19 20  1  0
 15 21  1  0
 21 22  1  0
 22 23  1  0
 23 24  1  0
  5 25  1  0
 25 26  2  0
 26  2  1  0
 21 12  1  0
 24 22  1  0
 20 16  1  0
  1 27  1  0
  1 28  1  0
  1 29  1  0
  3 30  1  0
  4 31  1  0
  6 32  1  0
  6 33  1  0
 10 34  1  0
 10 35  1  0
 17 36  1  0
 18 37  1  0
 19 38  1  0
 22 39  1  0
 23 40  1  0
 23 41  1  0
 24 42  1  0
 24 43  1  0
 25 44  1  0
 26 45  1  0
M  CHG  1   7  -1
M  END
>  <UniqueID>  (74) 
67

>  <SMILES>  (74) 
Cc1ccc(C[N-]C(=O)CSc2nnc(-c3ccco3)n2C2CC2)cc1

>  <Energy>  (74) 
368.8479088223953

>  <Genealogy>  (74) 
Cc1ccc(C[N-]C(=O)CSc2nnc(-c3ccco3)n2C2CC2)cc1 (protonated)
Cc1ccc(C[N-]C(=O)CSc2nnc(-c3ccco3)n2C2CC2)cc1 (3D coordinates assigned)
Cc1ccc(C[N-]C(=O)CSc2nnc(-c3ccco3)n2C2CC2)cc1 (nonaromatic ring conformer: 368.8479088223953 kcal/mol)

>  <smiles>  (74) 
Cc1ccc(CNC(=O)CSc2nnc(-c3ccco3)n2C2CC2)cc1

>  <score_type>  (74) 
oracle

>  <origin>  (74) 
adg

>  <m_score__min__energy>  (74) 
-9.9800000000000004

>  <m_primary>  (74) 
energy

$$$$
74:0
     RDKit          3D

 23 24  0  0  0  0  0  0  0  0999 V2000
   54.9250   26.3310   45.9950 N   0  0  0  0  0  0  0  0  0  0  0  0
   56.6480   26.3150   45.8720 S   0  0  0  0  0  0  0  0  0  0  0  0
   57.2460   25.8230   47.1600 O   0  0  0  0  0  0  0  0  0  0  0  0
   57.0520   25.3980   44.7520 O   0  0  0  0  0  0  0  0  0  0  0  0
   57.2230   27.9360   45.5400 C   0  0  0  0  0  0  0  0  0  0  0  0
   58.5110   28.3960   45.7710 C   0  0  0  0  0  0  0  0  0  0  0  0
   58.6930   29.7290   45.3860 C   0  0  0  0  0  0  0  0  0  0  0  0
   57.5420   30.3100   44.8650 C   0  0  0  0  0  0  0  0  0  0  0  0
   57.4420   31.6920   44.3020 C   0  0  0  0  0  0  0  0  0  0  0  0
   57.7790   32.7200   45.3870 C   0  0  0  0  0  0  0  0  0  0  0  0
   57.0130   34.0330   45.3100 C   0  0  0  0  0  0  0  0  0  0  0  0
   58.4730   33.9760   44.8870 C   0  0  0  0  0  0  0  0  0  0  0  0
   56.3060   29.1660   44.8530 S   0  0  0  0  0  0  0  0  0  0  0  0
   54.6740   27.0830   46.6760 H   0  0  0  0  0  0  0  0  0  0  0  0
   59.3068   27.7772   46.2112 H   0  0  0  0  0  0  0  0  0  0  0  0
   59.6495   30.2631   45.4854 H   0  0  0  0  0  0  0  0  0  0  0  0
   58.1493   31.7979   43.4662 H   0  0  0  0  0  0  0  0  0  0  0  0
   56.4164   31.8649   43.9438 H   0  0  0  0  0  0  0  0  0  0  0  0
   57.9727   31.9800   46.1775 H   0  0  0  0  0  0  0  0  0  0  0  0
   56.2258   34.1672   44.5535 H   0  0  0  0  0  0  0  0  0  0  0  0
   56.4319   34.6380   46.0216 H   0  0  0  0  0  0  0  0  0  0  0  0
   58.7416   34.0698   43.8244 H   0  0  0  0  0  0  0  0  0  0  0  0
   59.3852   34.5237   45.1662 H   0  0  0  0  0  0  0  0  0  0  0  0
  1  2  1  0
  2  3  2  0
  2  4  2  0
  2  5  1  0
  5  6  2  0
  6  7  1  0
  7  8  2  0
  8  9  1  0
  9 10  1  0
 10 11  1  0
 11 12  1  0
  8 13  1  0
 13  5  1  0
 12 10  1  0
  1 14  1  0
  6 15  1  0
  7 16  1  0
  9 17  1  0
  9 18  1  0
 10 19  1  0
 11 20  1  0
 11 21  1  0
 12 22  1  0
 12 23  1  0
M  CHG  1   1  -1
M  END
>  <UniqueID>  (75) 
68

>  <SMILES>  (75) 
[NH-]S(=O)(=O)c1ccc(CC2CC2)s1

>  <Energy>  (75) 
308.8636924300818

>  <Genealogy>  (75) 
[NH-]S(=O)(=O)c1ccc(CC2CC2)s1 (protonated)
[NH-]S(=O)(=O)c1ccc(CC2CC2)s1 (3D coordinates assigned)
[NH-]S(=O)(=O)c1ccc(CC2CC2)s1 (nonaromatic ring conformer: 308.8636924300818 kcal/mol)

>  <smiles>  (75) 
NS(=O)(=O)c1ccc(CC2CC2)s1

>  <score_type>  (75) 
oracle

>  <origin>  (75) 
adg

>  <m_score__min__energy>  (75) 
-9.0700000000000003

>  <m_primary>  (75) 
energy

$$$$
75:0
     RDKit          3D

 47 50  0  0  0  0  0  0  0  0999 V2000
   60.0640   28.8010   44.6730 C   0  0  0  0  0  0  0  0  0  0  0  0
   59.2100   27.8160   45.4280 C   0  0  0  0  0  0  0  0  0  0  0  0
   59.8250   26.6880   45.9990 C   0  0  0  0  0  0  0  0  0  0  0  0
   59.0710   25.7390   46.6890 C   0  0  0  0  0  0  0  0  0  0  0  0
   57.6920   25.8990   46.8130 C   0  0  0  0  0  0  0  0  0  0  0  0
   57.0620   27.0050   46.2400 C   0  0  0  0  0  0  0  0  0  0  0  0
   57.8030   27.9660   45.5330 C   0  0  0  0  0  0  0  0  0  0  0  0
   56.9430   29.3210   44.7810 S   0  0  0  0  0  0  0  0  0  0  0  0
   55.4670   29.0540   44.8370 O   0  0  0  0  0  0  0  0  0  0  0  0
   57.3470   29.4780   43.3410 O   0  0  0  0  0  0  0  0  0  0  0  0
   57.2920   30.7980   45.6200 N   0  0  0  0  0  0  0  0  0  0  0  0
   58.4240   31.0150   46.4720 C   0  0  0  0  0  0  0  0  0  0  0  0
   58.5590   30.2250   47.6190 C   0  0  0  0  0  0  0  0  0  0  0  0
   59.6600   30.3820   48.4640 C   0  0  0  0  0  0  0  0  0  0  0  0
   60.6420   31.3330   48.1710 C   0  0  0  0  0  0  0  0  0  0  0  0
   61.6830   31.4710   48.9830 O   0  0  0  0  0  0  0  0  0  0  0  0
   62.6570   32.3540   48.7780 C   0  0  0  0  0  0  0  0  0  0  0  0
   63.7370   32.4170   49.7850 C   0  0  0  0  0  0  0  0  0  0  0  0
   64.3850   31.2370   50.1830 C   0  0  0  0  0  0  0  0  0  0  0  0
   65.3920   31.2770   51.1530 C   0  0  0  0  0  0  0  0  0  0  0  0
   65.7450   32.4920   51.7450 C   0  0  0  0  0  0  0  0  0  0  0  0
   65.0880   33.6680   51.3730 C   0  0  0  0  0  0  0  0  0  0  0  0
   64.0810   33.6320   50.4030 C   0  0  0  0  0  0  0  0  0  0  0  0
   62.6350   33.1790   47.6250 C   0  0  0  0  0  0  0  0  0  0  0  0
   63.7570   34.1430   47.3130 C   0  0  0  0  0  0  0  0  0  0  0  0
   61.5300   33.0800   46.7590 C   0  0  0  0  0  0  0  0  0  0  0  0
   61.4520   33.8260   45.7420 O   0  0  0  0  0  0  0  0  0  0  0  0
   60.5180   32.1430   47.0250 C   0  0  0  0  0  0  0  0  0  0  0  0
   59.4020   31.9840   46.1820 C   0  0  0  0  0  0  0  0  0  0  0  0
   60.6123   29.4334   45.3867 H   0  0  0  0  0  0  0  0  0  0  0  0
   60.7802   28.2560   44.0405 H   0  0  0  0  0  0  0  0  0  0  0  0
   59.4230   29.4327   44.0405 H   0  0  0  0  0  0  0  0  0  0  0  0
   60.9122   26.5525   45.9005 H   0  0  0  0  0  0  0  0  0  0  0  0
   59.5650   24.8636   47.1357 H   0  0  0  0  0  0  0  0  0  0  0  0
   57.0995   25.1530   47.3629 H   0  0  0  0  0  0  0  0  0  0  0  0
   55.9735   27.1252   46.3433 H   0  0  0  0  0  0  0  0  0  0  0  0
   57.7915   29.4739   47.8572 H   0  0  0  0  0  0  0  0  0  0  0  0
   59.7548   29.7553   49.3630 H   0  0  0  0  0  0  0  0  0  0  0  0
   64.0995   30.2762   49.7298 H   0  0  0  0  0  0  0  0  0  0  0  0
   65.9063   30.3510   51.4498 H   0  0  0  0  0  0  0  0  0  0  0  0
   66.5404   32.5231   52.5042 H   0  0  0  0  0  0  0  0  0  0  0  0
   65.3632   34.6233   51.8437 H   0  0  0  0  0  0  0  0  0  0  0  0
   63.5565   34.5574   50.1227 H   0  0  0  0  0  0  0  0  0  0  0  0
   64.1915   34.5163   48.2521 H   0  0  0  0  0  0  0  0  0  0  0  0
   64.5333   33.6258   46.7299 H   0  0  0  0  0  0  0  0  0  0  0  0
   63.3627   34.9883   46.7299 H   0  0  0  0  0  0  0  0  0  0  0  0
   59.2939   32.6208   45.2916 H   0  0  0  0  0  0  0  0  0  0  0  0
  1  2  1  0
  2  3  2  0
  3  4  1  0
  4  5  2  0
  5  6  1  0
  6  7  2  0
  7  8  1  0
  8  9  2  0
  8 10  2  0
  8 11  1  0
 11 12  1  0
 12 13  2  0
 13 14  1  0
 14 15  2  0
 15 16  1  0
 16 17  1  0
 17 18  1  0
 18 19  2  0
 19 20  1  0
 20 21  2  0
 21 22  1  0
 22 23  2  0
 17 24  2  0
 24 25  1  0
 24 26  1  0
 26 27  2  0
 26 28  1  0
 28 29  2  0
  7  2  1  0
 29 12  1  0
 28 15  1  0
 23 18  1  0
  1 30  1  0
  1 31  1  0
  1 32  1  0
  3 33  1  0
  4 34  1  0
  5 35  1  0
  6 36  1  0
 13 37  1  0
 14 38  1  0
 19 39  1  0
 20 40  1  0
 21 41  1  0
 22 42  1  0
 23 43  1  0
 25 44  1  0
 25 45  1  0
 25 46  1  0
 29 47  1  0
M  CHG  1  11  -1
M  END
>  <UniqueID>  (76) 
69

>  <SMILES>  (76) 
Cc1ccccc1S(=O)(=O)[N-]c1ccc2oc(-c3ccccc3)c(C)c(=O)c2c1

>  <Energy>  (76) 
68.45527557610514

>  <Genealogy>  (76) 
Cc1ccccc1S(=O)(=O)[N-]c1ccc2oc(-c3ccccc3)c(C)c(=O)c2c1 (protonated)
Cc1ccccc1S(=O)(=O)[N-]c1ccc2oc(-c3ccccc3)c(C)c(=O)c2c1 (3D coordinates assigned)
Cc1ccccc1S(=O)(=O)[N-]c1ccc2oc(-c3ccccc3)c(C)c(=O)c2c1 (optimized conformer: 68.45527557610514 kcal/mol)

>  <smiles>  (76) 
Cc1ccccc1S(=O)(=O)Nc1ccc2oc(-c3ccccc3)c(C)c(=O)c2c1

>  <score_type>  (76) 
oracle

>  <origin>  (76) 
adg

>  <m_score__min__energy>  (76) 
-10.99

>  <m_primary>  (76) 
energy

$$$$
76:0
     RDKit          3D

 46 48  0  0  0  0  0  0  0  0999 V2000
   57.9880   34.0400   44.8690 C   0  0  0  0  0  0  0  0  0  0  0  0
   58.0960   32.5920   44.4400 C   0  0  0  0  0  0  0  0  0  0  0  0
   58.1060   32.5720   42.9340 C   0  0  0  0  0  0  0  0  0  0  0  0
   56.9750   31.8080   44.9020 N   0  0  0  0  0  0  0  0  0  0  0  0
   57.3990   30.1400   45.1010 S   0  0  0  0  0  0  0  0  0  0  0  0
   58.0140   29.6690   43.8310 O   0  0  0  0  0  0  0  0  0  0  0  0
   56.1110   29.3180   45.2300 O   0  0  0  0  0  0  0  0  0  0  0  0
   58.3700   29.8960   46.5160 C   0  0  0  0  0  0  0  0  0  0  0  0
   58.8610   30.9780   47.2050 C   0  0  0  0  0  0  0  0  0  0  0  0
   59.6600   30.8850   48.3240 C   0  0  0  0  0  0  0  0  0  0  0  0
   59.9870   29.6370   48.7810 C   0  0  0  0  0  0  0  0  0  0  0  0
   59.5070   28.5520   48.1080 C   0  0  0  0  0  0  0  0  0  0  0  0
   58.6970   28.6460   46.9750 C   0  0  0  0  0  0  0  0  0  0  0  0
   58.2490   27.4030   46.3940 C   0  0  0  0  0  0  0  0  0  0  0  0
   59.2180   26.5690   45.8230 C   0  0  0  0  0  0  0  0  0  0  0  0
   58.8680   25.3460   45.2760 C   0  0  0  0  0  0  0  0  0  0  0  0
   57.5820   24.8960   45.2650 C   0  0  0  0  0  0  0  0  0  0  0  0
   57.1770   23.6170   44.6980 C   0  0  0  0  0  0  0  0  0  0  0  0
   56.1210   23.4900   43.8090 C   0  0  0  0  0  0  0  0  0  0  0  0
   55.8390   22.2560   43.3520 N   0  0  0  0  0  0  0  0  0  0  0  0
   56.5450   21.1710   43.7310 C   0  0  0  0  0  0  0  0  0  0  0  0
   56.2700   19.9760   43.2860 N   0  0  0  0  0  0  0  0  0  0  0  0
   57.5800   21.2640   44.5950 N   0  0  0  0  0  0  0  0  0  0  0  0
   57.8970   22.4860   45.0810 C   0  0  0  0  0  0  0  0  0  0  0  0
   56.6130   25.7110   45.8280 C   0  0  0  0  0  0  0  0  0  0  0  0
   55.3130   25.3090   45.8440 F   0  0  0  0  0  0  0  0  0  0  0  0
   56.9660   26.9350   46.3760 C   0  0  0  0  0  0  0  0  0  0  0  0
   57.9837   34.0976   45.9675 H   0  0  0  0  0  0  0  0  0  0  0  0
   58.8466   34.6040   44.4756 H   0  0  0  0  0  0  0  0  0  0  0  0
   57.0553   34.4704   44.4756 H   0  0  0  0  0  0  0  0  0  0  0  0
   59.0099   32.1572   44.8709 H   0  0  0  0  0  0  0  0  0  0  0  0
   58.5721   31.6396   42.5828 H   0  0  0  0  0  0  0  0  0  0  0  0
   57.0732   32.6293   42.5597 H   0  0  0  0  0  0  0  0  0  0  0  0
   58.6799   33.4325   42.5597 H   0  0  0  0  0  0  0  0  0  0  0  0
   56.5460   32.1590   45.7700 H   0  0  0  0  0  0  0  0  0  0  0  0
   58.5999   31.9825   46.8405 H   0  0  0  0  0  0  0  0  0  0  0  0
   60.0246   31.7881   48.8354 H   0  0  0  0  0  0  0  0  0  0  0  0
   60.6221   29.5119   49.6703 H   0  0  0  0  0  0  0  0  0  0  0  0
   59.7721   27.5504   48.4775 H   0  0  0  0  0  0  0  0  0  0  0  0
   60.2702   26.8893   45.8088 H   0  0  0  0  0  0  0  0  0  0  0  0
   59.6550   24.7163   44.8354 H   0  0  0  0  0  0  0  0  0  0  0  0
   55.5357   24.3647   43.4892 H   0  0  0  0  0  0  0  0  0  0  0  0
   56.9810   19.4870   42.6680 H   0  0  0  0  0  0  0  0  0  0  0  0
   58.1150   20.4140   44.8790 H   0  0  0  0  0  0  0  0  0  0  0  0
   58.7337   22.5888   45.7876 H   0  0  0  0  0  0  0  0  0  0  0  0
   56.1748   27.5589   46.8173 H   0  0  0  0  0  0  0  0  0  0  0  0
  1  2  1  0
  2  3  1  0
  2  4  1  0
  4  5  1  0
  5  6  2  0
  5  7  2  0
  5  8  1  0
  8  9  2  0
  9 10  1  0
 10 11  2  0
 11 12  1  0
 12 13  2  0
 13 14  1  0
 14 15  2  0
 15 16  1  0
 16 17  2  0
 17 18  1  0
 18 19  1  0
 19 20  2  0
 20 21  1  0
 21 22  2  3
 21 23  1  0
 23 24  1  0
 17 25  1  0
 25 26  1  0
 25 27  2  0
 13  8  1  0
 27 14  1  0
 24 18  2  0
  1 28  1  0
  1 29  1  0
  1 30  1  0
  2 31  1  0
  3 32  1  0
  3 33  1  0
  3 34  1  0
  4 35  1  0
  9 36  1  0
 10 37  1  0
 11 38  1  0
 12 39  1  0
 15 40  1  0
 16 41  1  0
 19 42  1  0
 22 43  1  0
 23 44  1  0
 24 45  1  0
 27 46  1  0
M  END
>  <smiles>  (77) 
CC(C)NS(=O)(=O)c1ccccc1-c1ccc(-c2cnc(=N)[nH]c2)c(F)c1

>  <score_type>  (77) 
oracle

>  <origin>  (77) 
adg

>  <m_score__min__energy>  (77) 
-9.8100000000000005

>  <m_primary>  (77) 
energy

$$$$
77:0
     RDKit          3D

 56 59  0  0  0  0  0  0  0  0999 V2000
   60.9814   30.4009   46.5332 H   0  0  0  0  0  0  0  0  0  0  0  0
   61.0080   30.5620   47.6210 C   0  0  0  0  0  0  0  0  0  0  0  0
   62.1760   31.0360   48.2260 C   0  0  0  0  0  0  0  0  0  0  0  0
   63.0690   31.2337   47.6149 H   0  0  0  0  0  0  0  0  0  0  0  0
   62.2120   31.2610   49.6160 C   0  0  0  0  0  0  0  0  0  0  0  0
   63.3660   31.7000   50.2830 O   0  0  0  0  0  0  0  0  0  0  0  0
   63.8550   33.0420   50.2930 C   0  0  0  0  0  0  0  0  0  0  0  0
   64.5953   33.1607   49.4881 H   0  0  0  0  0  0  0  0  0  0  0  0
   64.3144   33.2392   51.2728 H   0  0  0  0  0  0  0  0  0  0  0  0
   62.7160   34.0460   50.0780 C   0  0  0  0  0  0  0  0  0  0  0  0
   62.8956   34.9362   50.6987 H   0  0  0  0  0  0  0  0  0  0  0  0
   61.7647   33.5725   50.3623 H   0  0  0  0  0  0  0  0  0  0  0  0
   62.6450   34.4500   48.6540 N   0  0  0  0  0  0  0  0  0  0  0  0
   63.7230   33.8150   47.8600 C   0  0  0  0  0  0  0  0  0  0  0  0
   63.8603   32.7773   48.1983 H   0  0  0  0  0  0  0  0  0  0  0  0
   64.6546   34.3825   48.0013 H   0  0  0  0  0  0  0  0  0  0  0  0
   63.3580   33.8180   46.3780 C   0  0  0  0  0  0  0  0  0  0  0  0
   62.2634   33.8270   46.2700 H   0  0  0  0  0  0  0  0  0  0  0  0
   63.7812   34.7127   45.8980 H   0  0  0  0  0  0  0  0  0  0  0  0
   63.7664   32.9165   45.8980 H   0  0  0  0  0  0  0  0  0  0  0  0
   61.3130   34.1620   48.0790 C   0  0  0  0  0  0  0  0  0  0  0  0
   61.0742   34.9193   47.3178 H   0  0  0  0  0  0  0  0  0  0  0  0
   61.3277   33.1618   47.6213 H   0  0  0  0  0  0  0  0  0  0  0  0
   60.2500   34.1940   49.1730 C   0  0  0  0  0  0  0  0  0  0  0  0
   60.7378   34.1793   50.1588 H   0  0  0  0  0  0  0  0  0  0  0  0
   59.6499   35.1106   49.0745 H   0  0  0  0  0  0  0  0  0  0  0  0
   59.5959   33.3151   49.0745 H   0  0  0  0  0  0  0  0  0  0  0  0
   61.0530   31.0430   50.3720 C   0  0  0  0  0  0  0  0  0  0  0  0
   61.0613   31.2459   51.4531 H   0  0  0  0  0  0  0  0  0  0  0  0
   59.8860   30.5700   49.7650 C   0  0  0  0  0  0  0  0  0  0  0  0
   58.9780   30.4169   50.3667 H   0  0  0  0  0  0  0  0  0  0  0  0
   59.8700   30.2910   48.3950 C   0  0  0  0  0  0  0  0  0  0  0  0
   58.6530   29.8400   47.7830 N   0  0  0  0  0  0  0  0  0  0  0  0
   58.3140   29.7770   46.5160 C   0  0  0  0  0  0  0  0  0  0  0  0
   58.1520   28.5580   45.7930 C   0  0  0  0  0  0  0  0  0  0  0  0
   57.9350   27.3040   46.4140 C   0  0  0  0  0  0  0  0  0  0  0  0
   57.8463   27.2497   47.5091 H   0  0  0  0  0  0  0  0  0  0  0  0
   57.8320   26.1360   45.6570 C   0  0  0  0  0  0  0  0  0  0  0  0
   57.7060   25.1663   46.1607 H   0  0  0  0  0  0  0  0  0  0  0  0
   57.8880   26.1930   44.2670 C   0  0  0  0  0  0  0  0  0  0  0  0
   57.8471   25.2668   43.6750 H   0  0  0  0  0  0  0  0  0  0  0  0
   57.9960   27.4260   43.6280 C   0  0  0  0  0  0  0  0  0  0  0  0
   58.0110   27.4713   42.5290 H   0  0  0  0  0  0  0  0  0  0  0  0
   58.0860   28.6130   44.3760 C   0  0  0  0  0  0  0  0  0  0  0  0
   58.0640   29.8120   43.7320 N   0  0  0  0  0  0  0  0  0  0  0  0
   58.0140   29.8070   42.6880 H   0  0  0  0  0  0  0  0  0  0  0  0
   58.0410   30.9980   44.4070 C   0  0  0  0  0  0  0  0  0  0  0  0
   57.9270   32.2270   43.7130 C   0  0  0  0  0  0  0  0  0  0  0  0
   57.7880   32.3090   41.9580 Cl  0  0  0  0  0  0  0  0  0  0  0  0
   57.9220   33.4320   44.4190 C   0  0  0  0  0  0  0  0  0  0  0  0
   57.8298   34.3836   43.8749 H   0  0  0  0  0  0  0  0  0  0  0  0
   58.0330   33.4370   45.8070 C   0  0  0  0  0  0  0  0  0  0  0  0
   58.0267   34.3915   46.3537 H   0  0  0  0  0  0  0  0  0  0  0  0
   58.1520   32.2380   46.5060 C   0  0  0  0  0  0  0  0  0  0  0  0
   58.2485   32.2536   47.6017 H   0  0  0  0  0  0  0  0  0  0  0  0
   58.1500   31.0010   45.8210 C   0  0  0  0  0  0  0  0  0  0  0  0
  1  2  1  0
  2  3  2  0
  3  4  1  0
  3  5  1  0
  5  6  1  0
  6  7  1  0
  7  8  1  0
  7  9  1  0
  7 10  1  0
 10 11  1  0
 10 12  1  0
 10 13  1  0
 13 14  1  0
 14 15  1  0
 14 16  1  0
 14 17  1  0
 17 18  1  0
 17 19  1  0
 17 20  1  0
 13 21  1  0
 21 22  1  0
 21 23  1  0
 21 24  1  0
 24 25  1  0
 24 26  1  0
 24 27  1  0
  5 28  2  0
 28 29  1  0
 28 30  1  0
 30 31  1  0
 30 32  2  0
 32 33  1  0
 33 34  2  0
 34 35  1  0
 35 36  2  0
 36 37  1  0
 36 38  1  0
 38 39  1  0
 38 40  2  0
 40 41  1  0
 40 42  1  0
 42 43  1  0
 42 44  2  0
 44 45  1  0
 45 46  1  0
 45 47  1  0
 47 48  2  0
 48 49  1  0
 48 50  1  0
 50 51  1  0
 50 52  2  0
 52 53  1  0
 52 54  1  0
 54 55  1  0
 54 56  2  0
 32  2  1  0
 56 34  1  0
 44 35  1  0
 56 47  1  0
M  END
>  <UniqueID>  (78) 
70

>  <SMILES>  (78) 
CCN(CC)CCOc1ccc(/N=c2\c3ccccc3[nH]c3c(Cl)cccc23)cc1

>  <Energy>  (78) 
86.29992193259501

>  <Genealogy>  (78) 
CCN(CC)CCOc1ccc(/N=c2\c3ccccc3[nH]c3c(Cl)cccc23)cc1 (cis-trans isomerization)
CCN(CC)CCOc1ccc(/N=c2\c3ccccc3[nH]c3c(Cl)cccc23)cc1 (3D coordinates assigned)
CCN(CC)CCOc1ccc(/N=c2\c3ccccc3[nH]c3c(Cl)cccc23)cc1 (optimized conformer: 86.29992193259501 kcal/mol)

>  <smiles>  (78) 
CCN(CC)CCOc1ccc(N=c2c3ccccc3[nH]c3c(Cl)cccc23)cc1

>  <score_type>  (78) 
oracle

>  <origin>  (78) 
adg

>  <m_score__min__energy>  (78) 
-8.4199999999999999

>  <m_primary>  (78) 
energy

$$$$
78:0
     RDKit          3D

 55 59  0  0  0  0  0  0  0  0999 V2000
   56.8470   34.5670   44.7410 F   0  0  0  0  0  0  0  0  0  0  0  0
   57.8610   34.2860   45.5970 C   0  0  0  0  0  0  0  0  0  0  0  0
   59.1570   34.7260   45.3150 C   0  0  0  0  0  0  0  0  0  0  0  0
   60.2030   34.4380   46.1970 C   0  0  0  0  0  0  0  0  0  0  0  0
   59.9580   33.7150   47.3770 C   0  0  0  0  0  0  0  0  0  0  0  0
   61.0730   33.4120   48.3010 C   0  0  0  0  0  0  0  0  0  0  0  0
   61.9390   34.5940   49.1470 S   0  0  0  0  0  0  0  0  0  0  0  0
   62.9950   33.5240   49.8860 C   0  0  0  0  0  0  0  0  0  0  0  0
   64.0210   33.8190   50.7810 C   0  0  0  0  0  0  0  0  0  0  0  0
   64.7670   32.7560   51.3090 C   0  0  0  0  0  0  0  0  0  0  0  0
   64.4690   31.4300   50.9430 C   0  0  0  0  0  0  0  0  0  0  0  0
   63.4270   31.1560   50.0420 C   0  0  0  0  0  0  0  0  0  0  0  0
   62.6950   32.2250   49.5010 C   0  0  0  0  0  0  0  0  0  0  0  0
   61.6100   32.1450   48.6020 C   0  0  0  0  0  0  0  0  0  0  0  0
   61.0550   30.8700   48.0960 C   0  0  0  0  0  0  0  0  0  0  0  0
   60.2990   30.0450   48.9390 C   0  0  0  0  0  0  0  0  0  0  0  0
   59.7580   28.8510   48.4570 C   0  0  0  0  0  0  0  0  0  0  0  0
   59.9620   28.4610   47.1280 C   0  0  0  0  0  0  0  0  0  0  0  0
   59.3950   27.2490   46.6990 O   0  0  0  0  0  0  0  0  0  0  0  0
   58.1490   27.1120   46.0160 C   0  0  0  0  0  0  0  0  0  0  0  0
   57.4960   28.4800   45.8000 C   0  0  0  0  0  0  0  0  0  0  0  0
   58.0190   29.1010   44.5620 N   0  0  0  0  0  0  0  0  0  0  0  0
   57.1270   28.8810   43.4070 C   0  0  0  0  0  0  0  0  0  0  0  0
   55.8200   29.7000   43.5300 C   0  0  0  0  0  0  0  0  0  0  0  0
   55.9010   30.7350   44.4950 O   0  0  0  0  0  0  0  0  0  0  0  0
   57.1160   31.4400   44.3490 C   0  0  0  0  0  0  0  0  0  0  0  0
   58.3120   30.5450   44.7320 C   0  0  0  0  0  0  0  0  0  0  0  0
   60.7160   29.2950   46.2780 C   0  0  0  0  0  0  0  0  0  0  0  0
   61.2570   30.4890   46.7610 C   0  0  0  0  0  0  0  0  0  0  0  0
   58.6540   33.2620   47.6440 C   0  0  0  0  0  0  0  0  0  0  0  0
   57.6110   33.5520   46.7600 C   0  0  0  0  0  0  0  0  0  0  0  0
   59.3546   35.2999   44.3976 H   0  0  0  0  0  0  0  0  0  0  0  0
   61.2230   34.7791   45.9661 H   0  0  0  0  0  0  0  0  0  0  0  0
   64.2400   34.8586   51.0659 H   0  0  0  0  0  0  0  0  0  0  0  0
   65.5883   32.9590   52.0120 H   0  0  0  0  0  0  0  0  0  0  0  0
   65.0567   30.6019   51.3659 H   0  0  0  0  0  0  0  0  0  0  0  0
   63.1879   30.1189   49.7642 H   0  0  0  0  0  0  0  0  0  0  0  0
   60.1307   30.3391   49.9855 H   0  0  0  0  0  0  0  0  0  0  0  0
   59.1661   28.2110   49.1279 H   0  0  0  0  0  0  0  0  0  0  0  0
   58.3231   26.6369   45.0393 H   0  0  0  0  0  0  0  0  0  0  0  0
   57.4769   26.4924   46.6279 H   0  0  0  0  0  0  0  0  0  0  0  0
   56.4068   28.3539   45.7122 H   0  0  0  0  0  0  0  0  0  0  0  0
   57.7285   29.1303   46.6562 H   0  0  0  0  0  0  0  0  0  0  0  0
   57.6518   29.1827   42.4886 H   0  0  0  0  0  0  0  0  0  0  0  0
   56.8617   27.8139   43.3766 H   0  0  0  0  0  0  0  0  0  0  0  0
   55.5957   30.1502   42.5518 H   0  0  0  0  0  0  0  0  0  0  0  0
   55.0292   29.0085   43.8563 H   0  0  0  0  0  0  0  0  0  0  0  0
   57.2247   31.7602   43.3023 H   0  0  0  0  0  0  0  0  0  0  0  0
   57.1004   32.3154   45.0150 H   0  0  0  0  0  0  0  0  0  0  0  0
   59.1683   30.8086   44.0938 H   0  0  0  0  0  0  0  0  0  0  0  0
   58.5316   30.7182   45.7959 H   0  0  0  0  0  0  0  0  0  0  0  0
   60.8792   29.0045   45.2297 H   0  0  0  0  0  0  0  0  0  0  0  0
   61.8445   31.1339   46.0910 H   0  0  0  0  0  0  0  0  0  0  0  0
   58.4537   32.6763   48.5533 H   0  0  0  0  0  0  0  0  0  0  0  0
   56.5916   33.2020   46.9799 H   0  0  0  0  0  0  0  0  0  0  0  0
  1  2  1  0
  2  3  2  0
  3  4  1  0
  4  5  2  0
  5  6  1  0
  6  7  1  0
  7  8  1  0
  8  9  2  0
  9 10  1  0
 10 11  2  0
 11 12  1  0
 12 13  2  0
 13 14  1  0
 14 15  1  0
 15 16  2  0
 16 17  1  0
 17 18  2  0
 18 19  1  0
 19 20  1  0
 20 21  1  0
 21 22  1  0
 22 23  1  0
 23 24  1  0
 24 25  1  0
 25 26  1  0
 26 27  1  0
 18 28  1  0
 28 29  2  0
  5 30  1  0
 30 31  2  0
 31  2  1  0
 14  6  2  0
 29 15  1  0
 13  8  1  0
 27 22  1  0
  3 32  1  0
  4 33  1  0
  9 34  1  0
 10 35  1  0
 11 36  1  0
 12 37  1  0
 16 38  1  0
 17 39  1  0
 20 40  1  0
 20 41  1  0
 21 42  1  0
 21 43  1  0
 23 44  1  0
 23 45  1  0
 24 46  1  0
 24 47  1  0
 26 48  1  0
 26 49  1  0
 27 50  1  0
 27 51  1  0
 28 52  1  0
 29 53  1  0
 30 54  1  0
 31 55  1  0
M  END
>  <UniqueID>  (79) 
71

>  <SMILES>  (79) 
Fc1ccc(-c2sc3ccccc3c2-c2ccc(OCCN3CCOCC3)cc2)cc1

>  <Energy>  (79) 
112.73078963086503

>  <Genealogy>  (79) 
Fc1ccc(-c2sc3ccccc3c2-c2ccc(OCCN3CCOCC3)cc2)cc1 (3D coordinates assigned)
Fc1ccc(-c2sc3ccccc3c2-c2ccc(OCCN3CCOCC3)cc2)cc1 (nonaromatic ring conformer: 112.73078963086503 kcal/mol)

>  <smiles>  (79) 
Fc1ccc(-c2sc3ccccc3c2-c2ccc(OCCN3CCOCC3)cc2)cc1

>  <score_type>  (79) 
oracle

>  <origin>  (79) 
adg

>  <m_score__min__energy>  (79) 
-8.9199999999999999

>  <m_primary>  (79) 
energy

$$$$
79:0
     RDKit          3D

 26 27  0  0  0  0  0  0  0  0999 V2000
   63.7360   31.9670   48.3240 C   0  0  0  0  0  0  0  0  0  0  0  0
   63.3240   33.7270   48.2420 S   0  0  0  0  0  0  0  0  0  0  0  0
   61.6200   33.8710   47.7160 C   0  0  0  0  0  0  0  0  0  0  0  0
   60.5770   34.0200   48.6070 C   0  0  0  0  0  0  0  0  0  0  0  0
   59.2760   34.1270   48.1550 C   0  0  0  0  0  0  0  0  0  0  0  0
   58.9920   34.0880   46.8080 C   0  0  0  0  0  0  0  0  0  0  0  0
   57.7070   34.1890   46.2920 O   0  0  0  0  0  0  0  0  0  0  0  0
   57.4460   34.0040   44.9110 C   0  0  0  0  0  0  0  0  0  0  0  0
   57.4170   32.5600   44.5680 C   0  0  0  0  0  0  0  0  0  0  0  0
   58.0050   32.0710   43.4500 N   0  0  0  0  0  0  0  0  0  0  0  0
   57.8130   30.7570   43.4120 N   0  0  0  0  0  0  0  0  0  0  0  0
   57.1060   30.4190   44.5040 C   0  0  0  0  0  0  0  0  0  0  0  0
   56.6370   28.9110   44.8770 S   0  0  0  0  0  0  0  0  0  0  0  0
   56.8910   31.5460   45.1720 O   0  0  0  0  0  0  0  0  0  0  0  0
   60.0420   33.9380   45.9240 C   0  0  0  0  0  0  0  0  0  0  0  0
   61.3340   33.8320   46.3630 C   0  0  0  0  0  0  0  0  0  0  0  0
   63.8088   31.6561   49.3766 H   0  0  0  0  0  0  0  0  0  0  0  0
   62.9503   31.3828   47.8226 H   0  0  0  0  0  0  0  0  0  0  0  0
   64.6993   31.7922   47.8226 H   0  0  0  0  0  0  0  0  0  0  0  0
   60.7833   34.0539   49.6869 H   0  0  0  0  0  0  0  0  0  0  0  0
   58.4570   34.2448   48.8798 H   0  0  0  0  0  0  0  0  0  0  0  0
   56.4722   34.4526   44.6649 H   0  0  0  0  0  0  0  0  0  0  0  0
   58.2476   34.4873   44.3332 H   0  0  0  0  0  0  0  0  0  0  0  0
   58.1750   30.1470   42.6410 H   0  0  0  0  0  0  0  0  0  0  0  0
   59.8358   33.9029   44.8441 H   0  0  0  0  0  0  0  0  0  0  0  0
   62.1504   33.7150   45.6352 H   0  0  0  0  0  0  0  0  0  0  0  0
  1  2  1  0
  2  3  1  0
  3  4  2  0
  4  5  1  0
  5  6  2  0
  6  7  1  0
  7  8  1  0
  8  9  1  0
  9 10  2  0
 10 11  1  0
 11 12  1  0
 12 13  2  0
 12 14  1  0
  6 15  1  0
 15 16  2  0
 16  3  1  0
 14  9  1  0
  1 17  1  0
  1 18  1  0
  1 19  1  0
  4 20  1  0
  5 21  1  0
  8 22  1  0
  8 23  1  0
 11 24  1  0
 15 25  1  0
 16 26  1  0
M  END
>  <smiles>  (80) 
CSc1ccc(OCc2n[nH]c(=S)o2)cc1

>  <score_type>  (80) 
oracle

>  <origin>  (80) 
adg

>  <m_score__min__energy>  (80) 
-6.3499999999999996

>  <m_primary>  (80) 
energy

$$$$
80:0
     RDKit          3D

 41 43  0  0  0  0  0  0  0  0999 V2000
   55.8050   28.9860   44.7320 O   0  0  0  0  0  0  0  0  0  0  0  0
   56.6620   29.9020   44.6300 C   0  0  0  0  0  0  0  0  0  0  0  0
   58.0980   29.5300   44.3630 C   0  0  0  0  0  0  0  0  0  0  0  0
   58.4460   28.2550   45.0300 N   0  0  0  0  0  0  0  0  0  0  0  0
   57.9300   28.1770   46.4260 C   0  0  0  0  0  0  0  0  0  0  0  0
   58.9900   28.4970   47.4990 C   0  0  0  0  0  0  0  0  0  0  0  0
   59.9710   29.4420   46.9630 N   0  0  0  0  0  0  0  0  0  0  0  0
   59.9280   30.8290   47.3600 C   0  0  0  0  0  0  0  0  0  0  0  0
   58.8560   31.3140   47.8140 O   0  0  0  0  0  0  0  0  0  0  0  0
   61.0980   31.7160   47.2290 C   0  0  0  0  0  0  0  0  0  0  0  0
   61.1000   33.0380   46.7990 C   0  0  0  0  0  0  0  0  0  0  0  0
   62.3820   33.6010   46.7490 C   0  0  0  0  0  0  0  0  0  0  0  0
   63.3910   32.7260   47.1270 C   0  0  0  0  0  0  0  0  0  0  0  0
   62.6890   31.2510   47.5210 S   0  0  0  0  0  0  0  0  0  0  0  0
   60.7120   29.0260   45.7630 C   0  0  0  0  0  0  0  0  0  0  0  0
   59.9010   27.9910   44.9560 C   0  0  0  0  0  0  0  0  0  0  0  0
   56.2600   31.2580   44.8690 N   0  0  0  0  0  0  0  0  0  0  0  0
   57.1390   32.3800   45.0260 C   0  0  0  0  0  0  0  0  0  0  0  0
   58.0330   32.6980   43.9960 C   0  0  0  0  0  0  0  0  0  0  0  0
   58.8980   33.7900   44.1250 C   0  0  0  0  0  0  0  0  0  0  0  0
   58.8870   34.5580   45.2930 C   0  0  0  0  0  0  0  0  0  0  0  0
   58.0210   34.2270   46.3390 C   0  0  0  0  0  0  0  0  0  0  0  0
   57.1570   33.1340   46.2140 C   0  0  0  0  0  0  0  0  0  0  0  0
   58.2462   29.4213   43.2785 H   0  0  0  0  0  0  0  0  0  0  0  0
   58.7467   30.3238   44.7617 H   0  0  0  0  0  0  0  0  0  0  0  0
   57.1027   28.8944   46.5307 H   0  0  0  0  0  0  0  0  0  0  0  0
   57.6092   27.1380   46.5918 H   0  0  0  0  0  0  0  0  0  0  0  0
   58.4979   28.9407   48.3771 H   0  0  0  0  0  0  0  0  0  0  0  0
   59.5028   27.5684   47.7902 H   0  0  0  0  0  0  0  0  0  0  0  0
   60.1868   33.5869   46.5255 H   0  0  0  0  0  0  0  0  0  0  0  0
   62.5712   34.6394   46.4392 H   0  0  0  0  0  0  0  0  0  0  0  0
   64.4656   32.9582   47.1625 H   0  0  0  0  0  0  0  0  0  0  0  0
   60.9030   29.9069   45.1325 H   0  0  0  0  0  0  0  0  0  0  0  0
   61.6623   28.5676   46.0740 H   0  0  0  0  0  0  0  0  0  0  0  0
   60.2175   28.0328   43.9034 H   0  0  0  0  0  0  0  0  0  0  0  0
   60.0908   26.9966   45.3863 H   0  0  0  0  0  0  0  0  0  0  0  0
   58.0552   32.0867   43.0818 H   0  0  0  0  0  0  0  0  0  0  0  0
   59.5874   34.0445   43.3065 H   0  0  0  0  0  0  0  0  0  0  0  0
   59.5599   35.4229   45.3889 H   0  0  0  0  0  0  0  0  0  0  0  0
   58.0189   34.8265   47.2613 H   0  0  0  0  0  0  0  0  0  0  0  0
   56.4903   32.8634   47.0460 H   0  0  0  0  0  0  0  0  0  0  0  0
  1  2  2  0
  2  3  1  0
  3  4  1  0
  4  5  1  0
  5  6  1  0
  6  7  1  0
  7  8  1  0
  8  9  2  0
  8 10  1  0
 10 11  2  0
 11 12  1  0
 12 13  2  0
 13 14  1  0
  7 15  1  0
 15 16  1  0
  2 17  1  0
 17 18  1  0
 18 19  2  0
 19 20  1  0
 20 21  2  0
 21 22  1  0
 22 23  2  0
 16  4  1  0
 23 18  1  0
 14 10  1  0
  3 24  1  0
  3 25  1  0
  5 26  1  0
  5 27  1  0
  6 28  1  0
  6 29  1  0
 11 30  1  0
 12 31  1  0
 13 32  1  0
 15 33  1  0
 15 34  1  0
 16 35  1  0
 16 36  1  0
 19 37  1  0
 20 38  1  0
 21 39  1  0
 22 40  1  0
 23 41  1  0
M  CHG  1  17  -1
M  END
>  <UniqueID>  (81) 
72

>  <SMILES>  (81) 
O=C(CN1CCN(C(=O)c2cccs2)CC1)[N-]c1ccccc1

>  <Energy>  (81) 
83.05603484747657

>  <Genealogy>  (81) 
O=C(CN1CCN(C(=O)c2cccs2)CC1)[N-]c1ccccc1 (protonated)
O=C(CN1CCN(C(=O)c2cccs2)CC1)[N-]c1ccccc1 (3D coordinates assigned)
O=C(CN1CCN(C(=O)c2cccs2)CC1)[N-]c1ccccc1 (nonaromatic ring conformer: 83.05603484747657 kcal/mol)

>  <smiles>  (81) 
O=C(CN1CCN(C(=O)c2cccs2)CC1)Nc1ccccc1

>  <score_type>  (81) 
oracle

>  <origin>  (81) 
adg

>  <m_score__min__energy>  (81) 
-9.1899999999999995

>  <m_primary>  (81) 
energy

$$$$
81:0
     RDKit          3D

 29 31  0  0  0  0  0  0  0  0999 V2000
   56.3300   30.0470   42.9950 C   0  0  0  0  0  0  0  0  0  0  0  0
   57.1610   30.3270   44.2020 C   0  0  0  0  0  0  0  0  0  0  0  0
   57.4090   29.4280   45.1780 N   0  0  0  0  0  0  0  0  0  0  0  0
   58.1280   30.0310   46.1180 N   0  0  0  0  0  0  0  0  0  0  0  0
   58.5190   29.3580   47.3510 C   0  0  0  0  0  0  0  0  0  0  0  0
   58.3530   31.3160   45.7480 C   0  0  0  0  0  0  0  0  0  0  0  0
   57.7150   31.5400   44.5570 C   0  0  0  0  0  0  0  0  0  0  0  0
   57.7150   32.8590   43.8510 C   0  0  0  0  0  0  0  0  0  0  0  0
   57.8060   34.0040   44.8830 C   0  0  0  0  0  0  0  0  0  0  0  0
   58.8290   33.7360   45.9800 C   0  0  0  0  0  0  0  0  0  0  0  0
   59.4820   34.8150   46.5960 C   0  0  0  0  0  0  0  0  0  0  0  0
   60.3960   34.5910   47.6260 C   0  0  0  0  0  0  0  0  0  0  0  0
   60.6670   33.2910   48.0520 C   0  0  0  0  0  0  0  0  0  0  0  0
   60.0130   32.2050   47.4630 C   0  0  0  0  0  0  0  0  0  0  0  0
   59.0630   32.4160   46.4480 C   0  0  0  0  0  0  0  0  0  0  0  0
   55.3307   29.7103   43.3079 H   0  0  0  0  0  0  0  0  0  0  0  0
   56.2365   30.9633   42.3936 H   0  0  0  0  0  0  0  0  0  0  0  0
   56.8101   29.2610   42.3936 H   0  0  0  0  0  0  0  0  0  0  0  0
   58.1768   29.9471   48.2147 H   0  0  0  0  0  0  0  0  0  0  0  0
   58.0610   28.3584   47.3843 H   0  0  0  0  0  0  0  0  0  0  0  0
   59.6142   29.2608   47.3843 H   0  0  0  0  0  0  0  0  0  0  0  0
   58.5788   32.9098   43.1719 H   0  0  0  0  0  0  0  0  0  0  0  0
   56.7840   32.9626   43.2744 H   0  0  0  0  0  0  0  0  0  0  0  0
   58.0892   34.9280   44.3576 H   0  0  0  0  0  0  0  0  0  0  0  0
   56.8213   34.0917   45.3653 H   0  0  0  0  0  0  0  0  0  0  0  0
   59.2720   35.8427   46.2649 H   0  0  0  0  0  0  0  0  0  0  0  0
   60.9041   35.4419   48.1033 H   0  0  0  0  0  0  0  0  0  0  0  0
   61.3987   33.1194   48.8552 H   0  0  0  0  0  0  0  0  0  0  0  0
   60.2424   31.1816   47.7947 H   0  0  0  0  0  0  0  0  0  0  0  0
  1  2  1  0
  2  3  2  0
  3  4  1  0
  4  5  1  0
  4  6  1  0
  6  7  2  0
  7  8  1  0
  8  9  1  0
  9 10  1  0
 10 11  2  0
 11 12  1  0
 12 13  2  0
 13 14  1  0
 14 15  2  0
  7  2  1  0
 15 10  1  0
 15  6  1  0
  1 16  1  0
  1 17  1  0
  1 18  1  0
  5 19  1  0
  5 20  1  0
  5 21  1  0
  8 22  1  0
  8 23  1  0
  9 24  1  0
  9 25  1  0
 11 26  1  0
 12 27  1  0
 13 28  1  0
 14 29  1  0
M  END
>  <UniqueID>  (82) 
73

>  <SMILES>  (82) 
Cc1nn(C)c2c1CCc1ccccc1-2

>  <Energy>  (82) 
69.22375718028536

>  <Genealogy>  (82) 
Cc1nn(C)c2c1CCc1ccccc1-2 (3D coordinates assigned)
Cc1nn(C)c2c1CCc1ccccc1-2 (nonaromatic ring conformer: 69.22375718028536 kcal/mol)

>  <smiles>  (82) 
Cc1nn(C)c2c1CCc1ccccc1-2

>  <score_type>  (82) 
oracle

>  <origin>  (82) 
adg

>  <m_score__min__energy>  (82) 
-6.4699999999999998

>  <m_primary>  (82) 
energy

$$$$
82:0
     RDKit          3D

 41 42  0  0  0  0  0  0  0  0999 V2000
   63.3840   33.8460   46.4090 C   0  0  0  0  0  0  0  0  0  0  0  0
   63.7110   32.6110   47.1250 N   0  0  0  0  0  0  0  0  0  0  0  0
   63.4740   32.7790   48.5640 C   0  0  0  0  0  0  0  0  0  0  0  0
   61.9660   32.7840   48.8470 C   0  0  0  0  0  0  0  0  0  0  0  0
   61.3940   34.2030   49.0000 C   0  0  0  0  0  0  0  0  0  0  0  0
   59.8630   34.2180   49.0790 C   0  0  0  0  0  0  0  0  0  0  0  0
   59.2940   34.2040   47.7340 N   0  0  0  0  0  0  0  0  0  0  0  0
   58.7990   33.1410   47.0810 C   0  0  0  0  0  0  0  0  0  0  0  0
   58.4620   33.5880   45.8170 C   0  0  0  0  0  0  0  0  0  0  0  0
   57.8730   32.7670   44.6970 C   0  0  0  0  0  0  0  0  0  0  0  0
   57.3150   31.4680   45.1350 N   0  0  0  0  0  0  0  0  0  0  0  0
   56.4200   30.8410   44.1460 C   0  0  0  0  0  0  0  0  0  0  0  0
   56.8920   29.4060   43.9290 C   0  0  0  0  0  0  0  0  0  0  0  0
   58.3110   29.3830   44.4480 C   0  0  0  0  0  0  0  0  0  0  0  0
   58.3390   30.4770   45.5020 C   0  0  0  0  0  0  0  0  0  0  0  0
   58.7760   34.8960   45.7290 N   0  0  0  0  0  0  0  0  0  0  0  0
   59.2780   35.2340   46.9060 N   0  0  0  0  0  0  0  0  0  0  0  0
   63.1724   34.6453   47.1344 H   0  0  0  0  0  0  0  0  0  0  0  0
   64.2352   34.1400   45.7774 H   0  0  0  0  0  0  0  0  0  0  0  0
   62.4988   33.6802   45.7774 H   0  0  0  0  0  0  0  0  0  0  0  0
   64.7320   32.4310   46.9820 H   0  0  0  0  0  0  0  0  0  0  0  0
   63.9451   31.9489   49.1107 H   0  0  0  0  0  0  0  0  0  0  0  0
   63.9078   33.7346   48.8937 H   0  0  0  0  0  0  0  0  0  0  0  0
   61.4502   32.2850   48.0134 H   0  0  0  0  0  0  0  0  0  0  0  0
   61.8057   32.2574   49.7994 H   0  0  0  0  0  0  0  0  0  0  0  0
   61.7984   34.6481   49.9211 H   0  0  0  0  0  0  0  0  0  0  0  0
   61.6865   34.7772   48.1085 H   0  0  0  0  0  0  0  0  0  0  0  0
   59.5178   33.3307   49.6300 H   0  0  0  0  0  0  0  0  0  0  0  0
   59.5369   35.1303   49.5999 H   0  0  0  0  0  0  0  0  0  0  0  0
   58.6845   32.1195   47.4728 H   0  0  0  0  0  0  0  0  0  0  0  0
   57.0667   33.3496   44.2274 H   0  0  0  0  0  0  0  0  0  0  0  0
   58.6936   32.5431   43.9995 H   0  0  0  0  0  0  0  0  0  0  0  0
   55.3869   30.8415   44.5237 H   0  0  0  0  0  0  0  0  0  0  0  0
   56.4446   31.3997   43.1988 H   0  0  0  0  0  0  0  0  0  0  0  0
   56.2621   28.7017   44.4921 H   0  0  0  0  0  0  0  0  0  0  0  0
   56.8315   29.1045   42.8729 H   0  0  0  0  0  0  0  0  0  0  0  0
   58.5478   28.4056   44.8936 H   0  0  0  0  0  0  0  0  0  0  0  0
   59.0536   29.5444   43.6527 H   0  0  0  0  0  0  0  0  0  0  0  0
   58.1134   30.0519   46.4912 H   0  0  0  0  0  0  0  0  0  0  0  0
   59.3332   30.9452   45.5494 H   0  0  0  0  0  0  0  0  0  0  0  0
   59.6280   36.1890   47.1400 H   0  0  0  0  0  0  0  0  0  0  0  0
  1  2  1  0
  2  3  1  0
  3  4  1  0
  4  5  1  0
  5  6  1  0
  6  7  1  0
  7  8  1  0
  8  9  2  0
  9 10  1  0
 10 11  1  0
 11 12  1  0
 12 13  1  0
 13 14  1  0
 14 15  1  0
  9 16  1  0
 16 17  2  0
 17  7  1  0
 15 11  1  0
  1 18  1  0
  1 19  1  0
  1 20  1  0
  2 21  1  0
  3 22  1  0
  3 23  1  0
  4 24  1  0
  4 25  1  0
  5 26  1  0
  5 27  1  0
  6 28  1  0
  6 29  1  0
  8 30  1  0
 10 31  1  0
 10 32  1  0
 12 33  1  0
 12 34  1  0
 13 35  1  0
 13 36  1  0
 14 37  1  0
 14 38  1  0
 15 39  1  0
 15 40  1  0
 17 41  1  0
M  CHG  1  17   1
M  END
>  <UniqueID>  (83) 
74

>  <SMILES>  (83) 
CNCCCCn1cc(CN2CCCC2)n[nH+]1

>  <Energy>  (83) 
70.075557854

>  <Genealogy>  (83) 
CNCCCCn1cc(CN2CCCC2)n[nH+]1 (protonated)
CNCCCCn1cc(CN2CCCC2)n[nH+]1 (3D coordinates assigned)
CNCCCCn1cc(CN2CCCC2)n[nH+]1 (nonaromatic ring conformer: 70.075557854 kcal/mol)

>  <smiles>  (83) 
CNCCCCn1cc(CN2CCCC2)nn1

>  <score_type>  (83) 
oracle

>  <origin>  (83) 
adg

>  <m_score__min__energy>  (83) 
-5.6399999999999997

>  <m_primary>  (83) 
energy

$$$$
83:0
     RDKit          3D

 41 43  0  0  0  0  0  0  0  0999 V2000
   56.7330   27.9500   43.0090 H   0  0  0  0  0  0  0  0  0  0  0  0
   56.7540   28.9770   43.2030 N   0  0  0  0  0  0  0  0  0  0  0  0
   57.6320   29.5240   43.9870 C   0  0  0  0  0  0  0  0  0  0  0  0
   57.5610   30.8900   44.2890 C   0  0  0  0  0  0  0  0  0  0  0  0
   56.7610   31.5096   43.8576 H   0  0  0  0  0  0  0  0  0  0  0  0
   58.5130   31.4650   45.1430 C   0  0  0  0  0  0  0  0  0  0  0  0
   58.4550   32.8710   45.4570 N   0  0  0  0  0  0  0  0  0  0  0  0
   59.0340   33.8540   44.5270 C   0  0  0  0  0  0  0  0  0  0  0  0
   60.0120   33.4871   44.1820 H   0  0  0  0  0  0  0  0  0  0  0  0
   58.3423   33.9783   43.6808 H   0  0  0  0  0  0  0  0  0  0  0  0
   59.2230   35.2220   45.2010 C   0  0  0  0  0  0  0  0  0  0  0  0
   59.9203   35.8275   44.6034 H   0  0  0  0  0  0  0  0  0  0  0  0
   58.2473   35.7256   45.2673 H   0  0  0  0  0  0  0  0  0  0  0  0
   59.7900   35.0460   46.6150 C   0  0  0  0  0  0  0  0  0  0  0  0
   60.7818   34.5762   46.5404 H   0  0  0  0  0  0  0  0  0  0  0  0
   59.8454   36.0428   47.0769 H   0  0  0  0  0  0  0  0  0  0  0  0
   58.8920   34.1650   47.5130 C   0  0  0  0  0  0  0  0  0  0  0  0
   59.5351   33.4796   48.0845 H   0  0  0  0  0  0  0  0  0  0  0  0
   58.3222   34.8414   48.1671 H   0  0  0  0  0  0  0  0  0  0  0  0
   57.8720   33.3310   46.7220 C   0  0  0  0  0  0  0  0  0  0  0  0
   57.5748   32.4583   47.3221 H   0  0  0  0  0  0  0  0  0  0  0  0
   56.9945   33.9569   46.5025 H   0  0  0  0  0  0  0  0  0  0  0  0
   59.5060   30.6860   45.6610 N   0  0  0  0  0  0  0  0  0  0  0  0
   60.2370   31.1120   46.2720 H   0  0  0  0  0  0  0  0  0  0  0  0
   59.5950   29.3570   45.3830 C   0  0  0  0  0  0  0  0  0  0  0  0
   60.4057   28.7596   45.8256 H   0  0  0  0  0  0  0  0  0  0  0  0
   58.6580   28.7420   44.5340 C   0  0  0  0  0  0  0  0  0  0  0  0
   58.7130   27.3730   44.2140 O   0  0  0  0  0  0  0  0  0  0  0  0
   58.7130   26.3020   45.1590 C   0  0  0  0  0  0  0  0  0  0  0  0
   59.4629   25.5557   44.8579 H   0  0  0  0  0  0  0  0  0  0  0  0
   58.9541   26.7087   46.1522 H   0  0  0  0  0  0  0  0  0  0  0  0
   57.3600   25.6440   45.2230 C   0  0  0  0  0  0  0  0  0  0  0  0
   56.3260   26.1960   45.9950 C   0  0  0  0  0  0  0  0  0  0  0  0
   56.5032   27.1162   46.5711 H   0  0  0  0  0  0  0  0  0  0  0  0
   55.1060   25.5970   46.0330 N   0  0  0  0  0  0  0  0  0  0  0  0
   54.8440   24.4650   45.3270 C   0  0  0  0  0  0  0  0  0  0  0  0
   53.8471   24.0032   45.3804 H   0  0  0  0  0  0  0  0  0  0  0  0
   55.8370   23.8880   44.5350 C   0  0  0  0  0  0  0  0  0  0  0  0
   55.6283   22.9733   43.9607 H   0  0  0  0  0  0  0  0  0  0  0  0
   57.0990   24.4840   44.4790 C   0  0  0  0  0  0  0  0  0  0  0  0
   57.8880   24.0437   43.8516 H   0  0  0  0  0  0  0  0  0  0  0  0
  1  2  1  0
  2  3  2  0
  3  4  1  0
  4  5  1  0
  4  6  2  0
  6  7  1  0
  7  8  1  0
  8  9  1  0
  8 10  1  0
  8 11  1  0
 11 12  1  0
 11 13  1  0
 11 14  1  0
 14 15  1  0
 14 16  1  0
 14 17  1  0
 17 18  1  0
 17 19  1  0
 17 20  1  0
 20 21  1  0
 20 22  1  0
  6 23  1  0
 23 24  1  0
 23 25  1  0
 25 26  1  0
 25 27  2  0
 27 28  1  0
 28 29  1  0
 29 30  1  0
 29 31  1  0
 29 32  1  0
 32 33  2  0
 33 34  1  0
 33 35  1  0
 35 36  2  0
 36 37  1  0
 36 38  1  0
 38 39  1  0
 38 40  2  0
 40 41  1  0
 27  3  1  0
 40 32  1  0
 20  7  1  0
M  END
>  <UniqueID>  (84) 
75

>  <SMILES>  (84) 
[H]/N=c1\cc(N2CCCCC2)[nH]cc1OCc1cccnc1

>  <Energy>  (84) 
48.5878866253659

>  <Genealogy>  (84) 
[H]/N=c1\cc(N2CCCCC2)[nH]cc1OCc1cccnc1 (cis-trans isomerization)
[H]/N=c1\cc(N2CCCCC2)[nH]cc1OCc1cccnc1 (3D coordinates assigned)
[H]/N=c1\cc(N2CCCCC2)[nH]cc1OCc1cccnc1 (nonaromatic ring conformer: 48.5878866253659 kcal/mol)

>  <smiles>  (84) 
N=c1cc(N2CCCCC2)[nH]cc1OCc1cccnc1

>  <score_type>  (84) 
oracle

>  <origin>  (84) 
adg

>  <m_score__min__energy>  (84) 
-6.6299999999999999

>  <m_primary>  (84) 
energy

$$$$
84:0
     RDKit          3D

 26 26  0  0  0  0  0  0  0  0999 V2000
   57.3860   31.8140   42.0080 C   0  0  0  0  0  0  0  0  0  0  0  0
   57.0220   31.1880   43.3330 C   0  0  0  0  0  0  0  0  0  0  0  0
   57.4170   31.8710   44.6170 C   0  0  0  0  0  0  0  0  0  0  0  0
   56.3490   30.0210   43.4010 C   0  0  0  0  0  0  0  0  0  0  0  0
   55.9720   29.3610   44.7060 C   0  0  0  0  0  0  0  0  0  0  0  0
   56.9900   28.3170   45.0980 C   0  0  0  0  0  0  0  0  0  0  0  0
   58.3550   28.5680   44.8610 C   0  0  0  0  0  0  0  0  0  0  0  0
   59.3220   27.6210   45.2060 C   0  0  0  0  0  0  0  0  0  0  0  0
   58.9410   26.4100   45.7830 C   0  0  0  0  0  0  0  0  0  0  0  0
   57.5900   26.1390   46.0110 C   0  0  0  0  0  0  0  0  0  0  0  0
   56.6070   27.0760   45.6670 C   0  0  0  0  0  0  0  0  0  0  0  0
   55.2710   26.7430   45.8960 O   0  0  0  0  0  0  0  0  0  0  0  0
   57.9318   32.7527   42.1836 H   0  0  0  0  0  0  0  0  0  0  0  0
   58.0221   31.1212   41.4376 H   0  0  0  0  0  0  0  0  0  0  0  0
   56.4692   32.0241   41.4376 H   0  0  0  0  0  0  0  0  0  0  0  0
   57.0707   31.2723   45.4724 H   0  0  0  0  0  0  0  0  0  0  0  0
   58.5118   31.9700   44.6579 H   0  0  0  0  0  0  0  0  0  0  0  0
   56.9568   32.8693   44.6579 H   0  0  0  0  0  0  0  0  0  0  0  0
   56.0611   29.5266   42.4615 H   0  0  0  0  0  0  0  0  0  0  0  0
   55.9197   30.1264   45.4943 H   0  0  0  0  0  0  0  0  0  0  0  0
   54.9959   28.8694   44.5811 H   0  0  0  0  0  0  0  0  0  0  0  0
   58.6626   29.5182   44.4001 H   0  0  0  0  0  0  0  0  0  0  0  0
   60.3860   27.8308   45.0222 H   0  0  0  0  0  0  0  0  0  0  0  0
   59.7048   25.6679   46.0587 H   0  0  0  0  0  0  0  0  0  0  0  0
   57.2952   25.1813   46.4647 H   0  0  0  0  0  0  0  0  0  0  0  0
   54.9440   26.3160   46.7530 H   0  0  0  0  0  0  0  0  0  0  0  0
  1  2  1  0
  2  3  1  0
  2  4  2  3
  4  5  1  0
  5  6  1  0
  6  7  2  0
  7  8  1  0
  8  9  2  0
  9 10  1  0
 10 11  2  0
 11 12  1  0
 11  6  1  0
  1 13  1  0
  1 14  1  0
  1 15  1  0
  3 16  1  0
  3 17  1  0
  3 18  1  0
  4 19  1  0
  5 20  1  0
  5 21  1  0
  7 22  1  0
  8 23  1  0
  9 24  1  0
 10 25  1  0
 12 26  1  0
M  END
>  <UniqueID>  (85) 
76

>  <SMILES>  (85) 
CC(C)=CCc1ccccc1O

>  <Energy>  (85) 
20.103299286342285

>  <Genealogy>  (85) 
CC(C)=CCc1ccccc1O (3D coordinates assigned)
CC(C)=CCc1ccccc1O (optimized conformer: 20.103299286342285 kcal/mol)

>  <smiles>  (85) 
CC(C)=CCc1ccccc1O

>  <score_type>  (85) 
oracle

>  <origin>  (85) 
adg

>  <m_score__min__energy>  (85) 
-6.2300000000000004

>  <m_primary>  (85) 
energy

$$$$
85:0
     RDKit          3D

 22 23  0  0  0  0  0  0  0  0999 V2000
   55.1360   28.9680   44.5090 O   0  0  0  0  0  0  0  0  0  0  0  0
   56.2290   29.6970   44.9160 N   0  0  0  0  0  0  0  0  0  0  0  0
   56.3900   30.9690   44.4590 C   0  0  0  0  0  0  0  0  0  0  0  0
   57.4930   31.7270   44.8600 C   0  0  0  0  0  0  0  0  0  0  0  0
   58.4400   31.1730   45.7370 C   0  0  0  0  0  0  0  0  0  0  0  0
   59.6210   31.9610   46.1760 C   0  0  0  0  0  0  0  0  0  0  0  0
   60.7330   31.3220   46.7560 C   0  0  0  0  0  0  0  0  0  0  0  0
   61.8430   32.0660   47.1680 C   0  0  0  0  0  0  0  0  0  0  0  0
   61.8550   33.4540   47.0090 C   0  0  0  0  0  0  0  0  0  0  0  0
   62.9320   34.1730   47.4090 F   0  0  0  0  0  0  0  0  0  0  0  0
   60.7560   34.1000   46.4360 C   0  0  0  0  0  0  0  0  0  0  0  0
   59.6450   33.3600   46.0210 C   0  0  0  0  0  0  0  0  0  0  0  0
   58.2480   29.8580   46.1910 C   0  0  0  0  0  0  0  0  0  0  0  0
   57.1300   29.1350   45.7670 C   0  0  0  0  0  0  0  0  0  0  0  0
   55.6487   31.4019   43.7712 H   0  0  0  0  0  0  0  0  0  0  0  0
   57.6195   32.7551   44.4898 H   0  0  0  0  0  0  0  0  0  0  0  0
   60.7288   30.2297   46.8861 H   0  0  0  0  0  0  0  0  0  0  0  0
   62.7083   31.5575   47.6181 H   0  0  0  0  0  0  0  0  0  0  0  0
   60.7653   35.1929   46.3113 H   0  0  0  0  0  0  0  0  0  0  0  0
   58.7835   33.8744   45.5702 H   0  0  0  0  0  0  0  0  0  0  0  0
   58.9747   29.3991   46.8775 H   0  0  0  0  0  0  0  0  0  0  0  0
   56.9773   28.1055   46.1232 H   0  0  0  0  0  0  0  0  0  0  0  0
  1  2  1  0
  2  3  2  0
  3  4  1  0
  4  5  2  0
  5  6  1  0
  6  7  2  0
  7  8  1  0
  8  9  2  0
  9 10  1  0
  9 11  1  0
 11 12  2  0
  5 13  1  0
 13 14  2  0
 14  2  1  0
 12  6  1  0
  3 15  1  0
  4 16  1  0
  7 17  1  0
  8 18  1  0
 11 19  1  0
 12 20  1  0
 13 21  1  0
 14 22  1  0
M  CHG  2   1  -1   2   1
M  END
>  <UniqueID>  (86) 
77

>  <SMILES>  (86) 
[O-][n+]1ccc(-c2ccc(F)cc2)cc1

>  <Energy>  (86) 
28.311481237954688

>  <Genealogy>  (86) 
[O-][n+]1ccc(-c2ccc(F)cc2)cc1 (3D coordinates assigned)
[O-][n+]1ccc(-c2ccc(F)cc2)cc1 (optimized conformer: 28.311481237954688 kcal/mol)

>  <smiles>  (86) 
[O-][n+]1ccc(-c2ccc(F)cc2)cc1

>  <score_type>  (86) 
oracle

>  <origin>  (86) 
adg

>  <m_score__min__energy>  (86) 
-5.54

>  <m_primary>  (86) 
energy

$$$$
86:0
     RDKit          3D

 40 42  0  0  0  0  0  0  0  0999 V2000
   58.8800   34.9440   44.8770 C   0  0  0  0  0  0  0  0  0  0  0  0
   58.4670   33.5040   44.8460 C   0  0  0  0  0  0  0  0  0  0  0  0
   57.8920   32.7110   43.4680 S   0  0  0  0  0  0  0  0  0  0  0  0
   57.7340   31.2150   44.2060 C   0  0  0  0  0  0  0  0  0  0  0  0
   57.3170   30.0190   43.6260 C   0  0  0  0  0  0  0  0  0  0  0  0
   57.3130   28.8630   44.4170 C   0  0  0  0  0  0  0  0  0  0  0  0
   57.7410   28.9210   45.7550 C   0  0  0  0  0  0  0  0  0  0  0  0
   58.1610   30.1370   46.3210 C   0  0  0  0  0  0  0  0  0  0  0  0
   58.1320   31.2980   45.5360 C   0  0  0  0  0  0  0  0  0  0  0  0
   58.5300   32.5990   45.9170 C   0  0  0  0  0  0  0  0  0  0  0  0
   58.9470   32.9880   47.2850 C   0  0  0  0  0  0  0  0  0  0  0  0
   58.1870   32.7460   48.2610 O   0  0  0  0  0  0  0  0  0  0  0  0
   60.2730   33.6570   47.5320 C   0  0  0  0  0  0  0  0  0  0  0  0
   61.3610   32.9710   46.7990 N   0  0  0  0  0  0  0  0  0  0  0  0
   61.8480   31.7830   47.5480 C   0  0  0  0  0  0  0  0  0  0  0  0
   63.3760   31.5980   47.4750 C   0  0  0  0  0  0  0  0  0  0  0  0
   64.1100   32.8050   47.9190 N   0  0  0  0  0  0  0  0  0  0  0  0
   64.3190   32.8010   49.3800 C   0  0  0  0  0  0  0  0  0  0  0  0
   63.4890   34.0820   47.4790 C   0  0  0  0  0  0  0  0  0  0  0  0
   62.4410   33.8880   46.3750 C   0  0  0  0  0  0  0  0  0  0  0  0
   58.9752   35.2758   45.9215 H   0  0  0  0  0  0  0  0  0  0  0  0
   59.8474   35.0591   44.3661 H   0  0  0  0  0  0  0  0  0  0  0  0
   58.1207   35.5543   44.3661 H   0  0  0  0  0  0  0  0  0  0  0  0
   56.9990   29.9833   42.5736 H   0  0  0  0  0  0  0  0  0  0  0  0
   56.9742   27.9074   43.9903 H   0  0  0  0  0  0  0  0  0  0  0  0
   57.7472   28.0056   46.3649 H   0  0  0  0  0  0  0  0  0  0  0  0
   58.5073   30.1770   47.3643 H   0  0  0  0  0  0  0  0  0  0  0  0
   60.2162   34.7025   47.1948 H   0  0  0  0  0  0  0  0  0  0  0  0
   60.4931   33.6094   48.6087 H   0  0  0  0  0  0  0  0  0  0  0  0
   61.5603   31.8944   48.6038 H   0  0  0  0  0  0  0  0  0  0  0  0
   61.3909   30.8966   47.0839 H   0  0  0  0  0  0  0  0  0  0  0  0
   63.6613   30.7534   48.1195 H   0  0  0  0  0  0  0  0  0  0  0  0
   63.6424   31.4095   46.4245 H   0  0  0  0  0  0  0  0  0  0  0  0
   63.3445   32.8197   49.8899 H   0  0  0  0  0  0  0  0  0  0  0  0
   64.8670   31.8922   49.6695 H   0  0  0  0  0  0  0  0  0  0  0  0
   64.9013   33.6882   49.6695 H   0  0  0  0  0  0  0  0  0  0  0  0
   63.0023   34.5525   48.3460 H   0  0  0  0  0  0  0  0  0  0  0  0
   64.2898   34.7131   47.0663 H   0  0  0  0  0  0  0  0  0  0  0  0
   62.0013   34.8650   46.1256 H   0  0  0  0  0  0  0  0  0  0  0  0
   62.9421   33.4458   45.5013 H   0  0  0  0  0  0  0  0  0  0  0  0
  1  2  1  0
  2  3  1  0
  3  4  1  0
  4  5  2  0
  5  6  1  0
  6  7  2  0
  7  8  1  0
  8  9  2  0
  9 10  1  0
 10 11  1  0
 11 12  2  0
 11 13  1  0
 13 14  1  0
 14 15  1  0
 15 16  1  0
 16 17  1  0
 17 18  1  0
 17 19  1  0
 19 20  1  0
 10  2  2  0
 20 14  1  0
  9  4  1  0
  1 21  1  0
  1 22  1  0
  1 23  1  0
  5 24  1  0
  6 25  1  0
  7 26  1  0
  8 27  1  0
 13 28  1  0
 13 29  1  0
 15 30  1  0
 15 31  1  0
 16 32  1  0
 16 33  1  0
 18 34  1  0
 18 35  1  0
 18 36  1  0
 19 37  1  0
 19 38  1  0
 20 39  1  0
 20 40  1  0
M  END
>  <UniqueID>  (87) 
78

>  <SMILES>  (87) 
Cc1sc2ccccc2c1C(=O)CN1CCN(C)CC1

>  <Energy>  (87) 
89.32956923266067

>  <Genealogy>  (87) 
Cc1sc2ccccc2c1C(=O)CN1CCN(C)CC1 (3D coordinates assigned)
Cc1sc2ccccc2c1C(=O)CN1CCN(C)CC1 (nonaromatic ring conformer: 89.32956923266067 kcal/mol)

>  <smiles>  (87) 
Cc1sc2ccccc2c1C(=O)CN1CCN(C)CC1

>  <score_type>  (87) 
oracle

>  <origin>  (87) 
adg

>  <m_score__min__energy>  (87) 
-7.4699999999999998

>  <m_primary>  (87) 
energy

$$$$
87:0
     RDKit          3D

 38 41  0  0  0  0  0  0  0  0999 V2000
   55.1980   26.6660   46.0210 N   0  0  0  0  0  0  0  0  0  0  0  0
   56.9080   26.7580   45.7970 S   0  0  0  0  0  0  0  0  0  0  0  0
   57.6030   26.3700   47.0720 O   0  0  0  0  0  0  0  0  0  0  0  0
   57.3220   25.8020   44.7140 O   0  0  0  0  0  0  0  0  0  0  0  0
   57.3560   28.4000   45.3490 C   0  0  0  0  0  0  0  0  0  0  0  0
   56.3780   29.3070   44.9190 C   0  0  0  0  0  0  0  0  0  0  0  0
   56.7330   30.6140   44.5750 C   0  0  0  0  0  0  0  0  0  0  0  0
   58.0690   31.0370   44.6850 C   0  0  0  0  0  0  0  0  0  0  0  0
   58.4690   32.3570   44.2840 N   0  0  0  0  0  0  0  0  0  0  0  0
   58.8510   33.3350   45.0580 C   0  0  0  0  0  0  0  0  0  0  0  0
   59.2160   34.6200   44.5810 C   0  0  0  0  0  0  0  0  0  0  0  0
   59.6020   35.6260   45.4970 C   0  0  0  0  0  0  0  0  0  0  0  0
   59.6150   35.3770   46.8410 N   0  0  0  0  0  0  0  0  0  0  0  0
   59.2480   34.1480   47.2810 C   0  0  0  0  0  0  0  0  0  0  0  0
   59.1990   33.7420   48.5550 N   0  0  0  0  0  0  0  0  0  0  0  0
   58.7740   32.4540   48.4310 C   0  0  0  0  0  0  0  0  0  0  0  0
   58.5600   31.5620   49.5930 C   0  0  0  0  0  0  0  0  0  0  0  0
   59.1160   30.2700   49.6140 C   0  0  0  0  0  0  0  0  0  0  0  0
   58.9140   29.4310   50.7140 C   0  0  0  0  0  0  0  0  0  0  0  0
   58.1550   29.8710   51.8010 C   0  0  0  0  0  0  0  0  0  0  0  0
   57.5980   31.1520   51.7910 C   0  0  0  0  0  0  0  0  0  0  0  0
   57.7980   31.9960   50.6940 C   0  0  0  0  0  0  0  0  0  0  0  0
   58.5630   32.0550   47.1450 N   0  0  0  0  0  0  0  0  0  0  0  0
   58.8720   33.1540   46.4400 C   0  0  0  0  0  0  0  0  0  0  0  0
   59.0470   30.1200   45.0870 C   0  0  0  0  0  0  0  0  0  0  0  0
   58.6930   28.8130   45.4330 C   0  0  0  0  0  0  0  0  0  0  0  0
   54.7630   26.7140   45.0720 H   0  0  0  0  0  0  0  0  0  0  0  0
   55.3271   28.9889   44.8520 H   0  0  0  0  0  0  0  0  0  0  0  0
   55.9642   31.3144   44.2168 H   0  0  0  0  0  0  0  0  0  0  0  0
   59.1989   34.8334   43.5020 H   0  0  0  0  0  0  0  0  0  0  0  0
   59.8947   36.6187   45.1242 H   0  0  0  0  0  0  0  0  0  0  0  0
   59.7132   29.9178   48.7600 H   0  0  0  0  0  0  0  0  0  0  0  0
   59.3535   28.4227   50.7235 H   0  0  0  0  0  0  0  0  0  0  0  0
   57.9959   29.2088   52.6648 H   0  0  0  0  0  0  0  0  0  0  0  0
   57.0009   31.4976   52.6477 H   0  0  0  0  0  0  0  0  0  0  0  0
   57.3576   33.0040   50.6916 H   0  0  0  0  0  0  0  0  0  0  0  0
   60.1015   30.4301   45.1309 H   0  0  0  0  0  0  0  0  0  0  0  0
   59.4652   28.1068   45.7720 H   0  0  0  0  0  0  0  0  0  0  0  0
  1  2  1  0
  2  3  2  0
  2  4  2  0
  2  5  1  0
  5  6  2  0
  6  7  1  0
  7  8  2  0
  8  9  1  0
  9 10  2  3
 10 11  1  0
 11 12  2  0
 12 13  1  0
 13 14  1  0
 14 15  1  0
 15 16  1  0
 16 17  1  0
 17 18  2  0
 18 19  1  0
 19 20  2  0
 20 21  1  0
 21 22  2  0
 16 23  2  0
 23 24  1  0
  8 25  1  0
 25 26  2  0
 26  5  1  0
 24 10  1  0
 24 14  2  0
 22 17  1  0
  1 27  1  0
  6 28  1  0
  7 29  1  0
 11 30  1  0
 12 31  1  0
 18 32  1  0
 19 33  1  0
 20 34  1  0
 21 35  1  0
 22 36  1  0
 25 37  1  0
 26 38  1  0
M  CHG  3   1  -1  13  -1  15  -1
M  END
>  <UniqueID>  (88) 
79

>  <SMILES>  (88) 
[NH-]S(=O)(=O)c1ccc(N=c2cc[n-]c3[n-]c(-c4ccccc4)nc23)cc1

>  <Energy>  (88) 
89.60316805272846

>  <Genealogy>  (88) 
[NH-]S(=O)(=O)c1ccc(N=c2cc[n-]c3[n-]c(-c4ccccc4)nc23)cc1 (protonated)
[NH-]S(=O)(=O)c1ccc(N=c2cc[n-]c3[n-]c(-c4ccccc4)nc23)cc1 (3D coordinates assigned)
[NH-]S(=O)(=O)c1ccc(N=c2cc[n-]c3[n-]c(-c4ccccc4)nc23)cc1 (optimized conformer: 89.60316805272846 kcal/mol)

>  <smiles>  (88) 
NS(=O)(=O)c1ccc(N=c2cc[nH]c3[nH]c(-c4ccccc4)nc23)cc1

>  <score_type>  (88) 
oracle

>  <origin>  (88) 
adg

>  <m_score__min__energy>  (88) 
-12.050000000000001

>  <m_primary>  (88) 
energy

$$$$
88:0
     RDKit          3D

 37 39  0  0  0  0  0  0  0  0999 V2000
   58.1500   26.7810   42.5090 O   0  0  0  0  0  0  0  0  0  0  0  0
   57.7710   27.0800   43.6740 C   0  0  0  0  0  0  0  0  0  0  0  0
   57.6340   26.0480   44.6650 N   0  0  0  0  0  0  0  0  0  0  0  0
   57.4510   24.6560   44.3490 C   0  0  0  0  0  0  0  0  0  0  0  0
   56.5030   24.2870   43.3810 C   0  0  0  0  0  0  0  0  0  0  0  0
   56.3230   22.9430   43.0420 C   0  0  0  0  0  0  0  0  0  0  0  0
   57.0980   21.9550   43.6570 C   0  0  0  0  0  0  0  0  0  0  0  0
   56.9240   20.6530   43.3250 F   0  0  0  0  0  0  0  0  0  0  0  0
   58.0600   22.3140   44.6050 C   0  0  0  0  0  0  0  0  0  0  0  0
   58.2420   23.6570   44.9470 C   0  0  0  0  0  0  0  0  0  0  0  0
   57.5220   28.5020   44.0180 C   0  0  0  0  0  0  0  0  0  0  0  0
   56.9940   29.3830   43.0620 C   0  0  0  0  0  0  0  0  0  0  0  0
   56.7560   30.7180   43.3900 C   0  0  0  0  0  0  0  0  0  0  0  0
   57.0240   31.1700   44.6900 C   0  0  0  0  0  0  0  0  0  0  0  0
   56.8260   32.5420   45.0660 N   0  0  0  0  0  0  0  0  0  0  0  0
   57.8210   33.3690   45.6920 C   0  0  0  0  0  0  0  0  0  0  0  0
   58.5890   34.2400   44.9050 C   0  0  0  0  0  0  0  0  0  0  0  0
   59.5820   35.0330   45.4900 C   0  0  0  0  0  0  0  0  0  0  0  0
   59.8250   34.9510   46.8630 C   0  0  0  0  0  0  0  0  0  0  0  0
   59.0820   34.0690   47.6520 C   0  0  0  0  0  0  0  0  0  0  0  0
   58.0880   33.2750   47.0710 C   0  0  0  0  0  0  0  0  0  0  0  0
   57.5450   30.3040   45.6000 N   0  0  0  0  0  0  0  0  0  0  0  0
   57.7900   29.0000   45.3040 C   0  0  0  0  0  0  0  0  0  0  0  0
   57.7890   26.3040   45.6660 H   0  0  0  0  0  0  0  0  0  0  0  0
   55.8979   25.0609   42.8861 H   0  0  0  0  0  0  0  0  0  0  0  0
   55.5706   22.6622   42.2903 H   0  0  0  0  0  0  0  0  0  0  0  0
   58.6755   21.5378   45.0832 H   0  0  0  0  0  0  0  0  0  0  0  0
   59.0071   23.9345   45.6870 H   0  0  0  0  0  0  0  0  0  0  0  0
   56.7666   29.0193   42.0491 H   0  0  0  0  0  0  0  0  0  0  0  0
   56.3605   31.4117   42.6334 H   0  0  0  0  0  0  0  0  0  0  0  0
   55.8930   32.9670   44.8630 H   0  0  0  0  0  0  0  0  0  0  0  0
   58.4094   34.2998   43.8214 H   0  0  0  0  0  0  0  0  0  0  0  0
   60.1722   35.7220   44.8679 H   0  0  0  0  0  0  0  0  0  0  0  0
   60.6010   35.5805   47.3230 H   0  0  0  0  0  0  0  0  0  0  0  0
   59.2792   33.9990   48.7319 H   0  0  0  0  0  0  0  0  0  0  0  0
   57.5126   32.5744   47.6940 H   0  0  0  0  0  0  0  0  0  0  0  0
   58.2001   28.3315   46.0753 H   0  0  0  0  0  0  0  0  0  0  0  0
  1  2  2  0
  2  3  1  0
  3  4  1  0
  4  5  2  0
  5  6  1  0
  6  7  2  0
  7  8  1  0
  7  9  1  0
  9 10  2  0
  2 11  1  0
 11 12  2  0
 12 13  1  0
 13 14  2  0
 14 15  1  0
 15 16  1  0
 16 17  2  0
 17 18  1  0
 18 19  2  0
 19 20  1  0
 20 21  2  0
 14 22  1  0
 22 23  2  0
 10  4  1  0
 23 11  1  0
 21 16  1  0
  3 24  1  0
  5 25  1  0
  6 26  1  0
  9 27  1  0
 10 28  1  0
 12 29  1  0
 13 30  1  0
 15 31  1  0
 17 32  1  0
 18 33  1  0
 19 34  1  0
 20 35  1  0
 21 36  1  0
 23 37  1  0
M  END
>  <UniqueID>  (89) 
80

>  <SMILES>  (89) 
O=C(Nc1ccc(F)cc1)c1ccc(Nc2ccccc2)nc1

>  <Energy>  (89) 
51.45180943766462

>  <Genealogy>  (89) 
O=C(Nc1ccc(F)cc1)c1ccc(Nc2ccccc2)nc1 (3D coordinates assigned)
O=C(Nc1ccc(F)cc1)c1ccc(Nc2ccccc2)nc1 (optimized conformer: 51.45180943766462 kcal/mol)

>  <smiles>  (89) 
O=C(Nc1ccc(F)cc1)c1ccc(Nc2ccccc2)nc1

>  <score_type>  (89) 
oracle

>  <origin>  (89) 
adg

>  <m_score__min__energy>  (89) 
-7.5700000000000003

>  <m_primary>  (89) 
energy

$$$$
89:0
     RDKit          3D

 39 40  0  0  0  0  0  0  0  0999 V2000
   57.4720   31.5330   43.4340 C   0  0  0  0  0  0  0  0  0  0  0  0
   56.7550   30.8550   44.4590 O   0  0  0  0  0  0  0  0  0  0  0  0
   56.5790   29.4690   44.4610 C   0  0  0  0  0  0  0  0  0  0  0  0
   55.5170   28.9540   44.9080 O   0  0  0  0  0  0  0  0  0  0  0  0
   57.6830   28.5850   43.9660 C   0  0  0  0  0  0  0  0  0  0  0  0
   58.4190   27.9020   45.1260 C   0  0  0  0  0  0  0  0  0  0  0  0
   58.9680   28.9070   46.1060 C   0  0  0  0  0  0  0  0  0  0  0  0
   58.5800   28.8660   47.4530 C   0  0  0  0  0  0  0  0  0  0  0  0
   59.0520   29.8230   48.3550 C   0  0  0  0  0  0  0  0  0  0  0  0
   59.9130   30.8480   47.9210 C   0  0  0  0  0  0  0  0  0  0  0  0
   60.4030   31.8590   48.8180 N   0  0  0  0  0  0  0  0  0  0  0  0
   60.2450   33.5630   48.5270 S   0  0  0  0  0  0  0  0  0  0  0  0
   61.6040   34.1490   48.2680 O   0  0  0  0  0  0  0  0  0  0  0  0
   59.6530   34.2170   49.7440 O   0  0  0  0  0  0  0  0  0  0  0  0
   59.2310   33.8400   47.1140 C   0  0  0  0  0  0  0  0  0  0  0  0
   57.9010   33.3990   47.1110 C   0  0  0  0  0  0  0  0  0  0  0  0
   57.0870   33.6300   45.9970 C   0  0  0  0  0  0  0  0  0  0  0  0
   57.6000   34.2990   44.8810 C   0  0  0  0  0  0  0  0  0  0  0  0
   58.9280   34.7350   44.8780 C   0  0  0  0  0  0  0  0  0  0  0  0
   59.7440   34.5060   45.9900 C   0  0  0  0  0  0  0  0  0  0  0  0
   60.3030   30.8820   46.5730 C   0  0  0  0  0  0  0  0  0  0  0  0
   59.8300   29.9260   45.6710 C   0  0  0  0  0  0  0  0  0  0  0  0
   58.1996   32.2211   43.8891 H   0  0  0  0  0  0  0  0  0  0  0  0
   58.0024   30.7985   42.8102 H   0  0  0  0  0  0  0  0  0  0  0  0
   56.7683   32.1036   42.8102 H   0  0  0  0  0  0  0  0  0  0  0  0
   57.2555   27.8127   43.3097 H   0  0  0  0  0  0  0  0  0  0  0  0
   58.4051   29.2083   43.4182 H   0  0  0  0  0  0  0  0  0  0  0  0
   57.7173   27.2378   45.6518 H   0  0  0  0  0  0  0  0  0  0  0  0
   59.2630   27.3328   44.7092 H   0  0  0  0  0  0  0  0  0  0  0  0
   57.8996   28.0752   47.8018 H   0  0  0  0  0  0  0  0  0  0  0  0
   58.7486   29.7749   49.4112 H   0  0  0  0  0  0  0  0  0  0  0  0
   60.9790   31.5720   49.6410 H   0  0  0  0  0  0  0  0  0  0  0  0
   57.4961   32.8701   47.9864 H   0  0  0  0  0  0  0  0  0  0  0  0
   56.0425   33.2852   45.9987 H   0  0  0  0  0  0  0  0  0  0  0  0
   56.9587   34.4819   44.0062 H   0  0  0  0  0  0  0  0  0  0  0  0
   59.3318   35.2592   43.9993 H   0  0  0  0  0  0  0  0  0  0  0  0
   60.7894   34.8482   45.9840 H   0  0  0  0  0  0  0  0  0  0  0  0
   60.9876   31.6689   46.2236 H   0  0  0  0  0  0  0  0  0  0  0  0
   60.1344   29.9719   44.6150 H   0  0  0  0  0  0  0  0  0  0  0  0
  1  2  1  0
  2  3  1  0
  3  4  2  0
  3  5  1  0
  5  6  1  0
  6  7  1  0
  7  8  2  0
  8  9  1  0
  9 10  2  0
 10 11  1  0
 11 12  1  0
 12 13  2  0
 12 14  2  0
 12 15  1  0
 15 16  2  0
 16 17  1  0
 17 18  2  0
 18 19  1  0
 19 20  2  0
 10 21  1  0
 21 22  2  0
 22  7  1  0
 20 15  1  0
  1 23  1  0
  1 24  1  0
  1 25  1  0
  5 26  1  0
  5 27  1  0
  6 28  1  0
  6 29  1  0
  8 30  1  0
  9 31  1  0
 11 32  1  0
 16 33  1  0
 17 34  1  0
 18 35  1  0
 19 36  1  0
 20 37  1  0
 21 38  1  0
 22 39  1  0
M  END
>  <UniqueID>  (90) 
81

>  <SMILES>  (90) 
COC(=O)CCc1ccc(NS(=O)(=O)c2ccccc2)cc1

>  <Energy>  (90) 
35.50168814301088

>  <Genealogy>  (90) 
COC(=O)CCc1ccc(NS(=O)(=O)c2ccccc2)cc1 (3D coordinates assigned)
COC(=O)CCc1ccc(NS(=O)(=O)c2ccccc2)cc1 (optimized conformer: 35.50168814301088 kcal/mol)

>  <smiles>  (90) 
COC(=O)CCc1ccc(NS(=O)(=O)c2ccccc2)cc1

>  <score_type>  (90) 
oracle

>  <origin>  (90) 
adg

>  <m_score__min__energy>  (90) 
-8.2599999999999998

>  <m_primary>  (90) 
energy

$$$$
90:0
     RDKit          3D

 58 61  0  0  0  0  0  0  0  0999 V2000
   61.2270   27.9430   50.8550 C   0  0  0  0  0  0  0  0  0  0  0  0
   60.7110   29.3170   51.0240 N   0  0  0  0  0  0  0  0  0  0  0  0
   61.5070   30.2850   50.2380 C   0  0  0  0  0  0  0  0  0  0  0  0
   61.2390   30.1590   48.7250 C   0  0  0  0  0  0  0  0  0  0  0  0
   59.7950   30.0840   48.3770 N   0  0  0  0  0  0  0  0  0  0  0  0
   59.4510   28.8670   47.6080 C   0  0  0  0  0  0  0  0  0  0  0  0
   58.7060   29.2300   46.3500 C   0  0  0  0  0  0  0  0  0  0  0  0
   58.6110   28.3070   45.2970 C   0  0  0  0  0  0  0  0  0  0  0  0
   57.9070   28.6360   44.1350 C   0  0  0  0  0  0  0  0  0  0  0  0
   57.2840   29.8850   44.0220 C   0  0  0  0  0  0  0  0  0  0  0  0
   57.3750   30.8190   45.0590 C   0  0  0  0  0  0  0  0  0  0  0  0
   56.7440   32.0980   44.8950 N   0  0  0  0  0  0  0  0  0  0  0  0
   57.2330   33.3620   45.3700 C   0  0  0  0  0  0  0  0  0  0  0  0
   56.5770   34.4030   45.0970 O   0  0  0  0  0  0  0  0  0  0  0  0
   58.4600   33.4760   46.1940 C   0  0  0  0  0  0  0  0  0  0  0  0
   58.3980   33.3660   47.5300 C   0  0  0  0  0  0  0  0  0  0  0  0
   59.6190   33.3680   48.3520 C   0  0  0  0  0  0  0  0  0  0  0  0
   60.8110   33.7000   47.8250 C   0  0  0  0  0  0  0  0  0  0  0  0
   62.0420   33.6740   48.6570 C   0  0  0  0  0  0  0  0  0  0  0  0
   62.0470   34.2210   49.9560 C   0  0  0  0  0  0  0  0  0  0  0  0
   63.2010   34.1630   50.7460 C   0  0  0  0  0  0  0  0  0  0  0  0
   64.3600   33.5590   50.2530 C   0  0  0  0  0  0  0  0  0  0  0  0
   65.4740   33.4970   51.0220 F   0  0  0  0  0  0  0  0  0  0  0  0
   64.3680   33.0150   48.9660 C   0  0  0  0  0  0  0  0  0  0  0  0
   63.2180   33.0680   48.1720 C   0  0  0  0  0  0  0  0  0  0  0  0
   60.8660   34.2270   46.4080 C   0  0  0  0  0  0  0  0  0  0  0  0
   59.8070   33.5690   45.5100 C   0  0  0  0  0  0  0  0  0  0  0  0
   58.1110   30.4940   46.2130 C   0  0  0  0  0  0  0  0  0  0  0  0
   58.8980   30.2980   49.5340 C   0  0  0  0  0  0  0  0  0  0  0  0
   59.2500   29.3930   50.7350 C   0  0  0  0  0  0  0  0  0  0  0  0
   61.3968   27.4909   51.8433 H   0  0  0  0  0  0  0  0  0  0  0  0
   60.4934   27.3418   50.2979 H   0  0  0  0  0  0  0  0  0  0  0  0
   62.1750   27.9733   50.2979 H   0  0  0  0  0  0  0  0  0  0  0  0
   60.8510   29.5610   52.0320 H   0  0  0  0  0  0  0  0  0  0  0  0
   61.2471   31.3039   50.5611 H   0  0  0  0  0  0  0  0  0  0  0  0
   62.5717   30.0715   50.4135 H   0  0  0  0  0  0  0  0  0  0  0  0
   61.6723   31.0358   48.2215 H   0  0  0  0  0  0  0  0  0  0  0  0
   61.6982   29.2155   48.3950 H   0  0  0  0  0  0  0  0  0  0  0  0
   60.3757   28.3348   47.3402 H   0  0  0  0  0  0  0  0  0  0  0  0
   58.8091   28.2242   48.2283 H   0  0  0  0  0  0  0  0  0  0  0  0
   59.0920   27.3218   45.3863 H   0  0  0  0  0  0  0  0  0  0  0  0
   57.8423   27.9130   43.3085 H   0  0  0  0  0  0  0  0  0  0  0  0
   56.7191   30.1332   43.1113 H   0  0  0  0  0  0  0  0  0  0  0  0
   57.4173   33.2727   48.0195 H   0  0  0  0  0  0  0  0  0  0  0  0
   59.5555   33.0933   49.4153 H   0  0  0  0  0  0  0  0  0  0  0  0
   61.1376   34.6968   50.3517 H   0  0  0  0  0  0  0  0  0  0  0  0
   63.1952   34.5943   51.7579 H   0  0  0  0  0  0  0  0  0  0  0  0
   65.2820   32.5434   48.5760 H   0  0  0  0  0  0  0  0  0  0  0  0
   63.2316   32.6335   47.1616 H   0  0  0  0  0  0  0  0  0  0  0  0
   60.6922   35.3130   46.4256 H   0  0  0  0  0  0  0  0  0  0  0  0
   61.8576   33.9905   45.9948 H   0  0  0  0  0  0  0  0  0  0  0  0
   59.6987   34.1664   44.5927 H   0  0  0  0  0  0  0  0  0  0  0  0
   60.1431   32.5466   45.2825 H   0  0  0  0  0  0  0  0  0  0  0  0
   58.2213   31.2377   47.0159 H   0  0  0  0  0  0  0  0  0  0  0  0
   58.9757   31.3487   49.8502 H   0  0  0  0  0  0  0  0  0  0  0  0
   57.8764   30.0444   49.2144 H   0  0  0  0  0  0  0  0  0  0  0  0
   58.7402   29.7864   51.6268 H   0  0  0  0  0  0  0  0  0  0  0  0
   58.9214   28.3756   50.4764 H   0  0  0  0  0  0  0  0  0  0  0  0
  1  2  1  0
  2  3  1  0
  3  4  1  0
  4  5  1  0
  5  6  1  0
  6  7  1  0
  7  8  2  0
  8  9  1  0
  9 10  2  0
 10 11  1  0
 11 12  1  0
 12 13  1  0
 13 14  2  0
 13 15  1  0
 15 16  2  0
 16 17  1  0
 17 18  2  0
 18 19  1  0
 19 20  2  0
 20 21  1  0
 21 22  2  0
 22 23  1  0
 22 24  1  0
 24 25  2  0
 18 26  1  0
 26 27  1  0
 11 28  2  0
  5 29  1  0
 29 30  1  0
 30  2  1  0
 28  7  1  0
 27 15  1  0
 25 19  1  0
  1 31  1  0
  1 32  1  0
  1 33  1  0
  2 34  1  0
  3 35  1  0
  3 36  1  0
  4 37  1  0
  4 38  1  0
  6 39  1  0
  6 40  1  0
  8 41  1  0
  9 42  1  0
 10 43  1  0
 16 44  1  0
 17 45  1  0
 20 46  1  0
 21 47  1  0
 24 48  1  0
 25 49  1  0
 26 50  1  0
 26 51  1  0
 27 52  1  0
 27 53  1  0
 28 54  1  0
 29 55  1  0
 29 56  1  0
 30 57  1  0
 30 58  1  0
M  CHG  2   2   1  12  -1
M  END
>  <UniqueID>  (91) 
82

>  <SMILES>  (91) 
C[NH+]1CCN(Cc2cccc([N-]C(=O)C3=CC=C(c4ccc(F)cc4)CC3)c2)CC1

>  <Energy>  (91) 
86.9845551508773

>  <Genealogy>  (91) 
C[NH+]1CCN(Cc2cccc([N-]C(=O)C3=CC=C(c4ccc(F)cc4)CC3)c2)CC1 (protonated)
C[NH+]1CCN(Cc2cccc([N-]C(=O)C3=CC=C(c4ccc(F)cc4)CC3)c2)CC1 (3D coordinates assigned)
C[NH+]1CCN(Cc2cccc([N-]C(=O)C3=CC=C(c4ccc(F)cc4)CC3)c2)CC1 (nonaromatic ring conformer: 86.9845551508773 kcal/mol)

>  <smiles>  (91) 
CN1CCN(Cc2cccc(NC(=O)C3=CC=C(c4ccc(F)cc4)CC3)c2)CC1

>  <score_type>  (91) 
oracle

>  <origin>  (91) 
adg

>  <m_score__min__energy>  (91) 
-9.4399999999999995

>  <m_primary>  (91) 
energy

$$$$
91:0
     RDKit          3D

 32 33  0  0  0  0  0  0  0  0999 V2000
   55.4810   29.8620   44.1310 S   0  0  0  0  0  0  0  0  0  0  0  0
   57.0200   29.7070   43.5660 C   0  0  0  0  0  0  0  0  0  0  0  0
   57.8320   30.8640   43.2890 N   0  0  0  0  0  0  0  0  0  0  0  0
   57.4120   32.2460   43.5150 C   0  0  0  0  0  0  0  0  0  0  0  0
   58.0360   32.7720   44.7670 C   0  0  0  0  0  0  0  0  0  0  0  0
   57.7740   32.3220   46.0540 C   0  0  0  0  0  0  0  0  0  0  0  0
   58.4750   33.0290   47.0380 C   0  0  0  0  0  0  0  0  0  0  0  0
   59.2730   34.0470   46.5300 C   0  0  0  0  0  0  0  0  0  0  0  0
   59.1090   34.0630   44.8560 S   0  0  0  0  0  0  0  0  0  0  0  0
   57.5760   28.3900   43.3840 N   0  0  0  0  0  0  0  0  0  0  0  0
   57.8130   27.7180   44.6720 C   0  0  0  0  0  0  0  0  0  0  0  0
   58.6940   28.5350   45.5880 C   0  0  0  0  0  0  0  0  0  0  0  0
   58.2660   28.8470   46.8890 C   0  0  0  0  0  0  0  0  0  0  0  0
   59.0900   29.5880   47.7430 C   0  0  0  0  0  0  0  0  0  0  0  0
   60.3400   30.0290   47.3000 C   0  0  0  0  0  0  0  0  0  0  0  0
   60.7690   29.7280   46.0060 C   0  0  0  0  0  0  0  0  0  0  0  0
   59.9560   28.9750   45.1540 C   0  0  0  0  0  0  0  0  0  0  0  0
   58.8170   30.7120   42.9740 H   0  0  0  0  0  0  0  0  0  0  0  0
   57.7267   32.8663   42.6628 H   0  0  0  0  0  0  0  0  0  0  0  0
   56.3171   32.2785   43.6162 H   0  0  0  0  0  0  0  0  0  0  0  0
   57.0854   31.4939   46.2778 H   0  0  0  0  0  0  0  0  0  0  0  0
   58.4012   32.8005   48.1115 H   0  0  0  0  0  0  0  0  0  0  0  0
   59.9042   34.7264   47.1216 H   0  0  0  0  0  0  0  0  0  0  0  0
   56.9100   27.8130   42.8200 H   0  0  0  0  0  0  0  0  0  0  0  0
   58.4700   28.4510   42.8430 H   0  0  0  0  0  0  0  0  0  0  0  0
   56.8454   27.5506   45.1676 H   0  0  0  0  0  0  0  0  0  0  0  0
   58.3276   26.7676   44.4675 H   0  0  0  0  0  0  0  0  0  0  0  0
   57.2795   28.5075   47.2376 H   0  0  0  0  0  0  0  0  0  0  0  0
   58.7539   29.8236   48.7635 H   0  0  0  0  0  0  0  0  0  0  0  0
   60.9862   30.6136   47.9713 H   0  0  0  0  0  0  0  0  0  0  0  0
   61.7491   30.0843   45.6561 H   0  0  0  0  0  0  0  0  0  0  0  0
   60.3051   28.7262   44.1410 H   0  0  0  0  0  0  0  0  0  0  0  0
  1  2  2  0
  2  3  1  0
  3  4  1  0
  4  5  1  0
  5  6  2  0
  6  7  1  0
  7  8  2  0
  8  9  1  0
  2 10  1  0
 10 11  1  0
 11 12  1  0
 12 13  2  0
 13 14  1  0
 14 15  2  0
 15 16  1  0
 16 17  2  0
  9  5  1  0
 17 12  1  0
  3 18  1  0
  4 19  1  0
  4 20  1  0
  6 21  1  0
  7 22  1  0
  8 23  1  0
 10 24  1  0
 10 25  1  0
 11 26  1  0
 11 27  1  0
 13 28  1  0
 14 29  1  0
 15 30  1  0
 16 31  1  0
 17 32  1  0
M  CHG  1  10   1
M  END
>  <UniqueID>  (92) 
83

>  <SMILES>  (92) 
S=C(NCc1cccs1)[NH2+]Cc1ccccc1

>  <Energy>  (92) 
52.675975618358834

>  <Genealogy>  (92) 
S=C(NCc1cccs1)[NH2+]Cc1ccccc1 (protonated)
S=C(NCc1cccs1)[NH2+]Cc1ccccc1 (3D coordinates assigned)
S=C(NCc1cccs1)[NH2+]Cc1ccccc1 (optimized conformer: 52.675975618358834 kcal/mol)

>  <smiles>  (92) 
S=C(NCc1ccccc1)NCc1cccs1

>  <score_type>  (92) 
oracle

>  <origin>  (92) 
adg

>  <m_score__min__energy>  (92) 
-5.0899999999999999

>  <m_primary>  (92) 
energy

$$$$
92:0
     RDKit          3D

 38 41  0  0  0  0  0  0  0  0999 V2000
   59.5920   34.9360   45.3140 O   0  0  0  0  0  0  0  0  0  0  0  0
   59.5470   34.3420   46.6940 S   0  0  0  0  0  0  0  0  0  0  0  0
   58.9010   35.3400   47.6120 O   0  0  0  0  0  0  0  0  0  0  0  0
   61.1740   33.9930   47.2690 C   0  0  0  0  0  0  0  0  0  0  0  0
   61.5240   34.2130   48.6100 C   0  0  0  0  0  0  0  0  0  0  0  0
   62.8230   33.9400   49.0510 C   0  0  0  0  0  0  0  0  0  0  0  0
   63.7760   33.4440   48.1560 C   0  0  0  0  0  0  0  0  0  0  0  0
   63.4310   33.2210   46.8200 C   0  0  0  0  0  0  0  0  0  0  0  0
   62.1330   33.4930   46.3760 C   0  0  0  0  0  0  0  0  0  0  0  0
   58.6170   32.8680   46.6520 N   0  0  0  0  0  0  0  0  0  0  0  0
   57.4990   32.7320   45.7150 C   0  0  0  0  0  0  0  0  0  0  0  0
   57.5520   31.3960   45.0220 C   0  0  0  0  0  0  0  0  0  0  0  0
   57.0030   31.2540   43.7380 C   0  0  0  0  0  0  0  0  0  0  0  0
   57.0170   30.0130   43.1000 C   0  0  0  0  0  0  0  0  0  0  0  0
   57.5740   28.9060   43.7390 C   0  0  0  0  0  0  0  0  0  0  0  0
   58.1080   29.0280   45.0240 C   0  0  0  0  0  0  0  0  0  0  0  0
   58.0850   30.2690   45.6940 C   0  0  0  0  0  0  0  0  0  0  0  0
   58.6500   30.4460   47.0660 C   0  0  0  0  0  0  0  0  0  0  0  0
   58.9000   29.3590   47.9280 C   0  0  0  0  0  0  0  0  0  0  0  0
   59.4410   29.5740   49.1990 C   0  0  0  0  0  0  0  0  0  0  0  0
   59.7280   30.8680   49.6300 C   0  0  0  0  0  0  0  0  0  0  0  0
   59.4660   31.9570   48.7980 C   0  0  0  0  0  0  0  0  0  0  0  0
   58.9280   31.7570   47.5140 C   0  0  0  0  0  0  0  0  0  0  0  0
   60.7750   34.6011   49.3160 H   0  0  0  0  0  0  0  0  0  0  0  0
   63.0950   34.1156   50.1023 H   0  0  0  0  0  0  0  0  0  0  0  0
   64.7974   33.2293   48.5034 H   0  0  0  0  0  0  0  0  0  0  0  0
   64.1815   32.8310   46.1167 H   0  0  0  0  0  0  0  0  0  0  0  0
   61.8637   33.3145   45.3245 H   0  0  0  0  0  0  0  0  0  0  0  0
   56.5514   32.8161   46.2673 H   0  0  0  0  0  0  0  0  0  0  0  0
   57.5690   33.5281   44.9592 H   0  0  0  0  0  0  0  0  0  0  0  0
   56.5598   32.1247   43.2325 H   0  0  0  0  0  0  0  0  0  0  0  0
   56.5884   29.9081   42.0924 H   0  0  0  0  0  0  0  0  0  0  0  0
   57.5930   27.9317   43.2287 H   0  0  0  0  0  0  0  0  0  0  0  0
   58.5498   28.1496   45.5171 H   0  0  0  0  0  0  0  0  0  0  0  0
   58.6680   28.3354   47.5986 H   0  0  0  0  0  0  0  0  0  0  0  0
   59.6409   28.7188   49.8613 H   0  0  0  0  0  0  0  0  0  0  0  0
   60.1617   31.0310   50.6277 H   0  0  0  0  0  0  0  0  0  0  0  0
   59.6813   32.9773   49.1481 H   0  0  0  0  0  0  0  0  0  0  0  0
  1  2  2  0
  2  3  2  0
  2  4  1  0
  4  5  2  0
  5  6  1  0
  6  7  2  0
  7  8  1  0
  8  9  2  0
  2 10  1  0
 10 11  1  0
 11 12  1  0
 12 13  2  0
 13 14  1  0
 14 15  2  0
 15 16  1  0
 16 17  2  0
 17 18  1  0
 18 19  2  0
 19 20  1  0
 20 21  2  0
 21 22  1  0
 22 23  2  0
  9  4  1  0
 23 10  1  0
 17 12  1  0
 23 18  1  0
  5 24  1  0
  6 25  1  0
  7 26  1  0
  8 27  1  0
  9 28  1  0
 11 29  1  0
 11 30  1  0
 13 31  1  0
 14 32  1  0
 15 33  1  0
 16 34  1  0
 19 35  1  0
 20 36  1  0
 21 37  1  0
 22 38  1  0
M  END
>  <UniqueID>  (93) 
84

>  <SMILES>  (93) 
O=S(=O)(c1ccccc1)N1Cc2ccccc2-c2ccccc21

>  <Energy>  (93) 
53.25043850601653

>  <Genealogy>  (93) 
O=S(=O)(c1ccccc1)N1Cc2ccccc2-c2ccccc21 (3D coordinates assigned)
O=S(=O)(c1ccccc1)N1Cc2ccccc2-c2ccccc21 (nonaromatic ring conformer: 53.25043850601653 kcal/mol)

>  <smiles>  (93) 
O=S(=O)(c1ccccc1)N1Cc2ccccc2-c2ccccc21

>  <score_type>  (93) 
oracle

>  <origin>  (93) 
adg

>  <m_score__min__energy>  (93) 
-8.6400000000000006

>  <m_primary>  (93) 
energy

$$$$
93:0
     RDKit          3D

 39 41  0  0  0  0  0  0  0  0999 V2000
   64.2560   32.6930   48.9730 C   0  0  0  0  0  0  0  0  0  0  0  0
   63.6810   32.4940   47.6870 O   0  0  0  0  0  0  0  0  0  0  0  0
   62.3280   32.7030   47.3840 C   0  0  0  0  0  0  0  0  0  0  0  0
   61.4000   31.7380   47.7870 C   0  0  0  0  0  0  0  0  0  0  0  0
   60.0410   31.8950   47.5010 C   0  0  0  0  0  0  0  0  0  0  0  0
   59.5890   33.0300   46.8130 C   0  0  0  0  0  0  0  0  0  0  0  0
   58.1310   33.1820   46.4790 C   0  0  0  0  0  0  0  0  0  0  0  0
   57.8000   32.4410   45.2230 C   0  0  0  0  0  0  0  0  0  0  0  0
   58.2690   32.7550   44.0020 N   0  0  0  0  0  0  0  0  0  0  0  0
   57.7350   31.9070   43.1400 N   0  0  0  0  0  0  0  0  0  0  0  0
   56.9490   31.0990   43.8780 C   0  0  0  0  0  0  0  0  0  0  0  0
   55.9820   29.7510   43.2050 S   0  0  0  0  0  0  0  0  0  0  0  0
   57.3740   28.5710   43.1680 C   0  0  0  0  0  0  0  0  0  0  0  0
   58.0900   28.5250   44.4910 C   0  0  0  0  0  0  0  0  0  0  0  0
   59.4460   28.8900   44.5650 C   0  0  0  0  0  0  0  0  0  0  0  0
   60.1220   28.8560   45.7880 C   0  0  0  0  0  0  0  0  0  0  0  0
   59.4510   28.4610   46.9480 C   0  0  0  0  0  0  0  0  0  0  0  0
   58.1030   28.1000   46.8860 C   0  0  0  0  0  0  0  0  0  0  0  0
   57.4230   28.1140   45.6640 C   0  0  0  0  0  0  0  0  0  0  0  0
   56.1200   27.7320   45.6270 F   0  0  0  0  0  0  0  0  0  0  0  0
   56.9770   31.4200   45.1500 O   0  0  0  0  0  0  0  0  0  0  0  0
   60.5170   33.9980   46.3990 C   0  0  0  0  0  0  0  0  0  0  0  0
   61.8750   33.8430   46.6920 C   0  0  0  0  0  0  0  0  0  0  0  0
   63.5183   32.4377   49.7480 H   0  0  0  0  0  0  0  0  0  0  0  0
   65.1409   32.0488   49.0827 H   0  0  0  0  0  0  0  0  0  0  0  0
   64.5534   33.7463   49.0827 H   0  0  0  0  0  0  0  0  0  0  0  0
   61.7426   30.8473   48.3340 H   0  0  0  0  0  0  0  0  0  0  0  0
   59.3225   31.1244   47.8172 H   0  0  0  0  0  0  0  0  0  0  0  0
   57.5267   32.7805   47.3058 H   0  0  0  0  0  0  0  0  0  0  0  0
   57.9101   34.2493   46.3304 H   0  0  0  0  0  0  0  0  0  0  0  0
   58.9140   33.5400   43.7530 H   0  0  0  0  0  0  0  0  0  0  0  0
   56.9869   27.5680   42.9355 H   0  0  0  0  0  0  0  0  0  0  0  0
   58.0879   28.9017   42.3992 H   0  0  0  0  0  0  0  0  0  0  0  0
   59.9780   29.2042   43.6549 H   0  0  0  0  0  0  0  0  0  0  0  0
   61.1834   29.1406   45.8372 H   0  0  0  0  0  0  0  0  0  0  0  0
   59.9840   28.4343   47.9099 H   0  0  0  0  0  0  0  0  0  0  0  0
   57.5735   27.8031   47.8033 H   0  0  0  0  0  0  0  0  0  0  0  0
   60.1743   34.8823   45.8417 H   0  0  0  0  0  0  0  0  0  0  0  0
   62.5936   34.6154   46.3805 H   0  0  0  0  0  0  0  0  0  0  0  0
  1  2  1  0
  2  3  1  0
  3  4  2  0
  4  5  1  0
  5  6  2  0
  6  7  1  0
  7  8  1  0
  8  9  2  0
  9 10  1  0
 10 11  2  0
 11 12  1  0
 12 13  1  0
 13 14  1  0
 14 15  2  0
 15 16  1  0
 16 17  2  0
 17 18  1  0
 18 19  2  0
 19 20  1  0
 11 21  1  0
  6 22  1  0
 22 23  2  0
 23  3  1  0
 21  8  1  0
 19 14  1  0
  1 24  1  0
  1 25  1  0
  1 26  1  0
  4 27  1  0
  5 28  1  0
  7 29  1  0
  7 30  1  0
  9 31  1  0
 13 32  1  0
 13 33  1  0
 15 34  1  0
 16 35  1  0
 17 36  1  0
 18 37  1  0
 22 38  1  0
 23 39  1  0
M  CHG  1   9   1
M  END
>  <UniqueID>  (94) 
85

>  <SMILES>  (94) 
COc1ccc(Cc2[nH+]nc(SCc3ccccc3F)o2)cc1

>  <Energy>  (94) 
66.93414273313059

>  <Genealogy>  (94) 
COc1ccc(Cc2[nH+]nc(SCc3ccccc3F)o2)cc1 (protonated)
COc1ccc(Cc2[nH+]nc(SCc3ccccc3F)o2)cc1 (3D coordinates assigned)
COc1ccc(Cc2[nH+]nc(SCc3ccccc3F)o2)cc1 (optimized conformer: 66.93414273313059 kcal/mol)

>  <smiles>  (94) 
COc1ccc(Cc2nnc(SCc3ccccc3F)o2)cc1

>  <score_type>  (94) 
oracle

>  <origin>  (94) 
adg

>  <m_score__min__energy>  (94) 
-6.3300000000000001

>  <m_primary>  (94) 
energy

$$$$
