0:0
     RDKit          3D

 39 41  0  0  0  0  0  0  0  0999 V2000
   61.7680   32.8100   50.7370 C   0  0  0  0  0  0  0  0  0  0  0  0
   60.7900   33.6580   50.1430 O   0  0  0  0  0  0  0  0  0  0  0  0
   60.2820   33.4950   48.8430 C   0  0  0  0  0  0  0  0  0  0  0  0
   58.9490   33.1180   48.6020 C   0  0  0  0  0  0  0  0  0  0  0  0
   58.4770   32.9760   47.2940 C   0  0  0  0  0  0  0  0  0  0  0  0
   59.3330   33.2030   46.2060 C   0  0  0  0  0  0  0  0  0  0  0  0
   58.8920   33.0830   44.8470 N   0  0  0  0  0  0  0  0  0  0  0  0
   57.5690   32.1060   44.3080 S   0  0  0  0  0  0  0  0  0  0  0  0
   57.4460   32.2210   42.8160 O   0  0  0  0  0  0  0  0  0  0  0  0
   56.2970   32.6020   44.9370 O   0  0  0  0  0  0  0  0  0  0  0  0
   57.8660   30.4240   44.7280 C   0  0  0  0  0  0  0  0  0  0  0  0
   59.1760   29.9320   44.8380 C   0  0  0  0  0  0  0  0  0  0  0  0
   59.3950   28.5960   45.1890 C   0  0  0  0  0  0  0  0  0  0  0  0
   58.3110   27.7460   45.4300 C   0  0  0  0  0  0  0  0  0  0  0  0
   57.0040   28.2390   45.3280 C   0  0  0  0  0  0  0  0  0  0  0  0
   56.7800   29.5740   44.9780 C   0  0  0  0  0  0  0  0  0  0  0  0
   55.9050   27.3770   45.6230 N   0  0  0  0  0  0  0  0  0  0  0  0
   56.1330   26.0020   45.9340 C   0  0  0  0  0  0  0  0  0  0  0  0
   55.1640   25.2690   46.2650 O   0  0  0  0  0  0  0  0  0  0  0  0
   57.5060   25.4100   45.7790 C   0  0  0  0  0  0  0  0  0  0  0  0
   58.5280   26.4120   45.8000 O   0  0  0  0  0  0  0  0  0  0  0  0
   60.6630   33.5610   46.4440 C   0  0  0  0  0  0  0  0  0  0  0  0
   61.1430   33.7200   47.7590 C   0  0  0  0  0  0  0  0  0  0  0  0
   62.4630   34.1120   48.0290 O   0  0  0  0  0  0  0  0  0  0  0  0
   63.6130   33.4870   47.4810 C   0  0  0  0  0  0  0  0  0  0  0  0
   61.6930   32.8750   51.8325 H   0  0  0  0  0  0  0  0  0  0  0  0
   61.5948   31.7714   50.4186 H   0  0  0  0  0  0  0  0  0  0  0  0
   62.7716   33.1286   50.4186 H   0  0  0  0  0  0  0  0  0  0  0  0
   58.2724   32.9334   49.4494 H   0  0  0  0  0  0  0  0  0  0  0  0
   57.4309   32.6853   47.1172 H   0  0  0  0  0  0  0  0  0  0  0  0
   60.0309   30.5976   44.6480 H   0  0  0  0  0  0  0  0  0  0  0  0
   60.4225   28.2129   45.2757 H   0  0  0  0  0  0  0  0  0  0  0  0
   55.7519   29.9570   44.8989 H   0  0  0  0  0  0  0  0  0  0  0  0
   57.6836   24.7044   46.6040 H   0  0  0  0  0  0  0  0  0  0  0  0
   57.5486   24.9019   44.8043 H   0  0  0  0  0  0  0  0  0  0  0  0
   61.3431   33.7205   45.5943 H   0  0  0  0  0  0  0  0  0  0  0  0
   64.2621   33.1342   48.2960 H   0  0  0  0  0  0  0  0  0  0  0  0
   63.3053   32.6320   46.8611 H   0  0  0  0  0  0  0  0  0  0  0  0
   64.1631   34.2103   46.8611 H   0  0  0  0  0  0  0  0  0  0  0  0
  1  2  1  0
  2  3  1  0
  3  4  2  0
  4  5  1  0
  5  6  2  0
  6  7  1  0
  7  8  1  0
  8  9  2  0
  8 10  2  0
  8 11  1  0
 11 12  2  0
 12 13  1  0
 13 14  2  0
 14 15  1  0
 15 16  2  0
 15 17  1  0
 17 18  1  0
 18 19  2  0
 18 20  1  0
 20 21  1  0
  6 22  1  0
 22 23  2  0
 23 24  1  0
 24 25  1  0
 23  3  1  0
 16 11  1  0
 21 14  1  0
  1 26  1  0
  1 27  1  0
  1 28  1  0
  4 29  1  0
  5 30  1  0
 12 31  1  0
 13 32  1  0
 16 33  1  0
 20 34  1  0
 20 35  1  0
 22 36  1  0
 25 37  1  0
 25 38  1  0
 25 39  1  0
M  CHG  2   7  -1  17  -1
M  END
>  <UniqueID>  (1) 
1

>  <SMILES>  (1) 
COc1ccc([N-]S(=O)(=O)c2ccc3c(c2)[N-]C(=O)CO3)cc1OC

>  <Energy>  (1) 
45.26370180428996

>  <Genealogy>  (1) 
COc1ccc([N-]S(=O)(=O)c2ccc3c(c2)[N-]C(=O)CO3)cc1OC (protonated)
COc1ccc([N-]S(=O)(=O)c2ccc3c(c2)[N-]C(=O)CO3)cc1OC (3D coordinates assigned)
COc1ccc([N-]S(=O)(=O)c2ccc3c(c2)[N-]C(=O)CO3)cc1OC (nonaromatic ring conformer: 45.26370180428996 kcal/mol)

>  <smiles>  (1) 
COc1ccc(NS(=O)(=O)c2ccc3c(c2)NC(=O)CO3)cc1OC

>  <score_type>  (1) 
oracle

>  <origin>  (1) 
adg

>  <m_score__min__energy>  (1) 
-10.16

>  <m_primary>  (1) 
energy

$$$$
1:0
     RDKit          3D

 64 67  0  0  0  0  0  0  0  0999 V2000
   56.2450   22.4450   48.7040 C   0  0  0  0  0  0  0  0  0  0  0  0
   57.3120   22.3830   47.7630 O   0  0  0  0  0  0  0  0  0  0  0  0
   57.1550   22.4750   46.3700 C   0  0  0  0  0  0  0  0  0  0  0  0
   57.4440   21.3880   45.5200 C   0  0  0  0  0  0  0  0  0  0  0  0
   57.3480   21.5290   44.1340 C   0  0  0  0  0  0  0  0  0  0  0  0
   56.9700   22.7520   43.5790 C   0  0  0  0  0  0  0  0  0  0  0  0
   56.6690   23.8330   44.4100 C   0  0  0  0  0  0  0  0  0  0  0  0
   56.7260   23.6970   45.8030 C   0  0  0  0  0  0  0  0  0  0  0  0
   56.4060   24.8380   46.6120 N   0  0  0  0  0  0  0  0  0  0  0  0
   56.2870   26.1840   46.1370 C   0  0  0  0  0  0  0  0  0  0  0  0
   55.1500   26.7080   45.9940 O   0  0  0  0  0  0  0  0  0  0  0  0
   57.4770   26.9230   45.8250 N   0  0  0  0  0  0  0  0  0  0  0  0
   57.4800   28.2350   45.2380 C   0  0  0  0  0  0  0  0  0  0  0  0
   56.2630   28.8220   44.8620 C   0  0  0  0  0  0  0  0  0  0  0  0
   56.2360   30.1020   44.3030 C   0  0  0  0  0  0  0  0  0  0  0  0
   57.4270   30.8210   44.1200 C   0  0  0  0  0  0  0  0  0  0  0  0
   57.3920   32.2150   43.5510 C   0  0  0  0  0  0  0  0  0  0  0  0
   58.6120   33.0350   43.9940 C   0  0  0  0  0  0  0  0  0  0  0  0
   58.2020   34.3140   44.6180 N   0  0  0  0  0  0  0  0  0  0  0  0
   57.0020   34.1750   45.4650 C   0  0  0  0  0  0  0  0  0  0  0  0
   57.2550   33.2730   46.6820 C   0  0  0  0  0  0  0  0  0  0  0  0
   58.5620   33.5890   47.3640 C   0  0  0  0  0  0  0  0  0  0  0  0
   58.8160   33.0560   48.6350 C   0  0  0  0  0  0  0  0  0  0  0  0
   60.0470   33.2860   49.2780 C   0  0  0  0  0  0  0  0  0  0  0  0
   60.3290   32.7690   50.5520 O   0  0  0  0  0  0  0  0  0  0  0  0
   59.8060   33.2900   51.7690 C   0  0  0  0  0  0  0  0  0  0  0  0
   61.0310   34.0500   48.6370 C   0  0  0  0  0  0  0  0  0  0  0  0
   62.2470   34.2680   49.3050 O   0  0  0  0  0  0  0  0  0  0  0  0
   63.4130   33.4660   49.1430 C   0  0  0  0  0  0  0  0  0  0  0  0
   60.7800   34.5750   47.3560 C   0  0  0  0  0  0  0  0  0  0  0  0
   59.5600   34.3340   46.7090 C   0  0  0  0  0  0  0  0  0  0  0  0
   59.2970   34.9700   45.3630 C   0  0  0  0  0  0  0  0  0  0  0  0
   58.6430   30.2520   44.5290 C   0  0  0  0  0  0  0  0  0  0  0  0
   58.6690   28.9690   45.0850 C   0  0  0  0  0  0  0  0  0  0  0  0
   56.6544   22.4212   49.7247 H   0  0  0  0  0  0  0  0  0  0  0  0
   55.6803   23.3775   48.5571 H   0  0  0  0  0  0  0  0  0  0  0  0
   55.5761   21.5842   48.5571 H   0  0  0  0  0  0  0  0  0  0  0  0
   57.7471   20.4226   45.9514 H   0  0  0  0  0  0  0  0  0  0  0  0
   57.5708   20.6742   43.4785 H   0  0  0  0  0  0  0  0  0  0  0  0
   56.9091   22.8647   42.4865 H   0  0  0  0  0  0  0  0  0  0  0  0
   56.3849   24.7990   43.9673 H   0  0  0  0  0  0  0  0  0  0  0  0
   58.3860   26.5290   46.1590 H   0  0  0  0  0  0  0  0  0  0  0  0
   55.3227   28.2703   45.0084 H   0  0  0  0  0  0  0  0  0  0  0  0
   55.2760   30.5486   44.0047 H   0  0  0  0  0  0  0  0  0  0  0  0
   57.3831   32.1526   42.4528 H   0  0  0  0  0  0  0  0  0  0  0  0
   56.4861   32.7164   43.9224 H   0  0  0  0  0  0  0  0  0  0  0  0
   59.1915   32.4499   44.7233 H   0  0  0  0  0  0  0  0  0  0  0  0
   59.2200   33.2609   43.1056 H   0  0  0  0  0  0  0  0  0  0  0  0
   56.7003   35.1718   45.8190 H   0  0  0  0  0  0  0  0  0  0  0  0
   56.2109   33.7107   44.8579 H   0  0  0  0  0  0  0  0  0  0  0  0
   56.4363   33.4133   47.4031 H   0  0  0  0  0  0  0  0  0  0  0  0
   57.3024   32.2329   46.3271 H   0  0  0  0  0  0  0  0  0  0  0  0
   58.0453   32.4515   49.1355 H   0  0  0  0  0  0  0  0  0  0  0  0
   60.2995   32.7984   52.6204 H   0  0  0  0  0  0  0  0  0  0  0  0
   59.9910   34.3734   51.8136 H   0  0  0  0  0  0  0  0  0  0  0  0
   58.7233   33.1008   51.8136 H   0  0  0  0  0  0  0  0  0  0  0  0
   63.8103   33.1927   50.1317 H   0  0  0  0  0  0  0  0  0  0  0  0
   63.1556   32.5530   48.5861 H   0  0  0  0  0  0  0  0  0  0  0  0
   64.1735   34.0330   48.5861 H   0  0  0  0  0  0  0  0  0  0  0  0
   61.5499   35.1815   46.8565 H   0  0  0  0  0  0  0  0  0  0  0  0
   59.0307   36.0256   45.5202 H   0  0  0  0  0  0  0  0  0  0  0  0
   60.2131   34.8623   44.7637 H   0  0  0  0  0  0  0  0  0  0  0  0
   59.5793   30.8174   44.4118 H   0  0  0  0  0  0  0  0  0  0  0  0
   59.6262   28.5314   45.4047 H   0  0  0  0  0  0  0  0  0  0  0  0
  1  2  1  0
  2  3  1  0
  3  4  2  0
  4  5  1  0
  5  6  2  0
  6  7  1  0
  7  8  2  0
  8  9  1  0
  9 10  1  0
 10 11  2  0
 10 12  1  0
 12 13  1  0
 13 14  2  0
 14 15  1  0
 15 16  2  0
 16 17  1  0
 17 18  1  0
 18 19  1  0
 19 20  1  0
 20 21  1  0
 21 22  1  0
 22 23  2  0
 23 24  1  0
 24 25  1  0
 25 26  1  0
 24 27  2  0
 27 28  1  0
 28 29  1  0
 27 30  1  0
 30 31  2  0
 31 32  1  0
 16 33  1  0
 33 34  2  0
  8  3  1  0
 34 13  1  0
 32 19  1  0
 31 22  1  0
  1 35  1  0
  1 36  1  0
  1 37  1  0
  4 38  1  0
  5 39  1  0
  6 40  1  0
  7 41  1  0
 12 42  1  0
 14 43  1  0
 15 44  1  0
 17 45  1  0
 17 46  1  0
 18 47  1  0
 18 48  1  0
 20 49  1  0
 20 50  1  0
 21 51  1  0
 21 52  1  0
 23 53  1  0
 26 54  1  0
 26 55  1  0
 26 56  1  0
 29 57  1  0
 29 58  1  0
 29 59  1  0
 30 60  1  0
 32 61  1  0
 32 62  1  0
 33 63  1  0
 34 64  1  0
M  CHG  1   9  -1
M  END
>  <UniqueID>  (2) 
2

>  <SMILES>  (2) 
COc1ccccc1[N-]C(=O)Nc1ccc(CCN2CCc3cc(OC)c(OC)cc3C2)cc1

>  <Energy>  (2) 
77.81142968464101

>  <Genealogy>  (2) 
COc1ccccc1[N-]C(=O)Nc1ccc(CCN2CCc3cc(OC)c(OC)cc3C2)cc1 (protonated)
COc1ccccc1[N-]C(=O)Nc1ccc(CCN2CCc3cc(OC)c(OC)cc3C2)cc1 (3D coordinates assigned)
COc1ccccc1[N-]C(=O)Nc1ccc(CCN2CCc3cc(OC)c(OC)cc3C2)cc1 (nonaromatic ring conformer: 77.81142968464101 kcal/mol)

>  <smiles>  (2) 
COc1ccccc1NC(=O)Nc1ccc(CCN2CCc3cc(OC)c(OC)cc3C2)cc1

>  <score_type>  (2) 
oracle

>  <origin>  (2) 
adg

>  <m_score__min__energy>  (2) 
-11.52

>  <m_primary>  (2) 
energy

$$$$
2:0
     RDKit          3D

 43 47  0  0  0  0  0  0  0  0999 V2000
   58.5260   26.7876   44.3020 H   0  0  0  0  0  0  0  0  0  0  0  0
   57.7660   27.0520   45.0520 C   0  0  0  0  0  0  0  0  0  0  0  0
   57.1960   25.9680   45.8700 C   0  0  0  0  0  0  0  0  0  0  0  0
   57.9390   24.9930   46.4220 N   0  0  0  0  0  0  0  0  0  0  0  0
   57.0410   24.2780   47.1340 C   0  0  0  0  0  0  0  0  0  0  0  0
   57.3600   23.2570   47.7960 O   0  0  0  0  0  0  0  0  0  0  0  0
   55.7780   24.7500   47.0900 N   0  0  0  0  0  0  0  0  0  0  0  0
   55.8930   25.8270   46.2950 C   0  0  0  0  0  0  0  0  0  0  0  0
   54.8390   26.6870   46.0130 O   0  0  0  0  0  0  0  0  0  0  0  0
   58.0340   31.6790   46.0650 C   0  0  0  0  0  0  0  0  0  0  0  0
   56.2610   28.9850   44.7190 C   0  0  0  0  0  0  0  0  0  0  0  0
   55.4165   28.4933   44.2140 H   0  0  0  0  0  0  0  0  0  0  0  0
   56.3370   30.3080   45.0020 N   0  0  0  0  0  0  0  0  0  0  0  0
   57.4980   30.5130   45.6040 N   0  0  0  0  0  0  0  0  0  0  0  0
   57.4160   28.3400   45.1650 C   0  0  0  0  0  0  0  0  0  0  0  0
   57.4260   32.8290   45.9780 N   0  0  0  0  0  0  0  0  0  0  0  0
   57.7080   33.8900   45.0170 C   0  0  0  0  0  0  0  0  0  0  0  0
   56.7638   34.4442   45.1238 H   0  0  0  0  0  0  0  0  0  0  0  0
   59.1810   34.2490   44.9670 C   0  0  0  0  0  0  0  0  0  0  0  0
   59.4877   35.2914   44.7956 H   0  0  0  0  0  0  0  0  0  0  0  0
   60.0398   34.1071   45.6396 H   0  0  0  0  0  0  0  0  0  0  0  0
   58.5540   33.4450   43.8380 C   0  0  0  0  0  0  0  0  0  0  0  0
   58.4069   33.9058   42.8501 H   0  0  0  0  0  0  0  0  0  0  0  0
   58.7709   32.4806   43.3554 H   0  0  0  0  0  0  0  0  0  0  0  0
   59.2690   31.6280   46.6360 N   0  0  0  0  0  0  0  0  0  0  0  0
   59.9470   30.4430   46.7530 C   0  0  0  0  0  0  0  0  0  0  0  0
   61.1370   30.3980   47.2770 N   0  0  0  0  0  0  0  0  0  0  0  0
   61.7280   31.3650   48.1620 C   0  0  0  0  0  0  0  0  0  0  0  0
   62.2930   32.5210   47.6130 C   0  0  0  0  0  0  0  0  0  0  0  0
   62.2556   32.6830   46.5256 H   0  0  0  0  0  0  0  0  0  0  0  0
   62.9040   33.4710   48.4340 C   0  0  0  0  0  0  0  0  0  0  0  0
   63.3362   34.3800   47.9903 H   0  0  0  0  0  0  0  0  0  0  0  0
   62.9700   33.2730   49.8220 C   0  0  0  0  0  0  0  0  0  0  0  0
   63.6480   34.2860   50.7000 C   0  0  0  0  0  0  0  0  0  0  0  0
   63.4763   34.0295   51.7558 H   0  0  0  0  0  0  0  0  0  0  0  0
   64.7285   34.2856   50.4935 H   0  0  0  0  0  0  0  0  0  0  0  0
   63.2357   35.2847   50.4935 H   0  0  0  0  0  0  0  0  0  0  0  0
   62.4460   32.0900   50.3730 C   0  0  0  0  0  0  0  0  0  0  0  0
   62.5380   31.8470   51.7400 O   0  0  0  0  0  0  0  0  0  0  0  0
   61.8330   31.1410   49.5470 C   0  0  0  0  0  0  0  0  0  0  0  0
   61.4310   30.2146   49.9831 H   0  0  0  0  0  0  0  0  0  0  0  0
   59.3930   29.2940   46.2740 N   0  0  0  0  0  0  0  0  0  0  0  0
   58.1640   29.3600   45.7080 C   0  0  0  0  0  0  0  0  0  0  0  0
  1  2  1  0
  2  3  1  0
  3  4  1  0
  4  5  1  0
  5  6  2  0
  5  7  1  0
  7  8  1  0
  8  9  1  0
  2 10  2  0
 10 11  1  0
 11 12  1  0
 11 13  2  0
 13 14  1  0
 14 15  1  0
 15 16  2  0
 16 17  1  0
 17 18  1  0
 17 19  1  0
 19 20  1  0
 19 21  1  0
 19 22  1  0
 22 23  1  0
 22 24  1  0
 15 25  1  0
 25 26  1  0
 26 27  2  3
 27 28  1  0
 28 29  2  0
 29 30  1  0
 29 31  1  0
 31 32  1  0
 31 33  2  0
 33 34  1  0
 34 35  1  0
 34 36  1  0
 34 37  1  0
 33 38  1  0
 38 39  1  0
 38 40  2  0
 40 41  1  0
 26 42  1  0
 42 43  2  0
  8  3  2  0
 43 10  1  0
 43 14  1  0
 22 17  1  0
 40 28  1  0
M  CHG  5   4  -1   7  -1   9  -1  25  -1  39  -1
M  END
>  <UniqueID>  (3) 
3

>  <SMILES>  (3) 
Cc1ccc(N=c2nc3/c(=C/c4[n-]c(=O)[n-]c4[O-])cnn3/c(=N\C3CC3)[n-]2)cc1[O-]

>  <Energy>  (3) 
395.59266462053114

>  <Genealogy>  (3) 
Cc1ccc(N=c2nc3c(=Cc4[n-]c(=O)[n-]c4[O-])cnn3c(=NC3CC3)[n-]2)cc1[O-] (protonated)
Cc1ccc(N=c2nc3/c(=C/c4[n-]c(=O)[n-]c4[O-])cnn3/c(=N\C3CC3)[n-]2)cc1[O-] (cis-trans isomerization)
Cc1ccc(N=c2nc3/c(=C/c4[n-]c(=O)[n-]c4[O-])cnn3/c(=N\C3CC3)[n-]2)cc1[O-] (3D coordinates assigned)
Cc1ccc(N=c2nc3/c(=C/c4[n-]c(=O)[n-]c4[O-])cnn3/c(=N\C3CC3)[n-]2)cc1[O-] (nonaromatic ring conformer: 395.59266462053114 kcal/mol)

>  <smiles>  (3) 
Cc1ccc(N=c2nc3c(=Cc4[nH]c(=O)[nH]c4O)cnn3c(=NC3CC3)[nH]2)cc1O

>  <score_type>  (3) 
oracle

>  <origin>  (3) 
adg

>  <m_score__min__energy>  (3) 
-18.329999999999998

>  <m_primary>  (3) 
energy

$$$$
3:0
     RDKit          3D

 51 53  0  0  0  0  0  0  0  0999 V2000
   65.5740   32.9260   49.7990 C   0  0  0  0  0  0  0  0  0  0  0  0
   64.1850   33.3380   49.6310 N   0  0  0  0  0  0  0  0  0  0  0  0
   63.5840   33.4520   48.3330 C   0  0  0  0  0  0  0  0  0  0  0  0
   64.2760   33.2210   47.3020 O   0  0  0  0  0  0  0  0  0  0  0  0
   62.1640   33.8390   48.1930 C   0  0  0  0  0  0  0  0  0  0  0  0
   61.5410   33.8720   46.9330 C   0  0  0  0  0  0  0  0  0  0  0  0
   60.2000   34.2550   46.8380 C   0  0  0  0  0  0  0  0  0  0  0  0
   59.4050   34.3620   45.2350 S   0  0  0  0  0  0  0  0  0  0  0  0
   58.8140   32.6720   45.2990 C   0  0  0  0  0  0  0  0  0  0  0  0
   59.2270   31.8260   46.3340 C   0  0  0  0  0  0  0  0  0  0  0  0
   58.7860   30.5020   46.3760 C   0  0  0  0  0  0  0  0  0  0  0  0
   57.9140   30.0150   45.3850 C   0  0  0  0  0  0  0  0  0  0  0  0
   57.4430   28.6600   45.3990 N   0  0  0  0  0  0  0  0  0  0  0  0
   56.0740   28.2530   45.2620 C   0  0  0  0  0  0  0  0  0  0  0  0
   55.2940   28.9560   44.5700 O   0  0  0  0  0  0  0  0  0  0  0  0
   55.5690   27.0700   45.8960 N   0  0  0  0  0  0  0  0  0  0  0  0
   55.9620   25.7270   45.5820 C   0  0  0  0  0  0  0  0  0  0  0  0
   55.0590   24.6570   45.6750 C   0  0  0  0  0  0  0  0  0  0  0  0
   55.4650   23.3600   45.3510 C   0  0  0  0  0  0  0  0  0  0  0  0
   56.7800   23.1050   44.9150 C   0  0  0  0  0  0  0  0  0  0  0  0
   57.1970   21.7610   44.5650 N   0  0  0  0  0  0  0  0  0  0  0  0
   57.3570   21.3780   43.1580 C   0  0  0  0  0  0  0  0  0  0  0  0
   57.3770   20.7410   45.6030 C   0  0  0  0  0  0  0  0  0  0  0  0
   57.6740   24.1890   44.8110 C   0  0  0  0  0  0  0  0  0  0  0  0
   57.2640   25.4860   45.1330 C   0  0  0  0  0  0  0  0  0  0  0  0
   57.5240   30.8590   44.3380 C   0  0  0  0  0  0  0  0  0  0  0  0
   57.9660   32.1850   44.2980 C   0  0  0  0  0  0  0  0  0  0  0  0
   59.4920   34.5930   47.9930 C   0  0  0  0  0  0  0  0  0  0  0  0
   60.1410   34.5500   49.2280 C   0  0  0  0  0  0  0  0  0  0  0  0
   61.4460   34.1810   49.3000 N   0  0  0  0  0  0  0  0  0  0  0  0
   65.8087   32.8564   50.8714 H   0  0  0  0  0  0  0  0  0  0  0  0
   65.7250   31.9444   49.3261 H   0  0  0  0  0  0  0  0  0  0  0  0
   66.2359   33.6665   49.3261 H   0  0  0  0  0  0  0  0  0  0  0  0
   63.6190   33.5270   50.4880 H   0  0  0  0  0  0  0  0  0  0  0  0
   62.1046   33.5985   46.0288 H   0  0  0  0  0  0  0  0  0  0  0  0
   59.9008   32.2049   47.1165 H   0  0  0  0  0  0  0  0  0  0  0  0
   59.1212   29.8377   47.1861 H   0  0  0  0  0  0  0  0  0  0  0  0
   54.0258   24.8404   46.0048 H   0  0  0  0  0  0  0  0  0  0  0  0
   54.7498   22.5287   45.4373 H   0  0  0  0  0  0  0  0  0  0  0  0
   57.7804   20.3644   43.0998 H   0  0  0  0  0  0  0  0  0  0  0  0
   56.3765   21.3950   42.6596 H   0  0  0  0  0  0  0  0  0  0  0  0
   58.0340   22.0874   42.6596 H   0  0  0  0  0  0  0  0  0  0  0  0
   57.2944   21.2089   46.5951 H   0  0  0  0  0  0  0  0  0  0  0  0
   56.6013   19.9684   45.4963 H   0  0  0  0  0  0  0  0  0  0  0  0
   58.3703   20.2806   45.4963 H   0  0  0  0  0  0  0  0  0  0  0  0
   58.7058   24.0128   44.4728 H   0  0  0  0  0  0  0  0  0  0  0  0
   57.9707   26.3229   45.0324 H   0  0  0  0  0  0  0  0  0  0  0  0
   56.8667   30.4770   43.5430 H   0  0  0  0  0  0  0  0  0  0  0  0
   57.6468   32.8460   43.4788 H   0  0  0  0  0  0  0  0  0  0  0  0
   58.4347   34.8898   47.9304 H   0  0  0  0  0  0  0  0  0  0  0  0
   59.5943   34.8155   50.1449 H   0  0  0  0  0  0  0  0  0  0  0  0
  1  2  1  0
  2  3  1  0
  3  4  2  0
  3  5  1  0
  5  6  2  0
  6  7  1  0
  7  8  1  0
  8  9  1  0
  9 10  2  0
 10 11  1  0
 11 12  2  0
 12 13  1  0
 13 14  1  0
 14 15  2  0
 14 16  1  0
 16 17  1  0
 17 18  2  0
 18 19  1  0
 19 20  2  0
 20 21  1  0
 21 22  1  0
 21 23  1  0
 20 24  1  0
 24 25  2  0
 12 26  1  0
 26 27  2  0
  7 28  2  0
 28 29  1  0
 29 30  2  0
 30  5  1  0
 27  9  1  0
 25 17  1  0
  1 31  1  0
  1 32  1  0
  1 33  1  0
  2 34  1  0
  6 35  1  0
 10 36  1  0
 11 37  1  0
 18 38  1  0
 19 39  1  0
 22 40  1  0
 22 41  1  0
 22 42  1  0
 23 43  1  0
 23 44  1  0
 23 45  1  0
 24 46  1  0
 25 47  1  0
 26 48  1  0
 27 49  1  0
 28 50  1  0
 29 51  1  0
M  CHG  2  13  -1  16  -1
M  END
>  <UniqueID>  (4) 
4

>  <SMILES>  (4) 
CNC(=O)c1cc(Sc2ccc([N-]C(=O)[N-]c3ccc(N(C)C)cc3)cc2)ccn1

>  <Energy>  (4) 
50.13128275321989

>  <Genealogy>  (4) 
CNC(=O)c1cc(Sc2ccc([N-]C(=O)[N-]c3ccc(N(C)C)cc3)cc2)ccn1 (protonated)
CNC(=O)c1cc(Sc2ccc([N-]C(=O)[N-]c3ccc(N(C)C)cc3)cc2)ccn1 (3D coordinates assigned)
CNC(=O)c1cc(Sc2ccc([N-]C(=O)[N-]c3ccc(N(C)C)cc3)cc2)ccn1 (optimized conformer: 50.13128275321989 kcal/mol)

>  <smiles>  (4) 
CNC(=O)c1cc(Sc2ccc(NC(=O)Nc3ccc(N(C)C)cc3)cc2)ccn1

>  <score_type>  (4) 
oracle

>  <origin>  (4) 
adg

>  <m_score__min__energy>  (4) 
-11.74

>  <m_primary>  (4) 
energy

$$$$
4:0
     RDKit          3D

 35 37  0  0  0  0  0  0  0  0999 V2000
   60.1440   31.8580   48.3875 H   0  0  0  0  0  0  0  0  0  0  0  0
   59.8200   32.4150   47.4960 C   0  0  0  0  0  0  0  0  0  0  0  0
   58.5300   32.2320   46.9900 C   0  0  0  0  0  0  0  0  0  0  0  0
   57.8392   31.5369   47.4897 H   0  0  0  0  0  0  0  0  0  0  0  0
   58.1120   32.9320   45.8460 C   0  0  0  0  0  0  0  0  0  0  0  0
   56.7230   32.7410   45.2940 C   0  0  0  0  0  0  0  0  0  0  0  0
   56.4620   33.6066   44.6674 H   0  0  0  0  0  0  0  0  0  0  0  0
   56.0194   32.6502   46.1346 H   0  0  0  0  0  0  0  0  0  0  0  0
   56.6470   31.5240   44.4860 N   0  0  0  0  0  0  0  0  0  0  0  0
   57.0610   30.3490   44.8570 C   0  0  0  0  0  0  0  0  0  0  0  0
   56.1960   29.3600   45.2010 N   0  0  0  0  0  0  0  0  0  0  0  0
   57.0280   28.3450   45.5000 C   0  0  0  0  0  0  0  0  0  0  0  0
   56.7140   27.0580   45.9000 C   0  0  0  0  0  0  0  0  0  0  0  0
   55.5080   26.7120   46.0270 O   0  0  0  0  0  0  0  0  0  0  0  0
   57.7460   26.1800   46.1450 N   0  0  0  0  0  0  0  0  0  0  0  0
   57.4490   24.7930   46.5400 C   0  0  0  0  0  0  0  0  0  0  0  0
   57.4333   24.7197   47.6374 H   0  0  0  0  0  0  0  0  0  0  0  0
   56.4677   24.4996   46.1388 H   0  0  0  0  0  0  0  0  0  0  0  0
   58.2242   24.1235   46.1388 H   0  0  0  0  0  0  0  0  0  0  0  0
   59.0600   26.5750   45.9460 C   0  0  0  0  0  0  0  0  0  0  0  0
   59.9940   25.7430   46.1180 O   0  0  0  0  0  0  0  0  0  0  0  0
   59.3570   27.8660   45.5570 N   0  0  0  0  0  0  0  0  0  0  0  0
   60.7360   28.3220   45.3360 C   0  0  0  0  0  0  0  0  0  0  0  0
   61.2283   28.4848   46.3061 H   0  0  0  0  0  0  0  0  0  0  0  0
   61.2881   27.5586   44.7682 H   0  0  0  0  0  0  0  0  0  0  0  0
   60.7241   29.2641   44.7682 H   0  0  0  0  0  0  0  0  0  0  0  0
   58.3160   28.7160   45.3410 C   0  0  0  0  0  0  0  0  0  0  0  0
   58.3710   29.9920   44.9320 N   0  0  0  0  0  0  0  0  0  0  0  0
   59.2190   30.5630   44.7230 H   0  0  0  0  0  0  0  0  0  0  0  0
   58.9970   33.8330   45.2300 C   0  0  0  0  0  0  0  0  0  0  0  0
   58.6738   34.3984   44.3436 H   0  0  0  0  0  0  0  0  0  0  0  0
   60.2870   34.0140   45.7390 C   0  0  0  0  0  0  0  0  0  0  0  0
   60.9777   34.7153   45.2480 H   0  0  0  0  0  0  0  0  0  0  0  0
   60.7000   33.3050   46.8710 C   0  0  0  0  0  0  0  0  0  0  0  0
   62.3180   33.5330   47.5080 Cl  0  0  0  0  0  0  0  0  0  0  0  0
  1  2  1  0
  2  3  2  0
  3  4  1  0
  3  5  1  0
  5  6  1  0
  6  7  1  0
  6  8  1  0
  6  9  1  0
  9 10  2  0
 10 11  1  0
 11 12  1  0
 12 13  1  0
 13 14  2  0
 13 15  1  0
 15 16  1  0
 16 17  1  0
 16 18  1  0
 16 19  1  0
 15 20  1  0
 20 21  2  0
 20 22  1  0
 22 23  1  0
 23 24  1  0
 23 25  1  0
 23 26  1  0
 22 27  1  0
 27 28  1  0
 28 29  1  0
  5 30  2  0
 30 31  1  0
 30 32  1  0
 32 33  1  0
 32 34  2  0
 34 35  1  0
 34  2  1  0
 28 10  1  0
 27 12  2  0
M  CHG  1  11  -1
M  END
>  <UniqueID>  (5) 
5

>  <SMILES>  (5) 
Cn1c(=O)c2[n-]/c(=N/Cc3ccc(Cl)cc3)[nH]c2n(C)c1=O

>  <Energy>  (5) 
81.37945935737729

>  <Genealogy>  (5) 
Cn1c(=O)c2[n-]c(=NCc3ccc(Cl)cc3)[nH]c2n(C)c1=O (protonated)
Cn1c(=O)c2[n-]/c(=N/Cc3ccc(Cl)cc3)[nH]c2n(C)c1=O (cis-trans isomerization)
Cn1c(=O)c2[n-]/c(=N/Cc3ccc(Cl)cc3)[nH]c2n(C)c1=O (3D coordinates assigned)
Cn1c(=O)c2[n-]/c(=N/Cc3ccc(Cl)cc3)[nH]c2n(C)c1=O (optimized conformer: 81.37945935737729 kcal/mol)

>  <smiles>  (5) 
Cn1c(=O)c2[nH]c(=NCc3ccc(Cl)cc3)[nH]c2n(C)c1=O

>  <score_type>  (5) 
oracle

>  <origin>  (5) 
adg

>  <m_score__min__energy>  (5) 
-9.5800000000000001

>  <m_primary>  (5) 
energy

$$$$
5:0
     RDKit          3D

 54 56  0  0  0  0  0  0  0  0999 V2000
   63.5910   32.9630   46.9490 C   0  0  0  0  0  0  0  0  0  0  0  0
   62.1930   33.4480   47.1620 C   0  0  0  0  0  0  0  0  0  0  0  0
   61.6180   33.4240   48.4370 C   0  0  0  0  0  0  0  0  0  0  0  0
   60.3140   33.9080   48.5910 C   0  0  0  0  0  0  0  0  0  0  0  0
   59.6490   33.8830   49.9310 C   0  0  0  0  0  0  0  0  0  0  0  0
   59.6390   34.3800   47.5090 N   0  0  0  0  0  0  0  0  0  0  0  0
   60.2150   34.4020   46.2800 C   0  0  0  0  0  0  0  0  0  0  0  0
   59.2940   35.0090   44.8690 S   0  0  0  0  0  0  0  0  0  0  0  0
   57.7360   34.1590   45.3170 C   0  0  0  0  0  0  0  0  0  0  0  0
   57.9080   32.6570   45.3120 C   0  0  0  0  0  0  0  0  0  0  0  0
   58.0370   31.9880   46.5400 C   0  0  0  0  0  0  0  0  0  0  0  0
   58.2390   30.6090   46.5860 C   0  0  0  0  0  0  0  0  0  0  0  0
   58.3000   29.8560   45.4030 C   0  0  0  0  0  0  0  0  0  0  0  0
   58.5130   28.3870   45.4430 C   0  0  0  0  0  0  0  0  0  0  0  0
   59.6720   27.9340   45.6630 O   0  0  0  0  0  0  0  0  0  0  0  0
   57.4310   27.4770   45.1830 N   0  0  0  0  0  0  0  0  0  0  0  0
   57.4230   26.0950   45.5880 C   0  0  0  0  0  0  0  0  0  0  0  0
   58.4820   25.2260   45.2680 C   0  0  0  0  0  0  0  0  0  0  0  0
   58.4470   23.8900   45.6780 C   0  0  0  0  0  0  0  0  0  0  0  0
   57.3700   23.4020   46.4280 C   0  0  0  0  0  0  0  0  0  0  0  0
   57.3760   22.0210   46.8160 N   0  0  0  0  0  0  0  0  0  0  0  0
   56.9980   21.4050   48.3910 S   0  0  0  0  0  0  0  0  0  0  0  0
   55.2570   21.0510   48.5050 C   0  0  0  0  0  0  0  0  0  0  0  0
   57.8040   20.1690   48.6700 O   0  0  0  0  0  0  0  0  0  0  0  0
   57.3460   22.4490   49.4130 O   0  0  0  0  0  0  0  0  0  0  0  0
   56.3260   24.2760   46.7750 C   0  0  0  0  0  0  0  0  0  0  0  0
   56.3560   25.6110   46.3600 C   0  0  0  0  0  0  0  0  0  0  0  0
   58.1740   30.5200   44.1690 C   0  0  0  0  0  0  0  0  0  0  0  0
   57.9860   31.9120   44.1090 C   0  0  0  0  0  0  0  0  0  0  0  0
   57.8200   32.5690   42.7610 C   0  0  0  0  0  0  0  0  0  0  0  0
   61.4850   33.9490   46.1150 N   0  0  0  0  0  0  0  0  0  0  0  0
   64.0735   32.7956   47.9233 H   0  0  0  0  0  0  0  0  0  0  0  0
   63.5697   32.0197   46.3835 H   0  0  0  0  0  0  0  0  0  0  0  0
   64.1585   33.7168   46.3835 H   0  0  0  0  0  0  0  0  0  0  0  0
   62.1783   33.0334   49.2993 H   0  0  0  0  0  0  0  0  0  0  0  0
   60.4142   33.9118   50.7207 H   0  0  0  0  0  0  0  0  0  0  0  0
   58.9882   34.7569   50.0288 H   0  0  0  0  0  0  0  0  0  0  0  0
   59.0557   32.9619   50.0288 H   0  0  0  0  0  0  0  0  0  0  0  0
   57.4287   34.4810   46.3229 H   0  0  0  0  0  0  0  0  0  0  0  0
   56.9703   34.4230   44.5727 H   0  0  0  0  0  0  0  0  0  0  0  0
   57.9779   32.5594   47.4781 H   0  0  0  0  0  0  0  0  0  0  0  0
   58.3516   30.1068   47.5582 H   0  0  0  0  0  0  0  0  0  0  0  0
   56.6510   27.8070   44.5700 H   0  0  0  0  0  0  0  0  0  0  0  0
   59.3417   25.5996   44.6924 H   0  0  0  0  0  0  0  0  0  0  0  0
   59.2734   23.2157   45.4089 H   0  0  0  0  0  0  0  0  0  0  0  0
   54.9635   20.9913   49.5634 H   0  0  0  0  0  0  0  0  0  0  0  0
   54.6869   21.8516   48.0110 H   0  0  0  0  0  0  0  0  0  0  0  0
   55.0448   20.0913   48.0110 H   0  0  0  0  0  0  0  0  0  0  0  0
   55.4812   23.9084   47.3759 H   0  0  0  0  0  0  0  0  0  0  0  0
   55.5357   26.2878   46.6413 H   0  0  0  0  0  0  0  0  0  0  0  0
   58.2234   29.9403   43.2355 H   0  0  0  0  0  0  0  0  0  0  0  0
   57.5527   33.6270   42.8992 H   0  0  0  0  0  0  0  0  0  0  0  0
   58.7639   32.4995   42.2005 H   0  0  0  0  0  0  0  0  0  0  0  0
   57.0224   32.0595   42.2005 H   0  0  0  0  0  0  0  0  0  0  0  0
  1  2  1  0
  2  3  2  0
  3  4  1  0
  4  5  1  0
  4  6  2  0
  6  7  1  0
  7  8  1  0
  8  9  1  0
  9 10  1  0
 10 11  2  0
 11 12  1  0
 12 13  2  0
 13 14  1  0
 14 15  2  0
 14 16  1  0
 16 17  1  0
 17 18  2  0
 18 19  1  0
 19 20  2  0
 20 21  1  0
 21 22  1  0
 22 23  1  0
 22 24  2  0
 22 25  2  0
 20 26  1  0
 26 27  2  0
 13 28  1  0
 28 29  2  0
 29 30  1  0
  7 31  2  0
 31  2  1  0
 29 10  1  0
 27 17  1  0
  1 32  1  0
  1 33  1  0
  1 34  1  0
  3 35  1  0
  5 36  1  0
  5 37  1  0
  5 38  1  0
  9 39  1  0
  9 40  1  0
 11 41  1  0
 12 42  1  0
 16 43  1  0
 18 44  1  0
 19 45  1  0
 23 46  1  0
 23 47  1  0
 23 48  1  0
 26 49  1  0
 27 50  1  0
 28 51  1  0
 30 52  1  0
 30 53  1  0
 30 54  1  0
M  CHG  1  21  -1
M  END
>  <UniqueID>  (6) 
6

>  <SMILES>  (6) 
Cc1cc(C)nc(SCc2ccc(C(=O)Nc3ccc([N-]S(C)(=O)=O)cc3)cc2C)n1

>  <Energy>  (6) 
54.63710714290328

>  <Genealogy>  (6) 
Cc1cc(C)nc(SCc2ccc(C(=O)Nc3ccc([N-]S(C)(=O)=O)cc3)cc2C)n1 (protonated)
Cc1cc(C)nc(SCc2ccc(C(=O)Nc3ccc([N-]S(C)(=O)=O)cc3)cc2C)n1 (3D coordinates assigned)
Cc1cc(C)nc(SCc2ccc(C(=O)Nc3ccc([N-]S(C)(=O)=O)cc3)cc2C)n1 (optimized conformer: 54.63710714290328 kcal/mol)

>  <smiles>  (6) 
Cc1cc(C)nc(SCc2ccc(C(=O)Nc3ccc(NS(C)(=O)=O)cc3)cc2C)n1

>  <score_type>  (6) 
oracle

>  <origin>  (6) 
adg

>  <m_score__min__energy>  (6) 
-11.039999999999999

>  <m_primary>  (6) 
energy

$$$$
6:0
     RDKit          3D

 53 57  0  0  0  0  0  0  0  0999 V2000
   55.8540   31.1900   44.4730 O   0  0  0  0  0  0  0  0  0  0  0  0
   57.0300   30.9640   44.8620 C   0  0  0  0  0  0  0  0  0  0  0  0
   58.1080   31.9550   44.5100 C   0  0  0  0  0  0  0  0  0  0  0  0
   57.6880   33.6380   45.0980 S   0  0  0  0  0  0  0  0  0  0  0  0
   58.5240   33.4570   46.6820 C   0  0  0  0  0  0  0  0  0  0  0  0
   57.8600   32.9460   47.7580 N   0  0  0  0  0  0  0  0  0  0  0  0
   58.5070   32.7030   48.9410 C   0  0  0  0  0  0  0  0  0  0  0  0
   57.8710   32.2060   49.9020 O   0  0  0  0  0  0  0  0  0  0  0  0
   59.8480   32.9660   49.0700 N   0  0  0  0  0  0  0  0  0  0  0  0
   60.5030   33.5010   48.0140 C   0  0  0  0  0  0  0  0  0  0  0  0
   59.8760   33.7500   46.8370 C   0  0  0  0  0  0  0  0  0  0  0  0
   60.8650   34.2000   45.9870 C   0  0  0  0  0  0  0  0  0  0  0  0
   62.0450   34.2020   46.6660 N   0  0  0  0  0  0  0  0  0  0  0  0
   61.8220   33.7720   47.9040 N   0  0  0  0  0  0  0  0  0  0  0  0
   62.8580   33.6240   48.8920 C   0  0  0  0  0  0  0  0  0  0  0  0
   62.7900   34.2970   50.1290 C   0  0  0  0  0  0  0  0  0  0  0  0
   63.8310   34.1810   51.0590 C   0  0  0  0  0  0  0  0  0  0  0  0
   64.9480   33.3990   50.7590 C   0  0  0  0  0  0  0  0  0  0  0  0
   65.0290   32.7320   49.5300 C   0  0  0  0  0  0  0  0  0  0  0  0
   63.9890   32.8390   48.6040 C   0  0  0  0  0  0  0  0  0  0  0  0
   57.2850   29.7850   45.6530 N   0  0  0  0  0  0  0  0  0  0  0  0
   58.5170   28.9880   45.6500 C   0  0  1  0  0  0  0  0  0  0  0  0
   59.4530   29.4400   46.7600 C   0  0  0  0  0  0  0  0  0  0  0  0
   59.1690   29.1650   48.1120 C   0  0  0  0  0  0  0  0  0  0  0  0
   60.0500   29.5840   49.1130 C   0  0  0  0  0  0  0  0  0  0  0  0
   61.2260   30.2750   48.7900 C   0  0  0  0  0  0  0  0  0  0  0  0
   61.5200   30.5470   47.4520 C   0  0  0  0  0  0  0  0  0  0  0  0
   60.6460   30.1220   46.4440 C   0  0  0  0  0  0  0  0  0  0  0  0
   58.1980   27.5080   45.7900 C   0  0  0  0  0  0  0  0  0  0  0  0
   59.2410   26.5660   45.8190 C   0  0  0  0  0  0  0  0  0  0  0  0
   58.9660   25.2070   46.0080 C   0  0  0  0  0  0  0  0  0  0  0  0
   57.6480   24.7720   46.1740 C   0  0  0  0  0  0  0  0  0  0  0  0
   57.3060   23.0590   46.4390 Cl  0  0  0  0  0  0  0  0  0  0  0  0
   56.6030   25.7010   46.1500 C   0  0  0  0  0  0  0  0  0  0  0  0
   56.8730   27.0630   45.9590 C   0  0  0  0  0  0  0  0  0  0  0  0
   59.0519   31.6379   44.9775 H   0  0  0  0  0  0  0  0  0  0  0  0
   58.2053   31.9856   43.4147 H   0  0  0  0  0  0  0  0  0  0  0  0
   60.7242   34.5051   44.9396 H   0  0  0  0  0  0  0  0  0  0  0  0
   61.9131   34.9176   50.3655 H   0  0  0  0  0  0  0  0  0  0  0  0
   63.7685   34.7051   52.0241 H   0  0  0  0  0  0  0  0  0  0  0  0
   65.7657   33.3065   51.4889 H   0  0  0  0  0  0  0  0  0  0  0  0
   65.9137   32.1225   49.2936 H   0  0  0  0  0  0  0  0  0  0  0  0
   64.0548   32.3063   47.6439 H   0  0  0  0  0  0  0  0  0  0  0  0
   59.0244   29.1435   44.6865 H   0  0  0  0  0  0  0  0  0  0  0  0
   58.2523   28.6195   48.3805 H   0  0  0  0  0  0  0  0  0  0  0  0
   59.8178   29.3690   50.1665 H   0  0  0  0  0  0  0  0  0  0  0  0
   61.9128   30.6009   49.5851 H   0  0  0  0  0  0  0  0  0  0  0  0
   62.4374   31.0946   47.1903 H   0  0  0  0  0  0  0  0  0  0  0  0
   60.8935   30.3229   45.3912 H   0  0  0  0  0  0  0  0  0  0  0  0
   60.2814   26.8997   45.6921 H   0  0  0  0  0  0  0  0  0  0  0  0
   59.7900   24.4785   46.0260 H   0  0  0  0  0  0  0  0  0  0  0  0
   55.5650   25.3615   46.2815 H   0  0  0  0  0  0  0  0  0  0  0  0
   56.0457   27.7877   45.9410 H   0  0  0  0  0  0  0  0  0  0  0  0
  1  2  2  0
  2  3  1  0
  3  4  1  0
  4  5  1  0
  5  6  1  0
  6  7  1  0
  7  8  2  0
  7  9  1  0
  9 10  2  0
 10 11  1  0
 11 12  1  0
 12 13  2  0
 13 14  1  0
 14 15  1  0
 15 16  2  0
 16 17  1  0
 17 18  2  0
 18 19  1  0
 19 20  2  0
  2 21  1  0
 21 22  1  0
 22 23  1  0
 23 24  2  0
 24 25  1  0
 25 26  2  0
 26 27  1  0
 27 28  2  0
 22 29  1  0
 29 30  2  0
 30 31  1  0
 31 32  2  0
 32 33  1  0
 32 34  1  0
 34 35  2  0
 11  5  2  0
 20 15  1  0
 28 23  1  0
 35 29  1  0
 14 10  1  0
  3 36  1  0
  3 37  1  0
 12 38  1  0
 16 39  1  0
 17 40  1  0
 18 41  1  0
 19 42  1  0
 20 43  1  0
 22 44  1  6
 24 45  1  0
 25 46  1  0
 26 47  1  0
 27 48  1  0
 28 49  1  0
 30 50  1  0
 31 51  1  0
 34 52  1  0
 35 53  1  0
M  CHG  2   6  -1  21  -1
M  END
>  <UniqueID>  (7) 
7

>  <SMILES>  (7) 
O=C(CSc1[n-]c(=O)nc2c1cnn2-c1ccccc1)[N-][C@@H](c1ccccc1)c1ccc(Cl)cc1

>  <Energy>  (7) 
95.41389701917882

>  <Genealogy>  (7) 
O=C(CSc1[n-]c(=O)nc2c1cnn2-c1ccccc1)[N-]C(c1ccccc1)c1ccc(Cl)cc1 (protonated)
O=C(CSc1[n-]c(=O)nc2c1cnn2-c1ccccc1)[N-][C@@H](c1ccccc1)c1ccc(Cl)cc1 (chirality)
O=C(CSc1[n-]c(=O)nc2c1cnn2-c1ccccc1)[N-][C@@H](c1ccccc1)c1ccc(Cl)cc1 (3D coordinates assigned)
O=C(CSc1[n-]c(=O)nc2c1cnn2-c1ccccc1)[N-][C@@H](c1ccccc1)c1ccc(Cl)cc1 (optimized conformer: 95.41389701917882 kcal/mol)

>  <smiles>  (7) 
O=C(CSc1[nH]c(=O)nc2c1cnn2-c1ccccc1)NC(c1ccccc1)c1ccc(Cl)cc1

>  <score_type>  (7) 
oracle

>  <origin>  (7) 
adg

>  <m_score__min__energy>  (7) 
-11.81

>  <m_primary>  (7) 
energy

$$$$
7:0
     RDKit          3D

 58 62  0  0  0  0  0  0  0  0999 V2000
   60.4544   35.7890   46.2521 H   0  0  0  0  0  0  0  0  0  0  0  0
   59.6630   35.0250   46.2490 C   0  0  0  0  0  0  0  0  0  0  0  0
   59.1110   34.5950   45.0350 C   0  0  0  0  0  0  0  0  0  0  0  0
   59.4773   35.0195   44.0887 H   0  0  0  0  0  0  0  0  0  0  0  0
   58.0860   33.6190   45.0160 C   0  0  0  0  0  0  0  0  0  0  0  0
   57.4600   33.1240   43.8480 O   0  0  0  0  0  0  0  0  0  0  0  0
   57.4450   31.8080   43.2550 C   0  0  0  0  0  0  0  0  0  0  0  0
   57.3251   32.1433   42.2142 H   0  0  0  0  0  0  0  0  0  0  0  0
   58.5290   30.8850   43.7100 C   0  0  0  0  0  0  0  0  0  0  0  0
   59.2430   31.3694   44.3923 H   0  0  0  0  0  0  0  0  0  0  0  0
   59.2009   30.4769   42.9406 H   0  0  0  0  0  0  0  0  0  0  0  0
   57.6300   29.9340   44.4010 N   0  0  0  0  0  0  0  0  0  0  0  0
   57.7530   28.9130   45.3980 C   0  0  0  0  0  0  0  0  0  0  0  0
   58.0330   29.2420   46.6920 N   0  0  0  0  0  0  0  0  0  0  0  0
   58.3150   28.2860   47.6350 C   0  0  0  0  0  0  0  0  0  0  0  0
   58.6280   28.6670   48.8390 N   0  0  0  0  0  0  0  0  0  0  0  0
   59.2390   29.8990   49.2740 C   0  0  0  0  0  0  0  0  0  0  0  0
   60.2200   30.5690   48.5100 C   0  0  0  0  0  0  0  0  0  0  0  0
   60.5744   30.1213   47.5698 H   0  0  0  0  0  0  0  0  0  0  0  0
   60.7480   31.7960   48.9330 C   0  0  0  0  0  0  0  0  0  0  0  0
   61.8100   32.4470   48.1380 C   0  0  0  0  0  0  0  0  0  0  0  0
   61.6990   32.5250   46.8780 O   0  0  0  0  0  0  0  0  0  0  0  0
   62.9520   33.0090   48.8010 N   0  0  0  0  0  0  0  0  0  0  0  0
   62.8450   33.3180   49.7910 H   0  0  0  0  0  0  0  0  0  0  0  0
   64.1400   33.4570   48.0780 C   0  0  0  0  0  0  0  0  0  0  0  0
   64.9183   33.7505   48.7978 H   0  0  0  0  0  0  0  0  0  0  0  0
   64.5150   32.6385   47.4459 H   0  0  0  0  0  0  0  0  0  0  0  0
   63.8811   34.3193   47.4459 H   0  0  0  0  0  0  0  0  0  0  0  0
   60.2520   32.3930   50.1030 C   0  0  0  0  0  0  0  0  0  0  0  0
   60.6400   33.3703   50.4259 H   0  0  0  0  0  0  0  0  0  0  0  0
   59.2690   31.7520   50.8580 C   0  0  0  0  0  0  0  0  0  0  0  0
   58.8936   32.2231   51.7784 H   0  0  0  0  0  0  0  0  0  0  0  0
   58.7540   30.5060   50.4500 C   0  0  0  0  0  0  0  0  0  0  0  0
   57.7500   29.8460   51.1750 O   0  0  0  0  0  0  0  0  0  0  0  0
   56.8840   30.4790   52.1150 C   0  0  0  0  0  0  0  0  0  0  0  0
   57.2132   30.2384   53.1366 H   0  0  0  0  0  0  0  0  0  0  0  0
   56.9155   31.5685   51.9667 H   0  0  0  0  0  0  0  0  0  0  0  0
   55.8555   30.1183   51.9667 H   0  0  0  0  0  0  0  0  0  0  0  0
   58.2980   26.9640   47.2840 N   0  0  0  0  0  0  0  0  0  0  0  0
   57.9980   26.6340   46.0070 C   0  0  0  0  0  0  0  0  0  0  0  0
   57.7370   27.5620   45.0620 C   0  0  0  0  0  0  0  0  0  0  0  0
   57.6630   26.9880   43.8460 N   0  0  0  0  0  0  0  0  0  0  0  0
   57.8750   25.6710   44.1180 C   0  0  0  0  0  0  0  0  0  0  0  0
   57.8800   24.8857   43.3477 H   0  0  0  0  0  0  0  0  0  0  0  0
   58.0800   25.4260   45.4400 N   0  0  0  0  0  0  0  0  0  0  0  0
   58.5490   24.1850   46.0450 C   0  0  0  0  0  0  0  0  0  0  0  0
   58.5148   24.2755   47.1407 H   0  0  0  0  0  0  0  0  0  0  0  0
   57.9028   23.3542   45.7253 H   0  0  0  0  0  0  0  0  0  0  0  0
   59.5831   23.9892   45.7253 H   0  0  0  0  0  0  0  0  0  0  0  0
   56.5440   30.8120   43.9120 C   0  0  0  0  0  0  0  0  0  0  0  0
   55.9486   31.2484   44.7275 H   0  0  0  0  0  0  0  0  0  0  0  0
   55.7624   30.3506   43.2905 H   0  0  0  0  0  0  0  0  0  0  0  0
   57.6560   33.0770   46.2400 C   0  0  0  0  0  0  0  0  0  0  0  0
   56.8693   32.3082   46.2459 H   0  0  0  0  0  0  0  0  0  0  0  0
   58.2150   33.5020   47.4520 C   0  0  0  0  0  0  0  0  0  0  0  0
   57.8716   33.0628   48.4003 H   0  0  0  0  0  0  0  0  0  0  0  0
   59.2100   34.4850   47.4560 C   0  0  0  0  0  0  0  0  0  0  0  0
   59.7490   34.8980   48.6270 F   0  0  0  0  0  0  0  0  0  0  0  0
  1  2  1  0
  2  3  2  0
  3  4  1  0
  3  5  1  0
  5  6  1  0
  6  7  1  0
  7  8  1  0
  7  9  1  0
  9 10  1  0
  9 11  1  0
  9 12  1  0
 12 13  1  0
 13 14  2  0
 14 15  1  0
 15 16  2  0
 16 17  1  0
 17 18  2  0
 18 19  1  0
 18 20  1  0
 20 21  1  0
 21 22  2  0
 21 23  1  0
 23 24  1  0
 23 25  1  0
 25 26  1  0
 25 27  1  0
 25 28  1  0
 20 29  2  0
 29 30  1  0
 29 31  1  0
 31 32  1  0
 31 33  2  0
 33 34  1  0
 34 35  1  0
 35 36  1  0
 35 37  1  0
 35 38  1  0
 15 39  1  0
 39 40  1  0
 40 41  2  0
 41 42  1  0
 42 43  2  0
 43 44  1  0
 43 45  1  0
 45 46  1  0
 46 47  1  0
 46 48  1  0
 46 49  1  0
 12 50  1  0
 50 51  1  0
 50 52  1  0
  5 53  2  0
 53 54  1  0
 53 55  1  0
 55 56  1  0
 55 57  2  0
 57 58  1  0
 57  2  1  0
 50  7  1  0
 41 13  1  0
 33 17  1  0
 45 40  1  0
M  CHG  1  39  -1
M  END
>  <UniqueID>  (8) 
8

>  <SMILES>  (8) 
CNC(=O)c1ccc(OC)c(/N=c2/nc(N3CC(Oc4ccc(F)cc4)C3)c3ncn(C)c3[n-]2)c1

>  <Energy>  (8) 
165.93455308246686

>  <Genealogy>  (8) 
CNC(=O)c1ccc(OC)c(N=c2nc(N3CC(Oc4ccc(F)cc4)C3)c3ncn(C)c3[n-]2)c1 (protonated)
CNC(=O)c1ccc(OC)c(/N=c2/nc(N3CC(Oc4ccc(F)cc4)C3)c3ncn(C)c3[n-]2)c1 (cis-trans isomerization)
CNC(=O)c1ccc(OC)c(/N=c2/nc(N3CC(Oc4ccc(F)cc4)C3)c3ncn(C)c3[n-]2)c1 (3D coordinates assigned)
CNC(=O)c1ccc(OC)c(/N=c2/nc(N3CC(Oc4ccc(F)cc4)C3)c3ncn(C)c3[n-]2)c1 (nonaromatic ring conformer: 165.93455308246686 kcal/mol)

>  <smiles>  (8) 
CNC(=O)c1ccc(OC)c(N=c2nc(N3CC(Oc4ccc(F)cc4)C3)c3ncn(C)c3[nH]2)c1

>  <score_type>  (8) 
oracle

>  <origin>  (8) 
adg

>  <m_score__min__energy>  (8) 
-9.5899999999999999

>  <m_primary>  (8) 
energy

$$$$
8:0
     RDKit          3D

 42 44  0  0  0  0  0  0  0  0999 V2000
   54.7790   26.0870   45.9640 N   0  0  0  0  0  0  0  0  0  0  0  0
   56.0030   25.4350   45.6320 C   0  0  0  0  0  0  0  0  0  0  0  0
   55.9600   24.2560   45.1870 O   0  0  0  0  0  0  0  0  0  0  0  0
   57.3140   26.1290   45.7760 C   0  0  0  0  0  0  0  0  0  0  0  0
   58.4700   25.3520   45.9930 C   0  0  0  0  0  0  0  0  0  0  0  0
   59.7240   25.9540   46.1160 C   0  0  0  0  0  0  0  0  0  0  0  0
   59.8480   27.3370   46.0150 C   0  0  0  0  0  0  0  0  0  0  0  0
   58.7170   28.1280   45.8110 C   0  0  0  0  0  0  0  0  0  0  0  0
   57.4390   27.5420   45.7160 C   0  0  0  0  0  0  0  0  0  0  0  0
   56.2810   28.3680   45.5160 N   0  0  0  0  0  0  0  0  0  0  0  0
   56.2350   29.5930   44.7780 C   0  0  0  0  0  0  0  0  0  0  0  0
   55.1300   29.9890   44.3230 O   0  0  0  0  0  0  0  0  0  0  0  0
   57.4280   30.3590   44.5640 N   0  0  0  0  0  0  0  0  0  0  0  0
   57.7300   31.6510   45.1110 C   0  0  0  0  0  0  0  0  0  0  0  0
   57.5630   32.8330   44.3680 C   0  0  0  0  0  0  0  0  0  0  0  0
   57.8280   34.0730   44.9540 C   0  0  0  0  0  0  0  0  0  0  0  0
   58.2550   34.1450   46.2820 C   0  0  0  0  0  0  0  0  0  0  0  0
   58.4300   32.9780   47.0350 C   0  0  0  0  0  0  0  0  0  0  0  0
   58.8420   33.0970   48.4030 N   0  0  0  0  0  0  0  0  0  0  0  0
   60.0080   33.7790   48.8870 C   0  0  0  0  0  0  0  0  0  0  0  0
   59.9120   34.5660   49.8670 O   0  0  0  0  0  0  0  0  0  0  0  0
   61.3320   33.5190   48.2650 C   0  0  0  0  0  0  0  0  0  0  0  0
   62.2650   32.6890   48.9180 C   0  0  0  0  0  0  0  0  0  0  0  0
   63.5120   32.4300   48.3440 C   0  0  0  0  0  0  0  0  0  0  0  0
   63.8480   32.9960   47.1130 C   0  0  0  0  0  0  0  0  0  0  0  0
   62.9370   33.8220   46.4530 C   0  0  0  0  0  0  0  0  0  0  0  0
   61.6850   34.0860   47.0200 C   0  0  0  0  0  0  0  0  0  0  0  0
   60.8280   34.8950   46.3460 F   0  0  0  0  0  0  0  0  0  0  0  0
   58.1370   31.7320   46.4500 C   0  0  0  0  0  0  0  0  0  0  0  0
   54.7740   27.0380   46.3960 H   0  0  0  0  0  0  0  0  0  0  0  0
   58.3832   24.2579   46.0664 H   0  0  0  0  0  0  0  0  0  0  0  0
   60.6155   25.3344   46.2930 H   0  0  0  0  0  0  0  0  0  0  0  0
   60.8393   27.8068   46.0962 H   0  0  0  0  0  0  0  0  0  0  0  0
   58.8239   29.2193   45.7235 H   0  0  0  0  0  0  0  0  0  0  0  0
   57.2230   32.7811   43.3232 H   0  0  0  0  0  0  0  0  0  0  0  0
   57.7001   34.9952   44.3681 H   0  0  0  0  0  0  0  0  0  0  0  0
   58.4551   35.1253   46.7392 H   0  0  0  0  0  0  0  0  0  0  0  0
   62.0089   32.2406   49.8893 H   0  0  0  0  0  0  0  0  0  0  0  0
   64.2306   31.7787   48.8631 H   0  0  0  0  0  0  0  0  0  0  0  0
   64.8307   32.7910   46.6632 H   0  0  0  0  0  0  0  0  0  0  0  0
   63.2041   34.2673   45.4833 H   0  0  0  0  0  0  0  0  0  0  0  0
   58.2281   30.8137   47.0487 H   0  0  0  0  0  0  0  0  0  0  0  0
  1  2  1  0
  2  3  2  0
  2  4  1  0
  4  5  2  0
  5  6  1  0
  6  7  2  0
  7  8  1  0
  8  9  2  0
  9 10  1  0
 10 11  1  0
 11 12  2  0
 11 13  1  0
 13 14  1  0
 14 15  2  0
 15 16  1  0
 16 17  2  0
 17 18  1  0
 18 19  1  0
 19 20  1  0
 20 21  2  0
 20 22  1  0
 22 23  2  0
 23 24  1  0
 24 25  2  0
 25 26  1  0
 26 27  2  0
 27 28  1  0
 18 29  2  0
  9  4  1  0
 29 14  1  0
 27 22  1  0
  1 30  1  0
  5 31  1  0
  6 32  1  0
  7 33  1  0
  8 34  1  0
 15 35  1  0
 16 36  1  0
 17 37  1  0
 23 38  1  0
 24 39  1  0
 25 40  1  0
 26 41  1  0
 29 42  1  0
M  CHG  4   1  -1  10  -1  13  -1  19  -1
M  END
>  <UniqueID>  (9) 
9

>  <SMILES>  (9) 
[NH-]C(=O)c1ccccc1[N-]C(=O)[N-]c1cccc([N-]C(=O)c2ccccc2F)c1

>  <Energy>  (9) 
60.80970018581311

>  <Genealogy>  (9) 
[NH-]C(=O)c1ccccc1[N-]C(=O)[N-]c1cccc([N-]C(=O)c2ccccc2F)c1 (protonated)
[NH-]C(=O)c1ccccc1[N-]C(=O)[N-]c1cccc([N-]C(=O)c2ccccc2F)c1 (3D coordinates assigned)
[NH-]C(=O)c1ccccc1[N-]C(=O)[N-]c1cccc([N-]C(=O)c2ccccc2F)c1 (optimized conformer: 60.80970018581311 kcal/mol)

>  <smiles>  (9) 
NC(=O)c1ccccc1NC(=O)Nc1cccc(NC(=O)c2ccccc2F)c1

>  <score_type>  (9) 
oracle

>  <origin>  (9) 
adg

>  <m_score__min__energy>  (9) 
-16.23

>  <m_primary>  (9) 
energy

$$$$
9:0
     RDKit          3D

 39 40  0  0  0  0  0  0  0  0999 V2000
   58.7218   35.3731   47.7780 H   0  0  0  0  0  0  0  0  0  0  0  0
   59.3680   34.7670   47.1260 C   0  0  0  0  0  0  0  0  0  0  0  0
   58.9720   34.5850   45.8580 C   0  0  0  0  0  0  0  0  0  0  0  0
   59.2809   35.3417   45.1218 H   0  0  0  0  0  0  0  0  0  0  0  0
   57.9970   33.2350   45.2670 S   0  0  0  0  0  0  0  0  0  0  0  0
   58.6000   32.5910   44.0540 O   0  0  0  0  0  0  0  0  0  0  0  0
   56.6540   33.7860   44.8800 O   0  0  0  0  0  0  0  0  0  0  0  0
   57.7570   32.0480   46.5050 N   0  0  0  0  0  0  0  0  0  0  0  0
   58.5430   30.8580   46.5810 C   0  0  0  0  0  0  0  0  0  0  0  0
   59.6210   30.8310   47.4740 C   0  0  0  0  0  0  0  0  0  0  0  0
   59.8429   31.7155   48.0891 H   0  0  0  0  0  0  0  0  0  0  0  0
   60.4150   29.6910   47.5890 C   0  0  0  0  0  0  0  0  0  0  0  0
   61.2505   29.6724   48.3043 H   0  0  0  0  0  0  0  0  0  0  0  0
   60.1500   28.5740   46.7970 C   0  0  0  0  0  0  0  0  0  0  0  0
   60.7903   27.6831   46.8772 H   0  0  0  0  0  0  0  0  0  0  0  0
   59.0750   28.5790   45.9010 C   0  0  0  0  0  0  0  0  0  0  0  0
   58.8610   27.1550   44.8840 Cl  0  0  0  0  0  0  0  0  0  0  0  0
   58.2330   29.7130   45.8050 C   0  0  0  0  0  0  0  0  0  0  0  0
   56.8260   29.6910   44.7160 S   0  0  0  0  0  0  0  0  0  0  0  0
   57.2180   29.2860   43.3210 O   0  0  0  0  0  0  0  0  0  0  0  0
   55.8110   28.7150   45.2440 O   0  0  0  0  0  0  0  0  0  0  0  0
   56.1160   31.2650   44.6270 N   0  0  0  0  0  0  0  0  0  0  0  0
   56.2810   31.7280   45.5490 H   0  0  0  0  0  0  0  0  0  0  0  0
   56.6600   31.8050   43.9150 H   0  0  0  0  0  0  0  0  0  0  0  0
   60.6030   34.2170   47.7130 C   0  0  0  0  0  0  0  0  0  0  0  0
   61.6480   33.8460   46.8560 C   0  0  0  0  0  0  0  0  0  0  0  0
   61.5395   33.9846   45.7702 H   0  0  0  0  0  0  0  0  0  0  0  0
   62.8250   33.3020   47.3710 C   0  0  0  0  0  0  0  0  0  0  0  0
   63.6500   33.0366   46.6935 H   0  0  0  0  0  0  0  0  0  0  0  0
   62.9570   33.0940   48.7460 C   0  0  0  0  0  0  0  0  0  0  0  0
   64.5810   32.3730   49.4470 Br  0  0  0  0  0  0  0  0  0  0  0  0
   61.8970   33.4000   49.6050 C   0  0  0  0  0  0  0  0  0  0  0  0
   61.9963   33.2136   50.6845 H   0  0  0  0  0  0  0  0  0  0  0  0
   60.7000   33.9470   49.0940 C   0  0  0  0  0  0  0  0  0  0  0  0
   59.5970   34.2240   49.9210 O   0  0  0  0  0  0  0  0  0  0  0  0
   59.2590   33.4830   51.0910 C   0  0  0  0  0  0  0  0  0  0  0  0
   59.5253   34.0668   51.9844 H   0  0  0  0  0  0  0  0  0  0  0  0
   58.1783   33.2779   51.0957 H   0  0  0  0  0  0  0  0  0  0  0  0
   59.8126   32.5325   51.0957 H   0  0  0  0  0  0  0  0  0  0  0  0
  1  2  1  0
  2  3  2  0
  3  4  1  0
  3  5  1  0
  5  6  2  0
  5  7  2  0
  5  8  1  0
  8  9  1  0
  9 10  2  0
 10 11  1  0
 10 12  1  0
 12 13  1  0
 12 14  2  0
 14 15  1  0
 14 16  1  0
 16 17  1  0
 16 18  2  0
 18 19  1  0
 19 20  2  0
 19 21  2  0
 19 22  1  0
 22 23  1  0
 22 24  1  0
  2 25  1  0
 25 26  2  0
 26 27  1  0
 26 28  1  0
 28 29  1  0
 28 30  2  0
 30 31  1  0
 30 32  1  0
 32 33  1  0
 32 34  2  0
 34 35  1  0
 35 36  1  0
 36 37  1  0
 36 38  1  0
 36 39  1  0
 18  9  1  0
 34 25  1  0
M  CHG  1   8  -1
M  END
>  <UniqueID>  (10) 
10

>  <SMILES>  (10) 
COc1cc(Br)ccc1/C=C\S(=O)(=O)[N-]c1cccc(Cl)c1S(N)(=O)=O

>  <Energy>  (10) 
55.561744761484164

>  <Genealogy>  (10) 
COc1cc(Br)ccc1C=CS(=O)(=O)[N-]c1cccc(Cl)c1S(N)(=O)=O (protonated)
COc1cc(Br)ccc1/C=C\S(=O)(=O)[N-]c1cccc(Cl)c1S(N)(=O)=O (cis-trans isomerization)
COc1cc(Br)ccc1/C=C\S(=O)(=O)[N-]c1cccc(Cl)c1S(N)(=O)=O (3D coordinates assigned)
COc1cc(Br)ccc1/C=C\S(=O)(=O)[N-]c1cccc(Cl)c1S(N)(=O)=O (optimized conformer: 55.561744761484164 kcal/mol)

>  <smiles>  (10) 
COc1cc(Br)ccc1C=CS(=O)(=O)Nc1cccc(Cl)c1S(N)(=O)=O

>  <score_type>  (10) 
oracle

>  <origin>  (10) 
adg

>  <m_score__min__energy>  (10) 
-9.8499999999999996

>  <m_primary>  (10) 
energy

$$$$
10:0
     RDKit          3D

 53 55  0  0  1  0  0  0  0  0999 V2000
   63.8920   31.2070   50.5800 C   0  0  0  0  0  0  0  0  0  0  0  0
   64.7010   32.1520   49.6920 C   0  0  0  0  0  0  0  0  0  0  0  0
   63.7130   32.8200   48.7980 C   0  0  0  0  0  0  0  0  0  0  0  0
   62.5250   33.3700   49.0960 N   0  0  0  0  0  0  0  0  0  0  0  0
   61.9490   33.8690   47.9820 C   0  0  0  0  0  0  0  0  0  0  0  0
   60.6430   34.5610   47.8300 C   0  0  0  0  0  0  0  0  0  0  0  0
   59.5440   33.6190   47.3960 C   0  0  1  0  0  0  0  0  0  0  0  0
   59.3380   33.6400   45.9710 N   0  0  0  0  0  0  0  0  0  0  0  0
   57.6980   33.3740   45.5090 S   0  0  0  0  0  0  0  0  0  0  0  0
   57.2180   34.3800   44.4950 O   0  0  0  0  0  0  0  0  0  0  0  0
   56.8890   33.4310   46.7830 O   0  0  0  0  0  0  0  0  0  0  0  0
   57.4900   31.7860   44.8060 C   0  0  0  0  0  0  0  0  0  0  0  0
   57.0790   31.5890   43.5030 C   0  0  0  0  0  0  0  0  0  0  0  0
   56.9400   30.2900   43.0210 C   0  0  0  0  0  0  0  0  0  0  0  0
   57.1980   29.1810   43.8010 C   0  0  0  0  0  0  0  0  0  0  0  0
   57.6130   29.3810   45.1180 C   0  0  0  0  0  0  0  0  0  0  0  0
   57.9050   28.2190   46.0020 C   0  0  0  0  0  0  0  0  0  0  0  0
   57.7480   30.6730   45.5850 C   0  0  0  0  0  0  0  0  0  0  0  0
   59.8040   32.2270   47.8150 C   0  0  0  0  0  0  0  0  0  0  0  0
   59.3570   31.8010   49.0530 C   0  0  0  0  0  0  0  0  0  0  0  0
   59.6090   30.4800   49.4380 C   0  0  0  0  0  0  0  0  0  0  0  0
   60.2820   29.5960   48.6300 C   0  0  0  0  0  0  0  0  0  0  0  0
   60.5570   27.9290   49.2060 S   0  0  0  0  0  0  0  0  0  0  0  0
   60.3890   26.7230   47.8660 C   0  0  0  0  0  0  0  0  0  0  0  0
   60.7210   30.0350   47.4000 C   0  0  0  0  0  0  0  0  0  0  0  0
   60.4850   31.3480   46.9870 C   0  0  0  0  0  0  0  0  0  0  0  0
   62.8310   33.6120   46.9530 C   0  0  0  0  0  0  0  0  0  0  0  0
   63.8960   32.9710   47.4880 N   0  0  0  0  0  0  0  0  0  0  0  0
   64.0898   31.4380   51.6371 H   0  0  0  0  0  0  0  0  0  0  0  0
   62.8197   31.3355   50.3710 H   0  0  0  0  0  0  0  0  0  0  0  0
   64.1843   30.1673   50.3710 H   0  0  0  0  0  0  0  0  0  0  0  0
   65.2265   32.8980   50.3063 H   0  0  0  0  0  0  0  0  0  0  0  0
   65.4644   31.6091   49.1154 H   0  0  0  0  0  0  0  0  0  0  0  0
   60.3649   35.0086   48.7956 H   0  0  0  0  0  0  0  0  0  0  0  0
   60.7567   35.3286   47.0504 H   0  0  0  0  0  0  0  0  0  0  0  0
   58.6348   33.9833   47.8967 H   0  0  0  0  0  0  0  0  0  0  0  0
   59.9510   32.9570   45.4800 H   0  0  0  0  0  0  0  0  0  0  0  0
   56.8635   32.4492   42.8522 H   0  0  0  0  0  0  0  0  0  0  0  0
   56.6128   30.1424   41.9812 H   0  0  0  0  0  0  0  0  0  0  0  0
   57.0795   28.1656   43.3948 H   0  0  0  0  0  0  0  0  0  0  0  0
   57.8268   28.5300   47.0542 H   0  0  0  0  0  0  0  0  0  0  0  0
   57.1809   27.4154   45.8024 H   0  0  0  0  0  0  0  0  0  0  0  0
   58.9230   27.8532   45.8024 H   0  0  0  0  0  0  0  0  0  0  0  0
   58.0757   30.8240   46.6241 H   0  0  0  0  0  0  0  0  0  0  0  0
   58.8148   32.4867   49.7206 H   0  0  0  0  0  0  0  0  0  0  0  0
   59.2561   30.1372   50.4218 H   0  0  0  0  0  0  0  0  0  0  0  0
   60.2491   25.7186   48.2921 H   0  0  0  0  0  0  0  0  0  0  0  0
   59.5184   26.9828   47.2459 H   0  0  0  0  0  0  0  0  0  0  0  0
   61.2975   26.7350   47.2459 H   0  0  0  0  0  0  0  0  0  0  0  0
   61.2627   29.3445   46.7368 H   0  0  0  0  0  0  0  0  0  0  0  0
   60.8403   31.6856   46.0022 H   0  0  0  0  0  0  0  0  0  0  0  0
   62.6941   33.8785   45.8946 H   0  0  0  0  0  0  0  0  0  0  0  0
   64.7040   32.6650   46.9220 H   0  0  0  0  0  0  0  0  0  0  0  0
  1  2  1  0
  2  3  1  0
  3  4  2  0
  4  5  1  0
  5  6  1  0
  6  7  1  0
  7  8  1  0
  8  9  1  0
  9 10  2  0
  9 11  2  0
  9 12  1  0
 12 13  2  0
 13 14  1  0
 14 15  2  0
 15 16  1  0
 16 17  1  0
 16 18  2  0
  7 19  1  0
 19 20  2  0
 20 21  1  0
 21 22  2  0
 22 23  1  0
 23 24  1  0
 22 25  1  0
 25 26  2  0
  5 27  2  0
 27 28  1  0
 28  3  1  0
 18 12  1  0
 26 19  1  0
  1 29  1  0
  1 30  1  0
  1 31  1  0
  2 32  1  0
  2 33  1  0
  6 34  1  0
  6 35  1  0
  7 36  1  1
  8 37  1  0
 13 38  1  0
 14 39  1  0
 15 40  1  0
 17 41  1  0
 17 42  1  0
 17 43  1  0
 18 44  1  0
 20 45  1  0
 21 46  1  0
 24 47  1  0
 24 48  1  0
 24 49  1  0
 25 50  1  0
 26 51  1  0
 27 52  1  0
 28 53  1  0
M  END
>  <smiles>  (11) 
CCc1nc(CC(NS(=O)(=O)c2cccc(C)c2)c2ccc(SC)cc2)c[nH]1

>  <score_type>  (11) 
oracle

>  <origin>  (11) 
adg

>  <m_score__min__energy>  (11) 
-9.2599999999999998

>  <m_primary>  (11) 
energy

$$$$
11:0
     RDKit          3D

 49 51  0  0  0  0  0  0  0  0999 V2000
   55.6420   23.9660   44.9640 C   0  0  0  0  0  0  0  0  0  0  0  0
   56.0430   25.3280   46.0360 S   0  0  0  0  0  0  0  0  0  0  0  0
   56.2030   24.8150   47.4390 O   0  0  0  0  0  0  0  0  0  0  0  0
   54.9340   26.3400   45.9830 O   0  0  0  0  0  0  0  0  0  0  0  0
   57.5240   26.0470   45.4940 N   0  0  0  0  0  0  0  0  0  0  0  0
   58.3110   26.9970   46.2300 C   0  0  0  0  0  0  0  0  0  0  0  0
   58.9620   26.6370   47.4250 C   0  0  0  0  0  0  0  0  0  0  0  0
   59.7380   27.5700   48.1170 C   0  0  0  0  0  0  0  0  0  0  0  0
   59.8760   28.8680   47.6270 C   0  0  0  0  0  0  0  0  0  0  0  0
   59.2380   29.2390   46.4420 C   0  0  0  0  0  0  0  0  0  0  0  0
   58.4410   28.3170   45.7410 C   0  0  0  0  0  0  0  0  0  0  0  0
   57.8300   28.7270   44.4240 C   0  0  0  0  0  0  0  0  0  0  0  0
   56.5540   29.4620   44.6820 C   0  0  0  0  0  0  0  0  0  0  0  0
   55.5470   28.8320   45.1100 O   0  0  0  0  0  0  0  0  0  0  0  0
   56.4670   30.8610   44.3810 N   0  0  0  0  0  0  0  0  0  0  0  0
   57.2830   31.7590   44.8450 C   0  0  0  0  0  0  0  0  0  0  0  0
   57.7260   31.7810   46.1190 N   0  0  0  0  0  0  0  0  0  0  0  0
   58.4980   32.8740   46.3750 C   0  0  0  0  0  0  0  0  0  0  0  0
   59.0240   33.1370   47.7390 C   0  0  0  0  0  0  0  0  0  0  0  0
   59.6860   34.3360   48.0580 C   0  0  0  0  0  0  0  0  0  0  0  0
   60.1430   34.5650   49.3560 C   0  0  0  0  0  0  0  0  0  0  0  0
   59.9430   33.6090   50.3530 C   0  0  0  0  0  0  0  0  0  0  0  0
   59.2860   32.4040   50.0640 C   0  0  0  0  0  0  0  0  0  0  0  0
   59.0830   31.4440   51.1190 N   0  0  0  0  0  0  0  0  0  0  0  0
   57.6530   31.3400   52.1000 S   0  0  0  0  0  0  0  0  0  0  0  0
   58.0850   31.0230   53.8000 C   0  0  0  0  0  0  0  0  0  0  0  0
   56.8100   30.2000   51.6020 O   0  0  0  0  0  0  0  0  0  0  0  0
   56.8580   32.6110   51.9870 O   0  0  0  0  0  0  0  0  0  0  0  0
   58.8420   32.1720   48.7490 C   0  0  0  0  0  0  0  0  0  0  0  0
   58.6660   33.7280   45.2790 C   0  0  0  0  0  0  0  0  0  0  0  0
   57.8090   33.0890   43.9740 S   0  0  0  0  0  0  0  0  0  0  0  0
   55.3829   23.0858   45.5707 H   0  0  0  0  0  0  0  0  0  0  0  0
   54.7860   24.2387   44.3292 H   0  0  0  0  0  0  0  0  0  0  0  0
   56.5092   23.7314   44.3292 H   0  0  0  0  0  0  0  0  0  0  0  0
   58.8590   25.6142   47.8165 H   0  0  0  0  0  0  0  0  0  0  0  0
   60.2415   27.2798   49.0510 H   0  0  0  0  0  0  0  0  0  0  0  0
   60.4879   29.6001   48.1744 H   0  0  0  0  0  0  0  0  0  0  0  0
   59.3598   30.2609   46.0536 H   0  0  0  0  0  0  0  0  0  0  0  0
   58.5286   29.3815   43.8822 H   0  0  0  0  0  0  0  0  0  0  0  0
   57.6253   27.8327   43.8171 H   0  0  0  0  0  0  0  0  0  0  0  0
   59.8443   35.0973   47.2799 H   0  0  0  0  0  0  0  0  0  0  0  0
   60.6637   35.5040   49.5950 H   0  0  0  0  0  0  0  0  0  0  0  0
   60.3037   33.8022   51.3741 H   0  0  0  0  0  0  0  0  0  0  0  0
   59.8610   30.7860   51.3540 H   0  0  0  0  0  0  0  0  0  0  0  0
   57.3764   31.5430   54.4615 H   0  0  0  0  0  0  0  0  0  0  0  0
   58.0412   29.9411   53.9938 H   0  0  0  0  0  0  0  0  0  0  0  0
   59.1039   31.3893   53.9938 H   0  0  0  0  0  0  0  0  0  0  0  0
   58.3446   31.2215   48.5057 H   0  0  0  0  0  0  0  0  0  0  0  0
   59.2557   34.6565   45.2701 H   0  0  0  0  0  0  0  0  0  0  0  0
  1  2  1  0
  2  3  2  0
  2  4  2  0
  2  5  1  0
  5  6  1  0
  6  7  2  0
  7  8  1  0
  8  9  2  0
  9 10  1  0
 10 11  2  0
 11 12  1  0
 12 13  1  0
 13 14  2  0
 13 15  1  0
 15 16  2  3
 16 17  1  0
 17 18  1  0
 18 19  1  0
 19 20  2  0
 20 21  1  0
 21 22  2  0
 22 23  1  0
 23 24  1  0
 24 25  1  0
 25 26  1  0
 25 27  2  0
 25 28  2  0
 23 29  2  0
 18 30  2  0
 30 31  1  0
 11  6  1  0
 31 16  1  0
 29 19  1  0
  1 32  1  0
  1 33  1  0
  1 34  1  0
  7 35  1  0
  8 36  1  0
  9 37  1  0
 10 38  1  0
 12 39  1  0
 12 40  1  0
 20 41  1  0
 21 42  1  0
 22 43  1  0
 24 44  1  0
 26 45  1  0
 26 46  1  0
 26 47  1  0
 29 48  1  0
 30 49  1  0
M  CHG  2   5  -1  17  -1
M  END
>  <UniqueID>  (12) 
11

>  <SMILES>  (12) 
CS(=O)(=O)[N-]c1ccccc1CC(=O)N=c1[n-]c(-c2cccc(NS(C)(=O)=O)c2)cs1

>  <Energy>  (12) 
81.06591644021495

>  <Genealogy>  (12) 
CS(=O)(=O)[N-]c1ccccc1CC(=O)N=c1[n-]c(-c2cccc(NS(C)(=O)=O)c2)cs1 (protonated)
CS(=O)(=O)[N-]c1ccccc1CC(=O)N=c1[n-]c(-c2cccc(NS(C)(=O)=O)c2)cs1 (3D coordinates assigned)
CS(=O)(=O)[N-]c1ccccc1CC(=O)N=c1[n-]c(-c2cccc(NS(C)(=O)=O)c2)cs1 (optimized conformer: 81.06591644021495 kcal/mol)

>  <smiles>  (12) 
CS(=O)(=O)Nc1cccc(-c2csc(=NC(=O)Cc3ccccc3NS(C)(=O)=O)[nH]2)c1

>  <score_type>  (12) 
oracle

>  <origin>  (12) 
adg

>  <m_score__min__energy>  (12) 
-13.960000000000001

>  <m_primary>  (12) 
energy

$$$$
12:0
     RDKit          3D

 43 45  0  0  0  0  0  0  0  0999 V2000
   56.4740   30.6910   44.5850 O   0  0  0  0  0  0  0  0  0  0  0  0
   57.4670   31.4170   44.8620 C   0  0  0  0  0  0  0  0  0  0  0  0
   57.3710   32.9010   44.6750 C   0  0  0  0  0  0  0  0  0  0  0  0
   58.3060   33.6030   45.6220 C   0  0  0  0  0  0  0  0  0  0  0  0
   59.1660   34.6080   45.1470 C   0  0  0  0  0  0  0  0  0  0  0  0
   60.0140   35.2870   46.0270 C   0  0  0  0  0  0  0  0  0  0  0  0
   60.0040   34.9750   47.3880 C   0  0  0  0  0  0  0  0  0  0  0  0
   59.1440   33.9850   47.8730 C   0  0  0  0  0  0  0  0  0  0  0  0
   58.2940   33.3030   46.9970 C   0  0  0  0  0  0  0  0  0  0  0  0
   57.4560   32.3550   47.4900 F   0  0  0  0  0  0  0  0  0  0  0  0
   58.6930   30.8260   45.3110 N   0  0  0  0  0  0  0  0  0  0  0  0
   58.8260   29.3790   45.4780 C   0  0  0  0  0  0  0  0  0  0  0  0
   59.3880   29.0300   46.8350 C   0  0  0  0  0  0  0  0  0  0  0  0
   59.1260   27.8970   47.3230 O   0  0  0  0  0  0  0  0  0  0  0  0
   60.1530   29.9800   47.6090 N   0  0  0  0  0  0  0  0  0  0  0  0
   59.5410   30.5430   48.8260 C   0  0  0  0  0  0  0  0  0  0  0  0
   60.5950   31.0700   49.8000 C   0  0  0  0  0  0  0  0  0  0  0  0
   61.5160   32.0170   49.0940 C   0  0  0  0  0  0  0  0  0  0  0  0
   62.0120   33.1590   49.7420 C   0  0  0  0  0  0  0  0  0  0  0  0
   62.8980   34.0120   49.0800 C   0  0  0  0  0  0  0  0  0  0  0  0
   63.3060   33.7210   47.7760 C   0  0  0  0  0  0  0  0  0  0  0  0
   62.8290   32.5770   47.1300 C   0  0  0  0  0  0  0  0  0  0  0  0
   61.9240   31.7230   47.7810 C   0  0  0  0  0  0  0  0  0  0  0  0
   61.4580   30.4560   47.1050 C   0  0  0  0  0  0  0  0  0  0  0  0
   57.6427   33.1556   43.6399 H   0  0  0  0  0  0  0  0  0  0  0  0
   56.3400   33.2240   44.8815 H   0  0  0  0  0  0  0  0  0  0  0  0
   59.1719   34.8618   44.0767 H   0  0  0  0  0  0  0  0  0  0  0  0
   60.6895   36.0675   45.6470 H   0  0  0  0  0  0  0  0  0  0  0  0
   60.6732   35.5085   48.0791 H   0  0  0  0  0  0  0  0  0  0  0  0
   59.1361   33.7422   48.9458 H   0  0  0  0  0  0  0  0  0  0  0  0
   59.4900   31.4590   45.5540 H   0  0  0  0  0  0  0  0  0  0  0  0
   57.8350   28.9139   45.3708 H   0  0  0  0  0  0  0  0  0  0  0  0
   59.5185   29.0043   44.7099 H   0  0  0  0  0  0  0  0  0  0  0  0
   58.8754   31.3706   48.5396 H   0  0  0  0  0  0  0  0  0  0  0  0
   58.9809   29.7412   49.3293 H   0  0  0  0  0  0  0  0  0  0  0  0
   60.0961   31.5958   50.6274 H   0  0  0  0  0  0  0  0  0  0  0  0
   61.1783   30.2245   50.1935 H   0  0  0  0  0  0  0  0  0  0  0  0
   61.7023   33.3827   50.7735 H   0  0  0  0  0  0  0  0  0  0  0  0
   63.2747   34.9133   49.5857 H   0  0  0  0  0  0  0  0  0  0  0  0
   64.0042   34.3937   47.2565 H   0  0  0  0  0  0  0  0  0  0  0  0
   63.1636   32.3448   46.1082 H   0  0  0  0  0  0  0  0  0  0  0  0
   61.3685   30.6470   46.0254 H   0  0  0  0  0  0  0  0  0  0  0  0
   62.2004   29.6741   47.3230 H   0  0  0  0  0  0  0  0  0  0  0  0
  1  2  2  0
  2  3  1  0
  3  4  1  0
  4  5  2  0
  5  6  1  0
  6  7  2  0
  7  8  1  0
  8  9  2  0
  9 10  1  0
  2 11  1  0
 11 12  1  0
 12 13  1  0
 13 14  2  0
 13 15  1  0
 15 16  1  0
 16 17  1  0
 17 18  1  0
 18 19  2  0
 19 20  1  0
 20 21  2  0
 21 22  1  0
 22 23  2  0
 23 24  1  0
  9  4  1  0
 24 15  1  0
 23 18  1  0
  3 25  1  0
  3 26  1  0
  5 27  1  0
  6 28  1  0
  7 29  1  0
  8 30  1  0
 11 31  1  0
 12 32  1  0
 12 33  1  0
 16 34  1  0
 16 35  1  0
 17 36  1  0
 17 37  1  0
 19 38  1  0
 20 39  1  0
 21 40  1  0
 22 41  1  0
 24 42  1  0
 24 43  1  0
M  END
>  <UniqueID>  (13) 
12

>  <SMILES>  (13) 
O=C(Cc1ccccc1F)NCC(=O)N1CCc2ccccc2C1

>  <Energy>  (13) 
44.2935167477204

>  <Genealogy>  (13) 
O=C(Cc1ccccc1F)NCC(=O)N1CCc2ccccc2C1 (3D coordinates assigned)
O=C(Cc1ccccc1F)NCC(=O)N1CCc2ccccc2C1 (nonaromatic ring conformer: 44.2935167477204 kcal/mol)

>  <smiles>  (13) 
O=C(Cc1ccccc1F)NCC(=O)N1CCc2ccccc2C1

>  <score_type>  (13) 
oracle

>  <origin>  (13) 
adg

>  <m_score__min__energy>  (13) 
-8.7699999999999996

>  <m_primary>  (13) 
energy

$$$$
13:0
     RDKit          3D

 71 74  0  0  0  0  0  0  0  0999 V2000
   56.2560   22.2750   42.6510 C   0  0  0  0  0  0  0  0  0  0  0  0
   56.2840   23.1180   43.9420 C   0  0  0  0  0  0  0  0  0  0  0  0
   57.1850   24.3420   43.7060 C   0  0  0  0  0  0  0  0  0  0  0  0
   56.8520   22.2960   45.1140 C   0  0  0  0  0  0  0  0  0  0  0  0
   54.9730   23.6060   44.2650 O   0  0  0  0  0  0  0  0  0  0  0  0
   54.5960   24.2630   45.4480 C   0  0  0  0  0  0  0  0  0  0  0  0
   53.4610   24.0830   45.9580 O   0  0  0  0  0  0  0  0  0  0  0  0
   55.4880   25.1990   46.0600 N   0  0  0  0  0  0  0  0  0  0  0  0
   56.5520   24.8180   46.9830 C   0  0  0  0  0  0  0  0  0  0  0  0
   57.7710   25.6750   46.7460 C   0  0  0  0  0  0  0  0  0  0  0  0
   57.6870   27.0650   46.9460 C   0  0  0  0  0  0  0  0  0  0  0  0
   58.8190   27.8860   46.7940 C   0  0  0  0  0  0  0  0  0  0  0  0
   58.7240   29.3540   47.0190 C   0  0  0  0  0  0  0  0  0  0  0  0
   58.5120   30.2120   45.9250 C   0  0  0  0  0  0  0  0  0  0  0  0
   58.3940   31.5970   46.1110 C   0  0  0  0  0  0  0  0  0  0  0  0
   58.1660   32.5100   44.9320 C   0  0  0  0  0  0  0  0  0  0  0  0
   57.8810   33.9240   45.3570 C   0  0  0  0  0  0  0  0  0  0  0  0
   56.6960   34.3010   45.5680 O   0  0  0  0  0  0  0  0  0  0  0  0
   58.9810   34.8030   45.6200 N   0  0  0  0  0  0  0  0  0  0  0  0
   60.0890   34.5250   46.4870 C   0  0  0  0  0  0  0  0  0  0  0  0
   61.2120   33.8060   46.0430 C   0  0  0  0  0  0  0  0  0  0  0  0
   62.2440   33.4890   46.9320 C   0  0  0  0  0  0  0  0  0  0  0  0
   62.1690   33.8780   48.2830 C   0  0  0  0  0  0  0  0  0  0  0  0
   63.2510   33.5200   49.2360 C   0  0  0  0  0  0  0  0  0  0  0  0
   63.3710   34.1860   50.4700 C   0  0  0  0  0  0  0  0  0  0  0  0
   64.4070   33.8640   51.3550 C   0  0  0  0  0  0  0  0  0  0  0  0
   65.3220   32.8610   51.0250 C   0  0  0  0  0  0  0  0  0  0  0  0
   65.2120   32.1890   49.8050 C   0  0  0  0  0  0  0  0  0  0  0  0
   64.1850   32.5160   48.9140 C   0  0  0  0  0  0  0  0  0  0  0  0
   61.0380   34.5920   48.7200 C   0  0  0  0  0  0  0  0  0  0  0  0
   60.0040   34.8980   47.8320 C   0  0  0  0  0  0  0  0  0  0  0  0
   58.4620   32.1270   47.4070 C   0  0  0  0  0  0  0  0  0  0  0  0
   58.6870   31.2900   48.5080 C   0  0  0  0  0  0  0  0  0  0  0  0
   58.7830   31.9750   50.1320 S   0  0  0  0  0  0  0  0  0  0  0  0
   57.3650   31.5880   51.0430 N   0  0  0  0  0  0  0  0  0  0  0  0
   59.9820   31.4100   50.8400 O   0  0  0  0  0  0  0  0  0  0  0  0
   58.9160   33.4690   50.0380 O   0  0  0  0  0  0  0  0  0  0  0  0
   58.8380   29.9070   48.3130 C   0  0  0  0  0  0  0  0  0  0  0  0
   59.1240   29.0880   49.4020 O   0  0  0  0  0  0  0  0  0  0  0  0
   60.0500   27.2920   46.4670 C   0  0  0  0  0  0  0  0  0  0  0  0
   60.1380   25.9150   46.2580 C   0  0  0  0  0  0  0  0  0  0  0  0
   59.0060   25.1060   46.3870 C   0  0  0  0  0  0  0  0  0  0  0  0
   59.1200   23.7410   46.1520 O   0  0  0  0  0  0  0  0  0  0  0  0
   56.2205   21.2068   42.9113 H   0  0  0  0  0  0  0  0  0  0  0  0
   55.3661   22.5382   42.0604 H   0  0  0  0  0  0  0  0  0  0  0  0
   57.1614   22.4786   42.0604 H   0  0  0  0  0  0  0  0  0  0  0  0
   57.4941   24.7619   44.6746 H   0  0  0  0  0  0  0  0  0  0  0  0
   58.0759   24.0373   43.1373 H   0  0  0  0  0  0  0  0  0  0  0  0
   56.6293   25.1022   43.1373 H   0  0  0  0  0  0  0  0  0  0  0  0
   56.5386   22.7496   46.0659 H   0  0  0  0  0  0  0  0  0  0  0  0
   56.4727   21.2651   45.0566 H   0  0  0  0  0  0  0  0  0  0  0  0
   57.9505   22.2862   45.0566 H   0  0  0  0  0  0  0  0  0  0  0  0
   56.2043   24.9570   48.0173 H   0  0  0  0  0  0  0  0  0  0  0  0
   56.8142   23.7627   46.8166 H   0  0  0  0  0  0  0  0  0  0  0  0
   56.7232   27.5158   47.2250 H   0  0  0  0  0  0  0  0  0  0  0  0
   58.4378   29.7917   44.9112 H   0  0  0  0  0  0  0  0  0  0  0  0
   59.0663   32.5044   44.3000 H   0  0  0  0  0  0  0  0  0  0  0  0
   57.2889   32.1390   44.3815 H   0  0  0  0  0  0  0  0  0  0  0  0
   61.2796   33.4911   44.9912 H   0  0  0  0  0  0  0  0  0  0  0  0
   63.1214   32.9312   46.5728 H   0  0  0  0  0  0  0  0  0  0  0  0
   62.6446   34.9662   50.7415 H   0  0  0  0  0  0  0  0  0  0  0  0
   64.5006   34.4009   52.3105 H   0  0  0  0  0  0  0  0  0  0  0  0
   66.1289   32.6004   51.7257 H   0  0  0  0  0  0  0  0  0  0  0  0
   65.9345   31.4014   49.5449 H   0  0  0  0  0  0  0  0  0  0  0  0
   64.1059   31.9849   47.9540 H   0  0  0  0  0  0  0  0  0  0  0  0
   60.9675   34.9120   49.7701 H   0  0  0  0  0  0  0  0  0  0  0  0
   59.1158   35.4367   48.1937 H   0  0  0  0  0  0  0  0  0  0  0  0
   58.3377   33.2091   47.5609 H   0  0  0  0  0  0  0  0  0  0  0  0
   56.5510   31.9920   50.5280 H   0  0  0  0  0  0  0  0  0  0  0  0
   60.9506   27.9169   46.3751 H   0  0  0  0  0  0  0  0  0  0  0  0
   61.1047   25.4636   45.9900 H   0  0  0  0  0  0  0  0  0  0  0  0
  1  2  1  0
  2  3  1  0
  2  4  1  0
  2  5  1  0
  5  6  1  0
  6  7  2  0
  6  8  1  0
  8  9  1  0
  9 10  1  0
 10 11  2  0
 11 12  1  0
 12 13  1  0
 13 14  2  0
 14 15  1  0
 15 16  1  0
 16 17  1  0
 17 18  2  0
 17 19  1  0
 19 20  1  0
 20 21  2  0
 21 22  1  0
 22 23  2  0
 23 24  1  0
 24 25  2  0
 25 26  1  0
 26 27  2  0
 27 28  1  0
 28 29  2  0
 23 30  1  0
 30 31  2  0
 15 32  2  0
 32 33  1  0
 33 34  1  0
 34 35  1  0
 34 36  2  0
 34 37  2  0
 33 38  2  0
 38 39  1  0
 12 40  2  0
 40 41  1  0
 41 42  2  0
 42 43  1  0
 42 10  1  0
 38 13  1  0
 31 20  1  0
 29 24  1  0
  1 44  1  0
  1 45  1  0
  1 46  1  0
  3 47  1  0
  3 48  1  0
  3 49  1  0
  4 50  1  0
  4 51  1  0
  4 52  1  0
  9 53  1  0
  9 54  1  0
 11 55  1  0
 14 56  1  0
 16 57  1  0
 16 58  1  0
 21 59  1  0
 22 60  1  0
 25 61  1  0
 26 62  1  0
 27 63  1  0
 28 64  1  0
 29 65  1  0
 30 66  1  0
 31 67  1  0
 32 68  1  0
 35 69  1  0
 40 70  1  0
 41 71  1  0
M  CHG  5   8  -1  19  -1  35  -1  39  -1  43  -1
M  END
>  <UniqueID>  (14) 
13

>  <SMILES>  (14) 
CC(C)(C)OC(=O)[N-]Cc1cc(-c2cc(CC(=O)[N-]c3ccc(-c4ccccc4)cc3)cc(S([NH-])(=O)=O)c2[O-])ccc1[O-]

>  <Energy>  (14) 
84.39869123356935

>  <Genealogy>  (14) 
CC(C)(C)OC(=O)[N-]Cc1cc(-c2cc(CC(=O)[N-]c3ccc(-c4ccccc4)cc3)cc(S([NH-])(=O)=O)c2[O-])ccc1[O-] (protonated)
CC(C)(C)OC(=O)[N-]Cc1cc(-c2cc(CC(=O)[N-]c3ccc(-c4ccccc4)cc3)cc(S([NH-])(=O)=O)c2[O-])ccc1[O-] (3D coordinates assigned)
CC(C)(C)OC(=O)[N-]Cc1cc(-c2cc(CC(=O)[N-]c3ccc(-c4ccccc4)cc3)cc(S([NH-])(=O)=O)c2[O-])ccc1[O-] (optimized conformer: 84.39869123356935 kcal/mol)

>  <smiles>  (14) 
CC(C)(C)OC(=O)NCc1cc(-c2cc(CC(=O)Nc3ccc(-c4ccccc4)cc3)cc(S(N)(=O)=O)c2O)ccc1O

>  <score_type>  (14) 
oracle

>  <origin>  (14) 
adg

>  <m_score__min__energy>  (14) 
-17.5

>  <m_primary>  (14) 
energy

$$$$
14:0
     RDKit          3D

 37 39  0  0  0  0  0  0  0  0999 V2000
   58.9080   32.3780   45.2610 N   0  0  0  0  0  0  0  0  0  0  0  0
   59.3340   33.3700   46.6130 S   0  0  0  0  0  0  0  0  0  0  0  0
   59.1750   34.8120   46.2130 O   0  0  0  0  0  0  0  0  0  0  0  0
   58.4130   33.0790   47.7640 O   0  0  0  0  0  0  0  0  0  0  0  0
   61.0100   33.0610   47.0970 C   0  0  0  0  0  0  0  0  0  0  0  0
   61.8950   34.1470   47.1960 C   0  0  0  0  0  0  0  0  0  0  0  0
   63.2370   33.9430   47.5270 C   0  0  0  0  0  0  0  0  0  0  0  0
   63.7110   32.6540   47.7640 C   0  0  0  0  0  0  0  0  0  0  0  0
   62.8430   31.5630   47.6790 C   0  0  0  0  0  0  0  0  0  0  0  0
   61.4880   31.7520   47.3600 C   0  0  0  0  0  0  0  0  0  0  0  0
   60.6080   30.5680   47.3120 C   0  0  0  0  0  0  0  0  0  0  0  0
   60.7620   29.6200   46.2900 C   0  0  0  0  0  0  0  0  0  0  0  0
   59.9310   28.4960   46.2390 C   0  0  0  0  0  0  0  0  0  0  0  0
   58.9510   28.2950   47.2270 C   0  0  0  0  0  0  0  0  0  0  0  0
   58.0600   27.1700   47.1980 N   0  0  0  0  0  0  0  0  0  0  0  0
   56.9840   26.9580   46.2760 C   0  0  0  0  0  0  0  0  0  0  0  0
   55.9410   26.3440   46.6290 O   0  0  0  0  0  0  0  0  0  0  0  0
   57.0990   27.4800   44.8800 C   0  0  0  0  0  0  0  0  0  0  0  0
   56.6610   28.9060   44.8360 C   0  0  0  0  0  0  0  0  0  0  0  0
   57.4690   29.9540   45.0760 N   0  0  0  0  0  0  0  0  0  0  0  0
   56.7070   31.0160   44.8700 N   0  0  0  0  0  0  0  0  0  0  0  0
   55.4920   30.6330   44.5100 N   0  0  0  0  0  0  0  0  0  0  0  0
   55.4320   29.3120   44.4730 N   0  0  0  0  0  0  0  0  0  0  0  0
   58.7950   29.2480   48.2410 C   0  0  0  0  0  0  0  0  0  0  0  0
   59.6260   30.3710   48.2920 C   0  0  0  0  0  0  0  0  0  0  0  0
   58.0060   32.7460   44.8840 H   0  0  0  0  0  0  0  0  0  0  0  0
   58.7150   31.4210   45.6320 H   0  0  0  0  0  0  0  0  0  0  0  0
   61.5283   35.1675   47.0113 H   0  0  0  0  0  0  0  0  0  0  0  0
   63.9208   34.8015   47.6007 H   0  0  0  0  0  0  0  0  0  0  0  0
   64.7695   32.4957   48.0182 H   0  0  0  0  0  0  0  0  0  0  0  0
   63.2235   30.5475   47.8634 H   0  0  0  0  0  0  0  0  0  0  0  0
   61.5398   29.7610   45.5251 H   0  0  0  0  0  0  0  0  0  0  0  0
   60.0446   27.7669   45.4232 H   0  0  0  0  0  0  0  0  0  0  0  0
   58.1455   27.4090   44.5486 H   0  0  0  0  0  0  0  0  0  0  0  0
   56.4583   26.8825   44.2148 H   0  0  0  0  0  0  0  0  0  0  0  0
   58.0131   29.1121   49.0027 H   0  0  0  0  0  0  0  0  0  0  0  0
   59.5085   31.1029   49.1047 H   0  0  0  0  0  0  0  0  0  0  0  0
  1  2  1  0
  2  3  2  0
  2  4  2  0
  2  5  1  0
  5  6  2  0
  6  7  1  0
  7  8  2  0
  8  9  1  0
  9 10  2  0
 10 11  1  0
 11 12  2  0
 12 13  1  0
 13 14  2  0
 14 15  1  0
 15 16  1  0
 16 17  2  0
 16 18  1  0
 18 19  1  0
 19 20  1  0
 20 21  2  0
 21 22  1  0
 22 23  1  0
 14 24  1  0
 24 25  2  0
 10  5  1  0
 25 11  1  0
 23 19  2  0
  1 26  1  0
  1 27  1  0
  6 28  1  0
  7 29  1  0
  8 30  1  0
  9 31  1  0
 12 32  1  0
 13 33  1  0
 18 34  1  0
 18 35  1  0
 24 36  1  0
 25 37  1  0
M  CHG  2  15  -1  22  -1
M  END
>  <UniqueID>  (15) 
14

>  <SMILES>  (15) 
NS(=O)(=O)c1ccccc1-c1ccc([N-]C(=O)Cc2nn[n-]n2)cc1

>  <Energy>  (15) 
85.34307891976414

>  <Genealogy>  (15) 
NS(=O)(=O)c1ccccc1-c1ccc([N-]C(=O)Cc2nn[n-]n2)cc1 (protonated)
NS(=O)(=O)c1ccccc1-c1ccc([N-]C(=O)Cc2nn[n-]n2)cc1 (3D coordinates assigned)
NS(=O)(=O)c1ccccc1-c1ccc([N-]C(=O)Cc2nn[n-]n2)cc1 (optimized conformer: 85.34307891976414 kcal/mol)

>  <smiles>  (15) 
NS(=O)(=O)c1ccccc1-c1ccc(NC(=O)Cc2nn[nH]n2)cc1

>  <score_type>  (15) 
oracle

>  <origin>  (15) 
adg

>  <m_score__min__energy>  (15) 
-12.02

>  <m_primary>  (15) 
energy

$$$$
15:0
     RDKit          3D

 35 36  0  0  0  0  0  0  0  0999 V2000
   57.7860   28.1370   47.0670 O   0  0  0  0  0  0  0  0  0  0  0  0
   57.2620   27.6010   46.0570 C   0  0  0  0  0  0  0  0  0  0  0  0
   57.4180   28.2270   44.7790 N   0  0  0  0  0  0  0  0  0  0  0  0
   56.5870   29.6770   44.3100 S   0  0  0  0  0  0  0  0  0  0  0  0
   55.1730   29.6110   44.8190 O   0  0  0  0  0  0  0  0  0  0  0  0
   56.5550   29.7620   42.8120 O   0  0  0  0  0  0  0  0  0  0  0  0
   57.4020   31.0990   44.9500 C   0  0  0  0  0  0  0  0  0  0  0  0
   58.4310   30.9640   45.8940 C   0  0  0  0  0  0  0  0  0  0  0  0
   59.0960   32.0950   46.3750 C   0  0  0  0  0  0  0  0  0  0  0  0
   58.7320   33.3680   45.9210 C   0  0  0  0  0  0  0  0  0  0  0  0
   59.6440   34.9120   46.5760 Br  0  0  0  0  0  0  0  0  0  0  0  0
   57.6990   33.5070   44.9880 C   0  0  0  0  0  0  0  0  0  0  0  0
   57.0340   32.3750   44.5040 C   0  0  0  0  0  0  0  0  0  0  0  0
   56.5060   26.3510   46.2170 C   0  0  0  0  0  0  0  0  0  0  0  0
   55.2640   26.3450   46.0100 O   0  0  0  0  0  0  0  0  0  0  0  0
   57.1740   25.1460   46.6150 N   0  0  0  0  0  0  0  0  0  0  0  0
   56.5010   23.8480   46.6130 C   0  0  0  0  0  0  0  0  0  0  0  0
   56.5900   23.2130   45.2500 C   0  0  0  0  0  0  0  0  0  0  0  0
   55.7640   23.6650   44.2090 C   0  0  0  0  0  0  0  0  0  0  0  0
   55.8070   23.0470   42.9560 C   0  0  0  0  0  0  0  0  0  0  0  0
   56.6740   21.9750   42.7330 C   0  0  0  0  0  0  0  0  0  0  0  0
   57.5000   21.5180   43.7640 C   0  0  0  0  0  0  0  0  0  0  0  0
   57.4570   22.1320   45.0200 C   0  0  0  0  0  0  0  0  0  0  0  0
   58.7151   29.9651   46.2565 H   0  0  0  0  0  0  0  0  0  0  0  0
   59.9061   31.9848   47.1109 H   0  0  0  0  0  0  0  0  0  0  0  0
   57.4091   34.5075   44.6344 H   0  0  0  0  0  0  0  0  0  0  0  0
   56.2207   32.4872   43.7719 H   0  0  0  0  0  0  0  0  0  0  0  0
   58.1920   25.1790   46.8490 H   0  0  0  0  0  0  0  0  0  0  0  0
   56.9812   23.1895   47.3518 H   0  0  0  0  0  0  0  0  0  0  0  0
   55.4416   23.9948   46.8700 H   0  0  0  0  0  0  0  0  0  0  0  0
   55.0799   24.5092   44.3800 H   0  0  0  0  0  0  0  0  0  0  0  0
   55.1570   23.4055   42.1443 H   0  0  0  0  0  0  0  0  0  0  0  0
   56.7069   21.4903   41.7461 H   0  0  0  0  0  0  0  0  0  0  0  0
   58.1842   20.6750   43.5874 H   0  0  0  0  0  0  0  0  0  0  0  0
   58.1046   21.7670   45.8308 H   0  0  0  0  0  0  0  0  0  0  0  0
  1  2  2  0
  2  3  1  0
  3  4  1  0
  4  5  2  0
  4  6  2  0
  4  7  1  0
  7  8  2  0
  8  9  1  0
  9 10  2  0
 10 11  1  0
 10 12  1  0
 12 13  2  0
  2 14  1  0
 14 15  2  0
 14 16  1  0
 16 17  1  0
 17 18  1  0
 18 19  2  0
 19 20  1  0
 20 21  2  0
 21 22  1  0
 22 23  2  0
 13  7  1  0
 23 18  1  0
  8 24  1  0
  9 25  1  0
 12 26  1  0
 13 27  1  0
 16 28  1  0
 17 29  1  0
 17 30  1  0
 19 31  1  0
 20 32  1  0
 21 33  1  0
 22 34  1  0
 23 35  1  0
M  CHG  1   3  -1
M  END
>  <UniqueID>  (16) 
15

>  <SMILES>  (16) 
O=C([N-]S(=O)(=O)c1ccc(Br)cc1)C(=O)NCc1ccccc1

>  <Energy>  (16) 
36.6037647960481

>  <Genealogy>  (16) 
O=C([N-]S(=O)(=O)c1ccc(Br)cc1)C(=O)NCc1ccccc1 (protonated)
O=C([N-]S(=O)(=O)c1ccc(Br)cc1)C(=O)NCc1ccccc1 (3D coordinates assigned)
O=C([N-]S(=O)(=O)c1ccc(Br)cc1)C(=O)NCc1ccccc1 (optimized conformer: 36.6037647960481 kcal/mol)

>  <smiles>  (16) 
O=C(NCc1ccccc1)C(=O)NS(=O)(=O)c1ccc(Br)cc1

>  <score_type>  (16) 
oracle

>  <origin>  (16) 
adg

>  <m_score__min__energy>  (16) 
-9.8900000000000006

>  <m_primary>  (16) 
energy

$$$$
16:0
     RDKit          3D

 33 34  0  0  0  0  0  0  0  0999 V2000
   56.2130   30.7920   44.5580 O   0  0  0  0  0  0  0  0  0  0  0  0
   57.3840   30.6440   44.9960 C   0  0  0  0  0  0  0  0  0  0  0  0
   58.3590   29.7780   44.2340 C   0  0  0  0  0  0  0  0  0  0  0  0
   58.2700   28.2900   44.6220 C   0  0  0  0  0  0  0  0  0  0  0  0
   56.9900   27.9290   45.3940 C   0  0  0  0  0  0  0  0  0  0  0  0
   57.0470   26.5700   45.9580 N   0  0  0  0  0  0  0  0  0  0  0  0
   58.2690   26.0170   46.2280 C   0  0  0  0  0  0  0  0  0  0  0  0
   58.3660   24.7270   46.7440 C   0  0  0  0  0  0  0  0  0  0  0  0
   57.1930   24.0190   46.9860 C   0  0  0  0  0  0  0  0  0  0  0  0
   57.2410   22.8490   47.4500 O   0  0  0  0  0  0  0  0  0  0  0  0
   55.9930   24.5930   46.7230 N   0  0  0  0  0  0  0  0  0  0  0  0
   55.9060   25.8510   46.2180 C   0  0  0  0  0  0  0  0  0  0  0  0
   54.7670   26.3400   45.9940 O   0  0  0  0  0  0  0  0  0  0  0  0
   57.7540   31.3170   46.2070 N   0  0  0  0  0  0  0  0  0  0  0  0
   58.7740   32.3160   46.3280 C   0  0  0  0  0  0  0  0  0  0  0  0
   59.9730   31.9790   46.9700 C   0  0  0  0  0  0  0  0  0  0  0  0
   60.9940   32.9240   47.1050 C   0  0  0  0  0  0  0  0  0  0  0  0
   60.8140   34.2210   46.6200 C   0  0  0  0  0  0  0  0  0  0  0  0
   59.6060   34.5810   46.0190 C   0  0  0  0  0  0  0  0  0  0  0  0
   58.5770   33.6410   45.8790 C   0  0  0  0  0  0  0  0  0  0  0  0
   57.0310   34.1810   45.2390 Cl  0  0  0  0  0  0  0  0  0  0  0  0
   58.1471   29.8735   43.1588 H   0  0  0  0  0  0  0  0  0  0  0  0
   59.3728   30.1240   44.4841 H   0  0  0  0  0  0  0  0  0  0  0  0
   58.3020   27.6884   43.7016 H   0  0  0  0  0  0  0  0  0  0  0  0
   59.1186   28.0801   45.2897 H   0  0  0  0  0  0  0  0  0  0  0  0
   56.8566   28.6484   46.2154 H   0  0  0  0  0  0  0  0  0  0  0  0
   56.1471   27.9674   44.6883 H   0  0  0  0  0  0  0  0  0  0  0  0
   59.1837   26.5969   46.0357 H   0  0  0  0  0  0  0  0  0  0  0  0
   59.3477   24.2781   46.9554 H   0  0  0  0  0  0  0  0  0  0  0  0
   60.1117   30.9639   47.3705 H   0  0  0  0  0  0  0  0  0  0  0  0
   61.9396   32.6459   47.5934 H   0  0  0  0  0  0  0  0  0  0  0  0
   61.6241   34.9595   46.7114 H   0  0  0  0  0  0  0  0  0  0  0  0
   59.4617   35.6084   45.6535 H   0  0  0  0  0  0  0  0  0  0  0  0
  1  2  2  0
  2  3  1  0
  3  4  1  0
  4  5  1  0
  5  6  1  0
  6  7  1  0
  7  8  2  0
  8  9  1  0
  9 10  2  0
  9 11  1  0
 11 12  1  0
 12 13  2  0
  2 14  1  0
 14 15  1  0
 15 16  2  0
 16 17  1  0
 17 18  2  0
 18 19  1  0
 19 20  2  0
 20 21  1  0
 12  6  1  0
 20 15  1  0
  3 22  1  0
  3 23  1  0
  4 24  1  0
  4 25  1  0
  5 26  1  0
  5 27  1  0
  7 28  1  0
  8 29  1  0
 16 30  1  0
 17 31  1  0
 18 32  1  0
 19 33  1  0
M  CHG  2  11  -1  14  -1
M  END
>  <UniqueID>  (17) 
16

>  <SMILES>  (17) 
O=C(CCCn1ccc(=O)[n-]c1=O)[N-]c1ccccc1Cl

>  <Energy>  (17) 
39.38725168415434

>  <Genealogy>  (17) 
O=C(CCCn1ccc(=O)[n-]c1=O)[N-]c1ccccc1Cl (protonated)
O=C(CCCn1ccc(=O)[n-]c1=O)[N-]c1ccccc1Cl (3D coordinates assigned)
O=C(CCCn1ccc(=O)[n-]c1=O)[N-]c1ccccc1Cl (optimized conformer: 39.38725168415434 kcal/mol)

>  <smiles>  (17) 
O=C(CCCn1ccc(=O)[nH]c1=O)Nc1ccccc1Cl

>  <score_type>  (17) 
oracle

>  <origin>  (17) 
adg

>  <m_score__min__energy>  (17) 
-11.140000000000001

>  <m_primary>  (17) 
energy

$$$$
17:0
     RDKit          3D

 35 37  0  0  0  0  0  0  0  0999 V2000
   57.4360   33.7760   46.6210 C   0  0  0  0  0  0  0  0  0  0  0  0
   57.6300   32.5880   45.7360 C   0  0  0  0  0  0  0  0  0  0  0  0
   56.6530   32.0670   44.9620 N   0  0  0  0  0  0  0  0  0  0  0  0
   57.2290   30.9930   44.3820 C   0  0  0  0  0  0  0  0  0  0  0  0
   56.4150   30.0170   43.3490 S   0  0  0  0  0  0  0  0  0  0  0  0
   58.5190   30.8150   44.7590 N   0  0  0  0  0  0  0  0  0  0  0  0
   59.3650   29.7230   44.4470 N   0  0  0  0  0  0  0  0  0  0  0  0
   58.8250   28.5160   45.0250 C   0  0  0  0  0  0  0  0  0  0  0  0
   58.3940   27.4630   44.2000 C   0  0  0  0  0  0  0  0  0  0  0  0
   57.8420   26.3060   44.7570 C   0  0  0  0  0  0  0  0  0  0  0  0
   57.7160   26.1880   46.1450 C   0  0  0  0  0  0  0  0  0  0  0  0
   56.9540   24.6110   46.9040 Br  0  0  0  0  0  0  0  0  0  0  0  0
   58.1480   27.2250   46.9750 C   0  0  0  0  0  0  0  0  0  0  0  0
   58.7040   28.3820   46.4210 C   0  0  0  0  0  0  0  0  0  0  0  0
   58.7760   31.8210   45.6220 C   0  0  0  0  0  0  0  0  0  0  0  0
   60.0380   32.0130   46.3600 C   0  0  0  0  0  0  0  0  0  0  0  0
   60.6250   30.9360   47.0440 C   0  0  0  0  0  0  0  0  0  0  0  0
   61.8340   31.1120   47.7240 C   0  0  0  0  0  0  0  0  0  0  0  0
   62.4580   32.3630   47.7330 C   0  0  0  0  0  0  0  0  0  0  0  0
   61.8730   33.4410   47.0620 C   0  0  0  0  0  0  0  0  0  0  0  0
   60.6650   33.2680   46.3790 C   0  0  0  0  0  0  0  0  0  0  0  0
   57.4874   33.4613   47.6738 H   0  0  0  0  0  0  0  0  0  0  0  0
   58.2253   34.5155   46.4204 H   0  0  0  0  0  0  0  0  0  0  0  0
   56.4525   34.2260   46.4204 H   0  0  0  0  0  0  0  0  0  0  0  0
   59.4420   29.6050   43.4120 H   0  0  0  0  0  0  0  0  0  0  0  0
   60.3230   29.9250   44.8100 H   0  0  0  0  0  0  0  0  0  0  0  0
   58.4918   27.5500   43.1078 H   0  0  0  0  0  0  0  0  0  0  0  0
   57.5064   25.4875   44.1032 H   0  0  0  0  0  0  0  0  0  0  0  0
   58.0506   27.1312   48.0667 H   0  0  0  0  0  0  0  0  0  0  0  0
   59.0489   29.1924   47.0800 H   0  0  0  0  0  0  0  0  0  0  0  0
   60.1328   29.9523   47.0448 H   0  0  0  0  0  0  0  0  0  0  0  0
   62.2949   30.2647   48.2528 H   0  0  0  0  0  0  0  0  0  0  0  0
   63.4094   32.4992   48.2681 H   0  0  0  0  0  0  0  0  0  0  0  0
   62.3631   34.4257   47.0713 H   0  0  0  0  0  0  0  0  0  0  0  0
   60.2049   34.1187   45.8549 H   0  0  0  0  0  0  0  0  0  0  0  0
  1  2  1  0
  2  3  1  0
  3  4  1  0
  4  5  2  0
  4  6  1  0
  6  7  1  0
  7  8  1  0
  8  9  2  0
  9 10  1  0
 10 11  2  0
 11 12  1  0
 11 13  1  0
 13 14  2  0
  6 15  1  0
 15 16  1  0
 16 17  2  0
 17 18  1  0
 18 19  2  0
 19 20  1  0
 20 21  2  0
 15  2  2  0
 21 16  1  0
 14  8  1  0
  1 22  1  0
  1 23  1  0
  1 24  1  0
  7 25  1  0
  7 26  1  0
  9 27  1  0
 10 28  1  0
 13 29  1  0
 14 30  1  0
 17 31  1  0
 18 32  1  0
 19 33  1  0
 20 34  1  0
 21 35  1  0
M  CHG  2   3  -1   7   1
M  END
>  <UniqueID>  (18) 
17

>  <SMILES>  (18) 
Cc1[n-]c(=S)n([NH2+]c2ccc(Br)cc2)c1-c1ccccc1

>  <Energy>  (18) 
75.04533447069824

>  <Genealogy>  (18) 
Cc1[n-]c(=S)n([NH2+]c2ccc(Br)cc2)c1-c1ccccc1 (protonated)
Cc1[n-]c(=S)n([NH2+]c2ccc(Br)cc2)c1-c1ccccc1 (3D coordinates assigned)
Cc1[n-]c(=S)n([NH2+]c2ccc(Br)cc2)c1-c1ccccc1 (optimized conformer: 75.04533447069824 kcal/mol)

>  <smiles>  (18) 
Cc1[nH]c(=S)n(Nc2ccc(Br)cc2)c1-c1ccccc1

>  <score_type>  (18) 
oracle

>  <origin>  (18) 
adg

>  <m_score__min__energy>  (18) 
-7.2699999999999996

>  <m_primary>  (18) 
energy

$$$$
18:0
     RDKit          3D

 48 49  0  0  0  0  0  0  0  0999 V2000
   59.1220   23.8690   45.6190 C   0  0  0  0  0  0  0  0  0  0  0  0
   59.4470   22.5480   44.9310 C   0  0  0  0  0  0  0  0  0  0  0  0
   58.1750   21.8570   44.4280 C   0  0  0  0  0  0  0  0  0  0  0  0
   57.0280   22.7530   44.5490 N   0  0  0  0  0  0  0  0  0  0  0  0
   55.9590   22.7710   43.5930 C   0  0  0  0  0  0  0  0  0  0  0  0
   55.9690   21.9830   42.6100 O   0  0  0  0  0  0  0  0  0  0  0  0
   54.7920   23.6930   43.7860 C   0  0  0  0  0  0  0  0  0  0  0  0
   54.3260   23.6700   45.2440 C   0  0  0  0  0  0  0  0  0  0  0  0
   54.3270   25.0180   45.8020 N   0  0  0  0  0  0  0  0  0  0  0  0
   55.5120   25.7930   46.0040 C   0  0  0  0  0  0  0  0  0  0  0  0
   56.5460   25.2260   46.4470 O   0  0  0  0  0  0  0  0  0  0  0  0
   55.5320   27.1830   45.6510 N   0  0  0  0  0  0  0  0  0  0  0  0
   56.6760   27.9560   45.2560 C   0  0  0  0  0  0  0  0  0  0  0  0
   57.9820   27.4590   45.3730 C   0  0  0  0  0  0  0  0  0  0  0  0
   59.0620   28.2500   44.9910 C   0  0  0  0  0  0  0  0  0  0  0  0
   58.8360   29.5370   44.5100 C   0  0  0  0  0  0  0  0  0  0  0  0
   57.5660   30.0400   44.4250 N   0  0  0  0  0  0  0  0  0  0  0  0
   57.3740   31.4000   43.8910 C   0  0  0  0  0  0  0  0  0  0  0  0
   57.9230   32.4210   44.8540 C   0  0  0  0  0  0  0  0  0  0  0  0
   57.8050   32.2330   46.2430 C   0  0  0  0  0  0  0  0  0  0  0  0
   58.2790   33.2050   47.1300 C   0  0  0  0  0  0  0  0  0  0  0  0
   58.8650   34.3750   46.6380 C   0  0  0  0  0  0  0  0  0  0  0  0
   59.3250   35.3160   47.5010 F   0  0  0  0  0  0  0  0  0  0  0  0
   58.9770   34.5740   45.2580 C   0  0  0  0  0  0  0  0  0  0  0  0
   58.5080   33.6020   44.3680 C   0  0  0  0  0  0  0  0  0  0  0  0
   56.4890   29.2670   44.7880 C   0  0  0  0  0  0  0  0  0  0  0  0
   55.3150   29.7250   44.7010 O   0  0  0  0  0  0  0  0  0  0  0  0
   59.1556   23.7322   46.7099 H   0  0  0  0  0  0  0  0  0  0  0  0
   59.8601   24.6285   45.3217 H   0  0  0  0  0  0  0  0  0  0  0  0
   58.1158   24.1994   45.3217 H   0  0  0  0  0  0  0  0  0  0  0  0
   60.1114   22.7427   44.0762 H   0  0  0  0  0  0  0  0  0  0  0  0
   59.9371   21.8867   45.6608 H   0  0  0  0  0  0  0  0  0  0  0  0
   58.3073   21.5779   43.3723 H   0  0  0  0  0  0  0  0  0  0  0  0
   57.9922   20.9587   45.0360 H   0  0  0  0  0  0  0  0  0  0  0  0
   57.0100   23.4340   45.3420 H   0  0  0  0  0  0  0  0  0  0  0  0
   55.0914   24.7169   43.5178 H   0  0  0  0  0  0  0  0  0  0  0  0
   53.9646   23.3590   43.1427 H   0  0  0  0  0  0  0  0  0  0  0  0
   53.3067   23.2592   45.2918 H   0  0  0  0  0  0  0  0  0  0  0  0
   55.0155   23.0427   45.8280 H   0  0  0  0  0  0  0  0  0  0  0  0
   58.1528   26.4459   45.7659 H   0  0  0  0  0  0  0  0  0  0  0  0
   60.0878   27.8606   45.0687 H   0  0  0  0  0  0  0  0  0  0  0  0
   59.6883   30.1568   44.1946 H   0  0  0  0  0  0  0  0  0  0  0  0
   57.8989   31.4896   42.9285 H   0  0  0  0  0  0  0  0  0  0  0  0
   56.2981   31.5815   43.7511 H   0  0  0  0  0  0  0  0  0  0  0  0
   57.3376   31.3170   46.6335 H   0  0  0  0  0  0  0  0  0  0  0  0
   58.1906   33.0488   48.2153 H   0  0  0  0  0  0  0  0  0  0  0  0
   59.4348   35.4967   44.8718 H   0  0  0  0  0  0  0  0  0  0  0  0
   58.5976   33.7631   43.2836 H   0  0  0  0  0  0  0  0  0  0  0  0
  1  2  1  0
  2  3  1  0
  3  4  1  0
  4  5  1  0
  5  6  2  0
  5  7  1  0
  7  8  1  0
  8  9  1  0
  9 10  1  0
 10 11  2  0
 10 12  1  0
 12 13  1  0
 13 14  2  0
 14 15  1  0
 15 16  2  0
 16 17  1  0
 17 18  1  0
 18 19  1  0
 19 20  2  0
 20 21  1  0
 21 22  2  0
 22 23  1  0
 22 24  1  0
 24 25  2  0
 17 26  1  0
 26 27  2  0
 26 13  1  0
 25 19  1  0
  1 28  1  0
  1 29  1  0
  1 30  1  0
  2 31  1  0
  2 32  1  0
  3 33  1  0
  3 34  1  0
  4 35  1  0
  7 36  1  0
  7 37  1  0
  8 38  1  0
  8 39  1  0
 14 40  1  0
 15 41  1  0
 16 42  1  0
 18 43  1  0
 18 44  1  0
 20 45  1  0
 21 46  1  0
 24 47  1  0
 25 48  1  0
M  CHG  2   9  -1  12  -1
M  END
>  <UniqueID>  (19) 
18

>  <SMILES>  (19) 
CCCNC(=O)CC[N-]C(=O)[N-]c1cccn(Cc2ccc(F)cc2)c1=O

>  <Energy>  (19) 
40.26362816018697

>  <Genealogy>  (19) 
CCCNC(=O)CC[N-]C(=O)[N-]c1cccn(Cc2ccc(F)cc2)c1=O (protonated)
CCCNC(=O)CC[N-]C(=O)[N-]c1cccn(Cc2ccc(F)cc2)c1=O (3D coordinates assigned)
CCCNC(=O)CC[N-]C(=O)[N-]c1cccn(Cc2ccc(F)cc2)c1=O (optimized conformer: 40.26362816018697 kcal/mol)

>  <smiles>  (19) 
CCCNC(=O)CCNC(=O)Nc1cccn(Cc2ccc(F)cc2)c1=O

>  <score_type>  (19) 
oracle

>  <origin>  (19) 
adg

>  <m_score__min__energy>  (19) 
-12.359999999999999

>  <m_primary>  (19) 
energy

$$$$
19:0
     RDKit          3D

 35 37  0  0  0  0  0  0  0  0999 V2000
   58.0290   33.4527   42.4711 H   0  0  0  0  0  0  0  0  0  0  0  0
   57.9030   32.6110   43.1680 C   0  0  0  0  0  0  0  0  0  0  0  0
   58.3440   32.7170   44.4480 N   0  0  0  0  0  0  0  0  0  0  0  0
   58.2030   31.7070   45.3550 C   0  0  0  0  0  0  0  0  0  0  0  0
   58.6720   31.8440   46.5620 N   0  0  0  0  0  0  0  0  0  0  0  0
   60.0300   32.1880   46.8710 C   0  0  0  0  0  0  0  0  0  0  0  0
   60.9520   31.1650   47.1220 C   0  0  0  0  0  0  0  0  0  0  0  0
   60.6267   30.1148   47.0877 H   0  0  0  0  0  0  0  0  0  0  0  0
   62.2840   31.4710   47.4160 C   0  0  0  0  0  0  0  0  0  0  0  0
   63.0016   30.6630   47.6214 H   0  0  0  0  0  0  0  0  0  0  0  0
   62.7040   32.8040   47.4490 C   0  0  0  0  0  0  0  0  0  0  0  0
   63.7508   33.0452   47.6859 H   0  0  0  0  0  0  0  0  0  0  0  0
   61.7940   33.8300   47.1810 C   0  0  0  0  0  0  0  0  0  0  0  0
   62.1291   34.8775   47.2011 H   0  0  0  0  0  0  0  0  0  0  0  0
   60.4580   33.5320   46.8870 C   0  0  0  0  0  0  0  0  0  0  0  0
   59.3600   34.8480   46.4940 Cl  0  0  0  0  0  0  0  0  0  0  0  0
   57.5620   30.5080   44.9670 C   0  0  0  0  0  0  0  0  0  0  0  0
   57.3720   29.3650   45.8950 C   0  0  0  0  0  0  0  0  0  0  0  0
   57.9900   29.3580   46.9920 O   0  0  0  0  0  0  0  0  0  0  0  0
   56.4810   28.2780   45.6050 N   0  0  0  0  0  0  0  0  0  0  0  0
   56.7320   26.8800   45.8100 C   0  0  0  0  0  0  0  0  0  0  0  0
   58.0550   26.4240   45.7410 C   0  0  0  0  0  0  0  0  0  0  0  0
   58.8681   27.1361   45.5367 H   0  0  0  0  0  0  0  0  0  0  0  0
   58.3490   25.0700   45.9300 C   0  0  0  0  0  0  0  0  0  0  0  0
   59.3914   24.7220   45.8816 H   0  0  0  0  0  0  0  0  0  0  0  0
   57.3210   24.1600   46.1800 C   0  0  0  0  0  0  0  0  0  0  0  0
   57.5551   23.0984   46.3479 H   0  0  0  0  0  0  0  0  0  0  0  0
   55.9950   24.5970   46.2170 C   0  0  0  0  0  0  0  0  0  0  0  0
   55.1860   23.8760   46.4058 H   0  0  0  0  0  0  0  0  0  0  0  0
   55.6910   25.9480   46.0150 C   0  0  0  0  0  0  0  0  0  0  0  0
   54.3580   26.3400   45.9830 O   0  0  0  0  0  0  0  0  0  0  0  0
   57.1280   30.3830   43.6370 C   0  0  0  0  0  0  0  0  0  0  0  0
   56.6561   29.4474   43.3023 H   0  0  0  0  0  0  0  0  0  0  0  0
   57.2910   31.4360   42.7380 C   0  0  0  0  0  0  0  0  0  0  0  0
   56.9400   31.3399   41.7000 H   0  0  0  0  0  0  0  0  0  0  0  0
  1  2  1  0
  2  3  1  0
  3  4  1  0
  4  5  2  0
  5  6  1  0
  6  7  2  0
  7  8  1  0
  7  9  1  0
  9 10  1  0
  9 11  2  0
 11 12  1  0
 11 13  1  0
 13 14  1  0
 13 15  2  0
 15 16  1  0
  4 17  1  0
 17 18  1  0
 18 19  2  0
 18 20  1  0
 20 21  1  0
 21 22  2  0
 22 23  1  0
 22 24  1  0
 24 25  1  0
 24 26  2  0
 26 27  1  0
 26 28  1  0
 28 29  1  0
 28 30  2  0
 30 31  1  0
 17 32  2  0
 32 33  1  0
 32 34  1  0
 34 35  1  0
 34  2  2  0
 15  6  1  0
 30 21  1  0
M  CHG  3   3  -1  20  -1  31  -1
M  END
>  <UniqueID>  (20) 
19

>  <SMILES>  (20) 
O=C([N-]c1ccccc1[O-])c1ccc[n-]/c1=N\c1ccccc1Cl

>  <Energy>  (20) 
57.318754023898975

>  <Genealogy>  (20) 
O=C([N-]c1ccccc1[O-])c1ccc[n-]c1=Nc1ccccc1Cl (protonated)
O=C([N-]c1ccccc1[O-])c1ccc[n-]/c1=N\c1ccccc1Cl (cis-trans isomerization)
O=C([N-]c1ccccc1[O-])c1ccc[n-]/c1=N\c1ccccc1Cl (3D coordinates assigned)
O=C([N-]c1ccccc1[O-])c1ccc[n-]/c1=N\c1ccccc1Cl (optimized conformer: 57.318754023898975 kcal/mol)

>  <smiles>  (20) 
O=C(Nc1ccccc1O)c1ccc[nH]c1=Nc1ccccc1Cl

>  <score_type>  (20) 
oracle

>  <origin>  (20) 
adg

>  <m_score__min__energy>  (20) 
-15.550000000000001

>  <m_primary>  (20) 
energy

$$$$
20:0
     RDKit          3D

 40 42  0  0  0  0  0  0  0  0999 V2000
   58.0740   30.8860   43.3420 O   0  0  0  0  0  0  0  0  0  0  0  0
   57.6770   30.6370   44.5130 C   0  0  0  0  0  0  0  0  0  0  0  0
   57.3960   31.7200   45.4110 N   0  0  0  0  0  0  0  0  0  0  0  0
   58.3370   32.6790   45.9200 C   0  0  0  0  0  0  0  0  0  0  0  0
   59.5230   32.2720   46.5580 C   0  0  0  0  0  0  0  0  0  0  0  0
   60.4490   33.2200   47.0090 C   0  0  0  0  0  0  0  0  0  0  0  0
   61.9450   32.6990   47.7810 S   0  0  0  0  0  0  0  0  0  0  0  0
   62.8700   33.8760   47.8900 O   0  0  0  0  0  0  0  0  0  0  0  0
   62.6100   31.6230   46.9690 O   0  0  0  0  0  0  0  0  0  0  0  0
   61.6190   32.0850   49.3700 N   0  0  0  0  0  0  0  0  0  0  0  0
   60.3830   32.2430   50.0840 C   0  0  0  0  0  0  0  0  0  0  0  0
   60.1410   33.3570   50.9110 C   0  0  0  0  0  0  0  0  0  0  0  0
   58.9330   33.4730   51.6030 C   0  0  0  0  0  0  0  0  0  0  0  0
   57.9550   32.4850   51.4770 C   0  0  0  0  0  0  0  0  0  0  0  0
   58.1820   31.3800   50.6560 C   0  0  0  0  0  0  0  0  0  0  0  0
   59.3900   31.2550   49.9590 C   0  0  0  0  0  0  0  0  0  0  0  0
   59.6470   29.8450   48.9410 Cl  0  0  0  0  0  0  0  0  0  0  0  0
   60.1920   34.5830   46.8240 C   0  0  0  0  0  0  0  0  0  0  0  0
   59.0280   34.9950   46.1730 C   0  0  0  0  0  0  0  0  0  0  0  0
   58.1030   34.0520   45.7110 C   0  0  0  0  0  0  0  0  0  0  0  0
   56.9580   34.5020   45.0540 O   0  0  0  0  0  0  0  0  0  0  0  0
   57.5710   29.2260   44.9700 C   0  0  0  0  0  0  0  0  0  0  0  0
   58.7430   28.4580   45.1200 C   0  0  0  0  0  0  0  0  0  0  0  0
   58.6770   27.1300   45.5490 C   0  0  0  0  0  0  0  0  0  0  0  0
   57.4430   26.5470   45.8360 C   0  0  0  0  0  0  0  0  0  0  0  0
   56.2690   27.2880   45.6890 C   0  0  0  0  0  0  0  0  0  0  0  0
   55.0440   26.6960   45.9730 O   0  0  0  0  0  0  0  0  0  0  0  0
   56.3230   28.6210   45.2560 C   0  0  0  0  0  0  0  0  0  0  0  0
   55.1310   29.3210   45.1070 O   0  0  0  0  0  0  0  0  0  0  0  0
   59.7242   31.2004   46.7036 H   0  0  0  0  0  0  0  0  0  0  0  0
   60.9071   34.1398   51.0126 H   0  0  0  0  0  0  0  0  0  0  0  0
   58.7521   34.3450   52.2487 H   0  0  0  0  0  0  0  0  0  0  0  0
   57.0056   32.5776   52.0248 H   0  0  0  0  0  0  0  0  0  0  0  0
   57.4089   30.6039   50.5559 H   0  0  0  0  0  0  0  0  0  0  0  0
   60.9089   35.3315   47.1924 H   0  0  0  0  0  0  0  0  0  0  0  0
   58.8366   36.0677   46.0222 H   0  0  0  0  0  0  0  0  0  0  0  0
   56.2880   33.8690   44.6340 H   0  0  0  0  0  0  0  0  0  0  0  0
   59.7210   28.9093   44.8968 H   0  0  0  0  0  0  0  0  0  0  0  0
   59.6005   26.5429   45.6607 H   0  0  0  0  0  0  0  0  0  0  0  0
   57.3947   25.5028   46.1784 H   0  0  0  0  0  0  0  0  0  0  0  0
  1  2  2  0
  2  3  1  0
  3  4  1  0
  4  5  2  0
  5  6  1  0
  6  7  1  0
  7  8  2  0
  7  9  2  0
  7 10  1  0
 10 11  1  0
 11 12  2  0
 12 13  1  0
 13 14  2  0
 14 15  1  0
 15 16  2  0
 16 17  1  0
  6 18  2  0
 18 19  1  0
 19 20  2  0
 20 21  1  0
  2 22  1  0
 22 23  2  0
 23 24  1  0
 24 25  2  0
 25 26  1  0
 26 27  1  0
 26 28  2  0
 28 29  1  0
 20  4  1  0
 28 22  1  0
 16 11  1  0
  5 30  1  0
 12 31  1  0
 13 32  1  0
 14 33  1  0
 15 34  1  0
 18 35  1  0
 19 36  1  0
 21 37  1  0
 23 38  1  0
 24 39  1  0
 25 40  1  0
M  CHG  4   3  -1  10  -1  27  -1  29  -1
M  END
>  <UniqueID>  (21) 
20

>  <SMILES>  (21) 
O=C([N-]c1cc(S(=O)(=O)[N-]c2ccccc2Cl)ccc1O)c1cccc([O-])c1[O-]

>  <Energy>  (21) 
53.355017227028306

>  <Genealogy>  (21) 
O=C([N-]c1cc(S(=O)(=O)[N-]c2ccccc2Cl)ccc1O)c1cccc([O-])c1[O-] (protonated)
O=C([N-]c1cc(S(=O)(=O)[N-]c2ccccc2Cl)ccc1O)c1cccc([O-])c1[O-] (3D coordinates assigned)
O=C([N-]c1cc(S(=O)(=O)[N-]c2ccccc2Cl)ccc1O)c1cccc([O-])c1[O-] (optimized conformer: 53.355017227028306 kcal/mol)

>  <smiles>  (21) 
O=C(Nc1cc(S(=O)(=O)Nc2ccccc2Cl)ccc1O)c1cccc(O)c1O

>  <score_type>  (21) 
oracle

>  <origin>  (21) 
adg

>  <m_score__min__energy>  (21) 
-17.719999999999999

>  <m_primary>  (21) 
energy

$$$$
21:0
     RDKit          3D

 45 48  0  0  0  0  0  0  0  0999 V2000
   56.6520   30.6980   44.8690 O   0  0  0  0  0  0  0  0  0  0  0  0
   57.8760   30.7640   45.1640 C   0  0  0  0  0  0  0  0  0  0  0  0
   58.6980   29.5840   45.1130 N   0  0  0  0  0  0  0  0  0  0  0  0
   58.1790   28.2470   45.0110 C   0  0  0  0  0  0  0  0  0  0  0  0
   58.2510   27.5730   43.7820 C   0  0  0  0  0  0  0  0  0  0  0  0
   57.7740   26.2640   43.6630 C   0  0  0  0  0  0  0  0  0  0  0  0
   57.2330   25.6120   44.7750 C   0  0  0  0  0  0  0  0  0  0  0  0
   56.7730   24.3420   44.6600 F   0  0  0  0  0  0  0  0  0  0  0  0
   57.1780   26.2660   46.0090 C   0  0  0  0  0  0  0  0  0  0  0  0
   57.6540   27.5750   46.1310 C   0  0  0  0  0  0  0  0  0  0  0  0
   58.4740   32.1060   45.5090 C   0  0  1  0  0  0  0  0  0  0  0  0
   58.2540   33.1340   44.3760 C   0  0  0  0  0  0  0  0  0  0  0  0
   58.3000   34.5870   44.8840 C   0  0  0  0  0  0  0  0  0  0  0  0
   59.1410   34.7030   46.1580 C   0  0  0  0  0  0  0  0  0  0  0  0
   58.5580   33.9130   47.2660 N   0  0  0  0  0  0  0  0  0  0  0  0
   59.7600   33.6450   48.5070 S   0  0  0  0  0  0  0  0  0  0  0  0
   59.5230   34.5770   49.6640 O   0  0  0  0  0  0  0  0  0  0  0  0
   61.1270   33.9230   47.9480 O   0  0  0  0  0  0  0  0  0  0  0  0
   59.7070   31.9630   49.0490 C   0  0  0  0  0  0  0  0  0  0  0  0
   60.6080   31.0350   48.5000 C   0  0  0  0  0  0  0  0  0  0  0  0
   60.5830   29.6870   48.8910 C   0  0  0  0  0  0  0  0  0  0  0  0
   59.6520   29.2360   49.8330 C   0  0  0  0  0  0  0  0  0  0  0  0
   58.7440   30.1400   50.3800 C   0  0  0  0  0  0  0  0  0  0  0  0
   57.8050   29.7740   51.2900 N   0  0  0  0  0  0  0  0  0  0  0  0
   57.0580   31.2270   51.5390 S   0  0  0  0  0  0  0  0  0  0  0  0
   57.8380   32.3160   50.5700 N   0  0  0  0  0  0  0  0  0  0  0  0
   58.7650   31.5110   49.9910 C   0  0  0  0  0  0  0  0  0  0  0  0
   57.9250   32.6350   46.8510 C   0  0  0  0  0  0  0  0  0  0  0  0
   59.7350   29.7060   45.0740 H   0  0  0  0  0  0  0  0  0  0  0  0
   58.6855   28.0779   42.9066 H   0  0  0  0  0  0  0  0  0  0  0  0
   57.8245   25.7468   42.6935 H   0  0  0  0  0  0  0  0  0  0  0  0
   56.7595   25.7500   46.8857 H   0  0  0  0  0  0  0  0  0  0  0  0
   57.6181   28.0820   47.1065 H   0  0  0  0  0  0  0  0  0  0  0  0
   59.5588   31.9621   45.6208 H   0  0  0  0  0  0  0  0  0  0  0  0
   59.0409   32.9994   43.6193 H   0  0  0  0  0  0  0  0  0  0  0  0
   57.2538   32.9582   43.9534 H   0  0  0  0  0  0  0  0  0  0  0  0
   58.7404   35.2257   44.1042 H   0  0  0  0  0  0  0  0  0  0  0  0
   57.2733   34.9075   45.1146 H   0  0  0  0  0  0  0  0  0  0  0  0
   60.1563   34.3336   45.9511 H   0  0  0  0  0  0  0  0  0  0  0  0
   59.1636   35.7599   46.4620 H   0  0  0  0  0  0  0  0  0  0  0  0
   61.3433   31.3695   47.7533 H   0  0  0  0  0  0  0  0  0  0  0  0
   61.3018   28.9789   48.4528 H   0  0  0  0  0  0  0  0  0  0  0  0
   59.6371   28.1793   50.1383 H   0  0  0  0  0  0  0  0  0  0  0  0
   58.1120   31.8807   47.6295 H   0  0  0  0  0  0  0  0  0  0  0  0
   56.8497   32.8249   46.7181 H   0  0  0  0  0  0  0  0  0  0  0  0
  1  2  2  0
  2  3  1  0
  3  4  1  0
  4  5  2  0
  5  6  1  0
  6  7  2  0
  7  8  1  0
  7  9  1  0
  9 10  2  0
  2 11  1  0
 11 12  1  0
 12 13  1  0
 13 14  1  0
 14 15  1  0
 15 16  1  0
 16 17  2  0
 16 18  2  0
 16 19  1  0
 19 20  2  0
 20 21  1  0
 21 22  2  0
 22 23  1  0
 23 24  2  0
 24 25  1  0
 25 26  1  0
 26 27  2  0
 15 28  1  0
 10  4  1  0
 28 11  1  0
 27 19  1  0
 27 23  1  0
  3 29  1  0
  5 30  1  0
  6 31  1  0
  9 32  1  0
 10 33  1  0
 11 34  1  1
 12 35  1  0
 12 36  1  0
 13 37  1  0
 13 38  1  0
 14 39  1  0
 14 40  1  0
 20 41  1  0
 21 42  1  0
 22 43  1  0
 28 44  1  0
 28 45  1  0
M  END
>  <UniqueID>  (22) 
21

>  <SMILES>  (22) 
O=C(Nc1ccc(F)cc1)[C@H]1CCCN(S(=O)(=O)c2cccc3nsnc23)C1

>  <Energy>  (22) 
96.12350054057596

>  <Genealogy>  (22) 
O=C(Nc1ccc(F)cc1)[C@H]1CCCN(S(=O)(=O)c2cccc3nsnc23)C1 (chirality)
O=C(Nc1ccc(F)cc1)[C@H]1CCCN(S(=O)(=O)c2cccc3nsnc23)C1 (3D coordinates assigned)
O=C(Nc1ccc(F)cc1)[C@H]1CCCN(S(=O)(=O)c2cccc3nsnc23)C1 (nonaromatic ring conformer: 96.12350054057596 kcal/mol)

>  <smiles>  (22) 
O=C(Nc1ccc(F)cc1)C1CCCN(S(=O)(=O)c2cccc3nsnc23)C1

>  <score_type>  (22) 
oracle

>  <origin>  (22) 
adg

>  <m_score__min__energy>  (22) 
-9.4600000000000009

>  <m_primary>  (22) 
energy

$$$$
22:0
     RDKit          3D

 68 71  0  0  0  0  0  0  0  0999 V2000
   60.3280   28.5230   45.7010 C   0  0  0  0  0  0  0  0  0  0  0  0
   59.2940   29.6370   45.9030 C   0  0  0  0  0  0  0  0  0  0  0  0
   58.2670   29.6170   44.7600 C   0  0  0  0  0  0  0  0  0  0  0  0
   58.6020   29.4990   47.2800 C   0  0  0  0  0  0  0  0  0  0  0  0
   58.8550   30.6770   48.1300 N   0  0  0  0  0  0  0  0  0  0  0  0
   58.5390   32.0340   47.7250 C   0  0  0  0  0  0  0  0  0  0  0  0
   57.7850   32.7330   48.4570 O   0  0  0  0  0  0  0  0  0  0  0  0
   59.0980   32.6840   46.4740 C   0  0  1  0  0  0  0  0  0  0  0  0
   57.9530   33.2310   45.5980 C   0  0  0  0  0  0  0  0  0  0  0  0
   58.5300   34.1230   44.5000 C   0  0  0  0  0  0  0  0  0  0  0  0
   59.2780   35.3410   45.0800 C   0  0  0  0  0  0  0  0  0  0  0  0
   59.7090   35.1640   46.5470 C   0  0  0  0  0  0  0  0  0  0  0  0
   60.0450   33.7600   46.8470 N   0  0  0  0  0  0  0  0  0  0  0  0
   61.1840   33.4570   47.6830 C   0  0  0  0  0  0  0  0  0  0  0  0
   62.4140   33.0770   47.1130 C   0  0  0  0  0  0  0  0  0  0  0  0
   63.5220   32.8140   47.9200 C   0  0  0  0  0  0  0  0  0  0  0  0
   63.4230   32.9400   49.3060 C   0  0  0  0  0  0  0  0  0  0  0  0
   62.2120   33.3220   49.8870 C   0  0  0  0  0  0  0  0  0  0  0  0
   62.0890   33.4890   51.6290 Cl  0  0  0  0  0  0  0  0  0  0  0  0
   61.0960   33.5690   49.0810 C   0  0  0  0  0  0  0  0  0  0  0  0
   59.5280   30.4740   49.3890 C   0  0  0  0  0  0  0  0  0  0  0  0
   58.8590   30.6410   50.6210 C   0  0  0  0  0  0  0  0  0  0  0  0
   57.4520   30.9510   50.6130 N   0  0  0  0  0  0  0  0  0  0  0  0
   59.5560   30.4900   51.8040 N   0  0  0  0  0  0  0  0  0  0  0  0
   58.9190   30.7780   53.1110 C   0  0  0  0  0  0  0  0  0  0  0  0
   58.9220   32.2630   53.3860 C   0  0  0  0  0  0  0  0  0  0  0  0
   59.3470   32.7450   54.6370 C   0  0  0  0  0  0  0  0  0  0  0  0
   59.3650   34.1190   54.8960 C   0  0  0  0  0  0  0  0  0  0  0  0
   58.9590   35.0240   53.9120 C   0  0  0  0  0  0  0  0  0  0  0  0
   58.5190   34.5560   52.6740 C   0  0  0  0  0  0  0  0  0  0  0  0
   58.4890   33.1810   52.4120 C   0  0  0  0  0  0  0  0  0  0  0  0
   60.8860   30.1370   51.7670 C   0  0  0  0  0  0  0  0  0  0  0  0
   61.5420   29.9780   52.8340 O   0  0  0  0  0  0  0  0  0  0  0  0
   61.5240   29.9600   50.5810 N   0  0  0  0  0  0  0  0  0  0  0  0
   60.8830   30.1380   49.4020 C   0  0  0  0  0  0  0  0  0  0  0  0
   61.5170   30.0060   48.3200 O   0  0  0  0  0  0  0  0  0  0  0  0
   60.6682   28.1565   46.6807 H   0  0  0  0  0  0  0  0  0  0  0  0
   59.8705   27.6957   45.1387 H   0  0  0  0  0  0  0  0  0  0  0  0
   61.1871   28.9177   45.1387 H   0  0  0  0  0  0  0  0  0  0  0  0
   59.8108   30.6079   45.8861 H   0  0  0  0  0  0  0  0  0  0  0  0
   57.2507   29.5972   45.1805 H   0  0  0  0  0  0  0  0  0  0  0  0
   58.3901   30.5177   44.1407 H   0  0  0  0  0  0  0  0  0  0  0  0
   58.4251   28.7218   44.1407 H   0  0  0  0  0  0  0  0  0  0  0  0
   57.5178   29.3945   47.1267 H   0  0  0  0  0  0  0  0  0  0  0  0
   59.0120   28.6126   47.7861 H   0  0  0  0  0  0  0  0  0  0  0  0
   59.6429   31.9303   45.8866 H   0  0  0  0  0  0  0  0  0  0  0  0
   57.4093   32.3916   45.1399 H   0  0  0  0  0  0  0  0  0  0  0  0
   57.2639   33.8188   46.2222 H   0  0  0  0  0  0  0  0  0  0  0  0
   59.2313   33.5312   43.8933 H   0  0  0  0  0  0  0  0  0  0  0  0
   57.6939   34.4960   43.8902 H   0  0  0  0  0  0  0  0  0  0  0  0
   60.1782   35.5166   44.4728 H   0  0  0  0  0  0  0  0  0  0  0  0
   58.5790   36.1898   45.0515 H   0  0  0  0  0  0  0  0  0  0  0  0
   60.5922   35.7913   46.7380 H   0  0  0  0  0  0  0  0  0  0  0  0
   58.8690   35.4626   47.1914 H   0  0  0  0  0  0  0  0  0  0  0  0
   62.5027   32.9864   46.0203 H   0  0  0  0  0  0  0  0  0  0  0  0
   64.4743   32.5071   47.4628 H   0  0  0  0  0  0  0  0  0  0  0  0
   64.2985   32.7385   49.9408 H   0  0  0  0  0  0  0  0  0  0  0  0
   60.1405   33.8536   49.5458 H   0  0  0  0  0  0  0  0  0  0  0  0
   57.1020   31.8950   50.3390 H   0  0  0  0  0  0  0  0  0  0  0  0
   56.7110   30.2520   50.8260 H   0  0  0  0  0  0  0  0  0  0  0  0
   57.8807   30.4150   53.0953 H   0  0  0  0  0  0  0  0  0  0  0  0
   59.4873   30.2687   53.9032 H   0  0  0  0  0  0  0  0  0  0  0  0
   59.6670   32.0373   55.4159 H   0  0  0  0  0  0  0  0  0  0  0  0
   59.6996   34.4882   55.8767 H   0  0  0  0  0  0  0  0  0  0  0  0
   58.9864   36.1050   54.1136 H   0  0  0  0  0  0  0  0  0  0  0  0
   58.1948   35.2689   51.9016 H   0  0  0  0  0  0  0  0  0  0  0  0
   58.1251   32.8168   51.4399 H   0  0  0  0  0  0  0  0  0  0  0  0
   62.5370   29.6970   50.5770 H   0  0  0  0  0  0  0  0  0  0  0  0
  1  2  1  0
  2  3  1  0
  2  4  1  0
  4  5  1  0
  5  6  1  0
  6  7  2  0
  6  8  1  0
  8  9  1  0
  9 10  1  0
 10 11  1  0
 11 12  1  0
 12 13  1  0
 13 14  1  0
 14 15  2  0
 15 16  1  0
 16 17  2  0
 17 18  1  0
 18 19  1  0
 18 20  2  0
  5 21  1  0
 21 22  2  0
 22 23  1  0
 22 24  1  0
 24 25  1  0
 25 26  1  0
 26 27  2  0
 27 28  1  0
 28 29  2  0
 29 30  1  0
 30 31  2  0
 24 32  1  0
 32 33  2  0
 32 34  1  0
 34 35  1  0
 35 36  2  0
 13  8  1  0
 20 14  1  0
 35 21  1  0
 31 26  1  0
  1 37  1  0
  1 38  1  0
  1 39  1  0
  2 40  1  0
  3 41  1  0
  3 42  1  0
  3 43  1  0
  4 44  1  0
  4 45  1  0
  8 46  1  6
  9 47  1  0
  9 48  1  0
 10 49  1  0
 10 50  1  0
 11 51  1  0
 11 52  1  0
 12 53  1  0
 12 54  1  0
 15 55  1  0
 16 56  1  0
 17 57  1  0
 20 58  1  0
 23 59  1  0
 23 60  1  0
 25 61  1  0
 25 62  1  0
 27 63  1  0
 28 64  1  0
 29 65  1  0
 30 66  1  0
 31 67  1  0
 34 68  1  0
M  END
>  <UniqueID>  (23) 
22

>  <SMILES>  (23) 
CC(C)CN(C(=O)[C@H]1CCCCN1c1cccc(Cl)c1)c1c(N)n(Cc2ccccc2)c(=O)[nH]c1=O

>  <Energy>  (23) 
85.05554207884748

>  <Genealogy>  (23) 
CC(C)CN(C(=O)[C@H]1CCCCN1c1cccc(Cl)c1)c1c(N)n(Cc2ccccc2)c(=O)[nH]c1=O (chirality)
CC(C)CN(C(=O)[C@H]1CCCCN1c1cccc(Cl)c1)c1c(N)n(Cc2ccccc2)c(=O)[nH]c1=O (3D coordinates assigned)
CC(C)CN(C(=O)[C@H]1CCCCN1c1cccc(Cl)c1)c1c(N)n(Cc2ccccc2)c(=O)[nH]c1=O (nonaromatic ring conformer: 85.05554207884748 kcal/mol)

>  <smiles>  (23) 
CC(C)CN(C(=O)C1CCCCN1c1cccc(Cl)c1)c1c(N)n(Cc2ccccc2)c(=O)[nH]c1=O

>  <score_type>  (23) 
oracle

>  <origin>  (23) 
adg

>  <m_score__min__energy>  (23) 
-9.5700000000000003

>  <m_primary>  (23) 
energy

$$$$
23:0
     RDKit          3D

 58 61  0  0  0  0  0  0  0  0999 V2000
   59.1190   29.1960   44.5050 C   0  0  0  0  0  0  0  0  0  0  0  0
   57.6990   29.5140   44.6480 N   0  0  0  0  0  0  0  0  0  0  0  0
   56.6990   28.7170   45.0760 C   0  0  0  0  0  0  0  0  0  0  0  0
   56.8760   27.3460   45.6470 C   0  0  0  0  0  0  0  0  0  0  0  0
   55.5640   26.7660   45.9110 N   0  0  0  0  0  0  0  0  0  0  0  0
   55.2100   25.4000   45.6620 C   0  0  0  0  0  0  0  0  0  0  0  0
   54.0290   25.0280   45.8950 O   0  0  0  0  0  0  0  0  0  0  0  0
   56.1780   24.4220   45.1270 C   0  0  0  0  0  0  0  0  0  0  0  0
   55.8810   23.7150   43.9490 C   0  0  0  0  0  0  0  0  0  0  0  0
   56.7830   22.7680   43.4500 C   0  0  0  0  0  0  0  0  0  0  0  0
   57.9760   22.5080   44.1310 C   0  0  0  0  0  0  0  0  0  0  0  0
   58.2670   23.1910   45.3160 C   0  0  0  0  0  0  0  0  0  0  0  0
   57.3680   24.1400   45.8180 C   0  0  0  0  0  0  0  0  0  0  0  0
   55.5050   29.3360   44.9880 N   0  0  0  0  0  0  0  0  0  0  0  0
   55.7280   30.5340   44.4680 N   0  0  0  0  0  0  0  0  0  0  0  0
   57.0550   30.6300   44.2600 C   0  0  0  0  0  0  0  0  0  0  0  0
   57.8420   32.0750   43.5400 S   0  0  0  0  0  0  0  0  0  0  0  0
   57.7890   33.0520   45.0810 C   0  0  0  0  0  0  0  0  0  0  0  0
   59.0040   32.7830   45.9140 C   0  0  0  0  0  0  0  0  0  0  0  0
   59.0950   31.6930   46.5420 O   0  0  0  0  0  0  0  0  0  0  0  0
   60.0580   33.7540   45.9780 N   0  0  0  0  0  0  0  0  0  0  0  0
   61.1080   33.7360   46.9610 C   0  0  0  0  0  0  0  0  0  0  0  0
   62.4480   33.5110   46.5990 C   0  0  0  0  0  0  0  0  0  0  0  0
   63.4470   33.4720   47.5760 C   0  0  0  0  0  0  0  0  0  0  0  0
   63.1240   33.6420   48.9320 C   0  0  0  0  0  0  0  0  0  0  0  0
   64.1500   33.6060   49.9440 N   0  0  0  0  0  0  0  0  0  0  0  0
   63.8810   34.1600   51.2750 C   0  0  0  0  0  0  0  0  0  0  0  0
   65.1940   34.6100   51.9220 C   0  0  0  0  0  0  0  0  0  0  0  0
   66.1480   33.5650   51.9050 O   0  0  0  0  0  0  0  0  0  0  0  0
   66.4950   33.2580   50.5670 C   0  0  0  0  0  0  0  0  0  0  0  0
   65.2910   32.6950   49.8060 C   0  0  0  0  0  0  0  0  0  0  0  0
   61.7840   33.8500   49.2940 C   0  0  0  0  0  0  0  0  0  0  0  0
   60.7850   33.8880   48.3170 C   0  0  0  0  0  0  0  0  0  0  0  0
   59.5741   29.0941   45.5013 H   0  0  0  0  0  0  0  0  0  0  0  0
   59.2293   28.2509   43.9531 H   0  0  0  0  0  0  0  0  0  0  0  0
   59.6219   30.0038   43.9531 H   0  0  0  0  0  0  0  0  0  0  0  0
   57.4198   26.7151   44.9285 H   0  0  0  0  0  0  0  0  0  0  0  0
   57.4500   27.4058   46.5834 H   0  0  0  0  0  0  0  0  0  0  0  0
   54.9370   23.9065   43.4177 H   0  0  0  0  0  0  0  0  0  0  0  0
   56.5527   22.2273   42.5202 H   0  0  0  0  0  0  0  0  0  0  0  0
   58.6854   21.7665   43.7348 H   0  0  0  0  0  0  0  0  0  0  0  0
   59.2033   22.9825   45.8545 H   0  0  0  0  0  0  0  0  0  0  0  0
   57.5945   24.6666   46.7569 H   0  0  0  0  0  0  0  0  0  0  0  0
   57.7518   34.1223   44.8300 H   0  0  0  0  0  0  0  0  0  0  0  0
   56.8944   32.7656   45.6534 H   0  0  0  0  0  0  0  0  0  0  0  0
   60.1060   34.4720   45.2210 H   0  0  0  0  0  0  0  0  0  0  0  0
   62.7116   33.3649   45.5411 H   0  0  0  0  0  0  0  0  0  0  0  0
   64.4936   33.3070   47.2805 H   0  0  0  0  0  0  0  0  0  0  0  0
   63.2047   35.0226   51.1821 H   0  0  0  0  0  0  0  0  0  0  0  0
   63.4115   33.3882   51.9026 H   0  0  0  0  0  0  0  0  0  0  0  0
   65.5930   35.4713   51.3662 H   0  0  0  0  0  0  0  0  0  0  0  0
   64.9943   34.8874   52.9676 H   0  0  0  0  0  0  0  0  0  0  0  0
   66.8419   34.1736   50.0657 H   0  0  0  0  0  0  0  0  0  0  0  0
   67.2916   32.4995   50.5755 H   0  0  0  0  0  0  0  0  0  0  0  0
   65.5479   32.5891   48.7417 H   0  0  0  0  0  0  0  0  0  0  0  0
   65.0247   31.7117   50.2209 H   0  0  0  0  0  0  0  0  0  0  0  0
   61.5183   33.9839   50.3530 H   0  0  0  0  0  0  0  0  0  0  0  0
   59.7367   34.0384   48.6144 H   0  0  0  0  0  0  0  0  0  0  0  0
  1  2  1  0
  2  3  1  0
  3  4  1  0
  4  5  1  0
  5  6  1  0
  6  7  2  0
  6  8  1  0
  8  9  2  0
  9 10  1  0
 10 11  2  0
 11 12  1  0
 12 13  2  0
  3 14  2  0
 14 15  1  0
 15 16  2  0
 16 17  1  0
 17 18  1  0
 18 19  1  0
 19 20  2  0
 19 21  1  0
 21 22  1  0
 22 23  2  0
 23 24  1  0
 24 25  2  0
 25 26  1  0
 26 27  1  0
 27 28  1  0
 28 29  1  0
 29 30  1  0
 30 31  1  0
 25 32  1  0
 32 33  2  0
 16  2  1  0
 33 22  1  0
 13  8  1  0
 31 26  1  0
  1 34  1  0
  1 35  1  0
  1 36  1  0
  4 37  1  0
  4 38  1  0
  9 39  1  0
 10 40  1  0
 11 41  1  0
 12 42  1  0
 13 43  1  0
 18 44  1  0
 18 45  1  0
 21 46  1  0
 23 47  1  0
 24 48  1  0
 27 49  1  0
 27 50  1  0
 28 51  1  0
 28 52  1  0
 30 53  1  0
 30 54  1  0
 31 55  1  0
 31 56  1  0
 32 57  1  0
 33 58  1  0
M  CHG  1   5  -1
M  END
>  <UniqueID>  (24) 
23

>  <SMILES>  (24) 
Cn1c(C[N-]C(=O)c2ccccc2)nnc1SCC(=O)Nc1ccc(N2CCOCC2)cc1

>  <Energy>  (24) 
101.51762377049367

>  <Genealogy>  (24) 
Cn1c(C[N-]C(=O)c2ccccc2)nnc1SCC(=O)Nc1ccc(N2CCOCC2)cc1 (protonated)
Cn1c(C[N-]C(=O)c2ccccc2)nnc1SCC(=O)Nc1ccc(N2CCOCC2)cc1 (3D coordinates assigned)
Cn1c(C[N-]C(=O)c2ccccc2)nnc1SCC(=O)Nc1ccc(N2CCOCC2)cc1 (nonaromatic ring conformer: 101.51762377049367 kcal/mol)

>  <smiles>  (24) 
Cn1c(CNC(=O)c2ccccc2)nnc1SCC(=O)Nc1ccc(N2CCOCC2)cc1

>  <score_type>  (24) 
oracle

>  <origin>  (24) 
adg

>  <m_score__min__energy>  (24) 
-12.52

>  <m_primary>  (24) 
energy

$$$$
24:0
     RDKit          3D

 70 74  0  0  0  0  0  0  0  0999 V2000
   65.0850   33.5950   52.3140 C   0  0  0  0  0  0  0  0  0  0  0  0
   65.1990   32.2250   51.7830 N   0  0  0  0  0  0  0  0  0  0  0  0
   65.8860   32.2000   50.4710 C   0  0  0  0  0  0  0  0  0  0  0  0
   65.0110   32.7990   49.3520 C   0  0  0  0  0  0  0  0  0  0  0  0
   63.6180   32.3710   49.5000 N   0  0  0  0  0  0  0  0  0  0  0  0
   62.5810   33.0710   48.7930 C   0  0  0  0  0  0  0  0  0  0  0  0
   62.6270   33.2050   47.3980 C   0  0  0  0  0  0  0  0  0  0  0  0
   61.5780   33.8380   46.7330 C   0  0  0  0  0  0  0  0  0  0  0  0
   60.4960   34.3460   47.4530 C   0  0  0  0  0  0  0  0  0  0  0  0
   59.4060   34.9430   46.7380 N   0  0  0  0  0  0  0  0  0  0  0  0
   59.0200   34.6670   45.3860 C   0  0  0  0  0  0  0  0  0  0  0  0
   59.2550   35.5380   44.5050 O   0  0  0  0  0  0  0  0  0  0  0  0
   58.3050   33.4260   45.0020 C   0  0  0  0  0  0  0  0  0  0  0  0
   58.1790   33.0800   43.6480 C   0  0  0  0  0  0  0  0  0  0  0  0
   57.4870   31.9260   43.2810 C   0  0  0  0  0  0  0  0  0  0  0  0
   56.9160   31.1140   44.2740 C   0  0  0  0  0  0  0  0  0  0  0  0
   56.1870   29.8780   43.9170 C   0  0  0  0  0  0  0  0  0  0  0  0
   55.7910   29.7150   42.7330 O   0  0  0  0  0  0  0  0  0  0  0  0
   55.9750   28.8340   44.8770 N   0  0  0  0  0  0  0  0  0  0  0  0
   57.0190   28.2150   45.6470 C   0  0  0  0  0  0  0  0  0  0  0  0
   57.1980   26.8370   45.5680 C   0  0  0  0  0  0  0  0  0  0  0  0
   58.2310   26.2280   46.2720 C   0  0  0  0  0  0  0  0  0  0  0  0
   59.0870   26.9830   47.0780 C   0  0  0  0  0  0  0  0  0  0  0  0
   60.0920   26.3220   47.7060 F   0  0  0  0  0  0  0  0  0  0  0  0
   58.8950   28.3830   47.2380 C   0  0  0  0  0  0  0  0  0  0  0  0
   59.7940   29.2110   48.2030 C   0  0  0  0  0  0  0  0  0  0  0  0
   61.0140   29.8410   47.4640 C   0  0  0  0  0  0  0  0  0  0  0  0
   60.3430   28.2870   49.3320 C   0  0  0  0  0  0  0  0  0  0  0  0
   60.8970   29.0920   50.5180 C   0  0  0  0  0  0  0  0  0  0  0  0
   59.9190   29.9800   51.0240 O   0  0  0  0  0  0  0  0  0  0  0  0
   59.6340   30.9790   50.0640 C   0  0  0  0  0  0  0  0  0  0  0  0
   58.9600   30.3750   48.8220 C   0  0  0  0  0  0  0  0  0  0  0  0
   57.8460   28.9760   46.4910 C   0  0  0  0  0  0  0  0  0  0  0  0
   57.0220   31.4820   45.5810 N   0  0  0  0  0  0  0  0  0  0  0  0
   57.6950   32.6030   45.9630 C   0  0  0  0  0  0  0  0  0  0  0  0
   60.4730   34.1780   48.8470 C   0  0  0  0  0  0  0  0  0  0  0  0
   61.5020   33.5460   49.4740 N   0  0  0  0  0  0  0  0  0  0  0  0
   63.3160   31.2460   50.3880 C   0  0  0  0  0  0  0  0  0  0  0  0
   63.8900   31.5170   51.7910 C   0  0  0  0  0  0  0  0  0  0  0  0
   65.0876   33.5635   53.4135 H   0  0  0  0  0  0  0  0  0  0  0  0
   65.9362   34.1965   51.9624 H   0  0  0  0  0  0  0  0  0  0  0  0
   64.1461   34.0476   51.9624 H   0  0  0  0  0  0  0  0  0  0  0  0
   66.8160   32.7827   50.5455 H   0  0  0  0  0  0  0  0  0  0  0  0
   66.0946   31.1506   50.2156 H   0  0  0  0  0  0  0  0  0  0  0  0
   65.0591   33.8967   49.4043 H   0  0  0  0  0  0  0  0  0  0  0  0
   65.3883   32.4467   48.3807 H   0  0  0  0  0  0  0  0  0  0  0  0
   63.4851   32.8133   46.8321 H   0  0  0  0  0  0  0  0  0  0  0  0
   61.6033   33.9373   45.6378 H   0  0  0  0  0  0  0  0  0  0  0  0
   58.6271   33.7205   42.8741 H   0  0  0  0  0  0  0  0  0  0  0  0
   57.3891   31.6536   42.2198 H   0  0  0  0  0  0  0  0  0  0  0  0
   56.5220   26.2294   44.9484 H   0  0  0  0  0  0  0  0  0  0  0  0
   58.3758   25.1404   46.1936 H   0  0  0  0  0  0  0  0  0  0  0  0
   61.7376   30.2147   48.2035 H   0  0  0  0  0  0  0  0  0  0  0  0
   61.4946   29.0784   46.8336 H   0  0  0  0  0  0  0  0  0  0  0  0
   60.6704   30.6744   46.8336 H   0  0  0  0  0  0  0  0  0  0  0  0
   59.5273   27.6421   49.6909 H   0  0  0  0  0  0  0  0  0  0  0  0
   61.1668   27.6911   48.9121 H   0  0  0  0  0  0  0  0  0  0  0  0
   61.2000   28.3972   51.3152 H   0  0  0  0  0  0  0  0  0  0  0  0
   61.7607   29.6790   50.1725 H   0  0  0  0  0  0  0  0  0  0  0  0
   58.9610   31.7255   50.5110 H   0  0  0  0  0  0  0  0  0  0  0  0
   60.5801   31.4478   49.7555 H   0  0  0  0  0  0  0  0  0  0  0  0
   57.9712   29.9879   49.1091 H   0  0  0  0  0  0  0  0  0  0  0  0
   58.8764   31.1687   48.0650 H   0  0  0  0  0  0  0  0  0  0  0  0
   57.6750   30.0594   46.5741 H   0  0  0  0  0  0  0  0  0  0  0  0
   57.7611   32.8650   47.0293 H   0  0  0  0  0  0  0  0  0  0  0  0
   59.6226   34.5576   49.4324 H   0  0  0  0  0  0  0  0  0  0  0  0
   62.2256   31.1193   50.4583 H   0  0  0  0  0  0  0  0  0  0  0  0
   63.7712   30.3310   49.9810 H   0  0  0  0  0  0  0  0  0  0  0  0
   63.1675   32.1321   52.3475 H   0  0  0  0  0  0  0  0  0  0  0  0
   64.0612   30.5367   52.2596 H   0  0  0  0  0  0  0  0  0  0  0  0
  1  2  1  0
  2  3  1  0
  3  4  1  0
  4  5  1  0
  5  6  1  0
  6  7  2  0
  7  8  1  0
  8  9  2  0
  9 10  1  0
 10 11  1  0
 11 12  2  0
 11 13  1  0
 13 14  2  0
 14 15  1  0
 15 16  2  0
 16 17  1  0
 17 18  2  0
 17 19  1  0
 19 20  1  0
 20 21  2  0
 21 22  1  0
 22 23  2  0
 23 24  1  0
 23 25  1  0
 25 26  1  0
 26 27  1  0
 26 28  1  0
 28 29  1  0
 29 30  1  0
 30 31  1  0
 31 32  1  0
 25 33  2  0
 16 34  1  0
 34 35  2  0
  9 36  1  0
 36 37  2  0
  5 38  1  0
 38 39  1  0
 39  2  1  0
 37  6  1  0
 35 13  1  0
 33 20  1  0
 32 26  1  0
  1 40  1  0
  1 41  1  0
  1 42  1  0
  3 43  1  0
  3 44  1  0
  4 45  1  0
  4 46  1  0
  7 47  1  0
  8 48  1  0
 14 49  1  0
 15 50  1  0
 21 51  1  0
 22 52  1  0
 27 53  1  0
 27 54  1  0
 27 55  1  0
 28 56  1  0
 28 57  1  0
 29 58  1  0
 29 59  1  0
 31 60  1  0
 31 61  1  0
 32 62  1  0
 32 63  1  0
 33 64  1  0
 35 65  1  0
 36 66  1  0
 38 67  1  0
 38 68  1  0
 39 69  1  0
 39 70  1  0
M  CHG  2  10  -1  19  -1
M  END
>  <UniqueID>  (25) 
24

>  <SMILES>  (25) 
CN1CCN(c2ccc([N-]C(=O)c3ccc(C(=O)[N-]c4ccc(F)c(C5(C)CCOCC5)c4)nc3)cn2)CC1

>  <Energy>  (25) 
107.89127439284346

>  <Genealogy>  (25) 
CN1CCN(c2ccc([N-]C(=O)c3ccc(C(=O)[N-]c4ccc(F)c(C5(C)CCOCC5)c4)nc3)cn2)CC1 (protonated)
CN1CCN(c2ccc([N-]C(=O)c3ccc(C(=O)[N-]c4ccc(F)c(C5(C)CCOCC5)c4)nc3)cn2)CC1 (3D coordinates assigned)
CN1CCN(c2ccc([N-]C(=O)c3ccc(C(=O)[N-]c4ccc(F)c(C5(C)CCOCC5)c4)nc3)cn2)CC1 (nonaromatic ring conformer: 107.89127439284346 kcal/mol)

>  <smiles>  (25) 
CN1CCN(c2ccc(NC(=O)c3ccc(C(=O)Nc4ccc(F)c(C5(C)CCOCC5)c4)nc3)cn2)CC1

>  <score_type>  (25) 
oracle

>  <origin>  (25) 
adg

>  <m_score__min__energy>  (25) 
-12.4

>  <m_primary>  (25) 
energy

$$$$
25:0
     RDKit          3D

 66 70  0  0  0  0  0  0  0  0999 V2000
   63.8386   32.8010   45.8378 H   0  0  0  0  0  0  0  0  0  0  0  0
   63.4660   32.7620   46.8720 C   0  0  0  0  0  0  0  0  0  0  0  0
   62.7470   31.6480   47.3150 C   0  0  0  0  0  0  0  0  0  0  0  0
   62.5504   30.8119   46.6278 H   0  0  0  0  0  0  0  0  0  0  0  0
   62.2780   31.5960   48.6300 C   0  0  0  0  0  0  0  0  0  0  0  0
   61.7005   30.7239   48.9706 H   0  0  0  0  0  0  0  0  0  0  0  0
   62.5390   32.6480   49.5170 C   0  0  0  0  0  0  0  0  0  0  0  0
   62.0660   32.5480   50.8680 N   0  0  0  0  0  0  0  0  0  0  0  0
   61.0990   33.4010   51.4990 C   0  0  0  0  0  0  0  0  0  0  0  0
   61.0530   33.4420   52.7560 O   0  0  0  0  0  0  0  0  0  0  0  0
   60.1850   34.2150   50.7450 N   0  0  0  0  0  0  0  0  0  0  0  0
   59.6980   33.9290   49.5760 C   0  0  0  0  0  0  0  0  0  0  0  0
   59.7780   34.7500   48.4970 N   0  0  0  0  0  0  0  0  0  0  0  0
   59.1970   34.1740   47.4170 C   0  0  0  0  0  0  0  0  0  0  0  0
   59.1570   34.7470   46.1450 C   0  0  0  0  0  0  0  0  0  0  0  0
   59.5879   35.7431   45.9657 H   0  0  0  0  0  0  0  0  0  0  0  0
   58.5560   34.0280   45.0970 C   0  0  0  0  0  0  0  0  0  0  0  0
   58.5286   34.4601   44.0858 H   0  0  0  0  0  0  0  0  0  0  0  0
   57.9860   32.7540   45.3300 C   0  0  0  0  0  0  0  0  0  0  0  0
   57.4080   31.9610   44.1880 C   0  0  0  0  0  0  0  0  0  0  0  0
   56.4014   32.3410   43.9590 H   0  0  0  0  0  0  0  0  0  0  0  0
   58.0684   32.0704   43.3151 H   0  0  0  0  0  0  0  0  0  0  0  0
   57.3150   30.5030   44.5390 C   0  0  0  0  0  0  0  0  0  0  0  0
   56.2160   30.0230   44.9310 O   0  0  0  0  0  0  0  0  0  0  0  0
   58.4460   29.6420   44.3290 N   0  0  0  0  0  0  0  0  0  0  0  0
   59.1920   29.9620   43.6690 H   0  0  0  0  0  0  0  0  0  0  0  0
   58.5270   28.3080   44.8610 C   0  0  0  0  0  0  0  0  0  0  0  0
   59.7590   27.8160   45.3140 C   0  0  0  0  0  0  0  0  0  0  0  0
   60.6545   28.4531   45.2673 H   0  0  0  0  0  0  0  0  0  0  0  0
   59.8530   26.5180   45.8250 C   0  0  0  0  0  0  0  0  0  0  0  0
   60.8247   26.1325   46.1675 H   0  0  0  0  0  0  0  0  0  0  0  0
   58.7150   25.7080   45.9020 C   0  0  0  0  0  0  0  0  0  0  0  0
   58.7958   24.6823   46.2912 H   0  0  0  0  0  0  0  0  0  0  0  0
   57.4730   26.2020   45.4840 C   0  0  0  0  0  0  0  0  0  0  0  0
   56.0180   25.2180   45.6170 S   0  0  0  0  0  0  0  0  0  0  0  0
   54.8640   26.1070   45.9890 O   0  0  0  0  0  0  0  0  0  0  0  0
   55.6990   24.5390   44.3130 O   0  0  0  0  0  0  0  0  0  0  0  0
   56.2330   24.0240   46.8570 N   0  0  0  0  0  0  0  0  0  0  0  0
   56.7590   22.8430   46.6950 C   0  0  0  0  0  0  0  0  0  0  0  0
   56.2970   21.6920   47.4310 N   0  0  0  0  0  0  0  0  0  0  0  0
   55.5020   21.7660   48.1010 H   0  0  0  0  0  0  0  0  0  0  0  0
   56.9590   20.3900   47.3240 C   0  0  0  0  0  0  0  0  0  0  0  0
   56.4920   19.7014   48.0435 H   0  0  0  0  0  0  0  0  0  0  0  0
   58.0267   20.5506   47.5345 H   0  0  0  0  0  0  0  0  0  0  0  0
   56.8610   19.7630   45.9090 C   0  0  0  0  0  0  0  0  0  0  0  0
   56.1812   18.9003   45.9687 H   0  0  0  0  0  0  0  0  0  0  0  0
   57.8916   19.5025   45.6261 H   0  0  0  0  0  0  0  0  0  0  0  0
   56.3450   20.6950   44.7960 C   0  0  0  0  0  0  0  0  0  0  0  0
   55.3907   21.1316   45.1256 H   0  0  0  0  0  0  0  0  0  0  0  0
   56.2398   20.0800   43.8901 H   0  0  0  0  0  0  0  0  0  0  0  0
   57.3090   21.8470   44.4430 C   0  0  0  0  0  0  0  0  0  0  0  0
   56.7844   22.5334   43.7620 H   0  0  0  0  0  0  0  0  0  0  0  0
   58.1963   21.3765   43.9942 H   0  0  0  0  0  0  0  0  0  0  0  0
   57.8190   22.6640   45.6430 C   0  0  0  0  0  0  0  0  0  0  0  0
   58.1377   23.6551   45.2879 H   0  0  0  0  0  0  0  0  0  0  0  0
   58.6575   22.1146   46.0960 H   0  0  0  0  0  0  0  0  0  0  0  0
   57.3800   27.5010   44.9710 C   0  0  0  0  0  0  0  0  0  0  0  0
   56.4033   27.8935   44.6517 H   0  0  0  0  0  0  0  0  0  0  0  0
   58.0370   32.1910   46.6220 C   0  0  0  0  0  0  0  0  0  0  0  0
   57.6062   31.1988   46.8219 H   0  0  0  0  0  0  0  0  0  0  0  0
   58.6460   32.9220   47.6380 C   0  0  0  0  0  0  0  0  0  0  0  0
   58.8850   32.4840   49.2420 S   0  0  0  0  0  0  0  0  0  0  0  0
   63.2390   33.7810   49.0590 C   0  0  0  0  0  0  0  0  0  0  0  0
   63.4143   34.6302   49.7358 H   0  0  0  0  0  0  0  0  0  0  0  0
   63.7110   33.8260   47.7440 C   0  0  0  0  0  0  0  0  0  0  0  0
   64.2772   34.7019   47.3945 H   0  0  0  0  0  0  0  0  0  0  0  0
  1  2  1  0
  2  3  2  0
  3  4  1  0
  3  5  1  0
  5  6  1  0
  5  7  2  0
  7  8  1  0
  8  9  1  0
  9 10  2  0
  9 11  1  0
 11 12  2  0
 12 13  1  0
 13 14  1  0
 14 15  2  0
 15 16  1  0
 15 17  1  0
 17 18  1  0
 17 19  2  0
 19 20  1  0
 20 21  1  0
 20 22  1  0
 20 23  1  0
 23 24  2  0
 23 25  1  0
 25 26  1  0
 25 27  1  0
 27 28  2  0
 28 29  1  0
 28 30  1  0
 30 31  1  0
 30 32  2  0
 32 33  1  0
 32 34  1  0
 34 35  1  0
 35 36  2  0
 35 37  2  0
 35 38  1  0
 38 39  2  3
 39 40  1  0
 40 41  1  0
 40 42  1  0
 42 43  1  0
 42 44  1  0
 42 45  1  0
 45 46  1  0
 45 47  1  0
 45 48  1  0
 48 49  1  0
 48 50  1  0
 48 51  1  0
 51 52  1  0
 51 53  1  0
 51 54  1  0
 54 55  1  0
 54 56  1  0
 34 57  2  0
 57 58  1  0
 19 59  1  0
 59 60  1  0
 59 61  2  0
 61 62  1  0
  7 63  1  0
 63 64  1  0
 63 65  2  0
 65 66  1  0
 65  2  1  0
 62 12  1  0
 61 14  1  0
 57 27  1  0
 54 39  1  0
M  CHG  2   8  -1  13  -1
M  END
>  <UniqueID>  (26) 
25

>  <SMILES>  (26) 
O=C(/N=c1\[n-]c2ccc(CC(=O)Nc3cccc(S(=O)(=O)N=C4CCCCCN4)c3)cc2s1)[N-]c1ccccc1

>  <Energy>  (26) 
120.82584959979685

>  <Genealogy>  (26) 
O=C(N=c1[n-]c2ccc(CC(=O)Nc3cccc(S(=O)(=O)N=C4CCCCCN4)c3)cc2s1)[N-]c1ccccc1 (protonated)
O=C(/N=c1\[n-]c2ccc(CC(=O)Nc3cccc(S(=O)(=O)N=C4CCCCCN4)c3)cc2s1)[N-]c1ccccc1 (cis-trans isomerization)
O=C(/N=c1\[n-]c2ccc(CC(=O)Nc3cccc(S(=O)(=O)N=C4CCCCCN4)c3)cc2s1)[N-]c1ccccc1 (3D coordinates assigned)
O=C(/N=c1\[n-]c2ccc(CC(=O)Nc3cccc(S(=O)(=O)N=C4CCCCCN4)c3)cc2s1)[N-]c1ccccc1 (nonaromatic ring conformer: 120.82584959979685 kcal/mol)

>  <smiles>  (26) 
O=C(Cc1ccc2[nH]c(=NC(=O)Nc3ccccc3)sc2c1)Nc1cccc(S(=O)(=O)N=C2CCCCCN2)c1

>  <score_type>  (26) 
oracle

>  <origin>  (26) 
adg

>  <m_score__min__energy>  (26) 
-10.73

>  <m_primary>  (26) 
energy

$$$$
26:0
     RDKit          3D

 29 30  0  0  0  0  0  0  0  0999 V2000
   57.2005   24.4930   44.6374 H   0  0  0  0  0  0  0  0  0  0  0  0
   57.1240   25.4700   45.1370 C   0  0  0  0  0  0  0  0  0  0  0  0
   56.0310   25.6420   46.1140 C   0  0  0  0  0  0  0  0  0  0  0  0
   55.8450   24.8160   47.0460 O   0  0  0  0  0  0  0  0  0  0  0  0
   55.1460   26.7010   45.9600 O   0  0  0  0  0  0  0  0  0  0  0  0
   58.0330   26.4000   44.8040 C   0  0  0  0  0  0  0  0  0  0  0  0
   59.0109   26.0449   44.4467 H   0  0  0  0  0  0  0  0  0  0  0  0
   57.8280   27.8620   44.8780 C   0  0  0  0  0  0  0  0  0  0  0  0
   57.3290   28.5440   43.7590 C   0  0  0  0  0  0  0  0  0  0  0  0
   57.1302   27.9946   42.8270 H   0  0  0  0  0  0  0  0  0  0  0  0
   57.0830   29.9180   43.8220 C   0  0  0  0  0  0  0  0  0  0  0  0
   56.6987   30.4449   42.9362 H   0  0  0  0  0  0  0  0  0  0  0  0
   57.3220   30.6290   45.0040 C   0  0  0  0  0  0  0  0  0  0  0  0
   57.0520   32.0050   45.0300 O   0  0  0  0  0  0  0  0  0  0  0  0
   57.9480   33.0010   45.4450 C   0  0  0  0  0  0  0  0  0  0  0  0
   58.3570   34.0400   44.5880 C   0  0  0  0  0  0  0  0  0  0  0  0
   57.9819   34.0782   43.5546 H   0  0  0  0  0  0  0  0  0  0  0  0
   59.2380   35.0230   45.0460 C   0  0  0  0  0  0  0  0  0  0  0  0
   59.5610   35.8282   44.3698 H   0  0  0  0  0  0  0  0  0  0  0  0
   59.7100   34.9860   46.3610 C   0  0  0  0  0  0  0  0  0  0  0  0
   60.4087   35.7574   46.7170 H   0  0  0  0  0  0  0  0  0  0  0  0
   59.2930   33.9670   47.2240 C   0  0  0  0  0  0  0  0  0  0  0  0
   59.9260   33.9220   49.0250 Br  0  0  0  0  0  0  0  0  0  0  0  0
   58.4090   32.9820   46.7680 C   0  0  0  0  0  0  0  0  0  0  0  0
   58.0743   32.1885   47.4523 H   0  0  0  0  0  0  0  0  0  0  0  0
   57.7720   29.9370   46.1430 C   0  0  0  0  0  0  0  0  0  0  0  0
   57.9302   30.4802   47.0864 H   0  0  0  0  0  0  0  0  0  0  0  0
   58.0190   28.5630   46.0820 C   0  0  0  0  0  0  0  0  0  0  0  0
   58.3641   28.0278   46.9790 H   0  0  0  0  0  0  0  0  0  0  0  0
  1  2  1  0
  2  3  1  0
  3  4  2  0
  3  5  1  0
  2  6  2  0
  6  7  1  0
  6  8  1  0
  8  9  2  0
  9 10  1  0
  9 11  1  0
 11 12  1  0
 11 13  2  0
 13 14  1  0
 14 15  1  0
 15 16  2  0
 16 17  1  0
 16 18  1  0
 18 19  1  0
 18 20  2  0
 20 21  1  0
 20 22  1  0
 22 23  1  0
 22 24  2  0
 24 25  1  0
 13 26  1  0
 26 27  1  0
 26 28  2  0
 28 29  1  0
 28  8  1  0
 24 15  1  0
M  CHG  1   5  -1
M  END
>  <UniqueID>  (27) 
26

>  <SMILES>  (27) 
O=C([O-])/C=C\c1ccc(Oc2cccc(Br)c2)cc1

>  <Energy>  (27) 
43.51446829606008

>  <Genealogy>  (27) 
O=C([O-])C=Cc1ccc(Oc2cccc(Br)c2)cc1 (protonated)
O=C([O-])/C=C\c1ccc(Oc2cccc(Br)c2)cc1 (cis-trans isomerization)
O=C([O-])/C=C\c1ccc(Oc2cccc(Br)c2)cc1 (3D coordinates assigned)
O=C([O-])/C=C\c1ccc(Oc2cccc(Br)c2)cc1 (optimized conformer: 43.51446829606008 kcal/mol)

>  <smiles>  (27) 
O=C(O)C=Cc1ccc(Oc2cccc(Br)c2)cc1

>  <score_type>  (27) 
oracle

>  <origin>  (27) 
adg

>  <m_score__min__energy>  (27) 
-10.58

>  <m_primary>  (27) 
energy

$$$$
27:0
     RDKit          3D

 65 67  0  0  0  0  0  0  0  0999 V2000
   55.2060   24.2270   45.2260 C   0  0  0  0  0  0  0  0  0  0  0  0
   55.5000   25.2400   46.1860 O   0  0  0  0  0  0  0  0  0  0  0  0
   56.5610   26.1500   46.0720 C   0  0  0  0  0  0  0  0  0  0  0  0
   57.8890   25.7900   46.3700 C   0  0  0  0  0  0  0  0  0  0  0  0
   58.9120   26.7270   46.2410 C   0  0  0  0  0  0  0  0  0  0  0  0
   58.6300   28.0370   45.8180 C   0  0  0  0  0  0  0  0  0  0  0  0
   59.7560   28.9900   45.6970 C   0  0  0  0  0  0  0  0  0  0  0  0
   60.3630   29.6300   46.7140 C   0  0  0  0  0  0  0  0  0  0  0  0
   59.7210   30.4780   47.7430 C   0  0  0  0  0  0  0  0  0  0  0  0
   59.0140   29.9220   48.6290 O   0  0  0  0  0  0  0  0  0  0  0  0
   59.8430   31.9060   47.7590 N   0  0  0  0  0  0  0  0  0  0  0  0
   59.3220   32.7670   46.7280 C   0  0  0  0  0  0  0  0  0  0  0  0
   58.2970   32.3230   45.8630 C   0  0  0  0  0  0  0  0  0  0  0  0
   57.7320   33.1870   44.9250 C   0  0  0  0  0  0  0  0  0  0  0  0
   58.1670   34.5080   44.8520 C   0  0  0  0  0  0  0  0  0  0  0  0
   59.1810   34.9670   45.6970 C   0  0  0  0  0  0  0  0  0  0  0  0
   59.7900   34.0990   46.6250 C   0  0  0  0  0  0  0  0  0  0  0  0
   60.8060   34.5600   47.5380 N   0  0  0  0  0  0  0  0  0  0  0  0
   62.0750   33.9670   47.8300 C   0  0  0  0  0  0  0  0  0  0  0  0
   62.8830   33.7850   46.8780 O   0  0  0  0  0  0  0  0  0  0  0  0
   62.5440   33.7400   49.2430 C   0  0  0  0  0  0  0  0  0  0  0  0
   61.9030   32.5340   49.8200 N   0  0  0  0  0  0  0  0  0  0  0  0
   62.8160   31.8140   50.7350 C   0  0  0  0  0  0  0  0  0  0  0  0
   64.1660   32.4880   50.8330 C   0  0  0  0  0  0  0  0  0  0  0  0
   64.3590   33.5160   51.7700 C   0  0  0  0  0  0  0  0  0  0  0  0
   65.5940   34.1630   51.8650 C   0  0  0  0  0  0  0  0  0  0  0  0
   66.6510   33.7690   51.0440 C   0  0  0  0  0  0  0  0  0  0  0  0
   66.4870   32.7100   50.1450 C   0  0  0  0  0  0  0  0  0  0  0  0
   65.2550   32.0560   50.0490 C   0  0  0  0  0  0  0  0  0  0  0  0
   60.4330   32.9470   50.6780 S   0  0  0  0  0  0  0  0  0  0  0  0
   60.7780   33.4570   52.3520 C   0  0  0  0  0  0  0  0  0  0  0  0
   59.7160   34.0680   49.9660 O   0  0  0  0  0  0  0  0  0  0  0  0
   59.5260   31.7440   50.7110 O   0  0  0  0  0  0  0  0  0  0  0  0
   57.3090   28.4020   45.4870 C   0  0  0  0  0  0  0  0  0  0  0  0
   57.0550   29.6970   45.0100 O   0  0  0  0  0  0  0  0  0  0  0  0
   56.8740   30.0280   43.6370 C   0  0  0  0  0  0  0  0  0  0  0  0
   56.2790   27.4550   45.6480 C   0  0  0  0  0  0  0  0  0  0  0  0
   54.9359   23.2962   45.7462 H   0  0  0  0  0  0  0  0  0  0  0  0
   54.3651   24.5521   44.5957 H   0  0  0  0  0  0  0  0  0  0  0  0
   56.0903   24.0514   44.5957 H   0  0  0  0  0  0  0  0  0  0  0  0
   58.1192   24.7679   46.7050 H   0  0  0  0  0  0  0  0  0  0  0  0
   59.9482   26.4391   46.4720 H   0  0  0  0  0  0  0  0  0  0  0  0
   60.1312   29.1940   44.6833 H   0  0  0  0  0  0  0  0  0  0  0  0
   61.4539   29.5096   46.7881 H   0  0  0  0  0  0  0  0  0  0  0  0
   60.0660   32.3320   48.6840 H   0  0  0  0  0  0  0  0  0  0  0  0
   57.9406   31.2845   45.9300 H   0  0  0  0  0  0  0  0  0  0  0  0
   56.9458   32.8263   44.2455 H   0  0  0  0  0  0  0  0  0  0  0  0
   57.7094   35.1945   44.1245 H   0  0  0  0  0  0  0  0  0  0  0  0
   59.5069   36.0159   45.6371 H   0  0  0  0  0  0  0  0  0  0  0  0
   63.6356   33.6043   49.2438 H   0  0  0  0  0  0  0  0  0  0  0  0
   62.2678   34.6133   49.8521 H   0  0  0  0  0  0  0  0  0  0  0  0
   62.3620   31.7807   51.7364 H   0  0  0  0  0  0  0  0  0  0  0  0
   62.9698   30.8011   50.3345 H   0  0  0  0  0  0  0  0  0  0  0  0
   63.5333   33.8137   52.4330 H   0  0  0  0  0  0  0  0  0  0  0  0
   65.7326   34.9819   52.5862 H   0  0  0  0  0  0  0  0  0  0  0  0
   67.6164   34.2928   51.1039 H   0  0  0  0  0  0  0  0  0  0  0  0
   67.3287   32.3912   49.5126 H   0  0  0  0  0  0  0  0  0  0  0  0
   65.1356   31.2050   49.3623 H   0  0  0  0  0  0  0  0  0  0  0  0
   60.3036   32.7556   53.0541 H   0  0  0  0  0  0  0  0  0  0  0  0
   61.8655   33.4617   52.5171 H   0  0  0  0  0  0  0  0  0  0  0  0
   60.3777   34.4682   52.5171 H   0  0  0  0  0  0  0  0  0  0  0  0
   56.3476   30.9906   43.5582 H   0  0  0  0  0  0  0  0  0  0  0  0
   57.8553   30.1054   43.1460 H   0  0  0  0  0  0  0  0  0  0  0  0
   56.2793   29.2436   43.1460 H   0  0  0  0  0  0  0  0  0  0  0  0
   55.2387   27.7441   45.4379 H   0  0  0  0  0  0  0  0  0  0  0  0
  1  2  1  0
  2  3  1  0
  3  4  2  0
  4  5  1  0
  5  6  2  0
  6  7  1  0
  7  8  2  3
  8  9  1  0
  9 10  2  0
  9 11  1  0
 11 12  1  0
 12 13  2  0
 13 14  1  0
 14 15  2  0
 15 16  1  0
 16 17  2  0
 17 18  1  0
 18 19  1  0
 19 20  2  0
 19 21  1  0
 21 22  1  0
 22 23  1  0
 23 24  1  0
 24 25  2  0
 25 26  1  0
 26 27  2  0
 27 28  1  0
 28 29  2  0
 22 30  1  0
 30 31  1  0
 30 32  2  0
 30 33  2  0
  6 34  1  0
 34 35  1  0
 35 36  1  0
 34 37  2  0
 37  3  1  0
 17 12  1  0
 29 24  1  0
  1 38  1  0
  1 39  1  0
  1 40  1  0
  4 41  1  0
  5 42  1  0
  7 43  1  0
  8 44  1  0
 11 45  1  0
 13 46  1  0
 14 47  1  0
 15 48  1  0
 16 49  1  0
 21 50  1  0
 21 51  1  0
 23 52  1  0
 23 53  1  0
 25 54  1  0
 26 55  1  0
 27 56  1  0
 28 57  1  0
 29 58  1  0
 31 59  1  0
 31 60  1  0
 31 61  1  0
 36 62  1  0
 36 63  1  0
 36 64  1  0
 37 65  1  0
M  CHG  1  18  -1
M  END
>  <UniqueID>  (28) 
27

>  <SMILES>  (28) 
COc1ccc(C=CC(=O)Nc2ccccc2[N-]C(=O)CN(Cc2ccccc2)S(C)(=O)=O)c(OC)c1

>  <Energy>  (28) 
79.81110469226724

>  <Genealogy>  (28) 
COc1ccc(C=CC(=O)Nc2ccccc2[N-]C(=O)CN(Cc2ccccc2)S(C)(=O)=O)c(OC)c1 (protonated)
COc1ccc(C=CC(=O)Nc2ccccc2[N-]C(=O)CN(Cc2ccccc2)S(C)(=O)=O)c(OC)c1 (3D coordinates assigned)
COc1ccc(C=CC(=O)Nc2ccccc2[N-]C(=O)CN(Cc2ccccc2)S(C)(=O)=O)c(OC)c1 (optimized conformer: 79.81110469226724 kcal/mol)

>  <smiles>  (28) 
COc1ccc(C=CC(=O)Nc2ccccc2NC(=O)CN(Cc2ccccc2)S(C)(=O)=O)c(OC)c1

>  <score_type>  (28) 
oracle

>  <origin>  (28) 
adg

>  <m_score__min__energy>  (28) 
-10.65

>  <m_primary>  (28) 
energy

$$$$
28:0
     RDKit          3D

 52 55  0  0  0  0  0  0  0  0999 V2000
   56.2890   30.1930   42.5490 C   0  0  0  0  0  0  0  0  0  0  0  0
   56.1720   29.9780   44.0250 C   0  0  0  0  0  0  0  0  0  0  0  0
   55.1470   29.4010   44.4780 O   0  0  0  0  0  0  0  0  0  0  0  0
   57.2410   30.4120   44.9570 C   0  0  0  0  0  0  0  0  0  0  0  0
   57.7620   29.5220   45.9270 C   0  0  0  0  0  0  0  0  0  0  0  0
   57.2040   28.2090   46.1230 N   0  0  0  0  0  0  0  0  0  0  0  0
   57.9910   27.0040   46.1300 C   0  0  0  0  0  0  0  0  0  0  0  0
   59.3960   27.0880   46.0910 C   0  0  0  0  0  0  0  0  0  0  0  0
   60.1780   25.9340   46.0300 C   0  0  0  0  0  0  0  0  0  0  0  0
   59.5690   24.6810   45.9920 C   0  0  0  0  0  0  0  0  0  0  0  0
   58.1790   24.5770   46.0260 C   0  0  0  0  0  0  0  0  0  0  0  0
   57.3710   25.7270   46.1040 C   0  0  0  0  0  0  0  0  0  0  0  0
   55.9000   25.5620   46.2010 C   0  0  0  0  0  0  0  0  0  0  0  0
   55.4070   24.4450   46.5110 O   0  0  0  0  0  0  0  0  0  0  0  0
   55.0440   26.6380   45.9940 O   0  0  0  0  0  0  0  0  0  0  0  0
   58.8120   29.9070   46.7080 N   0  0  0  0  0  0  0  0  0  0  0  0
   59.3630   31.1510   46.6220 C   0  0  0  0  0  0  0  0  0  0  0  0
   60.4280   31.5090   47.4620 C   0  0  0  0  0  0  0  0  0  0  0  0
   61.0100   32.7840   47.3810 C   0  0  0  0  0  0  0  0  0  0  0  0
   62.1080   33.1340   48.2480 N   0  0  0  0  0  0  0  0  0  0  0  0
   63.4970   32.9570   47.7960 C   0  0  0  0  0  0  0  0  0  0  0  0
   64.3820   32.5370   48.9730 C   0  0  0  0  0  0  0  0  0  0  0  0
   64.3170   33.5370   50.1460 C   0  0  0  0  0  0  0  0  0  0  0  0
   63.0510   34.4150   50.1450 C   0  0  0  0  0  0  0  0  0  0  0  0
   61.8350   33.6650   49.5920 C   0  0  0  0  0  0  0  0  0  0  0  0
   60.5040   33.7100   46.4500 C   0  0  0  0  0  0  0  0  0  0  0  0
   61.0160   34.9630   46.3720 F   0  0  0  0  0  0  0  0  0  0  0  0
   59.4420   33.3610   45.6130 C   0  0  0  0  0  0  0  0  0  0  0  0
   58.8610   32.0820   45.6890 C   0  0  0  0  0  0  0  0  0  0  0  0
   57.7990   31.7020   44.8490 C   0  0  0  0  0  0  0  0  0  0  0  0
   57.3620   32.5090   43.9820 O   0  0  0  0  0  0  0  0  0  0  0  0
   56.8067   31.1444   42.3569 H   0  0  0  0  0  0  0  0  0  0  0  0
   56.8620   29.3670   42.1024 H   0  0  0  0  0  0  0  0  0  0  0  0
   55.2843   30.2257   42.1024 H   0  0  0  0  0  0  0  0  0  0  0  0
   56.1680   28.1120   46.0350 H   0  0  0  0  0  0  0  0  0  0  0  0
   59.8826   28.0744   46.1088 H   0  0  0  0  0  0  0  0  0  0  0  0
   61.2750   26.0132   46.0119 H   0  0  0  0  0  0  0  0  0  0  0  0
   60.1862   23.7722   45.9351 H   0  0  0  0  0  0  0  0  0  0  0  0
   57.7078   23.5836   45.9914 H   0  0  0  0  0  0  0  0  0  0  0  0
   59.1840   29.2270   47.4110 H   0  0  0  0  0  0  0  0  0  0  0  0
   60.8117   30.7820   48.1929 H   0  0  0  0  0  0  0  0  0  0  0  0
   63.5308   32.1789   47.0192 H   0  0  0  0  0  0  0  0  0  0  0  0
   63.8676   33.9088   47.3876 H   0  0  0  0  0  0  0  0  0  0  0  0
   64.0494   31.5514   49.3306 H   0  0  0  0  0  0  0  0  0  0  0  0
   65.4220   32.5072   48.6158 H   0  0  0  0  0  0  0  0  0  0  0  0
   64.3446   32.9692   51.0877 H   0  0  0  0  0  0  0  0  0  0  0  0
   65.1768   34.2144   50.0376 H   0  0  0  0  0  0  0  0  0  0  0  0
   62.8356   34.7294   51.1769 H   0  0  0  0  0  0  0  0  0  0  0  0
   63.2393   35.2833   49.4965 H   0  0  0  0  0  0  0  0  0  0  0  0
   61.5907   32.8303   50.2655 H   0  0  0  0  0  0  0  0  0  0  0  0
   60.9911   34.3674   49.5259 H   0  0  0  0  0  0  0  0  0  0  0  0
   59.0563   34.0927   44.8878 H   0  0  0  0  0  0  0  0  0  0  0  0
  1  2  1  0
  2  3  2  0
  2  4  1  0
  4  5  2  0
  5  6  1  0
  6  7  1  0
  7  8  2  0
  8  9  1  0
  9 10  2  0
 10 11  1  0
 11 12  2  0
 12 13  1  0
 13 14  2  0
 13 15  1  0
  5 16  1  0
 16 17  1  0
 17 18  2  0
 18 19  1  0
 19 20  1  0
 20 21  1  0
 21 22  1  0
 22 23  1  0
 23 24  1  0
 24 25  1  0
 19 26  2  0
 26 27  1  0
 26 28  1  0
 28 29  2  0
 29 30  1  0
 30 31  2  0
 30  4  1  0
 12  7  1  0
 29 17  1  0
 25 20  1  0
  1 32  1  0
  1 33  1  0
  1 34  1  0
  6 35  1  0
  8 36  1  0
  9 37  1  0
 10 38  1  0
 11 39  1  0
 16 40  1  0
 18 41  1  0
 21 42  1  0
 21 43  1  0
 22 44  1  0
 22 45  1  0
 23 46  1  0
 23 47  1  0
 24 48  1  0
 24 49  1  0
 25 50  1  0
 25 51  1  0
 28 52  1  0
M  CHG  1  15  -1
M  END
>  <UniqueID>  (29) 
28

>  <SMILES>  (29) 
CC(=O)c1c(Nc2ccccc2C(=O)[O-])[nH]c2cc(N3CCCCC3)c(F)cc2c1=O

>  <Energy>  (29) 
81.04895882850822

>  <Genealogy>  (29) 
CC(=O)c1c(Nc2ccccc2C(=O)[O-])[nH]c2cc(N3CCCCC3)c(F)cc2c1=O (protonated)
CC(=O)c1c(Nc2ccccc2C(=O)[O-])[nH]c2cc(N3CCCCC3)c(F)cc2c1=O (3D coordinates assigned)
CC(=O)c1c(Nc2ccccc2C(=O)[O-])[nH]c2cc(N3CCCCC3)c(F)cc2c1=O (nonaromatic ring conformer: 81.04895882850822 kcal/mol)

>  <smiles>  (29) 
CC(=O)c1c(Nc2ccccc2C(=O)O)[nH]c2cc(N3CCCCC3)c(F)cc2c1=O

>  <score_type>  (29) 
oracle

>  <origin>  (29) 
adg

>  <m_score__min__energy>  (29) 
-12.59

>  <m_primary>  (29) 
energy

$$$$
29:0
     RDKit          3D

 39 41  0  0  0  0  0  0  0  0999 V2000
   52.4080   22.8830   45.1050 O   0  0  0  0  0  0  0  0  0  0  0  0
   53.5300   23.4530   45.1540 C   0  0  0  0  0  0  0  0  0  0  0  0
   53.6170   24.7480   45.5510 N   0  0  0  0  0  0  0  0  0  0  0  0
   54.8150   25.3830   45.6200 C   0  0  0  0  0  0  0  0  0  0  0  0
   54.8550   26.7160   46.0120 O   0  0  0  0  0  0  0  0  0  0  0  0
   55.9990   24.6930   45.2990 C   0  0  0  0  0  0  0  0  0  0  0  0
   57.3450   25.3760   45.4080 C   0  0  0  0  0  0  0  0  0  0  0  0
   57.4160   26.5350   44.5160 N   0  0  0  0  0  0  0  0  0  0  0  0
   57.9650   27.8160   44.8820 C   0  0  0  0  0  0  0  0  0  0  0  0
   59.2900   27.8840   45.3420 C   0  0  0  0  0  0  0  0  0  0  0  0
   59.8510   29.1090   45.7110 C   0  0  0  0  0  0  0  0  0  0  0  0
   59.0970   30.2800   45.6240 C   0  0  0  0  0  0  0  0  0  0  0  0
   57.7720   30.2360   45.1760 C   0  0  0  0  0  0  0  0  0  0  0  0
   57.0260   31.4600   45.1310 N   0  0  0  0  0  0  0  0  0  0  0  0
   57.7080   33.0430   44.9270 S   0  0  0  0  0  0  0  0  0  0  0  0
   58.4610   33.0890   43.6280 O   0  0  0  0  0  0  0  0  0  0  0  0
   56.5960   34.0540   44.8850 O   0  0  0  0  0  0  0  0  0  0  0  0
   58.8220   33.3990   46.2430 C   0  0  0  0  0  0  0  0  0  0  0  0
   60.0860   33.9390   45.9680 C   0  0  0  0  0  0  0  0  0  0  0  0
   60.9800   34.2030   47.0100 C   0  0  0  0  0  0  0  0  0  0  0  0
   60.6150   33.9310   48.3310 C   0  0  0  0  0  0  0  0  0  0  0  0
   59.3530   33.4010   48.6120 C   0  0  0  0  0  0  0  0  0  0  0  0
   58.4550   33.1380   47.5720 C   0  0  0  0  0  0  0  0  0  0  0  0
   57.2090   29.0010   44.8050 C   0  0  0  0  0  0  0  0  0  0  0  0
   55.8760   23.3600   44.8590 C   0  0  0  0  0  0  0  0  0  0  0  0
   56.8890   22.6990   44.5060 O   0  0  0  0  0  0  0  0  0  0  0  0
   54.6520   22.7730   44.8050 N   0  0  0  0  0  0  0  0  0  0  0  0
   57.4967   25.7098   46.4451 H   0  0  0  0  0  0  0  0  0  0  0  0
   58.1274   24.6597   45.1169 H   0  0  0  0  0  0  0  0  0  0  0  0
   56.9990   26.4290   43.5630 H   0  0  0  0  0  0  0  0  0  0  0  0
   59.8910   26.9654   45.4123 H   0  0  0  0  0  0  0  0  0  0  0  0
   60.8896   29.1506   46.0710 H   0  0  0  0  0  0  0  0  0  0  0  0
   59.5465   31.2426   45.9091 H   0  0  0  0  0  0  0  0  0  0  0  0
   60.3754   34.1557   44.9291 H   0  0  0  0  0  0  0  0  0  0  0  0
   61.9716   34.6252   46.7897 H   0  0  0  0  0  0  0  0  0  0  0  0
   61.3210   34.1341   49.1497 H   0  0  0  0  0  0  0  0  0  0  0  0
   59.0652   33.1902   49.6525 H   0  0  0  0  0  0  0  0  0  0  0  0
   57.4600   32.7261   47.7964 H   0  0  0  0  0  0  0  0  0  0  0  0
   56.1681   28.9611   44.4514 H   0  0  0  0  0  0  0  0  0  0  0  0
  1  2  2  0
  2  3  1  0
  3  4  1  0
  4  5  1  0
  4  6  2  0
  6  7  1  0
  7  8  1  0
  8  9  1  0
  9 10  2  0
 10 11  1  0
 11 12  2  0
 12 13  1  0
 13 14  1  0
 14 15  1  0
 15 16  2  0
 15 17  2  0
 15 18  1  0
 18 19  2  0
 19 20  1  0
 20 21  2  0
 21 22  1  0
 22 23  2  0
 13 24  2  0
  6 25  1  0
 25 26  2  0
 25 27  1  0
 27  2  1  0
 24  9  1  0
 23 18  1  0
  7 28  1  0
  7 29  1  0
  8 30  1  0
 10 31  1  0
 11 32  1  0
 12 33  1  0
 19 34  1  0
 20 35  1  0
 21 36  1  0
 22 37  1  0
 23 38  1  0
 24 39  1  0
M  CHG  4   3  -1   5  -1  14  -1  27  -1
M  END
>  <UniqueID>  (30) 
29

>  <SMILES>  (30) 
O=c1[n-]c([O-])c(CNc2cccc([N-]S(=O)(=O)c3ccccc3)c2)c(=O)[n-]1

>  <Energy>  (30) 
45.77057439307275

>  <Genealogy>  (30) 
O=c1[n-]c([O-])c(CNc2cccc([N-]S(=O)(=O)c3ccccc3)c2)c(=O)[n-]1 (protonated)
O=c1[n-]c([O-])c(CNc2cccc([N-]S(=O)(=O)c3ccccc3)c2)c(=O)[n-]1 (3D coordinates assigned)
O=c1[n-]c([O-])c(CNc2cccc([N-]S(=O)(=O)c3ccccc3)c2)c(=O)[n-]1 (optimized conformer: 45.77057439307275 kcal/mol)

>  <smiles>  (30) 
O=c1[nH]c(O)c(CNc2cccc(NS(=O)(=O)c3ccccc3)c2)c(=O)[nH]1

>  <score_type>  (30) 
oracle

>  <origin>  (30) 
adg

>  <m_score__min__energy>  (30) 
-17.640000000000001

>  <m_primary>  (30) 
energy

$$$$
30:0
     RDKit          3D

 37 38  0  0  0  0  0  0  0  0999 V2000
   56.6578   34.0133   45.0322 H   0  0  0  0  0  0  0  0  0  0  0  0
   57.4790   33.3920   45.4190 C   0  0  0  0  0  0  0  0  0  0  0  0
   57.4040   32.0020   45.3470 C   0  0  0  0  0  0  0  0  0  0  0  0
   56.2640   31.4030   44.7990 O   0  0  0  0  0  0  0  0  0  0  0  0
   56.2810   30.1960   44.0370 C   0  0  0  0  0  0  0  0  0  0  0  0
   55.2844   29.7320   44.0771 H   0  0  0  0  0  0  0  0  0  0  0  0
   57.0387   29.5236   44.4655 H   0  0  0  0  0  0  0  0  0  0  0  0
   56.6470   30.4710   42.5720 C   0  0  0  0  0  0  0  0  0  0  0  0
   55.7191   30.6705   42.0160 H   0  0  0  0  0  0  0  0  0  0  0  0
   57.1793   29.5806   42.2061 H   0  0  0  0  0  0  0  0  0  0  0  0
   57.5940   31.6650   42.3740 C   0  0  0  0  0  0  0  0  0  0  0  0
   58.6313   31.3108   42.4663 H   0  0  0  0  0  0  0  0  0  0  0  0
   57.3506   32.4137   43.1422 H   0  0  0  0  0  0  0  0  0  0  0  0
   57.4240   32.3310   41.0090 C   0  0  0  0  0  0  0  0  0  0  0  0
   57.1541   33.3883   41.1479 H   0  0  0  0  0  0  0  0  0  0  0  0
   58.3680   32.2642   40.4483 H   0  0  0  0  0  0  0  0  0  0  0  0
   56.6275   31.8199   40.4483 H   0  0  0  0  0  0  0  0  0  0  0  0
   58.4330   31.2490   45.8200 N   0  0  0  0  0  0  0  0  0  0  0  0
   59.5500   31.7900   46.3800 C   0  0  0  0  0  0  0  0  0  0  0  0
   60.6090   30.8640   46.8570 C   0  0  0  0  0  0  0  0  0  0  0  0
   61.3160   31.1610   47.8540 O   0  0  0  0  0  0  0  0  0  0  0  0
   60.9470   29.6840   46.1110 N   0  0  0  0  0  0  0  0  0  0  0  0
   60.1570   28.6970   45.7870 C   0  0  0  0  0  0  0  0  0  0  0  0
   60.3020   27.4770   46.4600 C   0  0  0  0  0  0  0  0  0  0  0  0
   61.0524   27.3713   47.2573 H   0  0  0  0  0  0  0  0  0  0  0  0
   59.4900   26.3970   46.1140 C   0  0  0  0  0  0  0  0  0  0  0  0
   59.6085   25.4315   46.6275 H   0  0  0  0  0  0  0  0  0  0  0  0
   58.5280   26.5440   45.1160 C   0  0  0  0  0  0  0  0  0  0  0  0
   57.4110   25.0730   44.6280 Br  0  0  0  0  0  0  0  0  0  0  0  0
   58.3830   27.7800   44.4840 C   0  0  0  0  0  0  0  0  0  0  0  0
   57.6205   27.9092   43.7018 H   0  0  0  0  0  0  0  0  0  0  0  0
   59.1820   28.8270   44.8320 N   0  0  0  0  0  0  0  0  0  0  0  0
   59.0010   29.7410   44.3620 H   0  0  0  0  0  0  0  0  0  0  0  0
   59.6510   33.1980   46.4770 C   0  0  0  0  0  0  0  0  0  0  0  0
   61.0130   34.0180   47.2350 Cl  0  0  0  0  0  0  0  0  0  0  0  0
   58.6050   33.9870   45.9860 C   0  0  0  0  0  0  0  0  0  0  0  0
   58.6715   35.0832   46.0478 H   0  0  0  0  0  0  0  0  0  0  0  0
  1  2  1  0
  2  3  2  0
  3  4  1  0
  4  5  1  0
  5  6  1  0
  5  7  1  0
  5  8  1  0
  8  9  1  0
  8 10  1  0
  8 11  1  0
 11 12  1  0
 11 13  1  0
 11 14  1  0
 14 15  1  0
 14 16  1  0
 14 17  1  0
  3 18  1  0
 18 19  2  0
 19 20  1  0
 20 21  2  0
 20 22  1  0
 22 23  2  0
 23 24  1  0
 24 25  1  0
 24 26  2  0
 26 27  1  0
 26 28  1  0
 28 29  1  0
 28 30  2  0
 30 31  1  0
 30 32  1  0
 32 33  1  0
 19 34  1  0
 34 35  1  0
 34 36  2  0
 36 37  1  0
 36  2  1  0
 32 23  1  0
M  END
>  <UniqueID>  (31) 
30

>  <SMILES>  (31) 
CCCCOc1ccc(Cl)c(C(=O)/N=c2/ccc(Br)c[nH]2)n1

>  <Energy>  (31) 
41.51335789302695

>  <Genealogy>  (31) 
CCCCOc1ccc(Cl)c(C(=O)/N=c2/ccc(Br)c[nH]2)n1 (cis-trans isomerization)
CCCCOc1ccc(Cl)c(C(=O)/N=c2/ccc(Br)c[nH]2)n1 (3D coordinates assigned)
CCCCOc1ccc(Cl)c(C(=O)/N=c2/ccc(Br)c[nH]2)n1 (optimized conformer: 41.51335789302695 kcal/mol)

>  <smiles>  (31) 
CCCCOc1ccc(Cl)c(C(=O)N=c2ccc(Br)c[nH]2)n1

>  <score_type>  (31) 
oracle

>  <origin>  (31) 
adg

>  <m_score__min__energy>  (31) 
-7.7800000000000002

>  <m_primary>  (31) 
energy

$$$$
31:0
     RDKit          3D

 42 43  0  0  0  0  0  0  0  0999 V2000
   58.6780   32.4170   49.5510 C   0  0  0  0  0  0  0  0  0  0  0  0
   58.5210   33.0480   48.2010 C   0  0  0  0  0  0  0  0  0  0  0  0
   57.3800   32.9200   47.4880 N   0  0  0  0  0  0  0  0  0  0  0  0
   57.6020   33.6230   46.3640 C   0  0  0  0  0  0  0  0  0  0  0  0
   58.8700   34.1560   46.4060 C   0  0  0  0  0  0  0  0  0  0  0  0
   59.4250   35.0010   45.3860 N   0  0  0  0  0  0  0  0  0  0  0  0
   59.8890   36.1260   45.6560 O   0  0  0  0  0  0  0  0  0  0  0  0
   59.6160   34.4960   44.1200 O   0  0  0  0  0  0  0  0  0  0  0  0
   59.4720   33.7800   47.5610 N   0  0  0  0  0  0  0  0  0  0  0  0
   60.7610   34.2210   48.1180 C   0  0  0  0  0  0  0  0  0  0  0  0
   61.9630   33.6750   47.3290 C   0  0  0  0  0  0  0  0  0  0  0  0
   62.6820   32.1930   48.0390 S   0  0  0  0  0  0  0  0  0  0  0  0
   63.2050   31.3180   46.9350 O   0  0  0  0  0  0  0  0  0  0  0  0
   63.8380   32.5990   48.9100 O   0  0  0  0  0  0  0  0  0  0  0  0
   61.5510   31.2810   48.9960 N   0  0  0  0  0  0  0  0  0  0  0  0
   61.3920   29.9310   48.4540 C   0  0  0  0  0  0  0  0  0  0  0  0
   60.2490   29.9140   47.4780 C   0  0  0  0  0  0  0  0  0  0  0  0
   59.1560   29.0560   47.6790 C   0  0  0  0  0  0  0  0  0  0  0  0
   58.0750   29.0720   46.7930 C   0  0  0  0  0  0  0  0  0  0  0  0
   58.0720   29.9480   45.7000 C   0  0  0  0  0  0  0  0  0  0  0  0
   56.7020   29.9800   44.5940 S   0  0  0  0  0  0  0  0  0  0  0  0
   55.5240   28.8220   45.1000 N   0  0  0  0  0  0  0  0  0  0  0  0
   57.1620   29.6500   43.2030 O   0  0  0  0  0  0  0  0  0  0  0  0
   56.0870   31.3520   44.5860 O   0  0  0  0  0  0  0  0  0  0  0  0
   59.1510   30.8210   45.5090 C   0  0  0  0  0  0  0  0  0  0  0  0
   60.2330   30.8070   46.3950 C   0  0  0  0  0  0  0  0  0  0  0  0
   58.4908   33.1693   50.3314 H   0  0  0  0  0  0  0  0  0  0  0  0
   57.9576   31.5924   49.6563 H   0  0  0  0  0  0  0  0  0  0  0  0
   59.7008   32.0261   49.6563 H   0  0  0  0  0  0  0  0  0  0  0  0
   56.8838   33.7518   45.5409 H   0  0  0  0  0  0  0  0  0  0  0  0
   60.7961   35.3203   48.0978 H   0  0  0  0  0  0  0  0  0  0  0  0
   60.8314   33.8321   49.1445 H   0  0  0  0  0  0  0  0  0  0  0  0
   61.6304   33.4435   46.3064 H   0  0  0  0  0  0  0  0  0  0  0  0
   62.7414   34.4518   47.3527 H   0  0  0  0  0  0  0  0  0  0  0  0
   61.9340   31.2080   49.9640 H   0  0  0  0  0  0  0  0  0  0  0  0
   62.3172   29.6309   47.9403 H   0  0  0  0  0  0  0  0  0  0  0  0
   61.1837   29.2287   49.2746 H   0  0  0  0  0  0  0  0  0  0  0  0
   59.1503   28.3682   48.5374 H   0  0  0  0  0  0  0  0  0  0  0  0
   57.2237   28.3943   46.9546 H   0  0  0  0  0  0  0  0  0  0  0  0
   54.6280   29.3400   45.2440 H   0  0  0  0  0  0  0  0  0  0  0  0
   59.1471   31.5197   44.6594 H   0  0  0  0  0  0  0  0  0  0  0  0
   61.0748   31.4985   46.2426 H   0  0  0  0  0  0  0  0  0  0  0  0
  1  2  1  0
  2  3  2  0
  3  4  1  0
  4  5  2  0
  5  6  1  0
  6  7  2  0
  6  8  1  0
  5  9  1  0
  9 10  1  0
 10 11  1  0
 11 12  1  0
 12 13  2  0
 12 14  2  0
 12 15  1  0
 15 16  1  0
 16 17  1  0
 17 18  2  0
 18 19  1  0
 19 20  2  0
 20 21  1  0
 21 22  1  0
 21 23  2  0
 21 24  2  0
 20 25  1  0
 25 26  2  0
  9  2  1  0
 26 17  1  0
  1 27  1  0
  1 28  1  0
  1 29  1  0
  4 30  1  0
 10 31  1  0
 10 32  1  0
 11 33  1  0
 11 34  1  0
 15 35  1  0
 16 36  1  0
 16 37  1  0
 18 38  1  0
 19 39  1  0
 22 40  1  0
 25 41  1  0
 26 42  1  0
M  CHG  3   6   1   8  -1  22  -1
M  END
>  <UniqueID>  (32) 
31

>  <SMILES>  (32) 
Cc1ncc([N+](=O)[O-])n1CCS(=O)(=O)NCc1ccc(S([NH-])(=O)=O)cc1

>  <Energy>  (32) 
64.65675464784734

>  <Genealogy>  (32) 
Cc1ncc([N+](=O)[O-])n1CCS(=O)(=O)NCc1ccc(S([NH-])(=O)=O)cc1 (protonated)
Cc1ncc([N+](=O)[O-])n1CCS(=O)(=O)NCc1ccc(S([NH-])(=O)=O)cc1 (3D coordinates assigned)
Cc1ncc([N+](=O)[O-])n1CCS(=O)(=O)NCc1ccc(S([NH-])(=O)=O)cc1 (optimized conformer: 64.65675464784734 kcal/mol)

>  <smiles>  (32) 
Cc1ncc([N+](=O)[O-])n1CCS(=O)(=O)NCc1ccc(S(N)(=O)=O)cc1

>  <score_type>  (32) 
oracle

>  <origin>  (32) 
adg

>  <m_score__min__energy>  (32) 
-11.06

>  <m_primary>  (32) 
energy

$$$$
32:0
     RDKit          3D

 49 51  0  0  0  0  0  0  0  0999 V2000
   55.2000   18.3303   46.1062 H   0  0  0  0  0  0  0  0  0  0  0  0
   55.6380   19.3040   46.3710 C   0  0  0  0  0  0  0  0  0  0  0  0
   55.2730   19.9280   47.5640 C   0  0  0  0  0  0  0  0  0  0  0  0
   54.5545   19.4394   48.2386 H   0  0  0  0  0  0  0  0  0  0  0  0
   55.8160   21.1740   47.9090 C   0  0  0  0  0  0  0  0  0  0  0  0
   55.4020   21.8290   49.2000 C   0  0  0  0  0  0  0  0  0  0  0  0
   55.7763   21.2368   50.0481 H   0  0  0  0  0  0  0  0  0  0  0  0
   55.8228   22.8442   49.2475 H   0  0  0  0  0  0  0  0  0  0  0  0
   54.3044   21.8845   49.2475 H   0  0  0  0  0  0  0  0  0  0  0  0
   56.7690   21.7770   47.0540 C   0  0  0  0  0  0  0  0  0  0  0  0
   57.3540   23.0440   47.3920 N   0  0  0  0  0  0  0  0  0  0  0  0
   57.1060   24.1480   46.7540 C   0  0  0  0  0  0  0  0  0  0  0  0
   55.9000   24.7490   46.7940 N   0  0  0  0  0  0  0  0  0  0  0  0
   55.8980   25.9040   46.0790 C   0  0  0  0  0  0  0  0  0  0  0  0
   54.7720   26.7130   46.0080 O   0  0  0  0  0  0  0  0  0  0  0  0
   57.0990   26.2150   45.4450 C   0  0  0  0  0  0  0  0  0  0  0  0
   57.4290   27.4960   44.7440 C   0  0  0  0  0  0  0  0  0  0  0  0
   56.7100   27.6674   43.9293 H   0  0  0  0  0  0  0  0  0  0  0  0
   58.4432   27.4402   44.3217 H   0  0  0  0  0  0  0  0  0  0  0  0
   57.3500   28.6170   45.7270 C   0  0  0  0  0  0  0  0  0  0  0  0
   57.8600   28.4840   46.8730 O   0  0  0  0  0  0  0  0  0  0  0  0
   56.7660   29.8600   45.3300 N   0  0  0  0  0  0  0  0  0  0  0  0
   57.4720   31.1040   45.2350 C   0  0  0  0  0  0  0  0  0  0  0  0
   57.3680   31.8540   44.0610 C   0  0  0  0  0  0  0  0  0  0  0  0
   56.7356   31.4922   43.2369 H   0  0  0  0  0  0  0  0  0  0  0  0
   58.0600   33.0590   43.9250 C   0  0  0  0  0  0  0  0  0  0  0  0
   57.9596   33.6469   43.0007 H   0  0  0  0  0  0  0  0  0  0  0  0
   58.8860   33.5250   44.9660 C   0  0  0  0  0  0  0  0  0  0  0  0
   59.5890   34.7380   44.8740 O   0  0  0  0  0  0  0  0  0  0  0  0
   59.6500   35.7140   45.9070 C   0  0  0  0  0  0  0  0  0  0  0  0
   59.6187   35.2139   46.8862 H   0  0  0  0  0  0  0  0  0  0  0  0
   60.5856   36.2854   45.8168 H   0  0  0  0  0  0  0  0  0  0  0  0
   58.7928   36.3974   45.8168 H   0  0  0  0  0  0  0  0  0  0  0  0
   59.0250   32.7600   46.1350 C   0  0  0  0  0  0  0  0  0  0  0  0
   59.8770   33.2360   47.1450 O   0  0  0  0  0  0  0  0  0  0  0  0
   61.2650   32.9380   47.2350 C   0  0  0  0  0  0  0  0  0  0  0  0
   61.5586   32.8750   48.2932 H   0  0  0  0  0  0  0  0  0  0  0  0
   61.4663   31.9762   46.7407 H   0  0  0  0  0  0  0  0  0  0  0  0
   61.8434   33.7324   46.7407 H   0  0  0  0  0  0  0  0  0  0  0  0
   58.3200   31.5470   46.2630 C   0  0  0  0  0  0  0  0  0  0  0  0
   58.4346   30.9425   47.1748 H   0  0  0  0  0  0  0  0  0  0  0  0
   58.2160   25.0120   45.8190 S   0  0  0  0  0  0  0  0  0  0  0  0
   57.1270   21.1470   45.8430 C   0  0  0  0  0  0  0  0  0  0  0  0
   58.1270   21.7810   44.9190 C   0  0  0  0  0  0  0  0  0  0  0  0
   58.9100   22.2774   45.5110 H   0  0  0  0  0  0  0  0  0  0  0  0
   58.5826   21.0064   44.2846 H   0  0  0  0  0  0  0  0  0  0  0  0
   57.6208   22.5235   44.2846 H   0  0  0  0  0  0  0  0  0  0  0  0
   56.5560   19.9090   45.5120 C   0  0  0  0  0  0  0  0  0  0  0  0
   56.8335   19.4127   44.5703 H   0  0  0  0  0  0  0  0  0  0  0  0
  1  2  1  0
  2  3  2  0
  3  4  1  0
  3  5  1  0
  5  6  1  0
  6  7  1  0
  6  8  1  0
  6  9  1  0
  5 10  2  0
 10 11  1  0
 11 12  2  0
 12 13  1  0
 13 14  1  0
 14 15  1  0
 14 16  2  0
 16 17  1  0
 17 18  1  0
 17 19  1  0
 17 20  1  0
 20 21  2  0
 20 22  1  0
 22 23  1  0
 23 24  2  0
 24 25  1  0
 24 26  1  0
 26 27  1  0
 26 28  2  0
 28 29  1  0
 29 30  1  0
 30 31  1  0
 30 32  1  0
 30 33  1  0
 28 34  1  0
 34 35  1  0
 35 36  1  0
 36 37  1  0
 36 38  1  0
 36 39  1  0
 34 40  2  0
 40 41  1  0
 16 42  1  0
 10 43  1  0
 43 44  1  0
 44 45  1  0
 44 46  1  0
 44 47  1  0
 43 48  2  0
 48 49  1  0
 48  2  1  0
 42 12  1  0
 40 23  1  0
M  CHG  3  13  -1  15  -1  22  -1
M  END
>  <UniqueID>  (33) 
32

>  <SMILES>  (33) 
COc1ccc([N-]C(=O)Cc2s/c(=N\c3c(C)cccc3C)[n-]c2[O-])cc1OC

>  <Energy>  (33) 
89.04647549900473

>  <Genealogy>  (33) 
COc1ccc([N-]C(=O)Cc2sc(=Nc3c(C)cccc3C)[n-]c2[O-])cc1OC (protonated)
COc1ccc([N-]C(=O)Cc2s/c(=N\c3c(C)cccc3C)[n-]c2[O-])cc1OC (cis-trans isomerization)
COc1ccc([N-]C(=O)Cc2s/c(=N\c3c(C)cccc3C)[n-]c2[O-])cc1OC (3D coordinates assigned)
COc1ccc([N-]C(=O)Cc2s/c(=N\c3c(C)cccc3C)[n-]c2[O-])cc1OC (optimized conformer: 89.04647549900473 kcal/mol)

>  <smiles>  (33) 
COc1ccc(NC(=O)Cc2sc(=Nc3c(C)cccc3C)[nH]c2O)cc1OC

>  <score_type>  (33) 
oracle

>  <origin>  (33) 
adg

>  <m_score__min__energy>  (33) 
-15.449999999999999

>  <m_primary>  (33) 
energy

$$$$
33:0
     RDKit          3D

 47 49  0  0  0  0  0  0  0  0999 V2000
   57.0370   34.4050   44.9230 C   0  0  0  0  0  0  0  0  0  0  0  0
   58.2760   33.8700   45.5890 C   0  0  0  0  0  0  0  0  0  0  0  0
   59.2580   34.7590   46.0560 C   0  0  0  0  0  0  0  0  0  0  0  0
   60.3970   34.2770   46.7020 C   0  0  0  0  0  0  0  0  0  0  0  0
   60.5790   32.9040   46.8730 C   0  0  0  0  0  0  0  0  0  0  0  0
   59.6250   31.9930   46.3900 C   0  0  0  0  0  0  0  0  0  0  0  0
   59.8620   30.5180   46.5790 C   0  0  0  0  0  0  0  0  0  0  0  0
   58.4510   32.4800   45.7680 C   0  0  0  0  0  0  0  0  0  0  0  0
   57.4390   31.5730   45.3120 N   0  0  0  0  0  0  0  0  0  0  0  0
   57.1610   31.3820   43.9190 C   0  0  0  0  0  0  0  0  0  0  0  0
   57.7650   32.0660   43.0470 O   0  0  0  0  0  0  0  0  0  0  0  0
   56.1950   30.3280   43.4900 C   0  0  0  0  0  0  0  0  0  0  0  0
   56.8570   29.0310   43.5360 N   0  0  0  0  0  0  0  0  0  0  0  0
   57.5280   28.5420   44.6980 C   0  0  0  0  0  0  0  0  0  0  0  0
   57.0610   28.7630   45.8500 O   0  0  0  0  0  0  0  0  0  0  0  0
   58.8210   27.8040   44.5490 C   0  0  0  0  0  0  0  0  0  0  0  0
   59.0730   27.0110   45.7060 O   0  0  0  0  0  0  0  0  0  0  0  0
   58.9630   25.6140   45.7270 C   0  0  0  0  0  0  0  0  0  0  0  0
   59.9590   24.9040   46.0390 O   0  0  0  0  0  0  0  0  0  0  0  0
   57.6770   24.9780   45.3750 C   0  0  0  0  0  0  0  0  0  0  0  0
   57.6560   23.8230   44.5460 C   0  0  0  0  0  0  0  0  0  0  0  0
   56.4390   23.2050   44.2050 C   0  0  0  0  0  0  0  0  0  0  0  0
   55.2670   23.7630   44.7030 C   0  0  0  0  0  0  0  0  0  0  0  0
   55.2740   24.8660   45.4950 C   0  0  0  0  0  0  0  0  0  0  0  0
   56.4540   25.5080   45.8560 C   0  0  0  0  0  0  0  0  0  0  0  0
   53.9760   25.1940   45.8390 O   0  0  0  0  0  0  0  0  0  0  0  0
   53.1000   24.2370   45.2280 C   0  0  0  0  0  0  0  0  0  0  0  0
   53.9640   23.3430   44.5100 O   0  0  0  0  0  0  0  0  0  0  0  0
   56.3138   34.7173   45.6908 H   0  0  0  0  0  0  0  0  0  0  0  0
   57.3018   35.2689   44.2957 H   0  0  0  0  0  0  0  0  0  0  0  0
   56.5898   33.6198   44.2957 H   0  0  0  0  0  0  0  0  0  0  0  0
   59.1284   35.8417   45.9116 H   0  0  0  0  0  0  0  0  0  0  0  0
   61.1538   34.9814   47.0776 H   0  0  0  0  0  0  0  0  0  0  0  0
   61.4761   32.5324   47.3898 H   0  0  0  0  0  0  0  0  0  0  0  0
   59.8991   30.2874   47.6539 H   0  0  0  0  0  0  0  0  0  0  0  0
   59.0433   29.9521   46.1106 H   0  0  0  0  0  0  0  0  0  0  0  0
   60.8168   30.2371   46.1106 H   0  0  0  0  0  0  0  0  0  0  0  0
   57.0170   30.9150   46.0060 H   0  0  0  0  0  0  0  0  0  0  0  0
   55.3285   30.3240   44.1676 H   0  0  0  0  0  0  0  0  0  0  0  0
   55.8512   30.5337   42.4656 H   0  0  0  0  0  0  0  0  0  0  0  0
   58.7664   27.1505   43.6658 H   0  0  0  0  0  0  0  0  0  0  0  0
   59.6371   28.5317   44.4288 H   0  0  0  0  0  0  0  0  0  0  0  0
   58.6017   23.4081   44.1671 H   0  0  0  0  0  0  0  0  0  0  0  0
   56.4155   22.3102   43.5657 H   0  0  0  0  0  0  0  0  0  0  0  0
   56.4382   26.4019   46.4968 H   0  0  0  0  0  0  0  0  0  0  0  0
   52.5302   23.6909   45.9942 H   0  0  0  0  0  0  0  0  0  0  0  0
   52.3628   24.7165   44.5673 H   0  0  0  0  0  0  0  0  0  0  0  0
  1  2  1  0
  2  3  2  0
  3  4  1  0
  4  5  2  0
  5  6  1  0
  6  7  1  0
  6  8  2  0
  8  9  1  0
  9 10  1  0
 10 11  2  0
 10 12  1  0
 12 13  1  0
 13 14  1  0
 14 15  2  0
 14 16  1  0
 16 17  1  0
 17 18  1  0
 18 19  2  0
 18 20  1  0
 20 21  2  0
 21 22  1  0
 22 23  2  0
 23 24  1  0
 24 25  2  0
 24 26  1  0
 26 27  1  0
 27 28  1  0
  8  2  1  0
 25 20  1  0
 28 23  1  0
  1 29  1  0
  1 30  1  0
  1 31  1  0
  3 32  1  0
  4 33  1  0
  5 34  1  0
  7 35  1  0
  7 36  1  0
  7 37  1  0
  9 38  1  0
 12 39  1  0
 12 40  1  0
 16 41  1  0
 16 42  1  0
 21 43  1  0
 22 44  1  0
 25 45  1  0
 27 46  1  0
 27 47  1  0
M  CHG  1  13  -1
M  END
>  <UniqueID>  (34) 
33

>  <SMILES>  (34) 
Cc1cccc(C)c1NC(=O)C[N-]C(=O)COC(=O)c1ccc2c(c1)OCO2

>  <Energy>  (34) 
75.69648075005612

>  <Genealogy>  (34) 
Cc1cccc(C)c1NC(=O)C[N-]C(=O)COC(=O)c1ccc2c(c1)OCO2 (protonated)
Cc1cccc(C)c1NC(=O)C[N-]C(=O)COC(=O)c1ccc2c(c1)OCO2 (3D coordinates assigned)
Cc1cccc(C)c1NC(=O)C[N-]C(=O)COC(=O)c1ccc2c(c1)OCO2 (nonaromatic ring conformer: 75.69648075005612 kcal/mol)

>  <smiles>  (34) 
Cc1cccc(C)c1NC(=O)CNC(=O)COC(=O)c1ccc2c(c1)OCO2

>  <score_type>  (34) 
oracle

>  <origin>  (34) 
adg

>  <m_score__min__energy>  (34) 
-9.6600000000000001

>  <m_primary>  (34) 
energy

$$$$
34:0
     RDKit          3D

 69 73  0  0  0  0  0  0  0  0999 V2000
   59.0455   31.6745   50.8491 H   0  0  0  0  0  0  0  0  0  0  0  0
   59.8520   31.7960   50.1110 C   0  0  0  0  0  0  0  0  0  0  0  0
   60.9100   32.6690   50.3760 C   0  0  0  0  0  0  0  0  0  0  0  0
   60.9273   33.2357   51.3186 H   0  0  0  0  0  0  0  0  0  0  0  0
   61.9500   32.8280   49.4490 C   0  0  0  0  0  0  0  0  0  0  0  0
   63.0460   33.7700   49.7530 C   0  0  0  0  0  0  0  0  0  0  0  0
   62.9130   34.9810   49.4270 O   0  0  0  0  0  0  0  0  0  0  0  0
   64.2640   33.3280   50.3850 N   0  0  0  0  0  0  0  0  0  0  0  0
   64.9390   34.1980   51.3540 C   0  0  0  0  0  0  0  0  0  0  0  0
   64.7620   35.2495   51.0838 H   0  0  0  0  0  0  0  0  0  0  0  0
   64.5382   33.9969   52.3584 H   0  0  0  0  0  0  0  0  0  0  0  0
   66.4450   33.9210   51.3510 C   0  0  0  0  0  0  0  0  0  0  0  0
   66.8732   34.2685   50.3992 H   0  0  0  0  0  0  0  0  0  0  0  0
   66.9025   34.4561   52.1962 H   0  0  0  0  0  0  0  0  0  0  0  0
   66.7040   32.5380   51.4980 O   0  0  0  0  0  0  0  0  0  0  0  0
   66.2220   31.8430   50.3650 C   0  0  0  0  0  0  0  0  0  0  0  0
   66.6569   32.2870   49.4574 H   0  0  0  0  0  0  0  0  0  0  0  0
   66.5119   30.7853   50.4501 H   0  0  0  0  0  0  0  0  0  0  0  0
   64.6940   31.9290   50.2840 C   0  0  0  0  0  0  0  0  0  0  0  0
   64.3561   31.5125   49.3236 H   0  0  0  0  0  0  0  0  0  0  0  0
   64.2556   31.3557   51.1142 H   0  0  0  0  0  0  0  0  0  0  0  0
   61.9430   32.0630   48.2650 C   0  0  0  0  0  0  0  0  0  0  0  0
   63.2900   32.1000   47.1310 Cl  0  0  0  0  0  0  0  0  0  0  0  0
   60.8790   31.1910   48.0030 C   0  0  0  0  0  0  0  0  0  0  0  0
   60.8777   30.5927   47.0800 H   0  0  0  0  0  0  0  0  0  0  0  0
   59.8120   31.0750   48.9120 C   0  0  0  0  0  0  0  0  0  0  0  0
   58.7260   30.1600   48.6910 N   0  0  0  0  0  0  0  0  0  0  0  0
   58.5290   29.4280   47.6290 C   0  0  0  0  0  0  0  0  0  0  0  0
   58.6280   28.0740   47.6970 N   0  0  0  0  0  0  0  0  0  0  0  0
   58.4520   27.2970   46.6320 N   0  0  0  0  0  0  0  0  0  0  0  0
   58.1750   27.8020   45.4020 C   0  0  0  0  0  0  0  0  0  0  0  0
   57.9410   26.8200   44.2800 C   0  0  0  0  0  0  0  0  0  0  0  0
   57.0849   27.1584   43.6778 H   0  0  0  0  0  0  0  0  0  0  0  0
   58.8494   26.7695   43.6617 H   0  0  0  0  0  0  0  0  0  0  0  0
   57.6500   25.4440   44.8220 C   0  0  0  0  0  0  0  0  0  0  0  0
   58.6870   24.6310   45.3110 C   0  0  0  0  0  0  0  0  0  0  0  0
   59.7227   25.0014   45.3031 H   0  0  0  0  0  0  0  0  0  0  0  0
   58.4090   23.3550   45.8070 C   0  0  0  0  0  0  0  0  0  0  0  0
   59.2268   22.7238   46.1849 H   0  0  0  0  0  0  0  0  0  0  0  0
   57.0920   22.8760   45.8250 C   0  0  0  0  0  0  0  0  0  0  0  0
   56.7380   21.2760   46.4710 S   0  0  0  0  0  0  0  0  0  0  0  0
   57.0210   21.2510   47.9480 O   0  0  0  0  0  0  0  0  0  0  0  0
   55.2870   20.9490   46.2530 O   0  0  0  0  0  0  0  0  0  0  0  0
   57.7220   20.1030   45.6690 N   0  0  0  0  0  0  0  0  0  0  0  0
   58.5430   20.6120   45.2700 H   0  0  0  0  0  0  0  0  0  0  0  0
   57.1680   19.7440   44.8600 H   0  0  0  0  0  0  0  0  0  0  0  0
   56.0530   23.6900   45.3560 C   0  0  0  0  0  0  0  0  0  0  0  0
   55.0161   23.3236   45.3791 H   0  0  0  0  0  0  0  0  0  0  0  0
   56.3300   24.9660   44.8590 C   0  0  0  0  0  0  0  0  0  0  0  0
   55.5087   25.6004   44.4943 H   0  0  0  0  0  0  0  0  0  0  0  0
   58.0640   29.2050   45.2490 C   0  0  0  0  0  0  0  0  0  0  0  0
   57.7760   29.8080   44.0080 C   0  0  0  0  0  0  0  0  0  0  0  0
   57.6316   29.1778   43.1181 H   0  0  0  0  0  0  0  0  0  0  0  0
   57.6720   31.1940   43.8950 C   0  0  0  0  0  0  0  0  0  0  0  0
   57.4499   31.6466   42.9173 H   0  0  0  0  0  0  0  0  0  0  0  0
   57.8480   32.0140   45.0160 C   0  0  0  0  0  0  0  0  0  0  0  0
   57.7590   33.5130   44.8800 C   0  0  0  0  0  0  0  0  0  0  0  0
   56.7206   33.7867   44.6417 H   0  0  0  0  0  0  0  0  0  0  0  0
   58.4464   33.8224   44.0790 H   0  0  0  0  0  0  0  0  0  0  0  0
   58.1780   34.2340   46.1680 C   0  0  0  0  0  0  0  0  0  0  0  0
   57.9838   33.5701   47.0233 H   0  0  0  0  0  0  0  0  0  0  0  0
   57.5931   35.1631   46.2370 H   0  0  0  0  0  0  0  0  0  0  0  0
   59.6580   34.6150   46.1690 C   0  0  0  0  0  0  0  0  0  0  0  0
   60.0124   34.7062   47.2063 H   0  0  0  0  0  0  0  0  0  0  0  0
   60.2373   33.8367   45.6507 H   0  0  0  0  0  0  0  0  0  0  0  0
   59.7895   35.5763   45.6507 H   0  0  0  0  0  0  0  0  0  0  0  0
   58.1420   31.4300   46.2560 C   0  0  0  0  0  0  0  0  0  0  0  0
   58.2894   32.0714   47.1374 H   0  0  0  0  0  0  0  0  0  0  0  0
   58.2510   30.0300   46.3870 C   0  0  0  0  0  0  0  0  0  0  0  0
  1  2  1  0
  2  3  2  0
  3  4  1  0
  3  5  1  0
  5  6  1  0
  6  7  2  0
  6  8  1  0
  8  9  1  0
  9 10  1  0
  9 11  1  0
  9 12  1  0
 12 13  1  0
 12 14  1  0
 12 15  1  0
 15 16  1  0
 16 17  1  0
 16 18  1  0
 16 19  1  0
 19 20  1  0
 19 21  1  0
  5 22  2  0
 22 23  1  0
 22 24  1  0
 24 25  1  0
 24 26  2  0
 26 27  1  0
 27 28  2  0
 28 29  1  0
 29 30  1  0
 30 31  2  0
 31 32  1  0
 32 33  1  0
 32 34  1  0
 32 35  1  0
 35 36  2  0
 36 37  1  0
 36 38  1  0
 38 39  1  0
 38 40  2  0
 40 41  1  0
 41 42  2  0
 41 43  2  0
 41 44  1  0
 44 45  1  0
 44 46  1  0
 40 47  1  0
 47 48  1  0
 47 49  2  0
 49 50  1  0
 31 51  1  0
 51 52  2  0
 52 53  1  0
 52 54  1  0
 54 55  1  0
 54 56  2  0
 56 57  1  0
 57 58  1  0
 57 59  1  0
 57 60  1  0
 60 61  1  0
 60 62  1  0
 60 63  1  0
 63 64  1  0
 63 65  1  0
 63 66  1  0
 56 67  1  0
 67 68  1  0
 67 69  2  0
 26  2  1  0
 69 28  1  0
 19  8  1  0
 49 35  1  0
 69 51  1  0
M  CHG  1  29  -1
M  END
>  <UniqueID>  (35) 
34

>  <SMILES>  (35) 
CCCc1ccc2c(Cc3ccc(S(N)(=O)=O)cc3)n[n-]/c(=N\c3ccc(C(=O)N4CCOCC4)c(Cl)c3)c2c1

>  <Energy>  (35) 
90.10970567248461

>  <Genealogy>  (35) 
CCCc1ccc2c(Cc3ccc(S(N)(=O)=O)cc3)n[n-]c(=Nc3ccc(C(=O)N4CCOCC4)c(Cl)c3)c2c1 (protonated)
CCCc1ccc2c(Cc3ccc(S(N)(=O)=O)cc3)n[n-]/c(=N\c3ccc(C(=O)N4CCOCC4)c(Cl)c3)c2c1 (cis-trans isomerization)
CCCc1ccc2c(Cc3ccc(S(N)(=O)=O)cc3)n[n-]/c(=N\c3ccc(C(=O)N4CCOCC4)c(Cl)c3)c2c1 (3D coordinates assigned)
CCCc1ccc2c(Cc3ccc(S(N)(=O)=O)cc3)n[n-]/c(=N\c3ccc(C(=O)N4CCOCC4)c(Cl)c3)c2c1 (nonaromatic ring conformer: 90.10970567248461 kcal/mol)

>  <smiles>  (35) 
CCCc1ccc2c(Cc3ccc(S(N)(=O)=O)cc3)n[nH]c(=Nc3ccc(C(=O)N4CCOCC4)c(Cl)c3)c2c1

>  <score_type>  (35) 
oracle

>  <origin>  (35) 
adg

>  <m_score__min__energy>  (35) 
-11.82

>  <m_primary>  (35) 
energy

$$$$
35:0
     RDKit          3D

 54 57  0  0  0  0  0  0  0  0999 V2000
   59.4290   35.4110   44.9570 O   0  0  0  0  0  0  0  0  0  0  0  0
   58.6830   34.5830   45.5480 C   0  0  0  0  0  0  0  0  0  0  0  0
   57.3600   34.2240   44.9410 C   0  0  0  0  0  0  0  0  0  0  0  0
   57.4910   33.0960   44.0750 O   0  0  0  0  0  0  0  0  0  0  0  0
   57.5360   31.7560   44.4930 C   0  0  0  0  0  0  0  0  0  0  0  0
   56.5450   30.8180   44.1450 C   0  0  0  0  0  0  0  0  0  0  0  0
   56.6470   29.4910   44.5740 C   0  0  0  0  0  0  0  0  0  0  0  0
   57.7360   29.0760   45.3600 C   0  0  0  0  0  0  0  0  0  0  0  0
   57.8470   27.6640   45.8110 C   0  0  0  0  0  0  0  0  0  0  0  0
   59.1080   27.0810   46.0290 C   0  0  0  0  0  0  0  0  0  0  0  0
   59.2120   25.7530   46.4550 C   0  0  0  0  0  0  0  0  0  0  0  0
   58.0550   24.9870   46.6830 C   0  0  0  0  0  0  0  0  0  0  0  0
   58.1100   23.6490   47.1020 O   0  0  0  0  0  0  0  0  0  0  0  0
   57.0240   22.9030   47.5750 C   0  0  0  0  0  0  0  0  0  0  0  0
   56.9190   22.6260   48.8000 O   0  0  0  0  0  0  0  0  0  0  0  0
   55.9790   22.5550   46.6600 N   0  0  0  0  0  0  0  0  0  0  0  0
   56.0860   22.4830   45.2310 C   0  0  0  0  0  0  0  0  0  0  0  0
   56.8490   21.4520   44.6650 C   0  0  0  0  0  0  0  0  0  0  0  0
   56.9620   21.3350   43.2760 C   0  0  0  0  0  0  0  0  0  0  0  0
   56.3010   22.2400   42.4410 C   0  0  0  0  0  0  0  0  0  0  0  0
   55.5180   23.2570   42.9960 C   0  0  0  0  0  0  0  0  0  0  0  0
   55.4040   23.3780   44.3840 C   0  0  0  0  0  0  0  0  0  0  0  0
   56.8010   25.5610   46.4480 C   0  0  0  0  0  0  0  0  0  0  0  0
   56.6940   26.8880   46.0220 C   0  0  0  0  0  0  0  0  0  0  0  0
   58.7170   30.0190   45.7130 C   0  0  0  0  0  0  0  0  0  0  0  0
   58.6140   31.3440   45.2830 C   0  0  0  0  0  0  0  0  0  0  0  0
   59.0620   34.0400   46.8200 N   0  0  0  0  0  0  0  0  0  0  0  0
   60.4190   33.9740   47.2900 C   0  0  0  0  0  0  0  0  0  0  0  0
   60.6890   34.1980   48.6500 C   0  0  0  0  0  0  0  0  0  0  0  0
   61.9970   34.1110   49.1360 C   0  0  0  0  0  0  0  0  0  0  0  0
   63.0450   33.7850   48.2710 C   0  0  0  0  0  0  0  0  0  0  0  0
   64.3120   33.6980   48.7440 F   0  0  0  0  0  0  0  0  0  0  0  0
   62.7850   33.5380   46.9200 C   0  0  0  0  0  0  0  0  0  0  0  0
   61.4770   33.6250   46.4300 C   0  0  0  0  0  0  0  0  0  0  0  0
   56.6482   33.9820   45.7439 H   0  0  0  0  0  0  0  0  0  0  0  0
   56.9965   35.0802   44.3538 H   0  0  0  0  0  0  0  0  0  0  0  0
   55.6864   31.1307   43.5326 H   0  0  0  0  0  0  0  0  0  0  0  0
   55.8686   28.7659   44.2941 H   0  0  0  0  0  0  0  0  0  0  0  0
   60.0195   27.6740   45.8632 H   0  0  0  0  0  0  0  0  0  0  0  0
   60.2043   25.3052   46.6126 H   0  0  0  0  0  0  0  0  0  0  0  0
   57.3621   20.7304   45.3177 H   0  0  0  0  0  0  0  0  0  0  0  0
   57.5718   20.5298   42.8402 H   0  0  0  0  0  0  0  0  0  0  0  0
   56.3965   22.1524   41.3487 H   0  0  0  0  0  0  0  0  0  0  0  0
   54.9903   23.9637   42.3386 H   0  0  0  0  0  0  0  0  0  0  0  0
   54.7800   24.1743   44.8158 H   0  0  0  0  0  0  0  0  0  0  0  0
   55.8907   24.9624   46.5999 H   0  0  0  0  0  0  0  0  0  0  0  0
   55.7006   27.3282   45.8507 H   0  0  0  0  0  0  0  0  0  0  0  0
   59.5722   29.7111   46.3325 H   0  0  0  0  0  0  0  0  0  0  0  0
   59.3887   32.0708   45.5687 H   0  0  0  0  0  0  0  0  0  0  0  0
   58.3030   33.6940   47.4490 H   0  0  0  0  0  0  0  0  0  0  0  0
   59.8659   34.4435   49.3373 H   0  0  0  0  0  0  0  0  0  0  0  0
   62.2014   34.2993   50.2003 H   0  0  0  0  0  0  0  0  0  0  0  0
   63.6095   33.2749   46.2411 H   0  0  0  0  0  0  0  0  0  0  0  0
   61.2750   33.4198   45.3684 H   0  0  0  0  0  0  0  0  0  0  0  0
  1  2  2  0
  2  3  1  0
  3  4  1  0
  4  5  1  0
  5  6  2  0
  6  7  1  0
  7  8  2  0
  8  9  1  0
  9 10  2  0
 10 11  1  0
 11 12  2  0
 12 13  1  0
 13 14  1  0
 14 15  2  0
 14 16  1  0
 16 17  1  0
 17 18  2  0
 18 19  1  0
 19 20  2  0
 20 21  1  0
 21 22  2  0
 12 23  1  0
 23 24  2  0
  8 25  1  0
 25 26  2  0
  2 27  1  0
 27 28  1  0
 28 29  2  0
 29 30  1  0
 30 31  2  0
 31 32  1  0
 31 33  1  0
 33 34  2  0
 26  5  1  0
 34 28  1  0
 24  9  1  0
 22 17  1  0
  3 35  1  0
  3 36  1  0
  6 37  1  0
  7 38  1  0
 10 39  1  0
 11 40  1  0
 18 41  1  0
 19 42  1  0
 20 43  1  0
 21 44  1  0
 22 45  1  0
 23 46  1  0
 24 47  1  0
 25 48  1  0
 26 49  1  0
 27 50  1  0
 29 51  1  0
 30 52  1  0
 33 53  1  0
 34 54  1  0
M  CHG  1  16  -1
M  END
>  <UniqueID>  (36) 
35

>  <SMILES>  (36) 
O=C(COc1ccc(-c2ccc(OC(=O)[N-]c3ccccc3)cc2)cc1)Nc1ccc(F)cc1

>  <Energy>  (36) 
74.05569458911681

>  <Genealogy>  (36) 
O=C(COc1ccc(-c2ccc(OC(=O)[N-]c3ccccc3)cc2)cc1)Nc1ccc(F)cc1 (protonated)
O=C(COc1ccc(-c2ccc(OC(=O)[N-]c3ccccc3)cc2)cc1)Nc1ccc(F)cc1 (3D coordinates assigned)
O=C(COc1ccc(-c2ccc(OC(=O)[N-]c3ccccc3)cc2)cc1)Nc1ccc(F)cc1 (optimized conformer: 74.05569458911681 kcal/mol)

>  <smiles>  (36) 
O=C(COc1ccc(-c2ccc(OC(=O)Nc3ccccc3)cc2)cc1)Nc1ccc(F)cc1

>  <score_type>  (36) 
oracle

>  <origin>  (36) 
adg

>  <m_score__min__energy>  (36) 
-10.5

>  <m_primary>  (36) 
energy

$$$$
36:0
     RDKit          3D

 47 49  0  0  0  0  0  0  0  0999 V2000
   57.8610   25.8500   47.1610 C   0  0  0  0  0  0  0  0  0  0  0  0
   58.0650   26.9150   46.1240 C   0  0  0  0  0  0  0  0  0  0  0  0
   59.3460   27.1590   45.6050 C   0  0  0  0  0  0  0  0  0  0  0  0
   59.5300   28.1250   44.6120 C   0  0  0  0  0  0  0  0  0  0  0  0
   58.4380   28.8440   44.1210 C   0  0  0  0  0  0  0  0  0  0  0  0
   57.1490   28.6000   44.6200 C   0  0  0  0  0  0  0  0  0  0  0  0
   55.9710   29.3480   44.0570 C   0  0  0  0  0  0  0  0  0  0  0  0
   55.9820   30.7320   44.5170 N   0  0  0  0  0  0  0  0  0  0  0  0
   57.0900   31.6220   44.3320 C   0  0  0  0  0  0  0  0  0  0  0  0
   57.4000   32.0040   43.1710 O   0  0  0  0  0  0  0  0  0  0  0  0
   57.8690   32.0940   45.5010 C   0  0  0  0  0  0  0  0  0  0  0  0
   57.8860   33.4570   45.8460 C   0  0  0  0  0  0  0  0  0  0  0  0
   58.6220   33.9020   46.9460 C   0  0  0  0  0  0  0  0  0  0  0  0
   59.3570   32.9930   47.7190 C   0  0  0  0  0  0  0  0  0  0  0  0
   60.2950   33.5580   49.1040 S   0  0  0  0  0  0  0  0  0  0  0  0
   60.0250   32.6620   50.2810 O   0  0  0  0  0  0  0  0  0  0  0  0
   59.8490   34.9480   49.4680 O   0  0  0  0  0  0  0  0  0  0  0  0
   62.0080   33.5670   48.7710 N   0  0  0  0  0  0  0  0  0  0  0  0
   62.6650   32.4180   49.4100 C   0  0  0  0  0  0  0  0  0  0  0  0
   64.1770   32.4330   49.1000 C   0  0  0  0  0  0  0  0  0  0  0  0
   64.5280   33.4760   48.2090 O   0  0  0  0  0  0  0  0  0  0  0  0
   63.7580   33.3750   47.0260 C   0  0  0  0  0  0  0  0  0  0  0  0
   62.2530   33.5450   47.3190 C   0  0  0  0  0  0  0  0  0  0  0  0
   59.3410   31.6340   47.3850 C   0  0  0  0  0  0  0  0  0  0  0  0
   58.6050   31.1860   46.2850 C   0  0  0  0  0  0  0  0  0  0  0  0
   56.9670   27.6260   45.6170 C   0  0  0  0  0  0  0  0  0  0  0  0
   57.9460   26.2937   48.1639 H   0  0  0  0  0  0  0  0  0  0  0  0
   56.8616   25.4067   47.0397 H   0  0  0  0  0  0  0  0  0  0  0  0
   58.6258   25.0688   47.0397 H   0  0  0  0  0  0  0  0  0  0  0  0
   60.2078   26.5881   45.9810 H   0  0  0  0  0  0  0  0  0  0  0  0
   60.5377   28.3196   44.2160 H   0  0  0  0  0  0  0  0  0  0  0  0
   58.5887   29.6043   43.3404 H   0  0  0  0  0  0  0  0  0  0  0  0
   56.0218   29.3306   42.9583 H   0  0  0  0  0  0  0  0  0  0  0  0
   55.0441   28.8649   44.3997 H   0  0  0  0  0  0  0  0  0  0  0  0
   57.3146   34.1790   45.2441 H   0  0  0  0  0  0  0  0  0  0  0  0
   58.6249   34.9706   47.2069 H   0  0  0  0  0  0  0  0  0  0  0  0
   62.5160   32.4725   50.4985 H   0  0  0  0  0  0  0  0  0  0  0  0
   62.2260   31.4883   49.0188 H   0  0  0  0  0  0  0  0  0  0  0  0
   64.7306   32.5689   50.0408 H   0  0  0  0  0  0  0  0  0  0  0  0
   64.4338   31.4770   48.6202 H   0  0  0  0  0  0  0  0  0  0  0  0
   64.0768   34.1589   46.3232 H   0  0  0  0  0  0  0  0  0  0  0  0
   63.9163   32.3760   46.5936 H   0  0  0  0  0  0  0  0  0  0  0  0
   61.9033   34.4905   46.8788 H   0  0  0  0  0  0  0  0  0  0  0  0
   61.7076   32.6967   46.8797 H   0  0  0  0  0  0  0  0  0  0  0  0
   59.9108   30.9148   47.9916 H   0  0  0  0  0  0  0  0  0  0  0  0
   58.6008   30.1160   46.0300 H   0  0  0  0  0  0  0  0  0  0  0  0
   55.9574   27.4200   46.0021 H   0  0  0  0  0  0  0  0  0  0  0  0
  1  2  1  0
  2  3  2  0
  3  4  1  0
  4  5  2  0
  5  6  1  0
  6  7  1  0
  7  8  1  0
  8  9  1  0
  9 10  2  0
  9 11  1  0
 11 12  2  0
 12 13  1  0
 13 14  2  0
 14 15  1  0
 15 16  2  0
 15 17  2  0
 15 18  1  0
 18 19  1  0
 19 20  1  0
 20 21  1  0
 21 22  1  0
 22 23  1  0
 14 24  1  0
 24 25  2  0
  6 26  2  0
 26  2  1  0
 25 11  1  0
 23 18  1  0
  1 27  1  0
  1 28  1  0
  1 29  1  0
  3 30  1  0
  4 31  1  0
  5 32  1  0
  7 33  1  0
  7 34  1  0
 12 35  1  0
 13 36  1  0
 19 37  1  0
 19 38  1  0
 20 39  1  0
 20 40  1  0
 22 41  1  0
 22 42  1  0
 23 43  1  0
 23 44  1  0
 24 45  1  0
 25 46  1  0
 26 47  1  0
M  CHG  1   8  -1
M  END
>  <UniqueID>  (37) 
36

>  <SMILES>  (37) 
Cc1cccc(C[N-]C(=O)c2ccc(S(=O)(=O)N3CCOCC3)cc2)c1

>  <Energy>  (37) 
52.87994129879151

>  <Genealogy>  (37) 
Cc1cccc(C[N-]C(=O)c2ccc(S(=O)(=O)N3CCOCC3)cc2)c1 (protonated)
Cc1cccc(C[N-]C(=O)c2ccc(S(=O)(=O)N3CCOCC3)cc2)c1 (3D coordinates assigned)
Cc1cccc(C[N-]C(=O)c2ccc(S(=O)(=O)N3CCOCC3)cc2)c1 (nonaromatic ring conformer: 52.87994129879151 kcal/mol)

>  <smiles>  (37) 
Cc1cccc(CNC(=O)c2ccc(S(=O)(=O)N3CCOCC3)cc2)c1

>  <score_type>  (37) 
oracle

>  <origin>  (37) 
adg

>  <m_score__min__energy>  (37) 
-10.220000000000001

>  <m_primary>  (37) 
energy

$$$$
37:0
     RDKit          3D

 31 33  0  0  0  0  0  0  0  0999 V2000
   55.1580   26.7090   45.9680 O   0  0  0  0  0  0  0  0  0  0  0  0
   56.2160   27.5400   45.6210 C   0  0  0  0  0  0  0  0  0  0  0  0
   56.0700   28.8200   45.2490 N   0  0  0  0  0  0  0  0  0  0  0  0
   57.3400   29.2310   45.0210 C   0  0  0  0  0  0  0  0  0  0  0  0
   57.7030   30.6130   44.6150 C   0  0  0  0  0  0  0  0  0  0  0  0
   57.4350   31.0180   43.2910 C   0  0  0  0  0  0  0  0  0  0  0  0
   57.7700   32.3020   42.8540 C   0  0  0  0  0  0  0  0  0  0  0  0
   58.3720   33.2040   43.7300 C   0  0  0  0  0  0  0  0  0  0  0  0
   58.6370   32.8270   45.0460 C   0  0  0  0  0  0  0  0  0  0  0  0
   58.3080   31.5430   45.5000 C   0  0  0  0  0  0  0  0  0  0  0  0
   58.6320   31.1860   47.1950 Cl  0  0  0  0  0  0  0  0  0  0  0  0
   58.2650   28.2670   45.2470 N   0  0  0  0  0  0  0  0  0  0  0  0
   57.5420   27.1950   45.6120 C   0  0  0  0  0  0  0  0  0  0  0  0
   58.1360   25.8860   46.0330 C   0  0  0  0  0  0  0  0  0  0  0  0
   57.4830   24.7570   45.2810 C   0  0  0  0  0  0  0  0  0  0  0  0
   57.2580   24.8750   43.8980 C   0  0  0  0  0  0  0  0  0  0  0  0
   56.6850   23.8200   43.1830 C   0  0  0  0  0  0  0  0  0  0  0  0
   56.3410   22.6350   43.8400 C   0  0  0  0  0  0  0  0  0  0  0  0
   56.5720   22.5020   45.2110 C   0  0  0  0  0  0  0  0  0  0  0  0
   57.1460   23.5550   45.9330 C   0  0  0  0  0  0  0  0  0  0  0  0
   57.3710   23.4010   47.2620 F   0  0  0  0  0  0  0  0  0  0  0  0
   56.9564   30.3144   42.5939 H   0  0  0  0  0  0  0  0  0  0  0  0
   57.5584   32.6017   41.8170 H   0  0  0  0  0  0  0  0  0  0  0  0
   58.6380   34.2134   43.3830 H   0  0  0  0  0  0  0  0  0  0  0  0
   59.1086   33.5441   45.7340 H   0  0  0  0  0  0  0  0  0  0  0  0
   59.2149   25.8901   45.8187 H   0  0  0  0  0  0  0  0  0  0  0  0
   57.9696   25.7448   47.1111 H   0  0  0  0  0  0  0  0  0  0  0  0
   57.5346   25.8029   43.3761 H   0  0  0  0  0  0  0  0  0  0  0  0
   56.5045   23.9220   42.1027 H   0  0  0  0  0  0  0  0  0  0  0  0
   55.8878   21.8062   43.2764 H   0  0  0  0  0  0  0  0  0  0  0  0
   56.3022   21.5675   45.7247 H   0  0  0  0  0  0  0  0  0  0  0  0
  1  2  1  0
  2  3  1  0
  3  4  1  0
  4  5  1  0
  5  6  2  0
  6  7  1  0
  7  8  2  0
  8  9  1  0
  9 10  2  0
 10 11  1  0
  4 12  2  0
 12 13  1  0
 13 14  1  0
 14 15  1  0
 15 16  2  0
 16 17  1  0
 17 18  2  0
 18 19  1  0
 19 20  2  0
 20 21  1  0
 13  2  2  0
 20 15  1  0
 10  5  1  0
  6 22  1  0
  7 23  1  0
  8 24  1  0
  9 25  1  0
 14 26  1  0
 14 27  1  0
 16 28  1  0
 17 29  1  0
 18 30  1  0
 19 31  1  0
M  CHG  2   1  -1   3  -1
M  END
>  <UniqueID>  (38) 
37

>  <SMILES>  (38) 
[O-]c1[n-]c(-c2ccccc2Cl)nc1Cc1ccccc1F

>  <Energy>  (38) 
65.70020936224114

>  <Genealogy>  (38) 
[O-]c1[n-]c(-c2ccccc2Cl)nc1Cc1ccccc1F (protonated)
[O-]c1[n-]c(-c2ccccc2Cl)nc1Cc1ccccc1F (3D coordinates assigned)
[O-]c1[n-]c(-c2ccccc2Cl)nc1Cc1ccccc1F (optimized conformer: 65.70020936224114 kcal/mol)

>  <smiles>  (38) 
Oc1[nH]c(-c2ccccc2Cl)nc1Cc1ccccc1F

>  <score_type>  (38) 
oracle

>  <origin>  (38) 
adg

>  <m_score__min__energy>  (38) 
-12.27

>  <m_primary>  (38) 
energy

$$$$
38:0
     RDKit          3D

 49 50  0  0  0  0  0  0  0  0999 V2000
   57.3910   31.6110   42.6950 C   0  0  0  0  0  0  0  0  0  0  0  0
   56.8830   30.1900   42.9130 C   0  0  0  0  0  0  0  0  0  0  0  0
   55.8410   30.1350   44.0330 C   0  0  0  0  0  0  0  0  0  0  0  0
   56.4090   29.5810   45.2170 O   0  0  0  0  0  0  0  0  0  0  0  0
   57.7550   29.7560   45.5560 C   0  0  0  0  0  0  0  0  0  0  0  0
   58.2070   31.0240   45.9550 C   0  0  0  0  0  0  0  0  0  0  0  0
   57.2860   32.0830   45.9890 O   0  0  0  0  0  0  0  0  0  0  0  0
   57.6110   33.4400   46.1060 C   0  0  0  0  0  0  0  0  0  0  0  0
   57.6390   34.2900   44.8820 C   0  0  0  0  0  0  0  0  0  0  0  0
   57.7890   33.9740   47.2340 O   0  0  0  0  0  0  0  0  0  0  0  0
   59.5670   31.2070   46.2650 C   0  0  0  0  0  0  0  0  0  0  0  0
   60.4590   30.1360   46.1870 C   0  0  0  0  0  0  0  0  0  0  0  0
   60.0090   28.8780   45.7830 C   0  0  0  0  0  0  0  0  0  0  0  0
   58.6620   28.6830   45.4560 C   0  0  0  0  0  0  0  0  0  0  0  0
   58.2220   27.3700   44.9580 C   0  0  0  0  0  0  0  0  0  0  0  0
   57.8440   27.2600   43.7630 O   0  0  0  0  0  0  0  0  0  0  0  0
   58.1990   26.2160   45.8080 N   0  0  0  0  0  0  0  0  0  0  0  0
   57.2520   26.0050   46.9010 C   0  0  0  0  0  0  0  0  0  0  0  0
   55.8800   25.7460   46.3680 C   0  0  0  0  0  0  0  0  0  0  0  0
   55.1600   26.7120   45.9990 O   0  0  0  0  0  0  0  0  0  0  0  0
   55.3790   24.4040   46.3210 N   0  0  0  0  0  0  0  0  0  0  0  0
   55.8510   23.3950   45.4180 C   0  0  0  0  0  0  0  0  0  0  0  0
   55.7220   22.0530   45.7990 C   0  0  0  0  0  0  0  0  0  0  0  0
   56.1020   21.0290   44.9320 C   0  0  0  0  0  0  0  0  0  0  0  0
   56.6330   21.3370   43.6780 C   0  0  0  0  0  0  0  0  0  0  0  0
   56.8030   22.6710   43.2990 C   0  0  0  0  0  0  0  0  0  0  0  0
   56.4350   23.7110   44.1690 C   0  0  0  0  0  0  0  0  0  0  0  0
   56.7250   25.0640   43.7970 N   0  0  0  0  0  0  0  0  0  0  0  0
   57.5631   32.0923   43.6690 H   0  0  0  0  0  0  0  0  0  0  0  0
   58.3339   31.5806   42.1294 H   0  0  0  0  0  0  0  0  0  0  0  0
   56.6425   32.1853   42.1294 H   0  0  0  0  0  0  0  0  0  0  0  0
   56.4260   29.8264   41.9808 H   0  0  0  0  0  0  0  0  0  0  0  0
   57.7357   29.5581   43.2021 H   0  0  0  0  0  0  0  0  0  0  0  0
   55.4837   31.1535   44.2453 H   0  0  0  0  0  0  0  0  0  0  0  0
   55.0039   29.4991   43.7090 H   0  0  0  0  0  0  0  0  0  0  0  0
   57.6739   35.3503   45.1727 H   0  0  0  0  0  0  0  0  0  0  0  0
   58.5295   34.0439   44.2850 H   0  0  0  0  0  0  0  0  0  0  0  0
   56.7342   34.1031   44.2850 H   0  0  0  0  0  0  0  0  0  0  0  0
   59.9295   32.1996   46.5706 H   0  0  0  0  0  0  0  0  0  0  0  0
   61.5182   30.2837   46.4443 H   0  0  0  0  0  0  0  0  0  0  0  0
   60.7153   28.0370   45.7214 H   0  0  0  0  0  0  0  0  0  0  0  0
   57.5766   25.1402   47.4983 H   0  0  0  0  0  0  0  0  0  0  0  0
   57.2241   26.9106   47.5248 H   0  0  0  0  0  0  0  0  0  0  0  0
   55.3172   21.8048   46.7912 H   0  0  0  0  0  0  0  0  0  0  0  0
   55.9834   19.9785   45.2361 H   0  0  0  0  0  0  0  0  0  0  0  0
   56.9177   20.5290   42.9880 H   0  0  0  0  0  0  0  0  0  0  0  0
   57.2279   22.9087   42.3126 H   0  0  0  0  0  0  0  0  0  0  0  0
   57.0720   25.3090   42.8430 H   0  0  0  0  0  0  0  0  0  0  0  0
   56.5120   25.8500   44.4500 H   0  0  0  0  0  0  0  0  0  0  0  0
  1  2  1  0
  2  3  1  0
  3  4  1  0
  4  5  1  0
  5  6  2  0
  6  7  1  0
  7  8  1  0
  8  9  1  0
  8 10  2  0
  6 11  1  0
 11 12  2  0
 12 13  1  0
 13 14  2  0
 14 15  1  0
 15 16  2  0
 15 17  1  0
 17 18  1  0
 18 19  1  0
 19 20  2  0
 19 21  1  0
 21 22  1  0
 22 23  2  0
 23 24  1  0
 24 25  2  0
 25 26  1  0
 26 27  2  0
 27 28  1  0
 14  5  1  0
 27 22  1  0
  1 29  1  0
  1 30  1  0
  1 31  1  0
  2 32  1  0
  2 33  1  0
  3 34  1  0
  3 35  1  0
  9 36  1  0
  9 37  1  0
  9 38  1  0
 11 39  1  0
 12 40  1  0
 13 41  1  0
 18 42  1  0
 18 43  1  0
 23 44  1  0
 24 45  1  0
 25 46  1  0
 26 47  1  0
 28 48  1  0
 28 49  1  0
M  CHG  2  17  -1  21  -1
M  END
>  <UniqueID>  (39) 
38

>  <SMILES>  (39) 
CCCOc1c(OC(C)=O)cccc1C(=O)[N-]CC(=O)[N-]c1ccccc1N

>  <Energy>  (39) 
61.55719929925957

>  <Genealogy>  (39) 
CCCOc1c(OC(C)=O)cccc1C(=O)[N-]CC(=O)[N-]c1ccccc1N (protonated)
CCCOc1c(OC(C)=O)cccc1C(=O)[N-]CC(=O)[N-]c1ccccc1N (3D coordinates assigned)
CCCOc1c(OC(C)=O)cccc1C(=O)[N-]CC(=O)[N-]c1ccccc1N (optimized conformer: 61.55719929925957 kcal/mol)

>  <smiles>  (39) 
CCCOc1c(OC(C)=O)cccc1C(=O)NCC(=O)Nc1ccccc1N

>  <score_type>  (39) 
oracle

>  <origin>  (39) 
adg

>  <m_score__min__energy>  (39) 
-10.859999999999999

>  <m_primary>  (39) 
energy

$$$$
39:0
     RDKit          3D

 43 45  0  0  0  0  0  0  0  0999 V2000
   55.7860   30.4610   44.4930 O   0  0  0  0  0  0  0  0  0  0  0  0
   56.8640   30.1520   43.9180 C   0  0  0  0  0  0  0  0  0  0  0  0
   56.9950   28.8380   43.3630 N   0  0  0  0  0  0  0  0  0  0  0  0
   57.9990   27.8550   43.7590 C   0  0  0  0  0  0  0  0  0  0  0  0
   58.7020   28.2870   45.0190 C   0  0  0  0  0  0  0  0  0  0  0  0
   58.0600   28.1700   46.2610 C   0  0  0  0  0  0  0  0  0  0  0  0
   58.7030   28.5840   47.4310 C   0  0  0  0  0  0  0  0  0  0  0  0
   59.9960   29.1300   47.3770 C   0  0  0  0  0  0  0  0  0  0  0  0
   60.6670   29.5860   48.6170 C   0  0  0  0  0  0  0  0  0  0  0  0
   61.1540   28.7350   49.4060 O   0  0  0  0  0  0  0  0  0  0  0  0
   60.8200   30.9780   48.9250 N   0  0  0  0  0  0  0  0  0  0  0  0
   61.6300   31.9120   48.1960 C   0  0  0  0  0  0  0  0  0  0  0  0
   63.0030   32.0640   48.4670 C   0  0  0  0  0  0  0  0  0  0  0  0
   63.7670   32.9730   47.7300 C   0  0  0  0  0  0  0  0  0  0  0  0
   63.1740   33.7300   46.7170 C   0  0  0  0  0  0  0  0  0  0  0  0
   61.8170   33.5660   46.4280 C   0  0  0  0  0  0  0  0  0  0  0  0
   61.0490   32.6540   47.1590 C   0  0  0  0  0  0  0  0  0  0  0  0
   60.6480   29.2200   46.1360 C   0  0  0  0  0  0  0  0  0  0  0  0
   60.0070   28.8030   44.9670 C   0  0  0  0  0  0  0  0  0  0  0  0
   57.9190   31.1200   43.7920 N   0  0  0  0  0  0  0  0  0  0  0  0
   58.0600   32.2780   44.6360 C   0  0  0  0  0  0  0  0  0  0  0  0
   57.7680   32.2300   46.0130 C   0  0  0  0  0  0  0  0  0  0  0  0
   57.9180   33.3720   46.8070 C   0  0  0  0  0  0  0  0  0  0  0  0
   58.3820   34.5620   46.2430 C   0  0  0  0  0  0  0  0  0  0  0  0
   58.7050   34.6110   44.8850 C   0  0  0  0  0  0  0  0  0  0  0  0
   58.5500   33.4740   44.0860 C   0  0  0  0  0  0  0  0  0  0  0  0
   57.5067   26.8871   43.9344 H   0  0  0  0  0  0  0  0  0  0  0  0
   58.7424   27.7657   42.9531 H   0  0  0  0  0  0  0  0  0  0  0  0
   57.0447   27.7500   46.3143 H   0  0  0  0  0  0  0  0  0  0  0  0
   58.1931   28.4815   48.4003 H   0  0  0  0  0  0  0  0  0  0  0  0
   63.4754   31.4662   49.2604 H   0  0  0  0  0  0  0  0  0  0  0  0
   64.8385   33.0926   47.9483 H   0  0  0  0  0  0  0  0  0  0  0  0
   63.7747   34.4544   46.1474 H   0  0  0  0  0  0  0  0  0  0  0  0
   61.3518   34.1553   45.6240 H   0  0  0  0  0  0  0  0  0  0  0  0
   59.9841   32.5186   46.9188 H   0  0  0  0  0  0  0  0  0  0  0  0
   61.6707   29.6217   46.0844 H   0  0  0  0  0  0  0  0  0  0  0  0
   60.5272   28.8792   44.0008 H   0  0  0  0  0  0  0  0  0  0  0  0
   58.5730   31.0280   42.9840 H   0  0  0  0  0  0  0  0  0  0  0  0
   57.4203   31.2900   46.4663 H   0  0  0  0  0  0  0  0  0  0  0  0
   57.6699   33.3324   47.8779 H   0  0  0  0  0  0  0  0  0  0  0  0
   58.4931   35.4605   46.8678 H   0  0  0  0  0  0  0  0  0  0  0  0
   59.0818   35.5454   44.4434 H   0  0  0  0  0  0  0  0  0  0  0  0
   58.8137   33.5165   43.0189 H   0  0  0  0  0  0  0  0  0  0  0  0
  1  2  2  0
  2  3  1  0
  3  4  1  0
  4  5  1  0
  5  6  2  0
  6  7  1  0
  7  8  2  0
  8  9  1  0
  9 10  2  0
  9 11  1  0
 11 12  1  0
 12 13  2  0
 13 14  1  0
 14 15  2  0
 15 16  1  0
 16 17  2  0
  8 18  1  0
 18 19  2  0
  2 20  1  0
 20 21  1  0
 21 22  2  0
 22 23  1  0
 23 24  2  0
 24 25  1  0
 25 26  2  0
 19  5  1  0
 26 21  1  0
 17 12  1  0
  4 27  1  0
  4 28  1  0
  6 29  1  0
  7 30  1  0
 13 31  1  0
 14 32  1  0
 15 33  1  0
 16 34  1  0
 17 35  1  0
 18 36  1  0
 19 37  1  0
 20 38  1  0
 22 39  1  0
 23 40  1  0
 24 41  1  0
 25 42  1  0
 26 43  1  0
M  CHG  2   3  -1  11  -1
M  END
>  <UniqueID>  (40) 
39

>  <SMILES>  (40) 
O=C([N-]Cc1ccc(C(=O)[N-]c2ccccc2)cc1)Nc1ccccc1

>  <Energy>  (40) 
50.919852146711875

>  <Genealogy>  (40) 
O=C([N-]Cc1ccc(C(=O)[N-]c2ccccc2)cc1)Nc1ccccc1 (protonated)
O=C([N-]Cc1ccc(C(=O)[N-]c2ccccc2)cc1)Nc1ccccc1 (3D coordinates assigned)
O=C([N-]Cc1ccc(C(=O)[N-]c2ccccc2)cc1)Nc1ccccc1 (optimized conformer: 50.919852146711875 kcal/mol)

>  <smiles>  (40) 
O=C(NCc1ccc(C(=O)Nc2ccccc2)cc1)Nc1ccccc1

>  <score_type>  (40) 
oracle

>  <origin>  (40) 
adg

>  <m_score__min__energy>  (40) 
-10.859999999999999

>  <m_primary>  (40) 
energy

$$$$
40:0
     RDKit          3D

 40 42  0  0  0  0  0  0  0  0999 V2000
   55.7970   29.1620   45.1900 O   0  0  0  0  0  0  0  0  0  0  0  0
   56.5340   29.9290   44.5130 C   0  0  0  0  0  0  0  0  0  0  0  0
   56.3040   31.3430   44.5100 N   0  0  0  0  0  0  0  0  0  0  0  0
   57.2640   32.3550   44.8430 C   0  0  0  0  0  0  0  0  0  0  0  0
   58.0860   32.8630   43.8310 C   0  0  0  0  0  0  0  0  0  0  0  0
   59.0580   33.8220   44.1240 C   0  0  0  0  0  0  0  0  0  0  0  0
   59.2200   34.2780   45.4340 C   0  0  0  0  0  0  0  0  0  0  0  0
   58.4070   33.7840   46.4610 C   0  0  0  0  0  0  0  0  0  0  0  0
   58.6330   34.2470   47.8010 N   0  0  0  0  0  0  0  0  0  0  0  0
   59.6650   33.8020   48.6900 C   0  0  0  0  0  0  0  0  0  0  0  0
   59.5830   34.0440   49.9250 O   0  0  0  0  0  0  0  0  0  0  0  0
   60.8830   33.1500   48.1550 C   0  0  0  0  0  0  0  0  0  0  0  0
   62.0510   33.9220   48.0020 C   0  0  0  0  0  0  0  0  0  0  0  0
   63.2160   33.3550   47.4830 C   0  0  0  0  0  0  0  0  0  0  0  0
   63.2360   32.0100   47.1150 C   0  0  0  0  0  0  0  0  0  0  0  0
   62.0930   31.2250   47.2750 C   0  0  0  0  0  0  0  0  0  0  0  0
   60.9160   31.7800   47.7960 C   0  0  0  0  0  0  0  0  0  0  0  0
   59.4380   30.5870   48.0730 Br  0  0  0  0  0  0  0  0  0  0  0  0
   57.4470   32.7980   46.1670 C   0  0  0  0  0  0  0  0  0  0  0  0
   57.5840   29.3880   43.7030 N   0  0  0  0  0  0  0  0  0  0  0  0
   57.9060   27.9630   43.6840 C   0  0  0  0  0  0  0  0  0  0  0  0
   58.7530   27.6090   44.8660 C   0  0  0  0  0  0  0  0  0  0  0  0
   59.9700   28.1750   45.1840 C   0  0  0  0  0  0  0  0  0  0  0  0
   60.3630   27.5680   46.3570 C   0  0  0  0  0  0  0  0  0  0  0  0
   59.3630   26.6750   46.6820 C   0  0  0  0  0  0  0  0  0  0  0  0
   58.4140   26.7230   45.7740 O   0  0  0  0  0  0  0  0  0  0  0  0
   57.9658   32.5047   42.7980 H   0  0  0  0  0  0  0  0  0  0  0  0
   59.6971   34.2189   43.3215 H   0  0  0  0  0  0  0  0  0  0  0  0
   59.9907   35.0295   45.6601 H   0  0  0  0  0  0  0  0  0  0  0  0
   62.0450   34.9824   48.2945 H   0  0  0  0  0  0  0  0  0  0  0  0
   64.1201   33.9702   47.3640 H   0  0  0  0  0  0  0  0  0  0  0  0
   64.1529   31.5676   46.6985 H   0  0  0  0  0  0  0  0  0  0  0  0
   62.1161   30.1628   46.9901 H   0  0  0  0  0  0  0  0  0  0  0  0
   56.8361   32.3710   46.9760 H   0  0  0  0  0  0  0  0  0  0  0  0
   58.1450   30.0370   43.1060 H   0  0  0  0  0  0  0  0  0  0  0  0
   56.9742   27.3794   43.7168 H   0  0  0  0  0  0  0  0  0  0  0  0
   58.4610   27.7326   42.7627 H   0  0  0  0  0  0  0  0  0  0  0  0
   60.5125   28.9481   44.6200 H   0  0  0  0  0  0  0  0  0  0  0  0
   61.2882   27.7575   46.9209 H   0  0  0  0  0  0  0  0  0  0  0  0
   59.3603   26.0217   47.5670 H   0  0  0  0  0  0  0  0  0  0  0  0
  1  2  2  0
  2  3  1  0
  3  4  1  0
  4  5  2  0
  5  6  1  0
  6  7  2  0
  7  8  1  0
  8  9  1  0
  9 10  1  0
 10 11  2  0
 10 12  1  0
 12 13  2  0
 13 14  1  0
 14 15  2  0
 15 16  1  0
 16 17  2  0
 17 18  1  0
  8 19  2  0
  2 20  1  0
 20 21  1  0
 21 22  1  0
 22 23  2  0
 23 24  1  0
 24 25  2  0
 25 26  1  0
 19  4  1  0
 26 22  1  0
 17 12  1  0
  5 27  1  0
  6 28  1  0
  7 29  1  0
 13 30  1  0
 14 31  1  0
 15 32  1  0
 16 33  1  0
 19 34  1  0
 20 35  1  0
 21 36  1  0
 21 37  1  0
 23 38  1  0
 24 39  1  0
 25 40  1  0
M  CHG  2   3  -1   9  -1
M  END
>  <UniqueID>  (41) 
40

>  <SMILES>  (41) 
O=C([N-]c1cccc([N-]C(=O)c2ccccc2Br)c1)NCc1ccco1

>  <Energy>  (41) 
76.64761670797351

>  <Genealogy>  (41) 
O=C([N-]c1cccc([N-]C(=O)c2ccccc2Br)c1)NCc1ccco1 (protonated)
O=C([N-]c1cccc([N-]C(=O)c2ccccc2Br)c1)NCc1ccco1 (3D coordinates assigned)
O=C([N-]c1cccc([N-]C(=O)c2ccccc2Br)c1)NCc1ccco1 (optimized conformer: 76.64761670797351 kcal/mol)

>  <smiles>  (41) 
O=C(NCc1ccco1)Nc1cccc(NC(=O)c2ccccc2Br)c1

>  <score_type>  (41) 
oracle

>  <origin>  (41) 
adg

>  <m_score__min__energy>  (41) 
-11.609999999999999

>  <m_primary>  (41) 
energy

$$$$
41:0
     RDKit          3D

 56 59  0  0  0  0  0  0  0  0999 V2000
   57.4167   35.2334   45.6036 H   0  0  0  0  0  0  0  0  0  0  0  0
   57.7200   34.1800   45.6950 C   0  0  0  0  0  0  0  0  0  0  0  0
   57.0540   33.2190   45.0050 N   0  0  0  0  0  0  0  0  0  0  0  0
   57.4000   31.9090   45.1140 C   0  0  0  0  0  0  0  0  0  0  0  0
   56.7430   31.0230   44.4270 N   0  0  0  0  0  0  0  0  0  0  0  0
   56.4520   29.6900   44.8650 C   0  0  0  0  0  0  0  0  0  0  0  0
   55.2490   29.3110   44.8850 O   0  0  0  0  0  0  0  0  0  0  0  0
   57.5080   28.7610   45.3210 C   0  0  0  0  0  0  0  0  0  0  0  0
   58.0400   28.7390   46.5980 C   0  0  0  0  0  0  0  0  0  0  0  0
   57.7513   29.3817   47.4427 H   0  0  0  0  0  0  0  0  0  0  0  0
   59.0070   27.7490   46.6030 C   0  0  0  0  0  0  0  0  0  0  0  0
   59.8360   27.3480   47.7550 C   0  0  0  0  0  0  0  0  0  0  0  0
   60.6470   26.3890   47.6230 O   0  0  0  0  0  0  0  0  0  0  0  0
   59.6820   27.9990   49.0300 N   0  0  0  0  0  0  0  0  0  0  0  0
   58.7940   28.5180   49.2170 H   0  0  0  0  0  0  0  0  0  0  0  0
   60.5890   27.8210   50.1320 C   0  0  0  0  0  0  0  0  0  0  0  0
   61.0220   26.5280   50.4630 C   0  0  0  0  0  0  0  0  0  0  0  0
   60.6833   25.6686   49.8658 H   0  0  0  0  0  0  0  0  0  0  0  0
   61.8820   26.3250   51.5480 C   0  0  0  0  0  0  0  0  0  0  0  0
   62.2268   25.3099   51.7944 H   0  0  0  0  0  0  0  0  0  0  0  0
   62.3030   27.4130   52.3190 C   0  0  0  0  0  0  0  0  0  0  0  0
   62.9753   27.2527   53.1748 H   0  0  0  0  0  0  0  0  0  0  0  0
   61.8700   28.7050   52.0030 C   0  0  0  0  0  0  0  0  0  0  0  0
   62.2057   29.5601   52.6080 H   0  0  0  0  0  0  0  0  0  0  0  0
   61.0110   28.9110   50.9190 C   0  0  0  0  0  0  0  0  0  0  0  0
   60.6637   29.9270   50.6799 H   0  0  0  0  0  0  0  0  0  0  0  0
   59.1000   27.1850   45.3820 N   0  0  0  0  0  0  0  0  0  0  0  0
   59.7500   26.4170   45.1000 H   0  0  0  0  0  0  0  0  0  0  0  0
   58.2030   27.8020   44.5900 C   0  0  0  0  0  0  0  0  0  0  0  0
   58.0320   27.4650   43.1400 C   0  0  0  0  0  0  0  0  0  0  0  0
   57.5361   26.4876   43.0467 H   0  0  0  0  0  0  0  0  0  0  0  0
   57.4163   28.2364   42.6544 H   0  0  0  0  0  0  0  0  0  0  0  0
   59.0181   27.4236   42.6544 H   0  0  0  0  0  0  0  0  0  0  0  0
   58.4420   31.5520   45.9170 N   0  0  0  0  0  0  0  0  0  0  0  0
   59.1520   32.4800   46.6160 C   0  0  0  0  0  0  0  0  0  0  0  0
   60.2580   32.0690   47.4420 N   0  0  0  0  0  0  0  0  0  0  0  0
   60.2150   31.0530   48.4290 C   0  0  0  0  0  0  0  0  0  0  0  0
   59.1560   30.6540   48.9830 O   0  0  0  0  0  0  0  0  0  0  0  0
   61.4600   30.5760   48.7600 O   0  0  0  0  0  0  0  0  0  0  0  0
   62.4490   31.2580   48.0020 C   0  0  0  0  0  0  0  0  0  0  0  0
   63.1553   31.7736   48.6693 H   0  0  0  0  0  0  0  0  0  0  0  0
   63.0364   30.5631   47.3838 H   0  0  0  0  0  0  0  0  0  0  0  0
   61.6730   32.2940   47.1250 C   0  0  2  0  0  0  0  0  0  0  0  0
   61.8994   32.1408   46.0595 H   0  0  0  0  0  0  0  0  0  0  0  0
   62.0930   33.7740   47.3690 C   0  0  0  0  0  0  0  0  0  0  0  0
   61.2783   34.3852   46.9534 H   0  0  0  0  0  0  0  0  0  0  0  0
   62.1970   34.1400   48.8600 C   0  0  0  0  0  0  0  0  0  0  0  0
   61.9471   33.2606   49.4717 H   0  0  0  0  0  0  0  0  0  0  0  0
   63.2231   34.4650   49.0871 H   0  0  0  0  0  0  0  0  0  0  0  0
   61.4952   34.9560   49.0871 H   0  0  0  0  0  0  0  0  0  0  0  0
   63.3880   34.1290   46.6240 C   0  0  0  0  0  0  0  0  0  0  0  0
   64.1825   34.3468   47.3530 H   0  0  0  0  0  0  0  0  0  0  0  0
   63.6920   33.2811   45.9927 H   0  0  0  0  0  0  0  0  0  0  0  0
   63.2171   35.0134   45.9927 H   0  0  0  0  0  0  0  0  0  0  0  0
   58.7880   33.8310   46.5190 C   0  0  0  0  0  0  0  0  0  0  0  0
   59.3354   34.6006   47.0829 H   0  0  0  0  0  0  0  0  0  0  0  0
  1  2  1  0
  2  3  1  0
  3  4  1  0
  4  5  2  0
  5  6  1  0
  6  7  2  0
  6  8  1  0
  8  9  1  0
  9 10  1  0
  9 11  2  0
 11 12  1  0
 12 13  2  0
 12 14  1  0
 14 15  1  0
 14 16  1  0
 16 17  2  0
 17 18  1  0
 17 19  1  0
 19 20  1  0
 19 21  2  0
 21 22  1  0
 21 23  1  0
 23 24  1  0
 23 25  2  0
 25 26  1  0
 11 27  1  0
 27 28  1  0
 27 29  1  0
 29 30  1  0
 30 31  1  0
 30 32  1  0
 30 33  1  0
  4 34  1  0
 34 35  2  0
 35 36  1  0
 36 37  1  0
 37 38  2  0
 37 39  1  0
 39 40  1  0
 40 41  1  0
 40 42  1  0
 40 43  1  0
 43 44  1  6
 43 45  1  0
 45 46  1  0
 45 47  1  0
 47 48  1  0
 47 49  1  0
 47 50  1  0
 45 51  1  0
 51 52  1  0
 51 53  1  0
 51 54  1  0
 35 55  1  0
 55 56  1  0
 55  2  2  0
 29  8  2  0
 43 36  1  0
 25 16  1  0
M  CHG  1   3  -1
M  END
>  <UniqueID>  (42) 
41

>  <SMILES>  (42) 
Cc1[nH]c(C(=O)Nc2ccccc2)cc1C(=O)/N=c1\nc(N2C(=O)OC[C@@H]2C(C)C)cc[n-]1

>  <Energy>  (42) 
108.13562042343915

>  <Genealogy>  (42) 
Cc1[nH]c(C(=O)Nc2ccccc2)cc1C(=O)N=c1nc(N2C(=O)OCC2C(C)C)cc[n-]1 (protonated)
Cc1[nH]c(C(=O)Nc2ccccc2)cc1C(=O)N=c1nc(N2C(=O)OC[C@@H]2C(C)C)cc[n-]1 (chirality)
Cc1[nH]c(C(=O)Nc2ccccc2)cc1C(=O)/N=c1\nc(N2C(=O)OC[C@@H]2C(C)C)cc[n-]1 (cis-trans isomerization)
Cc1[nH]c(C(=O)Nc2ccccc2)cc1C(=O)/N=c1\nc(N2C(=O)OC[C@@H]2C(C)C)cc[n-]1 (3D coordinates assigned)
Cc1[nH]c(C(=O)Nc2ccccc2)cc1C(=O)/N=c1\nc(N2C(=O)OC[C@@H]2C(C)C)cc[n-]1 (nonaromatic ring conformer: 108.13562042343915 kcal/mol)

>  <smiles>  (42) 
Cc1[nH]c(C(=O)Nc2ccccc2)cc1C(=O)N=c1nc(N2C(=O)OCC2C(C)C)cc[nH]1

>  <score_type>  (42) 
oracle

>  <origin>  (42) 
adg

>  <m_score__min__energy>  (42) 
-10.24

>  <m_primary>  (42) 
energy

$$$$
42:0
     RDKit          3D

 40 41  0  0  0  0  0  0  0  0999 V2000
   59.1530   35.0200   46.8720 O   0  0  0  0  0  0  0  0  0  0  0  0
   58.7580   33.9800   46.2810 C   0  0  0  0  0  0  0  0  0  0  0  0
   57.4290   33.9790   45.5770 C   0  0  0  0  0  0  0  0  0  0  0  0
   57.4040   33.0350   44.3600 C   0  0  0  0  0  0  0  0  0  0  0  0
   57.0210   31.6370   44.7540 C   0  0  0  0  0  0  0  0  0  0  0  0
   55.8620   31.2080   44.4940 O   0  0  0  0  0  0  0  0  0  0  0  0
   57.9620   30.8140   45.3840 O   0  0  0  0  0  0  0  0  0  0  0  0
   58.6800   29.7850   44.7080 C   0  0  0  0  0  0  0  0  0  0  0  0
   58.4090   28.4480   45.3500 C   0  0  0  0  0  0  0  0  0  0  0  0
   57.0900   27.9950   45.5550 C   0  0  0  0  0  0  0  0  0  0  0  0
   56.0290   28.7460   45.1650 F   0  0  0  0  0  0  0  0  0  0  0  0
   56.8580   26.7580   46.1660 C   0  0  0  0  0  0  0  0  0  0  0  0
   55.5860   26.3270   46.3630 F   0  0  0  0  0  0  0  0  0  0  0  0
   57.9350   25.9640   46.5740 C   0  0  0  0  0  0  0  0  0  0  0  0
   59.2470   26.3970   46.3570 C   0  0  0  0  0  0  0  0  0  0  0  0
   60.2890   25.6140   46.7470 F   0  0  0  0  0  0  0  0  0  0  0  0
   59.4860   27.6310   45.7450 C   0  0  0  0  0  0  0  0  0  0  0  0
   60.7660   28.0350   45.5420 F   0  0  0  0  0  0  0  0  0  0  0  0
   59.5330   32.7760   46.3530 N   0  0  0  0  0  0  0  0  0  0  0  0
   60.8960   32.7630   46.7950 C   0  0  0  0  0  0  0  0  0  0  0  0
   61.7370   33.8430   46.4740 C   0  0  0  0  0  0  0  0  0  0  0  0
   63.0880   33.8140   46.8140 C   0  0  0  0  0  0  0  0  0  0  0  0
   63.6160   32.7010   47.4730 C   0  0  0  0  0  0  0  0  0  0  0  0
   62.7950   31.6200   47.7980 C   0  0  0  0  0  0  0  0  0  0  0  0
   61.4280   31.6400   47.4750 C   0  0  0  0  0  0  0  0  0  0  0  0
   60.5820   30.5510   47.8990 N   0  0  0  0  0  0  0  0  0  0  0  0
   61.0570   29.4040   48.0590 O   0  0  0  0  0  0  0  0  0  0  0  0
   59.2150   30.7120   47.9460 O   0  0  0  0  0  0  0  0  0  0  0  0
   56.6538   33.6575   46.2882 H   0  0  0  0  0  0  0  0  0  0  0  0
   57.2453   34.9998   45.2106 H   0  0  0  0  0  0  0  0  0  0  0  0
   56.6735   33.4131   43.6296 H   0  0  0  0  0  0  0  0  0  0  0  0
   58.4141   33.0061   43.9255 H   0  0  0  0  0  0  0  0  0  0  0  0
   58.3627   29.7528   43.6553 H   0  0  0  0  0  0  0  0  0  0  0  0
   59.7569   30.0000   44.7711 H   0  0  0  0  0  0  0  0  0  0  0  0
   57.7497   24.9978   47.0661 H   0  0  0  0  0  0  0  0  0  0  0  0
   59.0730   31.8670   46.1270 H   0  0  0  0  0  0  0  0  0  0  0  0
   61.3251   34.7181   45.9501 H   0  0  0  0  0  0  0  0  0  0  0  0
   63.7375   34.6658   46.5640 H   0  0  0  0  0  0  0  0  0  0  0  0
   64.6836   32.6765   47.7369 H   0  0  0  0  0  0  0  0  0  0  0  0
   63.2217   30.7456   48.3111 H   0  0  0  0  0  0  0  0  0  0  0  0
  1  2  2  0
  2  3  1  0
  3  4  1  0
  4  5  1  0
  5  6  2  0
  5  7  1  0
  7  8  1  0
  8  9  1  0
  9 10  2  0
 10 11  1  0
 10 12  1  0
 12 13  1  0
 12 14  2  0
 14 15  1  0
 15 16  1  0
 15 17  2  0
 17 18  1  0
  2 19  1  0
 19 20  1  0
 20 21  2  0
 21 22  1  0
 22 23  2  0
 23 24  1  0
 24 25  2  0
 25 26  1  0
 26 27  2  0
 26 28  1  0
 17  9  1  0
 25 20  1  0
  3 29  1  0
  3 30  1  0
  4 31  1  0
  4 32  1  0
  8 33  1  0
  8 34  1  0
 14 35  1  0
 19 36  1  0
 21 37  1  0
 22 38  1  0
 23 39  1  0
 24 40  1  0
M  CHG  2  26   1  28  -1
M  END
>  <UniqueID>  (43) 
42

>  <SMILES>  (43) 
O=C(CCC(=O)OCc1c(F)c(F)cc(F)c1F)Nc1ccccc1[N+](=O)[O-]

>  <Energy>  (43) 
41.212653393181846

>  <Genealogy>  (43) 
O=C(CCC(=O)OCc1c(F)c(F)cc(F)c1F)Nc1ccccc1[N+](=O)[O-] (3D coordinates assigned)
O=C(CCC(=O)OCc1c(F)c(F)cc(F)c1F)Nc1ccccc1[N+](=O)[O-] (optimized conformer: 41.212653393181846 kcal/mol)

>  <smiles>  (43) 
O=C(CCC(=O)OCc1c(F)c(F)cc(F)c1F)Nc1ccccc1[N+](=O)[O-]

>  <score_type>  (43) 
oracle

>  <origin>  (43) 
adg

>  <m_score__min__energy>  (43) 
-8.4100000000000001

>  <m_primary>  (43) 
energy

$$$$
43:0
     RDKit          3D

 11 11  0  0  0  0  0  0  0  0999 V2000
   55.1800   29.3550   44.8720 O   0  0  0  0  0  0  0  0  0  0  0  0
   56.2430   29.3440   44.1970 C   0  0  0  0  0  0  0  0  0  0  0  0
   56.9120   30.5980   43.8380 C   0  0  0  0  0  0  0  0  0  0  0  0
   57.0830   31.1030   42.5560 C   0  0  0  0  0  0  0  0  0  0  0  0
   57.7640   32.3260   42.5340 C   0  0  0  0  0  0  0  0  0  0  0  0
   58.1300   32.7840   43.7940 C   0  0  0  0  0  0  0  0  0  0  0  0
   57.6060   31.6650   44.9360 S   0  0  0  0  0  0  0  0  0  0  0  0
   56.6735   28.3847   43.8738 H   0  0  0  0  0  0  0  0  0  0  0  0
   56.7206   30.5943   41.6505 H   0  0  0  0  0  0  0  0  0  0  0  0
   57.9883   32.8731   41.6064 H   0  0  0  0  0  0  0  0  0  0  0  0
   58.6699   33.7182   44.0081 H   0  0  0  0  0  0  0  0  0  0  0  0
  1  2  2  0
  2  3  1  0
  3  4  2  0
  4  5  1  0
  5  6  2  0
  6  7  1  0
  7  3  1  0
  2  8  1  0
  4  9  1  0
  5 10  1  0
  6 11  1  0
M  END
>  <UniqueID>  (44) 
43

>  <SMILES>  (44) 
O=Cc1cccs1

>  <Energy>  (44) 
34.28365883445361

>  <Genealogy>  (44) 
O=Cc1cccs1 (3D coordinates assigned)
O=Cc1cccs1 (optimized conformer: 34.28365883445361 kcal/mol)

>  <smiles>  (44) 
O=Cc1cccs1

>  <score_type>  (44) 
oracle

>  <origin>  (44) 
adg

>  <m_score__min__energy>  (44) 
-3.9500000000000002

>  <m_primary>  (44) 
energy

$$$$
44:0
     RDKit          3D

 54 57  0  0  1  0  0  0  0  0999 V2000
   57.7890   31.9810   50.0240 O   0  0  0  0  0  0  0  0  0  0  0  0
   58.2530   31.0160   50.6600 N   0  0  0  0  0  0  0  0  0  0  0  0
   57.3790   30.0990   51.2430 O   0  0  0  0  0  0  0  0  0  0  0  0
   59.6460   30.7810   50.8320 C   0  0  0  0  0  0  0  0  0  0  0  0
   60.2910   31.5830   51.7740 C   0  0  0  0  0  0  0  0  0  0  0  0
   61.6520   31.3770   51.9670 C   0  0  0  0  0  0  0  0  0  0  0  0
   62.3630   30.4260   51.2710 C   0  0  0  0  0  0  0  0  0  0  0  0
   61.6650   29.6670   50.3550 C   0  0  0  0  0  0  0  0  0  0  0  0
   60.3170   29.8160   50.1100 C   0  0  0  0  0  0  0  0  0  0  0  0
   59.6260   28.9860   49.1180 C   0  0  0  0  0  0  0  0  0  0  0  0
   60.4010   28.8350   47.8790 N   0  0  0  0  0  0  0  0  0  0  0  0
   59.8730   29.2000   46.7610 C   0  0  0  0  0  0  0  0  0  0  0  0
   59.0300   30.2800   46.6310 C   0  0  0  0  0  0  0  0  0  0  0  0
   58.4860   30.6410   45.4260 C   0  0  0  0  0  0  0  0  0  0  0  0
   57.6540   31.6580   45.1460 O   0  0  0  0  0  0  0  0  0  0  0  0
   57.5140   32.9320   45.6410 C   0  0  0  0  0  0  0  0  0  0  0  0
   58.1140   33.9500   44.7000 C   0  0  0  0  0  0  0  0  0  0  0  0
   59.5410   34.1610   45.1650 C   0  0  0  0  0  0  0  0  0  0  0  0
   60.0440   33.3780   46.1830 N   0  0  0  0  0  0  0  0  0  0  0  0
   60.2960   33.5940   47.3540 C   0  0  0  0  0  0  0  0  0  0  0  0
   59.3280   34.1070   48.1980 C   0  0  0  0  0  0  0  0  0  0  0  0
   59.5430   34.4110   49.5180 C   0  0  0  0  0  0  0  0  0  0  0  0
   60.7740   34.1960   50.0160 N   0  0  0  0  0  0  0  0  0  0  0  0
   61.7200   33.6930   49.1970 C   0  0  0  0  0  0  0  0  0  0  0  0
   62.9650   33.4950   49.8070 C   0  0  0  0  0  0  0  0  0  0  0  0
   63.9400   32.9760   48.9880 C   0  0  0  0  0  0  0  0  0  0  0  0
   65.5200   32.7120   49.6960 Cl  0  0  0  0  0  0  0  0  0  0  0  0
   63.7710   32.6570   47.6810 C   0  0  0  0  0  0  0  0  0  0  0  0
   62.5100   32.8610   47.0770 C   0  0  0  0  0  0  0  0  0  0  0  0
   61.5450   33.3770   47.8840 C   0  0  0  0  0  0  0  0  0  0  0  0
   58.8510   29.8410   44.3660 N   0  0  0  0  0  0  0  0  0  0  0  0
   59.6620   28.8020   44.4910 C   0  0  0  0  0  0  0  0  0  0  0  0
   60.1860   28.4620   45.6790 N   0  0  0  0  0  0  0  0  0  0  0  0
   59.7433   32.3492   52.3423 H   0  0  0  0  0  0  0  0  0  0  0  0
   62.1814   31.9981   52.7046 H   0  0  0  0  0  0  0  0  0  0  0  0
   63.4401   30.2778   51.4379 H   0  0  0  0  0  0  0  0  0  0  0  0
   62.2145   28.9005   49.7888 H   0  0  0  0  0  0  0  0  0  0  0  0
   59.4523   27.9894   49.5501 H   0  0  0  0  0  0  0  0  0  0  0  0
   58.6791   29.4846   48.8635 H   0  0  0  0  0  0  0  0  0  0  0  0
   58.7846   30.8734   47.5241 H   0  0  0  0  0  0  0  0  0  0  0  0
   56.4440   33.1509   45.7722 H   0  0  0  0  0  0  0  0  0  0  0  0
   58.0420   32.9926   46.6041 H   0  0  0  0  0  0  0  0  0  0  0  0
   58.1009   33.5703   43.6677 H   0  0  0  0  0  0  0  0  0  0  0  0
   57.5446   34.8911   44.7093 H   0  0  0  0  0  0  0  0  0  0  0  0
   60.1895   34.0049   44.2903 H   0  0  0  0  0  0  0  0  0  0  0  0
   59.5259   35.1719   45.5984 H   0  0  0  0  0  0  0  0  0  0  0  0
   58.3236   34.2820   47.7851 H   0  0  0  0  0  0  0  0  0  0  0  0
   58.7371   34.8164   50.1474 H   0  0  0  0  0  0  0  0  0  0  0  0
   60.9440   34.4270   51.0210 H   0  0  0  0  0  0  0  0  0  0  0  0
   63.1494   33.7370   50.8641 H   0  0  0  0  0  0  0  0  0  0  0  0
   64.6067   32.2438   47.0971 H   0  0  0  0  0  0  0  0  0  0  0  0
   62.3210   32.6178   46.0210 H   0  0  0  0  0  0  0  0  0  0  0  0
   58.4780   30.0480   43.3980 H   0  0  0  0  0  0  0  0  0  0  0  0
   59.9118   28.2044   43.6019 H   0  0  0  0  0  0  0  0  0  0  0  0
  1  2  2  0
  2  3  1  0
  2  4  1  0
  4  5  2  0
  5  6  1  0
  6  7  2  0
  7  8  1  0
  8  9  2  0
  9 10  1  0
 10 11  1  0
 11 12  2  0
 12 13  1  0
 13 14  2  0
 14 15  1  0
 15 16  1  0
 16 17  1  0
 17 18  1  0
 18 19  1  0
 19 20  2  0
 20 21  1  0
 21 22  2  0
 22 23  1  0
 23 24  1  0
 24 25  2  0
 25 26  1  0
 26 27  1  0
 26 28  2  0
 28 29  1  0
 29 30  2  0
 14 31  1  0
 31 32  1  0
 32 33  2  0
  9  4  1  0
 33 12  1  0
 30 20  1  0
 30 24  1  0
  5 34  1  0
  6 35  1  0
  7 36  1  0
  8 37  1  0
 10 38  1  0
 10 39  1  0
 13 40  1  0
 16 41  1  0
 16 42  1  0
 17 43  1  0
 17 44  1  0
 18 45  1  0
 18 46  1  0
 21 47  1  0
 22 48  1  0
 23 49  1  0
 25 50  1  0
 28 51  1  0
 29 52  1  0
 31 53  1  0
 32 54  1  0
M  CHG  2   2   1   3  -1
M  END
>  <smiles>  (45) 
O=[N+]([O-])c1ccccc1CN=c1cc(OCCCN=c2cc[nH]c3cc(Cl)ccc23)[nH]cn1

>  <score_type>  (45) 
oracle

>  <origin>  (45) 
adg

>  <m_score__min__energy>  (45) 
-10.23

>  <m_primary>  (45) 
energy

$$$$
45:0
     RDKit          3D

 39 41  0  0  0  0  0  0  0  0999 V2000
   57.6740   21.4710   44.8620 C   0  0  0  0  0  0  0  0  0  0  0  0
   57.7250   21.3690   46.3560 C   0  0  0  0  0  0  0  0  0  0  0  0
   58.1440   20.3050   46.8800 O   0  0  0  0  0  0  0  0  0  0  0  0
   57.3460   22.4600   47.2070 N   0  0  0  0  0  0  0  0  0  0  0  0
   56.9530   23.7720   46.7860 C   0  0  0  0  0  0  0  0  0  0  0  0
   55.7520   23.9950   46.0920 C   0  0  0  0  0  0  0  0  0  0  0  0
   55.3930   25.2900   45.7040 C   0  0  0  0  0  0  0  0  0  0  0  0
   56.2350   26.3750   45.9950 C   0  0  0  0  0  0  0  0  0  0  0  0
   55.9030   27.7180   45.6150 N   0  0  0  0  0  0  0  0  0  0  0  0
   56.7230   28.6510   44.8990 C   0  0  0  0  0  0  0  0  0  0  0  0
   57.9730   28.5840   45.0370 O   0  0  0  0  0  0  0  0  0  0  0  0
   56.1510   29.6750   43.9570 C   0  0  0  0  0  0  0  0  0  0  0  0
   56.1470   30.9930   44.5970 N   0  0  0  0  0  0  0  0  0  0  0  0
   57.6710   31.8040   44.3850 S   0  0  0  0  0  0  0  0  0  0  0  0
   57.4380   33.0930   43.6490 O   0  0  0  0  0  0  0  0  0  0  0  0
   58.5740   30.9420   43.5480 O   0  0  0  0  0  0  0  0  0  0  0  0
   58.4230   32.1700   45.9460 C   0  0  0  0  0  0  0  0  0  0  0  0
   58.5100   31.1560   46.9160 C   0  0  0  0  0  0  0  0  0  0  0  0
   59.0940   31.4050   48.1680 C   0  0  0  0  0  0  0  0  0  0  0  0
   59.5990   32.6720   48.4790 C   0  0  0  0  0  0  0  0  0  0  0  0
   59.5290   33.6870   47.5260 C   0  0  0  0  0  0  0  0  0  0  0  0
   60.0150   34.9340   47.7490 N   0  0  0  0  0  0  0  0  0  0  0  0
   59.6740   35.6440   46.2960 S   0  0  0  0  0  0  0  0  0  0  0  0
   58.9430   34.4810   45.3780 N   0  0  0  0  0  0  0  0  0  0  0  0
   58.9470   33.4390   46.2490 C   0  0  0  0  0  0  0  0  0  0  0  0
   57.3910   26.1590   46.7550 C   0  0  0  0  0  0  0  0  0  0  0  0
   57.7480   24.8660   47.1470 C   0  0  0  0  0  0  0  0  0  0  0  0
   57.1991   22.4209   44.5753 H   0  0  0  0  0  0  0  0  0  0  0  0
   58.6961   21.4352   44.4569 H   0  0  0  0  0  0  0  0  0  0  0  0
   57.0894   20.6319   44.4569 H   0  0  0  0  0  0  0  0  0  0  0  0
   55.0917   23.1483   45.8529 H   0  0  0  0  0  0  0  0  0  0  0  0
   54.4470   25.4590   45.1686 H   0  0  0  0  0  0  0  0  0  0  0  0
   56.7642   29.7143   43.0446 H   0  0  0  0  0  0  0  0  0  0  0  0
   55.1192   29.3941   43.6993 H   0  0  0  0  0  0  0  0  0  0  0  0
   58.1152   30.1543   46.6909 H   0  0  0  0  0  0  0  0  0  0  0  0
   59.1551   30.5965   48.9113 H   0  0  0  0  0  0  0  0  0  0  0  0
   60.0466   32.8653   49.4651 H   0  0  0  0  0  0  0  0  0  0  0  0
   58.0219   27.0121   47.0452 H   0  0  0  0  0  0  0  0  0  0  0  0
   58.6590   24.7071   47.7427 H   0  0  0  0  0  0  0  0  0  0  0  0
  1  2  1  0
  2  3  2  0
  2  4  1  0
  4  5  1  0
  5  6  2  0
  6  7  1  0
  7  8  2  0
  8  9  1  0
  9 10  1  0
 10 11  2  0
 10 12  1  0
 12 13  1  0
 13 14  1  0
 14 15  2  0
 14 16  2  0
 14 17  1  0
 17 18  2  0
 18 19  1  0
 19 20  2  0
 20 21  1  0
 21 22  2  0
 22 23  1  0
 23 24  1  0
 24 25  2  0
  8 26  1  0
 26 27  2  0
 27  5  1  0
 25 17  1  0
 25 21  1  0
  1 28  1  0
  1 29  1  0
  1 30  1  0
  6 31  1  0
  7 32  1  0
 12 33  1  0
 12 34  1  0
 18 35  1  0
 19 36  1  0
 20 37  1  0
 26 38  1  0
 27 39  1  0
M  CHG  3   4  -1   9  -1  13  -1
M  END
>  <UniqueID>  (46) 
44

>  <SMILES>  (46) 
CC(=O)[N-]c1ccc([N-]C(=O)C[N-]S(=O)(=O)c2cccc3nsnc23)cc1

>  <Energy>  (46) 
82.13595968117373

>  <Genealogy>  (46) 
CC(=O)[N-]c1ccc([N-]C(=O)C[N-]S(=O)(=O)c2cccc3nsnc23)cc1 (protonated)
CC(=O)[N-]c1ccc([N-]C(=O)C[N-]S(=O)(=O)c2cccc3nsnc23)cc1 (3D coordinates assigned)
CC(=O)[N-]c1ccc([N-]C(=O)C[N-]S(=O)(=O)c2cccc3nsnc23)cc1 (optimized conformer: 82.13595968117373 kcal/mol)

>  <smiles>  (46) 
CC(=O)Nc1ccc(NC(=O)CNS(=O)(=O)c2cccc3nsnc23)cc1

>  <score_type>  (46) 
oracle

>  <origin>  (46) 
adg

>  <m_score__min__energy>  (46) 
-12.800000000000001

>  <m_primary>  (46) 
energy

$$$$
46:0
     RDKit          3D

 63 65  0  0  0  0  0  0  0  0999 V2000
   56.2340   30.4780   43.5440 C   0  0  0  0  0  0  0  0  0  0  0  0
   57.5460   31.1790   43.1640 C   0  0  0  0  0  0  0  0  0  0  0  0
   57.4060   31.9160   41.8220 C   0  0  0  0  0  0  0  0  0  0  0  0
   58.0110   32.1250   44.2650 C   0  0  0  0  0  0  0  0  0  0  0  0
   58.4750   33.4090   43.9220 C   0  0  0  0  0  0  0  0  0  0  0  0
   58.9980   34.2590   44.8870 C   0  0  0  0  0  0  0  0  0  0  0  0
   59.0810   33.8450   46.2130 C   0  0  0  0  0  0  0  0  0  0  0  0
   58.6200   32.5760   46.6050 C   0  0  0  0  0  0  0  0  0  0  0  0
   58.7400   32.1840   48.0770 C   0  0  0  0  0  0  0  0  0  0  0  0
   59.2730   33.3290   48.9510 C   0  0  0  0  0  0  0  0  0  0  0  0
   59.5650   30.9060   48.2700 C   0  0  0  0  0  0  0  0  0  0  0  0
   58.0460   31.7250   45.6260 C   0  0  0  0  0  0  0  0  0  0  0  0
   57.5330   30.4810   46.0100 O   0  0  0  0  0  0  0  0  0  0  0  0
   58.2640   29.2890   45.9050 C   0  0  0  0  0  0  0  0  0  0  0  0
   59.4330   29.2920   45.4390 O   0  0  0  0  0  0  0  0  0  0  0  0
   57.6690   28.0500   46.2960 N   0  0  0  0  0  0  0  0  0  0  0  0
   56.9350   27.1950   45.3650 C   0  0  1  0  0  0  0  0  0  0  0  0
   57.9240   26.4340   44.4650 C   0  0  0  0  0  0  0  0  0  0  0  0
   57.6470   24.9530   44.4020 C   0  0  0  0  0  0  0  0  0  0  0  0
   58.2860   24.0760   45.2950 C   0  0  0  0  0  0  0  0  0  0  0  0
   58.0350   22.7000   45.2310 C   0  0  0  0  0  0  0  0  0  0  0  0
   57.1510   22.1890   44.2780 C   0  0  0  0  0  0  0  0  0  0  0  0
   56.5170   23.0540   43.3810 C   0  0  0  0  0  0  0  0  0  0  0  0
   56.7640   24.4320   43.4400 C   0  0  0  0  0  0  0  0  0  0  0  0
   56.0170   26.2470   46.1110 C   0  0  0  0  0  0  0  0  0  0  0  0
   56.4460   25.6360   47.1210 O   0  0  0  0  0  0  0  0  0  0  0  0
   54.7050   25.9240   45.6290 N   0  0  0  0  0  0  0  0  0  0  0  0
   54.0590   24.6540   45.7720 C   0  0  0  0  0  0  0  0  0  0  0  0
   52.7960   24.4600   45.1980 C   0  0  0  0  0  0  0  0  0  0  0  0
   52.1550   23.2210   45.3150 C   0  0  0  0  0  0  0  0  0  0  0  0
   52.7820   22.1670   45.9890 C   0  0  0  0  0  0  0  0  0  0  0  0
   54.0580   22.3470   46.5350 C   0  0  0  0  0  0  0  0  0  0  0  0
   54.7020   23.5830   46.4140 C   0  0  0  0  0  0  0  0  0  0  0  0
   56.1471   30.4316   44.6396 H   0  0  0  0  0  0  0  0  0  0  0  0
   55.3842   31.0423   43.1323 H   0  0  0  0  0  0  0  0  0  0  0  0
   56.2307   29.4579   43.1323 H   0  0  0  0  0  0  0  0  0  0  0  0
   58.3177   30.4039   43.0472 H   0  0  0  0  0  0  0  0  0  0  0  0
   57.2037   32.9811   42.0080 H   0  0  0  0  0  0  0  0  0  0  0  0
   58.3394   31.8147   41.2489 H   0  0  0  0  0  0  0  0  0  0  0  0
   56.5747   31.4795   41.2489 H   0  0  0  0  0  0  0  0  0  0  0  0
   58.4225   33.7433   42.8754 H   0  0  0  0  0  0  0  0  0  0  0  0
   59.3477   35.2624   44.6027 H   0  0  0  0  0  0  0  0  0  0  0  0
   59.5137   34.5206   46.9655 H   0  0  0  0  0  0  0  0  0  0  0  0
   57.7162   31.9700   48.4177 H   0  0  0  0  0  0  0  0  0  0  0  0
   59.1512   33.0673   50.0125 H   0  0  0  0  0  0  0  0  0  0  0  0
   60.3390   33.4908   48.7332 H   0  0  0  0  0  0  0  0  0  0  0  0
   58.7105   34.2489   48.7332 H   0  0  0  0  0  0  0  0  0  0  0  0
   59.6915   30.7101   49.3450 H   0  0  0  0  0  0  0  0  0  0  0  0
   59.0431   30.0584   47.8017 H   0  0  0  0  0  0  0  0  0  0  0  0
   60.5523   31.0327   47.8017 H   0  0  0  0  0  0  0  0  0  0  0  0
   56.3001   27.8248   44.7245 H   0  0  0  0  0  0  0  0  0  0  0  0
   57.8593   26.8459   43.4471 H   0  0  0  0  0  0  0  0  0  0  0  0
   58.9270   26.5621   44.8980 H   0  0  0  0  0  0  0  0  0  0  0  0
   58.9853   24.4716   46.0463 H   0  0  0  0  0  0  0  0  0  0  0  0
   58.5361   22.0186   45.9342 H   0  0  0  0  0  0  0  0  0  0  0  0
   56.9539   21.1077   44.2332 H   0  0  0  0  0  0  0  0  0  0  0  0
   55.8233   22.6522   42.6278 H   0  0  0  0  0  0  0  0  0  0  0  0
   56.2651   25.1088   42.7308 H   0  0  0  0  0  0  0  0  0  0  0  0
   52.3073   25.2822   44.6547 H   0  0  0  0  0  0  0  0  0  0  0  0
   51.1568   23.0757   44.8764 H   0  0  0  0  0  0  0  0  0  0  0  0
   52.2722   21.1975   46.0896 H   0  0  0  0  0  0  0  0  0  0  0  0
   54.5543   21.5169   47.0591 H   0  0  0  0  0  0  0  0  0  0  0  0
   55.7145   23.7164   46.8227 H   0  0  0  0  0  0  0  0  0  0  0  0
  1  2  1  0
  2  3  1  0
  2  4  1  0
  4  5  2  0
  5  6  1  0
  6  7  2  0
  7  8  1  0
  8  9  1  0
  9 10  1  0
  9 11  1  0
  8 12  2  0
 12 13  1  0
 13 14  1  0
 14 15  2  0
 14 16  1  0
 16 17  1  0
 17 18  1  0
 18 19  1  0
 19 20  2  0
 20 21  1  0
 21 22  2  0
 22 23  1  0
 23 24  2  0
 17 25  1  0
 25 26  2  0
 25 27  1  0
 27 28  1  0
 28 29  2  0
 29 30  1  0
 30 31  2  0
 31 32  1  0
 32 33  2  0
 12  4  1  0
 24 19  1  0
 33 28  1  0
  1 34  1  0
  1 35  1  0
  1 36  1  0
  2 37  1  0
  3 38  1  0
  3 39  1  0
  3 40  1  0
  5 41  1  0
  6 42  1  0
  7 43  1  0
  9 44  1  0
 10 45  1  0
 10 46  1  0
 10 47  1  0
 11 48  1  0
 11 49  1  0
 11 50  1  0
 17 51  1  6
 18 52  1  0
 18 53  1  0
 20 54  1  0
 21 55  1  0
 22 56  1  0
 23 57  1  0
 24 58  1  0
 29 59  1  0
 30 60  1  0
 31 61  1  0
 32 62  1  0
 33 63  1  0
M  CHG  2  16  -1  27  -1
M  END
>  <UniqueID>  (47) 
45

>  <SMILES>  (47) 
CC(C)c1cccc(C(C)C)c1OC(=O)[N-][C@@H](Cc1ccccc1)C(=O)[N-]c1ccccc1

>  <Energy>  (47) 
67.44632614193667

>  <Genealogy>  (47) 
CC(C)c1cccc(C(C)C)c1OC(=O)[N-]C(Cc1ccccc1)C(=O)[N-]c1ccccc1 (protonated)
CC(C)c1cccc(C(C)C)c1OC(=O)[N-][C@@H](Cc1ccccc1)C(=O)[N-]c1ccccc1 (chirality)
CC(C)c1cccc(C(C)C)c1OC(=O)[N-][C@@H](Cc1ccccc1)C(=O)[N-]c1ccccc1 (3D coordinates assigned)
CC(C)c1cccc(C(C)C)c1OC(=O)[N-][C@@H](Cc1ccccc1)C(=O)[N-]c1ccccc1 (optimized conformer: 67.44632614193667 kcal/mol)

>  <smiles>  (47) 
CC(C)c1cccc(C(C)C)c1OC(=O)NC(Cc1ccccc1)C(=O)Nc1ccccc1

>  <score_type>  (47) 
oracle

>  <origin>  (47) 
adg

>  <m_score__min__energy>  (47) 
-12.77

>  <m_primary>  (47) 
energy

$$$$
47:0
     RDKit          3D

 61 64  0  0  0  0  0  0  0  0999 V2000
   62.6430   29.9800   52.0760 C   0  0  0  0  0  0  0  0  0  0  0  0
   61.7780   30.6770   51.1180 N   0  0  0  0  0  0  0  0  0  0  0  0
   61.6170   32.1310   51.2210 C   0  0  0  0  0  0  0  0  0  0  0  0
   62.2320   32.8060   50.0250 C   0  0  0  0  0  0  0  0  0  0  0  0
   63.6080   32.6670   49.7660 C   0  0  0  0  0  0  0  0  0  0  0  0
   64.1770   33.2830   48.6460 C   0  0  0  0  0  0  0  0  0  0  0  0
   63.3800   34.0420   47.7800 C   0  0  0  0  0  0  0  0  0  0  0  0
   62.0080   34.1680   48.0200 C   0  0  0  0  0  0  0  0  0  0  0  0
   61.4330   33.5510   49.1380 C   0  0  0  0  0  0  0  0  0  0  0  0
   61.2520   29.9780   49.9770 C   0  0  0  0  0  0  0  0  0  0  0  0
   61.5180   30.4360   48.6820 C   0  0  0  0  0  0  0  0  0  0  0  0
   61.0240   29.7430   47.5730 C   0  0  0  0  0  0  0  0  0  0  0  0
   60.2670   28.5790   47.7440 C   0  0  0  0  0  0  0  0  0  0  0  0
   59.8060   27.9120   46.5990 O   0  0  0  0  0  0  0  0  0  0  0  0
   58.5920   27.2150   46.5010 C   0  0  0  0  0  0  0  0  0  0  0  0
   58.5960   25.8490   46.8030 C   0  0  0  0  0  0  0  0  0  0  0  0
   57.4210   25.1000   46.7250 C   0  0  0  0  0  0  0  0  0  0  0  0
   56.2230   25.6980   46.3250 C   0  0  0  0  0  0  0  0  0  0  0  0
   55.0440   24.8840   46.2410 N   0  0  0  0  0  0  0  0  0  0  0  0
   54.8510   23.5010   45.2080 S   0  0  0  0  0  0  0  0  0  0  0  0
   55.7950   23.7540   43.7250 C   0  0  0  0  0  0  0  0  0  0  0  0
   53.4030   23.3300   44.8390 O   0  0  0  0  0  0  0  0  0  0  0  0
   55.3540   22.2660   45.9110 O   0  0  0  0  0  0  0  0  0  0  0  0
   56.2120   27.0660   46.0010 C   0  0  0  0  0  0  0  0  0  0  0  0
   57.3880   27.8350   46.0770 C   0  0  0  0  0  0  0  0  0  0  0  0
   57.3490   29.2540   45.6380 C   0  0  0  0  0  0  0  0  0  0  0  0
   58.4230   30.1130   45.9150 C   0  0  0  0  0  0  0  0  0  0  0  0
   58.4140   31.4110   45.4850 N   0  0  0  0  0  0  0  0  0  0  0  0
   59.5340   32.2950   45.8260 C   0  0  0  0  0  0  0  0  0  0  0  0
   57.3580   31.8950   44.7600 C   0  0  0  0  0  0  0  0  0  0  0  0
   57.3630   33.0790   44.3270 O   0  0  0  0  0  0  0  0  0  0  0  0
   56.2610   31.0800   44.4830 C   0  0  0  0  0  0  0  0  0  0  0  0
   56.2520   29.7610   44.9240 C   0  0  0  0  0  0  0  0  0  0  0  0
   55.1430   28.9670   44.6640 O   0  0  0  0  0  0  0  0  0  0  0  0
   60.0160   28.1070   49.0440 C   0  0  0  0  0  0  0  0  0  0  0  0
   60.4960   28.8080   50.1530 C   0  0  0  0  0  0  0  0  0  0  0  0
   62.3318   30.2307   53.1008 H   0  0  0  0  0  0  0  0  0  0  0  0
   62.5594   28.8939   51.9228 H   0  0  0  0  0  0  0  0  0  0  0  0
   63.6864   30.2927   51.9228 H   0  0  0  0  0  0  0  0  0  0  0  0
   60.5456   32.3760   51.2659 H   0  0  0  0  0  0  0  0  0  0  0  0
   62.1208   32.4851   52.1325 H   0  0  0  0  0  0  0  0  0  0  0  0
   64.2374   32.0731   50.4451 H   0  0  0  0  0  0  0  0  0  0  0  0
   65.2527   33.1709   48.4452 H   0  0  0  0  0  0  0  0  0  0  0  0
   63.8336   34.5396   46.9101 H   0  0  0  0  0  0  0  0  0  0  0  0
   61.3804   34.7518   47.3305 H   0  0  0  0  0  0  0  0  0  0  0  0
   60.3532   33.6491   49.3234 H   0  0  0  0  0  0  0  0  0  0  0  0
   62.1188   31.3458   48.5358 H   0  0  0  0  0  0  0  0  0  0  0  0
   61.2319   30.1154   46.5591 H   0  0  0  0  0  0  0  0  0  0  0  0
   59.5343   25.3606   47.1048 H   0  0  0  0  0  0  0  0  0  0  0  0
   57.4380   24.0302   46.9805 H   0  0  0  0  0  0  0  0  0  0  0  0
   56.8263   24.0304   43.9895 H   0  0  0  0  0  0  0  0  0  0  0  0
   55.8042   22.8266   43.1335 H   0  0  0  0  0  0  0  0  0  0  0  0
   55.3392   24.5617   43.1335 H   0  0  0  0  0  0  0  0  0  0  0  0
   55.2720   27.5413   45.6840 H   0  0  0  0  0  0  0  0  0  0  0  0
   59.2846   29.7370   46.4862 H   0  0  0  0  0  0  0  0  0  0  0  0
   59.6247   32.3666   46.9199 H   0  0  0  0  0  0  0  0  0  0  0  0
   60.4650   31.8856   45.4069 H   0  0  0  0  0  0  0  0  0  0  0  0
   59.3521   33.2956   45.4069 H   0  0  0  0  0  0  0  0  0  0  0  0
   55.4058   31.4789   43.9177 H   0  0  0  0  0  0  0  0  0  0  0  0
   59.4391   27.1817   49.1888 H   0  0  0  0  0  0  0  0  0  0  0  0
   60.2809   28.4420   51.1678 H   0  0  0  0  0  0  0  0  0  0  0  0
  1  2  1  0
  2  3  1  0
  3  4  1  0
  4  5  2  0
  5  6  1  0
  6  7  2  0
  7  8  1  0
  8  9  2  0
  2 10  1  0
 10 11  2  0
 11 12  1  0
 12 13  2  0
 13 14  1  0
 14 15  1  0
 15 16  2  0
 16 17  1  0
 17 18  2  0
 18 19  1  0
 19 20  1  0
 20 21  1  0
 20 22  2  0
 20 23  2  0
 18 24  1  0
 24 25  2  0
 25 26  1  0
 26 27  2  0
 27 28  1  0
 28 29  1  0
 28 30  1  0
 30 31  2  0
 30 32  1  0
 32 33  2  0
 33 34  1  0
 13 35  1  0
 35 36  2  0
  9  4  1  0
 36 10  1  0
 25 15  1  0
 33 26  1  0
  1 37  1  0
  1 38  1  0
  1 39  1  0
  3 40  1  0
  3 41  1  0
  5 42  1  0
  6 43  1  0
  7 44  1  0
  8 45  1  0
  9 46  1  0
 11 47  1  0
 12 48  1  0
 16 49  1  0
 17 50  1  0
 21 51  1  0
 21 52  1  0
 21 53  1  0
 24 54  1  0
 27 55  1  0
 29 56  1  0
 29 57  1  0
 29 58  1  0
 32 59  1  0
 35 60  1  0
 36 61  1  0
M  CHG  2  19  -1  34  -1
M  END
>  <UniqueID>  (48) 
46

>  <SMILES>  (48) 
CN(Cc1ccccc1)c1ccc(Oc2ccc([N-]S(C)(=O)=O)cc2-c2cn(C)c(=O)cc2[O-])cc1

>  <Energy>  (48) 
79.396139834489

>  <Genealogy>  (48) 
CN(Cc1ccccc1)c1ccc(Oc2ccc([N-]S(C)(=O)=O)cc2-c2cn(C)c(=O)cc2[O-])cc1 (protonated)
CN(Cc1ccccc1)c1ccc(Oc2ccc([N-]S(C)(=O)=O)cc2-c2cn(C)c(=O)cc2[O-])cc1 (3D coordinates assigned)
CN(Cc1ccccc1)c1ccc(Oc2ccc([N-]S(C)(=O)=O)cc2-c2cn(C)c(=O)cc2[O-])cc1 (optimized conformer: 79.396139834489 kcal/mol)

>  <smiles>  (48) 
CN(Cc1ccccc1)c1ccc(Oc2ccc(NS(C)(=O)=O)cc2-c2cn(C)c(=O)cc2O)cc1

>  <score_type>  (48) 
oracle

>  <origin>  (48) 
adg

>  <m_score__min__energy>  (48) 
-13.359999999999999

>  <m_primary>  (48) 
energy

$$$$
48:0
     RDKit          3D

 33 34  0  0  0  0  0  0  0  0999 V2000
   60.3810   34.3500   47.2660 C   0  0  0  0  0  0  0  0  0  0  0  0
   59.3600   33.5000   46.5570 C   0  0  0  0  0  0  0  0  0  0  0  0
   58.4200   34.1280   45.7220 C   0  0  0  0  0  0  0  0  0  0  0  0
   57.4620   33.3810   45.0390 C   0  0  0  0  0  0  0  0  0  0  0  0
   57.4170   31.9940   45.1840 C   0  0  0  0  0  0  0  0  0  0  0  0
   56.4110   31.2510   44.4870 N   0  0  0  0  0  0  0  0  0  0  0  0
   56.2210   29.8310   44.5490 C   0  0  0  0  0  0  0  0  0  0  0  0
   55.1860   29.3830   45.1100 O   0  0  0  0  0  0  0  0  0  0  0  0
   57.2370   28.8530   44.0090 C   0  0  0  0  0  0  0  0  0  0  0  0
   57.8070   28.0160   45.0750 N   0  0  0  0  0  0  0  0  0  0  0  0
   57.0770   27.1670   45.8590 C   0  0  0  0  0  0  0  0  0  0  0  0
   55.6990   27.0250   45.7180 O   0  0  0  0  0  0  0  0  0  0  0  0
   57.8120   26.4550   46.8040 C   0  0  0  0  0  0  0  0  0  0  0  0
   59.4320   26.8820   46.6350 S   0  0  0  0  0  0  0  0  0  0  0  0
   59.1270   27.9480   45.3750 C   0  0  0  0  0  0  0  0  0  0  0  0
   60.0210   28.6020   44.7740 O   0  0  0  0  0  0  0  0  0  0  0  0
   58.3810   31.3490   45.9700 C   0  0  0  0  0  0  0  0  0  0  0  0
   59.3530   32.0870   46.6660 C   0  0  0  0  0  0  0  0  0  0  0  0
   60.5230   31.2180   47.6730 S   0  0  0  0  0  0  0  0  0  0  0  0
   60.1150   29.5380   47.7420 N   0  0  0  0  0  0  0  0  0  0  0  0
   60.5090   31.7640   49.0730 O   0  0  0  0  0  0  0  0  0  0  0  0
   61.9060   31.3910   47.1070 O   0  0  0  0  0  0  0  0  0  0  0  0
   60.2543   34.2446   48.3536 H   0  0  0  0  0  0  0  0  0  0  0  0
   61.3919   34.0229   46.9812 H   0  0  0  0  0  0  0  0  0  0  0  0
   60.2426   35.4034   46.9812 H   0  0  0  0  0  0  0  0  0  0  0  0
   58.4407   35.2217   45.6062 H   0  0  0  0  0  0  0  0  0  0  0  0
   56.7384   33.8869   44.3829 H   0  0  0  0  0  0  0  0  0  0  0  0
   56.7475   28.2030   43.2688 H   0  0  0  0  0  0  0  0  0  0  0  0
   58.0551   29.4274   43.5499 H   0  0  0  0  0  0  0  0  0  0  0  0
   55.1430   27.7380   45.2590 H   0  0  0  0  0  0  0  0  0  0  0  0
   57.4052   25.7389   47.5332 H   0  0  0  0  0  0  0  0  0  0  0  0
   58.3767   30.2514   46.0430 H   0  0  0  0  0  0  0  0  0  0  0  0
   60.4160   29.1050   46.8390 H   0  0  0  0  0  0  0  0  0  0  0  0
  1  2  1  0
  2  3  2  0
  3  4  1  0
  4  5  2  0
  5  6  1  0
  6  7  1  0
  7  8  2  0
  7  9  1  0
  9 10  1  0
 10 11  1  0
 11 12  1  0
 11 13  2  0
 13 14  1  0
 14 15  1  0
 15 16  2  0
  5 17  1  0
 17 18  2  0
 18 19  1  0
 19 20  1  0
 19 21  2  0
 19 22  2  0
 18  2  1  0
 15 10  1  0
  1 23  1  0
  1 24  1  0
  1 25  1  0
  3 26  1  0
  4 27  1  0
  9 28  1  0
  9 29  1  0
 12 30  1  0
 13 31  1  0
 17 32  1  0
 20 33  1  0
M  CHG  2   6  -1  20  -1
M  END
>  <UniqueID>  (49) 
47

>  <SMILES>  (49) 
Cc1ccc([N-]C(=O)Cn2c(O)csc2=O)cc1S([NH-])(=O)=O

>  <Energy>  (49) 
68.5944992767629

>  <Genealogy>  (49) 
Cc1ccc([N-]C(=O)Cn2c(O)csc2=O)cc1S([NH-])(=O)=O (protonated)
Cc1ccc([N-]C(=O)Cn2c(O)csc2=O)cc1S([NH-])(=O)=O (3D coordinates assigned)
Cc1ccc([N-]C(=O)Cn2c(O)csc2=O)cc1S([NH-])(=O)=O (optimized conformer: 68.5944992767629 kcal/mol)

>  <smiles>  (49) 
Cc1ccc(NC(=O)Cn2c(O)csc2=O)cc1S(N)(=O)=O

>  <score_type>  (49) 
oracle

>  <origin>  (49) 
adg

>  <m_score__min__energy>  (49) 
-11.93

>  <m_primary>  (49) 
energy

$$$$
49:0
     RDKit          3D

 41 42  0  0  0  0  0  0  0  0999 V2000
   63.4040   33.4300   47.1000 C   0  0  0  0  0  0  0  0  0  0  0  0
   62.7410   33.4770   48.4720 C   0  0  0  0  0  0  0  0  0  0  0  0
   61.6070   34.3440   48.4580 O   0  0  0  0  0  0  0  0  0  0  0  0
   60.4400   34.1510   47.7010 C   0  0  0  0  0  0  0  0  0  0  0  0
   60.4330   34.6010   46.3740 C   0  0  0  0  0  0  0  0  0  0  0  0
   59.2990   34.4390   45.5730 C   0  0  0  0  0  0  0  0  0  0  0  0
   58.1520   33.8190   46.0880 C   0  0  0  0  0  0  0  0  0  0  0  0
   56.9160   33.6680   45.2450 C   0  0  0  0  0  0  0  0  0  0  0  0
   56.6770   32.2590   44.9560 N   0  0  0  0  0  0  0  0  0  0  0  0
   57.5260   31.4630   44.1230 C   0  0  0  0  0  0  0  0  0  0  0  0
   58.0340   31.9680   43.0850 O   0  0  0  0  0  0  0  0  0  0  0  0
   57.8510   30.0640   44.4920 C   0  0  0  0  0  0  0  0  0  0  0  0
   57.1290   29.0170   43.9000 C   0  0  0  0  0  0  0  0  0  0  0  0
   57.4130   27.7230   44.2020 N   0  0  0  0  0  0  0  0  0  0  0  0
   58.3940   27.4170   45.0880 C   0  0  0  0  0  0  0  0  0  0  0  0
   58.7640   25.7070   45.4740 S   0  0  0  0  0  0  0  0  0  0  0  0
   60.2880   26.1210   46.3770 C   0  0  0  0  0  0  0  0  0  0  0  0
   59.0980   28.4070   45.6900 N   0  0  0  0  0  0  0  0  0  0  0  0
   58.8540   29.7190   45.4300 C   0  0  0  0  0  0  0  0  0  0  0  0
   59.6540   30.7460   46.1790 C   0  0  0  0  0  0  0  0  0  0  0  0
   58.1500   33.3750   47.4200 C   0  0  0  0  0  0  0  0  0  0  0  0
   59.2840   33.5380   48.2210 C   0  0  0  0  0  0  0  0  0  0  0  0
   64.4945   33.3527   47.2222 H   0  0  0  0  0  0  0  0  0  0  0  0
   63.0344   32.5558   46.5439 H   0  0  0  0  0  0  0  0  0  0  0  0
   63.1615   34.3476   46.5439 H   0  0  0  0  0  0  0  0  0  0  0  0
   62.4166   32.4635   48.7506 H   0  0  0  0  0  0  0  0  0  0  0  0
   63.4688   33.8605   49.2022 H   0  0  0  0  0  0  0  0  0  0  0  0
   61.3285   35.0864   45.9587 H   0  0  0  0  0  0  0  0  0  0  0  0
   59.3066   34.7996   44.5338 H   0  0  0  0  0  0  0  0  0  0  0  0
   56.0525   34.0798   45.7879 H   0  0  0  0  0  0  0  0  0  0  0  0
   57.0563   34.2113   44.2989 H   0  0  0  0  0  0  0  0  0  0  0  0
   56.3254   29.2457   43.1846 H   0  0  0  0  0  0  0  0  0  0  0  0
   56.8690   26.9590   43.7420 H   0  0  0  0  0  0  0  0  0  0  0  0
   60.0984   26.0695   47.4593 H   0  0  0  0  0  0  0  0  0  0  0  0
   61.0790   25.4052   46.1089 H   0  0  0  0  0  0  0  0  0  0  0  0
   60.6081   27.1387   46.1089 H   0  0  0  0  0  0  0  0  0  0  0  0
   59.5315   30.5887   47.2608 H   0  0  0  0  0  0  0  0  0  0  0  0
   60.7168   30.6488   45.9124 H   0  0  0  0  0  0  0  0  0  0  0  0
   59.2997   31.7527   45.9124 H   0  0  0  0  0  0  0  0  0  0  0  0
   57.2511   32.8962   47.8356 H   0  0  0  0  0  0  0  0  0  0  0  0
   59.2732   33.1855   49.2629 H   0  0  0  0  0  0  0  0  0  0  0  0
  1  2  1  0
  2  3  1  0
  3  4  1  0
  4  5  2  0
  5  6  1  0
  6  7  2  0
  7  8  1  0
  8  9  1  0
  9 10  1  0
 10 11  2  0
 10 12  1  0
 12 13  2  0
 13 14  1  0
 14 15  2  0
 15 16  1  0
 16 17  1  0
 15 18  1  0
 18 19  2  0
 19 20  1  0
  7 21  1  0
 21 22  2  0
 22  4  1  0
 19 12  1  0
  1 23  1  0
  1 24  1  0
  1 25  1  0
  2 26  1  0
  2 27  1  0
  5 28  1  0
  6 29  1  0
  8 30  1  0
  8 31  1  0
 13 32  1  0
 14 33  1  0
 17 34  1  0
 17 35  1  0
 17 36  1  0
 20 37  1  0
 20 38  1  0
 20 39  1  0
 21 40  1  0
 22 41  1  0
M  CHG  2   9  -1  14   1
M  END
>  <UniqueID>  (50) 
48

>  <SMILES>  (50) 
CCOc1ccc(C[N-]C(=O)c2c[nH+]c(SC)nc2C)cc1

>  <Energy>  (50) 
35.66490056529218

>  <Genealogy>  (50) 
CCOc1ccc(C[N-]C(=O)c2c[nH+]c(SC)nc2C)cc1 (protonated)
CCOc1ccc(C[N-]C(=O)c2c[nH+]c(SC)nc2C)cc1 (3D coordinates assigned)
CCOc1ccc(C[N-]C(=O)c2c[nH+]c(SC)nc2C)cc1 (optimized conformer: 35.66490056529218 kcal/mol)

>  <smiles>  (50) 
CCOc1ccc(CNC(=O)c2cnc(SC)nc2C)cc1

>  <score_type>  (50) 
oracle

>  <origin>  (50) 
adg

>  <m_score__min__energy>  (50) 
-7.0300000000000002

>  <m_primary>  (50) 
energy

$$$$
50:0
     RDKit          3D

 59 63  0  0  1  0  0  0  0  0999 V2000
   59.6350   35.7220   45.8420 C   0  0  0  0  0  0  0  0  0  0  0  0
   59.1090   34.3490   45.6200 C   0  0  0  0  0  0  0  0  0  0  0  0
   58.3850   34.0130   44.4930 C   0  0  0  0  0  0  0  0  0  0  0  0
   57.8940   32.7290   44.2880 C   0  0  0  0  0  0  0  0  0  0  0  0
   58.1190   31.7340   45.2160 C   0  0  0  0  0  0  0  0  0  0  0  0
   57.6330   30.3670   45.0580 C   0  0  0  0  0  0  0  0  0  0  0  0
   56.3990   30.1480   44.8710 O   0  0  0  0  0  0  0  0  0  0  0  0
   58.4830   29.2480   45.1030 N   0  0  0  0  0  0  0  0  0  0  0  0
   57.9630   27.9320   44.9430 C   0  0  0  0  0  0  0  0  0  0  0  0
   58.2710   27.1230   43.8680 C   0  0  0  0  0  0  0  0  0  0  0  0
   57.7460   25.8520   43.7490 C   0  0  0  0  0  0  0  0  0  0  0  0
   56.9010   25.3450   44.6900 N   0  0  0  0  0  0  0  0  0  0  0  0
   63.8740   33.4290   50.3490 C   0  0  0  0  0  0  0  0  0  0  0  0
   55.8090   25.7170   46.6610 O   0  0  0  0  0  0  0  0  0  0  0  0
   57.0940   27.3990   45.9020 C   0  0  0  0  0  0  0  0  0  0  0  0
   58.8440   32.0720   46.3400 C   0  0  0  0  0  0  0  0  0  0  0  0
   59.3390   33.3530   46.5530 C   0  0  0  0  0  0  0  0  0  0  0  0
   60.0640   33.5790   47.7360 N   0  0  0  0  0  0  0  0  0  0  0  0
   61.3510   33.5150   47.7690 C   0  0  0  0  0  0  0  0  0  0  0  0
   62.0670   33.4620   46.6300 N   0  0  0  0  0  0  0  0  0  0  0  0
   63.4060   33.3960   46.7530 C   0  0  0  0  0  0  0  0  0  0  0  0
   64.0100   33.3850   47.9580 N   0  0  0  0  0  0  0  0  0  0  0  0
   63.3120   33.4370   49.1010 C   0  0  0  0  0  0  0  0  0  0  0  0
   56.5880   26.1240   45.7500 C   0  0  0  0  0  0  0  0  0  0  0  0
   65.1570   33.3650   50.4420 N   0  0  0  0  0  0  0  0  0  0  0  0
   63.1020   33.4830   51.4270 N   0  0  0  0  0  0  0  0  0  0  0  0
   61.7440   33.5510   51.3820 C   0  0  0  0  0  0  0  0  0  0  0  0
   60.9560   33.6080   52.5740 N   0  0  0  0  0  0  0  0  0  0  0  0
   61.5060   33.3820   53.8940 C   0  0  0  0  0  0  0  0  0  0  0  0
   60.5150   32.8230   54.8550 C   0  0  0  0  0  0  0  0  0  0  0  0
   59.1540   33.2070   54.6430 N   0  0  0  0  0  0  0  0  0  0  0  0
   58.7500   32.9490   53.2520 C   0  0  0  0  0  0  0  0  0  0  0  0
   59.5410   33.9120   52.4210 C   0  0  0  0  0  0  0  0  0  0  0  0
   61.2010   33.5590   50.1530 N   0  0  0  0  0  0  0  0  0  0  0  0
   61.9390   33.5040   49.0200 C   0  0  0  0  0  0  0  0  0  0  0  0
   59.7093   35.9160   46.9222 H   0  0  0  0  0  0  0  0  0  0  0  0
   60.6311   35.8116   45.3840 H   0  0  0  0  0  0  0  0  0  0  0  0
   58.9537   36.4542   45.3840 H   0  0  0  0  0  0  0  0  0  0  0  0
   58.1909   34.7854   43.7342 H   0  0  0  0  0  0  0  0  0  0  0  0
   57.3204   32.5043   43.3767 H   0  0  0  0  0  0  0  0  0  0  0  0
   59.5110   29.3490   45.2540 H   0  0  0  0  0  0  0  0  0  0  0  0
   58.9500   27.4995   43.0887 H   0  0  0  0  0  0  0  0  0  0  0  0
   58.0149   25.2366   42.8778 H   0  0  0  0  0  0  0  0  0  0  0  0
   56.5030   24.3840   44.6010 H   0  0  0  0  0  0  0  0  0  0  0  0
   56.8132   27.9987   46.7804 H   0  0  0  0  0  0  0  0  0  0  0  0
   59.0378   31.2976   47.0969 H   0  0  0  0  0  0  0  0  0  0  0  0
   61.5600   33.4740   45.7330 H   0  0  0  0  0  0  0  0  0  0  0  0
   64.0246   33.3497   45.8446 H   0  0  0  0  0  0  0  0  0  0  0  0
   65.7220   33.2850   49.5930 H   0  0  0  0  0  0  0  0  0  0  0  0
   62.3451   32.6760   53.8069 H   0  0  0  0  0  0  0  0  0  0  0  0
   61.8264   34.3585   54.2861 H   0  0  0  0  0  0  0  0  0  0  0  0
   60.5689   31.7260   54.7948 H   0  0  0  0  0  0  0  0  0  0  0  0
   60.7901   33.2326   55.8381 H   0  0  0  0  0  0  0  0  0  0  0  0
   58.5610   32.5710   55.2300 H   0  0  0  0  0  0  0  0  0  0  0  0
   58.9862   31.9126   52.9689 H   0  0  0  0  0  0  0  0  0  0  0  0
   57.6672   33.0809   53.1101 H   0  0  0  0  0  0  0  0  0  0  0  0
   59.2532   33.8120   51.3640 H   0  0  0  0  0  0  0  0  0  0  0  0
   59.3415   34.9425   52.7500 H   0  0  0  0  0  0  0  0  0  0  0  0
   60.1750   33.6080   50.0280 H   0  0  0  0  0  0  0  0  0  0  0  0
  1  2  1  0
  2  3  2  0
  3  4  1  0
  4  5  2  0
  5  6  1  0
  6  7  2  0
  6  8  1  0
  8  9  1  0
  9 10  1  0
 10 11  2  0
 11 12  1  0
 12 13  1  0
 13 14  2  0
 13 15  1  0
  5 16  1  0
 16 17  2  0
 17 18  1  0
 18 19  2  0
 19 20  1  0
 20 21  1  0
 21 22  2  0
 22 23  1  0
 23 24  1  0
 24 25  2  3
 24 26  1  0
 26 27  2  0
 27 28  1  0
 28 29  1  0
 29 30  1  0
 30 31  1  0
 31 32  1  0
 32 33  1  0
 27 34  1  0
 34 35  1  0
 17  2  1  0
 35 19  1  0
 15  9  2  0
 35 23  2  0
 33 28  1  0
  1 36  1  0
  1 37  1  0
  1 38  1  0
  3 39  1  0
  4 40  1  0
  8 41  1  0
 10 42  1  0
 11 43  1  0
 12 44  1  0
 15 45  1  0
 16 46  1  0
 20 47  1  0
 21 48  1  0
 25 49  1  0
 29 50  1  0
 29 51  1  0
 30 52  1  0
 30 53  1  0
 31 54  1  0
 32 55  1  0
 32 56  1  0
 33 57  1  0
 33 58  1  0
 34 59  1  0
M  END
>  <smiles>  (51) 
Cc1ccc(C(=O)Nc2cc[nH]c(=O)c2)cc1N=c1[nH]cnc2c(=N)nc(N3CCNCC3)[nH]c12

>  <score_type>  (51) 
oracle

>  <origin>  (51) 
adg

>  <m_score__min__energy>  (51) 
-9.1300000000000008

>  <m_primary>  (51) 
energy

$$$$
51:0
     RDKit          3D

 55 58  0  0  0  0  0  0  0  0999 V2000
   55.3440   29.1740   44.8440 O   0  0  0  0  0  0  0  0  0  0  0  0
   56.3950   29.7970   44.5370 C   0  0  0  0  0  0  0  0  0  0  0  0
   56.3600   31.2250   44.4270 N   0  0  0  0  0  0  0  0  0  0  0  0
   57.2880   32.0920   45.0930 C   0  0  0  0  0  0  0  0  0  0  0  0
   57.3520   33.4390   44.7370 C   0  0  0  0  0  0  0  0  0  0  0  0
   58.2910   34.2790   45.3370 C   0  0  0  0  0  0  0  0  0  0  0  0
   59.1790   33.7870   46.3120 C   0  0  0  0  0  0  0  0  0  0  0  0
   60.1640   34.6600   46.8870 N   0  0  0  0  0  0  0  0  0  0  0  0
   60.6110   34.5930   48.2450 C   0  0  0  0  0  0  0  0  0  0  0  0
   59.8290   34.9650   49.1590 O   0  0  0  0  0  0  0  0  0  0  0  0
   61.9540   34.0680   48.5940 C   0  0  0  0  0  0  0  0  0  0  0  0
   62.8140   33.5890   47.5880 C   0  0  0  0  0  0  0  0  0  0  0  0
   64.0860   33.1090   47.9150 C   0  0  0  0  0  0  0  0  0  0  0  0
   64.5170   33.1120   49.2440 C   0  0  0  0  0  0  0  0  0  0  0  0
   65.7520   32.6470   49.5580 F   0  0  0  0  0  0  0  0  0  0  0  0
   63.6790   33.6020   50.2470 C   0  0  0  0  0  0  0  0  0  0  0  0
   62.4080   34.0840   49.9270 C   0  0  0  0  0  0  0  0  0  0  0  0
   59.0900   32.4310   46.7140 C   0  0  0  0  0  0  0  0  0  0  0  0
   60.0150   31.8220   47.7110 C   0  0  0  0  0  0  0  0  0  0  0  0
   60.9440   31.0560   47.3380 O   0  0  0  0  0  0  0  0  0  0  0  0
   59.7730   32.0480   49.1120 N   0  0  0  0  0  0  0  0  0  0  0  0
   58.9940   31.4160   49.9460 C   0  0  0  0  0  0  0  0  0  0  0  0
   59.3040   30.0830   50.2490 C   0  0  0  0  0  0  0  0  0  0  0  0
   58.4810   29.3540   51.1090 C   0  0  0  0  0  0  0  0  0  0  0  0
   57.3800   29.9340   51.6520 N   0  0  0  0  0  0  0  0  0  0  0  0
   57.0440   31.2220   51.3760 C   0  0  0  0  0  0  0  0  0  0  0  0
   57.8330   31.9860   50.5120 C   0  0  0  0  0  0  0  0  0  0  0  0
   58.1290   31.6050   46.1030 C   0  0  0  0  0  0  0  0  0  0  0  0
   57.5980   29.0790   44.2200 N   0  0  0  0  0  0  0  0  0  0  0  0
   58.0320   27.8750   44.8780 C   0  0  0  0  0  0  0  0  0  0  0  0
   57.7290   26.6360   44.2980 C   0  0  0  0  0  0  0  0  0  0  0  0
   58.1890   25.4510   44.8760 C   0  0  0  0  0  0  0  0  0  0  0  0
   58.9560   25.4900   46.0400 C   0  0  0  0  0  0  0  0  0  0  0  0
   59.2710   26.7180   46.6420 C   0  0  0  0  0  0  0  0  0  0  0  0
   60.1570   26.7390   47.8640 C   0  0  0  0  0  0  0  0  0  0  0  0
   60.2890   28.0430   48.3100 F   0  0  0  0  0  0  0  0  0  0  0  0
   61.4090   26.2440   47.5450 F   0  0  0  0  0  0  0  0  0  0  0  0
   59.6310   25.9680   48.8880 F   0  0  0  0  0  0  0  0  0  0  0  0
   58.8210   27.9110   46.0430 C   0  0  0  0  0  0  0  0  0  0  0  0
   56.6606   33.8402   43.9814 H   0  0  0  0  0  0  0  0  0  0  0  0
   58.3378   35.3384   45.0445 H   0  0  0  0  0  0  0  0  0  0  0  0
   62.4837   33.5923   46.5388 H   0  0  0  0  0  0  0  0  0  0  0  0
   64.7488   32.7282   47.1240 H   0  0  0  0  0  0  0  0  0  0  0  0
   64.0208   33.6085   51.2925 H   0  0  0  0  0  0  0  0  0  0  0  0
   61.7573   34.4787   50.7212 H   0  0  0  0  0  0  0  0  0  0  0  0
   60.1954   29.6117   49.8093 H   0  0  0  0  0  0  0  0  0  0  0  0
   58.7248   28.3081   51.3471 H   0  0  0  0  0  0  0  0  0  0  0  0
   56.1475   31.6646   51.8346 H   0  0  0  0  0  0  0  0  0  0  0  0
   57.5519   33.0227   50.2749 H   0  0  0  0  0  0  0  0  0  0  0  0
   58.0358   30.5570   46.4240 H   0  0  0  0  0  0  0  0  0  0  0  0
   58.2340   29.5020   43.5050 H   0  0  0  0  0  0  0  0  0  0  0  0
   57.1240   26.5965   43.3802 H   0  0  0  0  0  0  0  0  0  0  0  0
   57.9456   24.4839   44.4118 H   0  0  0  0  0  0  0  0  0  0  0  0
   59.3163   24.5527   46.4890 H   0  0  0  0  0  0  0  0  0  0  0  0
   59.0888   28.8798   46.4900 H   0  0  0  0  0  0  0  0  0  0  0  0
  1  2  2  0
  2  3  1  0
  3  4  1  0
  4  5  2  0
  5  6  1  0
  6  7  2  0
  7  8  1  0
  8  9  1  0
  9 10  2  0
  9 11  1  0
 11 12  2  0
 12 13  1  0
 13 14  2  0
 14 15  1  0
 14 16  1  0
 16 17  2  0
  7 18  1  0
 18 19  1  0
 19 20  2  0
 19 21  1  0
 21 22  2  3
 22 23  1  0
 23 24  2  0
 24 25  1  0
 25 26  1  0
 26 27  2  0
 18 28  2  0
  2 29  1  0
 29 30  1  0
 30 31  2  0
 31 32  1  0
 32 33  2  0
 33 34  1  0
 34 35  1  0
 35 36  1  0
 35 37  1  0
 35 38  1  0
 34 39  2  0
 28  4  1  0
 39 30  1  0
 17 11  1  0
 27 22  1  0
  5 40  1  0
  6 41  1  0
 12 42  1  0
 13 43  1  0
 16 44  1  0
 17 45  1  0
 23 46  1  0
 24 47  1  0
 26 48  1  0
 27 49  1  0
 28 50  1  0
 29 51  1  0
 31 52  1  0
 32 53  1  0
 33 54  1  0
 39 55  1  0
M  CHG  3   3  -1   8  -1  25  -1
M  END
>  <UniqueID>  (52) 
49

>  <SMILES>  (52) 
O=C([N-]c1ccc([N-]C(=O)c2ccc(F)cc2)c(C(=O)N=c2cc[n-]cc2)c1)Nc1cccc(C(F)(F)F)c1

>  <Energy>  (52) 
85.32183324598033

>  <Genealogy>  (52) 
O=C([N-]c1ccc([N-]C(=O)c2ccc(F)cc2)c(C(=O)N=c2cc[n-]cc2)c1)Nc1cccc(C(F)(F)F)c1 (protonated)
O=C([N-]c1ccc([N-]C(=O)c2ccc(F)cc2)c(C(=O)N=c2cc[n-]cc2)c1)Nc1cccc(C(F)(F)F)c1 (3D coordinates assigned)
O=C([N-]c1ccc([N-]C(=O)c2ccc(F)cc2)c(C(=O)N=c2cc[n-]cc2)c1)Nc1cccc(C(F)(F)F)c1 (optimized conformer: 85.32183324598033 kcal/mol)

>  <smiles>  (52) 
O=C(Nc1cccc(C(F)(F)F)c1)Nc1ccc(NC(=O)c2ccc(F)cc2)c(C(=O)N=c2cc[nH]cc2)c1

>  <score_type>  (52) 
oracle

>  <origin>  (52) 
adg

>  <m_score__min__energy>  (52) 
-12.869999999999999

>  <m_primary>  (52) 
energy

$$$$
52:0
     RDKit          3D

 52 55  0  0  0  0  0  0  0  0999 V2000
   56.2120   29.9630   43.8480 C   0  0  0  0  0  0  0  0  0  0  0  0
   56.2180   29.3860   45.1500 O   0  0  0  0  0  0  0  0  0  0  0  0
   57.3700   29.0220   45.8650 C   0  0  0  0  0  0  0  0  0  0  0  0
   58.2450   30.0030   46.3700 C   0  0  0  0  0  0  0  0  0  0  0  0
   59.3980   29.6450   47.0800 C   0  0  0  0  0  0  0  0  0  0  0  0
   60.3030   30.6940   47.6000 C   0  0  0  0  0  0  0  0  0  0  0  0
   61.4150   30.4870   48.3980 C   0  0  0  0  0  0  0  0  0  0  0  0
   62.0390   31.6700   48.5870 N   0  0  0  0  0  0  0  0  0  0  0  0
   63.2410   31.8880   49.3540 C   0  0  0  0  0  0  0  0  0  0  0  0
   64.1720   32.8650   48.9560 C   0  0  0  0  0  0  0  0  0  0  0  0
   65.3360   33.0790   49.7000 C   0  0  0  0  0  0  0  0  0  0  0  0
   65.5830   32.3210   50.8480 C   0  0  0  0  0  0  0  0  0  0  0  0
   64.6670   31.3470   51.2520 C   0  0  0  0  0  0  0  0  0  0  0  0
   63.5010   31.1300   50.5100 C   0  0  0  0  0  0  0  0  0  0  0  0
   61.3680   32.6170   47.9490 N   0  0  0  0  0  0  0  0  0  0  0  0
   60.2990   32.0650   47.3440 C   0  0  0  0  0  0  0  0  0  0  0  0
   59.2810   32.8490   46.6100 C   0  0  0  0  0  0  0  0  0  0  0  0
   59.6380   33.5410   45.4410 C   0  0  0  0  0  0  0  0  0  0  0  0
   58.6810   34.2780   44.7380 C   0  0  0  0  0  0  0  0  0  0  0  0
   57.3640   34.3410   45.2020 C   0  0  0  0  0  0  0  0  0  0  0  0
   56.4370   35.0560   44.5180 F   0  0  0  0  0  0  0  0  0  0  0  0
   57.0050   33.6710   46.3740 C   0  0  0  0  0  0  0  0  0  0  0  0
   57.9590   32.9330   47.0810 C   0  0  0  0  0  0  0  0  0  0  0  0
   59.6620   28.2920   47.3170 C   0  0  0  0  0  0  0  0  0  0  0  0
   58.8130   27.2950   46.8110 C   0  0  0  0  0  0  0  0  0  0  0  0
   59.0780   25.9290   47.0080 O   0  0  0  0  0  0  0  0  0  0  0  0
   59.5570   25.0460   45.9980 C   0  0  0  0  0  0  0  0  0  0  0  0
   57.6640   27.6520   46.0860 C   0  0  0  0  0  0  0  0  0  0  0  0
   56.8630   26.5940   45.6140 O   0  0  0  0  0  0  0  0  0  0  0  0
   56.2640   25.5680   46.3980 C   0  0  0  0  0  0  0  0  0  0  0  0
   56.2006   31.0597   43.9330 H   0  0  0  0  0  0  0  0  0  0  0  0
   57.1135   29.6468   43.3027 H   0  0  0  0  0  0  0  0  0  0  0  0
   55.3173   29.6282   43.3027 H   0  0  0  0  0  0  0  0  0  0  0  0
   58.0195   31.0668   46.2043 H   0  0  0  0  0  0  0  0  0  0  0  0
   61.7372   29.5193   48.8100 H   0  0  0  0  0  0  0  0  0  0  0  0
   63.9827   33.4645   48.0533 H   0  0  0  0  0  0  0  0  0  0  0  0
   66.0584   33.8449   49.3815 H   0  0  0  0  0  0  0  0  0  0  0  0
   66.4986   32.4915   51.4333 H   0  0  0  0  0  0  0  0  0  0  0  0
   64.8627   30.7498   52.1548 H   0  0  0  0  0  0  0  0  0  0  0  0
   62.7830   30.3617   50.8327 H   0  0  0  0  0  0  0  0  0  0  0  0
   61.6010   33.6350   47.9680 H   0  0  0  0  0  0  0  0  0  0  0  0
   60.6754   33.5027   45.0772 H   0  0  0  0  0  0  0  0  0  0  0  0
   58.9648   34.8095   43.8177 H   0  0  0  0  0  0  0  0  0  0  0  0
   55.9695   33.7242   46.7414 H   0  0  0  0  0  0  0  0  0  0  0  0
   57.6742   32.4161   48.0093 H   0  0  0  0  0  0  0  0  0  0  0  0
   60.5453   28.0058   47.9068 H   0  0  0  0  0  0  0  0  0  0  0  0
   60.0309   24.1724   46.4694 H   0  0  0  0  0  0  0  0  0  0  0  0
   58.7155   24.7136   45.3724 H   0  0  0  0  0  0  0  0  0  0  0  0
   60.2945   25.5701   45.3724 H   0  0  0  0  0  0  0  0  0  0  0  0
   56.3977   25.7970   47.4656 H   0  0  0  0  0  0  0  0  0  0  0  0
   55.1901   25.5099   46.1672 H   0  0  0  0  0  0  0  0  0  0  0  0
   56.7413   24.6042   46.1672 H   0  0  0  0  0  0  0  0  0  0  0  0
  1  2  1  0
  2  3  1  0
  3  4  2  0
  4  5  1  0
  5  6  1  0
  6  7  2  0
  7  8  1  0
  8  9  1  0
  9 10  2  0
 10 11  1  0
 11 12  2  0
 12 13  1  0
 13 14  2  0
  8 15  1  0
 15 16  2  0
 16 17  1  0
 17 18  2  0
 18 19  1  0
 19 20  2  0
 20 21  1  0
 20 22  1  0
 22 23  2  0
  5 24  2  0
 24 25  1  0
 25 26  1  0
 26 27  1  0
 25 28  2  0
 28 29  1  0
 29 30  1  0
 28  3  1  0
 16  6  1  0
 23 17  1  0
 14  9  1  0
  1 31  1  0
  1 32  1  0
  1 33  1  0
  4 34  1  0
  7 35  1  0
 10 36  1  0
 11 37  1  0
 12 38  1  0
 13 39  1  0
 14 40  1  0
 15 41  1  0
 18 42  1  0
 19 43  1  0
 22 44  1  0
 23 45  1  0
 24 46  1  0
 27 47  1  0
 27 48  1  0
 27 49  1  0
 30 50  1  0
 30 51  1  0
 30 52  1  0
M  CHG  1  15   1
M  END
>  <UniqueID>  (53) 
50

>  <SMILES>  (53) 
COc1cc(-c2cn(-c3ccccc3)[nH+]c2-c2ccc(F)cc2)cc(OC)c1OC

>  <Energy>  (53) 
99.21991828531797

>  <Genealogy>  (53) 
COc1cc(-c2cn(-c3ccccc3)[nH+]c2-c2ccc(F)cc2)cc(OC)c1OC (protonated)
COc1cc(-c2cn(-c3ccccc3)[nH+]c2-c2ccc(F)cc2)cc(OC)c1OC (3D coordinates assigned)
COc1cc(-c2cn(-c3ccccc3)[nH+]c2-c2ccc(F)cc2)cc(OC)c1OC (optimized conformer: 99.21991828531797 kcal/mol)

>  <smiles>  (53) 
COc1cc(-c2cn(-c3ccccc3)nc2-c2ccc(F)cc2)cc(OC)c1OC

>  <score_type>  (53) 
oracle

>  <origin>  (53) 
adg

>  <m_score__min__energy>  (53) 
-6.2999999999999998

>  <m_primary>  (53) 
energy

$$$$
53:0
     RDKit          3D

 45 47  0  0  0  0  0  0  0  0999 V2000
   54.9000   30.1540   44.3750 H   0  0  0  0  0  0  0  0  0  0  0  0
   54.7820   29.3980   43.7430 O   0  0  0  0  0  0  0  0  0  0  0  0
   55.8680   29.4340   42.8570 C   0  0  0  0  0  0  0  0  0  0  0  0
   55.4953   29.3401   41.8263 H   0  0  0  0  0  0  0  0  0  0  0  0
   56.5458   28.6017   43.0977 H   0  0  0  0  0  0  0  0  0  0  0  0
   56.6410   30.7500   42.9930 C   0  0  0  0  0  0  0  0  0  0  0  0
   55.9204   31.5809   43.0097 H   0  0  0  0  0  0  0  0  0  0  0  0
   57.3264   30.8220   42.1357 H   0  0  0  0  0  0  0  0  0  0  0  0
   57.4890   30.8110   44.2690 C   0  0  0  0  0  0  0  0  0  0  0  0
   57.6032   31.8603   44.5788 H   0  0  0  0  0  0  0  0  0  0  0  0
   58.4751   30.3686   44.0644 H   0  0  0  0  0  0  0  0  0  0  0  0
   56.8450   30.0590   45.3430 N   0  0  0  0  0  0  0  0  0  0  0  0
   57.0810   28.8050   45.6000 C   0  0  0  0  0  0  0  0  0  0  0  0
   56.1470   27.8230   45.5060 N   0  0  0  0  0  0  0  0  0  0  0  0
   55.1440   27.9050   45.2270 H   0  0  0  0  0  0  0  0  0  0  0  0
   56.8140   26.7130   45.8720 C   0  0  0  0  0  0  0  0  0  0  0  0
   58.1080   27.0220   46.1720 C   0  0  0  0  0  0  0  0  0  0  0  0
   58.9760   26.0150   46.5900 C   0  0  0  0  0  0  0  0  0  0  0  0
   60.1770   26.2450   46.8830 O   0  0  0  0  0  0  0  0  0  0  0  0
   58.4840   24.7480   46.6790 N   0  0  0  0  0  0  0  0  0  0  0  0
   57.1820   24.4520   46.3730 C   0  0  0  0  0  0  0  0  0  0  0  0
   56.7890   23.2600   46.4800 O   0  0  0  0  0  0  0  0  0  0  0  0
   56.3190   25.4450   45.9580 N   0  0  0  0  0  0  0  0  0  0  0  0
   54.9140   25.1760   45.6280 C   0  0  0  0  0  0  0  0  0  0  0  0
   54.3341   25.0650   46.5561 H   0  0  0  0  0  0  0  0  0  0  0  0
   54.5087   26.0129   45.0403 H   0  0  0  0  0  0  0  0  0  0  0  0
   54.8465   24.2486   45.0403 H   0  0  0  0  0  0  0  0  0  0  0  0
   58.3000   28.3500   45.9970 N   0  0  0  0  0  0  0  0  0  0  0  0
   59.5070   29.1560   46.2170 C   0  0  0  0  0  0  0  0  0  0  0  0
   59.7968   29.6382   45.2717 H   0  0  0  0  0  0  0  0  0  0  0  0
   60.3134   28.4971   46.5713 H   0  0  0  0  0  0  0  0  0  0  0  0
   59.2550   30.2160   47.2560 C   0  0  0  0  0  0  0  0  0  0  0  0
   59.0750   29.8600   48.6020 C   0  0  0  0  0  0  0  0  0  0  0  0
   59.1231   28.8021   48.8994 H   0  0  0  0  0  0  0  0  0  0  0  0
   58.8350   30.8430   49.5660 C   0  0  0  0  0  0  0  0  0  0  0  0
   58.6890   30.5556   50.6177 H   0  0  0  0  0  0  0  0  0  0  0  0
   58.7800   32.1890   49.1980 C   0  0  0  0  0  0  0  0  0  0  0  0
   58.5778   32.9578   49.9583 H   0  0  0  0  0  0  0  0  0  0  0  0
   58.9820   32.5630   47.8610 C   0  0  0  0  0  0  0  0  0  0  0  0
   58.8880   34.0070   47.4640 C   0  0  0  0  0  0  0  0  0  0  0  0
   58.8472   34.6337   48.3671 H   0  0  0  0  0  0  0  0  0  0  0  0
   59.7702   34.2813   46.8669 H   0  0  0  0  0  0  0  0  0  0  0  0
   57.9777   34.1646   46.8669 H   0  0  0  0  0  0  0  0  0  0  0  0
   59.2070   31.5720   46.8920 C   0  0  0  0  0  0  0  0  0  0  0  0
   59.3468   31.8597   45.8395 H   0  0  0  0  0  0  0  0  0  0  0  0
  1  2  1  0
  2  3  1  0
  3  4  1  0
  3  5  1  0
  3  6  1  0
  6  7  1  0
  6  8  1  0
  6  9  1  0
  9 10  1  0
  9 11  1  0
  9 12  1  0
 12 13  2  0
 13 14  1  0
 14 15  1  0
 14 16  1  0
 16 17  2  0
 17 18  1  0
 18 19  2  0
 18 20  1  0
 20 21  1  0
 21 22  2  0
 21 23  1  0
 23 24  1  0
 24 25  1  0
 24 26  1  0
 24 27  1  0
 17 28  1  0
 28 29  1  0
 29 30  1  0
 29 31  1  0
 29 32  1  0
 32 33  2  0
 33 34  1  0
 33 35  1  0
 35 36  1  0
 35 37  2  0
 37 38  1  0
 37 39  1  0
 39 40  1  0
 40 41  1  0
 40 42  1  0
 40 43  1  0
 39 44  2  0
 44 45  1  0
 28 13  1  0
 44 32  1  0
 23 16  1  0
M  CHG  1  20  -1
M  END
>  <UniqueID>  (54) 
51

>  <SMILES>  (54) 
Cc1cccc(Cn2/c(=N/CCCO)[nH]c3c2c(=O)[n-]c(=O)n3C)c1

>  <Energy>  (54) 
85.663683017287

>  <Genealogy>  (54) 
Cc1cccc(Cn2c(=NCCCO)[nH]c3c2c(=O)[n-]c(=O)n3C)c1 (protonated)
Cc1cccc(Cn2/c(=N/CCCO)[nH]c3c2c(=O)[n-]c(=O)n3C)c1 (cis-trans isomerization)
Cc1cccc(Cn2/c(=N/CCCO)[nH]c3c2c(=O)[n-]c(=O)n3C)c1 (3D coordinates assigned)
Cc1cccc(Cn2/c(=N/CCCO)[nH]c3c2c(=O)[n-]c(=O)n3C)c1 (optimized conformer: 85.663683017287 kcal/mol)

>  <smiles>  (54) 
Cc1cccc(Cn2c(=NCCCO)[nH]c3c2c(=O)[nH]c(=O)n3C)c1

>  <score_type>  (54) 
oracle

>  <origin>  (54) 
adg

>  <m_score__min__energy>  (54) 
-8.9600000000000009

>  <m_primary>  (54) 
energy

$$$$
54:0
     RDKit          3D

 36 38  0  0  0  0  0  0  0  0999 V2000
   60.0830   27.6850   49.0610 C   0  0  0  0  0  0  0  0  0  0  0  0
   60.1580   29.1480   49.3870 C   0  0  0  0  0  0  0  0  0  0  0  0
   58.9850   29.8860   49.5890 C   0  0  0  0  0  0  0  0  0  0  0  0
   59.0530   31.2560   49.8560 C   0  0  0  0  0  0  0  0  0  0  0  0
   60.2970   31.9060   49.9300 C   0  0  0  0  0  0  0  0  0  0  0  0
   60.3840   33.3180   50.1710 N   0  0  0  0  0  0  0  0  0  0  0  0
   60.6850   34.3310   49.2010 C   0  0  0  0  0  0  0  0  0  0  0  0
   61.7980   34.9170   49.2650 O   0  0  0  0  0  0  0  0  0  0  0  0
   59.6980   34.7280   48.1400 C   0  0  0  0  0  0  0  0  0  0  0  0
   60.3990   34.4770   46.4690 S   0  0  0  0  0  0  0  0  0  0  0  0
   59.6270   32.8770   46.2040 C   0  0  0  0  0  0  0  0  0  0  0  0
   60.4010   31.3900   46.4340 S   0  0  0  0  0  0  0  0  0  0  0  0
   59.0720   30.4660   45.9750 C   0  0  0  0  0  0  0  0  0  0  0  0
   58.9380   29.0820   45.9090 C   0  0  0  0  0  0  0  0  0  0  0  0
   59.8930   28.3200   46.2150 O   0  0  0  0  0  0  0  0  0  0  0  0
   57.7060   28.5590   45.4880 C   0  0  0  0  0  0  0  0  0  0  0  0
   56.6520   29.4370   45.1490 C   0  0  0  0  0  0  0  0  0  0  0  0
   55.4220   28.9370   44.7300 O   0  0  0  0  0  0  0  0  0  0  0  0
   56.8300   30.7890   45.2300 N   0  0  0  0  0  0  0  0  0  0  0  0
   58.0220   31.3020   45.6380 C   0  0  0  0  0  0  0  0  0  0  0  0
   58.3220   32.6620   45.7580 C   0  0  0  0  0  0  0  0  0  0  0  0
   57.3880   33.7190   45.4630 C   0  0  0  0  0  0  0  0  0  0  0  0
   56.6380   34.5670   45.2250 N   0  0  0  0  0  0  0  0  0  0  0  0
   61.4690   31.1740   49.6810 C   0  0  0  0  0  0  0  0  0  0  0  0
   63.1860   32.0240   49.7140 Br  0  0  0  0  0  0  0  0  0  0  0  0
   61.3980   29.8020   49.4140 C   0  0  0  0  0  0  0  0  0  0  0  0
   60.0531   27.1026   49.9937 H   0  0  0  0  0  0  0  0  0  0  0  0
   59.1735   27.4860   48.4752 H   0  0  0  0  0  0  0  0  0  0  0  0
   60.9674   27.3941   48.4752 H   0  0  0  0  0  0  0  0  0  0  0  0
   58.0068   29.3855   49.5373 H   0  0  0  0  0  0  0  0  0  0  0  0
   58.1269   31.8294   50.0093 H   0  0  0  0  0  0  0  0  0  0  0  0
   58.7903   34.1157   48.2454 H   0  0  0  0  0  0  0  0  0  0  0  0
   59.4588   35.7945   48.2641 H   0  0  0  0  0  0  0  0  0  0  0  0
   57.5613   27.4706   45.4221 H   0  0  0  0  0  0  0  0  0  0  0  0
   55.1440   27.9830   44.9310 H   0  0  0  0  0  0  0  0  0  0  0  0
   62.3203   29.2334   49.2242 H   0  0  0  0  0  0  0  0  0  0  0  0
  1  2  1  0
  2  3  2  0
  3  4  1  0
  4  5  2  0
  5  6  1  0
  6  7  1  0
  7  8  2  0
  7  9  1  0
  9 10  1  0
 10 11  1  0
 11 12  1  0
 12 13  1  0
 13 14  1  0
 14 15  2  0
 14 16  1  0
 16 17  2  0
 17 18  1  0
 17 19  1  0
 19 20  1  0
 20 21  1  0
 21 22  1  0
 22 23  3  0
  5 24  1  0
 24 25  1  0
 24 26  2  0
 26  2  1  0
 21 11  2  0
 20 13  2  0
  1 27  1  0
  1 28  1  0
  1 29  1  0
  3 30  1  0
  4 31  1  0
  9 32  1  0
  9 33  1  0
 16 34  1  0
 18 35  1  0
 26 36  1  0
M  CHG  2   6  -1  19  -1
M  END
>  <UniqueID>  (55) 
52

>  <SMILES>  (55) 
Cc1ccc([N-]C(=O)CSc2sc3c(=O)cc(O)[n-]c3c2C#N)c(Br)c1

>  <Energy>  (55) 
72.3445214570373

>  <Genealogy>  (55) 
Cc1ccc([N-]C(=O)CSc2sc3c(=O)cc(O)[n-]c3c2C#N)c(Br)c1 (protonated)
Cc1ccc([N-]C(=O)CSc2sc3c(=O)cc(O)[n-]c3c2C#N)c(Br)c1 (3D coordinates assigned)
Cc1ccc([N-]C(=O)CSc2sc3c(=O)cc(O)[n-]c3c2C#N)c(Br)c1 (optimized conformer: 72.3445214570373 kcal/mol)

>  <smiles>  (55) 
Cc1ccc(NC(=O)CSc2sc3c(=O)cc(O)[nH]c3c2C#N)c(Br)c1

>  <score_type>  (55) 
oracle

>  <origin>  (55) 
adg

>  <m_score__min__energy>  (55) 
-12.23

>  <m_primary>  (55) 
energy

$$$$
55:0
     RDKit          3D

 45 47  0  0  0  0  0  0  0  0999 V2000
   56.0400   29.9320   43.3990 C   0  0  0  0  0  0  0  0  0  0  0  0
   56.0820   29.7380   44.8080 O   0  0  0  0  0  0  0  0  0  0  0  0
   57.2810   29.6920   45.5280 C   0  0  0  0  0  0  0  0  0  0  0  0
   57.7710   30.7550   46.0010 O   0  0  0  0  0  0  0  0  0  0  0  0
   57.9450   28.3850   45.7570 C   0  0  0  0  0  0  0  0  0  0  0  0
   57.9220   27.4310   44.7230 C   0  0  0  0  0  0  0  0  0  0  0  0
   58.5040   26.1720   44.8990 C   0  0  0  0  0  0  0  0  0  0  0  0
   59.1210   25.8490   46.1050 C   0  0  0  0  0  0  0  0  0  0  0  0
   59.1620   26.7820   47.1410 C   0  0  0  0  0  0  0  0  0  0  0  0
   58.5760   28.0540   46.9860 C   0  0  0  0  0  0  0  0  0  0  0  0
   58.7080   29.0230   48.0400 N   0  0  0  0  0  0  0  0  0  0  0  0
   59.6140   28.8520   49.1410 C   0  0  0  0  0  0  0  0  0  0  0  0
   60.1050   27.7170   49.3930 O   0  0  0  0  0  0  0  0  0  0  0  0
   59.9780   30.0160   50.0120 C   0  0  0  0  0  0  0  0  0  0  0  0
   60.8720   30.9230   49.2880 N   0  0  0  0  0  0  0  0  0  0  0  0
   62.2240   30.8450   49.2850 C   0  0  0  0  0  0  0  0  0  0  0  0
   62.7690   31.7870   48.4230 C   0  0  0  0  0  0  0  0  0  0  0  0
   61.6820   32.4500   47.8820 C   0  0  0  0  0  0  0  0  0  0  0  0
   60.5540   31.9060   48.4140 C   0  0  0  0  0  0  0  0  0  0  0  0
   59.3040   32.3750   48.0090 C   0  0  0  0  0  0  0  0  0  0  0  0
   58.2490   31.8780   48.4850 O   0  0  0  0  0  0  0  0  0  0  0  0
   59.2520   33.3880   47.0800 N   0  0  0  0  0  0  0  0  0  0  0  0
   57.9490   33.8900   46.6070 C   0  0  0  0  0  0  0  0  0  0  0  0
   60.4160   33.8970   46.5340 C   0  0  0  0  0  0  0  0  0  0  0  0
   60.3460   34.7820   45.6340 O   0  0  0  0  0  0  0  0  0  0  0  0
   61.6500   33.4470   46.9540 N   0  0  0  0  0  0  0  0  0  0  0  0
   62.9000   33.9690   46.3860 C   0  0  0  0  0  0  0  0  0  0  0  0
   55.8119   30.9857   43.1806 H   0  0  0  0  0  0  0  0  0  0  0  0
   57.0156   29.6702   42.9636 H   0  0  0  0  0  0  0  0  0  0  0  0
   55.2600   29.2901   42.9636 H   0  0  0  0  0  0  0  0  0  0  0  0
   57.4407   27.6785   43.7654 H   0  0  0  0  0  0  0  0  0  0  0  0
   58.4745   25.4349   44.0830 H   0  0  0  0  0  0  0  0  0  0  0  0
   59.5765   24.8570   46.2407 H   0  0  0  0  0  0  0  0  0  0  0  0
   59.6567   26.5222   48.0885 H   0  0  0  0  0  0  0  0  0  0  0  0
   58.1270   29.8910   47.9990 H   0  0  0  0  0  0  0  0  0  0  0  0
   59.0639   30.5569   50.2980 H   0  0  0  0  0  0  0  0  0  0  0  0
   60.4902   29.6468   50.9128 H   0  0  0  0  0  0  0  0  0  0  0  0
   62.8103   30.1325   49.8838 H   0  0  0  0  0  0  0  0  0  0  0  0
   63.8341   31.9671   48.2153 H   0  0  0  0  0  0  0  0  0  0  0  0
   57.3145   34.1345   47.4716 H   0  0  0  0  0  0  0  0  0  0  0  0
   58.1031   34.7931   45.9982 H   0  0  0  0  0  0  0  0  0  0  0  0
   57.4573   33.1169   45.9982 H   0  0  0  0  0  0  0  0  0  0  0  0
   63.5821   34.2538   47.2006 H   0  0  0  0  0  0  0  0  0  0  0  0
   63.3731   33.1933   45.7660 H   0  0  0  0  0  0  0  0  0  0  0  0
   62.6809   34.8508   45.7660 H   0  0  0  0  0  0  0  0  0  0  0  0
  1  2  1  0
  2  3  1  0
  3  4  2  0
  3  5  1  0
  5  6  2  0
  6  7  1  0
  7  8  2  0
  8  9  1  0
  9 10  2  0
 10 11  1  0
 11 12  1  0
 12 13  2  0
 12 14  1  0
 14 15  1  0
 15 16  1  0
 16 17  2  0
 17 18  1  0
 18 19  2  0
 19 20  1  0
 20 21  2  0
 20 22  1  0
 22 23  1  0
 22 24  1  0
 24 25  2  0
 24 26  1  0
 26 27  1  0
 10  5  1  0
 19 15  1  0
 26 18  1  0
  1 28  1  0
  1 29  1  0
  1 30  1  0
  6 31  1  0
  7 32  1  0
  8 33  1  0
  9 34  1  0
 11 35  1  0
 14 36  1  0
 14 37  1  0
 16 38  1  0
 17 39  1  0
 23 40  1  0
 23 41  1  0
 23 42  1  0
 27 43  1  0
 27 44  1  0
 27 45  1  0
M  END
>  <UniqueID>  (56) 
53

>  <SMILES>  (56) 
COC(=O)c1ccccc1NC(=O)Cn1ccc2c1c(=O)n(C)c(=O)n2C

>  <Energy>  (56) 
93.26644484556095

>  <Genealogy>  (56) 
COC(=O)c1ccccc1NC(=O)Cn1ccc2c1c(=O)n(C)c(=O)n2C (3D coordinates assigned)
COC(=O)c1ccccc1NC(=O)Cn1ccc2c1c(=O)n(C)c(=O)n2C (optimized conformer: 93.26644484556095 kcal/mol)

>  <smiles>  (56) 
COC(=O)c1ccccc1NC(=O)Cn1ccc2c1c(=O)n(C)c(=O)n2C

>  <score_type>  (56) 
oracle

>  <origin>  (56) 
adg

>  <m_score__min__energy>  (56) 
-7.1900000000000004

>  <m_primary>  (56) 
energy

$$$$
56:0
     RDKit          3D

 40 42  0  0  0  0  0  0  0  0999 V2000
   55.1430   29.5140   44.8650 O   0  0  0  0  0  0  0  0  0  0  0  0
   56.3260   29.2990   45.2350 C   0  0  0  0  0  0  0  0  0  0  0  0
   57.2150   30.3640   45.2820 O   0  0  0  0  0  0  0  0  0  0  0  0
   56.7550   27.9150   45.5330 C   0  0  0  0  0  0  0  0  0  0  0  0
   55.7760   27.0160   45.8240 N   0  0  0  0  0  0  0  0  0  0  0  0
   56.0520   25.7190   46.1040 C   0  0  0  0  0  0  0  0  0  0  0  0
   55.1170   24.9190   46.3600 O   0  0  0  0  0  0  0  0  0  0  0  0
   57.3350   25.2860   46.1080 N   0  0  0  0  0  0  0  0  0  0  0  0
   58.3630   26.1310   45.8430 C   0  0  0  0  0  0  0  0  0  0  0  0
   59.5400   25.6820   45.8770 O   0  0  0  0  0  0  0  0  0  0  0  0
   58.1110   27.4890   45.5440 C   0  0  0  0  0  0  0  0  0  0  0  0
   59.2760   28.4480   45.3500 C   0  0  0  0  0  0  0  0  0  0  0  0
   59.6410   29.1500   46.6350 C   0  0  0  0  0  0  0  0  0  0  0  0
   59.0560   28.7540   47.8490 C   0  0  0  0  0  0  0  0  0  0  0  0
   59.4060   29.3910   49.0410 C   0  0  0  0  0  0  0  0  0  0  0  0
   60.3510   30.4190   49.0380 C   0  0  0  0  0  0  0  0  0  0  0  0
   60.9700   30.8120   47.8360 C   0  0  0  0  0  0  0  0  0  0  0  0
   61.9620   31.8550   47.7970 N   0  0  0  0  0  0  0  0  0  0  0  0
   61.6200   33.5030   47.3790 S   0  0  0  0  0  0  0  0  0  0  0  0
   62.6360   33.9760   46.3770 O   0  0  0  0  0  0  0  0  0  0  0  0
   61.7150   34.3580   48.6110 O   0  0  0  0  0  0  0  0  0  0  0  0
   59.9910   33.6330   46.7240 C   0  0  0  0  0  0  0  0  0  0  0  0
   58.8910   33.2320   47.4960 C   0  0  0  0  0  0  0  0  0  0  0  0
   57.5970   33.3180   46.9760 C   0  0  0  0  0  0  0  0  0  0  0  0
   57.3950   33.8090   45.6830 C   0  0  0  0  0  0  0  0  0  0  0  0
   58.4870   34.2170   44.9110 C   0  0  0  0  0  0  0  0  0  0  0  0
   59.7820   34.1300   45.4290 C   0  0  0  0  0  0  0  0  0  0  0  0
   60.6090   30.1690   46.6410 C   0  0  0  0  0  0  0  0  0  0  0  0
   60.1486   27.8813   44.9931 H   0  0  0  0  0  0  0  0  0  0  0  0
   58.9742   29.2103   44.6166 H   0  0  0  0  0  0  0  0  0  0  0  0
   58.3185   27.9380   47.8606 H   0  0  0  0  0  0  0  0  0  0  0  0
   58.9356   29.0819   49.9861 H   0  0  0  0  0  0  0  0  0  0  0  0
   60.6131   30.9242   49.9793 H   0  0  0  0  0  0  0  0  0  0  0  0
   62.9350   31.6390   48.1090 H   0  0  0  0  0  0  0  0  0  0  0  0
   59.0476   32.8482   48.5149 H   0  0  0  0  0  0  0  0  0  0  0  0
   56.7375   32.9994   47.5840 H   0  0  0  0  0  0  0  0  0  0  0  0
   56.3765   33.8744   45.2726 H   0  0  0  0  0  0  0  0  0  0  0  0
   58.3266   34.6068   43.8950 H   0  0  0  0  0  0  0  0  0  0  0  0
   60.6394   34.4520   44.8198 H   0  0  0  0  0  0  0  0  0  0  0  0
   61.0899   30.4666   45.6975 H   0  0  0  0  0  0  0  0  0  0  0  0
  1  2  2  0
  2  3  1  0
  2  4  1  0
  4  5  1  0
  5  6  1  0
  6  7  2  0
  6  8  1  0
  8  9  1  0
  9 10  2  0
  9 11  1  0
 11 12  1  0
 12 13  1  0
 13 14  2  0
 14 15  1  0
 15 16  2  0
 16 17  1  0
 17 18  1  0
 18 19  1  0
 19 20  2  0
 19 21  2  0
 19 22  1  0
 22 23  2  0
 23 24  1  0
 24 25  2  0
 25 26  1  0
 26 27  2  0
 17 28  2  0
 11  4  2  0
 28 13  1  0
 27 22  1  0
 12 29  1  0
 12 30  1  0
 14 31  1  0
 15 32  1  0
 16 33  1  0
 18 34  1  0
 23 35  1  0
 24 36  1  0
 25 37  1  0
 26 38  1  0
 27 39  1  0
 28 40  1  0
M  CHG  3   3  -1   5  -1   8  -1
M  END
>  <UniqueID>  (57) 
54

>  <SMILES>  (57) 
O=C([O-])c1[n-]c(=O)[n-]c(=O)c1Cc1cccc(NS(=O)(=O)c2ccccc2)c1

>  <Energy>  (57) 
52.87447669773741

>  <Genealogy>  (57) 
O=C([O-])c1[n-]c(=O)[n-]c(=O)c1Cc1cccc(NS(=O)(=O)c2ccccc2)c1 (protonated)
O=C([O-])c1[n-]c(=O)[n-]c(=O)c1Cc1cccc(NS(=O)(=O)c2ccccc2)c1 (3D coordinates assigned)
O=C([O-])c1[n-]c(=O)[n-]c(=O)c1Cc1cccc(NS(=O)(=O)c2ccccc2)c1 (optimized conformer: 52.87447669773741 kcal/mol)

>  <smiles>  (57) 
O=C(O)c1[nH]c(=O)[nH]c(=O)c1Cc1cccc(NS(=O)(=O)c2ccccc2)c1

>  <score_type>  (57) 
oracle

>  <origin>  (57) 
adg

>  <m_score__min__energy>  (57) 
-15.800000000000001

>  <m_primary>  (57) 
energy

$$$$
57:0
     RDKit          3D

 34 35  0  0  0  0  0  0  0  0999 V2000
   54.6750   28.9530   42.9310 H   0  0  0  0  0  0  0  0  0  0  0  0
   54.7700   29.3430   43.8610 O   0  0  0  0  0  0  0  0  0  0  0  0
   56.0050   29.7630   44.3510 C   0  0  0  0  0  0  0  0  0  0  0  0
   56.4350   31.0700   44.1050 C   0  0  0  0  0  0  0  0  0  0  0  0
   55.8019   31.7558   43.5228 H   0  0  0  0  0  0  0  0  0  0  0  0
   57.6670   31.5070   44.5970 C   0  0  0  0  0  0  0  0  0  0  0  0
   58.0840   32.8110   44.3610 O   0  0  0  0  0  0  0  0  0  0  0  0
   58.4800   30.6360   45.3310 C   0  0  0  0  0  0  0  0  0  0  0  0
   59.4466   30.9875   45.7210 H   0  0  0  0  0  0  0  0  0  0  0  0
   58.0660   29.3100   45.5730 C   0  0  0  0  0  0  0  0  0  0  0  0
   58.8840   28.3480   46.3530 C   0  0  0  0  0  0  0  0  0  0  0  0
   59.7088   28.7457   46.9626 H   0  0  0  0  0  0  0  0  0  0  0  0
   58.6780   27.0250   46.3590 C   0  0  0  0  0  0  0  0  0  0  0  0
   59.4085   26.3634   45.8706 H   0  0  0  0  0  0  0  0  0  0  0  0
   57.4700   26.4270   47.0190 C   0  0  0  0  0  0  0  0  0  0  0  0
   56.7238   27.2170   47.1896 H   0  0  0  0  0  0  0  0  0  0  0  0
   57.7761   25.9775   47.9752 H   0  0  0  0  0  0  0  0  0  0  0  0
   56.8640   25.3530   46.1510 C   0  0  0  0  0  0  0  0  0  0  0  0
   57.6070   24.2010   45.8390 C   0  0  0  0  0  0  0  0  0  0  0  0
   58.6380   24.1009   46.2092 H   0  0  0  0  0  0  0  0  0  0  0  0
   57.0440   23.1740   45.0570 C   0  0  0  0  0  0  0  0  0  0  0  0
   57.7550   22.0100   44.7250 O   0  0  0  0  0  0  0  0  0  0  0  0
   57.3400   20.6890   45.0590 C   0  0  0  0  0  0  0  0  0  0  0  0
   57.3061   20.5810   46.1532 H   0  0  0  0  0  0  0  0  0  0  0  0
   56.3399   20.5021   44.6409 H   0  0  0  0  0  0  0  0  0  0  0  0
   58.0536   19.9637   44.6409 H   0  0  0  0  0  0  0  0  0  0  0  0
   55.7290   23.3090   44.5940 C   0  0  0  0  0  0  0  0  0  0  0  0
   55.1570   22.3060   43.8190 O   0  0  0  0  0  0  0  0  0  0  0  0
   54.9820   24.4480   44.9080 C   0  0  0  0  0  0  0  0  0  0  0  0
   53.9498   24.5442   44.5401 H   0  0  0  0  0  0  0  0  0  0  0  0
   55.5400   25.4650   45.6870 C   0  0  0  0  0  0  0  0  0  0  0  0
   54.7720   26.5820   45.9980 O   0  0  0  0  0  0  0  0  0  0  0  0
   56.8160   28.8890   45.0880 C   0  0  0  0  0  0  0  0  0  0  0  0
   56.4708   27.8640   45.2886 H   0  0  0  0  0  0  0  0  0  0  0  0
  1  2  1  0
  2  3  1  0
  3  4  2  0
  4  5  1  0
  4  6  1  0
  6  7  1  0
  6  8  2  0
  8  9  1  0
  8 10  1  0
 10 11  1  0
 11 12  1  0
 11 13  2  0
 13 14  1  0
 13 15  1  0
 15 16  1  0
 15 17  1  0
 15 18  1  0
 18 19  2  0
 19 20  1  0
 19 21  1  0
 21 22  1  0
 22 23  1  0
 23 24  1  0
 23 25  1  0
 23 26  1  0
 21 27  2  0
 27 28  1  0
 27 29  1  0
 29 30  1  0
 29 31  2  0
 31 32  1  0
 10 33  2  0
 33 34  1  0
 33  3  1  0
 31 18  1  0
M  CHG  3   7  -1  28  -1  32  -1
M  END
>  <UniqueID>  (58) 
55

>  <SMILES>  (58) 
COc1cc(C/C=C/c2cc([O-])cc(O)c2)c([O-])cc1[O-]

>  <Energy>  (58) 
34.190022739378215

>  <Genealogy>  (58) 
COc1cc(CC=Cc2cc([O-])cc(O)c2)c([O-])cc1[O-] (protonated)
COc1cc(C/C=C/c2cc([O-])cc(O)c2)c([O-])cc1[O-] (cis-trans isomerization)
COc1cc(C/C=C/c2cc([O-])cc(O)c2)c([O-])cc1[O-] (3D coordinates assigned)
COc1cc(C/C=C/c2cc([O-])cc(O)c2)c([O-])cc1[O-] (optimized conformer: 34.190022739378215 kcal/mol)

>  <smiles>  (58) 
COc1cc(CC=Cc2cc(O)cc(O)c2)c(O)cc1O

>  <score_type>  (58) 
oracle

>  <origin>  (58) 
adg

>  <m_score__min__energy>  (58) 
-14.56

>  <m_primary>  (58) 
energy

$$$$
58:0
     RDKit          3D

 64 67  0  0  0  0  0  0  0  0999 V2000
   66.5920   32.8070   50.1330 C   0  0  0  0  0  0  0  0  0  0  0  0
   65.3430   31.9990   50.3740 C   0  0  0  0  0  0  0  0  0  0  0  0
   65.3780   30.9650   51.3210 C   0  0  0  0  0  0  0  0  0  0  0  0
   64.2420   30.2020   51.5800 C   0  0  0  0  0  0  0  0  0  0  0  0
   63.0630   30.4450   50.8830 C   0  0  0  0  0  0  0  0  0  0  0  0
   63.0100   31.4290   49.8850 C   0  0  0  0  0  0  0  0  0  0  0  0
   61.7670   31.6530   49.1820 N   0  0  0  0  0  0  0  0  0  0  0  0
   61.6300   31.0490   47.8690 C   0  0  0  0  0  0  0  0  0  0  0  0
   62.4380   31.3610   46.9530 O   0  0  0  0  0  0  0  0  0  0  0  0
   60.6070   30.0370   47.5560 C   0  0  0  0  0  0  0  0  0  0  0  0
   60.2750   28.6490   48.4170 S   0  0  0  0  0  0  0  0  0  0  0  0
   58.9280   28.1070   47.6140 N   0  0  0  0  0  0  0  0  0  0  0  0
   58.6750   29.0360   46.6530 C   0  0  0  0  0  0  0  0  0  0  0  0
   57.4830   28.8970   45.7900 C   0  0  0  0  0  0  0  0  0  0  0  0
   56.8700   27.6200   45.6080 N   0  0  0  0  0  0  0  0  0  0  0  0
   56.9620   29.9090   45.2480 O   0  0  0  0  0  0  0  0  0  0  0  0
   59.5940   30.1250   46.6010 C   0  0  0  0  0  0  0  0  0  0  0  0
   59.5420   31.1820   45.6370 N   0  0  0  0  0  0  0  0  0  0  0  0
   60.6970   32.4850   49.7920 C   0  0  1  0  0  0  0  0  0  0  0  0
   60.1320   33.5070   48.8300 C   0  0  0  0  0  0  0  0  0  0  0  0
   59.7820   34.6370   49.2670 O   0  0  0  0  0  0  0  0  0  0  0  0
   59.9320   33.1880   47.4480 N   0  0  0  0  0  0  0  0  0  0  0  0
   60.3440   34.0530   46.3480 C   0  0  0  0  0  0  0  0  0  0  0  0
   59.1450   34.3830   45.4470 C   0  0  2  0  0  0  0  0  0  0  0  0
   57.8370   34.4580   46.2400 C   0  0  0  0  0  0  0  0  0  0  0  0
   57.0690   33.2600   45.7660 C   0  0  0  0  0  0  0  0  0  0  0  0
   57.6780   32.9980   44.4110 C   0  0  0  0  0  0  0  0  0  0  0  0
   59.0280   33.3870   44.4530 O   0  0  0  0  0  0  0  0  0  0  0  0
   59.6210   31.6230   50.4360 C   0  0  0  0  0  0  0  0  0  0  0  0
   58.3130   32.1290   50.5450 C   0  0  0  0  0  0  0  0  0  0  0  0
   57.3070   31.3760   51.1570 C   0  0  0  0  0  0  0  0  0  0  0  0
   57.5950   30.1130   51.6790 C   0  0  0  0  0  0  0  0  0  0  0  0
   56.5920   29.3650   52.2820 O   0  0  0  0  0  0  0  0  0  0  0  0
   58.8940   29.6050   51.5970 C   0  0  0  0  0  0  0  0  0  0  0  0
   59.9030   30.3540   50.9880 C   0  0  0  0  0  0  0  0  0  0  0  0
   64.1520   32.2380   49.6390 C   0  0  0  0  0  0  0  0  0  0  0  0
   64.1010   33.3720   48.6390 C   0  0  0  0  0  0  0  0  0  0  0  0
   67.0352   33.0937   51.0981 H   0  0  0  0  0  0  0  0  0  0  0  0
   67.3141   32.2044   49.5625 H   0  0  0  0  0  0  0  0  0  0  0  0
   66.3384   33.7127   49.5625 H   0  0  0  0  0  0  0  0  0  0  0  0
   66.3112   30.7548   51.8641 H   0  0  0  0  0  0  0  0  0  0  0  0
   64.2772   29.4053   52.3376 H   0  0  0  0  0  0  0  0  0  0  0  0
   62.1621   29.8588   51.1172 H   0  0  0  0  0  0  0  0  0  0  0  0
   57.2920   26.7560   46.0180 H   0  0  0  0  0  0  0  0  0  0  0  0
   56.0100   27.5270   45.0240 H   0  0  0  0  0  0  0  0  0  0  0  0
   60.2100   31.9810   45.6570 H   0  0  0  0  0  0  0  0  0  0  0  0
   58.7710   31.2200   44.9330 H   0  0  0  0  0  0  0  0  0  0  0  0
   61.1641   33.0688   50.5989 H   0  0  0  0  0  0  0  0  0  0  0  0
   60.7577   34.9867   46.7568 H   0  0  0  0  0  0  0  0  0  0  0  0
   61.1059   33.5311   45.7504 H   0  0  0  0  0  0  0  0  0  0  0  0
   59.3218   35.3694   44.9935 H   0  0  0  0  0  0  0  0  0  0  0  0
   58.0292   34.3988   47.3215 H   0  0  0  0  0  0  0  0  0  0  0  0
   57.2955   35.4026   46.0836 H   0  0  0  0  0  0  0  0  0  0  0  0
   57.2140   32.4026   46.4397 H   0  0  0  0  0  0  0  0  0  0  0  0
   55.9812   33.4203   45.7346 H   0  0  0  0  0  0  0  0  0  0  0  0
   57.6066   31.9267   44.1716 H   0  0  0  0  0  0  0  0  0  0  0  0
   57.1425   33.5679   43.6374 H   0  0  0  0  0  0  0  0  0  0  0  0
   58.0797   33.1267   50.1448 H   0  0  0  0  0  0  0  0  0  0  0  0
   56.2860   31.7791   51.2277 H   0  0  0  0  0  0  0  0  0  0  0  0
   59.1224   28.6127   52.0132 H   0  0  0  0  0  0  0  0  0  0  0  0
   60.9258   29.9523   50.9378 H   0  0  0  0  0  0  0  0  0  0  0  0
   64.0578   34.3317   49.1748 H   0  0  0  0  0  0  0  0  0  0  0  0
   65.0013   33.3448   48.0075 H   0  0  0  0  0  0  0  0  0  0  0  0
   63.2068   33.2641   48.0075 H   0  0  0  0  0  0  0  0  0  0  0  0
  1  2  1  0
  2  3  2  0
  3  4  1  0
  4  5  2  0
  5  6  1  0
  6  7  1  0
  7  8  1  0
  8  9  2  0
  8 10  1  0
 10 11  1  0
 11 12  1  0
 12 13  2  0
 13 14  1  0
 14 15  1  0
 14 16  2  0
 13 17  1  0
 17 18  1  0
  7 19  1  0
 19 20  1  0
 20 21  2  0
 20 22  1  0
 22 23  1  0
 23 24  1  0
 24 25  1  0
 25 26  1  0
 26 27  1  0
 27 28  1  0
 19 29  1  0
 29 30  2  0
 30 31  1  0
 31 32  2  0
 32 33  1  0
 32 34  1  0
 34 35  2  0
  6 36  2  0
 36 37  1  0
 36  2  1  0
 17 10  2  0
 28 24  1  0
 35 29  1  0
  1 38  1  0
  1 39  1  0
  1 40  1  0
  3 41  1  0
  4 42  1  0
  5 43  1  0
 15 44  1  0
 15 45  1  0
 18 46  1  0
 18 47  1  0
 19 48  1  1
 23 49  1  0
 23 50  1  0
 24 51  1  6
 25 52  1  0
 25 53  1  0
 26 54  1  0
 26 55  1  0
 27 56  1  0
 27 57  1  0
 30 58  1  0
 31 59  1  0
 34 60  1  0
 35 61  1  0
 37 62  1  0
 37 63  1  0
 37 64  1  0
M  CHG  2  22  -1  33  -1
M  END
>  <UniqueID>  (59) 
56

>  <SMILES>  (59) 
Cc1cccc(N(C(=O)c2snc(C(N)=O)c2N)[C@@H](C(=O)[N-]C[C@@H]2CCCO2)c2ccc([O-])cc2)c1C

>  <Energy>  (59) 
115.1865541615582

>  <Genealogy>  (59) 
Cc1cccc(N(C(=O)c2snc(C(N)=O)c2N)C(C(=O)[N-]CC2CCCO2)c2ccc([O-])cc2)c1C (protonated)
Cc1cccc(N(C(=O)c2snc(C(N)=O)c2N)[C@@H](C(=O)[N-]C[C@@H]2CCCO2)c2ccc([O-])cc2)c1C (chirality)
Cc1cccc(N(C(=O)c2snc(C(N)=O)c2N)[C@@H](C(=O)[N-]C[C@@H]2CCCO2)c2ccc([O-])cc2)c1C (3D coordinates assigned)
Cc1cccc(N(C(=O)c2snc(C(N)=O)c2N)[C@@H](C(=O)[N-]C[C@@H]2CCCO2)c2ccc([O-])cc2)c1C (nonaromatic ring conformer: 115.1865541615582 kcal/mol)

>  <smiles>  (59) 
Cc1cccc(N(C(=O)c2snc(C(N)=O)c2N)C(C(=O)NCC2CCCO2)c2ccc(O)cc2)c1C

>  <score_type>  (59) 
oracle

>  <origin>  (59) 
adg

>  <m_score__min__energy>  (59) 
-10.34

>  <m_primary>  (59) 
energy

$$$$
59:0
     RDKit          3D

 58 61  0  0  0  0  0  0  0  0999 V2000
   64.9780   31.2670   50.6310 C   0  0  0  0  0  0  0  0  0  0  0  0
   64.8810   32.5040   49.7890 C   0  0  0  0  0  0  0  0  0  0  0  0
   65.9470   33.0230   49.3610 O   0  0  0  0  0  0  0  0  0  0  0  0
   63.5710   33.1270   49.4550 C   0  0  0  0  0  0  0  0  0  0  0  0
   63.1750   33.2530   48.1110 C   0  0  0  0  0  0  0  0  0  0  0  0
   61.9480   33.8360   47.7820 C   0  0  0  0  0  0  0  0  0  0  0  0
   61.0900   34.3030   48.7870 C   0  0  0  0  0  0  0  0  0  0  0  0
   59.7590   34.9160   48.4280 C   0  0  0  0  0  0  0  0  0  0  0  0
   59.2390   34.3840   47.1080 C   0  0  0  0  0  0  0  0  0  0  0  0
   59.7110   34.9590   45.9140 C   0  0  0  0  0  0  0  0  0  0  0  0
   59.2490   34.5090   44.6790 C   0  0  0  0  0  0  0  0  0  0  0  0
   58.3480   33.4510   44.6130 C   0  0  0  0  0  0  0  0  0  0  0  0
   57.9080   32.8130   45.7760 C   0  0  0  0  0  0  0  0  0  0  0  0
   57.0650   31.6980   45.6180 O   0  0  0  0  0  0  0  0  0  0  0  0
   57.3720   30.5240   44.9130 C   0  0  0  0  0  0  0  0  0  0  0  0
   56.6480   30.2660   43.7510 C   0  0  0  0  0  0  0  0  0  0  0  0
   56.8350   29.0850   43.0380 C   0  0  0  0  0  0  0  0  0  0  0  0
   57.7680   28.1300   43.4640 C   0  0  0  0  0  0  0  0  0  0  0  0
   57.9110   26.8550   42.6730 C   0  0  0  0  0  0  0  0  0  0  0  0
   58.5640   28.3980   44.6090 C   0  0  0  0  0  0  0  0  0  0  0  0
   59.5470   27.4850   45.0510 C   0  0  0  0  0  0  0  0  0  0  0  0
   60.3530   27.7850   46.1490 C   0  0  0  0  0  0  0  0  0  0  0  0
   60.2090   28.9990   46.8140 C   0  0  0  0  0  0  0  0  0  0  0  0
   59.2430   29.9150   46.4010 C   0  0  0  0  0  0  0  0  0  0  0  0
   58.3850   29.6190   45.3220 C   0  0  0  0  0  0  0  0  0  0  0  0
   58.3240   33.3030   47.0410 C   0  0  0  0  0  0  0  0  0  0  0  0
   57.8180   32.7170   48.2450 N   0  0  0  0  0  0  0  0  0  0  0  0
   58.8040   31.6760   49.2190 S   0  0  0  0  0  0  0  0  0  0  0  0
   58.9060   32.2800   50.8900 C   0  0  0  0  0  0  0  0  0  0  0  0
   58.2070   30.2990   49.2350 O   0  0  0  0  0  0  0  0  0  0  0  0
   60.1860   31.6090   48.6330 O   0  0  0  0  0  0  0  0  0  0  0  0
   61.4770   34.1780   50.1290 C   0  0  0  0  0  0  0  0  0  0  0  0
   62.7050   33.5980   50.4610 C   0  0  0  0  0  0  0  0  0  0  0  0
   64.9562   31.5451   51.6950 H   0  0  0  0  0  0  0  0  0  0  0  0
   64.1291   30.6040   50.4078 H   0  0  0  0  0  0  0  0  0  0  0  0
   65.9199   30.7445   50.4078 H   0  0  0  0  0  0  0  0  0  0  0  0
   63.8372   32.8893   47.3115 H   0  0  0  0  0  0  0  0  0  0  0  0
   61.6535   33.9290   46.7262 H   0  0  0  0  0  0  0  0  0  0  0  0
   59.0322   34.6803   49.2193 H   0  0  0  0  0  0  0  0  0  0  0  0
   59.8952   36.0033   48.3316 H   0  0  0  0  0  0  0  0  0  0  0  0
   60.4516   35.7713   45.9558 H   0  0  0  0  0  0  0  0  0  0  0  0
   59.5975   34.9914   43.7539 H   0  0  0  0  0  0  0  0  0  0  0  0
   57.9776   33.1127   43.6340 H   0  0  0  0  0  0  0  0  0  0  0  0
   55.9180   31.0062   43.3917 H   0  0  0  0  0  0  0  0  0  0  0  0
   56.2434   28.8992   42.1294 H   0  0  0  0  0  0  0  0  0  0  0  0
   58.0064   26.0040   43.3634 H   0  0  0  0  0  0  0  0  0  0  0  0
   57.0229   26.7152   42.0392 H   0  0  0  0  0  0  0  0  0  0  0  0
   58.8080   26.9154   42.0392 H   0  0  0  0  0  0  0  0  0  0  0  0
   59.6781   26.5283   44.5242 H   0  0  0  0  0  0  0  0  0  0  0  0
   61.1055   27.0591   46.4907 H   0  0  0  0  0  0  0  0  0  0  0  0
   60.8598   29.2365   47.6685 H   0  0  0  0  0  0  0  0  0  0  0  0
   59.1490   30.8790   46.9224 H   0  0  0  0  0  0  0  0  0  0  0  0
   56.7850   32.6910   48.3950 H   0  0  0  0  0  0  0  0  0  0  0  0
   58.7649   31.4443   51.5912 H   0  0  0  0  0  0  0  0  0  0  0  0
   59.8937   32.7350   51.0558 H   0  0  0  0  0  0  0  0  0  0  0  0
   58.1225   33.0341   51.0558 H   0  0  0  0  0  0  0  0  0  0  0  0
   60.8099   34.5387   50.9258 H   0  0  0  0  0  0  0  0  0  0  0  0
   62.9976   33.5087   51.5176 H   0  0  0  0  0  0  0  0  0  0  0  0
  1  2  1  0
  2  3  2  0
  2  4  1  0
  4  5  2  0
  5  6  1  0
  6  7  2  0
  7  8  1  0
  8  9  1  0
  9 10  2  0
 10 11  1  0
 11 12  2  0
 12 13  1  0
 13 14  1  0
 14 15  1  0
 15 16  2  0
 16 17  1  0
 17 18  2  0
 18 19  1  0
 18 20  1  0
 20 21  2  0
 21 22  1  0
 22 23  2  0
 23 24  1  0
 24 25  2  0
 13 26  2  0
 26 27  1  0
 27 28  1  0
 28 29  1  0
 28 30  2  0
 28 31  2  0
  7 32  1  0
 32 33  2  0
 33  4  1  0
 26  9  1  0
 25 15  1  0
 25 20  1  0
  1 34  1  0
  1 35  1  0
  1 36  1  0
  5 37  1  0
  6 38  1  0
  8 39  1  0
  8 40  1  0
 10 41  1  0
 11 42  1  0
 12 43  1  0
 16 44  1  0
 17 45  1  0
 19 46  1  0
 19 47  1  0
 19 48  1  0
 21 49  1  0
 22 50  1  0
 23 51  1  0
 24 52  1  0
 27 53  1  0
 29 54  1  0
 29 55  1  0
 29 56  1  0
 32 57  1  0
 33 58  1  0
M  END
>  <UniqueID>  (60) 
57

>  <SMILES>  (60) 
CC(=O)c1ccc(Cc2cccc(Oc3ccc(C)c4ccccc34)c2NS(C)(=O)=O)cc1

>  <Energy>  (60) 
80.5844729146591

>  <Genealogy>  (60) 
CC(=O)c1ccc(Cc2cccc(Oc3ccc(C)c4ccccc34)c2NS(C)(=O)=O)cc1 (3D coordinates assigned)
CC(=O)c1ccc(Cc2cccc(Oc3ccc(C)c4ccccc34)c2NS(C)(=O)=O)cc1 (optimized conformer: 80.5844729146591 kcal/mol)

>  <smiles>  (60) 
CC(=O)c1ccc(Cc2cccc(Oc3ccc(C)c4ccccc34)c2NS(C)(=O)=O)cc1

>  <score_type>  (60) 
oracle

>  <origin>  (60) 
adg

>  <m_score__min__energy>  (60) 
-10

>  <m_primary>  (60) 
energy

$$$$
60:0
     RDKit          3D

 50 52  0  0  0  0  0  0  0  0999 V2000
   60.0190   28.7560   49.4150 C   0  0  0  0  0  0  0  0  0  0  0  0
   59.5960   28.3890   48.0230 C   0  0  0  0  0  0  0  0  0  0  0  0
   58.3890   27.7220   47.8160 C   0  0  0  0  0  0  0  0  0  0  0  0
   57.9520   27.4040   46.5230 C   0  0  0  0  0  0  0  0  0  0  0  0
   56.6390   26.6740   46.3840 C   0  0  0  0  0  0  0  0  0  0  0  0
   58.7220   27.8050   45.3930 C   0  0  0  0  0  0  0  0  0  0  0  0
   58.1410   27.3920   43.7460 S   0  0  0  0  0  0  0  0  0  0  0  0
   59.3090   27.3710   42.8030 O   0  0  0  0  0  0  0  0  0  0  0  0
   57.4660   26.0530   43.6650 O   0  0  0  0  0  0  0  0  0  0  0  0
   57.0170   28.6040   43.2310 N   0  0  0  0  0  0  0  0  0  0  0  0
   56.8220   29.8090   43.9730 C   0  0  0  0  0  0  0  0  0  0  0  0
   56.0230   29.8270   44.9480 O   0  0  0  0  0  0  0  0  0  0  0  0
   57.5370   30.9940   43.6040 N   0  0  0  0  0  0  0  0  0  0  0  0
   57.8080   32.0550   44.5360 C   0  0  0  0  0  0  0  0  0  0  0  0
   57.7230   33.3900   44.1190 C   0  0  0  0  0  0  0  0  0  0  0  0
   57.9780   34.4270   45.0220 C   0  0  0  0  0  0  0  0  0  0  0  0
   58.3180   34.1380   46.3470 C   0  0  0  0  0  0  0  0  0  0  0  0
   58.4100   32.8110   46.7790 C   0  0  0  0  0  0  0  0  0  0  0  0
   58.7570   32.5500   48.1130 O   0  0  0  0  0  0  0  0  0  0  0  0
   60.0700   32.5200   48.6140 C   0  0  0  0  0  0  0  0  0  0  0  0
   60.3510   32.2400   49.9630 C   0  0  0  0  0  0  0  0  0  0  0  0
   61.6380   32.2070   50.4040 N   0  0  0  0  0  0  0  0  0  0  0  0
   62.6810   32.4690   49.5710 C   0  0  0  0  0  0  0  0  0  0  0  0
   62.4460   32.7780   48.2290 C   0  0  0  0  0  0  0  0  0  0  0  0
   63.7860   33.1220   47.1520 Cl  0  0  0  0  0  0  0  0  0  0  0  0
   61.1320   32.8140   47.7550 C   0  0  0  0  0  0  0  0  0  0  0  0
   58.1940   31.7730   45.8580 C   0  0  0  0  0  0  0  0  0  0  0  0
   59.9510   28.4940   45.6120 C   0  0  0  0  0  0  0  0  0  0  0  0
   60.8430   28.9530   44.4870 C   0  0  0  0  0  0  0  0  0  0  0  0
   60.3650   28.7780   46.9260 C   0  0  0  0  0  0  0  0  0  0  0  0
   59.3956   28.2152   50.1422 H   0  0  0  0  0  0  0  0  0  0  0  0
   61.0743   28.4826   49.5616 H   0  0  0  0  0  0  0  0  0  0  0  0
   59.8972   29.8394   49.5616 H   0  0  0  0  0  0  0  0  0  0  0  0
   57.7703   27.4411   48.6811 H   0  0  0  0  0  0  0  0  0  0  0  0
   56.2364   26.4502   47.3829 H   0  0  0  0  0  0  0  0  0  0  0  0
   55.9252   27.3048   45.8339 H   0  0  0  0  0  0  0  0  0  0  0  0
   56.7981   25.7348   45.8339 H   0  0  0  0  0  0  0  0  0  0  0  0
   57.8440   31.0990   42.6100 H   0  0  0  0  0  0  0  0  0  0  0  0
   57.4548   33.6231   43.0780 H   0  0  0  0  0  0  0  0  0  0  0  0
   57.9109   35.4732   44.6888 H   0  0  0  0  0  0  0  0  0  0  0  0
   58.5141   34.9583   47.0531 H   0  0  0  0  0  0  0  0  0  0  0  0
   59.5266   32.0467   50.6652 H   0  0  0  0  0  0  0  0  0  0  0  0
   61.8320   31.9700   51.4030 H   0  0  0  0  0  0  0  0  0  0  0  0
   63.7114   32.4375   49.9548 H   0  0  0  0  0  0  0  0  0  0  0  0
   60.9336   33.0740   46.7048 H   0  0  0  0  0  0  0  0  0  0  0  0
   58.3283   30.7281   46.1745 H   0  0  0  0  0  0  0  0  0  0  0  0
   61.7483   29.4188   44.9036 H   0  0  0  0  0  0  0  0  0  0  0  0
   61.1268   28.0890   43.8682 H   0  0  0  0  0  0  0  0  0  0  0  0
   60.3049   29.6862   43.8682 H   0  0  0  0  0  0  0  0  0  0  0  0
   61.3104   29.3155   47.0912 H   0  0  0  0  0  0  0  0  0  0  0  0
  1  2  1  0
  2  3  2  0
  3  4  1  0
  4  5  1  0
  4  6  2  0
  6  7  1  0
  7  8  2  0
  7  9  2  0
  7 10  1  0
 10 11  1  0
 11 12  2  0
 11 13  1  0
 13 14  1  0
 14 15  2  0
 15 16  1  0
 16 17  2  0
 17 18  1  0
 18 19  1  0
 19 20  1  0
 20 21  2  0
 21 22  1  0
 22 23  2  0
 23 24  1  0
 24 25  1  0
 24 26  2  0
 18 27  2  0
  6 28  1  0
 28 29  1  0
 28 30  2  0
 30  2  1  0
 27 14  1  0
 26 20  1  0
  1 31  1  0
  1 32  1  0
  1 33  1  0
  3 34  1  0
  5 35  1  0
  5 36  1  0
  5 37  1  0
 13 38  1  0
 15 39  1  0
 16 40  1  0
 17 41  1  0
 21 42  1  0
 22 43  1  0
 23 44  1  0
 26 45  1  0
 27 46  1  0
 29 47  1  0
 29 48  1  0
 29 49  1  0
 30 50  1  0
M  CHG  2  10  -1  22   1
M  END
>  <UniqueID>  (61) 
58

>  <SMILES>  (61) 
Cc1cc(C)c(S(=O)(=O)[N-]C(=O)Nc2cccc(Oc3c[nH+]cc(Cl)c3)c2)c(C)c1

>  <Energy>  (61) 
64.91580980871299

>  <Genealogy>  (61) 
Cc1cc(C)c(S(=O)(=O)[N-]C(=O)Nc2cccc(Oc3c[nH+]cc(Cl)c3)c2)c(C)c1 (protonated)
Cc1cc(C)c(S(=O)(=O)[N-]C(=O)Nc2cccc(Oc3c[nH+]cc(Cl)c3)c2)c(C)c1 (3D coordinates assigned)
Cc1cc(C)c(S(=O)(=O)[N-]C(=O)Nc2cccc(Oc3c[nH+]cc(Cl)c3)c2)c(C)c1 (optimized conformer: 64.91580980871299 kcal/mol)

>  <smiles>  (61) 
Cc1cc(C)c(S(=O)(=O)NC(=O)Nc2cccc(Oc3cncc(Cl)c3)c2)c(C)c1

>  <score_type>  (61) 
oracle

>  <origin>  (61) 
adg

>  <m_score__min__energy>  (61) 
-9.4900000000000002

>  <m_primary>  (61) 
energy

$$$$
61:0
     RDKit          3D

 44 46  0  0  0  0  0  0  0  0999 V2000
   55.9010   30.0700   44.5480 O   0  0  0  0  0  0  0  0  0  0  0  0
   57.1510   29.9150   44.5530 C   0  0  0  0  0  0  0  0  0  0  0  0
   57.7260   28.5550   44.2900 C   0  0  0  0  0  0  0  0  0  0  0  0
   59.2360   28.5270   44.5430 C   0  0  0  0  0  0  0  0  0  0  0  0
   59.5470   28.9230   45.9220 N   0  0  0  0  0  0  0  0  0  0  0  0
   60.4160   29.9210   46.1070 N   0  0  0  0  0  0  0  0  0  0  0  0
   60.7990   30.3460   47.3420 C   0  0  0  0  0  0  0  0  0  0  0  0
   61.7640   31.4720   47.4600 C   0  0  0  0  0  0  0  0  0  0  0  0
   61.6190   32.6520   46.7010 C   0  0  0  0  0  0  0  0  0  0  0  0
   62.5430   33.6940   46.8270 C   0  0  0  0  0  0  0  0  0  0  0  0
   63.6130   33.5800   47.7150 C   0  0  0  0  0  0  0  0  0  0  0  0
   63.7560   32.4270   48.4900 C   0  0  0  0  0  0  0  0  0  0  0  0
   62.8390   31.3790   48.3660 C   0  0  0  0  0  0  0  0  0  0  0  0
   60.2470   29.7160   48.4650 C   0  0  0  0  0  0  0  0  0  0  0  0
   59.3510   28.6680   48.2880 C   0  0  0  0  0  0  0  0  0  0  0  0
   59.0050   28.2700   46.9990 C   0  0  0  0  0  0  0  0  0  0  0  0
   58.2000   27.3120   46.8420 O   0  0  0  0  0  0  0  0  0  0  0  0
   58.0210   31.0380   44.7540 N   0  0  0  0  0  0  0  0  0  0  0  0
   57.5200   32.4020   44.9070 C   0  0  0  0  0  0  0  0  0  0  0  0
   58.1730   33.0750   46.0860 C   0  0  0  0  0  0  0  0  0  0  0  0
   58.2170   32.4260   47.3320 C   0  0  0  0  0  0  0  0  0  0  0  0
   58.8120   33.0520   48.4330 C   0  0  0  0  0  0  0  0  0  0  0  0
   59.3670   34.3280   48.2970 C   0  0  0  0  0  0  0  0  0  0  0  0
   59.9450   34.9330   49.3650 F   0  0  0  0  0  0  0  0  0  0  0  0
   59.3310   34.9780   47.0590 C   0  0  0  0  0  0  0  0  0  0  0  0
   58.7370   34.3540   45.9560 C   0  0  0  0  0  0  0  0  0  0  0  0
   57.2385   27.8260   44.9541 H   0  0  0  0  0  0  0  0  0  0  0  0
   57.5477   28.3025   43.2343 H   0  0  0  0  0  0  0  0  0  0  0  0
   59.6109   27.5077   44.3684 H   0  0  0  0  0  0  0  0  0  0  0  0
   59.7190   29.2386   43.8572 H   0  0  0  0  0  0  0  0  0  0  0  0
   60.7731   32.7533   46.0051 H   0  0  0  0  0  0  0  0  0  0  0  0
   62.4258   34.6065   46.2240 H   0  0  0  0  0  0  0  0  0  0  0  0
   64.3434   34.3976   47.8047 H   0  0  0  0  0  0  0  0  0  0  0  0
   64.5922   32.3432   49.1997 H   0  0  0  0  0  0  0  0  0  0  0  0
   62.9577   30.4746   48.9807 H   0  0  0  0  0  0  0  0  0  0  0  0
   60.5201   30.0476   49.4776 H   0  0  0  0  0  0  0  0  0  0  0  0
   58.9181   28.1564   49.1603 H   0  0  0  0  0  0  0  0  0  0  0  0
   59.0540   30.8900   44.7290 H   0  0  0  0  0  0  0  0  0  0  0  0
   57.7432   32.9741   43.9944 H   0  0  0  0  0  0  0  0  0  0  0  0
   56.4336   32.3651   45.0754 H   0  0  0  0  0  0  0  0  0  0  0  0
   57.7819   31.4217   47.4421 H   0  0  0  0  0  0  0  0  0  0  0  0
   58.8431   32.5399   49.4060 H   0  0  0  0  0  0  0  0  0  0  0  0
   59.7701   35.9809   46.9522 H   0  0  0  0  0  0  0  0  0  0  0  0
   58.7120   34.8676   44.9836 H   0  0  0  0  0  0  0  0  0  0  0  0
  1  2  2  0
  2  3  1  0
  3  4  1  0
  4  5  1  0
  5  6  1  0
  6  7  2  0
  7  8  1  0
  8  9  2  0
  9 10  1  0
 10 11  2  0
 11 12  1  0
 12 13  2  0
  7 14  1  0
 14 15  2  0
 15 16  1  0
 16 17  2  0
  2 18  1  0
 18 19  1  0
 19 20  1  0
 20 21  2  0
 21 22  1  0
 22 23  2  0
 23 24  1  0
 23 25  1  0
 25 26  2  0
 16  5  1  0
 26 20  1  0
 13  8  1  0
  3 27  1  0
  3 28  1  0
  4 29  1  0
  4 30  1  0
  9 31  1  0
 10 32  1  0
 11 33  1  0
 12 34  1  0
 13 35  1  0
 14 36  1  0
 15 37  1  0
 18 38  1  0
 19 39  1  0
 19 40  1  0
 21 41  1  0
 22 42  1  0
 25 43  1  0
 26 44  1  0
M  END
>  <UniqueID>  (62) 
59

>  <SMILES>  (62) 
O=C(CCn1nc(-c2ccccc2)ccc1=O)NCc1ccc(F)cc1

>  <Energy>  (62) 
45.13768476340796

>  <Genealogy>  (62) 
O=C(CCn1nc(-c2ccccc2)ccc1=O)NCc1ccc(F)cc1 (3D coordinates assigned)
O=C(CCn1nc(-c2ccccc2)ccc1=O)NCc1ccc(F)cc1 (optimized conformer: 45.13768476340796 kcal/mol)

>  <smiles>  (62) 
O=C(CCn1nc(-c2ccccc2)ccc1=O)NCc1ccc(F)cc1

>  <score_type>  (62) 
oracle

>  <origin>  (62) 
adg

>  <m_score__min__energy>  (62) 
-8.5299999999999994

>  <m_primary>  (62) 
energy

$$$$
62:0
     RDKit          3D

 44 46  0  0  0  0  0  0  0  0999 V2000
   54.0530   25.1260   45.6170 C   0  0  0  0  0  0  0  0  0  0  0  0
   54.7830   26.3280   45.9880 N   0  0  0  0  0  0  0  0  0  0  0  0
   56.1990   26.1610   46.2090 C   0  0  0  0  0  0  0  0  0  0  0  0
   56.5820   25.5810   47.2500 O   0  0  0  0  0  0  0  0  0  0  0  0
   57.0260   26.6650   45.2290 O   0  0  0  0  0  0  0  0  0  0  0  0
   58.4950   26.8600   45.7110 C   0  0  0  0  0  0  0  0  0  0  0  0
   58.9850   25.6670   45.9450 C   0  0  0  0  0  0  0  0  0  0  0  0
   60.3220   25.6750   46.4010 C   0  0  0  0  0  0  0  0  0  0  0  0
   60.7560   26.9860   46.4770 C   0  0  0  0  0  0  0  0  0  0  0  0
   60.1490   28.0950   46.2090 C   0  0  0  0  0  0  0  0  0  0  0  0
   58.5440   28.1520   45.6580 C   0  0  0  0  0  0  0  0  0  0  0  0
   58.5980   29.5200   45.6010 C   0  0  0  0  0  0  0  0  0  0  0  0
   57.2930   29.9920   45.7150 O   0  0  0  0  0  0  0  0  0  0  0  0
   59.3980   30.6270   45.4700 N   0  0  0  0  0  0  0  0  0  0  0  0
   58.7250   31.9100   45.4470 C   0  0  0  0  0  0  0  0  0  0  0  0
   57.9960   32.3720   44.4070 C   0  0  0  0  0  0  0  0  0  0  0  0
   57.3940   33.6260   44.5240 C   0  0  0  0  0  0  0  0  0  0  0  0
   57.5100   34.4070   45.6480 C   0  0  0  0  0  0  0  0  0  0  0  0
   58.2680   33.8890   46.6880 C   0  0  0  0  0  0  0  0  0  0  0  0
   58.8740   32.6540   46.5990 C   0  0  0  0  0  0  0  0  0  0  0  0
   59.8150   32.0920   48.0080 S   0  0  0  0  0  0  0  0  0  0  0  0
   61.5520   32.5660   47.8560 C   0  0  0  0  0  0  0  0  0  0  0  0
   62.4680   31.9900   48.7450 C   0  0  0  0  0  0  0  0  0  0  0  0
   63.8080   32.3590   48.6400 C   0  0  0  0  0  0  0  0  0  0  0  0
   64.1470   33.2720   47.6640 C   0  0  0  0  0  0  0  0  0  0  0  0
   63.2520   33.8330   46.7970 C   0  0  0  0  0  0  0  0  0  0  0  0
   61.9210   33.4700   46.8940 C   0  0  0  0  0  0  0  0  0  0  0  0
   53.7316   24.5969   46.5263 H   0  0  0  0  0  0  0  0  0  0  0  0
   53.1700   25.4022   45.0221 H   0  0  0  0  0  0  0  0  0  0  0  0
   54.7053   24.4698   45.0221 H   0  0  0  0  0  0  0  0  0  0  0  0
   58.4070   24.7425   45.7994 H   0  0  0  0  0  0  0  0  0  0  0  0
   60.9188   24.7862   46.6537 H   0  0  0  0  0  0  0  0  0  0  0  0
   61.7930   27.1048   46.8242 H   0  0  0  0  0  0  0  0  0  0  0  0
   60.6945   29.0407   46.3434 H   0  0  0  0  0  0  0  0  0  0  0  0
   60.4190   30.5320   45.4160 H   0  0  0  0  0  0  0  0  0  0  0  0
   57.8799   31.7745   43.4908 H   0  0  0  0  0  0  0  0  0  0  0  0
   56.8007   34.0054   43.6790 H   0  0  0  0  0  0  0  0  0  0  0  0
   57.0267   35.3925   45.7198 H   0  0  0  0  0  0  0  0  0  0  0  0
   58.3887   34.4795   47.6082 H   0  0  0  0  0  0  0  0  0  0  0  0
   62.1390   31.2663   49.5052 H   0  0  0  0  0  0  0  0  0  0  0  0
   64.5689   31.9364   49.3126 H   0  0  0  0  0  0  0  0  0  0  0  0
   65.2032   33.5671   47.5779 H   0  0  0  0  0  0  0  0  0  0  0  0
   63.5830   34.5576   46.0384 H   0  0  0  0  0  0  0  0  0  0  0  0
   61.1723   33.8989   46.2117 H   0  0  0  0  0  0  0  0  0  0  0  0
  1  2  1  0
  2  3  1  0
  3  4  2  0
  3  5  1  0
  5  6  1  0
  6  7  2  0
  7  8  1  0
  8  9  2  0
  9 10  1  0
 10 11  2  0
 11 12  1  0
 12 13  2  0
 12 14  1  0
 14 15  1  0
 15 16  2  0
 16 17  1  0
 17 18  2  0
 18 19  1  0
 19 20  2  0
 20 21  1  0
 21 22  1  0
 22 23  2  0
 23 24  1  0
 24 25  2  0
 25 26  1  0
 26 27  2  0
 11  6  1  0
 20 15  1  0
 27 22  1  0
  1 28  1  0
  1 29  1  0
  1 30  1  0
  7 31  1  0
  8 32  1  0
  9 33  1  0
 10 34  1  0
 14 35  1  0
 16 36  1  0
 17 37  1  0
 18 38  1  0
 19 39  1  0
 23 40  1  0
 24 41  1  0
 25 42  1  0
 26 43  1  0
 27 44  1  0
M  CHG  1   2  -1
M  END
>  <UniqueID>  (63) 
60

>  <SMILES>  (63) 
C[N-]C(=O)Oc1ccccc1C(=O)Nc1ccccc1Sc1ccccc1

>  <Energy>  (63) 
469.8178748980307

>  <Genealogy>  (63) 
C[N-]C(=O)Oc1ccccc1C(=O)Nc1ccccc1Sc1ccccc1 (protonated)
C[N-]C(=O)Oc1ccccc1C(=O)Nc1ccccc1Sc1ccccc1 (3D coordinates assigned)
C[N-]C(=O)Oc1ccccc1C(=O)Nc1ccccc1Sc1ccccc1 (optimized conformer: 469.8178748980307 kcal/mol)

>  <smiles>  (63) 
CNC(=O)Oc1ccccc1C(=O)Nc1ccccc1Sc1ccccc1

>  <score_type>  (63) 
oracle

>  <origin>  (63) 
adg

>  <m_score__min__energy>  (63) 
-11.16

>  <m_primary>  (63) 
energy

$$$$
63:0
     RDKit          3D

 56 59  0  0  0  0  0  0  0  0999 V2000
   59.2040   34.6750   52.7280 O   0  0  0  0  0  0  0  0  0  0  0  0
   59.2570   33.7910   51.8330 C   0  0  0  0  0  0  0  0  0  0  0  0
   60.1760   33.9510   50.7440 N   0  0  0  0  0  0  0  0  0  0  0  0
   61.6260   33.8510   50.8870 C   0  0  0  0  0  0  0  0  0  0  0  0
   62.2610   33.4760   49.5750 C   0  0  0  0  0  0  0  0  0  0  0  0
   61.9820   34.2100   48.4100 C   0  0  0  0  0  0  0  0  0  0  0  0
   62.5600   33.8410   47.1900 C   0  0  0  0  0  0  0  0  0  0  0  0
   63.4170   32.7380   47.1260 C   0  0  0  0  0  0  0  0  0  0  0  0
   63.6970   32.0020   48.2800 C   0  0  0  0  0  0  0  0  0  0  0  0
   63.1220   32.3690   49.5020 C   0  0  0  0  0  0  0  0  0  0  0  0
   58.3880   32.5810   51.9020 C   0  0  0  0  0  0  0  0  0  0  0  0
   57.2390   32.6140   52.7190 C   0  0  0  0  0  0  0  0  0  0  0  0
   56.3750   31.5190   52.7850 C   0  0  0  0  0  0  0  0  0  0  0  0
   56.6400   30.3720   52.0400 C   0  0  0  0  0  0  0  0  0  0  0  0
   57.7700   30.3150   51.2250 C   0  0  0  0  0  0  0  0  0  0  0  0
   58.6480   31.4070   51.1450 C   0  0  0  0  0  0  0  0  0  0  0  0
   59.7880   31.3010   50.2900 N   0  0  0  0  0  0  0  0  0  0  0  0
   60.0710   29.8560   49.3750 S   0  0  0  0  0  0  0  0  0  0  0  0
   61.5080   29.8310   48.9350 O   0  0  0  0  0  0  0  0  0  0  0  0
   59.8150   28.6390   50.2190 O   0  0  0  0  0  0  0  0  0  0  0  0
   59.0320   29.8580   47.9550 C   0  0  0  0  0  0  0  0  0  0  0  0
   58.5290   28.7210   47.3350 C   0  0  0  0  0  0  0  0  0  0  0  0
   57.9280   29.0450   46.1710 N   0  0  0  0  0  0  0  0  0  0  0  0
   58.0570   30.3800   46.0440 C   0  0  0  0  0  0  0  0  0  0  0  0
   58.7250   30.9180   47.1140 C   0  0  0  0  0  0  0  0  0  0  0  0
   59.0030   32.2830   47.1750 C   0  0  0  0  0  0  0  0  0  0  0  0
   59.5880   32.7740   48.1760 O   0  0  0  0  0  0  0  0  0  0  0  0
   58.6010   33.0940   46.0870 C   0  0  0  0  0  0  0  0  0  0  0  0
   58.8860   34.5530   46.0540 C   0  0  0  0  0  0  0  0  0  0  0  0
   58.9140   35.2210   47.1220 O   0  0  0  0  0  0  0  0  0  0  0  0
   59.1210   35.2100   44.8530 O   0  0  0  0  0  0  0  0  0  0  0  0
   57.9180   32.4870   44.9990 C   0  0  0  0  0  0  0  0  0  0  0  0
   57.6450   31.1410   44.9860 N   0  0  0  0  0  0  0  0  0  0  0  0
   56.9750   30.5440   43.8200 C   0  0  0  0  0  0  0  0  0  0  0  0
   55.5330   30.1530   44.1560 C   0  0  0  0  0  0  0  0  0  0  0  0
   55.5030   29.2120   45.1950 O   0  0  0  0  0  0  0  0  0  0  0  0
   62.0248   34.8213   51.2178 H   0  0  0  0  0  0  0  0  0  0  0  0
   61.8572   33.0727   51.6292 H   0  0  0  0  0  0  0  0  0  0  0  0
   61.3072   35.0774   48.4569 H   0  0  0  0  0  0  0  0  0  0  0  0
   62.3399   34.4193   46.2805 H   0  0  0  0  0  0  0  0  0  0  0  0
   63.8710   32.4496   46.1665 H   0  0  0  0  0  0  0  0  0  0  0  0
   64.3699   31.1334   48.2281 H   0  0  0  0  0  0  0  0  0  0  0  0
   63.3454   31.7880   50.4089 H   0  0  0  0  0  0  0  0  0  0  0  0
   57.0205   33.5142   53.3121 H   0  0  0  0  0  0  0  0  0  0  0  0
   55.4828   31.5622   53.4269 H   0  0  0  0  0  0  0  0  0  0  0  0
   55.9576   29.5110   52.0947 H   0  0  0  0  0  0  0  0  0  0  0  0
   57.9750   29.4064   50.6398 H   0  0  0  0  0  0  0  0  0  0  0  0
   60.3230   32.1620   50.0380 H   0  0  0  0  0  0  0  0  0  0  0  0
   58.6094   27.7001   47.7365 H   0  0  0  0  0  0  0  0  0  0  0  0
   57.4930   28.3730   45.5010 H   0  0  0  0  0  0  0  0  0  0  0  0
   57.6010   33.1086   44.1486 H   0  0  0  0  0  0  0  0  0  0  0  0
   56.9673   31.2737   42.9969 H   0  0  0  0  0  0  0  0  0  0  0  0
   57.5245   29.6374   43.5263 H   0  0  0  0  0  0  0  0  0  0  0  0
   54.9785   31.0510   44.4662 H   0  0  0  0  0  0  0  0  0  0  0  0
   55.0704   29.7078   43.2628 H   0  0  0  0  0  0  0  0  0  0  0  0
   55.5860   29.7190   46.0430 H   0  0  0  0  0  0  0  0  0  0  0  0
  1  2  2  0
  2  3  1  0
  3  4  1  0
  4  5  1  0
  5  6  2  0
  6  7  1  0
  7  8  2  0
  8  9  1  0
  9 10  2  0
  2 11  1  0
 11 12  2  0
 12 13  1  0
 13 14  2  0
 14 15  1  0
 15 16  2  0
 16 17  1  0
 17 18  1  0
 18 19  2  0
 18 20  2  0
 18 21  1  0
 21 22  2  0
 22 23  1  0
 23 24  1  0
 24 25  2  0
 25 26  1  0
 26 27  2  0
 26 28  1  0
 28 29  1  0
 29 30  2  0
 29 31  1  0
 28 32  2  0
 32 33  1  0
 33 34  1  0
 34 35  1  0
 35 36  1  0
 10  5  1  0
 16 11  1  0
 25 21  1  0
 33 24  1  0
  4 37  1  0
  4 38  1  0
  6 39  1  0
  7 40  1  0
  8 41  1  0
  9 42  1  0
 10 43  1  0
 12 44  1  0
 13 45  1  0
 14 46  1  0
 15 47  1  0
 17 48  1  0
 22 49  1  0
 23 50  1  0
 32 51  1  0
 34 52  1  0
 34 53  1  0
 35 54  1  0
 35 55  1  0
 36 56  1  0
M  CHG  2   3  -1  31  -1
M  END
>  <UniqueID>  (64) 
61

>  <SMILES>  (64) 
O=C([N-]Cc1ccccc1)c1ccccc1NS(=O)(=O)c1c[nH]c2c1c(=O)c(C(=O)[O-])cn2CCO

>  <Energy>  (64) 
100.83567193118557

>  <Genealogy>  (64) 
O=C([N-]Cc1ccccc1)c1ccccc1NS(=O)(=O)c1c[nH]c2c1c(=O)c(C(=O)[O-])cn2CCO (protonated)
O=C([N-]Cc1ccccc1)c1ccccc1NS(=O)(=O)c1c[nH]c2c1c(=O)c(C(=O)[O-])cn2CCO (3D coordinates assigned)
O=C([N-]Cc1ccccc1)c1ccccc1NS(=O)(=O)c1c[nH]c2c1c(=O)c(C(=O)[O-])cn2CCO (optimized conformer: 100.83567193118557 kcal/mol)

>  <smiles>  (64) 
O=C(NCc1ccccc1)c1ccccc1NS(=O)(=O)c1c[nH]c2c1c(=O)c(C(=O)O)cn2CCO

>  <score_type>  (64) 
oracle

>  <origin>  (64) 
adg

>  <m_score__min__energy>  (64) 
-12.99

>  <m_primary>  (64) 
energy

$$$$
64:0
     RDKit          3D

 67 71  0  0  0  0  0  0  0  0999 V2000
   55.6000   26.1180   45.6230 O   0  0  0  0  0  0  0  0  0  0  0  0
   56.3720   27.0810   45.8720 C   0  0  0  0  0  0  0  0  0  0  0  0
   57.4170   26.9240   46.7830 C   0  0  0  0  0  0  0  0  0  0  0  0
   58.2820   27.9990   47.0650 C   0  0  0  0  0  0  0  0  0  0  0  0
   59.4110   27.8080   48.0620 C   0  0  0  0  0  0  0  0  0  0  0  0
   60.6130   28.1690   47.4800 F   0  0  0  0  0  0  0  0  0  0  0  0
   59.4690   26.4830   48.4540 F   0  0  0  0  0  0  0  0  0  0  0  0
   59.2360   28.5830   49.1970 F   0  0  0  0  0  0  0  0  0  0  0  0
   58.0670   29.2360   46.3980 C   0  0  0  0  0  0  0  0  0  0  0  0
   58.8850   30.3680   46.6060 C   0  0  0  0  0  0  0  0  0  0  0  0
   58.6410   31.5700   45.9220 C   0  0  0  0  0  0  0  0  0  0  0  0
   59.4800   32.7190   46.1500 N   0  0  0  0  0  0  0  0  0  0  0  0
   58.9130   34.0640   46.2790 C   0  0  0  0  0  0  0  0  0  0  0  0
   59.2450   34.6340   47.6680 C   0  0  0  0  0  0  0  0  0  0  0  0
   60.5840   34.2260   48.1870 N   0  0  0  0  0  0  0  0  0  0  0  0
   60.5020   33.2540   49.3040 C   0  0  0  0  0  0  0  0  0  0  0  0
   59.6540   33.8070   50.4610 C   0  0  0  0  0  0  0  0  0  0  0  0
   58.7440   32.7610   51.0460 C   0  0  0  0  0  0  0  0  0  0  0  0
   58.8110   31.4370   50.5850 C   0  0  0  0  0  0  0  0  0  0  0  0
   57.8940   30.4860   51.0370 C   0  0  0  0  0  0  0  0  0  0  0  0
   56.8920   30.8460   51.9510 C   0  0  0  0  0  0  0  0  0  0  0  0
   55.8360   29.8550   52.3640 C   0  0  0  0  0  0  0  0  0  0  0  0
   54.6730   30.5680   52.9360 N   0  0  0  0  0  0  0  0  0  0  0  0
   54.1050   29.8600   54.1010 C   0  0  0  0  0  0  0  0  0  0  0  0
   53.3500   28.5770   53.6910 C   0  0  0  0  0  0  0  0  0  0  0  0
   52.6590   28.6900   52.3920 N   0  0  0  0  0  0  0  0  0  0  0  0
   52.3520   30.0800   52.0450 C   0  0  0  0  0  0  0  0  0  0  0  0
   53.6430   30.9130   51.9210 C   0  0  0  0  0  0  0  0  0  0  0  0
   56.8380   32.1650   52.4290 C   0  0  0  0  0  0  0  0  0  0  0  0
   57.7610   33.1150   51.9830 C   0  0  0  0  0  0  0  0  0  0  0  0
   61.4990   33.7660   47.1180 C   0  0  0  0  0  0  0  0  0  0  0  0
   60.9210   32.5510   46.3700 C   0  0  0  0  0  0  0  0  0  0  0  0
   57.5610   31.6470   45.0300 C   0  0  0  0  0  0  0  0  0  0  0  0
   56.7430   30.5390   44.8100 C   0  0  0  0  0  0  0  0  0  0  0  0
   56.9890   29.3390   45.4830 C   0  0  0  0  0  0  0  0  0  0  0  0
   56.1830   28.2710   45.2510 N   0  0  0  0  0  0  0  0  0  0  0  0
   57.5660   25.9558   47.2834 H   0  0  0  0  0  0  0  0  0  0  0  0
   59.7250   30.3075   47.3136 H   0  0  0  0  0  0  0  0  0  0  0  0
   59.3403   34.7171   45.5038 H   0  0  0  0  0  0  0  0  0  0  0  0
   57.8210   34.0128   46.1572 H   0  0  0  0  0  0  0  0  0  0  0  0
   59.2174   35.7320   47.6071 H   0  0  0  0  0  0  0  0  0  0  0  0
   58.4965   34.2298   48.3654 H   0  0  0  0  0  0  0  0  0  0  0  0
   60.0448   32.3233   48.9369 H   0  0  0  0  0  0  0  0  0  0  0  0
   61.5195   33.0654   49.6770 H   0  0  0  0  0  0  0  0  0  0  0  0
   60.3268   34.1734   51.2503 H   0  0  0  0  0  0  0  0  0  0  0  0
   59.0263   34.6181   50.0634 H   0  0  0  0  0  0  0  0  0  0  0  0
   59.5897   31.1472   49.8641 H   0  0  0  0  0  0  0  0  0  0  0  0
   57.9574   29.4493   50.6747 H   0  0  0  0  0  0  0  0  0  0  0  0
   55.5137   29.2778   51.4849 H   0  0  0  0  0  0  0  0  0  0  0  0
   56.2532   29.1758   53.1221 H   0  0  0  0  0  0  0  0  0  0  0  0
   54.9234   29.5869   54.7834 H   0  0  0  0  0  0  0  0  0  0  0  0
   53.3858   30.5343   54.5889 H   0  0  0  0  0  0  0  0  0  0  0  0
   54.0744   27.7515   53.6293 H   0  0  0  0  0  0  0  0  0  0  0  0
   52.5777   28.3985   54.4537 H   0  0  0  0  0  0  0  0  0  0  0  0
   53.2690   28.2860   51.6420 H   0  0  0  0  0  0  0  0  0  0  0  0
   51.8156   30.1016   51.0849 H   0  0  0  0  0  0  0  0  0  0  0  0
   51.7295   30.5124   52.8422 H   0  0  0  0  0  0  0  0  0  0  0  0
   54.0702   30.7459   50.9212 H   0  0  0  0  0  0  0  0  0  0  0  0
   53.3659   31.9645   52.0868 H   0  0  0  0  0  0  0  0  0  0  0  0
   56.0657   32.4520   53.1578 H   0  0  0  0  0  0  0  0  0  0  0  0
   57.7168   34.1445   52.3680 H   0  0  0  0  0  0  0  0  0  0  0  0
   61.6545   34.5865   46.4021 H   0  0  0  0  0  0  0  0  0  0  0  0
   62.4510   33.4673   47.5812 H   0  0  0  0  0  0  0  0  0  0  0  0
   61.4261   32.4509   45.3979 H   0  0  0  0  0  0  0  0  0  0  0  0
   61.0846   31.6490   46.9779 H   0  0  0  0  0  0  0  0  0  0  0  0
   57.3576   32.5890   44.4997 H   0  0  0  0  0  0  0  0  0  0  0  0
   55.9018   30.6098   44.1048 H   0  0  0  0  0  0  0  0  0  0  0  0
  1  2  2  0
  2  3  1  0
  3  4  2  0
  4  5  1  0
  5  6  1  0
  5  7  1  0
  5  8  1  0
  4  9  1  0
  9 10  2  0
 10 11  1  0
 11 12  1  0
 12 13  1  0
 13 14  1  0
 14 15  1  0
 15 16  1  0
 16 17  1  0
 17 18  1  0
 18 19  2  0
 19 20  1  0
 20 21  2  0
 21 22  1  0
 22 23  1  0
 23 24  1  0
 24 25  1  0
 25 26  1  0
 26 27  1  0
 27 28  1  0
 21 29  1  0
 29 30  2  0
 15 31  1  0
 31 32  1  0
 11 33  2  0
 33 34  1  0
 34 35  2  0
 35 36  1  0
 36  2  1  0
 35  9  1  0
 32 12  1  0
 30 18  1  0
 28 23  1  0
  3 37  1  0
 10 38  1  0
 13 39  1  0
 13 40  1  0
 14 41  1  0
 14 42  1  0
 16 43  1  0
 16 44  1  0
 17 45  1  0
 17 46  1  0
 19 47  1  0
 20 48  1  0
 22 49  1  0
 22 50  1  0
 24 51  1  0
 24 52  1  0
 25 53  1  0
 25 54  1  0
 26 55  1  0
 27 56  1  0
 27 57  1  0
 28 58  1  0
 28 59  1  0
 29 60  1  0
 30 61  1  0
 31 62  1  0
 31 63  1  0
 32 64  1  0
 32 65  1  0
 33 66  1  0
 34 67  1  0
M  CHG  1  36  -1
M  END
>  <UniqueID>  (65) 
62

>  <SMILES>  (65) 
O=c1cc(C(F)(F)F)c2cc(N3CCN(CCc4ccc(CN5CCNCC5)cc4)CC3)ccc2[n-]1

>  <Energy>  (65) 
98.96958613085934

>  <Genealogy>  (65) 
O=c1cc(C(F)(F)F)c2cc(N3CCN(CCc4ccc(CN5CCNCC5)cc4)CC3)ccc2[n-]1 (protonated)
O=c1cc(C(F)(F)F)c2cc(N3CCN(CCc4ccc(CN5CCNCC5)cc4)CC3)ccc2[n-]1 (3D coordinates assigned)
O=c1cc(C(F)(F)F)c2cc(N3CCN(CCc4ccc(CN5CCNCC5)cc4)CC3)ccc2[n-]1 (nonaromatic ring conformer: 98.96958613085934 kcal/mol)

>  <smiles>  (65) 
O=c1cc(C(F)(F)F)c2cc(N3CCN(CCc4ccc(CN5CCNCC5)cc4)CC3)ccc2[nH]1

>  <score_type>  (65) 
oracle

>  <origin>  (65) 
adg

>  <m_score__min__energy>  (65) 
-10.640000000000001

>  <m_primary>  (65) 
energy

$$$$
65:0
     RDKit          3D

 52 54  0  0  0  0  0  0  0  0999 V2000
   57.3800   33.7130   44.4860 C   0  0  0  0  0  0  0  0  0  0  0  0
   57.9520   32.9530   45.6530 C   0  0  0  0  0  0  0  0  0  0  0  0
   58.6660   33.6640   46.6320 C   0  0  0  0  0  0  0  0  0  0  0  0
   59.2700   32.9950   47.7080 C   0  0  0  0  0  0  0  0  0  0  0  0
   60.0660   33.7630   48.7290 C   0  0  0  0  0  0  0  0  0  0  0  0
   61.5380   33.5900   48.4780 C   0  0  0  0  0  0  0  0  0  0  0  0
   62.4250   33.4170   49.5500 C   0  0  0  0  0  0  0  0  0  0  0  0
   63.7850   33.2220   49.2950 C   0  0  0  0  0  0  0  0  0  0  0  0
   64.2430   33.1930   48.0140 N   0  0  0  0  0  0  0  0  0  0  0  0
   63.4010   33.3450   46.9560 C   0  0  0  0  0  0  0  0  0  0  0  0
   62.0350   33.5430   47.1680 C   0  0  0  0  0  0  0  0  0  0  0  0
   59.1730   31.6000   47.7920 C   0  0  0  0  0  0  0  0  0  0  0  0
   58.4420   30.8870   46.8410 C   0  0  0  0  0  0  0  0  0  0  0  0
   57.7970   31.5510   45.7910 C   0  0  0  0  0  0  0  0  0  0  0  0
   57.0580   30.7610   44.8480 N   0  0  0  0  0  0  0  0  0  0  0  0
   56.4020   29.5130   45.1110 C   0  0  0  0  0  0  0  0  0  0  0  0
   55.1440   29.4730   45.0470 O   0  0  0  0  0  0  0  0  0  0  0  0
   57.1570   28.2730   45.4020 C   0  0  0  0  0  0  0  0  0  0  0  0
   58.5570   28.2870   45.4700 C   0  0  0  0  0  0  0  0  0  0  0  0
   59.2430   27.1020   45.7400 C   0  0  0  0  0  0  0  0  0  0  0  0
   60.5020   27.1010   45.7950 O   0  0  0  0  0  0  0  0  0  0  0  0
   58.5340   25.9190   45.9500 C   0  0  0  0  0  0  0  0  0  0  0  0
   57.1270   25.9280   45.8900 C   0  0  0  0  0  0  0  0  0  0  0  0
   56.3190   24.6500   46.1150 C   0  0  0  0  0  0  0  0  0  0  0  0
   56.9210   23.4670   45.3250 C   0  0  0  0  0  0  0  0  0  0  0  0
   54.8650   24.8570   45.6400 C   0  0  0  0  0  0  0  0  0  0  0  0
   56.3300   24.2870   47.6140 C   0  0  0  0  0  0  0  0  0  0  0  0
   56.4920   27.1050   45.6170 N   0  0  0  0  0  0  0  0  0  0  0  0
   56.7573   34.5404   44.8570 H   0  0  0  0  0  0  0  0  0  0  0  0
   58.2000   34.1170   43.8742 H   0  0  0  0  0  0  0  0  0  0  0  0
   56.7648   33.0369   43.8742 H   0  0  0  0  0  0  0  0  0  0  0  0
   58.7527   34.7578   46.5544 H   0  0  0  0  0  0  0  0  0  0  0  0
   59.8091   34.8305   48.6618 H   0  0  0  0  0  0  0  0  0  0  0  0
   59.8260   33.3810   49.7322 H   0  0  0  0  0  0  0  0  0  0  0  0
   62.0528   33.4347   50.5849 H   0  0  0  0  0  0  0  0  0  0  0  0
   64.4870   33.0916   50.1318 H   0  0  0  0  0  0  0  0  0  0  0  0
   65.2620   33.0450   47.8390 H   0  0  0  0  0  0  0  0  0  0  0  0
   63.7976   33.3118   45.9305 H   0  0  0  0  0  0  0  0  0  0  0  0
   61.3534   33.6613   46.3127 H   0  0  0  0  0  0  0  0  0  0  0  0
   59.6752   31.0644   48.6111 H   0  0  0  0  0  0  0  0  0  0  0  0
   58.3719   29.7919   46.9172 H   0  0  0  0  0  0  0  0  0  0  0  0
   59.1105   29.2244   45.3118 H   0  0  0  0  0  0  0  0  0  0  0  0
   59.0718   24.9830   46.1616 H   0  0  0  0  0  0  0  0  0  0  0  0
   57.3045   22.7135   46.0287 H   0  0  0  0  0  0  0  0  0  0  0  0
   56.1432   23.0152   44.6919 H   0  0  0  0  0  0  0  0  0  0  0  0
   57.7441   23.8299   44.6919 H   0  0  0  0  0  0  0  0  0  0  0  0
   54.2037   24.9512   46.5139 H   0  0  0  0  0  0  0  0  0  0  0  0
   54.8042   25.7729   45.0338 H   0  0  0  0  0  0  0  0  0  0  0  0
   54.5510   23.9945   45.0338 H   0  0  0  0  0  0  0  0  0  0  0  0
   56.3021   25.2082   48.2145 H   0  0  0  0  0  0  0  0  0  0  0  0
   55.4502   23.6698   47.8483 H   0  0  0  0  0  0  0  0  0  0  0  0
   57.2456   23.7242   47.8483 H   0  0  0  0  0  0  0  0  0  0  0  0
  1  2  1  0
  2  3  2  0
  3  4  1  0
  4  5  1  0
  5  6  1  0
  6  7  2  0
  7  8  1  0
  8  9  2  0
  9 10  1  0
 10 11  2  0
  4 12  2  0
 12 13  1  0
 13 14  2  0
 14 15  1  0
 15 16  1  0
 16 17  2  0
 16 18  1  0
 18 19  2  0
 19 20  1  0
 20 21  2  0
 20 22  1  0
 22 23  2  0
 23 24  1  0
 24 25  1  0
 24 26  1  0
 24 27  1  0
 23 28  1  0
 14  2  1  0
 28 18  1  0
 11  6  1  0
  1 29  1  0
  1 30  1  0
  1 31  1  0
  3 32  1  0
  5 33  1  0
  5 34  1  0
  7 35  1  0
  8 36  1  0
  9 37  1  0
 10 38  1  0
 11 39  1  0
 12 40  1  0
 13 41  1  0
 19 42  1  0
 22 43  1  0
 25 44  1  0
 25 45  1  0
 25 46  1  0
 26 47  1  0
 26 48  1  0
 26 49  1  0
 27 50  1  0
 27 51  1  0
 27 52  1  0
M  CHG  3   9   1  15  -1  28  -1
M  END
>  <UniqueID>  (66) 
63

>  <SMILES>  (66) 
Cc1cc(Cc2cc[nH+]cc2)ccc1[N-]C(=O)c1cc(=O)cc(C(C)(C)C)[n-]1

>  <Energy>  (66) 
56.28951575318369

>  <Genealogy>  (66) 
Cc1cc(Cc2cc[nH+]cc2)ccc1[N-]C(=O)c1cc(=O)cc(C(C)(C)C)[n-]1 (protonated)
Cc1cc(Cc2cc[nH+]cc2)ccc1[N-]C(=O)c1cc(=O)cc(C(C)(C)C)[n-]1 (3D coordinates assigned)
Cc1cc(Cc2cc[nH+]cc2)ccc1[N-]C(=O)c1cc(=O)cc(C(C)(C)C)[n-]1 (optimized conformer: 56.28951575318369 kcal/mol)

>  <smiles>  (66) 
Cc1cc(Cc2ccncc2)ccc1NC(=O)c1cc(=O)cc(C(C)(C)C)[nH]1

>  <score_type>  (66) 
oracle

>  <origin>  (66) 
adg

>  <m_score__min__energy>  (66) 
-11.039999999999999

>  <m_primary>  (66) 
energy

$$$$
66:0
     RDKit          3D

 42 44  0  0  0  0  0  0  0  0999 V2000
   59.6310   35.2150   46.7070 C   0  0  0  0  0  0  0  0  0  0  0  0
   58.7100   34.1050   46.3090 C   0  0  0  0  0  0  0  0  0  0  0  0
   57.7660   34.1570   45.3040 C   0  0  0  0  0  0  0  0  0  0  0  0
   57.1620   32.9170   45.2920 C   0  0  0  0  0  0  0  0  0  0  0  0
   57.6960   32.1520   46.2170 O   0  0  0  0  0  0  0  0  0  0  0  0
   58.6270   32.8310   46.8500 C   0  0  0  0  0  0  0  0  0  0  0  0
   59.4410   32.2730   47.9490 C   0  0  0  0  0  0  0  0  0  0  0  0
   60.6890   32.4430   47.9530 O   0  0  0  0  0  0  0  0  0  0  0  0
   58.8540   31.4700   48.9820 N   0  0  0  0  0  0  0  0  0  0  0  0
   58.3620   31.9450   50.2430 C   0  0  0  0  0  0  0  0  0  0  0  0
   58.9690   33.0580   50.8320 C   0  0  0  0  0  0  0  0  0  0  0  0
   58.4990   33.5560   52.0490 C   0  0  0  0  0  0  0  0  0  0  0  0
   57.4120   32.9510   52.6830 C   0  0  0  0  0  0  0  0  0  0  0  0
   56.7740   31.8420   52.0990 C   0  0  0  0  0  0  0  0  0  0  0  0
   55.6070   31.2010   52.7520 C   0  0  0  0  0  0  0  0  0  0  0  0
   55.7590   30.6200   53.8620 O   0  0  0  0  0  0  0  0  0  0  0  0
   54.2990   31.2690   52.1620 N   0  0  0  0  0  0  0  0  0  0  0  0
   53.2080   30.4360   52.5900 C   0  0  0  0  0  0  0  0  0  0  0  0
   53.4860   29.2070   53.2170 C   0  0  0  0  0  0  0  0  0  0  0  0
   52.4520   28.3360   53.5620 C   0  0  0  0  0  0  0  0  0  0  0  0
   51.1310   28.6720   53.2760 C   0  0  0  0  0  0  0  0  0  0  0  0
   50.8360   29.8850   52.6520 C   0  0  0  0  0  0  0  0  0  0  0  0
   51.8620   30.7860   52.3090 C   0  0  0  0  0  0  0  0  0  0  0  0
   51.4940   32.0910   51.7050 C   0  0  0  0  0  0  0  0  0  0  0  0
   50.2650   32.7250   52.0570 N   0  0  0  0  0  0  0  0  0  0  0  0
   52.2740   32.6710   50.9020 O   0  0  0  0  0  0  0  0  0  0  0  0
   57.2440   31.3570   50.8640 C   0  0  0  0  0  0  0  0  0  0  0  0
   59.6805   35.2747   47.8043 H   0  0  0  0  0  0  0  0  0  0  0  0
   60.6360   35.0197   46.3047 H   0  0  0  0  0  0  0  0  0  0  0  0
   59.2536   36.1667   46.3047 H   0  0  0  0  0  0  0  0  0  0  0  0
   57.5415   35.0109   44.6479 H   0  0  0  0  0  0  0  0  0  0  0  0
   56.3540   32.6139   44.6099 H   0  0  0  0  0  0  0  0  0  0  0  0
   59.8212   33.5440   50.3343 H   0  0  0  0  0  0  0  0  0  0  0  0
   58.9867   34.4277   52.5097 H   0  0  0  0  0  0  0  0  0  0  0  0
   57.0524   33.3442   53.6453 H   0  0  0  0  0  0  0  0  0  0  0  0
   54.1120   31.9910   51.4300 H   0  0  0  0  0  0  0  0  0  0  0  0
   54.5277   28.9307   53.4370 H   0  0  0  0  0  0  0  0  0  0  0  0
   52.6805   27.3825   54.0606 H   0  0  0  0  0  0  0  0  0  0  0  0
   50.3186   27.9799   53.5425 H   0  0  0  0  0  0  0  0  0  0  0  0
   49.7902   30.1399   52.4256 H   0  0  0  0  0  0  0  0  0  0  0  0
   50.1580   33.7610   51.9960 H   0  0  0  0  0  0  0  0  0  0  0  0
   56.7333   30.5114   50.3801 H   0  0  0  0  0  0  0  0  0  0  0  0
  1  2  1  0
  2  3  1  0
  3  4  2  0
  4  5  1  0
  5  6  1  0
  6  7  1  0
  7  8  2  0
  7  9  1  0
  9 10  1  0
 10 11  2  0
 11 12  1  0
 12 13  2  0
 13 14  1  0
 14 15  1  0
 15 16  2  0
 15 17  1  0
 17 18  1  0
 18 19  2  0
 19 20  1  0
 20 21  2  0
 21 22  1  0
 22 23  2  0
 23 24  1  0
 24 25  1  0
 24 26  2  0
 14 27  2  0
  6  2  2  0
 27 10  1  0
 23 18  1  0
  1 28  1  0
  1 29  1  0
  1 30  1  0
  3 31  1  0
  4 32  1  0
 11 33  1  0
 12 34  1  0
 13 35  1  0
 17 36  1  0
 19 37  1  0
 20 38  1  0
 21 39  1  0
 22 40  1  0
 25 41  1  0
 27 42  1  0
M  CHG  2   9  -1  25  -1
M  END
>  <UniqueID>  (67) 
64

>  <SMILES>  (67) 
Cc1ccoc1C(=O)[N-]c1cccc(C(=O)Nc2ccccc2C([NH-])=O)c1

>  <Energy>  (67) 
84.52620542280792

>  <Genealogy>  (67) 
Cc1ccoc1C(=O)[N-]c1cccc(C(=O)Nc2ccccc2C([NH-])=O)c1 (protonated)
Cc1ccoc1C(=O)[N-]c1cccc(C(=O)Nc2ccccc2C([NH-])=O)c1 (3D coordinates assigned)
Cc1ccoc1C(=O)[N-]c1cccc(C(=O)Nc2ccccc2C([NH-])=O)c1 (optimized conformer: 84.52620542280792 kcal/mol)

>  <smiles>  (67) 
Cc1ccoc1C(=O)Nc1cccc(C(=O)Nc2ccccc2C(N)=O)c1

>  <score_type>  (67) 
oracle

>  <origin>  (67) 
adg

>  <m_score__min__energy>  (67) 
-12.98

>  <m_primary>  (67) 
energy

$$$$
67:0
     RDKit          3D

 32 32  0  0  0  0  0  0  0  0999 V2000
   58.0710   34.0250   44.8760 C   0  0  0  0  0  0  0  0  0  0  0  0
   57.9140   32.5840   45.0890 N   0  0  0  0  0  0  0  0  0  0  0  0
   58.1130   32.0110   46.4260 C   0  0  0  0  0  0  0  0  0  0  0  0
   57.5670   31.7410   43.9680 C   0  0  0  0  0  0  0  0  0  0  0  0
   57.4230   32.2570   42.8250 O   0  0  0  0  0  0  0  0  0  0  0  0
   57.3880   30.2490   44.1420 C   0  0  0  0  0  0  0  0  0  0  0  0
   55.9320   29.7950   43.9800 C   0  0  0  0  0  0  0  0  0  0  0  0
   55.5200   28.9840   45.1210 N   0  0  0  0  0  0  0  0  0  0  0  0
   56.2680   27.8660   45.6140 C   0  0  0  0  0  0  0  0  0  0  0  0
   57.5170   27.9530   45.7570 O   0  0  0  0  0  0  0  0  0  0  0  0
   55.6070   26.6570   45.9990 N   0  0  0  0  0  0  0  0  0  0  0  0
   55.8440   25.3500   45.4560 C   0  0  0  0  0  0  0  0  0  0  0  0
   57.0630   25.0990   44.8110 C   0  0  0  0  0  0  0  0  0  0  0  0
   57.3220   23.8450   44.2510 C   0  0  0  0  0  0  0  0  0  0  0  0
   56.3560   22.8350   44.3140 C   0  0  0  0  0  0  0  0  0  0  0  0
   56.7100   21.1230   43.5450 Br  0  0  0  0  0  0  0  0  0  0  0  0
   55.1270   23.0850   44.9320 C   0  0  0  0  0  0  0  0  0  0  0  0
   54.8660   24.3380   45.4940 C   0  0  0  0  0  0  0  0  0  0  0  0
   58.1266   34.5355   45.8488 H   0  0  0  0  0  0  0  0  0  0  0  0
   58.9950   34.2134   44.3097 H   0  0  0  0  0  0  0  0  0  0  0  0
   57.2093   34.4080   44.3097 H   0  0  0  0  0  0  0  0  0  0  0  0
   57.8529   32.7601   47.1884 H   0  0  0  0  0  0  0  0  0  0  0  0
   57.4692   31.1272   46.5457 H   0  0  0  0  0  0  0  0  0  0  0  0
   59.1661   31.7165   46.5457 H   0  0  0  0  0  0  0  0  0  0  0  0
   58.0016   29.7326   43.3891 H   0  0  0  0  0  0  0  0  0  0  0  0
   57.6975   29.9988   45.1675 H   0  0  0  0  0  0  0  0  0  0  0  0
   55.2823   30.6800   43.9114 H   0  0  0  0  0  0  0  0  0  0  0  0
   55.8473   29.1908   43.0647 H   0  0  0  0  0  0  0  0  0  0  0  0
   57.8204   25.8940   44.7452 H   0  0  0  0  0  0  0  0  0  0  0  0
   58.2871   23.6518   43.7598 H   0  0  0  0  0  0  0  0  0  0  0  0
   54.3639   22.2940   44.9760 H   0  0  0  0  0  0  0  0  0  0  0  0
   53.8928   24.5341   45.9677 H   0  0  0  0  0  0  0  0  0  0  0  0
  1  2  1  0
  2  3  1  0
  2  4  1  0
  4  5  2  0
  4  6  1  0
  6  7  1  0
  7  8  1  0
  8  9  1  0
  9 10  2  0
  9 11  1  0
 11 12  1  0
 12 13  2  0
 13 14  1  0
 14 15  2  0
 15 16  1  0
 15 17  1  0
 17 18  2  0
 18 12  1  0
  1 19  1  0
  1 20  1  0
  1 21  1  0
  3 22  1  0
  3 23  1  0
  3 24  1  0
  6 25  1  0
  6 26  1  0
  7 27  1  0
  7 28  1  0
 13 29  1  0
 14 30  1  0
 17 31  1  0
 18 32  1  0
M  CHG  2   8  -1  11  -1
M  END
>  <UniqueID>  (68) 
65

>  <SMILES>  (68) 
CN(C)C(=O)CC[N-]C(=O)[N-]c1ccc(Br)cc1

>  <Energy>  (68) 
27.43125003749293

>  <Genealogy>  (68) 
CN(C)C(=O)CC[N-]C(=O)[N-]c1ccc(Br)cc1 (protonated)
CN(C)C(=O)CC[N-]C(=O)[N-]c1ccc(Br)cc1 (3D coordinates assigned)
CN(C)C(=O)CC[N-]C(=O)[N-]c1ccc(Br)cc1 (optimized conformer: 27.43125003749293 kcal/mol)

>  <smiles>  (68) 
CN(C)C(=O)CCNC(=O)Nc1ccc(Br)cc1

>  <score_type>  (68) 
oracle

>  <origin>  (68) 
adg

>  <m_score__min__energy>  (68) 
-10.19

>  <m_primary>  (68) 
energy

$$$$
68:0
     RDKit          3D

 47 49  0  0  0  0  0  0  0  0999 V2000
   58.9040   34.9210   44.8610 C   0  0  0  0  0  0  0  0  0  0  0  0
   59.0390   34.1690   46.1520 C   0  0  0  0  0  0  0  0  0  0  0  0
   60.1020   34.4480   47.0240 C   0  0  0  0  0  0  0  0  0  0  0  0
   60.2080   33.7750   48.2440 C   0  0  0  0  0  0  0  0  0  0  0  0
   59.2400   32.8280   48.6240 C   0  0  0  0  0  0  0  0  0  0  0  0
   59.3470   32.1000   49.9110 C   0  0  0  0  0  0  0  0  0  0  0  0
   59.2200   32.7390   50.9890 O   0  0  0  0  0  0  0  0  0  0  0  0
   59.6470   30.6530   49.9620 C   0  0  0  0  0  0  0  0  0  0  0  0
   59.5270   29.6000   48.6470 S   0  0  0  0  0  0  0  0  0  0  0  0
   60.1190   28.2790   49.5100 C   0  0  0  0  0  0  0  0  0  0  0  0
   60.2850   27.0740   49.0460 N   0  0  0  0  0  0  0  0  0  0  0  0
   61.0610   26.7350   47.8540 C   0  0  0  0  0  0  0  0  0  0  0  0
   60.1760   26.0390   46.8150 C   0  0  0  0  0  0  0  0  0  0  0  0
   59.2320   27.0240   46.1810 C   0  0  0  0  0  0  0  0  0  0  0  0
   57.8500   26.7790   46.1710 C   0  0  0  0  0  0  0  0  0  0  0  0
   56.9790   27.6800   45.5520 C   0  0  0  0  0  0  0  0  0  0  0  0
   57.4780   28.8320   44.9310 C   0  0  0  0  0  0  0  0  0  0  0  0
   56.3830   29.9580   44.1360 S   0  0  0  0  0  0  0  0  0  0  0  0
   54.7780   29.3230   44.1700 N   0  0  0  0  0  0  0  0  0  0  0  0
   56.4120   31.2830   44.8430 O   0  0  0  0  0  0  0  0  0  0  0  0
   56.8130   30.1640   42.7100 O   0  0  0  0  0  0  0  0  0  0  0  0
   58.8590   29.0680   44.9210 C   0  0  0  0  0  0  0  0  0  0  0  0
   59.7320   28.1700   45.5400 C   0  0  0  0  0  0  0  0  0  0  0  0
   60.4240   28.6160   50.7800 N   0  0  0  0  0  0  0  0  0  0  0  0
   60.1690   29.9280   51.0440 C   0  0  0  0  0  0  0  0  0  0  0  0
   60.3820   30.4780   52.3460 N   0  0  0  0  0  0  0  0  0  0  0  0
   58.1760   32.5540   47.7470 C   0  0  0  0  0  0  0  0  0  0  0  0
   58.0710   33.2280   46.5270 C   0  0  0  0  0  0  0  0  0  0  0  0
   58.7133   35.9833   45.0736 H   0  0  0  0  0  0  0  0  0  0  0  0
   59.8339   34.8243   44.2814 H   0  0  0  0  0  0  0  0  0  0  0  0
   58.0658   34.5069   44.2814 H   0  0  0  0  0  0  0  0  0  0  0  0
   60.8553   35.1998   46.7461 H   0  0  0  0  0  0  0  0  0  0  0  0
   61.0553   33.9875   48.9125 H   0  0  0  0  0  0  0  0  0  0  0  0
   61.4747   27.6562   47.4178 H   0  0  0  0  0  0  0  0  0  0  0  0
   61.8740   26.0523   48.1421 H   0  0  0  0  0  0  0  0  0  0  0  0
   60.8133   25.5955   46.0357 H   0  0  0  0  0  0  0  0  0  0  0  0
   59.5884   25.2557   47.3162 H   0  0  0  0  0  0  0  0  0  0  0  0
   57.4507   25.8741   46.6524 H   0  0  0  0  0  0  0  0  0  0  0  0
   55.8967   27.4835   45.5526 H   0  0  0  0  0  0  0  0  0  0  0  0
   54.4620   29.3440   45.1650 H   0  0  0  0  0  0  0  0  0  0  0  0
   59.2577   29.9644   44.4235 H   0  0  0  0  0  0  0  0  0  0  0  0
   60.8152   28.3609   45.5255 H   0  0  0  0  0  0  0  0  0  0  0  0
   60.8040   27.9450   51.4850 H   0  0  0  0  0  0  0  0  0  0  0  0
   60.1160   31.4680   52.5430 H   0  0  0  0  0  0  0  0  0  0  0  0
   60.8600   29.9390   53.1000 H   0  0  0  0  0  0  0  0  0  0  0  0
   57.4205   31.8036   48.0229 H   0  0  0  0  0  0  0  0  0  0  0  0
   57.2237   33.0185   45.8576 H   0  0  0  0  0  0  0  0  0  0  0  0
  1  2  1  0
  2  3  2  0
  3  4  1  0
  4  5  2  0
  5  6  1  0
  6  7  2  0
  6  8  1  0
  8  9  1  0
  9 10  1  0
 10 11  2  3
 11 12  1  0
 12 13  1  0
 13 14  1  0
 14 15  2  0
 15 16  1  0
 16 17  2  0
 17 18  1  0
 18 19  1  0
 18 20  2  0
 18 21  2  0
 17 22  1  0
 22 23  2  0
 10 24  1  0
 24 25  1  0
 25 26  1  0
  5 27  1  0
 27 28  2  0
 28  2  1  0
 25  8  2  0
 23 14  1  0
  1 29  1  0
  1 30  1  0
  1 31  1  0
  3 32  1  0
  4 33  1  0
 12 34  1  0
 12 35  1  0
 13 36  1  0
 13 37  1  0
 15 38  1  0
 16 39  1  0
 19 40  1  0
 22 41  1  0
 23 42  1  0
 24 43  1  0
 26 44  1  0
 26 45  1  0
 27 46  1  0
 28 47  1  0
M  CHG  1  19  -1
M  END
>  <UniqueID>  (69) 
66

>  <SMILES>  (69) 
Cc1ccc(C(=O)c2sc(=NCCc3ccc(S([NH-])(=O)=O)cc3)[nH]c2N)cc1

>  <Energy>  (69) 
80.70035882029491

>  <Genealogy>  (69) 
Cc1ccc(C(=O)c2sc(=NCCc3ccc(S([NH-])(=O)=O)cc3)[nH]c2N)cc1 (protonated)
Cc1ccc(C(=O)c2sc(=NCCc3ccc(S([NH-])(=O)=O)cc3)[nH]c2N)cc1 (3D coordinates assigned)
Cc1ccc(C(=O)c2sc(=NCCc3ccc(S([NH-])(=O)=O)cc3)[nH]c2N)cc1 (optimized conformer: 80.70035882029491 kcal/mol)

>  <smiles>  (69) 
Cc1ccc(C(=O)c2sc(=NCCc3ccc(S(N)(=O)=O)cc3)[nH]c2N)cc1

>  <score_type>  (69) 
oracle

>  <origin>  (69) 
adg

>  <m_score__min__energy>  (69) 
-11.17

>  <m_primary>  (69) 
energy

$$$$
69:0
     RDKit          3D

 53 55  0  0  0  0  0  0  0  0999 V2000
   53.4250   24.7940   45.5230 C   0  0  0  0  0  0  0  0  0  0  0  0
   54.8030   25.1430   45.5950 O   0  0  0  0  0  0  0  0  0  0  0  0
   55.8660   24.2420   45.4150 C   0  0  0  0  0  0  0  0  0  0  0  0
   55.7680   23.1500   44.5280 C   0  0  0  0  0  0  0  0  0  0  0  0
   56.8620   22.3080   44.3190 C   0  0  0  0  0  0  0  0  0  0  0  0
   58.0660   22.5460   44.9820 C   0  0  0  0  0  0  0  0  0  0  0  0
   58.1740   23.6180   45.8700 C   0  0  0  0  0  0  0  0  0  0  0  0
   57.0740   24.4510   46.1170 C   0  0  0  0  0  0  0  0  0  0  0  0
   57.2360   25.5390   47.0370 N   0  0  0  0  0  0  0  0  0  0  0  0
   57.3670   26.9170   46.6720 C   0  0  0  0  0  0  0  0  0  0  0  0
   57.9460   27.7270   47.4460 O   0  0  0  0  0  0  0  0  0  0  0  0
   56.8420   27.3630   45.4140 N   0  0  0  0  0  0  0  0  0  0  0  0
   57.0470   28.6870   44.8900 C   0  0  0  0  0  0  0  0  0  0  0  0
   55.9460   29.5100   44.6000 C   0  0  0  0  0  0  0  0  0  0  0  0
   56.1310   30.8090   44.1260 C   0  0  0  0  0  0  0  0  0  0  0  0
   57.4280   31.3190   43.9450 C   0  0  0  0  0  0  0  0  0  0  0  0
   57.6710   32.6220   43.4780 O   0  0  0  0  0  0  0  0  0  0  0  0
   58.4250   33.6170   44.1730 C   0  0  0  0  0  0  0  0  0  0  0  0
   58.1440   33.5740   45.6500 C   0  0  0  0  0  0  0  0  0  0  0  0
   56.9480   33.4790   46.0430 O   0  0  0  0  0  0  0  0  0  0  0  0
   59.2120   33.6220   46.6160 N   0  0  0  0  0  0  0  0  0  0  0  0
   60.4800   32.9260   46.3640 C   0  0  0  0  0  0  0  0  0  0  0  0
   61.6070   33.5910   47.1600 C   0  0  0  0  0  0  0  0  0  0  0  0
   61.2590   33.7020   48.5270 O   0  0  0  0  0  0  0  0  0  0  0  0
   60.1600   34.5790   48.6690 C   0  0  0  0  0  0  0  0  0  0  0  0
   58.9100   33.9990   48.0010 C   0  0  0  0  0  0  0  0  0  0  0  0
   58.5280   30.5080   44.2430 C   0  0  0  0  0  0  0  0  0  0  0  0
   58.3530   29.1950   44.7100 C   0  0  0  0  0  0  0  0  0  0  0  0
   59.5620   28.3540   45.0220 C   0  0  0  0  0  0  0  0  0  0  0  0
   53.0192   24.6912   46.5402 H   0  0  0  0  0  0  0  0  0  0  0  0
   52.8749   25.5812   44.9866 H   0  0  0  0  0  0  0  0  0  0  0  0
   53.3159   23.8399   44.9866 H   0  0  0  0  0  0  0  0  0  0  0  0
   54.8234   22.9603   43.9973 H   0  0  0  0  0  0  0  0  0  0  0  0
   56.7742   21.4550   43.6300 H   0  0  0  0  0  0  0  0  0  0  0  0
   58.9304   21.8891   44.8052 H   0  0  0  0  0  0  0  0  0  0  0  0
   59.1296   23.8104   46.3797 H   0  0  0  0  0  0  0  0  0  0  0  0
   56.2200   26.7040   44.8920 H   0  0  0  0  0  0  0  0  0  0  0  0
   54.9261   29.1257   44.7484 H   0  0  0  0  0  0  0  0  0  0  0  0
   55.2582   31.4366   43.8930 H   0  0  0  0  0  0  0  0  0  0  0  0
   59.4973   33.4375   44.0057 H   0  0  0  0  0  0  0  0  0  0  0  0
   58.1350   34.6066   43.7903 H   0  0  0  0  0  0  0  0  0  0  0  0
   60.3865   31.8745   46.6731 H   0  0  0  0  0  0  0  0  0  0  0  0
   60.7149   32.9787   45.2907 H   0  0  0  0  0  0  0  0  0  0  0  0
   62.5199   32.9841   47.0684 H   0  0  0  0  0  0  0  0  0  0  0  0
   61.7759   34.6001   46.7562 H   0  0  0  0  0  0  0  0  0  0  0  0
   59.9580   34.7333   49.7392 H   0  0  0  0  0  0  0  0  0  0  0  0
   60.4072   35.5347   48.1837 H   0  0  0  0  0  0  0  0  0  0  0  0
   58.5791   33.1094   48.5570 H   0  0  0  0  0  0  0  0  0  0  0  0
   58.1135   34.7576   48.0038 H   0  0  0  0  0  0  0  0  0  0  0  0
   59.5454   30.9045   44.1096 H   0  0  0  0  0  0  0  0  0  0  0  0
   59.6800   28.2719   46.1126 H   0  0  0  0  0  0  0  0  0  0  0  0
   59.4318   27.3505   44.5907 H   0  0  0  0  0  0  0  0  0  0  0  0
   60.4576   28.8251   44.5907 H   0  0  0  0  0  0  0  0  0  0  0  0
  1  2  1  0
  2  3  1  0
  3  4  2  0
  4  5  1  0
  5  6  2  0
  6  7  1  0
  7  8  2  0
  8  9  1  0
  9 10  1  0
 10 11  2  0
 10 12  1  0
 12 13  1  0
 13 14  2  0
 14 15  1  0
 15 16  2  0
 16 17  1  0
 17 18  1  0
 18 19  1  0
 19 20  2  0
 19 21  1  0
 21 22  1  0
 22 23  1  0
 23 24  1  0
 24 25  1  0
 25 26  1  0
 16 27  1  0
 27 28  2  0
 28 29  1  0
  8  3  1  0
 28 13  1  0
 26 21  1  0
  1 30  1  0
  1 31  1  0
  1 32  1  0
  4 33  1  0
  5 34  1  0
  6 35  1  0
  7 36  1  0
 12 37  1  0
 14 38  1  0
 15 39  1  0
 18 40  1  0
 18 41  1  0
 22 42  1  0
 22 43  1  0
 23 44  1  0
 23 45  1  0
 25 46  1  0
 25 47  1  0
 26 48  1  0
 26 49  1  0
 27 50  1  0
 29 51  1  0
 29 52  1  0
 29 53  1  0
M  CHG  1   9  -1
M  END
>  <UniqueID>  (70) 
67

>  <SMILES>  (70) 
COc1ccccc1[N-]C(=O)Nc1ccc(OCC(=O)N2CCOCC2)cc1C

>  <Energy>  (70) 
65.03526415791208

>  <Genealogy>  (70) 
COc1ccccc1[N-]C(=O)Nc1ccc(OCC(=O)N2CCOCC2)cc1C (protonated)
COc1ccccc1[N-]C(=O)Nc1ccc(OCC(=O)N2CCOCC2)cc1C (3D coordinates assigned)
COc1ccccc1[N-]C(=O)Nc1ccc(OCC(=O)N2CCOCC2)cc1C (nonaromatic ring conformer: 65.03526415791208 kcal/mol)

>  <smiles>  (70) 
COc1ccccc1NC(=O)Nc1ccc(OCC(=O)N2CCOCC2)cc1C

>  <score_type>  (70) 
oracle

>  <origin>  (70) 
adg

>  <m_score__min__energy>  (70) 
-9.9199999999999999

>  <m_primary>  (70) 
energy

$$$$
70:0
     RDKit          3D

 62 65  0  0  0  0  0  0  0  0999 V2000
   62.1900   29.4000   51.3550 C   0  0  0  0  0  0  0  0  0  0  0  0
   63.3690   30.1970   51.3120 O   0  0  0  0  0  0  0  0  0  0  0  0
   63.5990   31.2280   50.3880 C   0  0  0  0  0  0  0  0  0  0  0  0
   64.7680   31.9850   50.5190 C   0  0  0  0  0  0  0  0  0  0  0  0
   65.0400   33.0260   49.6290 C   0  0  0  0  0  0  0  0  0  0  0  0
   64.1490   33.3150   48.5940 C   0  0  0  0  0  0  0  0  0  0  0  0
   62.9730   32.5610   48.4340 C   0  0  0  0  0  0  0  0  0  0  0  0
   62.0330   32.8790   47.3320 C   0  0  0  0  0  0  0  0  0  0  0  0
   62.4030   33.6570   46.4090 O   0  0  0  0  0  0  0  0  0  0  0  0
   60.7250   32.2830   47.2760 N   0  0  0  0  0  0  0  0  0  0  0  0
   59.6820   32.7680   46.4100 C   0  0  0  0  0  0  0  0  0  0  0  0
   59.5090   34.1540   46.2380 C   0  0  0  0  0  0  0  0  0  0  0  0
   58.5110   34.6490   45.3980 C   0  0  0  0  0  0  0  0  0  0  0  0
   57.6680   33.7680   44.7210 C   0  0  0  0  0  0  0  0  0  0  0  0
   57.8170   32.3910   44.8870 C   0  0  0  0  0  0  0  0  0  0  0  0
   58.8100   31.8730   45.7390 C   0  0  0  0  0  0  0  0  0  0  0  0
   58.9670   30.3700   45.8410 C   0  0  0  0  0  0  0  0  0  0  0  0
   58.2930   29.6430   44.6690 C   0  0  0  0  0  0  0  0  0  0  0  0
   57.9130   28.2820   45.0460 N   0  0  0  0  0  0  0  0  0  0  0  0
   58.7560   27.2500   45.2520 C   0  0  0  0  0  0  0  0  0  0  0  0
   58.0350   26.1360   45.6550 C   0  0  0  0  0  0  0  0  0  0  0  0
   58.5640   24.7940   45.9640 C   0  0  0  0  0  0  0  0  0  0  0  0
   59.8120   24.6350   46.0140 O   0  0  0  0  0  0  0  0  0  0  0  0
   57.6240   23.6510   46.3000 C   0  0  0  0  0  0  0  0  0  0  0  0
   57.0700   22.9240   45.1360 N   0  0  0  0  0  0  0  0  0  0  0  0
   57.8890   21.7740   44.7050 C   0  0  0  0  0  0  0  0  0  0  0  0
   57.4140   21.2450   43.3400 C   0  0  0  0  0  0  0  0  0  0  0  0
   56.0520   21.5620   43.1390 O   0  0  0  0  0  0  0  0  0  0  0  0
   55.9010   22.9610   42.9590 C   0  0  0  0  0  0  0  0  0  0  0  0
   56.6590   23.7920   44.0190 C   0  0  0  0  0  0  0  0  0  0  0  0
   56.7010   26.5110   45.7000 C   0  0  0  0  0  0  0  0  0  0  0  0
   56.6740   27.8350   45.3260 C   0  0  0  0  0  0  0  0  0  0  0  0
   55.5250   28.6150   45.2490 O   0  0  0  0  0  0  0  0  0  0  0  0
   62.6980   31.5230   49.3450 C   0  0  0  0  0  0  0  0  0  0  0  0
   61.9123   29.2123   52.4027 H   0  0  0  0  0  0  0  0  0  0  0  0
   61.3704   29.9301   50.8478 H   0  0  0  0  0  0  0  0  0  0  0  0
   62.3764   28.4419   50.8478 H   0  0  0  0  0  0  0  0  0  0  0  0
   65.4776   31.7587   51.3284 H   0  0  0  0  0  0  0  0  0  0  0  0
   65.9588   33.6199   49.7438 H   0  0  0  0  0  0  0  0  0  0  0  0
   64.3685   34.1385   47.8986 H   0  0  0  0  0  0  0  0  0  0  0  0
   60.5620   31.4050   47.8150 H   0  0  0  0  0  0  0  0  0  0  0  0
   60.1678   34.8548   46.7717 H   0  0  0  0  0  0  0  0  0  0  0  0
   58.3890   35.7346   45.2696 H   0  0  0  0  0  0  0  0  0  0  0  0
   56.8847   34.1595   44.0553 H   0  0  0  0  0  0  0  0  0  0  0  0
   57.1511   31.7026   44.3460 H   0  0  0  0  0  0  0  0  0  0  0  0
   60.0391   30.1238   45.8429 H   0  0  0  0  0  0  0  0  0  0  0  0
   58.4823   30.0391   46.7714 H   0  0  0  0  0  0  0  0  0  0  0  0
   57.3917   30.1988   44.3713 H   0  0  0  0  0  0  0  0  0  0  0  0
   59.0059   29.5892   43.8330 H   0  0  0  0  0  0  0  0  0  0  0  0
   59.8475   27.2861   45.1206 H   0  0  0  0  0  0  0  0  0  0  0  0
   58.1752   22.9291   46.9205 H   0  0  0  0  0  0  0  0  0  0  0  0
   56.7632   24.1059   46.8120 H   0  0  0  0  0  0  0  0  0  0  0  0
   58.9395   22.0899   44.6235 H   0  0  0  0  0  0  0  0  0  0  0  0
   57.7872   20.9703   45.4491 H   0  0  0  0  0  0  0  0  0  0  0  0
   58.0155   21.7060   42.5427 H   0  0  0  0  0  0  0  0  0  0  0  0
   57.5343   20.1518   43.3180 H   0  0  0  0  0  0  0  0  0  0  0  0
   56.2841   23.2296   41.9635 H   0  0  0  0  0  0  0  0  0  0  0  0
   54.8307   23.1924   43.0635 H   0  0  0  0  0  0  0  0  0  0  0  0
   57.5512   24.2425   43.5597 H   0  0  0  0  0  0  0  0  0  0  0  0
   55.9971   24.5837   44.3999 H   0  0  0  0  0  0  0  0  0  0  0  0
   55.8428   25.8812   45.9770 H   0  0  0  0  0  0  0  0  0  0  0  0
   61.7724   30.9376   49.2418 H   0  0  0  0  0  0  0  0  0  0  0  0
  1  2  1  0
  2  3  1  0
  3  4  2  0
  4  5  1  0
  5  6  2  0
  6  7  1  0
  7  8  1  0
  8  9  2  0
  8 10  1  0
 10 11  1  0
 11 12  2  0
 12 13  1  0
 13 14  2  0
 14 15  1  0
 15 16  2  0
 16 17  1  0
 17 18  1  0
 18 19  1  0
 19 20  1  0
 20 21  2  0
 21 22  1  0
 22 23  2  0
 22 24  1  0
 24 25  1  0
 25 26  1  0
 26 27  1  0
 27 28  1  0
 28 29  1  0
 29 30  1  0
 21 31  1  0
 31 32  2  0
 32 33  1  0
  7 34  2  0
 34  3  1  0
 16 11  1  0
 32 19  1  0
 30 25  1  0
  1 35  1  0
  1 36  1  0
  1 37  1  0
  4 38  1  0
  5 39  1  0
  6 40  1  0
 10 41  1  0
 12 42  1  0
 13 43  1  0
 14 44  1  0
 15 45  1  0
 17 46  1  0
 17 47  1  0
 18 48  1  0
 18 49  1  0
 20 50  1  0
 24 51  1  0
 24 52  1  0
 26 53  1  0
 26 54  1  0
 27 55  1  0
 27 56  1  0
 29 57  1  0
 29 58  1  0
 30 59  1  0
 30 60  1  0
 31 61  1  0
 34 62  1  0
M  CHG  1  33  -1
M  END
>  <UniqueID>  (71) 
68

>  <SMILES>  (71) 
COc1cccc(C(=O)Nc2ccccc2CCn2cc(C(=O)CN3CCOCC3)cc2[O-])c1

>  <Energy>  (71) 
108.15494166279251

>  <Genealogy>  (71) 
COc1cccc(C(=O)Nc2ccccc2CCn2cc(C(=O)CN3CCOCC3)cc2[O-])c1 (protonated)
COc1cccc(C(=O)Nc2ccccc2CCn2cc(C(=O)CN3CCOCC3)cc2[O-])c1 (3D coordinates assigned)
COc1cccc(C(=O)Nc2ccccc2CCn2cc(C(=O)CN3CCOCC3)cc2[O-])c1 (nonaromatic ring conformer: 108.15494166279251 kcal/mol)

>  <smiles>  (71) 
COc1cccc(C(=O)Nc2ccccc2CCn2cc(C(=O)CN3CCOCC3)cc2O)c1

>  <score_type>  (71) 
oracle

>  <origin>  (71) 
adg

>  <m_score__min__energy>  (71) 
-12.619999999999999

>  <m_primary>  (71) 
energy

$$$$
71:0
     RDKit          3D

 55 59  0  0  0  0  0  0  0  0999 V2000
   57.2620   32.3490   40.7030 C   0  0  0  0  0  0  0  0  0  0  0  0
   57.0090   31.5490   41.8570 O   0  0  0  0  0  0  0  0  0  0  0  0
   57.4920   31.8330   43.1420 C   0  0  0  0  0  0  0  0  0  0  0  0
   58.0460   33.0820   43.4720 C   0  0  0  0  0  0  0  0  0  0  0  0
   58.5840   33.3090   44.7430 C   0  0  0  0  0  0  0  0  0  0  0  0
   59.1610   34.5580   45.0660 C   0  0  0  0  0  0  0  0  0  0  0  0
   59.7030   34.7750   46.3000 N   0  0  0  0  0  0  0  0  0  0  0  0
   59.7000   33.7800   47.2170 C   0  0  0  0  0  0  0  0  0  0  0  0
   60.2490   33.8530   48.4380 N   0  0  0  0  0  0  0  0  0  0  0  0
   60.0940   32.6310   48.9800 C   0  0  0  0  0  0  0  0  0  0  0  0
   59.4520   31.7740   48.0900 C   0  0  0  0  0  0  0  0  0  0  0  0
   59.2320   30.3410   48.3580 C   0  0  0  0  0  0  0  0  0  0  0  0
   58.8570   30.0200   49.5190 O   0  0  0  0  0  0  0  0  0  0  0  0
   59.4770   29.2700   47.3480 C   0  0  0  0  0  0  0  0  0  0  0  0
   60.4170   29.4980   46.3230 C   0  0  0  0  0  0  0  0  0  0  0  0
   60.6900   28.5150   45.3690 C   0  0  0  0  0  0  0  0  0  0  0  0
   60.0580   27.2740   45.4410 C   0  0  0  0  0  0  0  0  0  0  0  0
   59.1450   27.0090   46.4660 C   0  0  0  0  0  0  0  0  0  0  0  0
   58.5510   25.7100   46.5260 N   0  0  0  0  0  0  0  0  0  0  0  0
   56.8610   25.3940   46.2820 S   0  0  0  0  0  0  0  0  0  0  0  0
   56.1580   26.6770   45.9360 O   0  0  0  0  0  0  0  0  0  0  0  0
   56.2390   24.8050   47.5140 O   0  0  0  0  0  0  0  0  0  0  0  0
   56.6930   24.2370   44.9780 C   0  0  0  0  0  0  0  0  0  0  0  0
   57.5110   23.1520   44.7700 C   0  0  0  0  0  0  0  0  0  0  0  0
   57.0460   22.5040   43.6910 N   0  0  0  0  0  0  0  0  0  0  0  0
   57.5380   21.2450   43.1440 C   0  0  0  0  0  0  0  0  0  0  0  0
   55.9550   23.1850   43.2890 C   0  0  0  0  0  0  0  0  0  0  0  0
   55.7090   24.2680   44.0560 N   0  0  0  0  0  0  0  0  0  0  0  0
   58.8080   28.0220   47.3850 C   0  0  0  0  0  0  0  0  0  0  0  0
   57.7840   27.8130   48.2510 F   0  0  0  0  0  0  0  0  0  0  0  0
   59.1760   32.5360   46.9550 C   0  0  0  0  0  0  0  0  0  0  0  0
   58.5600   32.2720   45.7150 C   0  0  0  0  0  0  0  0  0  0  0  0
   57.9310   31.0580   45.4000 C   0  0  0  0  0  0  0  0  0  0  0  0
   57.4280   30.8220   44.1090 C   0  0  0  0  0  0  0  0  0  0  0  0
   56.8630   29.5900   43.7460 O   0  0  0  0  0  0  0  0  0  0  0  0
   57.5890   28.3680   43.6480 C   0  0  0  0  0  0  0  0  0  0  0  0
   57.5799   33.3544   41.0163 H   0  0  0  0  0  0  0  0  0  0  0  0
   58.0569   31.8839   40.1015 H   0  0  0  0  0  0  0  0  0  0  0  0
   56.3442   32.4255   40.1015 H   0  0  0  0  0  0  0  0  0  0  0  0
   58.0565   33.8883   42.7238 H   0  0  0  0  0  0  0  0  0  0  0  0
   59.1735   35.3627   44.3162 H   0  0  0  0  0  0  0  0  0  0  0  0
   60.7250   34.6760   48.8700 H   0  0  0  0  0  0  0  0  0  0  0  0
   60.4289   32.3478   49.9888 H   0  0  0  0  0  0  0  0  0  0  0  0
   60.9427   30.4630   46.2736 H   0  0  0  0  0  0  0  0  0  0  0  0
   61.4053   28.7203   44.5589 H   0  0  0  0  0  0  0  0  0  0  0  0
   60.2784   26.5017   44.6894 H   0  0  0  0  0  0  0  0  0  0  0  0
   58.3843   22.8679   45.3755 H   0  0  0  0  0  0  0  0  0  0  0  0
   57.8033   20.5661   43.9678 H   0  0  0  0  0  0  0  0  0  0  0  0
   56.7544   20.7827   42.5258 H   0  0  0  0  0  0  0  0  0  0  0  0
   58.4275   21.4365   42.5258 H   0  0  0  0  0  0  0  0  0  0  0  0
   55.3334   22.8908   42.4305 H   0  0  0  0  0  0  0  0  0  0  0  0
   57.8303   30.2816   46.1727 H   0  0  0  0  0  0  0  0  0  0  0  0
   57.8123   27.9922   44.6574 H   0  0  0  0  0  0  0  0  0  0  0  0
   56.9855   27.6254   43.1055 H   0  0  0  0  0  0  0  0  0  0  0  0
   58.5298   28.5429   43.1055 H   0  0  0  0  0  0  0  0  0  0  0  0
  1  2  1  0
  2  3  1  0
  3  4  2  0
  4  5  1  0
  5  6  2  0
  6  7  1  0
  7  8  2  0
  8  9  1  0
  9 10  1  0
 10 11  2  0
 11 12  1  0
 12 13  2  0
 12 14  1  0
 14 15  2  0
 15 16  1  0
 16 17  2  0
 17 18  1  0
 18 19  1  0
 19 20  1  0
 20 21  2  0
 20 22  2  0
 20 23  1  0
 23 24  2  0
 24 25  1  0
 25 26  1  0
 25 27  1  0
 27 28  2  0
 18 29  2  0
 29 30  1  0
 11 31  1  0
 31 32  2  0
 32 33  1  0
 33 34  2  0
 34 35  1  0
 35 36  1  0
 34  3  1  0
 32  5  1  0
 31  8  1  0
 29 14  1  0
 28 23  1  0
  1 37  1  0
  1 38  1  0
  1 39  1  0
  4 40  1  0
  6 41  1  0
  9 42  1  0
 10 43  1  0
 15 44  1  0
 16 45  1  0
 17 46  1  0
 24 47  1  0
 26 48  1  0
 26 49  1  0
 26 50  1  0
 27 51  1  0
 33 52  1  0
 36 53  1  0
 36 54  1  0
 36 55  1  0
M  CHG  1  19  -1
M  END
>  <UniqueID>  (72) 
69

>  <SMILES>  (72) 
COc1cc2cnc3[nH]cc(C(=O)c4cccc([N-]S(=O)(=O)c5cn(C)cn5)c4F)c3c2cc1OC

>  <Energy>  (72) 
142.9240542664432

>  <Genealogy>  (72) 
COc1cc2cnc3[nH]cc(C(=O)c4cccc([N-]S(=O)(=O)c5cn(C)cn5)c4F)c3c2cc1OC (protonated)
COc1cc2cnc3[nH]cc(C(=O)c4cccc([N-]S(=O)(=O)c5cn(C)cn5)c4F)c3c2cc1OC (3D coordinates assigned)
COc1cc2cnc3[nH]cc(C(=O)c4cccc([N-]S(=O)(=O)c5cn(C)cn5)c4F)c3c2cc1OC (optimized conformer: 142.9240542664432 kcal/mol)

>  <smiles>  (72) 
COc1cc2cnc3[nH]cc(C(=O)c4cccc(NS(=O)(=O)c5cn(C)cn5)c4F)c3c2cc1OC

>  <score_type>  (72) 
oracle

>  <origin>  (72) 
adg

>  <m_score__min__energy>  (72) 
-11.779999999999999

>  <m_primary>  (72) 
energy

$$$$
72:0
     RDKit          3D

 61 65  0  0  0  0  0  0  0  0999 V2000
   60.9700   29.2970   50.3210 O   0  0  0  0  0  0  0  0  0  0  0  0
   59.9580   28.9630   49.6500 C   0  0  0  0  0  0  0  0  0  0  0  0
   60.0100   27.7430   48.7800 C   0  0  0  0  0  0  0  0  0  0  0  0
   59.8600   28.0140   47.2850 C   0  0  0  0  0  0  0  0  0  0  0  0
   60.5280   29.0960   46.6680 C   0  0  0  0  0  0  0  0  0  0  0  0
   60.3840   29.3490   45.3050 C   0  0  0  0  0  0  0  0  0  0  0  0
   59.5750   28.5360   44.5180 C   0  0  0  0  0  0  0  0  0  0  0  0
   58.8920   27.4560   45.0900 C   0  0  0  0  0  0  0  0  0  0  0  0
   58.0850   26.6370   44.2830 C   0  0  0  0  0  0  0  0  0  0  0  0
   57.4000   25.5570   44.8390 C   0  0  0  0  0  0  0  0  0  0  0  0
   57.5150   25.2840   46.2020 C   0  0  0  0  0  0  0  0  0  0  0  0
   58.3130   26.0880   47.0200 C   0  0  0  0  0  0  0  0  0  0  0  0
   59.0230   27.1860   46.4810 C   0  0  0  0  0  0  0  0  0  0  0  0
   58.7940   29.7980   49.6080 N   0  0  0  0  0  0  0  0  0  0  0  0
   58.2950   30.6230   50.6710 C   0  0  0  0  0  0  0  0  0  0  0  0
   57.5390   30.0730   51.7230 C   0  0  0  0  0  0  0  0  0  0  0  0
   57.0950   30.8800   52.7730 C   0  0  0  0  0  0  0  0  0  0  0  0
   57.4010   32.2420   52.7860 C   0  0  0  0  0  0  0  0  0  0  0  0
   58.1350   32.8060   51.7390 C   0  0  0  0  0  0  0  0  0  0  0  0
   58.5670   32.0120   50.6630 C   0  0  0  0  0  0  0  0  0  0  0  0
   59.3380   32.6360   49.5620 C   0  0  0  0  0  0  0  0  0  0  0  0
   58.9760   33.7550   49.1060 O   0  0  0  0  0  0  0  0  0  0  0  0
   60.4460   31.9470   48.9670 N   0  0  0  0  0  0  0  0  0  0  0  0
   61.5430   32.6120   48.3100 C   0  0  0  0  0  0  0  0  0  0  0  0
   62.8420   32.5510   48.8460 C   0  0  0  0  0  0  0  0  0  0  0  0
   63.9210   33.1110   48.1560 C   0  0  0  0  0  0  0  0  0  0  0  0
   63.7180   33.7330   46.9240 C   0  0  0  0  0  0  0  0  0  0  0  0
   62.4350   33.8000   46.3790 C   0  0  0  0  0  0  0  0  0  0  0  0
   61.3430   33.2500   47.0640 C   0  0  0  0  0  0  0  0  0  0  0  0
   60.0300   33.3700   46.4930 N   0  0  0  0  0  0  0  0  0  0  0  0
   59.1770   32.1870   46.3690 C   0  0  0  0  0  0  0  0  0  0  0  0
   58.3100   32.3100   45.1140 C   0  0  0  0  0  0  0  0  0  0  0  0
   57.6310   33.5530   45.0920 O   0  0  0  0  0  0  0  0  0  0  0  0
   58.5690   34.6070   44.9700 C   0  0  0  0  0  0  0  0  0  0  0  0
   59.4560   34.6880   46.2150 C   0  0  0  0  0  0  0  0  0  0  0  0
   60.9790   27.2484   48.9423 H   0  0  0  0  0  0  0  0  0  0  0  0
   59.1503   27.1206   49.0690 H   0  0  0  0  0  0  0  0  0  0  0  0
   61.1726   29.7497   47.2740 H   0  0  0  0  0  0  0  0  0  0  0  0
   60.9140   30.1978   44.8483 H   0  0  0  0  0  0  0  0  0  0  0  0
   59.4715   28.7423   43.4425 H   0  0  0  0  0  0  0  0  0  0  0  0
   57.9929   26.8485   43.2075 H   0  0  0  0  0  0  0  0  0  0  0  0
   56.7686   24.9200   44.2022 H   0  0  0  0  0  0  0  0  0  0  0  0
   56.9739   24.4302   46.6358 H   0  0  0  0  0  0  0  0  0  0  0  0
   58.3898   25.8646   48.0943 H   0  0  0  0  0  0  0  0  0  0  0  0
   57.2961   29.0002   51.7183 H   0  0  0  0  0  0  0  0  0  0  0  0
   56.5036   30.4419   53.5905 H   0  0  0  0  0  0  0  0  0  0  0  0
   57.0637   32.8725   53.6219 H   0  0  0  0  0  0  0  0  0  0  0  0
   58.3763   33.8791   51.7573 H   0  0  0  0  0  0  0  0  0  0  0  0
   60.4380   30.9060   48.9920 H   0  0  0  0  0  0  0  0  0  0  0  0
   63.0100   32.0590   49.8154 H   0  0  0  0  0  0  0  0  0  0  0  0
   64.9325   33.0611   48.5855 H   0  0  0  0  0  0  0  0  0  0  0  0
   64.5693   34.1707   46.3820 H   0  0  0  0  0  0  0  0  0  0  0  0
   62.2798   34.2877   45.4053 H   0  0  0  0  0  0  0  0  0  0  0  0
   59.8063   31.2880   46.2928 H   0  0  0  0  0  0  0  0  0  0  0  0
   58.5294   32.1085   47.2547 H   0  0  0  0  0  0  0  0  0  0  0  0
   58.9514   32.2335   44.2236 H   0  0  0  0  0  0  0  0  0  0  0  0
   57.5647   31.5010   45.1194 H   0  0  0  0  0  0  0  0  0  0  0  0
   59.2007   34.4280   44.0875 H   0  0  0  0  0  0  0  0  0  0  0  0
   58.0231   35.5559   44.8621 H   0  0  0  0  0  0  0  0  0  0  0  0
   60.2663   35.4114   46.0413 H   0  0  0  0  0  0  0  0  0  0  0  0
   58.8517   35.0131   47.0747 H   0  0  0  0  0  0  0  0  0  0  0  0
  1  2  2  0
  2  3  1  0
  3  4  1  0
  4  5  2  0
  5  6  1  0
  6  7  2  0
  7  8  1  0
  8  9  2  0
  9 10  1  0
 10 11  2  0
 11 12  1  0
 12 13  2  0
  2 14  1  0
 14 15  1  0
 15 16  2  0
 16 17  1  0
 17 18  2  0
 18 19  1  0
 19 20  2  0
 20 21  1  0
 21 22  2  0
 21 23  1  0
 23 24  1  0
 24 25  2  0
 25 26  1  0
 26 27  2  0
 27 28  1  0
 28 29  2  0
 29 30  1  0
 30 31  1  0
 31 32  1  0
 32 33  1  0
 33 34  1  0
 34 35  1  0
 13  4  1  0
 20 15  1  0
 29 24  1  0
 35 30  1  0
 13  8  1  0
  3 36  1  0
  3 37  1  0
  5 38  1  0
  6 39  1  0
  7 40  1  0
  9 41  1  0
 10 42  1  0
 11 43  1  0
 12 44  1  0
 16 45  1  0
 17 46  1  0
 18 47  1  0
 19 48  1  0
 23 49  1  0
 25 50  1  0
 26 51  1  0
 27 52  1  0
 28 53  1  0
 31 54  1  0
 31 55  1  0
 32 56  1  0
 32 57  1  0
 34 58  1  0
 34 59  1  0
 35 60  1  0
 35 61  1  0
M  CHG  1  14  -1
M  END
>  <UniqueID>  (73) 
70

>  <SMILES>  (73) 
O=C(Cc1cccc2ccccc12)[N-]c1ccccc1C(=O)Nc1ccccc1N1CCOCC1

>  <Energy>  (73) 
88.84386163096809

>  <Genealogy>  (73) 
O=C(Cc1cccc2ccccc12)[N-]c1ccccc1C(=O)Nc1ccccc1N1CCOCC1 (protonated)
O=C(Cc1cccc2ccccc12)[N-]c1ccccc1C(=O)Nc1ccccc1N1CCOCC1 (3D coordinates assigned)
O=C(Cc1cccc2ccccc12)[N-]c1ccccc1C(=O)Nc1ccccc1N1CCOCC1 (nonaromatic ring conformer: 88.84386163096809 kcal/mol)

>  <smiles>  (73) 
O=C(Cc1cccc2ccccc12)Nc1ccccc1C(=O)Nc1ccccc1N1CCOCC1

>  <score_type>  (73) 
oracle

>  <origin>  (73) 
adg

>  <m_score__min__energy>  (73) 
-10.56

>  <m_primary>  (73) 
energy

$$$$
73:0
     RDKit          3D

 37 39  0  0  1  0  0  0  0  0999 V2000
   58.1250   21.0830   43.5110 N   0  0  0  0  0  0  0  0  0  0  0  0
   57.0650   22.0250   43.5700 C   0  0  0  0  0  0  0  0  0  0  0  0
   55.9620   21.8470   42.9860 O   0  0  0  0  0  0  0  0  0  0  0  0
   57.2450   23.2590   44.3350 C   0  0  0  0  0  0  0  0  0  0  0  0
   57.5910   24.3580   43.6440 N   0  0  0  0  0  0  0  0  0  0  0  0
   57.7690   25.5280   44.3200 C   0  0  0  0  0  0  0  0  0  0  0  0
   58.1430   26.6810   43.5170 C   0  0  0  0  0  0  0  0  0  0  0  0
   57.9980   26.6240   42.2700 O   0  0  0  0  0  0  0  0  0  0  0  0
   58.6700   27.8780   44.0740 N   0  0  0  0  0  0  0  0  0  0  0  0
   57.8840   28.8880   44.1730 C   0  0  0  0  0  0  0  0  0  0  0  0
   58.1820   29.9170   45.0670 C   0  0  0  0  0  0  0  0  0  0  0  0
   57.3870   31.0240   45.2230 C   0  0  0  0  0  0  0  0  0  0  0  0
   57.5700   32.0750   46.0470 O   0  0  0  0  0  0  0  0  0  0  0  0
   58.6100   32.7940   46.4720 C   0  0  0  0  0  0  0  0  0  0  0  0
   59.5870   32.4450   47.3760 C   0  0  0  0  0  0  0  0  0  0  0  0
   60.5990   33.2860   47.7160 N   0  0  0  0  0  0  0  0  0  0  0  0
   60.7280   34.5140   47.2030 C   0  0  0  0  0  0  0  0  0  0  0  0
   59.7760   34.9190   46.2910 C   0  0  0  0  0  0  0  0  0  0  0  0
   59.8700   36.1630   45.7440 F   0  0  0  0  0  0  0  0  0  0  0  0
   58.7570   34.0940   45.9380 C   0  0  0  0  0  0  0  0  0  0  0  0
   56.2670   31.0540   44.4310 N   0  0  0  0  0  0  0  0  0  0  0  0
   56.0050   30.0560   43.5830 C   0  0  0  0  0  0  0  0  0  0  0  0
   56.7730   28.9670   43.4200 N   0  0  0  0  0  0  0  0  0  0  0  0
   57.6070   25.6230   45.6800 C   0  0  0  0  0  0  0  0  0  0  0  0
   57.2480   24.4630   46.3550 C   0  0  0  0  0  0  0  0  0  0  0  0
   57.0630   23.2710   45.7030 C   0  0  0  0  0  0  0  0  0  0  0  0
   56.7090   22.1210   46.3630 F   0  0  0  0  0  0  0  0  0  0  0  0
   58.5820   20.8840   42.6140 H   0  0  0  0  0  0  0  0  0  0  0  0
   58.4660   20.5740   44.3700 H   0  0  0  0  0  0  0  0  0  0  0  0
   59.0957   29.8369   45.6742 H   0  0  0  0  0  0  0  0  0  0  0  0
   59.5474   31.4487   47.8405 H   0  0  0  0  0  0  0  0  0  0  0  0
   61.5583   35.1733   47.4960 H   0  0  0  0  0  0  0  0  0  0  0  0
   58.0166   34.4518   45.2074 H   0  0  0  0  0  0  0  0  0  0  0  0
   55.0927   30.1319   42.9732 H   0  0  0  0  0  0  0  0  0  0  0  0
   56.4910   28.2350   42.7330 H   0  0  0  0  0  0  0  0  0  0  0  0
   57.7548   26.5748   46.2113 H   0  0  0  0  0  0  0  0  0  0  0  0
   57.1079   24.5020   47.4454 H   0  0  0  0  0  0  0  0  0  0  0  0
  1  2  1  0
  2  3  2  0
  2  4  1  0
  4  5  2  0
  5  6  1  0
  6  7  1  0
  7  8  2  0
  7  9  1  0
  9 10  2  0
 10 11  1  0
 11 12  2  0
 12 13  1  0
 13 14  1  0
 14 15  2  0
 15 16  1  0
 16 17  2  0
 17 18  1  0
 18 19  1  0
 18 20  2  0
 12 21  1  0
 21 22  2  0
 22 23  1  0
  6 24  2  0
 24 25  1  0
 25 26  2  0
 26 27  1  0
 26  4  1  0
 23 10  1  0
 20 14  1  0
  1 28  1  0
  1 29  1  0
 11 30  1  0
 15 31  1  0
 17 32  1  0
 20 33  1  0
 22 34  1  0
 23 35  1  0
 24 36  1  0
 25 37  1  0
M  END
>  <smiles>  (74) 
NC(=O)c1nc(C(=O)N=c2cc(Oc3cncc(F)c3)nc[nH]2)ccc1F

>  <score_type>  (74) 
oracle

>  <origin>  (74) 
adg

>  <m_score__min__energy>  (74) 
-8.4499999999999993

>  <m_primary>  (74) 
energy

$$$$
74:0
     RDKit          3D

 73 76  0  0  0  0  0  0  0  0999 V2000
   58.0020   27.0550   43.9850 O   0  0  0  0  0  0  0  0  0  0  0  0
   57.4260   28.1380   44.2740 C   0  0  0  0  0  0  0  0  0  0  0  0
   57.2530   29.1860   43.2000 C   0  0  0  0  0  0  0  0  0  0  0  0
   56.4310   30.3910   43.6790 C   0  0  0  0  0  0  0  0  0  0  0  0
   57.3030   31.4490   44.3080 C   0  0  0  0  0  0  0  0  0  0  0  0
   57.7090   32.5660   43.5600 C   0  0  0  0  0  0  0  0  0  0  0  0
   58.5310   33.5380   44.1350 C   0  0  0  0  0  0  0  0  0  0  0  0
   58.9600   33.3980   45.4580 C   0  0  0  0  0  0  0  0  0  0  0  0
   58.5740   32.2820   46.2040 C   0  0  0  0  0  0  0  0  0  0  0  0
   57.7510   31.3080   45.6330 C   0  0  0  0  0  0  0  0  0  0  0  0
   57.0230   28.3530   45.6340 N   0  0  0  0  0  0  0  0  0  0  0  0
   57.0840   27.3810   46.7230 C   0  0  2  0  0  0  0  0  0  0  0  0
   58.5530   26.9660   46.9370 C   0  0  0  0  0  0  0  0  0  0  0  0
   59.4730   28.1500   47.1260 C   0  0  0  0  0  0  0  0  0  0  0  0
   59.7130   28.6620   48.4100 C   0  0  0  0  0  0  0  0  0  0  0  0
   60.5400   29.7740   48.5870 C   0  0  0  0  0  0  0  0  0  0  0  0
   61.1420   30.4000   47.4810 C   0  0  0  0  0  0  0  0  0  0  0  0
   62.0140   31.5910   47.6670 C   0  0  0  0  0  0  0  0  0  0  0  0
   61.8840   32.7140   46.8290 C   0  0  0  0  0  0  0  0  0  0  0  0
   62.7130   33.8260   47.0010 C   0  0  0  0  0  0  0  0  0  0  0  0
   63.6850   33.8290   48.0030 C   0  0  0  0  0  0  0  0  0  0  0  0
   63.8290   32.7220   48.8460 C   0  0  0  0  0  0  0  0  0  0  0  0
   65.0930   32.7190   50.0740 S   0  0  0  0  0  0  0  0  0  0  0  0
   65.1560   31.3490   50.6900 O   0  0  0  0  0  0  0  0  0  0  0  0
   66.4220   33.0210   49.4390 O   0  0  0  0  0  0  0  0  0  0  0  0
   64.7110   33.9120   51.2970 N   0  0  0  0  0  0  0  0  0  0  0  0
   64.9470   33.3980   52.6660 C   0  0  0  0  0  0  0  0  0  0  0  0
   63.6490   32.9910   53.3820 C   0  0  0  0  0  0  0  0  0  0  0  0
   62.7360   32.4420   52.4580 O   0  0  0  0  0  0  0  0  0  0  0  0
   62.2590   33.4510   51.5830 C   0  0  0  0  0  0  0  0  0  0  0  0
   63.3500   34.4480   51.1210 C   0  0  0  0  0  0  0  0  0  0  0  0
   62.9920   31.6090   48.6790 C   0  0  0  0  0  0  0  0  0  0  0  0
   60.9050   29.8800   46.1960 C   0  0  0  0  0  0  0  0  0  0  0  0
   60.0870   28.7600   46.0220 C   0  0  0  0  0  0  0  0  0  0  0  0
   56.2160   26.1990   46.3890 C   0  0  0  0  0  0  0  0  0  0  0  0
   55.0270   26.3850   46.0150 O   0  0  0  0  0  0  0  0  0  0  0  0
   56.7310   24.8700   46.5120 N   0  0  0  0  0  0  0  0  0  0  0  0
   55.9010   23.6850   46.3440 C   0  0  0  0  0  0  0  0  0  0  0  0
   55.5690   23.4790   44.8690 C   0  0  0  0  0  0  0  0  0  0  0  0
   56.7220   24.4220   43.8190 S   0  0  0  0  0  0  0  0  0  0  0  0
   58.2472   29.5389   42.8885 H   0  0  0  0  0  0  0  0  0  0  0  0
   56.7080   28.7212   42.3652 H   0  0  0  0  0  0  0  0  0  0  0  0
   55.9054   30.8286   42.8175 H   0  0  0  0  0  0  0  0  0  0  0  0
   55.7184   30.0386   44.4393 H   0  0  0  0  0  0  0  0  0  0  0  0
   57.3782   32.6760   42.5167 H   0  0  0  0  0  0  0  0  0  0  0  0
   58.8409   34.4141   43.5464 H   0  0  0  0  0  0  0  0  0  0  0  0
   59.6020   34.1673   45.9119 H   0  0  0  0  0  0  0  0  0  0  0  0
   58.9185   32.1698   47.2426 H   0  0  0  0  0  0  0  0  0  0  0  0
   57.4527   30.4282   46.2220 H   0  0  0  0  0  0  0  0  0  0  0  0
   56.7069   27.8209   47.6581 H   0  0  0  0  0  0  0  0  0  0  0  0
   58.6117   26.3287   47.8316 H   0  0  0  0  0  0  0  0  0  0  0  0
   58.8817   26.4313   46.0337 H   0  0  0  0  0  0  0  0  0  0  0  0
   59.2464   28.1842   49.2841 H   0  0  0  0  0  0  0  0  0  0  0  0
   60.7217   30.1630   49.5997 H   0  0  0  0  0  0  0  0  0  0  0  0
   61.1247   32.7167   46.0331 H   0  0  0  0  0  0  0  0  0  0  0  0
   62.5992   34.7015   46.3448 H   0  0  0  0  0  0  0  0  0  0  0  0
   64.3393   34.7041   48.1300 H   0  0  0  0  0  0  0  0  0  0  0  0
   65.6040   32.5181   52.6025 H   0  0  0  0  0  0  0  0  0  0  0  0
   65.4065   34.2094   53.2496 H   0  0  0  0  0  0  0  0  0  0  0  0
   63.8792   32.2423   54.1543 H   0  0  0  0  0  0  0  0  0  0  0  0
   63.1996   33.8817   53.8454 H   0  0  0  0  0  0  0  0  0  0  0  0
   61.8346   32.9647   50.6923 H   0  0  0  0  0  0  0  0  0  0  0  0
   61.5118   34.0323   52.1432 H   0  0  0  0  0  0  0  0  0  0  0  0
   63.1942   34.6737   50.0557 H   0  0  0  0  0  0  0  0  0  0  0  0
   63.2626   35.3522   51.7413 H   0  0  0  0  0  0  0  0  0  0  0  0
   63.1011   30.7411   49.3459 H   0  0  0  0  0  0  0  0  0  0  0  0
   61.3674   30.3588   45.3202 H   0  0  0  0  0  0  0  0  0  0  0  0
   59.9236   28.3542   45.0127 H   0  0  0  0  0  0  0  0  0  0  0  0
   56.4433   22.8052   46.7207 H   0  0  0  0  0  0  0  0  0  0  0  0
   54.9656   23.8191   46.9071 H   0  0  0  0  0  0  0  0  0  0  0  0
   55.6496   22.4093   44.6255 H   0  0  0  0  0  0  0  0  0  0  0  0
   54.5448   23.8338   44.6814 H   0  0  0  0  0  0  0  0  0  0  0  0
   56.4220   25.6410   44.4580 H   0  0  0  0  0  0  0  0  0  0  0  0
  1  2  2  0
  2  3  1  0
  3  4  1  0
  4  5  1  0
  5  6  2  0
  6  7  1  0
  7  8  2  0
  8  9  1  0
  9 10  2  0
  2 11  1  0
 11 12  1  0
 12 13  1  0
 13 14  1  0
 14 15  2  0
 15 16  1  0
 16 17  2  0
 17 18  1  0
 18 19  2  0
 19 20  1  0
 20 21  2  0
 21 22  1  0
 22 23  1  0
 23 24  2  0
 23 25  2  0
 23 26  1  0
 26 27  1  0
 27 28  1  0
 28 29  1  0
 29 30  1  0
 30 31  1  0
 22 32  2  0
 17 33  1  0
 33 34  2  0
 12 35  1  0
 35 36  2  0
 35 37  1  0
 37 38  1  0
 38 39  1  0
 39 40  1  0
 10  5  1  0
 34 14  1  0
 32 18  1  0
 31 26  1  0
  3 41  1  0
  3 42  1  0
  4 43  1  0
  4 44  1  0
  6 45  1  0
  7 46  1  0
  8 47  1  0
  9 48  1  0
 10 49  1  0
 12 50  1  1
 13 51  1  0
 13 52  1  0
 15 53  1  0
 16 54  1  0
 19 55  1  0
 20 56  1  0
 21 57  1  0
 27 58  1  0
 27 59  1  0
 28 60  1  0
 28 61  1  0
 30 62  1  0
 30 63  1  0
 31 64  1  0
 31 65  1  0
 32 66  1  0
 33 67  1  0
 34 68  1  0
 38 69  1  0
 38 70  1  0
 39 71  1  0
 39 72  1  0
 40 73  1  0
M  CHG  2  11  -1  37  -1
M  END
>  <UniqueID>  (75) 
71

>  <SMILES>  (75) 
O=C(CCc1ccccc1)[N-][C@H](Cc1ccc(-c2cccc(S(=O)(=O)N3CCOCC3)c2)cc1)C(=O)[N-]CCS

>  <Energy>  (75) 
77.37775055434473

>  <Genealogy>  (75) 
O=C(CCc1ccccc1)[N-]C(Cc1ccc(-c2cccc(S(=O)(=O)N3CCOCC3)c2)cc1)C(=O)[N-]CCS (protonated)
O=C(CCc1ccccc1)[N-][C@H](Cc1ccc(-c2cccc(S(=O)(=O)N3CCOCC3)c2)cc1)C(=O)[N-]CCS (chirality)
O=C(CCc1ccccc1)[N-][C@H](Cc1ccc(-c2cccc(S(=O)(=O)N3CCOCC3)c2)cc1)C(=O)[N-]CCS (3D coordinates assigned)
O=C(CCc1ccccc1)[N-][C@H](Cc1ccc(-c2cccc(S(=O)(=O)N3CCOCC3)c2)cc1)C(=O)[N-]CCS (nonaromatic ring conformer: 77.37775055434473 kcal/mol)

>  <smiles>  (75) 
O=C(CCc1ccccc1)NC(Cc1ccc(-c2cccc(S(=O)(=O)N3CCOCC3)c2)cc1)C(=O)NCCS

>  <score_type>  (75) 
oracle

>  <origin>  (75) 
adg

>  <m_score__min__energy>  (75) 
-14.49

>  <m_primary>  (75) 
energy

$$$$
75:0
     RDKit          3D

 34 35  0  0  0  0  0  0  0  0999 V2000
   61.0520   32.6300   47.1200 C   0  0  0  0  0  0  0  0  0  0  0  0
   61.5850   31.2110   47.2860 C   0  0  0  0  0  0  0  0  0  0  0  0
   61.0090   30.3410   46.3150 O   0  0  0  0  0  0  0  0  0  0  0  0
   59.7750   29.7030   46.4910 C   0  0  0  0  0  0  0  0  0  0  0  0
   59.6050   28.8980   47.4470 O   0  0  0  0  0  0  0  0  0  0  0  0
   58.6640   29.9990   45.5640 C   0  0  0  0  0  0  0  0  0  0  0  0
   58.8160   31.0500   44.6450 C   0  0  0  0  0  0  0  0  0  0  0  0
   57.7630   31.4180   43.8070 C   0  0  0  0  0  0  0  0  0  0  0  0
   56.5460   30.7390   43.8720 C   0  0  0  0  0  0  0  0  0  0  0  0
   56.3820   29.6690   44.7600 C   0  0  0  0  0  0  0  0  0  0  0  0
   55.1720   28.9780   44.8050 O   0  0  0  0  0  0  0  0  0  0  0  0
   57.4430   29.2750   45.5940 C   0  0  0  0  0  0  0  0  0  0  0  0
   57.2700   28.1250   46.4390 N   0  0  0  0  0  0  0  0  0  0  0  0
   57.2280   26.7660   45.9620 C   0  0  0  0  0  0  0  0  0  0  0  0
   58.4380   26.0910   45.7340 C   0  0  0  0  0  0  0  0  0  0  0  0
   58.4410   24.7820   45.2470 C   0  0  0  0  0  0  0  0  0  0  0  0
   57.2340   24.1270   44.9950 C   0  0  0  0  0  0  0  0  0  0  0  0
   56.0230   24.7760   45.2400 C   0  0  0  0  0  0  0  0  0  0  0  0
   56.0100   26.0860   45.7320 C   0  0  0  0  0  0  0  0  0  0  0  0
   54.7880   26.6880   46.0050 O   0  0  0  0  0  0  0  0  0  0  0  0
   60.8841   33.0769   48.1110 H   0  0  0  0  0  0  0  0  0  0  0  0
   61.7845   33.2342   46.5646 H   0  0  0  0  0  0  0  0  0  0  0  0
   60.1029   32.6026   46.5646 H   0  0  0  0  0  0  0  0  0  0  0  0
   62.6779   31.2186   47.1613 H   0  0  0  0  0  0  0  0  0  0  0  0
   61.3186   30.8477   48.2895 H   0  0  0  0  0  0  0  0  0  0  0  0
   59.7737   31.5878   44.5854 H   0  0  0  0  0  0  0  0  0  0  0  0
   57.8926   32.2452   43.0936 H   0  0  0  0  0  0  0  0  0  0  0  0
   55.7122   31.0454   43.2232 H   0  0  0  0  0  0  0  0  0  0  0  0
   55.1380   27.9740   44.9330 H   0  0  0  0  0  0  0  0  0  0  0  0
   57.1440   28.2910   47.4640 H   0  0  0  0  0  0  0  0  0  0  0  0
   59.3922   26.5978   45.9408 H   0  0  0  0  0  0  0  0  0  0  0  0
   59.3950   24.2667   45.0618 H   0  0  0  0  0  0  0  0  0  0  0  0
   57.2376   23.0991   44.6032 H   0  0  0  0  0  0  0  0  0  0  0  0
   55.0739   24.2551   45.0454 H   0  0  0  0  0  0  0  0  0  0  0  0
  1  2  1  0
  2  3  1  0
  3  4  1  0
  4  5  2  0
  4  6  1  0
  6  7  2  0
  7  8  1  0
  8  9  2  0
  9 10  1  0
 10 11  1  0
 10 12  2  0
 12 13  1  0
 13 14  1  0
 14 15  2  0
 15 16  1  0
 16 17  2  0
 17 18  1  0
 18 19  2  0
 19 20  1  0
 12  6  1  0
 19 14  1  0
  1 21  1  0
  1 22  1  0
  1 23  1  0
  2 24  1  0
  2 25  1  0
  7 26  1  0
  8 27  1  0
  9 28  1  0
 11 29  1  0
 13 30  1  0
 15 31  1  0
 16 32  1  0
 17 33  1  0
 18 34  1  0
M  CHG  1  20  -1
M  END
>  <UniqueID>  (76) 
72

>  <SMILES>  (76) 
CCOC(=O)c1cccc(O)c1Nc1ccccc1[O-]

>  <Energy>  (76) 
41.174746155082644

>  <Genealogy>  (76) 
CCOC(=O)c1cccc(O)c1Nc1ccccc1[O-] (protonated)
CCOC(=O)c1cccc(O)c1Nc1ccccc1[O-] (3D coordinates assigned)
CCOC(=O)c1cccc(O)c1Nc1ccccc1[O-] (optimized conformer: 41.174746155082644 kcal/mol)

>  <smiles>  (76) 
CCOC(=O)c1cccc(O)c1Nc1ccccc1O

>  <score_type>  (76) 
oracle

>  <origin>  (76) 
adg

>  <m_score__min__energy>  (76) 
-10.92

>  <m_primary>  (76) 
energy

$$$$
76:0
     RDKit          3D

 54 59  0  0  0  0  0  0  0  0999 V2000
   53.0638   30.5718   50.5653 H   0  0  0  0  0  0  0  0  0  0  0  0
   52.8470   30.5320   51.6430 C   0  0  0  0  0  0  0  0  0  0  0  0
   51.8490   31.4720   52.1830 C   0  0  0  0  0  0  0  0  0  0  0  0
   51.4980   31.5060   53.4810 N   0  0  0  0  0  0  0  0  0  0  0  0
   50.5190   32.4370   53.5170 C   0  0  0  0  0  0  0  0  0  0  0  0
   49.9360   32.7670   54.5820 O   0  0  0  0  0  0  0  0  0  0  0  0
   50.2080   32.9790   52.3200 N   0  0  0  0  0  0  0  0  0  0  0  0
   51.0490   32.3490   51.4830 C   0  0  0  0  0  0  0  0  0  0  0  0
   51.0460   32.5370   50.1070 O   0  0  0  0  0  0  0  0  0  0  0  0
   56.4250   28.1430   53.6150 C   0  0  0  0  0  0  0  0  0  0  0  0
   53.0080   28.5630   53.1360 C   0  0  0  0  0  0  0  0  0  0  0  0
   51.9424   28.3177   53.2560 H   0  0  0  0  0  0  0  0  0  0  0  0
   54.0350   27.8740   53.6950 N   0  0  0  0  0  0  0  0  0  0  0  0
   55.1490   28.4760   53.3110 N   0  0  0  0  0  0  0  0  0  0  0  0
   53.5070   29.6310   52.3850 C   0  0  0  0  0  0  0  0  0  0  0  0
   56.6780   27.1240   54.3810 N   0  0  0  0  0  0  0  0  0  0  0  0
   56.6000   25.7390   53.9250 C   0  0  0  0  0  0  0  0  0  0  0  0
   57.1646   25.8581   52.9885 H   0  0  0  0  0  0  0  0  0  0  0  0
   55.3110   25.0420   54.3140 C   0  0  0  0  0  0  0  0  0  0  0  0
   54.5053   25.6084   54.8039 H   0  0  0  0  0  0  0  0  0  0  0  0
   54.5618   24.4371   53.7822 H   0  0  0  0  0  0  0  0  0  0  0  0
   56.5990   24.7430   55.0680 C   0  0  0  0  0  0  0  0  0  0  0  0
   56.7247   25.0931   56.1032 H   0  0  0  0  0  0  0  0  0  0  0  0
   57.1674   23.8322   55.3076 H   0  0  0  0  0  0  0  0  0  0  0  0
   57.4280   28.9070   53.0930 N   0  0  0  0  0  0  0  0  0  0  0  0
   57.1480   29.9720   52.2810 C   0  0  0  0  0  0  0  0  0  0  0  0
   58.1300   30.6890   51.8190 N   0  0  0  0  0  0  0  0  0  0  0  0
   58.3460   31.0790   50.4520 C   0  0  0  0  0  0  0  0  0  0  0  0
   58.5310   30.0810   49.4900 C   0  0  0  0  0  0  0  0  0  0  0  0
   58.5302   29.0239   49.7941 H   0  0  0  0  0  0  0  0  0  0  0  0
   58.7170   30.4150   48.1450 C   0  0  0  0  0  0  0  0  0  0  0  0
   58.8752   29.6203   47.4011 H   0  0  0  0  0  0  0  0  0  0  0  0
   58.7030   31.7600   47.7380 C   0  0  0  0  0  0  0  0  0  0  0  0
   58.8810   32.1040   46.3500 N   0  0  0  0  0  0  0  0  0  0  0  0
   58.8420   31.0760   45.3030 C   0  0  0  0  0  0  0  0  0  0  0  0
   59.8507   30.9494   44.8829 H   0  0  0  0  0  0  0  0  0  0  0  0
   58.4930   30.1316   45.7461 H   0  0  0  0  0  0  0  0  0  0  0  0
   57.8720   31.4850   44.1770 C   0  0  0  0  0  0  0  0  0  0  0  0
   58.2548   31.0833   43.2272 H   0  0  0  0  0  0  0  0  0  0  0  0
   56.8855   31.0764   44.4413 H   0  0  0  0  0  0  0  0  0  0  0  0
   57.7060   32.9470   44.0310 N   0  0  0  0  0  0  0  0  0  0  0  0
   56.8930   33.2540   44.6170 H   0  0  0  0  0  0  0  0  0  0  0  0
   58.8960   33.6930   44.4590 C   0  0  0  0  0  0  0  0  0  0  0  0
   59.7706   33.3320   43.8980 H   0  0  0  0  0  0  0  0  0  0  0  0
   58.7345   34.7632   44.2625 H   0  0  0  0  0  0  0  0  0  0  0  0
   59.1430   33.4960   45.9610 C   0  0  0  0  0  0  0  0  0  0  0  0
   60.1896   33.7447   46.1909 H   0  0  0  0  0  0  0  0  0  0  0  0
   58.4633   34.1547   46.5215 H   0  0  0  0  0  0  0  0  0  0  0  0
   58.4730   32.7600   48.6980 C   0  0  0  0  0  0  0  0  0  0  0  0
   58.4367   33.8152   48.3893 H   0  0  0  0  0  0  0  0  0  0  0  0
   58.2900   32.4240   50.0420 C   0  0  0  0  0  0  0  0  0  0  0  0
   58.1013   33.2147   50.7831 H   0  0  0  0  0  0  0  0  0  0  0  0
   55.8480   30.2890   52.0000 N   0  0  0  0  0  0  0  0  0  0  0  0
   54.8700   29.5170   52.5280 C   0  0  0  0  0  0  0  0  0  0  0  0
  1  2  1  0
  2  3  1  0
  3  4  1  0
  4  5  1  0
  5  6  2  0
  5  7  1  0
  7  8  1  0
  8  9  1  0
  2 10  2  0
 10 11  1  0
 11 12  1  0
 11 13  2  0
 13 14  1  0
 14 15  1  0
 15 16  2  0
 16 17  1  0
 17 18  1  0
 17 19  1  0
 19 20  1  0
 19 21  1  0
 19 22  1  0
 22 23  1  0
 22 24  1  0
 15 25  1  0
 25 26  1  0
 26 27  2  3
 27 28  1  0
 28 29  2  0
 29 30  1  0
 29 31  1  0
 31 32  1  0
 31 33  2  0
 33 34  1  0
 34 35  1  0
 35 36  1  0
 35 37  1  0
 35 38  1  0
 38 39  1  0
 38 40  1  0
 38 41  1  0
 41 42  1  0
 41 43  1  0
 43 44  1  0
 43 45  1  0
 43 46  1  0
 46 47  1  0
 46 48  1  0
 33 49  1  0
 49 50  1  0
 49 51  2  0
 51 52  1  0
 26 53  1  0
 53 54  2  0
  8  3  2  0
 54 10  1  0
 54 14  1  0
 22 17  1  0
 51 28  1  0
 46 34  1  0
M  CHG  4   4  -1   7  -1   9  -1  25  -1
M  END
>  <UniqueID>  (77) 
73

>  <SMILES>  (77) 
O=c1[n-]c([O-])c(/C=c2\cnn3/c(=N/C4CC4)[n-]c(=Nc4ccc(N5CCNCC5)cc4)nc23)[n-]1

>  <Energy>  (77) 
412.90988947292163

>  <Genealogy>  (77) 
O=c1[n-]c([O-])c(C=c2cnn3c(=NC4CC4)[n-]c(=Nc4ccc(N5CCNCC5)cc4)nc23)[n-]1 (protonated)
O=c1[n-]c([O-])c(/C=c2\cnn3/c(=N/C4CC4)[n-]c(=Nc4ccc(N5CCNCC5)cc4)nc23)[n-]1 (cis-trans isomerization)
O=c1[n-]c([O-])c(/C=c2\cnn3/c(=N/C4CC4)[n-]c(=Nc4ccc(N5CCNCC5)cc4)nc23)[n-]1 (3D coordinates assigned)
O=c1[n-]c([O-])c(/C=c2\cnn3/c(=N/C4CC4)[n-]c(=Nc4ccc(N5CCNCC5)cc4)nc23)[n-]1 (nonaromatic ring conformer: 412.90988947292163 kcal/mol)

>  <smiles>  (77) 
O=c1[nH]c(O)c(C=c2cnn3c(=NC4CC4)[nH]c(=Nc4ccc(N5CCNCC5)cc4)nc23)[nH]1

>  <score_type>  (77) 
oracle

>  <origin>  (77) 
adg

>  <m_score__min__energy>  (77) 
-18.260000000000002

>  <m_primary>  (77) 
energy

$$$$
77:0
     RDKit          3D

 50 53  0  0  1  0  0  0  0  0999 V2000
   58.5110   26.7060   42.6110 O   0  0  0  0  0  0  0  0  0  0  0  0
   58.2500   27.4380   43.6180 C   0  0  0  0  0  0  0  0  0  0  0  0
   59.0450   27.2450   44.7270 C   0  0  0  0  0  0  0  0  0  0  0  0
   58.7770   28.0360   45.8450 C   0  0  0  0  0  0  0  0  0  0  0  0
   59.6230   27.8280   47.0280 C   0  0  0  0  0  0  0  0  0  0  0  0
   59.6620   29.1350   47.7750 C   0  0  0  0  0  0  0  0  0  0  0  0
   60.3480   30.2210   47.2740 C   0  0  0  0  0  0  0  0  0  0  0  0
   60.3400   31.3780   48.0060 C   0  0  0  0  0  0  0  0  0  0  0  0
   59.6980   31.5370   49.2080 C   0  0  0  0  0  0  0  0  0  0  0  0
   59.0090   30.4420   49.7080 C   0  0  0  0  0  0  0  0  0  0  0  0
   58.9980   29.2550   48.9900 C   0  0  0  0  0  0  0  0  0  0  0  0
   57.7710   28.9300   45.7750 N   0  0  0  0  0  0  0  0  0  0  0  0
   57.0190   29.0910   44.6830 C   0  0  0  0  0  0  0  0  0  0  0  0
   55.9470   30.0260   44.5830 N   0  0  0  0  0  0  0  0  0  0  0  0
   56.1170   31.2380   44.2730 N   0  0  0  0  0  0  0  0  0  0  0  0
   57.0410   32.1320   44.8810 C   0  0  0  0  0  0  0  0  0  0  0  0
   56.6500   33.0960   45.7890 C   0  0  0  0  0  0  0  0  0  0  0  0
   57.5730   33.9610   46.3630 C   0  0  0  0  0  0  0  0  0  0  0  0
   58.9090   33.8690   46.0320 C   0  0  0  0  0  0  0  0  0  0  0  0
   60.1530   34.8830   46.6800 S   0  0  0  0  0  0  0  0  0  0  0  0
   60.0980   36.1970   45.8880 O   0  0  0  0  0  0  0  0  0  0  0  0
   59.8290   35.2660   48.0980 O   0  0  0  0  0  0  0  0  0  0  0  0
   61.7370   34.2810   46.4710 N   0  0  0  0  0  0  0  0  0  0  0  0
   62.4250   33.7530   47.4080 C   0  0  0  0  0  0  0  0  0  0  0  0
   63.2870   32.7060   47.1820 C   0  0  0  0  0  0  0  0  0  0  0  0
   63.9890   32.1880   48.2470 C   0  0  0  0  0  0  0  0  0  0  0  0
   63.8500   32.6900   49.5240 C   0  0  0  0  0  0  0  0  0  0  0  0
   62.9740   33.7430   49.7140 C   0  0  0  0  0  0  0  0  0  0  0  0
   62.2870   34.2500   48.6700 N   0  0  0  0  0  0  0  0  0  0  0  0
   59.2600   32.8940   45.1250 C   0  0  0  0  0  0  0  0  0  0  0  0
   58.3850   32.0240   44.5360 C   0  0  0  0  0  0  0  0  0  0  0  0
   57.2530   28.3370   43.5800 N   0  0  0  0  0  0  0  0  0  0  0  0
   59.8548   26.5006   44.7308 H   0  0  0  0  0  0  0  0  0  0  0  0
   59.1943   27.0408   47.6656 H   0  0  0  0  0  0  0  0  0  0  0  0
   60.6353   27.5114   46.7366 H   0  0  0  0  0  0  0  0  0  0  0  0
   60.8850   30.1598   46.3160 H   0  0  0  0  0  0  0  0  0  0  0  0
   60.8875   32.2420   47.6014 H   0  0  0  0  0  0  0  0  0  0  0  0
   59.7284   32.4925   49.7522 H   0  0  0  0  0  0  0  0  0  0  0  0
   58.4751   30.5142   50.6670 H   0  0  0  0  0  0  0  0  0  0  0  0
   58.4513   28.3890   49.3915 H   0  0  0  0  0  0  0  0  0  0  0  0
   55.5880   33.1805   46.0629 H   0  0  0  0  0  0  0  0  0  0  0  0
   57.2376   34.7215   47.0835 H   0  0  0  0  0  0  0  0  0  0  0  0
   63.4131   32.2908   46.1712 H   0  0  0  0  0  0  0  0  0  0  0  0
   64.6804   31.3500   48.0745 H   0  0  0  0  0  0  0  0  0  0  0  0
   64.4182   32.2660   50.3651 H   0  0  0  0  0  0  0  0  0  0  0  0
   62.8372   34.1682   50.7192 H   0  0  0  0  0  0  0  0  0  0  0  0
   61.6230   35.0480   48.8160 H   0  0  0  0  0  0  0  0  0  0  0  0
   60.3228   32.8089   44.8544 H   0  0  0  0  0  0  0  0  0  0  0  0
   58.7303   31.2671   43.8164 H   0  0  0  0  0  0  0  0  0  0  0  0
   56.6620   28.4620   42.7140 H   0  0  0  0  0  0  0  0  0  0  0  0
  1  2  2  0
  2  3  1  0
  3  4  2  0
  4  5  1  0
  5  6  1  0
  6  7  2  0
  7  8  1  0
  8  9  2  0
  9 10  1  0
 10 11  2  0
  4 12  1  0
 12 13  2  0
 13 14  1  0
 14 15  2  0
 15 16  1  0
 16 17  2  0
 17 18  1  0
 18 19  2  0
 19 20  1  0
 20 21  2  0
 20 22  2  0
 20 23  1  0
 23 24  2  0
 24 25  1  0
 25 26  2  0
 26 27  1  0
 27 28  2  0
 28 29  1  0
 19 30  1  0
 30 31  2  0
 13 32  1  0
 32  2  1  0
 11  6  1  0
 31 16  1  0
 29 24  1  0
  3 33  1  0
  5 34  1  0
  5 35  1  0
  7 36  1  0
  8 37  1  0
  9 38  1  0
 10 39  1  0
 11 40  1  0
 17 41  1  0
 18 42  1  0
 25 43  1  0
 26 44  1  0
 27 45  1  0
 28 46  1  0
 29 47  1  0
 30 48  1  0
 31 49  1  0
 32 50  1  0
M  END
>  <smiles>  (78) 
O=c1cc(Cc2ccccc2)nc(N=Nc2ccc(S(=O)(=O)N=c3cccc[nH]3)cc2)[nH]1

>  <score_type>  (78) 
oracle

>  <origin>  (78) 
adg

>  <m_score__min__energy>  (78) 
-10.35

>  <m_primary>  (78) 
energy

$$$$
78:0
     RDKit          3D

 30 31  0  0  1  0  0  0  0  0999 V2000
   55.3770   24.6500   45.5630 C   0  0  0  0  0  0  0  0  0  0  0  0
   55.7790   25.8020   46.3520 N   0  0  0  0  0  0  0  0  0  0  0  0
   56.6280   26.6760   45.9520 C   0  0  0  0  0  0  0  0  0  0  0  0
   57.9330   26.3570   45.8860 N   0  0  0  0  0  0  0  0  0  0  0  0
   58.7700   27.3190   45.4580 C   0  0  0  0  0  0  0  0  0  0  0  0
   58.3430   28.5790   45.0980 C   0  0  0  0  0  0  0  0  0  0  0  0
   57.0160   28.8570   45.1810 C   0  0  0  0  0  0  0  0  0  0  0  0
   56.5430   29.9900   44.8690 N   0  0  0  0  0  0  0  0  0  0  0  0
   57.2180   30.9390   44.0270 C   0  0  0  0  0  0  0  0  0  0  0  0
   57.7290   32.1120   44.8020 C   0  0  0  0  0  0  0  0  0  0  0  0
   57.9010   33.3570   44.2430 C   0  0  0  0  0  0  0  0  0  0  0  0
   58.3780   34.4470   44.9620 C   0  0  0  0  0  0  0  0  0  0  0  0
   58.7000   34.3040   46.2870 C   0  0  0  0  0  0  0  0  0  0  0  0
   58.5400   33.0730   46.8800 C   0  0  0  0  0  0  0  0  0  0  0  0
   58.0660   32.0020   46.1530 C   0  0  0  0  0  0  0  0  0  0  0  0
   56.1610   27.8950   45.6100 N   0  0  0  0  0  0  0  0  0  0  0  0
   55.0900   23.8276   46.2348 H   0  0  0  0  0  0  0  0  0  0  0  0
   54.5203   24.9211   44.9285 H   0  0  0  0  0  0  0  0  0  0  0  0
   56.2163   24.3292   44.9285 H   0  0  0  0  0  0  0  0  0  0  0  0
   58.2530   25.3960   46.1610 H   0  0  0  0  0  0  0  0  0  0  0  0
   59.8438   27.0897   45.3923 H   0  0  0  0  0  0  0  0  0  0  0  0
   59.0583   29.3398   44.7524 H   0  0  0  0  0  0  0  0  0  0  0  0
   58.0673   30.4391   43.5383 H   0  0  0  0  0  0  0  0  0  0  0  0
   56.4948   31.3104   43.2861 H   0  0  0  0  0  0  0  0  0  0  0  0
   57.6503   33.4962   43.1810 H   0  0  0  0  0  0  0  0  0  0  0  0
   58.4969   35.4229   44.4685 H   0  0  0  0  0  0  0  0  0  0  0  0
   59.0797   35.1588   46.8659 H   0  0  0  0  0  0  0  0  0  0  0  0
   58.7923   32.9423   47.9427 H   0  0  0  0  0  0  0  0  0  0  0  0
   57.9494   31.0292   46.6531 H   0  0  0  0  0  0  0  0  0  0  0  0
   55.1450   28.1290   45.6680 H   0  0  0  0  0  0  0  0  0  0  0  0
  1  2  1  0
  2  3  2  0
  3  4  1  0
  4  5  1  0
  5  6  2  0
  6  7  1  0
  7  8  2  0
  8  9  1  0
  9 10  1  0
 10 11  2  0
 11 12  1  0
 12 13  2  0
 13 14  1  0
 14 15  2  0
  7 16  1  0
 16  3  1  0
 15 10  1  0
  1 17  1  0
  1 18  1  0
  1 19  1  0
  4 20  1  0
  5 21  1  0
  6 22  1  0
  9 23  1  0
  9 24  1  0
 11 25  1  0
 12 26  1  0
 13 27  1  0
 14 28  1  0
 15 29  1  0
 16 30  1  0
M  END
>  <smiles>  (79) 
CN=c1[nH]ccc(=NCc2ccccc2)[nH]1

>  <score_type>  (79) 
oracle

>  <origin>  (79) 
adg

>  <m_score__min__energy>  (79) 
-6.6900000000000004

>  <m_primary>  (79) 
energy

$$$$
79:0
     RDKit          3D

 41 42  0  0  0  0  0  0  0  0999 V2000
   55.1500   26.5790   46.0050 N   0  0  0  0  0  0  0  0  0  0  0  0
   56.2910   25.7700   45.5820 C   0  0  0  0  0  0  0  0  0  0  0  0
   57.5360   26.6420   45.3720 C   0  0  0  0  0  0  0  0  0  0  0  0
   57.7640   27.0410   43.9080 C   0  0  0  0  0  0  0  0  0  0  0  0
   57.7600   28.4970   43.7580 N   0  0  0  0  0  0  0  0  0  0  0  0
   56.8270   29.3500   44.4400 C   0  0  0  0  0  0  0  0  0  0  0  0
   55.9210   28.8460   45.1570 O   0  0  0  0  0  0  0  0  0  0  0  0
   56.9470   30.8200   44.3390 C   0  0  0  0  0  0  0  0  0  0  0  0
   57.0200   31.3600   43.2030 O   0  0  0  0  0  0  0  0  0  0  0  0
   57.0670   31.6490   45.5020 N   0  0  0  0  0  0  0  0  0  0  0  0
   58.0430   32.6830   45.6890 C   0  0  0  0  0  0  0  0  0  0  0  0
   58.2740   33.6410   44.6870 C   0  0  0  0  0  0  0  0  0  0  0  0
   59.2360   34.6360   44.8710 C   0  0  0  0  0  0  0  0  0  0  0  0
   59.9810   34.6790   46.0520 C   0  0  0  0  0  0  0  0  0  0  0  0
   59.7660   33.7240   47.0490 C   0  0  0  0  0  0  0  0  0  0  0  0
   58.8010   32.7230   46.8720 C   0  0  0  0  0  0  0  0  0  0  0  0
   58.5260   31.5320   48.1910 S   0  0  0  0  0  0  0  0  0  0  0  0
   59.2960   30.1940   47.2760 C   0  0  0  0  0  0  0  0  0  0  0  0
   59.9430   30.4510   46.0610 C   0  0  0  0  0  0  0  0  0  0  0  0
   60.5570   29.4070   45.3590 C   0  0  0  0  0  0  0  0  0  0  0  0
   60.5150   28.1040   45.8670 C   0  0  0  0  0  0  0  0  0  0  0  0
   59.8570   27.8430   47.0720 C   0  0  0  0  0  0  0  0  0  0  0  0
   59.2480   28.8850   47.7770 C   0  0  0  0  0  0  0  0  0  0  0  0
   54.7820   27.0930   45.1740 H   0  0  0  0  0  0  0  0  0  0  0  0
   55.5040   27.3100   46.6630 H   0  0  0  0  0  0  0  0  0  0  0  0
   56.5050   25.0178   46.3555 H   0  0  0  0  0  0  0  0  0  0  0  0
   56.0402   25.2820   44.6286 H   0  0  0  0  0  0  0  0  0  0  0  0
   57.4237   27.5588   45.9693 H   0  0  0  0  0  0  0  0  0  0  0  0
   58.4056   26.0448   45.6838 H   0  0  0  0  0  0  0  0  0  0  0  0
   58.7352   26.6470   43.5742 H   0  0  0  0  0  0  0  0  0  0  0  0
   56.9500   26.6221   43.2981 H   0  0  0  0  0  0  0  0  0  0  0  0
   58.5210   28.9250   43.1850 H   0  0  0  0  0  0  0  0  0  0  0  0
   57.6939   33.6067   43.7530 H   0  0  0  0  0  0  0  0  0  0  0  0
   59.4074   35.3867   44.0854 H   0  0  0  0  0  0  0  0  0  0  0  0
   60.7370   35.4648   46.1970 H   0  0  0  0  0  0  0  0  0  0  0  0
   60.3564   33.7579   47.9765 H   0  0  0  0  0  0  0  0  0  0  0  0
   59.9688   31.4741   45.6578 H   0  0  0  0  0  0  0  0  0  0  0  0
   61.0721   29.6109   44.4087 H   0  0  0  0  0  0  0  0  0  0  0  0
   61.0004   27.2841   45.3173 H   0  0  0  0  0  0  0  0  0  0  0  0
   59.8183   26.8167   47.4659 H   0  0  0  0  0  0  0  0  0  0  0  0
   58.7307   28.6782   48.7255 H   0  0  0  0  0  0  0  0  0  0  0  0
  1  2  1  0
  2  3  1  0
  3  4  1  0
  4  5  1  0
  5  6  1  0
  6  7  2  0
  6  8  1  0
  8  9  2  0
  8 10  1  0
 10 11  1  0
 11 12  2  0
 12 13  1  0
 13 14  2  0
 14 15  1  0
 15 16  2  0
 16 17  1  0
 17 18  1  0
 18 19  2  0
 19 20  1  0
 20 21  2  0
 21 22  1  0
 22 23  2  0
 16 11  1  0
 23 18  1  0
  1 24  1  0
  1 25  1  0
  2 26  1  0
  2 27  1  0
  3 28  1  0
  3 29  1  0
  4 30  1  0
  4 31  1  0
  5 32  1  0
 12 33  1  0
 13 34  1  0
 14 35  1  0
 15 36  1  0
 19 37  1  0
 20 38  1  0
 21 39  1  0
 22 40  1  0
 23 41  1  0
M  CHG  1  10  -1
M  END
>  <UniqueID>  (80) 
74

>  <SMILES>  (80) 
NCCCNC(=O)C(=O)[N-]c1ccccc1Sc1ccccc1

>  <Energy>  (80) 
33.75253439042421

>  <Genealogy>  (80) 
NCCCNC(=O)C(=O)[N-]c1ccccc1Sc1ccccc1 (protonated)
NCCCNC(=O)C(=O)[N-]c1ccccc1Sc1ccccc1 (3D coordinates assigned)
NCCCNC(=O)C(=O)[N-]c1ccccc1Sc1ccccc1 (optimized conformer: 33.75253439042421 kcal/mol)

>  <smiles>  (80) 
NCCCNC(=O)C(=O)Nc1ccccc1Sc1ccccc1

>  <score_type>  (80) 
oracle

>  <origin>  (80) 
adg

>  <m_score__min__energy>  (80) 
-9.9499999999999993

>  <m_primary>  (80) 
energy

$$$$
80:0
     RDKit          3D

 46 48  0  0  0  0  0  0  0  0999 V2000
   56.3710   30.0370   42.8430 C   0  0  0  0  0  0  0  0  0  0  0  0
   56.4070   29.6120   44.2800 C   0  0  0  0  0  0  0  0  0  0  0  0
   55.3120   29.4150   44.8740 O   0  0  0  0  0  0  0  0  0  0  0  0
   57.6890   29.4200   45.0110 C   0  0  0  0  0  0  0  0  0  0  0  0
   58.7740   28.7420   44.4240 C   0  0  0  0  0  0  0  0  0  0  0  0
   59.9650   28.5640   45.1300 C   0  0  0  0  0  0  0  0  0  0  0  0
   60.0970   29.0650   46.4260 C   0  0  0  0  0  0  0  0  0  0  0  0
   59.0350   29.7650   47.0230 C   0  0  0  0  0  0  0  0  0  0  0  0
   59.1220   30.2780   48.3600 N   0  0  0  0  0  0  0  0  0  0  0  0
   59.0920   31.6590   48.7460 C   0  0  0  0  0  0  0  0  0  0  0  0
   58.4140   32.0240   49.7470 O   0  0  0  0  0  0  0  0  0  0  0  0
   59.9180   32.6090   48.0380 N   0  0  2  0  0  0  0  0  0  0  0  0
   60.4830   33.6270   48.9550 C   0  0  0  0  0  0  0  0  0  0  0  0
   61.9830   33.4870   49.0760 C   0  0  0  0  0  0  0  0  0  0  0  0
   62.6050   33.5370   50.3350 C   0  0  0  0  0  0  0  0  0  0  0  0
   63.9880   33.3610   50.4450 C   0  0  0  0  0  0  0  0  0  0  0  0
   64.7580   33.1300   49.3020 C   0  0  0  0  0  0  0  0  0  0  0  0
   64.1460   33.0690   48.0470 C   0  0  0  0  0  0  0  0  0  0  0  0
   62.7630   33.2430   47.9330 C   0  0  0  0  0  0  0  0  0  0  0  0
   59.1670   33.2140   46.9490 C   0  0  0  0  0  0  0  0  0  0  0  0
   59.8060   33.9590   45.9300 C   0  0  0  0  0  0  0  0  0  0  0  0
   59.0590   34.5460   44.9040 C   0  0  0  0  0  0  0  0  0  0  0  0
   57.6700   34.4080   44.8790 C   0  0  0  0  0  0  0  0  0  0  0  0
   57.0230   33.6840   45.8810 C   0  0  0  0  0  0  0  0  0  0  0  0
   57.7620   33.0950   46.9110 C   0  0  0  0  0  0  0  0  0  0  0  0
   57.8340   29.9200   46.3210 C   0  0  0  0  0  0  0  0  0  0  0  0
   56.2783   31.1316   42.7866 H   0  0  0  0  0  0  0  0  0  0  0  0
   57.2991   29.7214   42.3439 H   0  0  0  0  0  0  0  0  0  0  0  0
   55.5092   29.5698   42.3439 H   0  0  0  0  0  0  0  0  0  0  0  0
   58.6826   28.3492   43.4006 H   0  0  0  0  0  0  0  0  0  0  0  0
   60.8033   28.0264   44.6628 H   0  0  0  0  0  0  0  0  0  0  0  0
   61.0342   28.9116   46.9811 H   0  0  0  0  0  0  0  0  0  0  0  0
   60.7270   32.0840   47.6270 H   0  0  0  0  0  0  0  0  0  0  0  0
   60.2470   34.6288   48.5669 H   0  0  0  0  0  0  0  0  0  0  0  0
   60.0398   33.4804   49.9510 H   0  0  0  0  0  0  0  0  0  0  0  0
   62.0018   33.7152   51.2375 H   0  0  0  0  0  0  0  0  0  0  0  0
   64.4704   33.4045   51.4326 H   0  0  0  0  0  0  0  0  0  0  0  0
   65.8463   32.9961   49.3901 H   0  0  0  0  0  0  0  0  0  0  0  0
   64.7526   32.8840   47.1482 H   0  0  0  0  0  0  0  0  0  0  0  0
   62.2838   33.1886   46.9443 H   0  0  0  0  0  0  0  0  0  0  0  0
   60.8995   34.0774   45.9450 H   0  0  0  0  0  0  0  0  0  0  0  0
   59.5674   35.1183   44.1141 H   0  0  0  0  0  0  0  0  0  0  0  0
   57.0858   34.8700   44.0695 H   0  0  0  0  0  0  0  0  0  0  0  0
   55.9285   33.5764   45.8604 H   0  0  0  0  0  0  0  0  0  0  0  0
   57.2422   32.5325   47.7006 H   0  0  0  0  0  0  0  0  0  0  0  0
   56.9905   30.4399   46.7988 H   0  0  0  0  0  0  0  0  0  0  0  0
  1  2  1  0
  2  3  2  0
  2  4  1  0
  4  5  2  0
  5  6  1  0
  6  7  2  0
  7  8  1  0
  8  9  1  0
  9 10  1  0
 10 11  2  0
 10 12  1  0
 12 13  1  0
 13 14  1  0
 14 15  2  0
 15 16  1  0
 16 17  2  0
 17 18  1  0
 18 19  2  0
 12 20  1  0
 20 21  2  0
 21 22  1  0
 22 23  2  0
 23 24  1  0
 24 25  2  0
  8 26  2  0
 26  4  1  0
 19 14  1  0
 25 20  1  0
  1 27  1  0
  1 28  1  0
  1 29  1  0
  5 30  1  0
  6 31  1  0
  7 32  1  0
 12 33  1  6
 13 34  1  0
 13 35  1  0
 15 36  1  0
 16 37  1  0
 17 38  1  0
 18 39  1  0
 19 40  1  0
 21 41  1  0
 22 42  1  0
 23 43  1  0
 24 44  1  0
 25 45  1  0
 26 46  1  0
M  CHG  2   9  -1  12   1
M  END
>  <UniqueID>  (81) 
75

>  <SMILES>  (81) 
CC(=O)c1cccc([N-]C(=O)[N@H+](Cc2ccccc2)c2ccccc2)c1

>  <Energy>  (81) 
57.85580132642265

>  <Genealogy>  (81) 
CC(=O)c1cccc([N-]C(=O)[NH+](Cc2ccccc2)c2ccccc2)c1 (protonated)
CC(=O)c1cccc([N-]C(=O)[N@H+](Cc2ccccc2)c2ccccc2)c1 (chirality)
CC(=O)c1cccc([N-]C(=O)[N@H+](Cc2ccccc2)c2ccccc2)c1 (3D coordinates assigned)
CC(=O)c1cccc([N-]C(=O)[N@H+](Cc2ccccc2)c2ccccc2)c1 (optimized conformer: 57.85580132642265 kcal/mol)

>  <smiles>  (81) 
CC(=O)c1cccc(NC(=O)N(Cc2ccccc2)c2ccccc2)c1

>  <score_type>  (81) 
oracle

>  <origin>  (81) 
adg

>  <m_score__min__energy>  (81) 
-8.3900000000000006

>  <m_primary>  (81) 
energy

$$$$
81:0
     RDKit          3D

 46 48  0  0  1  0  0  0  0  0999 V2000
   60.5000   29.5560   48.0300 C   0  0  0  0  0  0  0  0  0  0  0  0
   61.0480   30.3610   47.0020 O   0  0  0  0  0  0  0  0  0  0  0  0
   61.7150   31.5100   47.4040 C   0  0  0  0  0  0  0  0  0  0  0  0
   63.0830   31.5920   47.5290 C   0  0  0  0  0  0  0  0  0  0  0  0
   63.7400   32.7290   47.9280 C   0  0  0  0  0  0  0  0  0  0  0  0
   62.9990   33.8630   48.2220 C   0  0  0  0  0  0  0  0  0  0  0  0
   59.0280   28.6070   44.9020 C   0  0  0  0  0  0  0  0  0  0  0  0
   57.7900   29.1980   44.6870 C   0  0  0  0  0  0  0  0  0  0  0  0
   59.5670   32.6860   47.6090 N   0  0  0  0  0  0  0  0  0  0  0  0
   58.9000   32.7300   46.5230 C   0  0  0  0  0  0  0  0  0  0  0  0
   58.7130   31.5660   45.8650 N   0  0  0  0  0  0  0  0  0  0  0  0
   58.0020   31.5890   44.7020 C   0  0  0  0  0  0  0  0  0  0  0  0
   57.8150   30.4850   44.0620 N   0  0  0  0  0  0  0  0  0  0  0  0
   60.9910   32.6470   47.7010 C   0  0  0  0  0  0  0  0  0  0  0  0
   61.6070   33.8310   48.1110 C   0  0  0  0  0  0  0  0  0  0  0  0
   59.0690   27.3650   45.5030 C   0  0  0  0  0  0  0  0  0  0  0  0
   57.8930   26.7460   45.8710 C   0  0  0  0  0  0  0  0  0  0  0  0
   57.9100   25.5000   46.4740 O   0  0  0  0  0  0  0  0  0  0  0  0
   58.5530   24.3780   45.8600 C   0  0  0  0  0  0  0  0  0  0  0  0
   56.6620   27.3280   45.6600 C   0  0  0  0  0  0  0  0  0  0  0  0
   55.5050   26.6650   46.0480 O   0  0  0  0  0  0  0  0  0  0  0  0
   55.3140   25.3410   45.6260 C   0  0  0  0  0  0  0  0  0  0  0  0
   56.6050   28.5800   45.0560 C   0  0  0  0  0  0  0  0  0  0  0  0
   57.4880   32.7210   44.1980 N   0  0  0  0  0  0  0  0  0  0  0  0
   57.6660   33.9030   44.8450 C   0  0  0  0  0  0  0  0  0  0  0  0
   58.3880   33.9120   46.0370 C   0  0  0  0  0  0  0  0  0  0  0  0
   58.5870   35.0820   46.7150 F   0  0  0  0  0  0  0  0  0  0  0  0
   60.7818   29.9699   49.0094 H   0  0  0  0  0  0  0  0  0  0  0  0
   59.4038   29.5418   47.9396 H   0  0  0  0  0  0  0  0  0  0  0  0
   60.8887   28.5309   47.9396 H   0  0  0  0  0  0  0  0  0  0  0  0
   63.6817   30.6989   47.2968 H   0  0  0  0  0  0  0  0  0  0  0  0
   64.8366   32.7402   48.0131 H   0  0  0  0  0  0  0  0  0  0  0  0
   63.5058   34.7855   48.5418 H   0  0  0  0  0  0  0  0  0  0  0  0
   59.9548   29.1169   44.6003 H   0  0  0  0  0  0  0  0  0  0  0  0
   59.0950   30.6590   46.2200 H   0  0  0  0  0  0  0  0  0  0  0  0
   61.0065   34.7231   48.3426 H   0  0  0  0  0  0  0  0  0  0  0  0
   60.0347   26.8716   45.6874 H   0  0  0  0  0  0  0  0  0  0  0  0
   58.9389   23.7047   46.6396 H   0  0  0  0  0  0  0  0  0  0  0  0
   57.8279   23.8370   45.2343 H   0  0  0  0  0  0  0  0  0  0  0  0
   59.3864   24.7302   45.2343 H   0  0  0  0  0  0  0  0  0  0  0  0
   55.2195   24.6861   46.5047 H   0  0  0  0  0  0  0  0  0  0  0  0
   54.3974   25.2775   45.0212 H   0  0  0  0  0  0  0  0  0  0  0  0
   56.1753   25.0211   45.0212 H   0  0  0  0  0  0  0  0  0  0  0  0
   55.6374   29.0707   44.8745 H   0  0  0  0  0  0  0  0  0  0  0  0
   56.9410   32.7250   43.2970 H   0  0  0  0  0  0  0  0  0  0  0  0
   57.2482   34.8346   44.4356 H   0  0  0  0  0  0  0  0  0  0  0  0
  1  2  1  0
  2  3  1  0
  3  4  2  0
  4  5  1  0
  5  6  2  0
  6  7  1  0
  7  8  2  0
  8  9  1  0
  9 10  2  0
 10 11  1  0
 11 12  1  0
 12 13  2  0
 13 14  1  0
 14 15  2  0
 15 16  1  0
 16 17  2  0
 17 18  1  0
 18 19  1  0
 17 20  1  0
 20 21  1  0
 21 22  1  0
 20 23  2  0
 12 24  1  0
 24 25  1  0
 25 26  2  0
 26 27  1  0
  8  3  1  0
 26 10  1  0
 23 14  1  0
  1 28  1  0
  1 29  1  0
  1 30  1  0
  4 31  1  0
  5 32  1  0
  6 33  1  0
  7 34  1  0
 11 35  1  0
 15 36  1  0
 16 37  1  0
 19 38  1  0
 19 39  1  0
 19 40  1  0
 22 41  1  0
 22 42  1  0
 22 43  1  0
 23 44  1  0
 24 45  1  0
 25 46  1  0
M  END
>  <smiles>  (82) 
COc1ccccc1N=c1[nH]c(=Nc2ccc(OC)c(OC)c2)[nH]cc1F

>  <score_type>  (82) 
oracle

>  <origin>  (82) 
adg

>  <m_score__min__energy>  (82) 
-7.3200000000000003

>  <m_primary>  (82) 
energy

$$$$
82:0
     RDKit          3D

 61 63  0  0  0  0  0  0  0  0999 V2000
   63.3620   34.2420   46.3910 C   0  0  0  0  0  0  0  0  0  0  0  0
   63.5540   32.8160   46.8950 C   0  0  0  0  0  0  0  0  0  0  0  0
   62.6100   32.5140   47.9220 O   0  0  0  0  0  0  0  0  0  0  0  0
   62.9100   31.9370   49.1690 C   0  0  0  0  0  0  0  0  0  0  0  0
   64.1260   32.1750   49.8410 C   0  0  0  0  0  0  0  0  0  0  0  0
   64.3780   31.5760   51.0800 C   0  0  0  0  0  0  0  0  0  0  0  0
   63.4240   30.7410   51.6630 C   0  0  0  0  0  0  0  0  0  0  0  0
   62.2160   30.4990   51.0080 C   0  0  0  0  0  0  0  0  0  0  0  0
   61.9540   31.0880   49.7610 C   0  0  0  0  0  0  0  0  0  0  0  0
   60.7050   30.8360   49.0990 N   0  0  0  0  0  0  0  0  0  0  0  0
   60.3310   29.4720   48.7100 C   0  0  0  0  0  0  0  0  0  0  0  0
   60.1210   29.3490   47.2300 C   0  0  0  0  0  0  0  0  0  0  0  0
   60.7420   30.0940   46.4240 O   0  0  0  0  0  0  0  0  0  0  0  0
   59.2750   28.3440   46.7520 O   0  0  0  0  0  0  0  0  0  0  0  0
   57.8810   28.3110   47.0370 C   0  0  0  0  0  0  0  0  0  0  0  0
   57.1130   28.1580   45.7580 C   0  0  0  0  0  0  0  0  0  0  0  0
   57.1080   27.0360   45.1860 O   0  0  0  0  0  0  0  0  0  0  0  0
   56.4370   29.2540   45.1300 N   0  0  0  0  0  0  0  0  0  0  0  0
   57.0350   30.4140   44.5320 C   0  0  0  0  0  0  0  0  0  0  0  0
   56.8580   30.6340   43.1600 C   0  0  0  0  0  0  0  0  0  0  0  0
   57.4050   31.7660   42.5500 C   0  0  0  0  0  0  0  0  0  0  0  0
   58.1230   32.6930   43.3070 C   0  0  0  0  0  0  0  0  0  0  0  0
   58.2890   32.4960   44.6860 C   0  0  0  0  0  0  0  0  0  0  0  0
   59.1650   33.6760   45.6570 S   0  0  0  0  0  0  0  0  0  0  0  0
   60.5880   32.9470   46.3180 N   0  0  0  0  0  0  0  0  0  0  0  0
   59.5530   34.8440   44.7930 O   0  0  0  0  0  0  0  0  0  0  0  0
   58.2930   34.1720   46.7740 O   0  0  0  0  0  0  0  0  0  0  0  0
   57.7240   31.3690   45.2990 C   0  0  0  0  0  0  0  0  0  0  0  0
   59.5010   32.0870   49.0870 S   0  0  0  0  0  0  0  0  0  0  0  0
   60.1290   33.4130   48.7590 O   0  0  0  0  0  0  0  0  0  0  0  0
   58.4680   31.7830   48.0390 O   0  0  0  0  0  0  0  0  0  0  0  0
   58.7540   32.1730   50.6760 C   0  0  0  0  0  0  0  0  0  0  0  0
   59.0060   33.2750   51.5070 C   0  0  0  0  0  0  0  0  0  0  0  0
   58.4360   33.3380   52.7810 C   0  0  0  0  0  0  0  0  0  0  0  0
   57.6200   32.2980   53.2350 C   0  0  0  0  0  0  0  0  0  0  0  0
   57.3740   31.1940   52.4140 C   0  0  0  0  0  0  0  0  0  0  0  0
   57.9420   31.1280   51.1380 C   0  0  0  0  0  0  0  0  0  0  0  0
   63.2701   34.9247   47.2486 H   0  0  0  0  0  0  0  0  0  0  0  0
   64.2288   34.5349   45.7804 H   0  0  0  0  0  0  0  0  0  0  0  0
   62.4486   34.2952   45.7804 H   0  0  0  0  0  0  0  0  0  0  0  0
   63.4146   32.1153   46.0586 H   0  0  0  0  0  0  0  0  0  0  0  0
   64.5692   32.7197   47.3075 H   0  0  0  0  0  0  0  0  0  0  0  0
   64.8808   32.8352   49.3889 H   0  0  0  0  0  0  0  0  0  0  0  0
   65.3311   31.7638   51.5961 H   0  0  0  0  0  0  0  0  0  0  0  0
   63.6242   30.2738   52.6385 H   0  0  0  0  0  0  0  0  0  0  0  0
   61.4646   29.8428   51.4715 H   0  0  0  0  0  0  0  0  0  0  0  0
   61.1332   28.7833   49.0136 H   0  0  0  0  0  0  0  0  0  0  0  0
   59.3834   29.2231   49.2101 H   0  0  0  0  0  0  0  0  0  0  0  0
   57.6623   27.4610   47.7000 H   0  0  0  0  0  0  0  0  0  0  0  0
   57.5856   29.2477   47.5324 H   0  0  0  0  0  0  0  0  0  0  0  0
   56.2854   29.9118   42.5595 H   0  0  0  0  0  0  0  0  0  0  0  0
   57.2693   31.9269   41.4703 H   0  0  0  0  0  0  0  0  0  0  0  0
   58.5591   33.5788   42.8220 H   0  0  0  0  0  0  0  0  0  0  0  0
   61.0280   33.6550   46.9510 H   0  0  0  0  0  0  0  0  0  0  0  0
   60.2700   32.1560   46.9240 H   0  0  0  0  0  0  0  0  0  0  0  0
   57.8204   31.2314   46.3861 H   0  0  0  0  0  0  0  0  0  0  0  0
   59.6538   34.0912   51.1547 H   0  0  0  0  0  0  0  0  0  0  0  0
   58.6296   34.2068   53.4273 H   0  0  0  0  0  0  0  0  0  0  0  0
   57.1715   32.3484   54.2382 H   0  0  0  0  0  0  0  0  0  0  0  0
   56.7324   30.3755   52.7723 H   0  0  0  0  0  0  0  0  0  0  0  0
   57.7514   30.2552   50.4962 H   0  0  0  0  0  0  0  0  0  0  0  0
  1  2  1  0
  2  3  1  0
  3  4  1  0
  4  5  2  0
  5  6  1  0
  6  7  2  0
  7  8  1  0
  8  9  2  0
  9 10  1  0
 10 11  1  0
 11 12  1  0
 12 13  2  0
 12 14  1  0
 14 15  1  0
 15 16  1  0
 16 17  2  0
 16 18  1  0
 18 19  1  0
 19 20  2  0
 20 21  1  0
 21 22  2  0
 22 23  1  0
 23 24  1  0
 24 25  1  0
 24 26  2  0
 24 27  2  0
 23 28  2  0
 10 29  1  0
 29 30  2  0
 29 31  2  0
 29 32  1  0
 32 33  2  0
 33 34  1  0
 34 35  2  0
 35 36  1  0
 36 37  2  0
  9  4  1  0
 28 19  1  0
 37 32  1  0
  1 38  1  0
  1 39  1  0
  1 40  1  0
  2 41  1  0
  2 42  1  0
  5 43  1  0
  6 44  1  0
  7 45  1  0
  8 46  1  0
 11 47  1  0
 11 48  1  0
 15 49  1  0
 15 50  1  0
 20 51  1  0
 21 52  1  0
 22 53  1  0
 25 54  1  0
 25 55  1  0
 28 56  1  0
 33 57  1  0
 34 58  1  0
 35 59  1  0
 36 60  1  0
 37 61  1  0
M  CHG  1  18  -1
M  END
>  <UniqueID>  (83) 
76

>  <SMILES>  (83) 
CCOc1ccccc1N(CC(=O)OCC(=O)[N-]c1cccc(S(N)(=O)=O)c1)S(=O)(=O)c1ccccc1

>  <Energy>  (83) 
65.55439033837571

>  <Genealogy>  (83) 
CCOc1ccccc1N(CC(=O)OCC(=O)[N-]c1cccc(S(N)(=O)=O)c1)S(=O)(=O)c1ccccc1 (protonated)
CCOc1ccccc1N(CC(=O)OCC(=O)[N-]c1cccc(S(N)(=O)=O)c1)S(=O)(=O)c1ccccc1 (3D coordinates assigned)
CCOc1ccccc1N(CC(=O)OCC(=O)[N-]c1cccc(S(N)(=O)=O)c1)S(=O)(=O)c1ccccc1 (optimized conformer: 65.55439033837571 kcal/mol)

>  <smiles>  (83) 
CCOc1ccccc1N(CC(=O)OCC(=O)Nc1cccc(S(N)(=O)=O)c1)S(=O)(=O)c1ccccc1

>  <score_type>  (83) 
oracle

>  <origin>  (83) 
adg

>  <m_score__min__energy>  (83) 
-11.42

>  <m_primary>  (83) 
energy

$$$$
83:0
     RDKit          3D

 53 56  0  0  0  0  0  0  0  0999 V2000
   58.2015   21.7379   43.2974 H   0  0  0  0  0  0  0  0  0  0  0  0
   57.3680   22.2720   43.7770 C   0  0  0  0  0  0  0  0  0  0  0  0
   56.4900   23.0320   43.0040 C   0  0  0  0  0  0  0  0  0  0  0  0
   56.6338   23.0986   41.9155 H   0  0  0  0  0  0  0  0  0  0  0  0
   55.4280   23.7090   43.6100 C   0  0  0  0  0  0  0  0  0  0  0  0
   54.7453   24.3149   42.9962 H   0  0  0  0  0  0  0  0  0  0  0  0
   55.2260   23.6210   44.9990 C   0  0  0  0  0  0  0  0  0  0  0  0
   54.1060   24.4080   45.6260 C   0  0  0  0  0  0  0  0  0  0  0  0
   53.9540   24.0707   46.6619 H   0  0  0  0  0  0  0  0  0  0  0  0
   53.1792   24.2526   45.0543 H   0  0  0  0  0  0  0  0  0  0  0  0
   54.4540   25.8210   45.6200 N   0  0  0  0  0  0  0  0  0  0  0  0
   55.7330   26.3200   46.0270 C   0  0  0  0  0  0  0  0  0  0  0  0
   56.3630   25.7510   46.9570 O   0  0  0  0  0  0  0  0  0  0  0  0
   56.2610   27.5310   45.4650 N   0  0  0  0  0  0  0  0  0  0  0  0
   57.2520   28.2630   45.8950 C   0  0  0  0  0  0  0  0  0  0  0  0
   58.2840   27.6370   46.5150 N   0  0  0  0  0  0  0  0  0  0  0  0
   59.3520   28.3090   47.0060 C   0  0  0  0  0  0  0  0  0  0  0  0
   60.1671   27.7580   47.4979 H   0  0  0  0  0  0  0  0  0  0  0  0
   59.4230   29.7030   46.8900 C   0  0  0  0  0  0  0  0  0  0  0  0
   60.5240   30.3840   47.4000 C   0  0  0  0  0  0  0  0  0  0  0  0
   61.3264   29.8272   47.9062 H   0  0  0  0  0  0  0  0  0  0  0  0
   60.6140   31.7680   47.2720 C   0  0  0  0  0  0  0  0  0  0  0  0
   61.8070   32.4720   47.8110 C   0  0  0  0  0  0  0  0  0  0  0  0
   61.7310   33.2130   49.0010 C   0  0  0  0  0  0  0  0  0  0  0  0
   60.7807   33.2708   49.5519 H   0  0  0  0  0  0  0  0  0  0  0  0
   62.8580   33.8760   49.4860 C   0  0  0  0  0  0  0  0  0  0  0  0
   62.8029   34.4536   50.4205 H   0  0  0  0  0  0  0  0  0  0  0  0
   64.0560   33.8000   48.7750 C   0  0  0  0  0  0  0  0  0  0  0  0
   64.9511   34.3174   49.1505 H   0  0  0  0  0  0  0  0  0  0  0  0
   64.1190   33.0870   47.6180 N   0  0  0  0  0  0  0  0  0  0  0  0
   65.0230   33.0410   47.0950 H   0  0  0  0  0  0  0  0  0  0  0  0
   63.0330   32.4320   47.1250 C   0  0  0  0  0  0  0  0  0  0  0  0
   63.1151   31.8680   46.1842 H   0  0  0  0  0  0  0  0  0  0  0  0
   59.5680   32.4640   46.6410 C   0  0  0  0  0  0  0  0  0  0  0  0
   59.6320   33.7250   46.5730 O   0  0  0  0  0  0  0  0  0  0  0  0
   58.4760   31.7970   46.1210 N   0  0  0  0  0  0  0  0  0  0  0  0
   57.4280   32.6170   45.4590 C   0  0  0  0  0  0  0  0  0  0  0  0
   56.4893   32.0439   45.4416 H   0  0  0  0  0  0  0  0  0  0  0  0
   57.3195   33.5497   46.0319 H   0  0  0  0  0  0  0  0  0  0  0  0
   57.8050   32.9940   44.0130 C   0  0  0  0  0  0  0  0  0  0  0  0
   57.0742   33.7317   43.6500 H   0  0  0  0  0  0  0  0  0  0  0  0
   58.8326   33.3845   44.0525 H   0  0  0  0  0  0  0  0  0  0  0  0
   57.8270   31.8200   43.0280 C   0  0  0  0  0  0  0  0  0  0  0  0
   58.8110   30.9130   43.3730 F   0  0  0  0  0  0  0  0  0  0  0  0
   56.6040   31.1750   43.0700 F   0  0  0  0  0  0  0  0  0  0  0  0
   58.0410   32.2670   41.7380 F   0  0  0  0  0  0  0  0  0  0  0  0
   58.3900   30.4160   46.2360 C   0  0  0  0  0  0  0  0  0  0  0  0
   57.3090   29.6610   45.7150 C   0  0  0  0  0  0  0  0  0  0  0  0
   56.5053   30.1713   45.1640 H   0  0  0  0  0  0  0  0  0  0  0  0
   56.1270   22.8610   45.7780 C   0  0  0  0  0  0  0  0  0  0  0  0
   55.9660   22.7260   47.5250 Cl  0  0  0  0  0  0  0  0  0  0  0  0
   57.1890   22.1890   45.1600 C   0  0  0  0  0  0  0  0  0  0  0  0
   57.8860   21.5925   45.7669 H   0  0  0  0  0  0  0  0  0  0  0  0
  1  2  1  0
  2  3  2  0
  3  4  1  0
  3  5  1  0
  5  6  1  0
  5  7  2  0
  7  8  1  0
  8  9  1  0
  8 10  1  0
  8 11  1  0
 11 12  1  0
 12 13  2  0
 12 14  1  0
 14 15  2  0
 15 16  1  0
 16 17  1  0
 17 18  1  0
 17 19  2  0
 19 20  1  0
 20 21  1  0
 20 22  2  0
 22 23  1  0
 23 24  2  0
 24 25  1  0
 24 26  1  0
 26 27  1  0
 26 28  2  0
 28 29  1  0
 28 30  1  0
 30 31  1  0
 30 32  2  0
 32 33  1  0
 22 34  1  0
 34 35  2  0
 34 36  1  0
 36 37  1  0
 37 38  1  0
 37 39  1  0
 37 40  1  0
 40 41  1  0
 40 42  1  0
 40 43  1  0
 43 44  1  0
 43 45  1  0
 43 46  1  0
 36 47  1  0
 47 48  2  0
 48 49  1  0
  7 50  1  0
 50 51  1  0
 50 52  2  0
 52 53  1  0
 52  2  1  0
 48 15  1  0
 47 19  1  0
 32 23  1  0
M  CHG  3  11  -1  16  -1  30   1
M  END
>  <UniqueID>  (84) 
77

>  <SMILES>  (84) 
O=C(/N=c1\cc2c(c[n-]1)cc(-c1ccc[nH+]c1)c(=O)n2CCC(F)(F)F)[N-]Cc1ccccc1Cl

>  <Energy>  (84) 
78.88723166551561

>  <Genealogy>  (84) 
O=C(N=c1cc2c(c[n-]1)cc(-c1ccc[nH+]c1)c(=O)n2CCC(F)(F)F)[N-]Cc1ccccc1Cl (protonated)
O=C(/N=c1\cc2c(c[n-]1)cc(-c1ccc[nH+]c1)c(=O)n2CCC(F)(F)F)[N-]Cc1ccccc1Cl (cis-trans isomerization)
O=C(/N=c1\cc2c(c[n-]1)cc(-c1ccc[nH+]c1)c(=O)n2CCC(F)(F)F)[N-]Cc1ccccc1Cl (3D coordinates assigned)
O=C(/N=c1\cc2c(c[n-]1)cc(-c1ccc[nH+]c1)c(=O)n2CCC(F)(F)F)[N-]Cc1ccccc1Cl (optimized conformer: 78.88723166551561 kcal/mol)

>  <smiles>  (84) 
O=C(N=c1cc2c(c[nH]1)cc(-c1cccnc1)c(=O)n2CCC(F)(F)F)NCc1ccccc1Cl

>  <score_type>  (84) 
oracle

>  <origin>  (84) 
adg

>  <m_score__min__energy>  (84) 
-10.119999999999999

>  <m_primary>  (84) 
energy

$$$$
84:0
     RDKit          3D

 34 35  0  0  0  0  0  0  0  0999 V2000
   57.9900   32.9070   43.7220 C   0  0  0  0  0  0  0  0  0  0  0  0
   58.6270   33.4780   44.9600 C   0  0  0  0  0  0  0  0  0  0  0  0
   59.2280   34.7480   44.9090 C   0  0  0  0  0  0  0  0  0  0  0  0
   59.8260   35.2950   46.0450 C   0  0  0  0  0  0  0  0  0  0  0  0
   59.8210   34.5860   47.2480 C   0  0  0  0  0  0  0  0  0  0  0  0
   59.2200   33.3290   47.3160 C   0  0  0  0  0  0  0  0  0  0  0  0
   58.6260   32.7570   46.1760 C   0  0  0  0  0  0  0  0  0  0  0  0
   57.9740   31.4780   46.2660 N   0  0  0  0  0  0  0  0  0  0  0  0
   58.5430   30.2650   45.7500 C   0  0  0  0  0  0  0  0  0  0  0  0
   59.6380   30.2840   45.1250 O   0  0  0  0  0  0  0  0  0  0  0  0
   57.8400   28.9770   45.9340 C   0  0  0  0  0  0  0  0  0  0  0  0
   58.3940   27.9650   46.7500 C   0  0  0  0  0  0  0  0  0  0  0  0
   59.7090   28.1550   47.4600 C   0  0  0  0  0  0  0  0  0  0  0  0
   57.7040   26.7550   46.8910 C   0  0  0  0  0  0  0  0  0  0  0  0
   56.4840   26.5860   46.2400 C   0  0  0  0  0  0  0  0  0  0  0  0
   55.8460   25.5080   46.3700 O   0  0  0  0  0  0  0  0  0  0  0  0
   55.9880   27.5540   45.4790 O   0  0  0  0  0  0  0  0  0  0  0  0
   56.6060   28.7180   45.2920 C   0  0  0  0  0  0  0  0  0  0  0  0
   55.9480   29.7220   44.3900 C   0  0  0  0  0  0  0  0  0  0  0  0
   57.1995   32.1984   44.0099 H   0  0  0  0  0  0  0  0  0  0  0  0
   57.5530   33.7214   43.1256 H   0  0  0  0  0  0  0  0  0  0  0  0
   58.7519   32.3838   43.1256 H   0  0  0  0  0  0  0  0  0  0  0  0
   59.2268   35.3149   43.9663 H   0  0  0  0  0  0  0  0  0  0  0  0
   60.3017   36.2854   45.9928 H   0  0  0  0  0  0  0  0  0  0  0  0
   60.2915   35.0192   48.1430 H   0  0  0  0  0  0  0  0  0  0  0  0
   59.2104   32.7802   48.2692 H   0  0  0  0  0  0  0  0  0  0  0  0
   57.0250   31.4360   46.6980 H   0  0  0  0  0  0  0  0  0  0  0  0
   59.5453   28.1313   48.5475 H   0  0  0  0  0  0  0  0  0  0  0  0
   60.3994   27.3473   47.1755 H   0  0  0  0  0  0  0  0  0  0  0  0
   60.1425   29.1251   47.1755 H   0  0  0  0  0  0  0  0  0  0  0  0
   58.1208   25.9463   47.5093 H   0  0  0  0  0  0  0  0  0  0  0  0
   55.4458   30.4882   44.9988 H   0  0  0  0  0  0  0  0  0  0  0  0
   56.7093   30.1990   43.7552 H   0  0  0  0  0  0  0  0  0  0  0  0
   55.2069   29.2143   43.7552 H   0  0  0  0  0  0  0  0  0  0  0  0
  1  2  1  0
  2  3  2  0
  3  4  1  0
  4  5  2  0
  5  6  1  0
  6  7  2  0
  7  8  1  0
  8  9  1  0
  9 10  2  0
  9 11  1  0
 11 12  1  0
 12 13  1  0
 12 14  2  0
 14 15  1  0
 15 16  2  0
 15 17  1  0
 17 18  1  0
 18 19  1  0
  7  2  1  0
 18 11  2  0
  1 20  1  0
  1 21  1  0
  1 22  1  0
  3 23  1  0
  4 24  1  0
  5 25  1  0
  6 26  1  0
  8 27  1  0
 13 28  1  0
 13 29  1  0
 13 30  1  0
 14 31  1  0
 19 32  1  0
 19 33  1  0
 19 34  1  0
M  END
>  <UniqueID>  (85) 
78

>  <SMILES>  (85) 
Cc1ccccc1NC(=O)c1c(C)cc(=O)oc1C

>  <Energy>  (85) 
46.03519627825241

>  <Genealogy>  (85) 
Cc1ccccc1NC(=O)c1c(C)cc(=O)oc1C (3D coordinates assigned)
Cc1ccccc1NC(=O)c1c(C)cc(=O)oc1C (optimized conformer: 46.03519627825241 kcal/mol)

>  <smiles>  (85) 
Cc1ccccc1NC(=O)c1c(C)cc(=O)oc1C

>  <score_type>  (85) 
oracle

>  <origin>  (85) 
adg

>  <m_score__min__energy>  (85) 
-7.1799999999999997

>  <m_primary>  (85) 
energy

$$$$
85:0
     RDKit          3D

 39 41  0  0  1  0  0  0  0  0999 V2000
   55.4830   24.0390   44.7230 C   0  0  0  0  0  0  0  0  0  0  0  0
   56.2840   25.1010   45.3150 N   0  0  0  0  0  0  0  0  0  0  0  0
   57.5070   25.5090   44.9010 C   0  0  0  0  0  0  0  0  0  0  0  0
   57.8860   26.5380   45.7530 C   0  0  0  0  0  0  0  0  0  0  0  0
   59.1720   27.3160   45.7120 C   0  0  0  0  0  0  0  0  0  0  0  0
   59.0680   28.1770   44.6090 N   0  0  0  0  0  0  0  0  0  0  0  0
   58.1830   29.0710   44.4200 C   0  0  0  0  0  0  0  0  0  0  0  0
   58.5740   30.3910   44.5020 C   0  0  0  0  0  0  0  0  0  0  0  0
   57.6190   31.3500   44.2880 C   0  0  0  0  0  0  0  0  0  0  0  0
   57.8760   32.7470   44.3500 N   0  0  0  0  0  0  0  0  0  0  0  0
   58.4630   33.3870   45.4760 C   0  0  0  0  0  0  0  0  0  0  0  0
   59.1470   34.5840   45.3420 C   0  0  0  0  0  0  0  0  0  0  0  0
   59.7030   35.2140   46.4430 C   0  0  0  0  0  0  0  0  0  0  0  0
   59.5620   34.6220   47.6800 C   0  0  0  0  0  0  0  0  0  0  0  0
   58.8830   33.4190   47.8630 C   0  0  0  0  0  0  0  0  0  0  0  0
   58.3370   32.8170   46.7270 C   0  0  0  0  0  0  0  0  0  0  0  0
   56.3470   30.9780   44.0060 N   0  0  0  0  0  0  0  0  0  0  0  0
   55.9930   29.6710   43.9320 C   0  0  0  0  0  0  0  0  0  0  0  0
   54.7700   29.3530   43.6650 N   0  0  0  0  0  0  0  0  0  0  0  0
   56.9170   28.7080   44.1410 N   0  0  0  0  0  0  0  0  0  0  0  0
   56.8550   26.7170   46.6710 C   0  0  0  0  0  0  0  0  0  0  0  0
   55.9040   25.8270   46.3710 N   0  0  0  0  0  0  0  0  0  0  0  0
   55.0274   23.4349   45.5214 H   0  0  0  0  0  0  0  0  0  0  0  0
   54.6912   24.4807   44.1002 H   0  0  0  0  0  0  0  0  0  0  0  0
   56.1253   23.3991   44.1002 H   0  0  0  0  0  0  0  0  0  0  0  0
   58.0856   25.1053   44.0570 H   0  0  0  0  0  0  0  0  0  0  0  0
   59.2980   27.8953   46.6386 H   0  0  0  0  0  0  0  0  0  0  0  0
   60.0431   26.6502   45.6228 H   0  0  0  0  0  0  0  0  0  0  0  0
   59.6147   30.6640   44.7309 H   0  0  0  0  0  0  0  0  0  0  0  0
   57.6050   33.2990   43.4980 H   0  0  0  0  0  0  0  0  0  0  0  0
   59.2501   35.0409   44.3467 H   0  0  0  0  0  0  0  0  0  0  0  0
   60.2447   36.1650   46.3329 H   0  0  0  0  0  0  0  0  0  0  0  0
   60.0028   35.1187   48.5569 H   0  0  0  0  0  0  0  0  0  0  0  0
   58.7814   32.9632   48.8589 H   0  0  0  0  0  0  0  0  0  0  0  0
   57.7938   31.8662   46.8317 H   0  0  0  0  0  0  0  0  0  0  0  0
   55.5900   31.6640   43.8370 H   0  0  0  0  0  0  0  0  0  0  0  0
   54.5340   28.9550   42.7270 H   0  0  0  0  0  0  0  0  0  0  0  0
   56.6980   27.6920   44.0960 H   0  0  0  0  0  0  0  0  0  0  0  0
   56.8280   27.4521   47.4889 H   0  0  0  0  0  0  0  0  0  0  0  0
  1  2  1  0
  2  3  1  0
  3  4  2  0
  4  5  1  0
  5  6  1  0
  6  7  2  0
  7  8  1  0
  8  9  2  0
  9 10  1  0
 10 11  1  0
 11 12  2  0
 12 13  1  0
 13 14  2  0
 14 15  1  0
 15 16  2  0
  9 17  1  0
 17 18  1  0
 18 19  2  3
 18 20  1  0
  4 21  1  0
 21 22  2  0
 22  2  1  0
 20  7  1  0
 16 11  1  0
  1 23  1  0
  1 24  1  0
  1 25  1  0
  3 26  1  0
  5 27  1  0
  5 28  1  0
  8 29  1  0
 10 30  1  0
 12 31  1  0
 13 32  1  0
 14 33  1  0
 15 34  1  0
 16 35  1  0
 17 36  1  0
 19 37  1  0
 20 38  1  0
 21 39  1  0
M  END
>  <smiles>  (86) 
Cn1cc(CN=c2cc(Nc3ccccc3)[nH]c(=N)[nH]2)cn1

>  <score_type>  (86) 
oracle

>  <origin>  (86) 
adg

>  <m_score__min__energy>  (86) 
-7.1200000000000001

>  <m_primary>  (86) 
energy

$$$$
86:0
     RDKit          3D

 59 62  0  0  0  0  0  0  0  0999 V2000
   57.7740   31.4750   43.3190 C   0  0  0  0  0  0  0  0  0  0  0  0
   57.8850   32.3670   44.5280 C   0  0  0  0  0  0  0  0  0  0  0  0
   57.9980   33.7570   44.3670 C   0  0  0  0  0  0  0  0  0  0  0  0
   58.1070   34.5930   45.4810 C   0  0  0  0  0  0  0  0  0  0  0  0
   58.0920   34.0510   46.7670 C   0  0  0  0  0  0  0  0  0  0  0  0
   57.9850   32.6690   46.9440 C   0  0  0  0  0  0  0  0  0  0  0  0
   57.9040   31.8120   45.8270 C   0  0  0  0  0  0  0  0  0  0  0  0
   57.7770   30.3890   45.9860 N   0  0  0  0  0  0  0  0  0  0  0  0
   58.8190   29.4110   45.8350 C   0  0  0  0  0  0  0  0  0  0  0  0
   60.0250   29.7640   45.9330 O   0  0  0  0  0  0  0  0  0  0  0  0
   58.4730   28.0000   45.5050 C   0  0  0  0  0  0  0  0  0  0  0  0
   58.1140   27.6680   44.1830 C   0  0  0  0  0  0  0  0  0  0  0  0
   57.7790   26.3560   43.8380 C   0  0  0  0  0  0  0  0  0  0  0  0
   57.8040   25.3540   44.8040 C   0  0  0  0  0  0  0  0  0  0  0  0
   58.1570   25.6590   46.1200 C   0  0  0  0  0  0  0  0  0  0  0  0
   58.4830   26.9810   46.4910 C   0  0  0  0  0  0  0  0  0  0  0  0
   58.8150   27.3090   47.8170 O   0  0  0  0  0  0  0  0  0  0  0  0
   60.1060   27.6970   48.2910 C   0  0  0  0  0  0  0  0  0  0  0  0
   60.0490   28.9190   49.1720 C   0  0  0  0  0  0  0  0  0  0  0  0
   60.6990   28.9060   50.2510 O   0  0  0  0  0  0  0  0  0  0  0  0
   59.3620   30.1100   48.7600 N   0  0  0  0  0  0  0  0  0  0  0  0
   59.4310   31.3520   49.4830 C   0  0  0  0  0  0  0  0  0  0  0  0
   58.5650   31.5430   50.5750 C   0  0  0  0  0  0  0  0  0  0  0  0
   58.5720   32.7430   51.2890 C   0  0  0  0  0  0  0  0  0  0  0  0
   59.4480   33.7640   50.9260 C   0  0  0  0  0  0  0  0  0  0  0  0
   60.3420   33.5770   49.8680 C   0  0  0  0  0  0  0  0  0  0  0  0
   60.3570   32.3720   49.1440 C   0  0  0  0  0  0  0  0  0  0  0  0
   61.3690   32.1610   48.1350 N   0  0  0  0  0  0  0  0  0  0  0  0
   61.2920   32.8210   46.8290 C   0  0  0  0  0  0  0  0  0  0  0  0
   62.4710   33.7930   46.7000 C   0  0  0  0  0  0  0  0  0  0  0  0
   63.7070   33.1380   46.9400 O   0  0  0  0  0  0  0  0  0  0  0  0
   63.7530   32.6530   48.2720 C   0  0  0  0  0  0  0  0  0  0  0  0
   62.6690   31.5910   48.4960 C   0  0  0  0  0  0  0  0  0  0  0  0
   57.6442   30.4320   43.6435 H   0  0  0  0  0  0  0  0  0  0  0  0
   56.9071   31.7818   42.7154 H   0  0  0  0  0  0  0  0  0  0  0  0
   58.6896   31.5599   42.7154 H   0  0  0  0  0  0  0  0  0  0  0  0
   58.0007   34.1911   43.3563 H   0  0  0  0  0  0  0  0  0  0  0  0
   58.2048   35.6801   45.3443 H   0  0  0  0  0  0  0  0  0  0  0  0
   58.1645   34.7128   47.6427 H   0  0  0  0  0  0  0  0  0  0  0  0
   57.9638   32.2474   47.9598 H   0  0  0  0  0  0  0  0  0  0  0  0
   58.0973   28.4526   43.4122 H   0  0  0  0  0  0  0  0  0  0  0  0
   57.4955   26.1149   42.8029 H   0  0  0  0  0  0  0  0  0  0  0  0
   57.5453   24.3205   44.5302 H   0  0  0  0  0  0  0  0  0  0  0  0
   58.1813   24.8602   46.8758 H   0  0  0  0  0  0  0  0  0  0  0  0
   60.5357   26.8648   48.8679 H   0  0  0  0  0  0  0  0  0  0  0  0
   60.7260   27.9419   47.4160 H   0  0  0  0  0  0  0  0  0  0  0  0
   58.9810   30.1540   47.7910 H   0  0  0  0  0  0  0  0  0  0  0  0
   57.8750   30.7385   50.8695 H   0  0  0  0  0  0  0  0  0  0  0  0
   57.8862   32.8823   52.1377 H   0  0  0  0  0  0  0  0  0  0  0  0
   59.4359   34.7184   51.4728 H   0  0  0  0  0  0  0  0  0  0  0  0
   61.0418   34.3818   49.5988 H   0  0  0  0  0  0  0  0  0  0  0  0
   61.3443   32.0673   46.0295 H   0  0  0  0  0  0  0  0  0  0  0  0
   60.3424   33.3693   46.7412 H   0  0  0  0  0  0  0  0  0  0  0  0
   62.4795   34.2133   45.6835 H   0  0  0  0  0  0  0  0  0  0  0  0
   62.3485   34.5893   47.4489 H   0  0  0  0  0  0  0  0  0  0  0  0
   64.7407   32.2072   48.4608 H   0  0  0  0  0  0  0  0  0  0  0  0
   63.5767   33.4916   48.9617 H   0  0  0  0  0  0  0  0  0  0  0  0
   62.8756   30.7131   47.8662 H   0  0  0  0  0  0  0  0  0  0  0  0
   62.6614   31.2811   49.5514 H   0  0  0  0  0  0  0  0  0  0  0  0
  1  2  1  0
  2  3  2  0
  3  4  1  0
  4  5  2  0
  5  6  1  0
  6  7  2  0
  7  8  1  0
  8  9  1  0
  9 10  2  0
  9 11  1  0
 11 12  2  0
 12 13  1  0
 13 14  2  0
 14 15  1  0
 15 16  2  0
 16 17  1  0
 17 18  1  0
 18 19  1  0
 19 20  2  0
 19 21  1  0
 21 22  1  0
 22 23  2  0
 23 24  1  0
 24 25  2  0
 25 26  1  0
 26 27  2  0
 27 28  1  0
 28 29  1  0
 29 30  1  0
 30 31  1  0
 31 32  1  0
 32 33  1  0
  7  2  1  0
 16 11  1  0
 27 22  1  0
 33 28  1  0
  1 34  1  0
  1 35  1  0
  1 36  1  0
  3 37  1  0
  4 38  1  0
  5 39  1  0
  6 40  1  0
 12 41  1  0
 13 42  1  0
 14 43  1  0
 15 44  1  0
 18 45  1  0
 18 46  1  0
 21 47  1  0
 23 48  1  0
 24 49  1  0
 25 50  1  0
 26 51  1  0
 29 52  1  0
 29 53  1  0
 30 54  1  0
 30 55  1  0
 32 56  1  0
 32 57  1  0
 33 58  1  0
 33 59  1  0
M  CHG  1   8  -1
M  END
>  <UniqueID>  (87) 
79

>  <SMILES>  (87) 
Cc1ccccc1[N-]C(=O)c1ccccc1OCC(=O)Nc1ccccc1N1CCOCC1

>  <Energy>  (87) 
79.42793085572649

>  <Genealogy>  (87) 
Cc1ccccc1[N-]C(=O)c1ccccc1OCC(=O)Nc1ccccc1N1CCOCC1 (protonated)
Cc1ccccc1[N-]C(=O)c1ccccc1OCC(=O)Nc1ccccc1N1CCOCC1 (3D coordinates assigned)
Cc1ccccc1[N-]C(=O)c1ccccc1OCC(=O)Nc1ccccc1N1CCOCC1 (nonaromatic ring conformer: 79.42793085572649 kcal/mol)

>  <smiles>  (87) 
Cc1ccccc1NC(=O)c1ccccc1OCC(=O)Nc1ccccc1N1CCOCC1

>  <score_type>  (87) 
oracle

>  <origin>  (87) 
adg

>  <m_score__min__energy>  (87) 
-11.220000000000001

>  <m_primary>  (87) 
energy

$$$$
87:0
     RDKit          3D

 54 57  0  0  1  0  0  0  0  0999 V2000
   57.6260   30.1970   43.8010 N   0  0  0  0  0  0  0  0  0  0  0  0
   56.6370   29.4850   44.5570 C   0  0  0  0  0  0  0  0  0  0  0  0
   55.4610   29.8910   44.5160 O   0  0  0  0  0  0  0  0  0  0  0  0
   57.0430   28.3140   45.3440 C   0  0  0  0  0  0  0  0  0  0  0  0
   58.3550   28.1960   45.7790 C   0  0  0  0  0  0  0  0  0  0  0  0
   58.7240   27.0910   46.5170 C   0  0  0  0  0  0  0  0  0  0  0  0
   59.9170   26.8940   46.9620 N   0  0  0  0  0  0  0  0  0  0  0  0
   60.2170   27.2240   48.3130 C   0  0  0  0  0  0  0  0  0  0  0  0
   60.3510   26.3350   49.1970 O   0  0  0  0  0  0  0  0  0  0  0  0
   60.3570   28.6560   48.6160 C   0  0  0  0  0  0  0  0  0  0  0  0
   61.1300   29.0770   49.6800 C   0  0  0  0  0  0  0  0  0  0  0  0
   61.2880   30.4220   50.0010 C   0  0  0  0  0  0  0  0  0  0  0  0
   60.6570   31.3860   49.2420 C   0  0  0  0  0  0  0  0  0  0  0  0
   59.8780   30.9650   48.1710 C   0  0  0  0  0  0  0  0  0  0  0  0
   59.2320   32.0340   47.4000 C   0  0  0  0  0  0  0  0  0  0  0  0
   59.7190   33.3410   47.4690 C   0  0  0  0  0  0  0  0  0  0  0  0
   59.1430   34.3770   46.7620 C   0  0  0  0  0  0  0  0  0  0  0  0
   58.0500   34.1110   45.9610 C   0  0  0  0  0  0  0  0  0  0  0  0
   57.5550   32.8350   45.8800 C   0  0  0  0  0  0  0  0  0  0  0  0
   56.4510   32.5860   45.0650 O   0  0  0  0  0  0  0  0  0  0  0  0
   58.1370   31.8050   46.5890 C   0  0  0  0  0  0  0  0  0  0  0  0
   59.7250   29.6290   47.8580 C   0  0  0  0  0  0  0  0  0  0  0  0
   57.7950   26.1590   46.7940 N   0  0  0  0  0  0  0  0  0  0  0  0
   56.5340   26.3180   46.3500 C   0  0  0  0  0  0  0  0  0  0  0  0
   55.6750   25.4150   46.6300 N   0  0  0  0  0  0  0  0  0  0  0  0
   55.9040   24.0130   46.7460 C   0  0  0  0  0  0  0  0  0  0  0  0
   56.2600   23.3630   45.4350 C   0  0  0  0  0  0  0  0  0  0  0  0
   57.2670   22.4520   45.3060 C   0  0  0  0  0  0  0  0  0  0  0  0
   57.6190   21.8390   44.1160 C   0  0  0  0  0  0  0  0  0  0  0  0
   56.9160   22.1600   42.9750 C   0  0  0  0  0  0  0  0  0  0  0  0
   55.8950   23.0790   43.0870 C   0  0  0  0  0  0  0  0  0  0  0  0
   55.5480   23.6870   44.2730 C   0  0  0  0  0  0  0  0  0  0  0  0
   56.1260   27.3740   45.6290 N   0  0  0  0  0  0  0  0  0  0  0  0
   57.6380   31.2420   43.8410 H   0  0  0  0  0  0  0  0  0  0  0  0
   58.3130   29.6460   43.2270 H   0  0  0  0  0  0  0  0  0  0  0  0
   59.0929   28.9753   45.5379 H   0  0  0  0  0  0  0  0  0  0  0  0
   61.6395   28.3217   50.2964 H   0  0  0  0  0  0  0  0  0  0  0  0
   61.9137   30.7154   50.8568 H   0  0  0  0  0  0  0  0  0  0  0  0
   60.7672   32.4549   49.4774 H   0  0  0  0  0  0  0  0  0  0  0  0
   60.5897   33.5516   48.1074 H   0  0  0  0  0  0  0  0  0  0  0  0
   59.5477   35.3972   46.8353 H   0  0  0  0  0  0  0  0  0  0  0  0
   57.5768   34.9223   45.3883 H   0  0  0  0  0  0  0  0  0  0  0  0
   55.9860   31.6930   45.1650 H   0  0  0  0  0  0  0  0  0  0  0  0
   57.7243   30.7886   46.5078 H   0  0  0  0  0  0  0  0  0  0  0  0
   59.0984   29.3355   47.0029 H   0  0  0  0  0  0  0  0  0  0  0  0
   58.0680   25.3140   47.3560 H   0  0  0  0  0  0  0  0  0  0  0  0
   56.7306   23.8505   47.4534 H   0  0  0  0  0  0  0  0  0  0  0  0
   54.9670   23.5551   47.0958 H   0  0  0  0  0  0  0  0  0  0  0  0
   57.8376   22.1867   46.2082 H   0  0  0  0  0  0  0  0  0  0  0  0
   58.4427   21.1108   44.0817 H   0  0  0  0  0  0  0  0  0  0  0  0
   57.1615   21.6982   42.0073 H   0  0  0  0  0  0  0  0  0  0  0  0
   55.3276   23.3405   42.1817 H   0  0  0  0  0  0  0  0  0  0  0  0
   54.7246   24.4156   44.3073 H   0  0  0  0  0  0  0  0  0  0  0  0
   55.1480   27.4760   45.2980 H   0  0  0  0  0  0  0  0  0  0  0  0
  1  2  1  0
  2  3  2  0
  2  4  1  0
  4  5  2  0
  5  6  1  0
  6  7  2  0
  7  8  1  0
  8  9  2  0
  8 10  1  0
 10 11  2  0
 11 12  1  0
 12 13  2  0
 13 14  1  0
 14 15  1  0
 15 16  2  0
 16 17  1  0
 17 18  2  0
 18 19  1  0
 19 20  1  0
 19 21  2  0
 14 22  2  0
  6 23  1  0
 23 24  1  0
 24 25  2  0
 25 26  1  0
 26 27  1  0
 27 28  2  0
 28 29  1  0
 29 30  2  0
 30 31  1  0
 31 32  2  0
 24 33  1  0
 33  4  1  0
 22 10  1  0
 32 27  1  0
 21 15  1  0
  1 34  1  0
  1 35  1  0
  5 36  1  0
 11 37  1  0
 12 38  1  0
 13 39  1  0
 16 40  1  0
 17 41  1  0
 18 42  1  0
 20 43  1  0
 21 44  1  0
 22 45  1  0
 23 46  1  0
 26 47  1  0
 26 48  1  0
 28 49  1  0
 29 50  1  0
 30 51  1  0
 31 52  1  0
 32 53  1  0
 33 54  1  0
M  END
>  <smiles>  (88) 
NC(=O)c1cc(=NC(=O)c2cccc(-c3cccc(O)c3)c2)[nH]c(=NCc2ccccc2)[nH]1

>  <score_type>  (88) 
oracle

>  <origin>  (88) 
adg

>  <m_score__min__energy>  (88) 
-10.73

>  <m_primary>  (88) 
energy

$$$$
88:0
     RDKit          3D

 59 62  0  0  0  0  0  0  0  0999 V2000
   57.7580   22.9600   46.7500 O   0  0  0  0  0  0  0  0  0  0  0  0
   56.8780   23.8450   46.9140 C   0  0  0  0  0  0  0  0  0  0  0  0
   55.5630   23.4350   47.3250 N   0  0  0  0  0  0  0  0  0  0  0  0
   54.4840   23.3850   46.5940 C   0  0  0  0  0  0  0  0  0  0  0  0
   53.7350   22.2010   46.4170 C   0  0  0  0  0  0  0  0  0  0  0  0
   52.6360   22.2190   45.6150 N   0  0  0  0  0  0  0  0  0  0  0  0
   52.2380   23.3550   44.9850 C   0  0  0  0  0  0  0  0  0  0  0  0
   52.9560   24.5380   45.1840 C   0  0  0  0  0  0  0  0  0  0  0  0
   54.0550   24.5250   45.9840 N   0  0  0  0  0  0  0  0  0  0  0  0
   57.2520   25.2810   46.7860 C   0  0  0  0  0  0  0  0  0  0  0  0
   56.5580   26.1190   45.8890 C   0  0  0  0  0  0  0  0  0  0  0  0
   56.9230   27.4710   45.7410 C   0  0  0  0  0  0  0  0  0  0  0  0
   56.2530   28.3430   44.8690 O   0  0  0  0  0  0  0  0  0  0  0  0
   56.8460   28.9590   43.7250 C   0  0  0  0  0  0  0  0  0  0  0  0
   56.7100   30.4770   43.8340 C   0  0  0  0  0  0  0  0  0  0  0  0
   56.6580   30.8710   45.1800 O   0  0  0  0  0  0  0  0  0  0  0  0
   57.9850   27.9820   46.4940 C   0  0  0  0  0  0  0  0  0  0  0  0
   58.6570   27.1760   47.4180 C   0  0  0  0  0  0  0  0  0  0  0  0
   59.6680   27.7400   48.2110 O   0  0  0  0  0  0  0  0  0  0  0  0
   59.8660   29.1240   48.3560 C   0  0  0  0  0  0  0  0  0  0  0  0
   59.3170   29.8480   49.4310 C   0  0  0  0  0  0  0  0  0  0  0  0
   59.4830   31.2340   49.5110 C   0  0  0  0  0  0  0  0  0  0  0  0
   60.1910   31.9160   48.5150 C   0  0  0  0  0  0  0  0  0  0  0  0
   60.2580   33.6780   48.5270 S   0  0  0  0  0  0  0  0  0  0  0  0
   59.6350   34.2030   49.7930 O   0  0  0  0  0  0  0  0  0  0  0  0
   61.6930   34.1190   48.4790 O   0  0  0  0  0  0  0  0  0  0  0  0
   59.4050   34.2870   47.1350 N   0  0  0  0  0  0  0  0  0  0  0  0
   58.1250   33.5760   46.9660 C   0  0  0  0  0  0  0  0  0  0  0  0
   57.3930   34.0580   45.6920 C   0  0  0  0  0  0  0  0  0  0  0  0
   58.1550   35.0180   44.9740 O   0  0  0  0  0  0  0  0  0  0  0  0
   59.4200   34.4770   44.6510 C   0  0  0  0  0  0  0  0  0  0  0  0
   60.2370   34.1560   45.9220 C   0  0  0  0  0  0  0  0  0  0  0  0
   60.7420   31.2010   47.4420 C   0  0  0  0  0  0  0  0  0  0  0  0
   60.5790   29.8110   47.3660 C   0  0  0  0  0  0  0  0  0  0  0  0
   58.3150   25.8210   47.5370 C   0  0  0  0  0  0  0  0  0  0  0  0
   54.0374   21.2723   46.9231 H   0  0  0  0  0  0  0  0  0  0  0  0
   51.3587   23.3441   44.3242 H   0  0  0  0  0  0  0  0  0  0  0  0
   52.6346   25.4708   44.6976 H   0  0  0  0  0  0  0  0  0  0  0  0
   55.7233   25.7126   45.2991 H   0  0  0  0  0  0  0  0  0  0  0  0
   57.9112   28.6893   43.6745 H   0  0  0  0  0  0  0  0  0  0  0  0
   56.3351   28.6102   42.8154 H   0  0  0  0  0  0  0  0  0  0  0  0
   57.5756   30.9535   43.3506 H   0  0  0  0  0  0  0  0  0  0  0  0
   55.7792   30.7872   43.3366 H   0  0  0  0  0  0  0  0  0  0  0  0
   56.2510   30.1160   45.6820 H   0  0  0  0  0  0  0  0  0  0  0  0
   58.2948   29.0287   46.3579 H   0  0  0  0  0  0  0  0  0  0  0  0
   58.7532   29.3195   50.2139 H   0  0  0  0  0  0  0  0  0  0  0  0
   59.0560   31.7897   50.3589 H   0  0  0  0  0  0  0  0  0  0  0  0
   59.2120   35.3040   47.3100 H   0  0  0  0  0  0  0  0  0  0  0  0
   58.3202   32.4966   46.8832 H   0  0  0  0  0  0  0  0  0  0  0  0
   57.4883   33.7841   47.8385 H   0  0  0  0  0  0  0  0  0  0  0  0
   57.2067   33.1920   45.0398 H   0  0  0  0  0  0  0  0  0  0  0  0
   56.4498   34.5329   46.0000 H   0  0  0  0  0  0  0  0  0  0  0  0
   59.2767   33.5513   44.0744 H   0  0  0  0  0  0  0  0  0  0  0  0
   59.9749   35.2220   44.0618 H   0  0  0  0  0  0  0  0  0  0  0  0
   60.6154   33.1253   45.8553 H   0  0  0  0  0  0  0  0  0  0  0  0
   61.0711   34.8698   45.9912 H   0  0  0  0  0  0  0  0  0  0  0  0
   61.3030   31.7318   46.6587 H   0  0  0  0  0  0  0  0  0  0  0  0
   61.0145   29.2556   46.5222 H   0  0  0  0  0  0  0  0  0  0  0  0
   58.8817   25.1740   48.2228 H   0  0  0  0  0  0  0  0  0  0  0  0
  1  2  2  0
  2  3  1  0
  3  4  2  3
  4  5  1  0
  5  6  2  0
  6  7  1  0
  7  8  2  0
  8  9  1  0
  2 10  1  0
 10 11  2  0
 11 12  1  0
 12 13  1  0
 13 14  1  0
 14 15  1  0
 15 16  1  0
 12 17  2  0
 17 18  1  0
 18 19  1  0
 19 20  1  0
 20 21  2  0
 21 22  1  0
 22 23  2  0
 23 24  1  0
 24 25  2  0
 24 26  2  0
 24 27  1  0
 27 28  1  0
 28 29  1  0
 29 30  1  0
 30 31  1  0
 31 32  1  0
 23 33  1  0
 33 34  2  0
 18 35  2  0
  9  4  1  0
 35 10  1  0
 34 20  1  0
 32 27  1  0
  5 36  1  0
  7 37  1  0
  8 38  1  0
 11 39  1  0
 14 40  1  0
 14 41  1  0
 15 42  1  0
 15 43  1  0
 16 44  1  0
 17 45  1  0
 21 46  1  0
 22 47  1  0
 27 48  1  0
 28 49  1  0
 28 50  1  0
 29 51  1  0
 29 52  1  0
 31 53  1  0
 31 54  1  0
 32 55  1  0
 32 56  1  0
 33 57  1  0
 34 58  1  0
 35 59  1  0
M  CHG  2   9  -1  27   1
M  END
>  <UniqueID>  (89) 
80

>  <SMILES>  (89) 
O=C(N=c1cncc[n-]1)c1cc(OCCO)cc(Oc2ccc(S(=O)(=O)[NH+]3CCOCC3)cc2)c1

>  <Energy>  (89) 
84.74871852237042

>  <Genealogy>  (89) 
O=C(N=c1cncc[n-]1)c1cc(OCCO)cc(Oc2ccc(S(=O)(=O)[NH+]3CCOCC3)cc2)c1 (protonated)
O=C(N=c1cncc[n-]1)c1cc(OCCO)cc(Oc2ccc(S(=O)(=O)[NH+]3CCOCC3)cc2)c1 (3D coordinates assigned)
O=C(N=c1cncc[n-]1)c1cc(OCCO)cc(Oc2ccc(S(=O)(=O)[NH+]3CCOCC3)cc2)c1 (nonaromatic ring conformer: 84.74871852237042 kcal/mol)

>  <smiles>  (89) 
O=C(N=c1cncc[nH]1)c1cc(OCCO)cc(Oc2ccc(S(=O)(=O)N3CCOCC3)cc2)c1

>  <score_type>  (89) 
oracle

>  <origin>  (89) 
adg

>  <m_score__min__energy>  (89) 
-9.3800000000000008

>  <m_primary>  (89) 
energy

$$$$
89:0
     RDKit          3D

 29 30  0  0  0  0  0  0  0  0999 V2000
   56.6700   26.5010   45.6570 C   0  0  0  0  0  0  0  0  0  0  0  0
   57.4500   27.7190   45.4060 N   0  0  0  0  0  0  0  0  0  0  0  0
   58.8150   27.6500   45.3630 C   0  0  0  0  0  0  0  0  0  0  0  0
   59.5770   28.7920   45.1240 C   0  0  0  0  0  0  0  0  0  0  0  0
   60.9310   28.7150   45.0870 F   0  0  0  0  0  0  0  0  0  0  0  0
   58.9400   30.0140   44.9260 C   0  0  0  0  0  0  0  0  0  0  0  0
   57.5390   30.0880   44.9630 C   0  0  0  0  0  0  0  0  0  0  0  0
   56.8410   31.2920   44.7640 O   0  0  0  0  0  0  0  0  0  0  0  0
   57.3940   32.4880   44.2110 C   0  0  0  0  0  0  0  0  0  0  0  0
   58.1320   33.2730   45.2630 C   0  0  0  0  0  0  0  0  0  0  0  0
   58.9670   34.3390   44.8890 C   0  0  0  0  0  0  0  0  0  0  0  0
   59.6460   35.0770   45.8630 C   0  0  0  0  0  0  0  0  0  0  0  0
   59.4900   34.7620   47.2160 C   0  0  0  0  0  0  0  0  0  0  0  0
   58.6520   33.7110   47.5970 C   0  0  0  0  0  0  0  0  0  0  0  0
   57.9710   32.9700   46.6250 C   0  0  0  0  0  0  0  0  0  0  0  0
   56.8070   28.9160   45.2090 C   0  0  0  0  0  0  0  0  0  0  0  0
   55.5470   28.9750   45.2440 O   0  0  0  0  0  0  0  0  0  0  0  0
   56.5708   26.3461   46.7415 H   0  0  0  0  0  0  0  0  0  0  0  0
   55.6710   26.6065   45.2088 H   0  0  0  0  0  0  0  0  0  0  0  0
   57.1837   25.6377   45.2088 H   0  0  0  0  0  0  0  0  0  0  0  0
   59.3165   26.6834   45.5186 H   0  0  0  0  0  0  0  0  0  0  0  0
   59.5344   30.9209   44.7407 H   0  0  0  0  0  0  0  0  0  0  0  0
   58.0921   32.2225   43.4034 H   0  0  0  0  0  0  0  0  0  0  0  0
   56.5734   33.1076   43.8201 H   0  0  0  0  0  0  0  0  0  0  0  0
   59.0870   34.5940   43.8257 H   0  0  0  0  0  0  0  0  0  0  0  0
   60.3038   35.9065   45.5644 H   0  0  0  0  0  0  0  0  0  0  0  0
   60.0272   35.3418   47.9810 H   0  0  0  0  0  0  0  0  0  0  0  0
   58.5275   33.4659   48.6621 H   0  0  0  0  0  0  0  0  0  0  0  0
   57.3071   32.1472   46.9286 H   0  0  0  0  0  0  0  0  0  0  0  0
  1  2  1  0
  2  3  1  0
  3  4  2  0
  4  5  1  0
  4  6  1  0
  6  7  2  0
  7  8  1  0
  8  9  1  0
  9 10  1  0
 10 11  2  0
 11 12  1  0
 12 13  2  0
 13 14  1  0
 14 15  2  0
  7 16  1  0
 16 17  2  0
 16  2  1  0
 15 10  1  0
  1 18  1  0
  1 19  1  0
  1 20  1  0
  3 21  1  0
  6 22  1  0
  9 23  1  0
  9 24  1  0
 11 25  1  0
 12 26  1  0
 13 27  1  0
 14 28  1  0
 15 29  1  0
M  END
>  <UniqueID>  (90) 
81

>  <SMILES>  (90) 
Cn1cc(F)cc(OCc2ccccc2)c1=O

>  <Energy>  (90) 
31.575510039207842

>  <Genealogy>  (90) 
Cn1cc(F)cc(OCc2ccccc2)c1=O (3D coordinates assigned)
Cn1cc(F)cc(OCc2ccccc2)c1=O (optimized conformer: 31.575510039207842 kcal/mol)

>  <smiles>  (90) 
Cn1cc(F)cc(OCc2ccccc2)c1=O

>  <score_type>  (90) 
oracle

>  <origin>  (90) 
adg

>  <m_score__min__energy>  (90) 
-6.3300000000000001

>  <m_primary>  (90) 
energy

$$$$
90:0
     RDKit          3D

 39 40  0  0  0  0  0  0  0  0999 V2000
   55.5240   28.7780   45.2160 N   0  0  0  0  0  0  0  0  0  0  0  0
   56.7210   29.8740   44.6230 S   0  0  0  0  0  0  0  0  0  0  0  0
   56.1140   31.2400   44.4660 O   0  0  0  0  0  0  0  0  0  0  0  0
   57.2100   29.4080   43.2810 O   0  0  0  0  0  0  0  0  0  0  0  0
   58.0670   29.9450   45.7560 C   0  0  0  0  0  0  0  0  0  0  0  0
   59.0880   30.8860   45.5770 C   0  0  0  0  0  0  0  0  0  0  0  0
   60.1620   30.9380   46.4690 C   0  0  0  0  0  0  0  0  0  0  0  0
   60.2350   30.0410   47.5500 C   0  0  0  0  0  0  0  0  0  0  0  0
   61.3380   30.1030   48.4780 N   0  0  0  0  0  0  0  0  0  0  0  0
   60.9790   30.8490   49.6660 C   0  0  0  0  0  0  0  0  0  0  0  0
   60.8880   30.0760   51.1160 S   0  0  0  0  0  0  0  0  0  0  0  0
   60.9640   32.2910   49.6750 N   0  0  0  0  0  0  0  0  0  0  0  0
   61.2860   33.1400   48.5280 C   0  0  0  0  0  0  0  0  0  0  0  0
   60.3410   34.3430   48.4700 C   0  0  0  0  0  0  0  0  0  0  0  0
   59.3930   34.2160   47.3100 C   0  0  0  0  0  0  0  0  0  0  0  0
   59.7460   34.7180   46.0450 C   0  0  0  0  0  0  0  0  0  0  0  0
   58.8760   34.5690   44.9610 C   0  0  0  0  0  0  0  0  0  0  0  0
   57.6540   33.9100   45.1280 C   0  0  0  0  0  0  0  0  0  0  0  0
   57.3030   33.3950   46.3790 C   0  0  0  0  0  0  0  0  0  0  0  0
   58.1700   33.5420   47.4660 C   0  0  0  0  0  0  0  0  0  0  0  0
   59.2080   29.0940   47.7220 C   0  0  0  0  0  0  0  0  0  0  0  0
   58.1340   29.0460   46.8290 C   0  0  0  0  0  0  0  0  0  0  0  0
   54.6600   29.3370   45.3920 H   0  0  0  0  0  0  0  0  0  0  0  0
   59.0444   31.5872   44.7306 H   0  0  0  0  0  0  0  0  0  0  0  0
   60.9560   31.6856   46.3250 H   0  0  0  0  0  0  0  0  0  0  0  0
   62.1430   30.5400   47.9800 H   0  0  0  0  0  0  0  0  0  0  0  0
   61.6370   29.1430   48.7700 H   0  0  0  0  0  0  0  0  0  0  0  0
   60.7850   32.7740   50.5840 H   0  0  0  0  0  0  0  0  0  0  0  0
   62.3220   33.4976   48.6217 H   0  0  0  0  0  0  0  0  0  0  0  0
   61.1702   32.5515   47.6059 H   0  0  0  0  0  0  0  0  0  0  0  0
   59.7635   34.3944   49.4048 H   0  0  0  0  0  0  0  0  0  0  0  0
   60.9386   35.2574   48.3410 H   0  0  0  0  0  0  0  0  0  0  0  0
   60.7100   35.2297   45.9078 H   0  0  0  0  0  0  0  0  0  0  0  0
   59.1531   34.9707   43.9752 H   0  0  0  0  0  0  0  0  0  0  0  0
   56.9690   33.7969   44.2748 H   0  0  0  0  0  0  0  0  0  0  0  0
   56.3433   32.8733   46.5086 H   0  0  0  0  0  0  0  0  0  0  0  0
   57.8936   33.1284   48.4471 H   0  0  0  0  0  0  0  0  0  0  0  0
   59.2510   28.3876   48.5641 H   0  0  0  0  0  0  0  0  0  0  0  0
   57.3381   28.2997   46.9689 H   0  0  0  0  0  0  0  0  0  0  0  0
  1  2  1  0
  2  3  2  0
  2  4  2  0
  2  5  1  0
  5  6  2  0
  6  7  1  0
  7  8  2  0
  8  9  1  0
  9 10  1  0
 10 11  2  0
 10 12  1  0
 12 13  1  0
 13 14  1  0
 14 15  1  0
 15 16  2  0
 16 17  1  0
 17 18  2  0
 18 19  1  0
 19 20  2  0
  8 21  1  0
 21 22  2  0
 22  5  1  0
 20 15  1  0
  1 23  1  0
  6 24  1  0
  7 25  1  0
  9 26  1  0
  9 27  1  0
 12 28  1  0
 13 29  1  0
 13 30  1  0
 14 31  1  0
 14 32  1  0
 16 33  1  0
 17 34  1  0
 18 35  1  0
 19 36  1  0
 20 37  1  0
 21 38  1  0
 22 39  1  0
M  CHG  2   1  -1   9   1
M  END
>  <UniqueID>  (91) 
82

>  <SMILES>  (91) 
[NH-]S(=O)(=O)c1ccc([NH2+]C(=S)NCCc2ccccc2)cc1

>  <Energy>  (91) 
38.41837396287835

>  <Genealogy>  (91) 
[NH-]S(=O)(=O)c1ccc([NH2+]C(=S)NCCc2ccccc2)cc1 (protonated)
[NH-]S(=O)(=O)c1ccc([NH2+]C(=S)NCCc2ccccc2)cc1 (3D coordinates assigned)
[NH-]S(=O)(=O)c1ccc([NH2+]C(=S)NCCc2ccccc2)cc1 (optimized conformer: 38.41837396287835 kcal/mol)

>  <smiles>  (91) 
NS(=O)(=O)c1ccc(NC(=S)NCCc2ccccc2)cc1

>  <score_type>  (91) 
oracle

>  <origin>  (91) 
adg

>  <m_score__min__energy>  (91) 
-9

>  <m_primary>  (91) 
energy

$$$$
91:0
     RDKit          3D

 50 53  0  0  0  0  0  0  0  0999 V2000
   57.1920   34.0400   45.3880 C   0  0  0  0  0  0  0  0  0  0  0  0
   58.0010   32.5000   45.0200 S   0  0  0  0  0  0  0  0  0  0  0  0
   58.4900   32.5160   43.5980 O   0  0  0  0  0  0  0  0  0  0  0  0
   57.0250   31.3680   45.1790 O   0  0  0  0  0  0  0  0  0  0  0  0
   59.3590   32.2750   46.1160 C   0  0  0  0  0  0  0  0  0  0  0  0
   59.8570   30.9900   46.3680 C   0  0  0  0  0  0  0  0  0  0  0  0
   60.9470   30.8140   47.2240 C   0  0  0  0  0  0  0  0  0  0  0  0
   61.5470   31.9200   47.8440 C   0  0  0  0  0  0  0  0  0  0  0  0
   62.7480   31.7340   48.7320 C   0  0  0  0  0  0  0  0  0  0  0  0
   62.3340   31.4160   50.1000 N   0  0  0  0  0  0  0  0  0  0  0  0
   60.9630   31.1930   50.4790 C   0  0  0  0  0  0  0  0  0  0  0  0
   60.1430   32.2950   50.7660 C   0  0  0  0  0  0  0  0  0  0  0  0
   58.8080   32.1120   51.1380 C   0  0  0  0  0  0  0  0  0  0  0  0
   58.2670   30.8210   51.2300 C   0  0  0  0  0  0  0  0  0  0  0  0
   56.8550   30.6340   51.6250 C   0  0  0  0  0  0  0  0  0  0  0  0
   55.8940   31.5820   51.4480 N   0  0  0  0  0  0  0  0  0  0  0  0
   54.8050   30.9740   51.9450 C   0  0  0  0  0  0  0  0  0  0  0  0
   53.5080   31.4740   52.0270 C   0  0  0  0  0  0  0  0  0  0  0  0
   52.5160   30.6450   52.6000 C   0  0  0  0  0  0  0  0  0  0  0  0
   51.0920   31.1220   52.6830 C   0  0  0  0  0  0  0  0  0  0  0  0
   50.9150   32.3560   51.8600 C   0  0  0  0  0  0  0  0  0  0  0  0
   50.6230   33.4500   52.4130 O   0  0  0  0  0  0  0  0  0  0  0  0
   51.0250   32.2920   50.4770 O   0  0  0  0  0  0  0  0  0  0  0  0
   52.8580   29.3410   53.0500 C   0  0  0  0  0  0  0  0  0  0  0  0
   54.1820   28.8740   52.9490 C   0  0  0  0  0  0  0  0  0  0  0  0
   55.1250   29.7290   52.3880 C   0  0  0  0  0  0  0  0  0  0  0  0
   56.3980   29.5260   52.1870 O   0  0  0  0  0  0  0  0  0  0  0  0
   59.0830   29.7150   50.9420 C   0  0  0  0  0  0  0  0  0  0  0  0
   60.4190   29.8980   50.5710 C   0  0  0  0  0  0  0  0  0  0  0  0
   61.0610   33.2090   47.5730 C   0  0  0  0  0  0  0  0  0  0  0  0
   59.9710   33.3840   46.7160 C   0  0  0  0  0  0  0  0  0  0  0  0
   57.1250   34.1676   46.4785 H   0  0  0  0  0  0  0  0  0  0  0  0
   57.7704   34.8703   44.9566 H   0  0  0  0  0  0  0  0  0  0  0  0
   56.1802   34.0349   44.9566 H   0  0  0  0  0  0  0  0  0  0  0  0
   59.3883   30.1169   45.8904 H   0  0  0  0  0  0  0  0  0  0  0  0
   61.3367   29.8028   47.4128 H   0  0  0  0  0  0  0  0  0  0  0  0
   63.3632   30.9107   48.3400 H   0  0  0  0  0  0  0  0  0  0  0  0
   63.3270   32.6692   48.7454 H   0  0  0  0  0  0  0  0  0  0  0  0
   63.0680   31.3420   50.8430 H   0  0  0  0  0  0  0  0  0  0  0  0
   60.5547   33.3127   50.6976 H   0  0  0  0  0  0  0  0  0  0  0  0
   58.1778   32.9858   51.3600 H   0  0  0  0  0  0  0  0  0  0  0  0
   53.2631   32.4809   51.6581 H   0  0  0  0  0  0  0  0  0  0  0  0
   50.4221   30.3347   52.3069 H   0  0  0  0  0  0  0  0  0  0  0  0
   50.8495   31.3506   53.7313 H   0  0  0  0  0  0  0  0  0  0  0  0
   52.0817   28.6914   53.4807 H   0  0  0  0  0  0  0  0  0  0  0  0
   54.4608   27.8697   53.3008 H   0  0  0  0  0  0  0  0  0  0  0  0
   58.6687   28.6982   51.0086 H   0  0  0  0  0  0  0  0  0  0  0  0
   61.0490   29.0239   50.3496 H   0  0  0  0  0  0  0  0  0  0  0  0
   61.5397   34.0841   48.0367 H   0  0  0  0  0  0  0  0  0  0  0  0
   59.5919   34.3962   46.5115 H   0  0  0  0  0  0  0  0  0  0  0  0
  1  2  1  0
  2  3  2  0
  2  4  2  0
  2  5  1  0
  5  6  2  0
  6  7  1  0
  7  8  2  0
  8  9  1  0
  9 10  1  0
 10 11  1  0
 11 12  2  0
 12 13  1  0
 13 14  2  0
 14 15  1  0
 15 16  2  0
 16 17  1  0
 17 18  2  0
 18 19  1  0
 19 20  1  0
 20 21  1  0
 21 22  2  0
 21 23  1  0
 19 24  2  0
 24 25  1  0
 25 26  2  0
 26 27  1  0
 14 28  1  0
 28 29  2  0
  8 30  1  0
 30 31  2  0
 31  5  1  0
 29 11  1  0
 27 15  1  0
 26 17  1  0
  1 32  1  0
  1 33  1  0
  1 34  1  0
  6 35  1  0
  7 36  1  0
  9 37  1  0
  9 38  1  0
 10 39  1  0
 12 40  1  0
 13 41  1  0
 18 42  1  0
 20 43  1  0
 20 44  1  0
 24 45  1  0
 25 46  1  0
 28 47  1  0
 29 48  1  0
 30 49  1  0
 31 50  1  0
M  CHG  1  23  -1
M  END
>  <UniqueID>  (92) 
83

>  <SMILES>  (92) 
CS(=O)(=O)c1ccc(CNc2ccc(-c3nc4cc(CC(=O)[O-])ccc4o3)cc2)cc1

>  <Energy>  (92) 
86.90793218683226

>  <Genealogy>  (92) 
CS(=O)(=O)c1ccc(CNc2ccc(-c3nc4cc(CC(=O)[O-])ccc4o3)cc2)cc1 (protonated)
CS(=O)(=O)c1ccc(CNc2ccc(-c3nc4cc(CC(=O)[O-])ccc4o3)cc2)cc1 (3D coordinates assigned)
CS(=O)(=O)c1ccc(CNc2ccc(-c3nc4cc(CC(=O)[O-])ccc4o3)cc2)cc1 (optimized conformer: 86.90793218683226 kcal/mol)

>  <smiles>  (92) 
CS(=O)(=O)c1ccc(CNc2ccc(-c3nc4cc(CC(=O)O)ccc4o3)cc2)cc1

>  <score_type>  (92) 
oracle

>  <origin>  (92) 
adg

>  <m_score__min__energy>  (92) 
-12.69

>  <m_primary>  (92) 
energy

$$$$
92:0
     RDKit          3D

 53 55  0  0  0  0  0  0  0  0999 V2000
   59.6010   27.8470   48.2950 C   0  0  0  0  0  0  0  0  0  0  0  0
   60.6820   26.8170   47.9960 C   0  0  0  0  0  0  0  0  0  0  0  0
   60.4400   26.0930   46.3340 S   0  0  0  0  0  0  0  0  0  0  0  0
   59.2570   27.3310   45.7710 C   0  0  0  0  0  0  0  0  0  0  0  0
   59.7510   28.5690   45.3450 C   0  0  0  0  0  0  0  0  0  0  0  0
   58.8830   29.5780   44.9310 C   0  0  0  0  0  0  0  0  0  0  0  0
   57.4970   29.3610   44.9190 C   0  0  0  0  0  0  0  0  0  0  0  0
   56.5650   30.4340   44.4900 C   0  0  0  0  0  0  0  0  0  0  0  0
   55.3260   30.2060   44.4580 O   0  0  0  0  0  0  0  0  0  0  0  0
   57.0260   31.7580   44.1790 N   0  0  0  0  0  0  0  0  0  0  0  0
   57.6660   32.5730   44.9710 C   0  0  0  0  0  0  0  0  0  0  0  0
   58.2070   33.7980   44.5250 C   0  0  0  0  0  0  0  0  0  0  0  0
   58.8730   34.6240   45.4310 C   0  0  0  0  0  0  0  0  0  0  0  0
   58.9910   34.2430   46.7680 C   0  0  0  0  0  0  0  0  0  0  0  0
   58.4300   33.0300   47.1860 C   0  0  0  0  0  0  0  0  0  0  0  0
   58.5310   32.6050   48.6150 C   0  0  0  0  0  0  0  0  0  0  0  0
   57.7870   32.2390   46.2850 N   0  0  0  0  0  0  0  0  0  0  0  0
   56.9990   28.1140   45.3290 C   0  0  0  0  0  0  0  0  0  0  0  0
   57.8640   27.0860   45.7370 C   0  0  0  0  0  0  0  0  0  0  0  0
   57.1680   25.5150   46.1810 S   0  0  0  0  0  0  0  0  0  0  0  0
   55.6700   25.5850   46.0800 O   0  0  0  0  0  0  0  0  0  0  0  0
   57.5210   25.1990   47.6090 O   0  0  0  0  0  0  0  0  0  0  0  0
   57.7760   24.2520   45.1370 N   0  0  0  0  0  0  0  0  0  0  0  0
   57.4020   24.5130   43.7190 C   0  0  0  0  0  0  0  0  0  0  0  0
   56.2020   23.6740   43.2530 C   0  0  0  0  0  0  0  0  0  0  0  0
   56.4940   22.1700   43.3880 C   0  0  0  0  0  0  0  0  0  0  0  0
   57.4300   21.8490   44.5670 C   0  0  0  0  0  0  0  0  0  0  0  0
   57.3410   22.9290   45.6490 C   0  0  0  0  0  0  0  0  0  0  0  0
   59.4881   27.9545   49.3839 H   0  0  0  0  0  0  0  0  0  0  0  0
   59.8866   28.8155   47.8585 H   0  0  0  0  0  0  0  0  0  0  0  0
   58.6474   27.5150   47.8585 H   0  0  0  0  0  0  0  0  0  0  0  0
   61.6672   27.3045   48.0379 H   0  0  0  0  0  0  0  0  0  0  0  0
   60.6227   26.0134   48.7448 H   0  0  0  0  0  0  0  0  0  0  0  0
   60.8363   28.7479   45.3368 H   0  0  0  0  0  0  0  0  0  0  0  0
   59.2871   30.5500   44.6118 H   0  0  0  0  0  0  0  0  0  0  0  0
   58.1044   34.0989   43.4720 H   0  0  0  0  0  0  0  0  0  0  0  0
   59.3055   35.5765   45.0909 H   0  0  0  0  0  0  0  0  0  0  0  0
   59.5188   34.8883   47.4857 H   0  0  0  0  0  0  0  0  0  0  0  0
   58.3265   33.4656   49.2688 H   0  0  0  0  0  0  0  0  0  0  0  0
   57.7966   31.8106   48.8141 H   0  0  0  0  0  0  0  0  0  0  0  0
   59.5442   32.2259   48.8141 H   0  0  0  0  0  0  0  0  0  0  0  0
   55.9129   27.9394   45.3306 H   0  0  0  0  0  0  0  0  0  0  0  0
   58.8190   24.2940   45.1980 H   0  0  0  0  0  0  0  0  0  0  0  0
   57.1478   25.5780   43.6134 H   0  0  0  0  0  0  0  0  0  0  0  0
   58.2628   24.2336   43.0938 H   0  0  0  0  0  0  0  0  0  0  0  0
   55.3259   23.9268   43.8683 H   0  0  0  0  0  0  0  0  0  0  0  0
   56.0077   23.8991   42.1940 H   0  0  0  0  0  0  0  0  0  0  0  0
   55.5425   21.6392   43.5397 H   0  0  0  0  0  0  0  0  0  0  0  0
   56.9987   21.8459   42.4659 H   0  0  0  0  0  0  0  0  0  0  0  0
   57.1420   20.8803   45.0013 H   0  0  0  0  0  0  0  0  0  0  0  0
   58.4639   21.8121   44.1933 H   0  0  0  0  0  0  0  0  0  0  0  0
   56.2990   23.0044   45.9933 H   0  0  0  0  0  0  0  0  0  0  0  0
   58.0081   22.6436   46.4758 H   0  0  0  0  0  0  0  0  0  0  0  0
  1  2  1  0
  2  3  1  0
  3  4  1  0
  4  5  2  0
  5  6  1  0
  6  7  2  0
  7  8  1  0
  8  9  2  0
  8 10  1  0
 10 11  2  3
 11 12  1  0
 12 13  2  0
 13 14  1  0
 14 15  2  0
 15 16  1  0
 15 17  1  0
  7 18  1  0
 18 19  2  0
 19 20  1  0
 20 21  2  0
 20 22  2  0
 20 23  1  0
 23 24  1  0
 24 25  1  0
 25 26  1  0
 26 27  1  0
 27 28  1  0
 19  4  1  0
 28 23  1  0
 17 11  1  0
  1 29  1  0
  1 30  1  0
  1 31  1  0
  2 32  1  0
  2 33  1  0
  5 34  1  0
  6 35  1  0
 12 36  1  0
 13 37  1  0
 14 38  1  0
 16 39  1  0
 16 40  1  0
 16 41  1  0
 18 42  1  0
 23 43  1  0
 24 44  1  0
 24 45  1  0
 25 46  1  0
 25 47  1  0
 26 48  1  0
 26 49  1  0
 27 50  1  0
 27 51  1  0
 28 52  1  0
 28 53  1  0
M  CHG  2  17  -1  23   1
M  END
>  <UniqueID>  (93) 
84

>  <SMILES>  (93) 
CCSc1ccc(C(=O)N=c2cccc(C)[n-]2)cc1S(=O)(=O)[NH+]1CCCCC1

>  <Energy>  (93) 
63.87124158291724

>  <Genealogy>  (93) 
CCSc1ccc(C(=O)N=c2cccc(C)[n-]2)cc1S(=O)(=O)[NH+]1CCCCC1 (protonated)
CCSc1ccc(C(=O)N=c2cccc(C)[n-]2)cc1S(=O)(=O)[NH+]1CCCCC1 (3D coordinates assigned)
CCSc1ccc(C(=O)N=c2cccc(C)[n-]2)cc1S(=O)(=O)[NH+]1CCCCC1 (nonaromatic ring conformer: 63.87124158291724 kcal/mol)

>  <smiles>  (93) 
CCSc1ccc(C(=O)N=c2cccc(C)[nH]2)cc1S(=O)(=O)N1CCCCC1

>  <score_type>  (93) 
oracle

>  <origin>  (93) 
adg

>  <m_score__min__energy>  (93) 
-9.5

>  <m_primary>  (93) 
energy

$$$$
93:0
     RDKit          3D

 53 55  0  0  0  0  0  0  0  0999 V2000
   67.1850   33.0460   50.1680 C   0  0  0  0  0  0  0  0  0  0  0  0
   65.9510   32.8400   51.0740 C   0  0  0  0  0  0  0  0  0  0  0  0
   66.1190   33.7510   52.3130 C   0  0  0  0  0  0  0  0  0  0  0  0
   65.9150   31.3750   51.5650 C   0  0  0  0  0  0  0  0  0  0  0  0
   64.6670   33.1380   50.2690 C   0  0  0  0  0  0  0  0  0  0  0  0
   63.6240   33.8700   50.8770 C   0  0  0  0  0  0  0  0  0  0  0  0
   62.4460   34.1550   50.1850 C   0  0  0  0  0  0  0  0  0  0  0  0
   62.2660   33.7160   48.8650 C   0  0  0  0  0  0  0  0  0  0  0  0
   60.9930   33.9900   48.1700 C   0  0  0  0  0  0  0  0  0  0  0  0
   60.0620   34.5880   48.7700 O   0  0  0  0  0  0  0  0  0  0  0  0
   60.8320   33.6200   46.7960 N   0  0  0  0  0  0  0  0  0  0  0  0
   59.5800   33.3060   46.1660 C   0  0  0  0  0  0  0  0  0  0  0  0
   59.0140   34.2000   45.2330 C   0  0  0  0  0  0  0  0  0  0  0  0
   57.8210   33.8890   44.5840 C   0  0  0  0  0  0  0  0  0  0  0  0
   57.1730   32.6800   44.8520 C   0  0  0  0  0  0  0  0  0  0  0  0
   57.7260   31.7800   45.7610 C   0  0  0  0  0  0  0  0  0  0  0  0
   58.9380   32.0700   46.4230 C   0  0  0  0  0  0  0  0  0  0  0  0
   59.4670   31.0720   47.3950 C   0  0  0  0  0  0  0  0  0  0  0  0
   59.5170   31.3730   48.6180 O   0  0  0  0  0  0  0  0  0  0  0  0
   59.9440   29.7790   46.9960 N   0  0  0  0  0  0  0  0  0  0  0  0
   59.2150   28.8610   46.1590 C   0  0  0  0  0  0  0  0  0  0  0  0
   59.6140   28.6940   44.8230 C   0  0  0  0  0  0  0  0  0  0  0  0
   58.9370   27.8050   43.9870 C   0  0  0  0  0  0  0  0  0  0  0  0
   57.8600   27.0600   44.4770 C   0  0  0  0  0  0  0  0  0  0  0  0
   57.4510   27.1980   45.8140 C   0  0  0  0  0  0  0  0  0  0  0  0
   56.3030   26.4190   46.3300 C   0  0  0  0  0  0  0  0  0  0  0  0
   55.1260   26.7090   45.9880 O   0  0  0  0  0  0  0  0  0  0  0  0
   56.5100   25.3420   47.1900 O   0  0  0  0  0  0  0  0  0  0  0  0
   58.1390   28.0980   46.6530 C   0  0  0  0  0  0  0  0  0  0  0  0
   63.2820   32.9700   48.2510 C   0  0  0  0  0  0  0  0  0  0  0  0
   64.4730   32.6960   48.9350 C   0  0  0  0  0  0  0  0  0  0  0  0
   68.0779   33.1951   50.7929 H   0  0  0  0  0  0  0  0  0  0  0  0
   67.3258   32.1589   49.5330 H   0  0  0  0  0  0  0  0  0  0  0  0
   67.0300   33.9307   49.5330 H   0  0  0  0  0  0  0  0  0  0  0  0
   66.0082   33.1501   53.2277 H   0  0  0  0  0  0  0  0  0  0  0  0
   67.1174   34.2124   52.2962 H   0  0  0  0  0  0  0  0  0  0  0  0
   65.3509   34.5382   52.2962 H   0  0  0  0  0  0  0  0  0  0  0  0
   65.9146   31.3568   52.6648 H   0  0  0  0  0  0  0  0  0  0  0  0
   65.0045   30.8848   51.1898 H   0  0  0  0  0  0  0  0  0  0  0  0
   66.8003   30.8407   51.1898 H   0  0  0  0  0  0  0  0  0  0  0  0
   63.7417   34.2213   51.9127 H   0  0  0  0  0  0  0  0  0  0  0  0
   61.6499   34.7303   50.6802 H   0  0  0  0  0  0  0  0  0  0  0  0
   59.5197   35.1524   45.0157 H   0  0  0  0  0  0  0  0  0  0  0  0
   57.3888   34.5955   43.8601 H   0  0  0  0  0  0  0  0  0  0  0  0
   56.2267   32.4389   44.3456 H   0  0  0  0  0  0  0  0  0  0  0  0
   57.2104   30.8301   45.9654 H   0  0  0  0  0  0  0  0  0  0  0  0
   60.7770   29.4100   47.5080 H   0  0  0  0  0  0  0  0  0  0  0  0
   60.4669   29.2684   44.4324 H   0  0  0  0  0  0  0  0  0  0  0  0
   59.2517   27.6900   42.9393 H   0  0  0  0  0  0  0  0  0  0  0  0
   57.3301   26.3621   43.8121 H   0  0  0  0  0  0  0  0  0  0  0  0
   57.8325   28.2055   47.7040 H   0  0  0  0  0  0  0  0  0  0  0  0
   63.1428   32.5975   47.2254 H   0  0  0  0  0  0  0  0  0  0  0  0
   65.2697   32.1297   48.4305 H   0  0  0  0  0  0  0  0  0  0  0  0
  1  2  1  0
  2  3  1  0
  2  4  1  0
  2  5  1  0
  5  6  2  0
  6  7  1  0
  7  8  2  0
  8  9  1  0
  9 10  2  0
  9 11  1  0
 11 12  1  0
 12 13  2  0
 13 14  1  0
 14 15  2  0
 15 16  1  0
 16 17  2  0
 17 18  1  0
 18 19  2  0
 18 20  1  0
 20 21  1  0
 21 22  2  0
 22 23  1  0
 23 24  2  0
 24 25  1  0
 25 26  1  0
 26 27  2  0
 26 28  1  0
 25 29  2  0
  8 30  1  0
 30 31  2  0
 31  5  1  0
 17 12  1  0
 29 21  1  0
  1 32  1  0
  1 33  1  0
  1 34  1  0
  3 35  1  0
  3 36  1  0
  3 37  1  0
  4 38  1  0
  4 39  1  0
  4 40  1  0
  6 41  1  0
  7 42  1  0
 13 43  1  0
 14 44  1  0
 15 45  1  0
 16 46  1  0
 20 47  1  0
 22 48  1  0
 23 49  1  0
 24 50  1  0
 29 51  1  0
 30 52  1  0
 31 53  1  0
M  CHG  2  11  -1  28  -1
M  END
>  <UniqueID>  (94) 
85

>  <SMILES>  (94) 
CC(C)(C)c1ccc(C(=O)[N-]c2ccccc2C(=O)Nc2cccc(C(=O)[O-])c2)cc1

>  <Energy>  (94) 
71.21976348319535

>  <Genealogy>  (94) 
CC(C)(C)c1ccc(C(=O)[N-]c2ccccc2C(=O)Nc2cccc(C(=O)[O-])c2)cc1 (protonated)
CC(C)(C)c1ccc(C(=O)[N-]c2ccccc2C(=O)Nc2cccc(C(=O)[O-])c2)cc1 (3D coordinates assigned)
CC(C)(C)c1ccc(C(=O)[N-]c2ccccc2C(=O)Nc2cccc(C(=O)[O-])c2)cc1 (optimized conformer: 71.21976348319535 kcal/mol)

>  <smiles>  (94) 
CC(C)(C)c1ccc(C(=O)Nc2ccccc2C(=O)Nc2cccc(C(=O)O)c2)cc1

>  <score_type>  (94) 
oracle

>  <origin>  (94) 
adg

>  <m_score__min__energy>  (94) 
-13.59

>  <m_primary>  (94) 
energy

$$$$
94:0
     RDKit          3D

 41 43  0  0  0  0  0  0  0  0999 V2000
   59.7190   32.8010   46.9880 O   0  0  0  0  0  0  0  0  0  0  0  0
   59.0660   33.8440   46.7730 C   0  0  0  0  0  0  0  0  0  0  0  0
   59.2740   34.9740   47.7150 C   0  0  0  0  0  0  0  0  0  0  0  0
   60.1600   34.5420   49.2030 S   0  0  0  0  0  0  0  0  0  0  0  0
   61.8320   34.0460   48.9050 C   0  0  0  0  0  0  0  0  0  0  0  0
   62.7400   33.8200   49.8720 N   0  0  0  0  0  0  0  0  0  0  0  0
   63.9960   33.4430   49.5100 C   0  0  0  0  0  0  0  0  0  0  0  0
   64.7990   33.2480   50.4510 O   0  0  0  0  0  0  0  0  0  0  0  0
   64.3310   33.2970   48.2020 N   0  0  0  0  0  0  0  0  0  0  0  0
   63.4290   33.5220   47.2320 C   0  0  0  0  0  0  0  0  0  0  0  0
   63.7690   33.3780   46.0180 O   0  0  0  0  0  0  0  0  0  0  0  0
   62.1950   33.8920   47.5920 N   0  0  0  0  0  0  0  0  0  0  0  0
   58.1710   33.9500   45.6850 N   0  0  0  0  0  0  0  0  0  0  0  0
   57.8920   32.9580   44.7300 C   0  0  0  0  0  0  0  0  0  0  0  0
   58.0770   33.0640   43.3780 C   0  0  0  0  0  0  0  0  0  0  0  0
   57.7690   32.0480   42.4800 C   0  0  0  0  0  0  0  0  0  0  0  0
   57.2500   30.8620   42.9520 C   0  0  0  0  0  0  0  0  0  0  0  0
   57.0570   30.7350   44.2910 C   0  0  0  0  0  0  0  0  0  0  0  0
   56.4690   29.4950   44.7850 C   0  0  0  0  0  0  0  0  0  0  0  0
   55.2220   29.3140   44.8500 O   0  0  0  0  0  0  0  0  0  0  0  0
   57.3290   28.3910   45.2290 C   0  0  0  0  0  0  0  0  0  0  0  0
   56.8310   27.2040   45.7160 C   0  0  0  0  0  0  0  0  0  0  0  0
   57.7250   26.1950   46.0980 C   0  0  0  0  0  0  0  0  0  0  0  0
   59.0950   26.3730   45.9920 C   0  0  0  0  0  0  0  0  0  0  0  0
   59.5950   27.5490   45.5090 C   0  0  0  0  0  0  0  0  0  0  0  0
   58.7160   28.5410   45.1330 C   0  0  0  0  0  0  0  0  0  0  0  0
   57.3620   31.7390   45.1750 C   0  0  0  0  0  0  0  0  0  0  0  0
   59.8419   35.7575   47.1919 H   0  0  0  0  0  0  0  0  0  0  0  0
   58.2742   35.3066   48.0310 H   0  0  0  0  0  0  0  0  0  0  0  0
   65.3110   33.0050   47.9770 H   0  0  0  0  0  0  0  0  0  0  0  0
   61.5020   34.0620   46.8290 H   0  0  0  0  0  0  0  0  0  0  0  0
   57.6630   34.8800   45.6070 H   0  0  0  0  0  0  0  0  0  0  0  0
   58.4912   34.0025   42.9808 H   0  0  0  0  0  0  0  0  0  0  0  0
   57.9382   32.1898   41.4024 H   0  0  0  0  0  0  0  0  0  0  0  0
   56.9990   30.0411   42.2641 H   0  0  0  0  0  0  0  0  0  0  0  0
   55.7455   27.0495   45.8042 H   0  0  0  0  0  0  0  0  0  0  0  0
   57.3323   25.2448   46.4890 H   0  0  0  0  0  0  0  0  0  0  0  0
   59.7797   25.5678   46.2966 H   0  0  0  0  0  0  0  0  0  0  0  0
   60.6809   27.7013   45.4218 H   0  0  0  0  0  0  0  0  0  0  0  0
   59.1204   29.4865   44.7426 H   0  0  0  0  0  0  0  0  0  0  0  0
   57.1878   31.5849   46.2501 H   0  0  0  0  0  0  0  0  0  0  0  0
  1  2  2  0
  2  3  1  0
  3  4  1  0
  4  5  1  0
  5  6  2  0
  6  7  1  0
  7  8  2  0
  7  9  1  0
  9 10  1  0
 10 11  2  0
 10 12  1  0
  2 13  1  0
 13 14  1  0
 14 15  2  0
 15 16  1  0
 16 17  2  0
 17 18  1  0
 18 19  1  0
 19 20  2  0
 19 21  1  0
 21 22  2  0
 22 23  1  0
 23 24  2  0
 24 25  1  0
 25 26  2  0
 18 27  2  0
 12  5  1  0
 27 14  1  0
 26 21  1  0
  3 28  1  0
  3 29  1  0
  9 30  1  0
 12 31  1  0
 13 32  1  0
 15 33  1  0
 16 34  1  0
 17 35  1  0
 22 36  1  0
 23 37  1  0
 24 38  1  0
 25 39  1  0
 26 40  1  0
 27 41  1  0
M  END
>  <smiles>  (95) 
O=C(CSc1nc(=O)[nH]c(=O)[nH]1)Nc1cccc(C(=O)c2ccccc2)c1

>  <score_type>  (95) 
oracle

>  <origin>  (95) 
adg

>  <m_score__min__energy>  (95) 
-9.7400000000000002

>  <m_primary>  (95) 
energy

$$$$
95:0
     RDKit          3D

 38 40  0  0  0  0  0  0  0  0999 V2000
   60.5350   26.7460   50.3970 N   0  0  0  0  0  0  0  0  0  0  0  0
   60.6440   27.6310   49.6600 C   0  0  0  0  0  0  0  0  0  0  0  0
   60.7790   28.7340   48.7410 C   0  0  0  0  0  0  0  0  0  0  0  0
   61.2470   29.9650   49.2210 C   0  0  0  0  0  0  0  0  0  0  0  0
   61.3310   31.0770   48.3740 C   0  0  0  0  0  0  0  0  0  0  0  0
   61.8280   32.3110   48.9100 N   0  0  0  0  0  0  0  0  0  0  0  0
   61.6890   33.8600   48.1420 S   0  0  0  0  0  0  0  0  0  0  0  0
   61.7700   34.9360   49.1890 O   0  0  0  0  0  0  0  0  0  0  0  0
   62.8260   34.0340   47.1750 O   0  0  0  0  0  0  0  0  0  0  0  0
   60.1690   33.9560   47.2590 C   0  0  0  0  0  0  0  0  0  0  0  0
   60.1390   34.5410   45.9850 C   0  0  0  0  0  0  0  0  0  0  0  0
   58.9400   34.6040   45.2690 C   0  0  0  0  0  0  0  0  0  0  0  0
   57.7650   34.0910   45.8240 C   0  0  0  0  0  0  0  0  0  0  0  0
   57.7890   33.5110   47.0960 C   0  0  0  0  0  0  0  0  0  0  0  0
   58.9870   33.4420   47.8130 C   0  0  0  0  0  0  0  0  0  0  0  0
   60.9220   30.9540   47.0360 C   0  0  0  0  0  0  0  0  0  0  0  0
   60.4600   29.7290   46.5500 C   0  0  0  0  0  0  0  0  0  0  0  0
   60.4060   28.6080   47.3850 C   0  0  0  0  0  0  0  0  0  0  0  0
   59.9380   27.4000   46.8490 O   0  0  0  0  0  0  0  0  0  0  0  0
   58.5900   27.1050   46.5920 C   0  0  0  0  0  0  0  0  0  0  0  0
   57.8340   28.0230   45.8520 C   0  0  0  0  0  0  0  0  0  0  0  0
   56.4880   27.7670   45.5720 C   0  0  0  0  0  0  0  0  0  0  0  0
   55.8890   26.5860   46.0240 C   0  0  0  0  0  0  0  0  0  0  0  0
   54.5510   26.3340   45.7480 O   0  0  0  0  0  0  0  0  0  0  0  0
   56.6420   25.6560   46.7470 C   0  0  0  0  0  0  0  0  0  0  0  0
   57.9870   25.9090   47.0290 C   0  0  0  0  0  0  0  0  0  0  0  0
   61.5514   30.0585   50.2739 H   0  0  0  0  0  0  0  0  0  0  0  0
   61.0612   34.9514   45.5479 H   0  0  0  0  0  0  0  0  0  0  0  0
   58.9217   35.0581   44.2673 H   0  0  0  0  0  0  0  0  0  0  0  0
   56.8216   34.1433   45.2607 H   0  0  0  0  0  0  0  0  0  0  0  0
   56.8635   33.1083   47.5333 H   0  0  0  0  0  0  0  0  0  0  0  0
   59.0030   32.9840   48.8130 H   0  0  0  0  0  0  0  0  0  0  0  0
   60.9658   31.8267   46.3678 H   0  0  0  0  0  0  0  0  0  0  0  0
   60.1360   29.6449   45.5022 H   0  0  0  0  0  0  0  0  0  0  0  0
   58.3015   28.9502   45.4892 H   0  0  0  0  0  0  0  0  0  0  0  0
   55.8991   28.4954   44.9953 H   0  0  0  0  0  0  0  0  0  0  0  0
   56.1746   24.7229   47.0947 H   0  0  0  0  0  0  0  0  0  0  0  0
   58.5768   25.1721   47.5939 H   0  0  0  0  0  0  0  0  0  0  0  0
  1  2  3  0
  2  3  1  0
  3  4  2  0
  4  5  1  0
  5  6  1  0
  6  7  1  0
  7  8  2  0
  7  9  2  0
  7 10  1  0
 10 11  2  0
 11 12  1  0
 12 13  2  0
 13 14  1  0
 14 15  2  0
  5 16  2  0
 16 17  1  0
 17 18  2  0
 18 19  1  0
 19 20  1  0
 20 21  2  0
 21 22  1  0
 22 23  2  0
 23 24  1  0
 23 25  1  0
 25 26  2  0
 18  3  1  0
 26 20  1  0
 15 10  1  0
  4 27  1  0
 11 28  1  0
 12 29  1  0
 13 30  1  0
 14 31  1  0
 15 32  1  0
 16 33  1  0
 17 34  1  0
 21 35  1  0
 22 36  1  0
 25 37  1  0
 26 38  1  0
M  CHG  2   6  -1  24  -1
M  END
>  <UniqueID>  (96) 
86

>  <SMILES>  (96) 
N#Cc1cc([N-]S(=O)(=O)c2ccccc2)ccc1Oc1ccc([O-])cc1

>  <Energy>  (96) 
51.802918591488776

>  <Genealogy>  (96) 
N#Cc1cc([N-]S(=O)(=O)c2ccccc2)ccc1Oc1ccc([O-])cc1 (protonated)
N#Cc1cc([N-]S(=O)(=O)c2ccccc2)ccc1Oc1ccc([O-])cc1 (3D coordinates assigned)
N#Cc1cc([N-]S(=O)(=O)c2ccccc2)ccc1Oc1ccc([O-])cc1 (optimized conformer: 51.802918591488776 kcal/mol)

>  <smiles>  (96) 
N#Cc1cc(NS(=O)(=O)c2ccccc2)ccc1Oc1ccc(O)cc1

>  <score_type>  (96) 
oracle

>  <origin>  (96) 
adg

>  <m_score__min__energy>  (96) 
-11.449999999999999

>  <m_primary>  (96) 
energy

$$$$
