0:0
     RDKit          3D

 53 56  0  0  0  0  0  0  0  0999 V2000
   62.7410   35.2520   50.0700 H   0  0  0  0  0  0  0  0  0  0  0  0
   63.3380   35.1960   50.8620 O   0  0  0  0  0  0  0  0  0  0  0  0
   62.9850   34.0180   51.5330 C   0  0  0  0  0  0  0  0  0  0  0  0
   61.9304   34.0756   51.8406 H   0  0  0  0  0  0  0  0  0  0  0  0
   63.6253   33.9008   52.4197 H   0  0  0  0  0  0  0  0  0  0  0  0
   63.1800   32.8070   50.6040 C   0  0  1  0  0  0  0  0  0  0  0  0
   62.4979   32.0278   50.9749 H   0  0  0  0  0  0  0  0  0  0  0  0
   62.9080   33.1750   49.2190 N   0  0  0  0  0  0  0  0  0  0  0  0
   61.5850   33.4460   48.7120 C   0  0  0  0  0  0  0  0  0  0  0  0
   61.0410   34.5600   48.9420 O   0  0  0  0  0  0  0  0  0  0  0  0
   60.8520   32.4620   47.8960 C   0  0  0  0  0  0  0  0  0  0  0  0
   59.4850   32.6460   47.6420 C   0  0  0  0  0  0  0  0  0  0  0  0
   58.9671   33.5287   48.0452 H   0  0  0  0  0  0  0  0  0  0  0  0
   58.7780   31.7130   46.8790 C   0  0  0  0  0  0  0  0  0  0  0  0
   57.7091   31.8710   46.6729 H   0  0  0  0  0  0  0  0  0  0  0  0
   59.4260   30.5760   46.3750 C   0  0  0  0  0  0  0  0  0  0  0  0
   58.7020   29.6240   45.5770 N   0  0  0  0  0  0  0  0  0  0  0  0
   57.9170   29.9180   44.5160 C   0  0  0  0  0  0  0  0  0  0  0  0
   57.6540   31.3000   44.0010 C   0  0  0  0  0  0  0  0  0  0  0  0
   57.5230   31.9885   44.8488 H   0  0  0  0  0  0  0  0  0  0  0  0
   58.5053   31.6310   43.3880 H   0  0  0  0  0  0  0  0  0  0  0  0
   56.7406   31.2952   43.3880 H   0  0  0  0  0  0  0  0  0  0  0  0
   57.3840   28.7650   43.9760 C   0  0  0  0  0  0  0  0  0  0  0  0
   56.7073   28.6963   43.1115 H   0  0  0  0  0  0  0  0  0  0  0  0
   57.8680   27.7090   44.7360 C   0  0  0  0  0  0  0  0  0  0  0  0
   57.6190   26.4010   44.5300 C   0  0  0  0  0  0  0  0  0  0  0  0
   57.7354   26.0021   43.5115 H   0  0  0  0  0  0  0  0  0  0  0  0
   57.1970   25.4730   45.6030 C   0  0  0  0  0  0  0  0  0  0  0  0
   55.9850   25.6450   46.2930 C   0  0  0  0  0  0  0  0  0  0  0  0
   55.1330   26.7000   45.9860 O   0  0  0  0  0  0  0  0  0  0  0  0
   55.6440   24.7860   47.2880 N   0  0  0  0  0  0  0  0  0  0  0  0
   56.4640   23.7660   47.6460 C   0  0  0  0  0  0  0  0  0  0  0  0
   56.1250   22.9790   48.5680 O   0  0  0  0  0  0  0  0  0  0  0  0
   57.6530   23.5960   47.0140 N   0  0  0  0  0  0  0  0  0  0  0  0
   58.0400   24.4270   46.0110 C   0  0  0  0  0  0  0  0  0  0  0  0
   59.1530   24.2410   45.4500 O   0  0  0  0  0  0  0  0  0  0  0  0
   58.6850   28.2740   45.7210 C   0  0  0  0  0  0  0  0  0  0  0  0
   59.3290   27.6140   46.6960 C   0  0  0  0  0  0  0  0  0  0  0  0
   59.9472   28.1666   47.4188 H   0  0  0  0  0  0  0  0  0  0  0  0
   59.2387   26.5204   46.7724 H   0  0  0  0  0  0  0  0  0  0  0  0
   60.7890   30.3820   46.6440 C   0  0  0  0  0  0  0  0  0  0  0  0
   61.3032   29.4914   46.2537 H   0  0  0  0  0  0  0  0  0  0  0  0
   61.4960   31.3160   47.4060 C   0  0  0  0  0  0  0  0  0  0  0  0
   62.5619   31.1520   47.6225 H   0  0  0  0  0  0  0  0  0  0  0  0
   64.1180   33.2270   48.4110 C   0  0  0  0  0  0  0  0  0  0  0  0
   64.0923   32.4512   47.6316 H   0  0  0  0  0  0  0  0  0  0  0  0
   64.2231   34.1952   47.8996 H   0  0  0  0  0  0  0  0  0  0  0  0
   65.2690   32.9730   49.3750 C   0  0  0  0  0  0  0  0  0  0  0  0
   66.0068   32.2939   48.9228 H   0  0  0  0  0  0  0  0  0  0  0  0
   65.8021   33.9011   49.6288 H   0  0  0  0  0  0  0  0  0  0  0  0
   64.6350   32.3300   50.6030 C   0  0  0  0  0  0  0  0  0  0  0  0
   64.6808   31.2333   50.5305 H   0  0  0  0  0  0  0  0  0  0  0  0
   65.1588   32.6102   51.5288 H   0  0  0  0  0  0  0  0  0  0  0  0
  1  2  1  0
  2  3  1  0
  3  4  1  0
  3  5  1  0
  3  6  1  0
  6  7  1  1
  6  8  1  0
  8  9  1  0
  9 10  2  0
  9 11  1  0
 11 12  2  0
 12 13  1  0
 12 14  1  0
 14 15  1  0
 14 16  2  0
 16 17  1  0
 17 18  1  0
 18 19  1  0
 19 20  1  0
 19 21  1  0
 19 22  1  0
 18 23  2  0
 23 24  1  0
 23 25  1  0
 25 26  2  0
 26 27  1  0
 26 28  1  0
 28 29  2  0
 29 30  1  0
 29 31  1  0
 31 32  1  0
 32 33  2  0
 32 34  1  0
 34 35  1  0
 35 36  2  0
 25 37  1  0
 37 38  2  0
 38 39  1  0
 38 40  1  0
 16 41  1  0
 41 42  1  0
 41 43  2  0
 43 44  1  0
  8 45  1  0
 45 46  1  0
 45 47  1  0
 45 48  1  0
 48 49  1  0
 48 50  1  0
 48 51  1  0
 51 52  1  0
 51 53  1  0
 51  6  1  0
 43 11  1  0
 37 17  1  0
 35 28  1  0
M  CHG  3  30  -1  31  -1  34  -1
M  END
>  <UniqueID>  (1) 
1

>  <SMILES>  (1) 
C=c1/c(=C/c2c([O-])[n-]c(=O)[n-]c2=O)cc(C)n1-c1ccc(C(=O)N2CCC[C@H]2CO)cc1

>  <Energy>  (1) 
105.23726176928987

>  <Genealogy>  (1) 
C=c1c(=Cc2c([O-])[n-]c(=O)[n-]c2=O)cc(C)n1-c1ccc(C(=O)N2CCCC2CO)cc1 (protonated)
C=c1c(=Cc2c([O-])[n-]c(=O)[n-]c2=O)cc(C)n1-c1ccc(C(=O)N2CCC[C@H]2CO)cc1 (chirality)
C=c1/c(=C/c2c([O-])[n-]c(=O)[n-]c2=O)cc(C)n1-c1ccc(C(=O)N2CCC[C@H]2CO)cc1 (cis-trans isomerization)
C=c1/c(=C/c2c([O-])[n-]c(=O)[n-]c2=O)cc(C)n1-c1ccc(C(=O)N2CCC[C@H]2CO)cc1 (3D coordinates assigned)
C=c1/c(=C/c2c([O-])[n-]c(=O)[n-]c2=O)cc(C)n1-c1ccc(C(=O)N2CCC[C@H]2CO)cc1 (nonaromatic ring conformer: 105.23726176928987 kcal/mol)

>  <smiles>  (1) 
C=c1c(=Cc2c(O)[nH]c(=O)[nH]c2=O)cc(C)n1-c1ccc(C(=O)N2CCCC2CO)cc1

>  <score_type>  (1) 
oracle

>  <origin>  (1) 
adg

>  <m_score__min__energy>  (1) 
-16.079999999999998

>  <m_primary>  (1) 
energy

$$$$
1:0
     RDKit          3D

 48 50  0  0  0  0  0  0  0  0999 V2000
   55.6200   29.5900   42.9330 O   0  0  0  0  0  0  0  0  0  0  0  0
   56.2110   29.8100   44.0250 C   0  0  0  0  0  0  0  0  0  0  0  0
   57.1450   30.9700   44.1310 C   0  0  0  0  0  0  0  0  0  0  0  0
   56.5550   31.9950   44.9850 N   0  0  0  0  0  0  0  0  0  0  0  0
   57.2660   33.1130   45.5370 C   0  0  0  0  0  0  0  0  0  0  0  0
   56.6460   34.1970   45.7190 O   0  0  0  0  0  0  0  0  0  0  0  0
   58.6830   33.0240   45.9430 C   0  0  0  0  0  0  0  0  0  0  0  0
   59.1840   31.8210   46.4670 C   0  0  0  0  0  0  0  0  0  0  0  0
   60.5260   31.7220   46.8490 C   0  0  0  0  0  0  0  0  0  0  0  0
   61.3770   32.8280   46.7290 C   0  0  0  0  0  0  0  0  0  0  0  0
   63.0640   32.6860   47.2180 S   0  0  0  0  0  0  0  0  0  0  0  0
   63.5680   31.3280   46.8110 O   0  0  0  0  0  0  0  0  0  0  0  0
   63.8940   33.7350   46.5280 O   0  0  0  0  0  0  0  0  0  0  0  0
   63.1980   32.8680   48.9480 N   0  0  0  0  0  0  0  0  0  0  0  0
   62.6380   34.1760   49.3600 C   0  0  0  0  0  0  0  0  0  0  0  0
   63.0240   34.5570   50.8080 C   0  0  0  0  0  0  0  0  0  0  0  0
   63.5220   33.3410   51.5960 C   0  0  0  0  0  0  0  0  0  0  0  0
   64.7190   32.6800   50.8920 C   0  0  0  0  0  0  0  0  0  0  0  0
   64.6070   32.7470   49.3560 C   0  0  0  0  0  0  0  0  0  0  0  0
   60.8740   34.0400   46.2360 C   0  0  0  0  0  0  0  0  0  0  0  0
   59.5320   34.1390   45.8520 C   0  0  0  0  0  0  0  0  0  0  0  0
   56.0080   28.9630   45.1680 N   0  0  0  0  0  0  0  0  0  0  0  0
   56.7590   27.9710   45.5530 C   0  0  0  0  0  0  0  0  0  0  0  0
   58.1210   28.0630   45.5330 N   0  0  0  0  0  0  0  0  0  0  0  0
   58.9210   27.0340   45.9220 C   0  0  0  0  0  0  0  0  0  0  0  0
   58.3530   25.8360   46.3590 C   0  0  0  0  0  0  0  0  0  0  0  0
   56.9610   25.7110   46.3900 C   0  0  0  0  0  0  0  0  0  0  0  0
   56.1560   26.7790   45.9860 C   0  0  0  0  0  0  0  0  0  0  0  0
   54.7690   26.6500   46.0140 O   0  0  0  0  0  0  0  0  0  0  0  0
   58.0979   30.6345   44.5662 H   0  0  0  0  0  0  0  0  0  0  0  0
   57.3252   31.3874   43.1294 H   0  0  0  0  0  0  0  0  0  0  0  0
   58.5179   30.9526   46.5775 H   0  0  0  0  0  0  0  0  0  0  0  0
   60.9144   30.7721   47.2451 H   0  0  0  0  0  0  0  0  0  0  0  0
   63.0165   34.9520   48.6784 H   0  0  0  0  0  0  0  0  0  0  0  0
   61.5416   34.0983   49.3163 H   0  0  0  0  0  0  0  0  0  0  0  0
   63.8215   35.3141   50.7777 H   0  0  0  0  0  0  0  0  0  0  0  0
   62.1285   34.9506   51.3112 H   0  0  0  0  0  0  0  0  0  0  0  0
   63.8300   33.6652   52.6010 H   0  0  0  0  0  0  0  0  0  0  0  0
   62.7051   32.6073   51.6611 H   0  0  0  0  0  0  0  0  0  0  0  0
   65.6400   33.1955   51.2020 H   0  0  0  0  0  0  0  0  0  0  0  0
   64.7344   31.6189   51.1814 H   0  0  0  0  0  0  0  0  0  0  0  0
   65.1665   33.6204   48.9898 H   0  0  0  0  0  0  0  0  0  0  0  0
   65.0240   31.8236   48.9277 H   0  0  0  0  0  0  0  0  0  0  0  0
   61.5354   34.9148   46.1508 H   0  0  0  0  0  0  0  0  0  0  0  0
   59.1398   35.0957   45.4767 H   0  0  0  0  0  0  0  0  0  0  0  0
   60.0149   27.1458   45.8923 H   0  0  0  0  0  0  0  0  0  0  0  0
   58.9936   24.9997   46.6754 H   0  0  0  0  0  0  0  0  0  0  0  0
   56.5000   24.7727   46.7321 H   0  0  0  0  0  0  0  0  0  0  0  0
  1  2  2  0
  2  3  1  0
  3  4  1  0
  4  5  1  0
  5  6  2  0
  5  7  1  0
  7  8  2  0
  8  9  1  0
  9 10  2  0
 10 11  1  0
 11 12  2  0
 11 13  2  0
 11 14  1  0
 14 15  1  0
 15 16  1  0
 16 17  1  0
 17 18  1  0
 18 19  1  0
 10 20  1  0
 20 21  2  0
  2 22  1  0
 22 23  2  3
 23 24  1  0
 24 25  1  0
 25 26  2  0
 26 27  1  0
 27 28  2  0
 28 29  1  0
 21  7  1  0
 28 23  1  0
 19 14  1  0
  3 30  1  0
  3 31  1  0
  8 32  1  0
  9 33  1  0
 15 34  1  0
 15 35  1  0
 16 36  1  0
 16 37  1  0
 17 38  1  0
 17 39  1  0
 18 40  1  0
 18 41  1  0
 19 42  1  0
 19 43  1  0
 20 44  1  0
 21 45  1  0
 25 46  1  0
 26 47  1  0
 27 48  1  0
M  CHG  3   4  -1  24  -1  29  -1
M  END
>  <UniqueID>  (2) 
2

>  <SMILES>  (2) 
O=C(C[N-]C(=O)c1ccc(S(=O)(=O)N2CCCCC2)cc1)N=c1[n-]cccc1[O-]

>  <Energy>  (2) 
58.54373905335736

>  <Genealogy>  (2) 
O=C(C[N-]C(=O)c1ccc(S(=O)(=O)N2CCCCC2)cc1)N=c1[n-]cccc1[O-] (protonated)
O=C(C[N-]C(=O)c1ccc(S(=O)(=O)N2CCCCC2)cc1)N=c1[n-]cccc1[O-] (3D coordinates assigned)
O=C(C[N-]C(=O)c1ccc(S(=O)(=O)N2CCCCC2)cc1)N=c1[n-]cccc1[O-] (nonaromatic ring conformer: 58.54373905335736 kcal/mol)

>  <smiles>  (2) 
O=C(CNC(=O)c1ccc(S(=O)(=O)N2CCCCC2)cc1)N=c1[nH]cccc1O

>  <score_type>  (2) 
oracle

>  <origin>  (2) 
adg

>  <m_score__min__energy>  (2) 
-16.539999999999999

>  <m_primary>  (2) 
energy

$$$$
2:0
     RDKit          3D

 43 45  0  0  0  0  0  0  0  0999 V2000
   62.5490   32.2600   47.1660 C   0  0  0  0  0  0  0  0  0  0  0  0
   61.3310   31.8190   47.9160 C   0  0  0  0  0  0  0  0  0  0  0  0
   61.1490   30.5020   48.2150 N   0  0  0  0  0  0  0  0  0  0  0  0
   60.0340   30.2960   48.9440 C   0  0  0  0  0  0  0  0  0  0  0  0
   59.6670   29.1080   49.3250 N   0  0  0  0  0  0  0  0  0  0  0  0
   59.8420   27.8930   48.5800 C   0  0  0  0  0  0  0  0  0  0  0  0
   60.4520   26.9350   49.1250 O   0  0  0  0  0  0  0  0  0  0  0  0
   59.2660   27.7110   47.2250 C   0  0  0  0  0  0  0  0  0  0  0  0
   59.5490   26.5510   46.4850 C   0  0  0  0  0  0  0  0  0  0  0  0
   59.0130   26.3790   45.2060 C   0  0  0  0  0  0  0  0  0  0  0  0
   58.1890   27.3630   44.6520 C   0  0  0  0  0  0  0  0  0  0  0  0
   57.8920   28.5220   45.3800 C   0  0  0  0  0  0  0  0  0  0  0  0
   56.8650   29.7730   44.6880 S   0  0  0  0  0  0  0  0  0  0  0  0
   55.2050   29.3170   44.8470 N   0  0  0  0  0  0  0  0  0  0  0  0
   57.2020   29.9500   43.2350 O   0  0  0  0  0  0  0  0  0  0  0  0
   57.0790   31.0740   45.4110 O   0  0  0  0  0  0  0  0  0  0  0  0
   58.4120   28.6830   46.6700 C   0  0  0  0  0  0  0  0  0  0  0  0
   59.2060   31.7350   49.2370 S   0  0  0  0  0  0  0  0  0  0  0  0
   60.3220   32.6730   48.3930 C   0  0  0  0  0  0  0  0  0  0  0  0
   60.2090   34.1410   48.2650 C   0  0  0  0  0  0  0  0  0  0  0  0
   61.0490   34.8610   48.8760 O   0  0  0  0  0  0  0  0  0  0  0  0
   59.1340   34.7640   47.5160 N   0  0  0  0  0  0  0  0  0  0  0  0
   58.1850   33.7590   47.0140 C   0  0  0  0  0  0  0  0  0  0  0  0
   58.5750   33.4230   45.5790 C   0  0  0  0  0  0  0  0  0  0  0  0
   59.5570   34.4990   45.1510 C   0  0  0  0  0  0  0  0  0  0  0  0
   59.6510   35.4600   46.3280 C   0  0  0  0  0  0  0  0  0  0  0  0
   63.3360   32.5449   47.8798 H   0  0  0  0  0  0  0  0  0  0  0  0
   62.9088   31.4351   46.5335 H   0  0  0  0  0  0  0  0  0  0  0  0
   62.2973   33.1241   46.5335 H   0  0  0  0  0  0  0  0  0  0  0  0
   60.1968   25.7730   46.9151 H   0  0  0  0  0  0  0  0  0  0  0  0
   59.2400   25.4673   44.6339 H   0  0  0  0  0  0  0  0  0  0  0  0
   57.7732   27.2268   43.6427 H   0  0  0  0  0  0  0  0  0  0  0  0
   55.1510   28.6220   45.6240 H   0  0  0  0  0  0  0  0  0  0  0  0
   58.1509   29.5771   47.2552 H   0  0  0  0  0  0  0  0  0  0  0  0
   58.6360   35.4620   48.1130 H   0  0  0  0  0  0  0  0  0  0  0  0
   58.2350   32.8536   47.6368 H   0  0  0  0  0  0  0  0  0  0  0  0
   57.1574   34.1498   47.0506 H   0  0  0  0  0  0  0  0  0  0  0  0
   59.0500   32.4319   45.5338 H   0  0  0  0  0  0  0  0  0  0  0  0
   57.6960   33.3931   44.9184 H   0  0  0  0  0  0  0  0  0  0  0  0
   60.5413   34.0571   44.9367 H   0  0  0  0  0  0  0  0  0  0  0  0
   59.2269   35.0096   44.2343 H   0  0  0  0  0  0  0  0  0  0  0  0
   60.6991   35.7513   46.4910 H   0  0  0  0  0  0  0  0  0  0  0  0
   59.0661   36.3703   46.1298 H   0  0  0  0  0  0  0  0  0  0  0  0
  1  2  1  0
  2  3  1  0
  3  4  1  0
  4  5  2  3
  5  6  1  0
  6  7  2  0
  6  8  1  0
  8  9  2  0
  9 10  1  0
 10 11  2  0
 11 12  1  0
 12 13  1  0
 13 14  1  0
 13 15  2  0
 13 16  2  0
 12 17  2  0
  4 18  1  0
 18 19  1  0
 19 20  1  0
 20 21  2  0
 20 22  1  0
 22 23  1  0
 23 24  1  0
 24 25  1  0
 25 26  1  0
 19  2  2  0
 26 22  1  0
 17  8  1  0
  1 27  1  0
  1 28  1  0
  1 29  1  0
  9 30  1  0
 10 31  1  0
 11 32  1  0
 14 33  1  0
 17 34  1  0
 22 35  1  0
 23 36  1  0
 23 37  1  0
 24 38  1  0
 24 39  1  0
 25 40  1  0
 25 41  1  0
 26 42  1  0
 26 43  1  0
M  CHG  3   3  -1  14  -1  22   1
M  END
>  <UniqueID>  (3) 
3

>  <SMILES>  (3) 
Cc1[n-]c(=NC(=O)c2cccc(S([NH-])(=O)=O)c2)sc1C(=O)[NH+]1CCCC1

>  <Energy>  (3) 
89.33613043749315

>  <Genealogy>  (3) 
Cc1[n-]c(=NC(=O)c2cccc(S([NH-])(=O)=O)c2)sc1C(=O)[NH+]1CCCC1 (protonated)
Cc1[n-]c(=NC(=O)c2cccc(S([NH-])(=O)=O)c2)sc1C(=O)[NH+]1CCCC1 (3D coordinates assigned)
Cc1[n-]c(=NC(=O)c2cccc(S([NH-])(=O)=O)c2)sc1C(=O)[NH+]1CCCC1 (nonaromatic ring conformer: 89.33613043749315 kcal/mol)

>  <smiles>  (3) 
Cc1[nH]c(=NC(=O)c2cccc(S(N)(=O)=O)c2)sc1C(=O)N1CCCC1

>  <score_type>  (3) 
oracle

>  <origin>  (3) 
adg

>  <m_score__min__energy>  (3) 
-11.949999999999999

>  <m_primary>  (3) 
energy

$$$$
3:0
     RDKit          3D

 24 25  0  0  0  0  0  0  0  0999 V2000
   59.2420   25.6430   46.1360 C   0  0  0  0  0  0  0  0  0  0  0  0
   57.9410   26.3090   46.0650 N   0  0  0  0  0  0  0  0  0  0  0  0
   56.7620   25.6780   46.2140 C   0  0  0  0  0  0  0  0  0  0  0  0
   55.7650   26.5830   45.9530 C   0  0  0  0  0  0  0  0  0  0  0  0
   54.4040   26.3100   45.9850 O   0  0  0  0  0  0  0  0  0  0  0  0
   56.2790   27.7860   45.6440 N   0  0  0  0  0  0  0  0  0  0  0  0
   57.6130   27.5930   45.7380 C   0  0  0  0  0  0  0  0  0  0  0  0
   58.4480   28.5650   45.4910 N   0  0  0  0  0  0  0  0  0  0  0  0
   58.8820   29.6150   46.3620 C   0  0  0  0  0  0  0  0  0  0  0  0
   59.3860   29.3310   47.4820 O   0  0  0  0  0  0  0  0  0  0  0  0
   58.6240   31.0200   45.9850 C   0  0  0  0  0  0  0  0  0  0  0  0
   59.5210   31.9750   46.3570 N   0  0  0  0  0  0  0  0  0  0  0  0
   59.3440   33.2850   46.0470 C   0  0  0  0  0  0  0  0  0  0  0  0
   58.2120   33.6710   45.3290 C   0  0  0  0  0  0  0  0  0  0  0  0
   58.0280   34.8790   45.0290 O   0  0  0  0  0  0  0  0  0  0  0  0
   57.3080   32.7310   44.9540 N   0  0  0  0  0  0  0  0  0  0  0  0
   57.4790   31.4170   45.2620 C   0  0  0  0  0  0  0  0  0  0  0  0
   56.5200   30.4890   44.8600 O   0  0  0  0  0  0  0  0  0  0  0  0
   59.5232   25.4990   47.1897 H   0  0  0  0  0  0  0  0  0  0  0  0
   59.1811   24.6652   45.6359 H   0  0  0  0  0  0  0  0  0  0  0  0
   59.9997   26.2641   45.6359 H   0  0  0  0  0  0  0  0  0  0  0  0
   56.6225   24.6237   46.4952 H   0  0  0  0  0  0  0  0  0  0  0  0
   60.0861   34.0347   46.3590 H   0  0  0  0  0  0  0  0  0  0  0  0
   56.6110   29.5090   45.1000 H   0  0  0  0  0  0  0  0  0  0  0  0
  1  2  1  0
  2  3  1  0
  3  4  2  0
  4  5  1  0
  4  6  1  0
  6  7  1  0
  7  8  2  3
  8  9  1  0
  9 10  2  0
  9 11  1  0
 11 12  1  0
 12 13  2  0
 13 14  1  0
 14 15  2  0
 14 16  1  0
 16 17  1  0
 17 18  1  0
  7  2  1  0
 17 11  2  0
  1 19  1  0
  1 20  1  0
  1 21  1  0
  3 22  1  0
 13 23  1  0
 18 24  1  0
M  CHG  3   5  -1   6  -1  16  -1
M  END
>  <UniqueID>  (4) 
4

>  <SMILES>  (4) 
Cn1cc([O-])[n-]c1=NC(=O)c1ncc(=O)[n-]c1O

>  <Energy>  (4) 
69.28358115991348

>  <Genealogy>  (4) 
Cn1cc([O-])[n-]c1=NC(=O)c1ncc(=O)[n-]c1O (protonated)
Cn1cc([O-])[n-]c1=NC(=O)c1ncc(=O)[n-]c1O (3D coordinates assigned)
Cn1cc([O-])[n-]c1=NC(=O)c1ncc(=O)[n-]c1O (optimized conformer: 69.28358115991348 kcal/mol)

>  <smiles>  (4) 
Cn1cc(O)[nH]c1=NC(=O)c1ncc(=O)[nH]c1O

>  <score_type>  (4) 
oracle

>  <origin>  (4) 
adg

>  <m_score__min__energy>  (4) 
-12.289999999999999

>  <m_primary>  (4) 
energy

$$$$
4:0
     RDKit          3D

 55 58  0  0  0  0  0  0  0  0999 V2000
   57.3890   27.3190   45.1220 O   0  0  0  0  0  0  0  0  0  0  0  0
   57.3180   26.3460   45.9210 C   0  0  0  0  0  0  0  0  0  0  0  0
   58.0190   26.3830   47.1770 N   0  0  0  0  0  0  0  0  0  0  0  0
   58.8550   27.4730   47.6000 C   0  0  0  0  0  0  0  0  0  0  0  0
   60.0350   27.2520   48.3320 C   0  0  0  0  0  0  0  0  0  0  0  0
   60.8220   28.3310   48.7410 C   0  0  0  0  0  0  0  0  0  0  0  0
   60.4290   29.6390   48.4470 C   0  0  0  0  0  0  0  0  0  0  0  0
   59.2300   29.8790   47.7590 C   0  0  0  0  0  0  0  0  0  0  0  0
   58.8170   31.2650   47.4570 C   0  0  0  0  0  0  0  0  0  0  0  0
   58.6250   32.0650   48.4130 O   0  0  0  0  0  0  0  0  0  0  0  0
   58.6120   31.7160   46.1050 N   0  0  0  0  0  0  0  0  0  0  0  0
   58.2690   30.8350   44.9980 C   0  0  0  0  0  0  0  0  0  0  0  0
   57.7060   31.7430   43.9130 C   0  0  0  0  0  0  0  0  0  0  0  0
   58.1680   33.1510   44.2730 C   0  0  0  0  0  0  0  0  0  0  0  0
   58.4560   33.1190   45.7670 C   0  0  0  0  0  0  0  0  0  0  0  0
   58.4540   28.7900   47.3300 C   0  0  0  0  0  0  0  0  0  0  0  0
   56.5060   25.1690   45.5430 C   0  0  0  0  0  0  0  0  0  0  0  0
   57.1550   24.0100   45.0830 C   0  0  0  0  0  0  0  0  0  0  0  0
   56.4180   22.8740   44.7240 C   0  0  0  0  0  0  0  0  0  0  0  0
   57.2630   21.4270   44.1810 S   0  0  0  0  0  0  0  0  0  0  0  0
   58.6510   21.8190   43.7550 O   0  0  0  0  0  0  0  0  0  0  0  0
   56.5500   20.8210   43.0030 O   0  0  0  0  0  0  0  0  0  0  0  0
   57.3500   20.2730   45.4950 N   0  0  0  0  0  0  0  0  0  0  0  0
   57.1360   20.9400   46.7830 C   0  0  0  0  0  0  0  0  0  0  0  0
   55.6570   20.8430   47.1290 C   0  0  0  0  0  0  0  0  0  0  0  0
   55.0940   19.7740   46.2130 C   0  0  0  0  0  0  0  0  0  0  0  0
   56.2710   19.2850   45.3820 C   0  0  0  0  0  0  0  0  0  0  0  0
   55.0210   22.8960   44.8190 C   0  0  0  0  0  0  0  0  0  0  0  0
   54.3660   24.0490   45.2550 C   0  0  0  0  0  0  0  0  0  0  0  0
   55.0980   25.1880   45.6060 C   0  0  0  0  0  0  0  0  0  0  0  0
   54.4140   26.3380   45.9850 O   0  0  0  0  0  0  0  0  0  0  0  0
   57.8820   25.5970   47.8500 H   0  0  0  0  0  0  0  0  0  0  0  0
   60.3395   26.2254   48.5835 H   0  0  0  0  0  0  0  0  0  0  0  0
   61.7542   28.1503   49.2963 H   0  0  0  0  0  0  0  0  0  0  0  0
   61.0620   30.4839   48.7561 H   0  0  0  0  0  0  0  0  0  0  0  0
   59.1641   30.3099   44.6333 H   0  0  0  0  0  0  0  0  0  0  0  0
   57.5452   30.0638   45.3001 H   0  0  0  0  0  0  0  0  0  0  0  0
   58.0974   31.4511   42.9273 H   0  0  0  0  0  0  0  0  0  0  0  0
   56.6094   31.6773   43.8570 H   0  0  0  0  0  0  0  0  0  0  0  0
   59.0778   33.4115   43.7123 H   0  0  0  0  0  0  0  0  0  0  0  0
   57.4077   33.9051   44.0216 H   0  0  0  0  0  0  0  0  0  0  0  0
   59.3793   33.6730   45.9919 H   0  0  0  0  0  0  0  0  0  0  0  0
   57.6487   33.5899   46.3471 H   0  0  0  0  0  0  0  0  0  0  0  0
   57.5212   28.9717   46.7760 H   0  0  0  0  0  0  0  0  0  0  0  0
   58.2521   23.9949   45.0042 H   0  0  0  0  0  0  0  0  0  0  0  0
   57.7340   20.4452   47.5625 H   0  0  0  0  0  0  0  0  0  0  0  0
   57.4432   21.9944   46.7205 H   0  0  0  0  0  0  0  0  0  0  0  0
   55.5271   20.5537   48.1823 H   0  0  0  0  0  0  0  0  0  0  0  0
   55.1432   21.8063   46.9947 H   0  0  0  0  0  0  0  0  0  0  0  0
   54.6706   18.9474   46.8025 H   0  0  0  0  0  0  0  0  0  0  0  0
   54.2841   20.1659   45.5801 H   0  0  0  0  0  0  0  0  0  0  0  0
   56.6157   18.3114   45.7604 H   0  0  0  0  0  0  0  0  0  0  0  0
   55.9718   19.1658   44.3302 H   0  0  0  0  0  0  0  0  0  0  0  0
   54.4385   22.0027   44.5494 H   0  0  0  0  0  0  0  0  0  0  0  0
   53.2682   24.0619   45.3229 H   0  0  0  0  0  0  0  0  0  0  0  0
  1  2  2  0
  2  3  1  0
  3  4  1  0
  4  5  2  0
  5  6  1  0
  6  7  2  0
  7  8  1  0
  8  9  1  0
  9 10  2  0
  9 11  1  0
 11 12  1  0
 12 13  1  0
 13 14  1  0
 14 15  1  0
  8 16  2  0
  2 17  1  0
 17 18  2  0
 18 19  1  0
 19 20  1  0
 20 21  2  0
 20 22  2  0
 20 23  1  0
 23 24  1  0
 24 25  1  0
 25 26  1  0
 26 27  1  0
 19 28  2  0
 28 29  1  0
 29 30  2  0
 30 31  1  0
 16  4  1  0
 30 17  1  0
 15 11  1  0
 27 23  1  0
  3 32  1  0
  5 33  1  0
  6 34  1  0
  7 35  1  0
 12 36  1  0
 12 37  1  0
 13 38  1  0
 13 39  1  0
 14 40  1  0
 14 41  1  0
 15 42  1  0
 15 43  1  0
 16 44  1  0
 18 45  1  0
 24 46  1  0
 24 47  1  0
 25 48  1  0
 25 49  1  0
 26 50  1  0
 26 51  1  0
 27 52  1  0
 27 53  1  0
 28 54  1  0
 29 55  1  0
M  CHG  1  31  -1
M  END
>  <UniqueID>  (5) 
5

>  <SMILES>  (5) 
O=C(Nc1cccc(C(=O)N2CCCC2)c1)c1cc(S(=O)(=O)N2CCCC2)ccc1[O-]

>  <Energy>  (5) 
70.86862205312337

>  <Genealogy>  (5) 
O=C(Nc1cccc(C(=O)N2CCCC2)c1)c1cc(S(=O)(=O)N2CCCC2)ccc1[O-] (protonated)
O=C(Nc1cccc(C(=O)N2CCCC2)c1)c1cc(S(=O)(=O)N2CCCC2)ccc1[O-] (3D coordinates assigned)
O=C(Nc1cccc(C(=O)N2CCCC2)c1)c1cc(S(=O)(=O)N2CCCC2)ccc1[O-] (nonaromatic ring conformer: 70.86862205312337 kcal/mol)

>  <smiles>  (5) 
O=C(Nc1cccc(C(=O)N2CCCC2)c1)c1cc(S(=O)(=O)N2CCCC2)ccc1O

>  <score_type>  (5) 
oracle

>  <origin>  (5) 
adg

>  <m_score__min__energy>  (5) 
-12.289999999999999

>  <m_primary>  (5) 
energy

$$$$
5:0
     RDKit          3D

 69 73  0  0  0  0  0  0  0  0999 V2000
   58.1330   26.6920   43.6470 C   0  0  0  0  0  0  0  0  0  0  0  0
   58.4130   27.6660   44.7590 C   0  0  0  0  0  0  0  0  0  0  0  0
   59.1130   27.2350   45.8990 C   0  0  0  0  0  0  0  0  0  0  0  0
   59.3910   28.1240   46.9520 C   0  0  0  0  0  0  0  0  0  0  0  0
   60.1060   27.7000   48.1260 N   0  0  0  0  0  0  0  0  0  0  0  0
   60.1630   28.4530   49.3510 C   0  0  0  0  0  0  0  0  0  0  0  0
   59.3880   29.4320   49.5300 O   0  0  0  0  0  0  0  0  0  0  0  0
   61.0900   28.0680   50.4290 C   0  0  0  0  0  0  0  0  0  0  0  0
   61.7840   28.9460   51.2520 C   0  0  0  0  0  0  0  0  0  0  0  0
   62.5870   28.3060   52.2060 C   0  0  0  0  0  0  0  0  0  0  0  0
   62.5320   26.9100   52.1430 C   0  0  0  0  0  0  0  0  0  0  0  0
   63.2290   25.9480   53.0370 C   0  0  0  0  0  0  0  0  0  0  0  0
   64.5310   26.2240   53.4960 C   0  0  0  0  0  0  0  0  0  0  0  0
   65.2050   25.3080   54.3070 C   0  0  0  0  0  0  0  0  0  0  0  0
   64.5900   24.1080   54.6750 C   0  0  0  0  0  0  0  0  0  0  0  0
   63.2970   23.8250   54.2360 C   0  0  0  0  0  0  0  0  0  0  0  0
   62.6180   24.7360   53.4230 C   0  0  0  0  0  0  0  0  0  0  0  0
   61.4840   26.4980   50.8870 S   0  0  0  0  0  0  0  0  0  0  0  0
   58.9100   29.4380   46.8810 C   0  0  0  0  0  0  0  0  0  0  0  0
   58.2030   29.8720   45.7590 C   0  0  0  0  0  0  0  0  0  0  0  0
   57.9460   28.9960   44.6980 C   0  0  0  0  0  0  0  0  0  0  0  0
   57.0100   29.6050   43.2840 S   0  0  0  0  0  0  0  0  0  0  0  0
   56.5680   31.1710   44.1030 C   0  0  0  0  0  0  0  0  0  0  0  0
   57.4140   32.2890   43.5620 C   0  0  0  0  0  0  0  0  0  0  0  0
   58.0030   32.1300   42.4590 O   0  0  0  0  0  0  0  0  0  0  0  0
   57.6340   33.5010   44.2950 N   0  0  0  0  0  0  0  0  0  0  0  0
   58.4430   33.6320   45.4700 C   0  0  0  0  0  0  0  0  0  0  0  0
   58.0260   33.0260   46.6580 C   0  0  0  0  0  0  0  0  0  0  0  0
   58.7720   33.1840   47.8310 C   0  0  0  0  0  0  0  0  0  0  0  0
   59.9520   33.9430   47.8240 C   0  0  0  0  0  0  0  0  0  0  0  0
   60.7140   34.1810   49.1080 C   0  0  0  0  0  0  0  0  0  0  0  0
   61.7880   33.1910   49.3530 N   0  0  0  0  0  0  0  0  0  0  0  0
   63.1640   33.7050   49.1930 C   0  0  0  0  0  0  0  0  0  0  0  0
   63.7180   33.5130   47.7600 C   0  0  0  0  0  0  0  0  0  0  0  0
   62.8380   32.7960   46.9160 O   0  0  0  0  0  0  0  0  0  0  0  0
   62.4730   31.5870   47.5400 C   0  0  0  0  0  0  0  0  0  0  0  0
   61.5670   31.8550   48.7550 C   0  0  0  0  0  0  0  0  0  0  0  0
   60.4080   34.4870   46.6120 C   0  0  0  0  0  0  0  0  0  0  0  0
   59.6620   34.3290   45.4410 C   0  0  0  0  0  0  0  0  0  0  0  0
   57.8530   25.7180   44.0746 H   0  0  0  0  0  0  0  0  0  0  0  0
   57.3075   27.0711   43.0267 H   0  0  0  0  0  0  0  0  0  0  0  0
   59.0338   26.5748   43.0267 H   0  0  0  0  0  0  0  0  0  0  0  0
   59.4474   26.1893   45.9682 H   0  0  0  0  0  0  0  0  0  0  0  0
   60.5360   26.7490   48.1090 H   0  0  0  0  0  0  0  0  0  0  0  0
   61.7103   30.0399   51.1634 H   0  0  0  0  0  0  0  0  0  0  0  0
   63.2031   28.8510   52.9363 H   0  0  0  0  0  0  0  0  0  0  0  0
   65.0209   27.1676   53.2140 H   0  0  0  0  0  0  0  0  0  0  0  0
   66.2234   25.5318   54.6573 H   0  0  0  0  0  0  0  0  0  0  0  0
   65.1256   23.3873   55.3105 H   0  0  0  0  0  0  0  0  0  0  0  0
   62.8110   22.8831   54.5303 H   0  0  0  0  0  0  0  0  0  0  0  0
   61.5981   24.5065   53.0808 H   0  0  0  0  0  0  0  0  0  0  0  0
   59.0909   30.1320   47.7151 H   0  0  0  0  0  0  0  0  0  0  0  0
   57.8448   30.9108   45.7079 H   0  0  0  0  0  0  0  0  0  0  0  0
   55.5071   31.3934   43.9160 H   0  0  0  0  0  0  0  0  0  0  0  0
   56.7435   31.0755   45.1847 H   0  0  0  0  0  0  0  0  0  0  0  0
   57.1068   32.4219   46.6710 H   0  0  0  0  0  0  0  0  0  0  0  0
   58.4316   32.7106   48.7637 H   0  0  0  0  0  0  0  0  0  0  0  0
   61.1677   35.1820   49.0625 H   0  0  0  0  0  0  0  0  0  0  0  0
   59.9930   34.0852   49.9332 H   0  0  0  0  0  0  0  0  0  0  0  0
   63.1666   34.7794   49.4289 H   0  0  0  0  0  0  0  0  0  0  0  0
   63.8104   33.1335   49.8753 H   0  0  0  0  0  0  0  0  0  0  0  0
   63.8967   34.5043   47.3181 H   0  0  0  0  0  0  0  0  0  0  0  0
   64.6444   32.9256   47.8426 H   0  0  0  0  0  0  0  0  0  0  0  0
   61.9326   30.9568   46.8184 H   0  0  0  0  0  0  0  0  0  0  0  0
   63.3848   31.0767   47.8839 H   0  0  0  0  0  0  0  0  0  0  0  0
   60.5176   31.7834   48.4332 H   0  0  0  0  0  0  0  0  0  0  0  0
   61.8114   31.1050   49.5216 H   0  0  0  0  0  0  0  0  0  0  0  0
   61.3581   35.0407   46.5844 H   0  0  0  0  0  0  0  0  0  0  0  0
   60.0303   34.7514   44.4945 H   0  0  0  0  0  0  0  0  0  0  0  0
  1  2  1  0
  2  3  2  0
  3  4  1  0
  4  5  1  0
  5  6  1  0
  6  7  2  0
  6  8  1  0
  8  9  2  0
  9 10  1  0
 10 11  2  0
 11 12  1  0
 12 13  2  0
 13 14  1  0
 14 15  2  0
 15 16  1  0
 16 17  2  0
 11 18  1  0
  4 19  2  0
 19 20  1  0
 20 21  2  0
 21 22  1  0
 22 23  1  0
 23 24  1  0
 24 25  2  0
 24 26  1  0
 26 27  1  0
 27 28  2  0
 28 29  1  0
 29 30  2  0
 30 31  1  0
 31 32  1  0
 32 33  1  0
 33 34  1  0
 34 35  1  0
 35 36  1  0
 36 37  1  0
 30 38  1  0
 38 39  2  0
 21  2  1  0
 39 27  1  0
 18  8  1  0
 37 32  1  0
 17 12  1  0
  1 40  1  0
  1 41  1  0
  1 42  1  0
  3 43  1  0
  5 44  1  0
  9 45  1  0
 10 46  1  0
 13 47  1  0
 14 48  1  0
 15 49  1  0
 16 50  1  0
 17 51  1  0
 19 52  1  0
 20 53  1  0
 23 54  1  0
 23 55  1  0
 28 56  1  0
 29 57  1  0
 31 58  1  0
 31 59  1  0
 33 60  1  0
 33 61  1  0
 34 62  1  0
 34 63  1  0
 36 64  1  0
 36 65  1  0
 37 66  1  0
 37 67  1  0
 38 68  1  0
 39 69  1  0
M  CHG  1  26  -1
M  END
>  <UniqueID>  (6) 
6

>  <SMILES>  (6) 
Cc1cc(NC(=O)c2ccc(-c3ccccc3)s2)ccc1SCC(=O)[N-]c1ccc(CN2CCOCC2)cc1

>  <Energy>  (6) 
119.95444495629312

>  <Genealogy>  (6) 
Cc1cc(NC(=O)c2ccc(-c3ccccc3)s2)ccc1SCC(=O)[N-]c1ccc(CN2CCOCC2)cc1 (protonated)
Cc1cc(NC(=O)c2ccc(-c3ccccc3)s2)ccc1SCC(=O)[N-]c1ccc(CN2CCOCC2)cc1 (3D coordinates assigned)
Cc1cc(NC(=O)c2ccc(-c3ccccc3)s2)ccc1SCC(=O)[N-]c1ccc(CN2CCOCC2)cc1 (nonaromatic ring conformer: 119.95444495629312 kcal/mol)

>  <smiles>  (6) 
Cc1cc(NC(=O)c2ccc(-c3ccccc3)s2)ccc1SCC(=O)Nc1ccc(CN2CCOCC2)cc1

>  <score_type>  (6) 
oracle

>  <origin>  (6) 
adg

>  <m_score__min__energy>  (6) 
-11.890000000000001

>  <m_primary>  (6) 
energy

$$$$
6:0
     RDKit          3D

 36 38  0  0  0  0  0  0  0  0999 V2000
   59.4883   35.6112   46.7562 H   0  0  0  0  0  0  0  0  0  0  0  0
   59.2870   34.7120   47.3570 C   0  0  0  0  0  0  0  0  0  0  0  0
   59.9110   34.5460   48.5960 C   0  0  0  0  0  0  0  0  0  0  0  0
   60.6003   35.3165   48.9717 H   0  0  0  0  0  0  0  0  0  0  0  0
   59.6600   33.4010   49.3590 C   0  0  0  0  0  0  0  0  0  0  0  0
   60.1487   33.2763   50.3366 H   0  0  0  0  0  0  0  0  0  0  0  0
   58.7860   32.4090   48.8820 C   0  0  0  0  0  0  0  0  0  0  0  0
   58.5210   31.1740   49.7050 C   0  0  0  0  0  0  0  0  0  0  0  0
   59.4746   30.6638   49.9059 H   0  0  0  0  0  0  0  0  0  0  0  0
   57.8437   30.5153   49.1417 H   0  0  0  0  0  0  0  0  0  0  0  0
   57.8850   31.5200   50.9780 N   0  0  0  0  0  0  0  0  0  0  0  0
   56.9920   30.8230   51.6240 C   0  0  0  0  0  0  0  0  0  0  0  0
   57.3810   29.6680   52.2210 N   0  0  0  0  0  0  0  0  0  0  0  0
   56.5020   28.8800   52.8870 C   0  0  0  0  0  0  0  0  0  0  0  0
   56.9100   27.8120   53.4170 O   0  0  0  0  0  0  0  0  0  0  0  0
   55.1540   29.2520   52.9710 C   0  0  0  0  0  0  0  0  0  0  0  0
   54.2020   28.3760   53.6200 C   0  0  0  0  0  0  0  0  0  0  0  0
   53.4400   27.6770   54.1390 N   0  0  0  0  0  0  0  0  0  0  0  0
   54.7570   30.4630   52.3660 C   0  0  0  0  0  0  0  0  0  0  0  0
   53.3500   30.9320   52.4000 C   0  0  0  0  0  0  0  0  0  0  0  0
   52.6100   30.8380   53.5900 C   0  0  0  0  0  0  0  0  0  0  0  0
   53.0818   30.4329   54.4974 H   0  0  0  0  0  0  0  0  0  0  0  0
   51.2760   31.2570   53.6270 C   0  0  0  0  0  0  0  0  0  0  0  0
   50.7048   31.1888   54.5646 H   0  0  0  0  0  0  0  0  0  0  0  0
   50.6680   31.7620   52.4750 C   0  0  0  0  0  0  0  0  0  0  0  0
   49.6199   32.0944   52.5070 H   0  0  0  0  0  0  0  0  0  0  0  0
   51.3910   31.8450   51.2820 C   0  0  0  0  0  0  0  0  0  0  0  0
   50.7830   32.3400   50.1350 O   0  0  0  0  0  0  0  0  0  0  0  0
   52.7250   31.4280   51.2410 C   0  0  0  0  0  0  0  0  0  0  0  0
   53.2885   31.4880   50.2982 H   0  0  0  0  0  0  0  0  0  0  0  0
   55.6860   31.2180   51.7080 N   0  0  0  0  0  0  0  0  0  0  0  0
   55.3750   32.1190   51.2870 H   0  0  0  0  0  0  0  0  0  0  0  0
   58.1510   32.5920   47.6410 C   0  0  0  0  0  0  0  0  0  0  0  0
   57.4496   31.8317   47.2668 H   0  0  0  0  0  0  0  0  0  0  0  0
   58.4080   33.7370   46.8810 C   0  0  0  0  0  0  0  0  0  0  0  0
   57.9167   33.8701   45.9059 H   0  0  0  0  0  0  0  0  0  0  0  0
  1  2  1  0
  2  3  2  0
  3  4  1  0
  3  5  1  0
  5  6  1  0
  5  7  2  0
  7  8  1  0
  8  9  1  0
  8 10  1  0
  8 11  1  0
 11 12  2  0
 12 13  1  0
 13 14  1  0
 14 15  2  0
 14 16  1  0
 16 17  1  0
 17 18  3  0
 16 19  2  0
 19 20  1  0
 20 21  2  0
 21 22  1  0
 21 23  1  0
 23 24  1  0
 23 25  2  0
 25 26  1  0
 25 27  1  0
 27 28  1  0
 27 29  2  0
 29 30  1  0
 19 31  1  0
 31 32  1  0
  7 33  1  0
 33 34  1  0
 33 35  2  0
 35 36  1  0
 35  2  1  0
 31 12  1  0
 29 20  1  0
M  CHG  2  13  -1  28  -1
M  END
>  <UniqueID>  (7) 
7

>  <SMILES>  (7) 
N#Cc1c(-c2cccc([O-])c2)[nH]/c(=N\Cc2ccccc2)[n-]c1=O

>  <Energy>  (7) 
47.63156611545211

>  <Genealogy>  (7) 
N#Cc1c(-c2cccc([O-])c2)[nH]c(=NCc2ccccc2)[n-]c1=O (protonated)
N#Cc1c(-c2cccc([O-])c2)[nH]/c(=N\Cc2ccccc2)[n-]c1=O (cis-trans isomerization)
N#Cc1c(-c2cccc([O-])c2)[nH]/c(=N\Cc2ccccc2)[n-]c1=O (3D coordinates assigned)
N#Cc1c(-c2cccc([O-])c2)[nH]/c(=N\Cc2ccccc2)[n-]c1=O (optimized conformer: 47.63156611545211 kcal/mol)

>  <smiles>  (7) 
N#Cc1c(-c2cccc(O)c2)[nH]c(=NCc2ccccc2)[nH]c1=O

>  <score_type>  (7) 
oracle

>  <origin>  (7) 
adg

>  <m_score__min__energy>  (7) 
-12.539999999999999

>  <m_primary>  (7) 
energy

$$$$
7:0
     RDKit          3D

 51 54  0  0  0  0  0  0  0  0999 V2000
   54.2674   24.4739   45.7373 H   0  0  0  0  0  0  0  0  0  0  0  0
   55.1210   25.1580   45.6220 C   0  0  0  0  0  0  0  0  0  0  0  0
   55.1510   26.4420   46.0220 N   0  0  0  0  0  0  0  0  0  0  0  0
   56.3880   26.8540   45.6840 C   0  0  0  0  0  0  0  0  0  0  0  0
   56.7930   28.0740   45.8830 N   0  0  0  0  0  0  0  0  0  0  0  0
   58.1640   28.4550   46.2300 C   0  0  0  0  0  0  0  0  0  0  0  0
   58.8587   27.9637   45.5328 H   0  0  0  0  0  0  0  0  0  0  0  0
   58.3583   28.1383   47.2653 H   0  0  0  0  0  0  0  0  0  0  0  0
   58.3600   29.9380   46.1480 C   0  0  0  0  0  0  0  0  0  0  0  0
   59.5320   30.5720   46.3640 N   0  0  0  0  0  0  0  0  0  0  0  0
   59.2620   31.8600   46.2190 N   0  0  0  0  0  0  0  0  0  0  0  0
   59.9540   32.6360   46.3180 H   0  0  0  0  0  0  0  0  0  0  0  0
   57.9540   31.9670   45.9300 C   0  0  0  0  0  0  0  0  0  0  0  0
   57.0840   33.5050   45.6400 S   0  0  0  0  0  0  0  0  0  0  0  0
   58.5090   34.3250   44.8420 C   0  0  0  0  0  0  0  0  0  0  0  0
   58.1433   35.1258   44.1825 H   0  0  0  0  0  0  0  0  0  0  0  0
   59.0679   33.5790   44.2580 H   0  0  0  0  0  0  0  0  0  0  0  0
   59.4230   34.9160   45.8780 C   0  0  0  0  0  0  0  0  0  0  0  0
   59.9760   36.0210   45.6360 O   0  0  0  0  0  0  0  0  0  0  0  0
   59.7510   34.2390   47.1010 N   0  0  0  0  0  0  0  0  0  0  0  0
   61.0550   33.9630   47.6340 C   0  0  0  0  0  0  0  0  0  0  0  0
   62.1130   33.5370   46.8160 C   0  0  0  0  0  0  0  0  0  0  0  0
   61.9548   33.4176   45.7340 H   0  0  0  0  0  0  0  0  0  0  0  0
   63.3660   33.2640   47.3700 C   0  0  0  0  0  0  0  0  0  0  0  0
   64.1973   32.9625   46.7157 H   0  0  0  0  0  0  0  0  0  0  0  0
   63.5740   33.3710   48.7550 C   0  0  0  0  0  0  0  0  0  0  0  0
   64.9400   33.0720   49.3200 C   0  0  0  0  0  0  0  0  0  0  0  0
   64.8926   33.0824   50.4189 H   0  0  0  0  0  0  0  0  0  0  0  0
   65.2698   32.0804   48.9766 H   0  0  0  0  0  0  0  0  0  0  0  0
   65.6539   33.8351   48.9766 H   0  0  0  0  0  0  0  0  0  0  0  0
   62.4900   33.7250   49.5960 C   0  0  0  0  0  0  0  0  0  0  0  0
   62.6330   33.7360   51.0970 C   0  0  0  0  0  0  0  0  0  0  0  0
   61.6384   33.6595   51.5606 H   0  0  0  0  0  0  0  0  0  0  0  0
   63.2513   32.8828   51.4127 H   0  0  0  0  0  0  0  0  0  0  0  0
   63.1136   34.6738   51.4127 H   0  0  0  0  0  0  0  0  0  0  0  0
   61.2400   34.0180   49.0210 C   0  0  0  0  0  0  0  0  0  0  0  0
   60.3960   34.2942   49.6701 H   0  0  0  0  0  0  0  0  0  0  0  0
   57.3920   30.7870   45.8840 O   0  0  0  0  0  0  0  0  0  0  0  0
   57.1420   25.9060   45.0900 N   0  0  0  0  0  0  0  0  0  0  0  0
   56.3320   24.8360   45.0440 C   0  0  0  0  0  0  0  0  0  0  0  0
   56.6870   23.5690   44.3720 C   0  0  0  0  0  0  0  0  0  0  0  0
   57.7770   22.8130   44.8400 C   0  0  0  0  0  0  0  0  0  0  0  0
   58.3398   23.1537   45.7216 H   0  0  0  0  0  0  0  0  0  0  0  0
   58.1500   21.6310   44.1920 C   0  0  0  0  0  0  0  0  0  0  0  0
   59.0113   21.0523   44.5571 H   0  0  0  0  0  0  0  0  0  0  0  0
   57.4300   21.1850   43.0820 C   0  0  0  0  0  0  0  0  0  0  0  0
   57.7208   20.2524   42.5763 H   0  0  0  0  0  0  0  0  0  0  0  0
   56.3390   21.9240   42.6130 C   0  0  0  0  0  0  0  0  0  0  0  0
   55.7708   21.5698   41.7403 H   0  0  0  0  0  0  0  0  0  0  0  0
   55.9690   23.1120   43.2510 C   0  0  0  0  0  0  0  0  0  0  0  0
   55.1131   23.6919   42.8752 H   0  0  0  0  0  0  0  0  0  0  0  0
  1  2  1  0
  2  3  1  0
  3  4  1  0
  4  5  2  0
  5  6  1  0
  6  7  1  0
  6  8  1  0
  6  9  1  0
  9 10  2  0
 10 11  1  0
 11 12  1  0
 11 13  2  0
 13 14  1  0
 14 15  1  0
 15 16  1  0
 15 17  1  0
 15 18  1  0
 18 19  2  0
 18 20  1  0
 20 21  1  0
 21 22  2  0
 22 23  1  0
 22 24  1  0
 24 25  1  0
 24 26  2  0
 26 27  1  0
 27 28  1  0
 27 29  1  0
 27 30  1  0
 26 31  1  0
 31 32  1  0
 32 33  1  0
 32 34  1  0
 32 35  1  0
 31 36  2  0
 36 37  1  0
 13 38  1  0
  4 39  1  0
 39 40  1  0
 40 41  1  0
 41 42  2  0
 42 43  1  0
 42 44  1  0
 44 45  1  0
 44 46  2  0
 46 47  1  0
 46 48  1  0
 48 49  1  0
 48 50  2  0
 50 51  1  0
 40  2  2  0
 50 41  1  0
 38  9  1  0
 36 21  1  0
M  CHG  4   3  -1  11   1  20  -1  39  -1
M  END
>  <UniqueID>  (8) 
8

>  <SMILES>  (8) 
Cc1ccc([N-]C(=O)CSc2[nH+]nc(C/N=c3/[n-]cc(-c4ccccc4)[n-]3)o2)cc1C

>  <Energy>  (8) 
113.36153013423899

>  <Genealogy>  (8) 
Cc1ccc([N-]C(=O)CSc2[nH+]nc(CN=c3[n-]cc(-c4ccccc4)[n-]3)o2)cc1C (protonated)
Cc1ccc([N-]C(=O)CSc2[nH+]nc(C/N=c3/[n-]cc(-c4ccccc4)[n-]3)o2)cc1C (cis-trans isomerization)
Cc1ccc([N-]C(=O)CSc2[nH+]nc(C/N=c3/[n-]cc(-c4ccccc4)[n-]3)o2)cc1C (3D coordinates assigned)
Cc1ccc([N-]C(=O)CSc2[nH+]nc(C/N=c3/[n-]cc(-c4ccccc4)[n-]3)o2)cc1C (optimized conformer: 113.36153013423899 kcal/mol)

>  <smiles>  (8) 
Cc1ccc(NC(=O)CSc2nnc(CN=c3[nH]cc(-c4ccccc4)[nH]3)o2)cc1C

>  <score_type>  (8) 
oracle

>  <origin>  (8) 
adg

>  <m_score__min__energy>  (8) 
-12.210000000000001

>  <m_primary>  (8) 
energy

$$$$
8:0
     RDKit          3D

 39 40  0  0  0  0  0  0  0  0999 V2000
   58.2519   29.3894   43.3431 H   0  0  0  0  0  0  0  0  0  0  0  0
   57.4210   29.8270   43.9160 C   0  0  0  0  0  0  0  0  0  0  0  0
   56.6400   28.9140   44.7900 C   0  0  0  0  0  0  0  0  0  0  0  0
   55.3980   29.0760   44.9330 O   0  0  0  0  0  0  0  0  0  0  0  0
   57.2980   27.7830   45.4900 C   0  0  0  0  0  0  0  0  0  0  0  0
   58.6990   27.7370   45.6180 C   0  0  0  0  0  0  0  0  0  0  0  0
   59.3125   28.5507   45.2038 H   0  0  0  0  0  0  0  0  0  0  0  0
   59.3160   26.6640   46.2680 C   0  0  0  0  0  0  0  0  0  0  0  0
   60.4112   26.6393   46.3675 H   0  0  0  0  0  0  0  0  0  0  0  0
   58.5460   25.6240   46.7910 C   0  0  0  0  0  0  0  0  0  0  0  0
   59.0344   24.7815   47.3025 H   0  0  0  0  0  0  0  0  0  0  0  0
   57.1570   25.6530   46.6650 C   0  0  0  0  0  0  0  0  0  0  0  0
   56.5528   24.8306   47.0756 H   0  0  0  0  0  0  0  0  0  0  0  0
   56.5290   26.7230   46.0190 C   0  0  0  0  0  0  0  0  0  0  0  0
   55.1400   26.7320   45.9210 O   0  0  0  0  0  0  0  0  0  0  0  0
   57.1960   31.1420   43.7680 C   0  0  0  0  0  0  0  0  0  0  0  0
   56.5501   31.4559   42.9348 H   0  0  0  0  0  0  0  0  0  0  0  0
   57.7490   32.2000   44.6380 C   0  0  0  0  0  0  0  0  0  0  0  0
   58.0100   33.4620   44.0880 C   0  0  0  0  0  0  0  0  0  0  0  0
   57.8015   33.6505   43.0245 H   0  0  0  0  0  0  0  0  0  0  0  0
   58.5340   34.4810   44.8860 C   0  0  0  0  0  0  0  0  0  0  0  0
   58.7140   35.4770   44.4552 H   0  0  0  0  0  0  0  0  0  0  0  0
   58.8300   34.2400   46.2280 C   0  0  0  0  0  0  0  0  0  0  0  0
   59.2231   35.0535   46.8555 H   0  0  0  0  0  0  0  0  0  0  0  0
   58.6300   32.9700   46.7810 C   0  0  0  0  0  0  0  0  0  0  0  0
   58.9580   32.7710   48.1290 O   0  0  0  0  0  0  0  0  0  0  0  0
   59.9510   33.4840   48.8160 C   0  0  0  0  0  0  0  0  0  0  0  0
   59.6340   34.3000   49.7250 O   0  0  0  0  0  0  0  0  0  0  0  0
   61.3370   33.2460   48.5130 N   0  0  0  0  0  0  0  0  0  0  0  0
   61.6870   32.2830   47.4670 C   0  0  0  0  0  0  0  0  0  0  0  0
   62.0277   31.3456   47.9308 H   0  0  0  0  0  0  0  0  0  0  0  0
   60.8040   32.0832   46.8422 H   0  0  0  0  0  0  0  0  0  0  0  0
   62.4922   32.6968   46.8422 H   0  0  0  0  0  0  0  0  0  0  0  0
   62.3780   33.9730   49.2430 C   0  0  0  0  0  0  0  0  0  0  0  0
   62.2148   33.8590   50.3248 H   0  0  0  0  0  0  0  0  0  0  0  0
   63.3648   33.5666   48.9762 H   0  0  0  0  0  0  0  0  0  0  0  0
   62.3363   35.0393   48.9762 H   0  0  0  0  0  0  0  0  0  0  0  0
   58.0730   31.9460   45.9860 C   0  0  0  0  0  0  0  0  0  0  0  0
   57.8220   30.6930   46.5360 O   0  0  0  0  0  0  0  0  0  0  0  0
  1  2  1  0
  2  3  1  0
  3  4  2  0
  3  5  1  0
  5  6  2  0
  6  7  1  0
  6  8  1  0
  8  9  1  0
  8 10  2  0
 10 11  1  0
 10 12  1  0
 12 13  1  0
 12 14  2  0
 14 15  1  0
  2 16  2  0
 16 17  1  0
 16 18  1  0
 18 19  2  0
 19 20  1  0
 19 21  1  0
 21 22  1  0
 21 23  2  0
 23 24  1  0
 23 25  1  0
 25 26  1  0
 26 27  1  0
 27 28  2  0
 27 29  1  0
 29 30  1  0
 30 31  1  0
 30 32  1  0
 30 33  1  0
 29 34  1  0
 34 35  1  0
 34 36  1  0
 34 37  1  0
 25 38  2  0
 38 39  1  0
 14  5  1  0
 38 18  1  0
M  CHG  2  15  -1  39  -1
M  END
>  <UniqueID>  (9) 
9

>  <SMILES>  (9) 
CN(C)C(=O)Oc1cccc(/C=C\C(=O)c2ccccc2[O-])c1[O-]

>  <Energy>  (9) 
56.019603716842845

>  <Genealogy>  (9) 
CN(C)C(=O)Oc1cccc(C=CC(=O)c2ccccc2[O-])c1[O-] (protonated)
CN(C)C(=O)Oc1cccc(/C=C\C(=O)c2ccccc2[O-])c1[O-] (cis-trans isomerization)
CN(C)C(=O)Oc1cccc(/C=C\C(=O)c2ccccc2[O-])c1[O-] (3D coordinates assigned)
CN(C)C(=O)Oc1cccc(/C=C\C(=O)c2ccccc2[O-])c1[O-] (optimized conformer: 56.019603716842845 kcal/mol)

>  <smiles>  (9) 
CN(C)C(=O)Oc1cccc(C=CC(=O)c2ccccc2O)c1O

>  <score_type>  (9) 
oracle

>  <origin>  (9) 
adg

>  <m_score__min__energy>  (9) 
-14.210000000000001

>  <m_primary>  (9) 
energy

$$$$
9:0
     RDKit          3D

 42 44  0  0  0  0  0  0  0  0999 V2000
   56.9620   28.6980   44.3870 C   0  0  0  0  0  0  0  0  0  0  0  0
   57.7150   28.3560   45.6450 C   0  0  0  0  0  0  0  0  0  0  0  0
   57.4070   27.2530   46.4720 C   0  0  0  0  0  0  0  0  0  0  0  0
   56.2990   26.2900   46.3250 C   0  0  0  0  0  0  0  0  0  0  0  0
   56.5000   25.0690   46.5550 O   0  0  0  0  0  0  0  0  0  0  0  0
   55.0200   26.7100   45.9830 O   0  0  0  0  0  0  0  0  0  0  0  0
   58.4990   27.1950   47.7640 S   0  0  0  0  0  0  0  0  0  0  0  0
   59.3310   28.5710   47.3140 C   0  0  0  0  0  0  0  0  0  0  0  0
   60.3420   29.1550   47.9970 N   0  0  0  0  0  0  0  0  0  0  0  0
   60.8780   30.3100   47.5180 C   0  0  0  0  0  0  0  0  0  0  0  0
   62.1540   31.1520   48.4480 S   0  0  0  0  0  0  0  0  0  0  0  0
   61.2220   31.2150   50.0170 C   0  0  0  0  0  0  0  0  0  0  0  0
   59.7470   31.5670   49.7850 C   0  0  0  0  0  0  0  0  0  0  0  0
   59.5930   32.5210   48.6870 N   0  0  0  0  0  0  0  0  0  0  0  0
   59.6680   33.9370   48.9020 C   0  0  0  0  0  0  0  0  0  0  0  0
   59.6520   34.4040   50.0740 O   0  0  0  0  0  0  0  0  0  0  0  0
   59.7710   34.8760   47.7370 C   0  0  0  0  0  0  0  0  0  0  0  0
   58.9710   34.3910   46.5560 C   0  0  0  0  0  0  0  0  0  0  0  0
   57.6950   33.8340   46.7470 C   0  0  0  0  0  0  0  0  0  0  0  0
   56.9980   33.2830   45.6690 C   0  0  0  0  0  0  0  0  0  0  0  0
   57.5600   33.2930   44.3900 C   0  0  0  0  0  0  0  0  0  0  0  0
   58.8200   33.8580   44.1870 C   0  0  0  0  0  0  0  0  0  0  0  0
   59.5310   34.3940   45.2650 C   0  0  0  0  0  0  0  0  0  0  0  0
   60.3860   30.8760   46.3780 N   0  0  0  0  0  0  0  0  0  0  0  0
   59.3600   30.3080   45.6830 C   0  0  0  0  0  0  0  0  0  0  0  0
   58.9260   30.8800   44.6500 O   0  0  0  0  0  0  0  0  0  0  0  0
   58.7990   29.1100   46.1570 C   0  0  0  0  0  0  0  0  0  0  0  0
   55.9896   29.1397   44.6503 H   0  0  0  0  0  0  0  0  0  0  0  0
   57.5445   29.4199   43.7958 H   0  0  0  0  0  0  0  0  0  0  0  0
   56.8017   27.7844   43.7958 H   0  0  0  0  0  0  0  0  0  0  0  0
   61.2814   30.2320   50.5070 H   0  0  0  0  0  0  0  0  0  0  0  0
   61.6666   31.9974   50.6496 H   0  0  0  0  0  0  0  0  0  0  0  0
   59.1937   30.6481   49.5411 H   0  0  0  0  0  0  0  0  0  0  0  0
   59.3524   32.0280   50.7025 H   0  0  0  0  0  0  0  0  0  0  0  0
   59.5880   32.1580   47.7080 H   0  0  0  0  0  0  0  0  0  0  0  0
   59.3941   35.8636   48.0411 H   0  0  0  0  0  0  0  0  0  0  0  0
   60.8273   34.9322   47.4350 H   0  0  0  0  0  0  0  0  0  0  0  0
   57.2430   33.8319   47.7499 H   0  0  0  0  0  0  0  0  0  0  0  0
   56.0037   32.8400   45.8277 H   0  0  0  0  0  0  0  0  0  0  0  0
   57.0099   32.8559   43.5436 H   0  0  0  0  0  0  0  0  0  0  0  0
   59.2546   33.8817   43.1768 H   0  0  0  0  0  0  0  0  0  0  0  0
   60.5323   34.8198   45.1033 H   0  0  0  0  0  0  0  0  0  0  0  0
  1  2  1  0
  2  3  2  0
  3  4  1  0
  4  5  2  0
  4  6  1  0
  3  7  1  0
  7  8  1  0
  8  9  1  0
  9 10  1  0
 10 11  1  0
 11 12  1  0
 12 13  1  0
 13 14  1  0
 14 15  1  0
 15 16  2  0
 15 17  1  0
 17 18  1  0
 18 19  2  0
 19 20  1  0
 20 21  2  0
 21 22  1  0
 22 23  2  0
 10 24  2  0
 24 25  1  0
 25 26  2  0
 25 27  1  0
 27  2  1  0
 27  8  2  0
 23 18  1  0
  1 28  1  0
  1 29  1  0
  1 30  1  0
 12 31  1  0
 12 32  1  0
 13 33  1  0
 13 34  1  0
 14 35  1  0
 17 36  1  0
 17 37  1  0
 19 38  1  0
 20 39  1  0
 21 40  1  0
 22 41  1  0
 23 42  1  0
M  CHG  2   6  -1   9  -1
M  END
>  <UniqueID>  (10) 
10

>  <SMILES>  (10) 
Cc1c(C(=O)[O-])sc2[n-]c(SCCNC(=O)Cc3ccccc3)nc(=O)c12

>  <Energy>  (10) 
68.55532569203227

>  <Genealogy>  (10) 
Cc1c(C(=O)[O-])sc2[n-]c(SCCNC(=O)Cc3ccccc3)nc(=O)c12 (protonated)
Cc1c(C(=O)[O-])sc2[n-]c(SCCNC(=O)Cc3ccccc3)nc(=O)c12 (3D coordinates assigned)
Cc1c(C(=O)[O-])sc2[n-]c(SCCNC(=O)Cc3ccccc3)nc(=O)c12 (optimized conformer: 68.55532569203227 kcal/mol)

>  <smiles>  (10) 
Cc1c(C(=O)O)sc2[nH]c(SCCNC(=O)Cc3ccccc3)nc(=O)c12

>  <score_type>  (10) 
oracle

>  <origin>  (10) 
adg

>  <m_score__min__energy>  (10) 
-12.220000000000001

>  <m_primary>  (10) 
energy

$$$$
10:0
     RDKit          3D

 38 40  0  0  0  0  0  0  0  0999 V2000
   59.5078   27.3988   47.3132 H   0  0  0  0  0  0  0  0  0  0  0  0
   60.0180   28.3110   47.6560 C   0  0  0  0  0  0  0  0  0  0  0  0
   60.9623   28.6227   47.1858 H   0  0  0  0  0  0  0  0  0  0  0  0
   59.4910   29.0400   48.6430 C   0  0  0  0  0  0  0  0  0  0  0  0
   58.5463   28.7210   49.1076 H   0  0  0  0  0  0  0  0  0  0  0  0
   60.1710   30.2920   49.1290 C   0  0  0  0  0  0  0  0  0  0  0  0
   59.6563   30.6564   50.0303 H   0  0  0  0  0  0  0  0  0  0  0  0
   61.2212   30.0590   49.3588 H   0  0  0  0  0  0  0  0  0  0  0  0
   60.1320   31.3410   48.0900 N   0  0  0  0  0  0  0  0  0  0  0  0
   58.9410   31.5420   47.4440 C   0  0  0  0  0  0  0  0  0  0  0  0
   58.0690   30.9358   47.7306 H   0  0  0  0  0  0  0  0  0  0  0  0
   58.8010   32.4990   46.4270 C   0  0  0  0  0  0  0  0  0  0  0  0
   57.4830   32.6580   45.7500 C   0  0  0  0  0  0  0  0  0  0  0  0
   56.8000   33.6980   45.9540 O   0  0  0  0  0  0  0  0  0  0  0  0
   56.9430   31.5890   44.9510 N   0  0  0  0  0  0  0  0  0  0  0  0
   57.3210   30.3400   44.8820 C   0  0  0  0  0  0  0  0  0  0  0  0
   58.5100   29.9350   44.2370 C   0  0  0  0  0  0  0  0  0  0  0  0
   59.1620   30.6805   43.7584 H   0  0  0  0  0  0  0  0  0  0  0  0
   58.8520   28.5830   44.2110 C   0  0  0  0  0  0  0  0  0  0  0  0
   59.7729   28.2589   43.7041 H   0  0  0  0  0  0  0  0  0  0  0  0
   58.0290   27.6430   44.8260 C   0  0  0  0  0  0  0  0  0  0  0  0
   58.2890   26.5745   44.8007 H   0  0  0  0  0  0  0  0  0  0  0  0
   56.8720   28.0720   45.4740 C   0  0  0  0  0  0  0  0  0  0  0  0
   56.2185   27.3399   45.9709 H   0  0  0  0  0  0  0  0  0  0  0  0
   56.5480   29.3940   45.4940 N   0  0  0  0  0  0  0  0  0  0  0  0
   55.6730   29.6830   45.9890 H   0  0  0  0  0  0  0  0  0  0  0  0
   59.9170   33.2840   46.0880 C   0  0  0  0  0  0  0  0  0  0  0  0
   59.8250   34.1680   45.1910 O   0  0  0  0  0  0  0  0  0  0  0  0
   61.1380   33.1010   46.7620 C   0  0  0  0  0  0  0  0  0  0  0  0
   62.2630   33.8870   46.4410 C   0  0  0  0  0  0  0  0  0  0  0  0
   62.1903   34.6427   45.6450 H   0  0  0  0  0  0  0  0  0  0  0  0
   63.4660   33.7160   47.1220 C   0  0  0  0  0  0  0  0  0  0  0  0
   64.3387   34.3321   46.8597 H   0  0  0  0  0  0  0  0  0  0  0  0
   63.5640   32.7660   48.1340 C   0  0  0  0  0  0  0  0  0  0  0  0
   64.5136   32.6380   48.6742 H   0  0  0  0  0  0  0  0  0  0  0  0
   62.4640   31.9750   48.4670 C   0  0  0  0  0  0  0  0  0  0  0  0
   62.5548   31.2303   49.2715 H   0  0  0  0  0  0  0  0  0  0  0  0
   61.2320   32.1180   47.7830 C   0  0  0  0  0  0  0  0  0  0  0  0
  1  2  1  0
  2  3  1  0
  2  4  2  0
  4  5  1  0
  4  6  1  0
  6  7  1  0
  6  8  1  0
  6  9  1  0
  9 10  1  0
 10 11  1  0
 10 12  2  0
 12 13  1  0
 13 14  2  0
 13 15  1  0
 15 16  2  0
 16 17  1  0
 17 18  1  0
 17 19  2  0
 19 20  1  0
 19 21  1  0
 21 22  1  0
 21 23  2  0
 23 24  1  0
 23 25  1  0
 25 26  1  0
 12 27  1  0
 27 28  2  0
 27 29  1  0
 29 30  2  0
 30 31  1  0
 30 32  1  0
 32 33  1  0
 32 34  2  0
 34 35  1  0
 34 36  1  0
 36 37  1  0
 36 38  2  0
 38  9  1  0
 25 16  1  0
 38 29  1  0
M  END
>  <UniqueID>  (11) 
11

>  <SMILES>  (11) 
C=CCn1cc(C(=O)/N=c2\cccc[nH]2)c(=O)c2ccccc21

>  <Energy>  (11) 
58.76499303673885

>  <Genealogy>  (11) 
C=CCn1cc(C(=O)/N=c2\cccc[nH]2)c(=O)c2ccccc21 (cis-trans isomerization)
C=CCn1cc(C(=O)/N=c2\cccc[nH]2)c(=O)c2ccccc21 (3D coordinates assigned)
C=CCn1cc(C(=O)/N=c2\cccc[nH]2)c(=O)c2ccccc21 (optimized conformer: 58.76499303673885 kcal/mol)

>  <smiles>  (11) 
C=CCn1cc(C(=O)N=c2cccc[nH]2)c(=O)c2ccccc21

>  <score_type>  (11) 
oracle

>  <origin>  (11) 
adg

>  <m_score__min__energy>  (11) 
-7.5099999999999998

>  <m_primary>  (11) 
energy

$$$$
11:0
     RDKit          3D

 51 54  0  0  0  0  0  0  0  0999 V2000
   56.5650   31.2980   53.4020 N   0  0  0  0  0  0  0  0  0  0  0  0
   57.1790   31.1800   52.2710 C   0  0  0  0  0  0  0  0  0  0  0  0
   57.5020   32.2860   51.5470 N   0  0  0  0  0  0  0  0  0  0  0  0
   58.1460   32.1820   50.3570 C   0  0  0  0  0  0  0  0  0  0  0  0
   58.4970   30.9200   49.8570 C   0  0  0  0  0  0  0  0  0  0  0  0
   59.1810   30.7860   48.5480 C   0  0  0  0  0  0  0  0  0  0  0  0
   58.6010   29.9670   47.5640 C   0  0  0  0  0  0  0  0  0  0  0  0
   59.2300   29.7670   46.3270 C   0  0  0  0  0  0  0  0  0  0  0  0
   58.6200   28.8950   45.3570 N   0  0  0  0  0  0  0  0  0  0  0  0
   57.9110   27.6950   45.6990 C   0  0  0  0  0  0  0  0  0  0  0  0
   58.6470   26.5740   46.1090 C   0  0  0  0  0  0  0  0  0  0  0  0
   57.9960   25.3990   46.4850 C   0  0  0  0  0  0  0  0  0  0  0  0
   56.6030   25.3290   46.4530 C   0  0  0  0  0  0  0  0  0  0  0  0
   55.8550   26.4280   46.0210 C   0  0  0  0  0  0  0  0  0  0  0  0
   54.4680   26.3280   45.9820 O   0  0  0  0  0  0  0  0  0  0  0  0
   56.4990   27.6140   45.6230 C   0  0  0  0  0  0  0  0  0  0  0  0
   55.7260   28.7060   45.1050 N   0  0  0  0  0  0  0  0  0  0  0  0
   60.4380   30.4320   46.0590 C   0  0  0  0  0  0  0  0  0  0  0  0
   61.0180   31.2580   47.0230 C   0  0  0  0  0  0  0  0  0  0  0  0
   60.4110   31.4330   48.2750 C   0  0  0  0  0  0  0  0  0  0  0  0
   61.0380   32.3580   49.2440 C   0  0  0  0  0  0  0  0  0  0  0  0
   61.6050   31.8880   50.2650 O   0  0  0  0  0  0  0  0  0  0  0  0
   61.0270   33.7760   49.0440 N   0  0  0  0  0  0  0  0  0  0  0  0
   59.8210   34.5640   48.8310 C   0  0  0  0  0  0  0  0  0  0  0  0
   59.2640   34.2650   47.4700 C   0  0  0  0  0  0  0  0  0  0  0  0
   59.9710   34.6260   46.3110 C   0  0  0  0  0  0  0  0  0  0  0  0
   59.4560   34.3210   45.0480 C   0  0  0  0  0  0  0  0  0  0  0  0
   58.2370   33.6440   44.9330 C   0  0  0  0  0  0  0  0  0  0  0  0
   57.7360   33.3520   43.7070 F   0  0  0  0  0  0  0  0  0  0  0  0
   57.5330   33.2710   46.0820 C   0  0  0  0  0  0  0  0  0  0  0  0
   58.0450   33.5790   47.3460 C   0  0  0  0  0  0  0  0  0  0  0  0
   58.1460   29.7950   50.6160 C   0  0  0  0  0  0  0  0  0  0  0  0
   57.5000   29.9470   51.8020 N   0  0  0  0  0  0  0  0  0  0  0  0
   56.4170   30.4760   54.0300 H   0  0  0  0  0  0  0  0  0  0  0  0
   58.3927   33.0882   49.7844 H   0  0  0  0  0  0  0  0  0  0  0  0
   57.6384   29.4752   47.7676 H   0  0  0  0  0  0  0  0  0  0  0  0
   58.7780   29.0930   44.3430 H   0  0  0  0  0  0  0  0  0  0  0  0
   59.7457   26.6216   46.1343 H   0  0  0  0  0  0  0  0  0  0  0  0
   58.5822   24.5258   46.8074 H   0  0  0  0  0  0  0  0  0  0  0  0
   56.0923   24.4072   46.7683 H   0  0  0  0  0  0  0  0  0  0  0  0
   54.7890   28.5450   44.6690 H   0  0  0  0  0  0  0  0  0  0  0  0
   56.0980   29.6800   45.0870 H   0  0  0  0  0  0  0  0  0  0  0  0
   60.9297   30.3010   45.0837 H   0  0  0  0  0  0  0  0  0  0  0  0
   61.9613   31.7773   46.7983 H   0  0  0  0  0  0  0  0  0  0  0  0
   59.0748   34.3074   49.5974 H   0  0  0  0  0  0  0  0  0  0  0  0
   60.0644   35.6344   48.9013 H   0  0  0  0  0  0  0  0  0  0  0  0
   60.9338   35.1508   46.3978 H   0  0  0  0  0  0  0  0  0  0  0  0
   60.0096   34.6135   44.1436 H   0  0  0  0  0  0  0  0  0  0  0  0
   56.5765   32.7353   45.9915 H   0  0  0  0  0  0  0  0  0  0  0  0
   57.4900   33.2824   48.2482 H   0  0  0  0  0  0  0  0  0  0  0  0
   58.3939   28.7874   50.2510 H   0  0  0  0  0  0  0  0  0  0  0  0
  1  2  2  3
  2  3  1  0
  3  4  2  0
  4  5  1  0
  5  6  1  0
  6  7  2  0
  7  8  1  0
  8  9  1  0
  9 10  1  0
 10 11  2  0
 11 12  1  0
 12 13  2  0
 13 14  1  0
 14 15  1  0
 14 16  2  0
 16 17  1  0
  8 18  2  0
 18 19  1  0
 19 20  2  0
 20 21  1  0
 21 22  2  0
 21 23  1  0
 23 24  1  0
 24 25  1  0
 25 26  2  0
 26 27  1  0
 27 28  2  0
 28 29  1  0
 28 30  1  0
 30 31  2  0
  5 32  2  0
 32 33  1  0
 33  2  1  0
 20  6  1  0
 31 25  1  0
 16 10  1  0
  1 34  1  0
  4 35  1  0
  7 36  1  0
  9 37  1  0
 11 38  1  0
 12 39  1  0
 13 40  1  0
 17 41  1  0
 17 42  1  0
 18 43  1  0
 19 44  1  0
 24 45  1  0
 24 46  1  0
 26 47  1  0
 27 48  1  0
 30 49  1  0
 31 50  1  0
 32 51  1  0
M  CHG  3  15  -1  23  -1  33  -1
M  END
>  <UniqueID>  (12) 
12

>  <SMILES>  (12) 
N=c1ncc(-c2cc(Nc3cccc([O-])c3N)ccc2C(=O)[N-]Cc2ccc(F)cc2)c[n-]1

>  <Energy>  (12) 
75.03205867171494

>  <Genealogy>  (12) 
N=c1ncc(-c2cc(Nc3cccc([O-])c3N)ccc2C(=O)[N-]Cc2ccc(F)cc2)c[n-]1 (protonated)
N=c1ncc(-c2cc(Nc3cccc([O-])c3N)ccc2C(=O)[N-]Cc2ccc(F)cc2)c[n-]1 (3D coordinates assigned)
N=c1ncc(-c2cc(Nc3cccc([O-])c3N)ccc2C(=O)[N-]Cc2ccc(F)cc2)c[n-]1 (optimized conformer: 75.03205867171494 kcal/mol)

>  <smiles>  (12) 
N=c1ncc(-c2cc(Nc3cccc(O)c3N)ccc2C(=O)NCc2ccc(F)cc2)c[nH]1

>  <score_type>  (12) 
oracle

>  <origin>  (12) 
adg

>  <m_score__min__energy>  (12) 
-14.609999999999999

>  <m_primary>  (12) 
energy

$$$$
12:0
     RDKit          3D

 39 41  0  0  0  0  0  0  0  0999 V2000
   59.0380   28.6660   47.1580 C   0  0  0  0  0  0  0  0  0  0  0  0
   58.5210   29.3470   46.1230 C   0  0  0  0  0  0  0  0  0  0  0  0
   57.7540   28.8400   45.0590 C   0  0  0  0  0  0  0  0  0  0  0  0
   57.4080   27.5800   44.7330 C   0  0  0  0  0  0  0  0  0  0  0  0
   57.3890   26.4280   45.6540 C   0  0  0  0  0  0  0  0  0  0  0  0
   56.1890   25.9920   46.2480 C   0  0  0  0  0  0  0  0  0  0  0  0
   54.9810   26.6580   46.0380 O   0  0  0  0  0  0  0  0  0  0  0  0
   56.2000   24.8990   47.0550 N   0  0  0  0  0  0  0  0  0  0  0  0
   57.3430   24.2090   47.2950 C   0  0  0  0  0  0  0  0  0  0  0  0
   57.3240   23.2040   48.0510 O   0  0  0  0  0  0  0  0  0  0  0  0
   58.5080   24.6000   46.7180 N   0  0  0  0  0  0  0  0  0  0  0  0
   58.5560   25.6830   45.9000 C   0  0  0  0  0  0  0  0  0  0  0  0
   59.6510   26.0080   45.3680 O   0  0  0  0  0  0  0  0  0  0  0  0
   57.3800   29.9350   44.2950 C   0  0  0  0  0  0  0  0  0  0  0  0
   57.9400   31.0480   44.8860 C   0  0  0  0  0  0  0  0  0  0  0  0
   57.8070   32.4470   44.3670 C   0  0  0  0  0  0  0  0  0  0  0  0
   58.6390   30.6940   45.9860 N   0  0  0  0  0  0  0  0  0  0  0  0
   59.3240   31.6060   46.8630 C   0  0  0  0  0  0  0  0  0  0  0  0
   60.7220   31.5920   46.9540 C   0  0  0  0  0  0  0  0  0  0  0  0
   61.3720   32.4720   47.8230 C   0  0  0  0  0  0  0  0  0  0  0  0
   60.6170   33.3560   48.5980 C   0  0  0  0  0  0  0  0  0  0  0  0
   61.2680   34.2350   49.4670 O   0  0  0  0  0  0  0  0  0  0  0  0
   62.6670   34.1710   49.7220 C   0  0  0  0  0  0  0  0  0  0  0  0
   59.2570   33.3490   48.4990 N   0  0  0  0  0  0  0  0  0  0  0  0
   58.6020   32.5020   47.6610 C   0  0  0  0  0  0  0  0  0  0  0  0
   59.6231   29.1931   47.9260 H   0  0  0  0  0  0  0  0  0  0  0  0
   58.8765   27.5809   47.2381 H   0  0  0  0  0  0  0  0  0  0  0  0
   57.1141   27.3938   43.6895 H   0  0  0  0  0  0  0  0  0  0  0  0
   54.2570   26.7140   46.7440 H   0  0  0  0  0  0  0  0  0  0  0  0
   56.7554   29.9189   43.3897 H   0  0  0  0  0  0  0  0  0  0  0  0
   57.7404   33.1471   45.2128 H   0  0  0  0  0  0  0  0  0  0  0  0
   58.6856   32.6956   43.7535 H   0  0  0  0  0  0  0  0  0  0  0  0
   56.8973   32.5256   43.7535 H   0  0  0  0  0  0  0  0  0  0  0  0
   61.3069   30.8893   46.3423 H   0  0  0  0  0  0  0  0  0  0  0  0
   62.4695   32.4689   47.8964 H   0  0  0  0  0  0  0  0  0  0  0  0
   62.8418   34.1630   50.8080 H   0  0  0  0  0  0  0  0  0  0  0  0
   63.0791   33.2531   49.2775 H   0  0  0  0  0  0  0  0  0  0  0  0
   63.1612   35.0475   49.2775 H   0  0  0  0  0  0  0  0  0  0  0  0
   57.5034   32.5206   47.6098 H   0  0  0  0  0  0  0  0  0  0  0  0
  1  2  2  0
  2  3  1  0
  3  4  2  3
  4  5  1  0
  5  6  2  0
  6  7  1  0
  6  8  1  0
  8  9  1  0
  9 10  2  0
  9 11  1  0
 11 12  1  0
 12 13  2  0
  3 14  1  0
 14 15  2  0
 15 16  1  0
 15 17  1  0
 17 18  1  0
 18 19  2  0
 19 20  1  0
 20 21  2  0
 21 22  1  0
 22 23  1  0
 21 24  1  0
 24 25  2  0
 17  2  1  0
 25 18  1  0
 12  5  1  0
  1 26  1  0
  1 27  1  0
  4 28  1  0
  7 29  1  0
 14 30  1  0
 16 31  1  0
 16 32  1  0
 16 33  1  0
 19 34  1  0
 20 35  1  0
 23 36  1  0
 23 37  1  0
 23 38  1  0
 25 39  1  0
M  CHG  2   8  -1  11  -1
M  END
>  <UniqueID>  (13) 
13

>  <SMILES>  (13) 
C=c1c(=Cc2c(O)[n-]c(=O)[n-]c2=O)cc(C)n1-c1ccc(OC)nc1

>  <Energy>  (13) 
89.77052145284749

>  <Genealogy>  (13) 
C=c1c(=Cc2c(O)[n-]c(=O)[n-]c2=O)cc(C)n1-c1ccc(OC)nc1 (protonated)
C=c1c(=Cc2c(O)[n-]c(=O)[n-]c2=O)cc(C)n1-c1ccc(OC)nc1 (3D coordinates assigned)
C=c1c(=Cc2c(O)[n-]c(=O)[n-]c2=O)cc(C)n1-c1ccc(OC)nc1 (optimized conformer: 89.77052145284749 kcal/mol)

>  <smiles>  (13) 
C=c1c(=Cc2c(O)[nH]c(=O)[nH]c2=O)cc(C)n1-c1ccc(OC)nc1

>  <score_type>  (13) 
oracle

>  <origin>  (13) 
adg

>  <m_score__min__energy>  (13) 
-12.050000000000001

>  <m_primary>  (13) 
energy

$$$$
13:0
     RDKit          3D

 46 48  0  0  0  0  0  0  0  0999 V2000
   54.7510   27.4730   46.3750 H   0  0  0  0  0  0  0  0  0  0  0  0
   54.9600   26.5740   45.9630 O   0  0  0  0  0  0  0  0  0  0  0  0
   55.9840   25.7620   46.4480 C   0  0  0  0  0  0  0  0  0  0  0  0
   55.7590   24.6170   47.1110 N   0  0  0  0  0  0  0  0  0  0  0  0
   57.0060   24.1780   47.3820 C   0  0  0  0  0  0  0  0  0  0  0  0
   57.2280   23.1090   48.0090 O   0  0  0  0  0  0  0  0  0  0  0  0
   57.9960   24.9780   46.9340 N   0  0  0  0  0  0  0  0  0  0  0  0
   57.3410   25.9850   46.3270 C   0  0  0  0  0  0  0  0  0  0  0  0
   57.9820   27.1750   45.7250 C   0  0  0  0  0  0  0  0  0  0  0  0
   58.1565   27.1633   44.6390 H   0  0  0  0  0  0  0  0  0  0  0  0
   58.3690   28.2740   46.4070 C   0  0  0  0  0  0  0  0  0  0  0  0
   58.4340   28.4210   47.7880 C   0  0  0  0  0  0  0  0  0  0  0  0
   58.1577   27.6685   48.5413 H   0  0  0  0  0  0  0  0  0  0  0  0
   58.9120   29.6930   48.0320 C   0  0  0  0  0  0  0  0  0  0  0  0
   59.1370   30.2710   49.3960 C   0  0  0  0  0  0  0  0  0  0  0  0
   58.8496   29.5327   50.1591 H   0  0  0  0  0  0  0  0  0  0  0  0
   60.2003   30.5265   49.5151 H   0  0  0  0  0  0  0  0  0  0  0  0
   58.5263   31.1781   49.5151 H   0  0  0  0  0  0  0  0  0  0  0  0
   59.1370   30.3440   46.8690 N   0  0  0  0  0  0  0  0  0  0  0  0
   59.6430   31.6840   46.7420 C   0  0  0  0  0  0  0  0  0  0  0  0
   58.7780   32.7390   46.4220 C   0  0  0  0  0  0  0  0  0  0  0  0
   57.7043   32.5448   46.2823 H   0  0  0  0  0  0  0  0  0  0  0  0
   59.2750   34.0360   46.2800 C   0  0  0  0  0  0  0  0  0  0  0  0
   58.5928   34.8599   46.0233 H   0  0  0  0  0  0  0  0  0  0  0  0
   60.6360   34.2900   46.4630 C   0  0  0  0  0  0  0  0  0  0  0  0
   61.0238   35.3121   46.3410 H   0  0  0  0  0  0  0  0  0  0  0  0
   61.5110   33.2460   46.8020 C   0  0  0  0  0  0  0  0  0  0  0  0
   62.9530   33.5000   46.9840 C   0  0  0  0  0  0  0  0  0  0  0  0
   63.4900   34.4520   46.3600 O   0  0  0  0  0  0  0  0  0  0  0  0
   63.7690   32.6880   47.8400 N   0  0  0  0  0  0  0  0  0  0  0  0
   63.7940   32.7400   49.3010 C   0  0  0  0  0  0  0  0  0  0  0  0
   63.3155   33.6692   49.6441 H   0  0  0  0  0  0  0  0  0  0  0  0
   63.0160   31.5580   49.8890 C   0  0  0  0  0  0  0  0  0  0  0  0
   63.0486   31.6076   50.9874 H   0  0  0  0  0  0  0  0  0  0  0  0
   61.9702   31.6028   49.5508 H   0  0  0  0  0  0  0  0  0  0  0  0
   63.4707   30.6152   49.5508 H   0  0  0  0  0  0  0  0  0  0  0  0
   65.2460   32.7100   49.7750 C   0  0  0  0  0  0  0  0  0  0  0  0
   65.2728   32.7094   50.8747 H   0  0  0  0  0  0  0  0  0  0  0  0
   65.7368   31.8015   49.3958 H   0  0  0  0  0  0  0  0  0  0  0  0
   65.7739   33.5974   49.3958 H   0  0  0  0  0  0  0  0  0  0  0  0
   61.0120   31.9400   46.9200 C   0  0  0  0  0  0  0  0  0  0  0  0
   61.6973   31.1118   47.1533 H   0  0  0  0  0  0  0  0  0  0  0  0
   58.8140   29.4880   45.8660 C   0  0  0  0  0  0  0  0  0  0  0  0
   58.8830   29.8040   44.5630 C   0  0  0  0  0  0  0  0  0  0  0  0
   59.2513   30.7940   44.2559 H   0  0  0  0  0  0  0  0  0  0  0  0
   58.5712   29.0729   43.8025 H   0  0  0  0  0  0  0  0  0  0  0  0
  1  2  1  0
  2  3  1  0
  3  4  1  0
  4  5  1  0
  5  6  2  0
  5  7  1  0
  7  8  1  0
  8  9  1  0
  9 10  1  0
  9 11  2  0
 11 12  1  0
 12 13  1  0
 12 14  2  0
 14 15  1  0
 15 16  1  0
 15 17  1  0
 15 18  1  0
 14 19  1  0
 19 20  1  0
 20 21  2  0
 21 22  1  0
 21 23  1  0
 23 24  1  0
 23 25  2  0
 25 26  1  0
 25 27  1  0
 27 28  1  0
 28 29  2  0
 28 30  1  0
 30 31  1  0
 31 32  1  0
 31 33  1  0
 33 34  1  0
 33 35  1  0
 33 36  1  0
 31 37  1  0
 37 38  1  0
 37 39  1  0
 37 40  1  0
 27 41  2  0
 41 42  1  0
 19 43  1  0
 43 44  2  0
 44 45  1  0
 44 46  1  0
  8  3  2  0
 43 11  1  0
 41 20  1  0
M  CHG  3   4  -1   7  -1  30  -1
M  END
>  <UniqueID>  (14) 
14

>  <SMILES>  (14) 
C=c1/c(=C/c2[n-]c(=O)[n-]c2O)cc(C)n1-c1cccc(C(=O)[N-]C(C)C)c1

>  <Energy>  (14) 
115.23714271125733

>  <Genealogy>  (14) 
C=c1c(=Cc2[n-]c(=O)[n-]c2O)cc(C)n1-c1cccc(C(=O)[N-]C(C)C)c1 (protonated)
C=c1/c(=C/c2[n-]c(=O)[n-]c2O)cc(C)n1-c1cccc(C(=O)[N-]C(C)C)c1 (cis-trans isomerization)
C=c1/c(=C/c2[n-]c(=O)[n-]c2O)cc(C)n1-c1cccc(C(=O)[N-]C(C)C)c1 (3D coordinates assigned)
C=c1/c(=C/c2[n-]c(=O)[n-]c2O)cc(C)n1-c1cccc(C(=O)[N-]C(C)C)c1 (optimized conformer: 115.23714271125733 kcal/mol)

>  <smiles>  (14) 
C=c1c(=Cc2[nH]c(=O)[nH]c2O)cc(C)n1-c1cccc(C(=O)NC(C)C)c1

>  <score_type>  (14) 
oracle

>  <origin>  (14) 
adg

>  <m_score__min__energy>  (14) 
-14.390000000000001

>  <m_primary>  (14) 
energy

$$$$
14:0
     RDKit          3D

 47 50  0  0  0  0  0  0  0  0999 V2000
   54.2020   24.3140   46.0480 O   0  0  0  0  0  0  0  0  0  0  0  0
   55.2430   24.9520   45.7420 C   0  0  0  0  0  0  0  0  0  0  0  0
   56.4160   24.2370   45.1430 C   0  0  0  0  0  0  0  0  0  0  0  0
   57.9350   24.8030   45.9680 S   0  0  0  0  0  0  0  0  0  0  0  0
   57.7090   26.5290   45.5060 C   0  0  0  0  0  0  0  0  0  0  0  0
   58.8090   27.2760   45.0770 C   0  0  0  0  0  0  0  0  0  0  0  0
   58.6760   28.6440   44.8240 C   0  0  0  0  0  0  0  0  0  0  0  0
   57.4350   29.2850   44.9960 C   0  0  0  0  0  0  0  0  0  0  0  0
   57.2940   30.7360   44.7330 C   0  0  0  0  0  0  0  0  0  0  0  0
   56.1680   31.2180   44.4290 O   0  0  0  0  0  0  0  0  0  0  0  0
   58.4330   31.5970   44.8200 N   0  0  0  0  0  0  0  0  0  0  0  0
   58.5200   32.8720   44.1180 C   0  0  0  0  0  0  0  0  0  0  0  0
   57.9770   33.9630   44.9560 N   0  0  0  0  0  0  0  0  0  0  0  0
   58.8600   35.1590   44.9380 C   0  0  0  0  0  0  0  0  0  0  0  0
   59.7010   35.3540   46.2180 C   0  0  0  0  0  0  0  0  0  0  0  0
   59.9880   34.0720   46.8730 N   0  0  0  0  0  0  0  0  0  0  0  0
   61.2630   33.8490   47.5050 C   0  0  0  0  0  0  0  0  0  0  0  0
   62.3840   33.4770   46.7410 C   0  0  0  0  0  0  0  0  0  0  0  0
   63.6210   33.2640   47.3590 C   0  0  0  0  0  0  0  0  0  0  0  0
   63.7500   33.4180   48.7430 C   0  0  0  0  0  0  0  0  0  0  0  0
   64.9780   33.2040   49.3540 O   0  0  0  0  0  0  0  0  0  0  0  0
   62.6410   33.7850   49.5090 C   0  0  0  0  0  0  0  0  0  0  0  0
   61.4030   34.0010   48.8950 C   0  0  0  0  0  0  0  0  0  0  0  0
   58.8900   33.1310   47.1210 C   0  0  0  0  0  0  0  0  0  0  0  0
   57.6380   33.5280   46.3280 C   0  0  0  0  0  0  0  0  0  0  0  0
   56.3250   28.5210   45.4040 C   0  0  0  0  0  0  0  0  0  0  0  0
   56.4530   27.1470   45.6390 C   0  0  0  0  0  0  0  0  0  0  0  0
   55.2820   26.3710   45.9220 N   0  0  0  0  0  0  0  0  0  0  0  0
   56.3000   23.1526   45.2865 H   0  0  0  0  0  0  0  0  0  0  0  0
   56.4741   24.4533   44.0660 H   0  0  0  0  0  0  0  0  0  0  0  0
   59.7836   26.7854   44.9378 H   0  0  0  0  0  0  0  0  0  0  0  0
   59.5480   29.2242   44.4878 H   0  0  0  0  0  0  0  0  0  0  0  0
   59.5735   33.0853   43.8841 H   0  0  0  0  0  0  0  0  0  0  0  0
   57.9310   32.8086   43.1911 H   0  0  0  0  0  0  0  0  0  0  0  0
   59.5488   35.0646   44.0856 H   0  0  0  0  0  0  0  0  0  0  0  0
   58.1986   36.0347   44.8621 H   0  0  0  0  0  0  0  0  0  0  0  0
   60.6512   35.8397   45.9510 H   0  0  0  0  0  0  0  0  0  0  0  0
   59.1256   35.9781   46.9176 H   0  0  0  0  0  0  0  0  0  0  0  0
   62.2876   33.3530   45.6523 H   0  0  0  0  0  0  0  0  0  0  0  0
   64.4938   32.9748   46.7551 H   0  0  0  0  0  0  0  0  0  0  0  0
   62.7416   33.9044   50.5979 H   0  0  0  0  0  0  0  0  0  0  0  0
   60.5340   34.2915   49.5036 H   0  0  0  0  0  0  0  0  0  0  0  0
   59.2046   32.1221   46.8157 H   0  0  0  0  0  0  0  0  0  0  0  0
   58.6469   33.1500   48.1936 H   0  0  0  0  0  0  0  0  0  0  0  0
   56.9622   32.6620   46.2710 H   0  0  0  0  0  0  0  0  0  0  0  0
   57.1555   34.3699   46.8462 H   0  0  0  0  0  0  0  0  0  0  0  0
   55.3482   29.0083   45.5393 H   0  0  0  0  0  0  0  0  0  0  0  0
  1  2  2  0
  2  3  1  0
  3  4  1  0
  4  5  1  0
  5  6  2  0
  6  7  1  0
  7  8  2  0
  8  9  1  0
  9 10  2  0
  9 11  1  0
 11 12  1  0
 12 13  1  0
 13 14  1  0
 14 15  1  0
 15 16  1  0
 16 17  1  0
 17 18  2  0
 18 19  1  0
 19 20  2  0
 20 21  1  0
 20 22  1  0
 22 23  2  0
 16 24  1  0
 24 25  1  0
  8 26  1  0
 26 27  2  0
 27 28  1  0
 28  2  1  0
 27  5  1  0
 25 13  1  0
 23 17  1  0
  3 29  1  0
  3 30  1  0
  6 31  1  0
  7 32  1  0
 12 33  1  0
 12 34  1  0
 14 35  1  0
 14 36  1  0
 15 37  1  0
 15 38  1  0
 18 39  1  0
 19 40  1  0
 22 41  1  0
 23 42  1  0
 24 43  1  0
 24 44  1  0
 25 45  1  0
 25 46  1  0
 26 47  1  0
M  CHG  3  11  -1  21  -1  28  -1
M  END
>  <UniqueID>  (15) 
15

>  <SMILES>  (15) 
O=C1CSc2ccc(C(=O)[N-]CN3CCN(c4ccc([O-])cc4)CC3)cc2[N-]1

>  <Energy>  (15) 
65.92042504264124

>  <Genealogy>  (15) 
O=C1CSc2ccc(C(=O)[N-]CN3CCN(c4ccc([O-])cc4)CC3)cc2[N-]1 (protonated)
O=C1CSc2ccc(C(=O)[N-]CN3CCN(c4ccc([O-])cc4)CC3)cc2[N-]1 (3D coordinates assigned)
O=C1CSc2ccc(C(=O)[N-]CN3CCN(c4ccc([O-])cc4)CC3)cc2[N-]1 (nonaromatic ring conformer: 65.92042504264124 kcal/mol)

>  <smiles>  (15) 
O=C1CSc2ccc(C(=O)NCN3CCN(c4ccc(O)cc4)CC3)cc2N1

>  <score_type>  (15) 
oracle

>  <origin>  (15) 
adg

>  <m_score__min__energy>  (15) 
-13.380000000000001

>  <m_primary>  (15) 
energy

$$$$
15:0
     RDKit          3D

 30 32  0  0  0  0  0  0  0  0999 V2000
   52.3668   28.1545   53.7530 H   0  0  0  0  0  0  0  0  0  0  0  0
   53.4630   28.0640   53.7380 C   0  0  0  0  0  0  0  0  0  0  0  0
   53.9533   27.2305   54.2623 H   0  0  0  0  0  0  0  0  0  0  0  0
   54.2010   28.9690   53.0810 C   0  0  0  0  0  0  0  0  0  0  0  0
   53.6880   30.0820   52.3740 C   0  0  0  0  0  0  0  0  0  0  0  0
   52.3910   30.4290   52.2350 C   0  0  0  0  0  0  0  0  0  0  0  0
   51.7629   30.4181   53.1380 H   0  0  0  0  0  0  0  0  0  0  0  0
   51.7490   30.8230   50.9610 C   0  0  0  0  0  0  0  0  0  0  0  0
   51.6730   30.0690   49.8480 N   0  0  0  0  0  0  0  0  0  0  0  0
   51.0050   30.8560   48.9790 C   0  0  0  0  0  0  0  0  0  0  0  0
   50.7340   30.4900   47.8040 O   0  0  0  0  0  0  0  0  0  0  0  0
   50.6500   32.0630   49.4640 N   0  0  0  0  0  0  0  0  0  0  0  0
   51.1280   32.0260   50.7190 C   0  0  0  0  0  0  0  0  0  0  0  0
   50.9980   33.0720   51.6250 O   0  0  0  0  0  0  0  0  0  0  0  0
   55.0110   30.9190   51.7310 S   0  0  0  0  0  0  0  0  0  0  0  0
   56.1530   29.8500   52.3470 C   0  0  0  0  0  0  0  0  0  0  0  0
   57.4460   29.9540   52.2420 N   0  0  0  0  0  0  0  0  0  0  0  0
   58.1690   31.0460   51.6510 C   0  0  0  0  0  0  0  0  0  0  0  0
   58.3180   32.2770   52.3160 C   0  0  0  0  0  0  0  0  0  0  0  0
   57.9015   32.4080   53.3256 H   0  0  0  0  0  0  0  0  0  0  0  0
   58.9930   33.3340   51.6990 C   0  0  0  0  0  0  0  0  0  0  0  0
   59.1229   34.2880   52.2309 H   0  0  0  0  0  0  0  0  0  0  0  0
   59.5030   33.1800   50.4070 C   0  0  0  0  0  0  0  0  0  0  0  0
   60.0405   34.0101   49.9252 H   0  0  0  0  0  0  0  0  0  0  0  0
   59.3300   31.9710   49.7270 C   0  0  0  0  0  0  0  0  0  0  0  0
   59.7255   31.8528   48.7074 H   0  0  0  0  0  0  0  0  0  0  0  0
   58.6550   30.9120   50.3410 C   0  0  0  0  0  0  0  0  0  0  0  0
   58.4860   29.7460   49.6680 F   0  0  0  0  0  0  0  0  0  0  0  0
   55.5630   28.8660   53.0560 N   0  0  0  0  0  0  0  0  0  0  0  0
   56.1020   28.1080   53.5350 H   0  0  0  0  0  0  0  0  0  0  0  0
  1  2  1  0
  2  3  1  0
  2  4  2  0
  4  5  1  0
  5  6  2  0
  6  7  1  0
  6  8  1  0
  8  9  1  0
  9 10  1  0
 10 11  2  0
 10 12  1  0
 12 13  1  0
 13 14  1  0
  5 15  1  0
 15 16  1  0
 16 17  2  0
 17 18  1  0
 18 19  2  0
 19 20  1  0
 19 21  1  0
 21 22  1  0
 21 23  2  0
 23 24  1  0
 23 25  1  0
 25 26  1  0
 25 27  2  0
 27 28  1  0
 16 29  1  0
 29 30  1  0
 29  4  1  0
 13  8  2  0
 27 18  1  0
M  CHG  3   9  -1  12  -1  14  -1
M  END
>  <UniqueID>  (16) 
16

>  <SMILES>  (16) 
C=c1[nH]/c(=N/c2ccccc2F)s/c1=C\c1[n-]c(=O)[n-]c1[O-]

>  <Energy>  (16) 
104.50436381619161

>  <Genealogy>  (16) 
C=c1[nH]c(=Nc2ccccc2F)sc1=Cc1[n-]c(=O)[n-]c1[O-] (protonated)
C=c1[nH]/c(=N/c2ccccc2F)s/c1=C\c1[n-]c(=O)[n-]c1[O-] (cis-trans isomerization)
C=c1[nH]/c(=N/c2ccccc2F)s/c1=C\c1[n-]c(=O)[n-]c1[O-] (3D coordinates assigned)
C=c1[nH]/c(=N/c2ccccc2F)s/c1=C\c1[n-]c(=O)[n-]c1[O-] (optimized conformer: 104.50436381619161 kcal/mol)

>  <smiles>  (16) 
C=c1[nH]c(=Nc2ccccc2F)sc1=Cc1[nH]c(=O)[nH]c1O

>  <score_type>  (16) 
oracle

>  <origin>  (16) 
adg

>  <m_score__min__energy>  (16) 
-16.109999999999999

>  <m_primary>  (16) 
energy

$$$$
16:0
     RDKit          3D

 69 72  0  0  0  0  0  0  0  0999 V2000
   67.5590   28.3020   50.8140 C   0  0  0  0  0  0  0  0  0  0  0  0
   67.0660   28.9610   52.1040 C   0  0  0  0  0  0  0  0  0  0  0  0
   65.7440   29.6690   51.9330 C   0  0  0  0  0  0  0  0  0  0  0  0
   64.6860   29.1430   52.3790 O   0  0  0  0  0  0  0  0  0  0  0  0
   65.6660   30.9170   51.2210 N   0  0  0  0  0  0  0  0  0  0  0  0
   66.7220   31.9150   51.1970 C   0  0  0  0  0  0  0  0  0  0  0  0
   66.3240   32.9020   50.1070 C   0  0  0  0  0  0  0  0  0  0  0  0
   64.8260   32.6870   49.8750 C   0  0  1  0  0  0  0  0  0  0  0  0
   64.5060   32.8080   48.4500 N   0  0  0  0  0  0  0  0  0  0  0  0
   62.8500   33.2910   48.2180 S   0  0  0  0  0  0  0  0  0  0  0  0
   62.5610   34.5960   48.9090 O   0  0  0  0  0  0  0  0  0  0  0  0
   62.5920   33.4550   46.7450 O   0  0  0  0  0  0  0  0  0  0  0  0
   61.7960   32.0470   48.8950 C   0  0  0  0  0  0  0  0  0  0  0  0
   61.4970   30.8940   48.1530 C   0  0  0  0  0  0  0  0  0  0  0  0
   60.6450   29.9020   48.6700 C   0  0  0  0  0  0  0  0  0  0  0  0
   60.3130   28.7050   47.8550 C   0  0  0  0  0  0  0  0  0  0  0  0
   60.7980   28.5900   46.6960 O   0  0  0  0  0  0  0  0  0  0  0  0
   59.4480   27.6750   48.3630 N   0  0  0  0  0  0  0  0  0  0  0  0
   58.8970   26.6290   47.5050 C   0  0  0  0  0  0  0  0  0  0  0  0
   58.5470   27.1950   46.1560 C   0  0  0  0  0  0  0  0  0  0  0  0
   59.1900   26.7130   45.0060 C   0  0  0  0  0  0  0  0  0  0  0  0
   58.8680   27.2320   43.7500 C   0  0  0  0  0  0  0  0  0  0  0  0
   57.9020   28.2340   43.6320 C   0  0  0  0  0  0  0  0  0  0  0  0
   57.2450   28.7260   44.7730 C   0  0  0  0  0  0  0  0  0  0  0  0
   56.2130   29.7820   44.6530 C   0  0  0  0  0  0  0  0  0  0  0  0
   55.0000   29.4790   44.8120 O   0  0  0  0  0  0  0  0  0  0  0  0
   56.5530   31.1570   44.4000 N   0  0  0  0  0  0  0  0  0  0  0  0
   57.2330   31.9360   45.1940 C   0  0  0  0  0  0  0  0  0  0  0  0
   57.4100   33.2820   44.8500 C   0  0  0  0  0  0  0  0  0  0  0  0
   58.1520   34.1160   45.6910 C   0  0  0  0  0  0  0  0  0  0  0  0
   58.7140   33.5990   46.8620 C   0  0  0  0  0  0  0  0  0  0  0  0
   59.6470   34.6330   47.9320 Cl  0  0  0  0  0  0  0  0  0  0  0  0
   58.5300   32.2480   47.1680 C   0  0  0  0  0  0  0  0  0  0  0  0
   57.8050   31.4550   46.3360 N   0  0  0  0  0  0  0  0  0  0  0  0
   57.5910   28.2180   46.0370 C   0  0  0  0  0  0  0  0  0  0  0  0
   60.0910   30.0880   49.9480 C   0  0  0  0  0  0  0  0  0  0  0  0
   60.3900   31.2300   50.6940 C   0  0  0  0  0  0  0  0  0  0  0  0
   61.2440   32.2190   50.1760 C   0  0  0  0  0  0  0  0  0  0  0  0
   61.5570   33.3810   50.9010 O   0  0  0  0  0  0  0  0  0  0  0  0
   62.3420   33.4080   52.0880 C   0  0  0  0  0  0  0  0  0  0  0  0
   64.5340   31.2740   50.3850 C   0  0  0  0  0  0  0  0  0  0  0  0
   68.2009   27.4440   51.0627 H   0  0  0  0  0  0  0  0  0  0  0  0
   66.6961   27.9561   50.2260 H   0  0  0  0  0  0  0  0  0  0  0  0
   68.1344   29.0321   50.2260 H   0  0  0  0  0  0  0  0  0  0  0  0
   66.9510   28.1836   52.8737 H   0  0  0  0  0  0  0  0  0  0  0  0
   67.8105   29.7169   52.3943 H   0  0  0  0  0  0  0  0  0  0  0  0
   66.7922   32.4240   52.1696 H   0  0  0  0  0  0  0  0  0  0  0  0
   67.7057   31.4639   50.9999 H   0  0  0  0  0  0  0  0  0  0  0  0
   66.5163   33.9339   50.4360 H   0  0  0  0  0  0  0  0  0  0  0  0
   66.9031   32.7421   49.1855 H   0  0  0  0  0  0  0  0  0  0  0  0
   64.2156   33.4380   50.3979 H   0  0  0  0  0  0  0  0  0  0  0  0
   61.9355   30.7644   47.1525 H   0  0  0  0  0  0  0  0  0  0  0  0
   59.2930   27.5890   49.3920 H   0  0  0  0  0  0  0  0  0  0  0  0
   59.6428   25.8299   47.3815 H   0  0  0  0  0  0  0  0  0  0  0  0
   57.9869   26.2241   47.9717 H   0  0  0  0  0  0  0  0  0  0  0  0
   59.9507   25.9233   45.0939 H   0  0  0  0  0  0  0  0  0  0  0  0
   59.3761   26.8509   42.8519 H   0  0  0  0  0  0  0  0  0  0  0  0
   57.6540   28.6404   42.6404 H   0  0  0  0  0  0  0  0  0  0  0  0
   56.9682   33.6800   43.9245 H   0  0  0  0  0  0  0  0  0  0  0  0
   58.2933   35.1758   45.4323 H   0  0  0  0  0  0  0  0  0  0  0  0
   58.9722   31.8263   48.0827 H   0  0  0  0  0  0  0  0  0  0  0  0
   57.1102   28.6240   46.9392 H   0  0  0  0  0  0  0  0  0  0  0  0
   59.4153   29.3266   50.3648 H   0  0  0  0  0  0  0  0  0  0  0  0
   59.9534   31.3567   51.6957 H   0  0  0  0  0  0  0  0  0  0  0  0
   61.6798   33.3852   52.9661 H   0  0  0  0  0  0  0  0  0  0  0  0
   63.0073   32.5322   52.1076 H   0  0  0  0  0  0  0  0  0  0  0  0
   62.9455   34.3274   52.1076 H   0  0  0  0  0  0  0  0  0  0  0  0
   63.6043   31.2628   50.9728 H   0  0  0  0  0  0  0  0  0  0  0  0
   64.4004   30.5627   49.5567 H   0  0  0  0  0  0  0  0  0  0  0  0
  1  2  1  0
  2  3  1  0
  3  4  2  0
  3  5  1  0
  5  6  1  0
  6  7  1  0
  7  8  1  0
  8  9  1  0
  9 10  1  0
 10 11  2  0
 10 12  2  0
 10 13  1  0
 13 14  2  0
 14 15  1  0
 15 16  1  0
 16 17  2  0
 16 18  1  0
 18 19  1  0
 19 20  1  0
 20 21  2  0
 21 22  1  0
 22 23  2  0
 23 24  1  0
 24 25  1  0
 25 26  2  0
 25 27  1  0
 27 28  2  3
 28 29  1  0
 29 30  2  0
 30 31  1  0
 31 32  1  0
 31 33  2  0
 33 34  1  0
 24 35  2  0
 15 36  2  0
 36 37  1  0
 37 38  2  0
 38 39  1  0
 39 40  1  0
  8 41  1  0
 41  5  1  0
 38 13  1  0
 35 20  1  0
 34 28  1  0
  1 42  1  0
  1 43  1  0
  1 44  1  0
  2 45  1  0
  2 46  1  0
  6 47  1  0
  6 48  1  0
  7 49  1  0
  7 50  1  0
  8 51  1  1
 14 52  1  0
 18 53  1  0
 19 54  1  0
 19 55  1  0
 21 56  1  0
 22 57  1  0
 23 58  1  0
 29 59  1  0
 30 60  1  0
 33 61  1  0
 35 62  1  0
 36 63  1  0
 37 64  1  0
 40 65  1  0
 40 66  1  0
 40 67  1  0
 41 68  1  0
 41 69  1  0
M  CHG  2   9  -1  34  -1
M  END
>  <UniqueID>  (17) 
17

>  <SMILES>  (17) 
CCC(=O)N1CC[C@@H]([N-]S(=O)(=O)c2cc(C(=O)NCc3cccc(C(=O)N=c4ccc(Cl)c[n-]4)c3)ccc2OC)C1

>  <Energy>  (17) 
78.27366017066682

>  <Genealogy>  (17) 
CCC(=O)N1CCC([N-]S(=O)(=O)c2cc(C(=O)NCc3cccc(C(=O)N=c4ccc(Cl)c[n-]4)c3)ccc2OC)C1 (protonated)
CCC(=O)N1CC[C@@H]([N-]S(=O)(=O)c2cc(C(=O)NCc3cccc(C(=O)N=c4ccc(Cl)c[n-]4)c3)ccc2OC)C1 (chirality)
CCC(=O)N1CC[C@@H]([N-]S(=O)(=O)c2cc(C(=O)NCc3cccc(C(=O)N=c4ccc(Cl)c[n-]4)c3)ccc2OC)C1 (3D coordinates assigned)
CCC(=O)N1CC[C@@H]([N-]S(=O)(=O)c2cc(C(=O)NCc3cccc(C(=O)N=c4ccc(Cl)c[n-]4)c3)ccc2OC)C1 (nonaromatic ring conformer: 78.27366017066682 kcal/mol)

>  <smiles>  (17) 
CCC(=O)N1CCC(NS(=O)(=O)c2cc(C(=O)NCc3cccc(C(=O)N=c4ccc(Cl)c[nH]4)c3)ccc2OC)C1

>  <score_type>  (17) 
oracle

>  <origin>  (17) 
adg

>  <m_score__min__energy>  (17) 
-12.83

>  <m_primary>  (17) 
energy

$$$$
17:0
     RDKit          3D

 75 78  0  0  0  0  0  0  0  0999 V2000
   56.5000   29.7070   45.8700 O   0  0  0  0  0  0  0  0  0  0  0  0
   56.4580   28.6780   45.1370 C   0  0  0  0  0  0  0  0  0  0  0  0
   55.8560   27.4670   45.6210 N   0  0  0  0  0  0  0  0  0  0  0  0
   56.5520   26.4630   46.4200 C   0  0  0  0  0  0  0  0  0  0  0  0
   57.9130   27.0400   46.8740 C   0  0  0  0  0  0  0  0  0  0  0  0
   58.9240   25.9280   47.1810 C   0  0  0  0  0  0  0  0  0  0  0  0
   59.2170   25.0580   45.9400 C   0  0  0  0  0  0  0  0  0  0  0  0
   58.0590   25.0250   44.9240 C   0  0  0  0  0  0  0  0  0  0  0  0
   56.6970   25.1390   45.6190 C   0  0  0  0  0  0  0  0  0  0  0  0
   57.0190   28.7360   43.7380 C   0  0  0  0  0  0  0  0  0  0  0  0
   58.5630   28.7800   43.7670 C   0  0  0  0  0  0  0  0  0  0  0  0
   59.0830   30.1080   44.3520 C   0  0  0  0  0  0  0  0  0  0  0  0
   58.2410   31.2450   43.9460 N   0  0  0  0  0  0  0  0  0  0  0  0
   58.1850   32.4470   44.7470 C   0  0  0  0  0  0  0  0  0  0  0  0
   57.2440   33.2730   44.5680 O   0  0  0  0  0  0  0  0  0  0  0  0
   59.1900   32.7270   45.7390 N   0  0  0  0  0  0  0  0  0  0  0  0
   59.0790   33.8370   46.6800 C   0  0  0  0  0  0  0  0  0  0  0  0
   59.3680   33.4320   48.1070 C   0  0  0  0  0  0  0  0  0  0  0  0
   59.2850   34.3280   48.9970 O   0  0  0  0  0  0  0  0  0  0  0  0
   59.9120   32.1420   48.4660 N   0  0  0  0  0  0  0  0  0  0  0  0
   59.3310   30.8960   47.9490 C   0  0  0  0  0  0  0  0  0  0  0  0
   59.5710   29.7160   48.9070 C   0  0  0  0  0  0  0  0  0  0  0  0
   59.7410   30.1640   50.3080 N   0  0  0  0  0  0  0  0  0  0  0  0
   58.5180   30.8100   50.8920 C   0  0  0  0  0  0  0  0  0  0  0  0
   57.8190   29.8150   51.8620 C   0  0  0  0  0  0  0  0  0  0  0  0
   56.6110   30.4370   52.5740 C   0  0  0  0  0  0  0  0  0  0  0  0
   57.0180   31.6870   53.3480 C   0  0  0  0  0  0  0  0  0  0  0  0
   57.6390   32.7110   52.3980 C   0  0  0  0  0  0  0  0  0  0  0  0
   58.8500   32.1250   51.6560 C   0  0  0  0  0  0  0  0  0  0  0  0
   61.0010   30.9470   50.3860 C   0  0  0  0  0  0  0  0  0  0  0  0
   61.0880   32.0880   49.3480 C   0  0  0  0  0  0  0  0  0  0  0  0
   57.3870   31.0970   42.7580 C   0  0  0  0  0  0  0  0  0  0  0  0
   56.4150   29.9180   42.9300 C   0  0  0  0  0  0  0  0  0  0  0  0
   55.9703   26.2181   47.3209 H   0  0  0  0  0  0  0  0  0  0  0  0
   58.3156   27.6772   46.0728 H   0  0  0  0  0  0  0  0  0  0  0  0
   57.7506   27.6208   47.7940 H   0  0  0  0  0  0  0  0  0  0  0  0
   59.8634   26.3862   47.5240 H   0  0  0  0  0  0  0  0  0  0  0  0
   58.4924   25.2797   47.9577 H   0  0  0  0  0  0  0  0  0  0  0  0
   60.1097   25.4583   45.4373 H   0  0  0  0  0  0  0  0  0  0  0  0
   59.3646   24.0275   46.2953 H   0  0  0  0  0  0  0  0  0  0  0  0
   58.1742   25.8654   44.2236 H   0  0  0  0  0  0  0  0  0  0  0  0
   58.0949   24.0631   44.3915 H   0  0  0  0  0  0  0  0  0  0  0  0
   55.9060   25.0990   44.8556 H   0  0  0  0  0  0  0  0  0  0  0  0
   56.6116   24.3044   46.3305 H   0  0  0  0  0  0  0  0  0  0  0  0
   56.7257   27.8141   43.2145 H   0  0  0  0  0  0  0  0  0  0  0  0
   58.9321   27.9488   44.3858 H   0  0  0  0  0  0  0  0  0  0  0  0
   58.9287   28.6934   42.7332 H   0  0  0  0  0  0  0  0  0  0  0  0
   59.0840   30.0385   45.4498 H   0  0  0  0  0  0  0  0  0  0  0  0
   60.0998   30.2784   43.9685 H   0  0  0  0  0  0  0  0  0  0  0  0
   60.0410   32.1190   45.8100 H   0  0  0  0  0  0  0  0  0  0  0  0
   59.7945   34.6190   46.3857 H   0  0  0  0  0  0  0  0  0  0  0  0
   58.0401   34.1966   46.6438 H   0  0  0  0  0  0  0  0  0  0  0  0
   58.2476   31.0349   47.8189 H   0  0  0  0  0  0  0  0  0  0  0  0
   59.8165   30.6633   46.9898 H   0  0  0  0  0  0  0  0  0  0  0  0
   58.7089   29.0348   48.8542 H   0  0  0  0  0  0  0  0  0  0  0  0
   60.4975   29.2104   48.5974 H   0  0  0  0  0  0  0  0  0  0  0  0
   57.8515   31.0694   50.0562 H   0  0  0  0  0  0  0  0  0  0  0  0
   57.4777   28.9422   51.2860 H   0  0  0  0  0  0  0  0  0  0  0  0
   58.5506   29.5310   52.6328 H   0  0  0  0  0  0  0  0  0  0  0  0
   55.8524   30.7084   51.8252 H   0  0  0  0  0  0  0  0  0  0  0  0
   56.2050   29.7013   53.2839 H   0  0  0  0  0  0  0  0  0  0  0  0
   56.1293   32.1252   53.8256 H   0  0  0  0  0  0  0  0  0  0  0  0
   57.7565   31.4120   54.1154 H   0  0  0  0  0  0  0  0  0  0  0  0
   56.8830   33.0201   51.6611 H   0  0  0  0  0  0  0  0  0  0  0  0
   57.9802   33.5718   52.9918 H   0  0  0  0  0  0  0  0  0  0  0  0
   59.2109   32.8697   50.9313 H   0  0  0  0  0  0  0  0  0  0  0  0
   59.6126   31.8830   52.4109 H   0  0  0  0  0  0  0  0  0  0  0  0
   61.0754   31.3860   51.3918 H   0  0  0  0  0  0  0  0  0  0  0  0
   61.8256   30.2518   50.1697 H   0  0  0  0  0  0  0  0  0  0  0  0
   61.1711   33.0454   49.8832 H   0  0  0  0  0  0  0  0  0  0  0  0
   61.9688   31.8977   48.7172 H   0  0  0  0  0  0  0  0  0  0  0  0
   56.8101   32.0219   42.6107 H   0  0  0  0  0  0  0  0  0  0  0  0
   58.0270   30.9028   41.8847 H   0  0  0  0  0  0  0  0  0  0  0  0
   55.5186   30.2784   43.4559 H   0  0  0  0  0  0  0  0  0  0  0  0
   56.1813   29.5391   41.9241 H   0  0  0  0  0  0  0  0  0  0  0  0
  1  2  2  0
  2  3  1  0
  3  4  1  0
  4  5  1  0
  5  6  1  0
  6  7  1  0
  7  8  1  0
  8  9  1  0
  2 10  1  0
 10 11  1  0
 11 12  1  0
 12 13  1  0
 13 14  1  0
 14 15  2  0
 14 16  1  0
 16 17  1  0
 17 18  1  0
 18 19  2  0
 18 20  1  0
 20 21  1  0
 21 22  1  0
 22 23  1  0
 23 24  1  0
 24 25  1  0
 25 26  1  0
 26 27  1  0
 27 28  1  0
 28 29  1  0
 23 30  1  0
 30 31  1  0
 13 32  1  0
 32 33  1  0
  9  4  1  0
 33 10  1  0
 31 20  1  0
 29 24  1  0
  4 34  1  0
  5 35  1  0
  5 36  1  0
  6 37  1  0
  6 38  1  0
  7 39  1  0
  7 40  1  0
  8 41  1  0
  8 42  1  0
  9 43  1  0
  9 44  1  0
 10 45  1  0
 11 46  1  0
 11 47  1  0
 12 48  1  0
 12 49  1  0
 16 50  1  0
 17 51  1  0
 17 52  1  0
 21 53  1  0
 21 54  1  0
 22 55  1  0
 22 56  1  0
 24 57  1  0
 25 58  1  0
 25 59  1  0
 26 60  1  0
 26 61  1  0
 27 62  1  0
 27 63  1  0
 28 64  1  0
 28 65  1  0
 29 66  1  0
 29 67  1  0
 30 68  1  0
 30 69  1  0
 31 70  1  0
 31 71  1  0
 32 72  1  0
 32 73  1  0
 33 74  1  0
 33 75  1  0
M  CHG  1   3  -1
M  END
>  <UniqueID>  (18) 
18

>  <SMILES>  (18) 
O=C([N-]C1CCCCC1)C1CCN(C(=O)NCC(=O)N2CCN(C3CCCCC3)CC2)CC1

>  <Energy>  (18) 
88.95562565211621

>  <Genealogy>  (18) 
O=C([N-]C1CCCCC1)C1CCN(C(=O)NCC(=O)N2CCN(C3CCCCC3)CC2)CC1 (protonated)
O=C([N-]C1CCCCC1)C1CCN(C(=O)NCC(=O)N2CCN(C3CCCCC3)CC2)CC1 (3D coordinates assigned)
O=C([N-]C1CCCCC1)C1CCN(C(=O)NCC(=O)N2CCN(C3CCCCC3)CC2)CC1 (nonaromatic ring conformer: 88.95562565211621 kcal/mol)

>  <smiles>  (18) 
O=C(NC1CCCCC1)C1CCN(C(=O)NCC(=O)N2CCN(C3CCCCC3)CC2)CC1

>  <score_type>  (18) 
oracle

>  <origin>  (18) 
adg

>  <m_score__min__energy>  (18) 
-11.380000000000001

>  <m_primary>  (18) 
energy

$$$$
18:0
     RDKit          3D

 15 15  0  0  0  0  0  0  0  0999 V2000
   50.2910   32.3590   49.3170 O   0  0  0  0  0  0  0  0  0  0  0  0
   50.9370   31.2770   49.3010 C   0  0  0  0  0  0  0  0  0  0  0  0
   50.6470   30.3180   48.3400 O   0  0  0  0  0  0  0  0  0  0  0  0
   52.0440   31.0490   50.2790 C   0  0  0  0  0  0  0  0  0  0  0  0
   51.4970   31.0120   51.6860 C   0  0  0  0  0  0  0  0  0  0  0  0
   51.0870   32.1900   52.3340 C   0  0  0  0  0  0  0  0  0  0  0  0
   51.1980   33.4240   51.7050 O   0  0  0  0  0  0  0  0  0  0  0  0
   50.5730   32.1310   53.5900 N   0  0  0  0  0  0  0  0  0  0  0  0
   50.4350   30.9460   54.2370 C   0  0  0  0  0  0  0  0  0  0  0  0
   49.9590   30.9180   55.4010 O   0  0  0  0  0  0  0  0  0  0  0  0
   50.8090   29.7920   53.6290 N   0  0  0  0  0  0  0  0  0  0  0  0
   51.3290   29.7960   52.3740 C   0  0  0  0  0  0  0  0  0  0  0  0
   51.6540   28.7020   51.8400 O   0  0  0  0  0  0  0  0  0  0  0  0
   52.5354   30.0907   50.0548 H   0  0  0  0  0  0  0  0  0  0  0  0
   52.7701   31.8713   50.1976 H   0  0  0  0  0  0  0  0  0  0  0  0
  1  2  2  0
  2  3  1  0
  2  4  1  0
  4  5  1  0
  5  6  2  0
  6  7  1  0
  6  8  1  0
  8  9  1  0
  9 10  2  0
  9 11  1  0
 11 12  1  0
 12 13  2  0
 12  5  1  0
  4 14  1  0
  4 15  1  0
M  CHG  4   3  -1   7  -1   8  -1  11  -1
M  END
>  <UniqueID>  (19) 
19

>  <SMILES>  (19) 
O=C([O-])Cc1c([O-])[n-]c(=O)[n-]c1=O

>  <Energy>  (19) 
14.944520939938549

>  <Genealogy>  (19) 
O=C([O-])Cc1c([O-])[n-]c(=O)[n-]c1=O (protonated)
O=C([O-])Cc1c([O-])[n-]c(=O)[n-]c1=O (3D coordinates assigned)
O=C([O-])Cc1c([O-])[n-]c(=O)[n-]c1=O (optimized conformer: 14.944520939938549 kcal/mol)

>  <smiles>  (19) 
O=C(O)Cc1c(O)[nH]c(=O)[nH]c1=O

>  <score_type>  (19) 
oracle

>  <origin>  (19) 
adg

>  <m_score__min__energy>  (19) 
-14.789999999999999

>  <m_primary>  (19) 
energy

$$$$
19:0
     RDKit          3D

 52 55  0  0  0  0  0  0  0  0999 V2000
   66.5990   33.0310   49.1580 H   0  0  0  0  0  0  0  0  0  0  0  0
   66.1220   33.3020   49.9860 O   0  0  0  0  0  0  0  0  0  0  0  0
   64.7570   33.0660   49.7620 C   0  0  2  0  0  0  0  0  0  0  0  0
   64.5467   31.9939   49.8901 H   0  0  0  0  0  0  0  0  0  0  0  0
   64.3990   33.4920   48.3370 C   0  0  0  0  0  0  0  0  0  0  0  0
   64.9390   32.8535   47.6224 H   0  0  0  0  0  0  0  0  0  0  0  0
   64.6861   34.5449   48.1990 H   0  0  0  0  0  0  0  0  0  0  0  0
   62.8890   33.3550   48.0950 C   0  0  0  0  0  0  0  0  0  0  0  0
   62.6074   32.2955   48.1851 H   0  0  0  0  0  0  0  0  0  0  0  0
   62.6654   33.7358   47.0875 H   0  0  0  0  0  0  0  0  0  0  0  0
   62.1060   34.1470   49.0760 N   0  0  1  0  0  0  0  0  0  0  0  0
   62.3690   35.1560   48.9730 H   0  0  0  0  0  0  0  0  0  0  0  0
   60.6690   34.0600   48.8530 C   0  0  0  0  0  0  0  0  0  0  0  0
   59.9120   34.9620   49.3070 O   0  0  0  0  0  0  0  0  0  0  0  0
   60.0450   32.9950   48.0430 C   0  0  0  0  0  0  0  0  0  0  0  0
   60.0200   33.0980   46.6460 C   0  0  0  0  0  0  0  0  0  0  0  0
   60.4719   33.9707   46.1518 H   0  0  0  0  0  0  0  0  0  0  0  0
   59.4220   32.0940   45.8790 C   0  0  0  0  0  0  0  0  0  0  0  0
   59.3970   32.1831   44.7829 H   0  0  0  0  0  0  0  0  0  0  0  0
   58.8530   30.9720   46.5030 C   0  0  0  0  0  0  0  0  0  0  0  0
   58.2220   29.9470   45.7160 N   0  0  0  0  0  0  0  0  0  0  0  0
   57.3010   30.1520   44.7470 C   0  0  0  0  0  0  0  0  0  0  0  0
   56.7820   31.4940   44.3250 C   0  0  0  0  0  0  0  0  0  0  0  0
   56.5498   32.0944   45.2170 H   0  0  0  0  0  0  0  0  0  0  0  0
   57.5454   32.0100   43.7242 H   0  0  0  0  0  0  0  0  0  0  0  0
   55.8700   31.3621   43.7242 H   0  0  0  0  0  0  0  0  0  0  0  0
   56.9000   28.9500   44.2010 C   0  0  0  0  0  0  0  0  0  0  0  0
   56.1602   28.8074   43.3995 H   0  0  0  0  0  0  0  0  0  0  0  0
   57.6110   27.9550   44.8590 C   0  0  0  0  0  0  0  0  0  0  0  0
   57.5520   26.6320   44.6130 C   0  0  0  0  0  0  0  0  0  0  0  0
   57.9756   26.2635   43.6671 H   0  0  0  0  0  0  0  0  0  0  0  0
   56.9550   25.6480   45.5330 C   0  0  0  0  0  0  0  0  0  0  0  0
   57.6250   24.5840   46.0100 N   0  0  0  0  0  0  0  0  0  0  0  0
   56.7510   24.0260   46.8750 C   0  0  0  0  0  0  0  0  0  0  0  0
   57.0140   22.9810   47.5260 O   0  0  0  0  0  0  0  0  0  0  0  0
   55.5770   24.6810   46.9990 N   0  0  0  0  0  0  0  0  0  0  0  0
   55.7250   25.7130   46.1520 C   0  0  0  0  0  0  0  0  0  0  0  0
   54.7780   26.7150   45.9910 O   0  0  0  0  0  0  0  0  0  0  0  0
   58.4280   28.6080   45.7900 C   0  0  0  0  0  0  0  0  0  0  0  0
   59.2580   28.0230   46.6670 C   0  0  0  0  0  0  0  0  0  0  0  0
   59.8549   28.6398   47.3549 H   0  0  0  0  0  0  0  0  0  0  0  0
   59.3415   26.9266   46.6981 H   0  0  0  0  0  0  0  0  0  0  0  0
   58.8910   30.8660   47.9010 C   0  0  0  0  0  0  0  0  0  0  0  0
   58.4489   29.9887   48.3959 H   0  0  0  0  0  0  0  0  0  0  0  0
   59.4880   31.8700   48.6680 C   0  0  0  0  0  0  0  0  0  0  0  0
   59.5211   31.7777   49.7636 H   0  0  0  0  0  0  0  0  0  0  0  0
   62.4180   33.7090   50.4570 C   0  0  0  0  0  0  0  0  0  0  0  0
   62.1318   32.6529   50.5704 H   0  0  0  0  0  0  0  0  0  0  0  0
   61.8548   34.3443   51.1564 H   0  0  0  0  0  0  0  0  0  0  0  0
   63.9140   33.8570   50.7690 C   0  0  0  0  0  0  0  0  0  0  0  0
   64.1111   33.4772   51.7824 H   0  0  0  0  0  0  0  0  0  0  0  0
   64.1865   34.9205   50.7010 H   0  0  0  0  0  0  0  0  0  0  0  0
  1  2  1  0
  2  3  1  0
  3  4  1  6
  3  5  1  0
  5  6  1  0
  5  7  1  0
  5  8  1  0
  8  9  1  0
  8 10  1  0
  8 11  1  0
 11 12  1  1
 11 13  1  0
 13 14  2  0
 13 15  1  0
 15 16  2  0
 16 17  1  0
 16 18  1  0
 18 19  1  0
 18 20  2  0
 20 21  1  0
 21 22  1  0
 22 23  1  0
 23 24  1  0
 23 25  1  0
 23 26  1  0
 22 27  2  0
 27 28  1  0
 27 29  1  0
 29 30  2  0
 30 31  1  0
 30 32  1  0
 32 33  1  0
 33 34  1  0
 34 35  2  0
 34 36  1  0
 36 37  1  0
 37 38  1  0
 29 39  1  0
 39 40  2  0
 40 41  1  0
 40 42  1  0
 20 43  1  0
 43 44  1  0
 43 45  2  0
 45 46  1  0
 11 47  1  0
 47 48  1  0
 47 49  1  0
 47 50  1  0
 50 51  1  0
 50 52  1  0
 50  3  1  0
 45 15  1  0
 39 21  1  0
 37 32  2  0
M  CHG  4  11   1  33  -1  36  -1  38  -1
M  END
>  <UniqueID>  (20) 
20

>  <SMILES>  (20) 
C=c1/c(=C/c2[n-]c(=O)[n-]c2[O-])cc(C)n1-c1ccc(C(=O)[NH+]2CCC(O)CC2)cc1

>  <Energy>  (20) 
135.19122546990948

>  <Genealogy>  (20) 
C=c1c(=Cc2[n-]c(=O)[n-]c2[O-])cc(C)n1-c1ccc(C(=O)[NH+]2CCC(O)CC2)cc1 (protonated)
C=c1/c(=C/c2[n-]c(=O)[n-]c2[O-])cc(C)n1-c1ccc(C(=O)[NH+]2CCC(O)CC2)cc1 (cis-trans isomerization)
C=c1/c(=C/c2[n-]c(=O)[n-]c2[O-])cc(C)n1-c1ccc(C(=O)[NH+]2CCC(O)CC2)cc1 (3D coordinates assigned)
C=c1/c(=C/c2[n-]c(=O)[n-]c2[O-])cc(C)n1-c1ccc(C(=O)[NH+]2CCC(O)CC2)cc1 (nonaromatic ring conformer: 135.19122546990948 kcal/mol)

>  <smiles>  (20) 
C=c1c(=Cc2[nH]c(=O)[nH]c2O)cc(C)n1-c1ccc(C(=O)N2CCC(O)CC2)cc1

>  <score_type>  (20) 
oracle

>  <origin>  (20) 
adg

>  <m_score__min__energy>  (20) 
-14.699999999999999

>  <m_primary>  (20) 
energy

$$$$
20:0
     RDKit          3D

 40 43  0  0  0  0  0  0  0  0999 V2000
   58.5370   29.4610   46.9890 C   0  0  0  0  0  0  0  0  0  0  0  0
   58.0820   29.9590   45.8270 C   0  0  0  0  0  0  0  0  0  0  0  0
   57.4700   29.2530   44.7780 C   0  0  0  0  0  0  0  0  0  0  0  0
   57.0290   27.9810   44.7030 C   0  0  0  0  0  0  0  0  0  0  0  0
   57.1870   26.9540   45.7520 C   0  0  0  0  0  0  0  0  0  0  0  0
   56.0710   26.3380   46.3430 C   0  0  0  0  0  0  0  0  0  0  0  0
   54.7800   26.7070   45.9810 O   0  0  0  0  0  0  0  0  0  0  0  0
   56.2490   25.3670   47.2750 N   0  0  0  0  0  0  0  0  0  0  0  0
   57.4930   24.9620   47.6380 C   0  0  0  0  0  0  0  0  0  0  0  0
   57.6330   24.0630   48.5060 O   0  0  0  0  0  0  0  0  0  0  0  0
   58.5860   25.5230   47.0590 N   0  0  0  0  0  0  0  0  0  0  0  0
   58.4610   26.4990   46.1230 C   0  0  0  0  0  0  0  0  0  0  0  0
   59.4970   26.9920   45.6010 O   0  0  0  0  0  0  0  0  0  0  0  0
   57.3610   30.1440   43.7230 C   0  0  0  0  0  0  0  0  0  0  0  0
   57.8430   31.3560   44.1700 C   0  0  0  0  0  0  0  0  0  0  0  0
   57.8980   32.6060   43.3440 C   0  0  0  0  0  0  0  0  0  0  0  0
   58.2830   31.2470   45.4430 N   0  0  0  0  0  0  0  0  0  0  0  0
   58.8690   32.3060   46.2220 C   0  0  0  0  0  0  0  0  0  0  0  0
   58.1030   33.4250   46.5770 C   0  0  0  0  0  0  0  0  0  0  0  0
   58.6730   34.4570   47.3240 C   0  0  0  0  0  0  0  0  0  0  0  0
   60.0100   34.3820   47.7210 C   0  0  0  0  0  0  0  0  0  0  0  0
   60.7930   33.2670   47.3740 C   0  0  0  0  0  0  0  0  0  0  0  0
   62.2090   33.1850   47.7920 C   0  0  0  0  0  0  0  0  0  0  0  0
   62.6280   32.5560   48.9100 N   0  0  0  0  0  0  0  0  0  0  0  0
   63.9590   32.7490   48.8600 C   0  0  0  0  0  0  0  0  0  0  0  0
   64.3320   33.4530   47.7760 N   0  0  0  0  0  0  0  0  0  0  0  0
   63.2290   33.7290   47.1030 N   0  0  0  0  0  0  0  0  0  0  0  0
   60.2120   32.2300   46.6210 C   0  0  0  0  0  0  0  0  0  0  0  0
   58.9991   30.1294   47.7305 H   0  0  0  0  0  0  0  0  0  0  0  0
   58.4474   28.3849   47.1989 H   0  0  0  0  0  0  0  0  0  0  0  0
   56.5070   27.6830   43.7817 H   0  0  0  0  0  0  0  0  0  0  0  0
   56.9654   29.9262   42.7200 H   0  0  0  0  0  0  0  0  0  0  0  0
   57.9366   33.4825   44.0075 H   0  0  0  0  0  0  0  0  0  0  0  0
   58.7962   32.5868   42.7092 H   0  0  0  0  0  0  0  0  0  0  0  0
   57.0016   32.6658   42.7092 H   0  0  0  0  0  0  0  0  0  0  0  0
   57.0499   33.4899   46.2660 H   0  0  0  0  0  0  0  0  0  0  0  0
   58.0672   35.3324   47.6010 H   0  0  0  0  0  0  0  0  0  0  0  0
   60.4528   35.1998   48.3084 H   0  0  0  0  0  0  0  0  0  0  0  0
   64.6616   32.3740   49.6188 H   0  0  0  0  0  0  0  0  0  0  0  0
   60.8152   31.3532   46.3431 H   0  0  0  0  0  0  0  0  0  0  0  0
  1  2  2  0
  2  3  1  0
  3  4  2  3
  4  5  1  0
  5  6  2  0
  6  7  1  0
  6  8  1  0
  8  9  1  0
  9 10  2  0
  9 11  1  0
 11 12  1  0
 12 13  2  0
  3 14  1  0
 14 15  2  0
 15 16  1  0
 15 17  1  0
 17 18  1  0
 18 19  2  0
 19 20  1  0
 20 21  2  0
 21 22  1  0
 22 23  1  0
 23 24  1  0
 24 25  2  0
 25 26  1  0
 26 27  1  0
 22 28  2  0
 17  2  1  0
 28 18  1  0
 12  5  1  0
 27 23  2  0
  1 29  1  0
  1 30  1  0
  4 31  1  0
 14 32  1  0
 16 33  1  0
 16 34  1  0
 16 35  1  0
 19 36  1  0
 20 37  1  0
 21 38  1  0
 25 39  1  0
 28 40  1  0
M  CHG  4   7  -1   8  -1  11  -1  26  -1
M  END
>  <UniqueID>  (21) 
21

>  <SMILES>  (21) 
C=c1c(=Cc2c([O-])[n-]c(=O)[n-]c2=O)cc(C)n1-c1cccc(-c2nc[n-]n2)c1

>  <Energy>  (21) 
125.87223656718791

>  <Genealogy>  (21) 
C=c1c(=Cc2c([O-])[n-]c(=O)[n-]c2=O)cc(C)n1-c1cccc(-c2nc[n-]n2)c1 (protonated)
C=c1c(=Cc2c([O-])[n-]c(=O)[n-]c2=O)cc(C)n1-c1cccc(-c2nc[n-]n2)c1 (3D coordinates assigned)
C=c1c(=Cc2c([O-])[n-]c(=O)[n-]c2=O)cc(C)n1-c1cccc(-c2nc[n-]n2)c1 (optimized conformer: 125.87223656718791 kcal/mol)

>  <smiles>  (21) 
C=c1c(=Cc2c(O)[nH]c(=O)[nH]c2=O)cc(C)n1-c1cccc(-c2nc[nH]n2)c1

>  <score_type>  (21) 
oracle

>  <origin>  (21) 
adg

>  <m_score__min__energy>  (21) 
-16.579999999999998

>  <m_primary>  (21) 
energy

$$$$
21:0
     RDKit          3D

 45 47  0  0  0  0  0  0  0  0999 V2000
   59.3330   27.3600   47.7750 C   0  0  0  0  0  0  0  0  0  0  0  0
   58.2060   27.3380   47.0560 C   0  0  0  0  0  0  0  0  0  0  0  0
   57.3980   26.2500   47.1430 N   0  0  0  0  0  0  0  0  0  0  0  0
   56.2510   26.1630   46.4260 C   0  0  0  0  0  0  0  0  0  0  0  0
   55.5310   25.1360   46.5160 O   0  0  0  0  0  0  0  0  0  0  0  0
   55.8790   27.1840   45.6140 N   0  0  0  0  0  0  0  0  0  0  0  0
   56.6200   28.3190   45.4900 C   0  0  0  0  0  0  0  0  0  0  0  0
   56.1410   29.2770   44.6690 C   0  0  0  0  0  0  0  0  0  0  0  0
   56.8410   30.5060   44.2480 C   0  0  0  0  0  0  0  0  0  0  0  0
   57.0870   30.8650   42.9360 C   0  0  0  0  0  0  0  0  0  0  0  0
   57.7080   32.0950   42.9920 C   0  0  0  0  0  0  0  0  0  0  0  0
   57.7840   32.4110   44.3330 C   0  0  0  0  0  0  0  0  0  0  0  0
   58.4870   33.8740   45.0020 S   0  0  0  0  0  0  0  0  0  0  0  0
   57.4360   34.9470   45.0410 O   0  0  0  0  0  0  0  0  0  0  0  0
   59.6050   34.3360   44.1080 O   0  0  0  0  0  0  0  0  0  0  0  0
   59.1140   33.5970   46.6090 N   0  0  0  0  0  0  0  0  0  0  0  0
   58.1570   32.8010   47.4040 C   0  0  0  0  0  0  0  0  0  0  0  0
   58.8560   32.1220   48.5860 C   0  0  0  0  0  0  0  0  0  0  0  0
   59.8650   31.1400   48.1140 N   0  0  0  0  0  0  0  0  0  0  0  0
   60.8240   30.7630   49.1840 C   0  0  0  0  0  0  0  0  0  0  0  0
   62.2630   31.2660   48.9720 C   0  0  0  0  0  0  0  0  0  0  0  0
   60.5210   31.5180   46.8310 C   0  0  0  0  0  0  0  0  0  0  0  0
   60.4870   33.0360   46.5700 C   0  0  0  0  0  0  0  0  0  0  0  0
   57.2540   31.4540   45.0580 O   0  0  0  0  0  0  0  0  0  0  0  0
   57.8460   28.4030   46.2000 C   0  0  0  0  0  0  0  0  0  0  0  0
   58.6340   29.3740   46.0420 O   0  0  0  0  0  0  0  0  0  0  0  0
   60.0031   28.2306   47.7207 H   0  0  0  0  0  0  0  0  0  0  0  0
   59.5901   26.5075   48.4209 H   0  0  0  0  0  0  0  0  0  0  0  0
   55.1257   29.1265   44.2735 H   0  0  0  0  0  0  0  0  0  0  0  0
   56.8385   30.2882   42.0330 H   0  0  0  0  0  0  0  0  0  0  0  0
   58.0675   32.6979   42.1451 H   0  0  0  0  0  0  0  0  0  0  0  0
   57.3673   33.4646   47.7861 H   0  0  0  0  0  0  0  0  0  0  0  0
   57.7266   32.0223   46.7571 H   0  0  0  0  0  0  0  0  0  0  0  0
   59.3572   32.8880   49.1960 H   0  0  0  0  0  0  0  0  0  0  0  0
   58.1000   31.5894   49.1817 H   0  0  0  0  0  0  0  0  0  0  0  0
   59.3290   30.2610   47.9140 H   0  0  0  0  0  0  0  0  0  0  0  0
   60.4546   31.1753   50.1346 H   0  0  0  0  0  0  0  0  0  0  0  0
   60.8774   29.6643   49.1770 H   0  0  0  0  0  0  0  0  0  0  0  0
   62.7407   31.4330   49.9487 H   0  0  0  0  0  0  0  0  0  0  0  0
   62.8348   30.5144   48.4079 H   0  0  0  0  0  0  0  0  0  0  0  0
   62.2420   32.2101   48.4079 H   0  0  0  0  0  0  0  0  0  0  0  0
   61.5704   31.1898   46.8624 H   0  0  0  0  0  0  0  0  0  0  0  0
   59.9657   31.0286   46.0173 H   0  0  0  0  0  0  0  0  0  0  0  0
   61.0934   33.5381   47.3382 H   0  0  0  0  0  0  0  0  0  0  0  0
   60.8851   33.2065   45.5588 H   0  0  0  0  0  0  0  0  0  0  0  0
  1  2  2  0
  2  3  1  0
  3  4  1  0
  4  5  2  0
  4  6  1  0
  6  7  1  0
  7  8  2  3
  8  9  1  0
  9 10  2  0
 10 11  1  0
 11 12  2  0
 12 13  1  0
 13 14  2  0
 13 15  2  0
 13 16  1  0
 16 17  1  0
 17 18  1  0
 18 19  1  0
 19 20  1  0
 20 21  1  0
 19 22  1  0
 22 23  1  0
 12 24  1  0
  7 25  1  0
 25 26  2  0
 25  2  1  0
 24  9  1  0
 23 16  1  0
  1 27  1  0
  1 28  1  0
  8 29  1  0
 10 30  1  0
 11 31  1  0
 17 32  1  0
 17 33  1  0
 18 34  1  0
 18 35  1  0
 19 36  1  0
 20 37  1  0
 20 38  1  0
 21 39  1  0
 21 40  1  0
 21 41  1  0
 22 42  1  0
 22 43  1  0
 23 44  1  0
 23 45  1  0
M  CHG  3   3  -1   6  -1  19   1
M  END
>  <UniqueID>  (22) 
22

>  <SMILES>  (22) 
C=c1[n-]c(=O)[n-]c(=Cc2ccc(S(=O)(=O)N3CC[NH+](CC)CC3)o2)c1=O

>  <Energy>  (22) 
95.19798934421192

>  <Genealogy>  (22) 
C=c1[n-]c(=O)[n-]c(=Cc2ccc(S(=O)(=O)N3CC[NH+](CC)CC3)o2)c1=O (protonated)
C=c1[n-]c(=O)[n-]c(=Cc2ccc(S(=O)(=O)N3CC[NH+](CC)CC3)o2)c1=O (3D coordinates assigned)
C=c1[n-]c(=O)[n-]c(=Cc2ccc(S(=O)(=O)N3CC[NH+](CC)CC3)o2)c1=O (nonaromatic ring conformer: 95.19798934421192 kcal/mol)

>  <smiles>  (22) 
C=c1[nH]c(=O)[nH]c(=Cc2ccc(S(=O)(=O)N3CCN(CC)CC3)o2)c1=O

>  <score_type>  (22) 
oracle

>  <origin>  (22) 
adg

>  <m_score__min__energy>  (22) 
-10.720000000000001

>  <m_primary>  (22) 
energy

$$$$
22:0
     RDKit          3D

 59 62  0  0  0  0  0  0  0  0999 V2000
   60.7230   31.2010   46.6760 C   0  0  0  0  0  0  0  0  0  0  0  0
   59.4530   31.7040   46.0610 C   0  0  0  0  0  0  0  0  0  0  0  0
   58.6540   30.8260   45.3950 N   0  0  0  0  0  0  0  0  0  0  0  0
   57.4970   31.2110   44.7940 C   0  0  0  0  0  0  0  0  0  0  0  0
   56.5030   30.0220   43.9690 S   0  0  0  0  0  0  0  0  0  0  0  0
   57.2870   28.4810   43.9990 N   0  0  0  0  0  0  0  0  0  0  0  0
   56.2960   30.4460   42.5420 O   0  0  0  0  0  0  0  0  0  0  0  0
   55.1650   29.9250   44.6470 O   0  0  0  0  0  0  0  0  0  0  0  0
   57.0990   32.5500   44.8450 C   0  0  0  0  0  0  0  0  0  0  0  0
   57.8900   33.4720   45.5290 C   0  0  0  0  0  0  0  0  0  0  0  0
   59.0610   33.0560   46.1680 C   0  0  0  0  0  0  0  0  0  0  0  0
   59.8200   33.9940   46.8760 O   0  0  0  0  0  0  0  0  0  0  0  0
   60.3970   33.7560   48.1340 C   0  0  0  0  0  0  0  0  0  0  0  0
   59.6230   33.7050   49.3080 C   0  0  0  0  0  0  0  0  0  0  0  0
   60.2300   33.4740   50.5440 C   0  0  0  0  0  0  0  0  0  0  0  0
   61.6210   33.3080   50.6290 C   0  0  0  0  0  0  0  0  0  0  0  0
   62.2690   33.0220   51.9560 C   0  0  0  0  0  0  0  0  0  0  0  0
   61.4130   32.1400   52.7530 N   0  0  0  0  0  0  0  0  0  0  0  0
   60.6640   32.5260   53.8070 C   0  0  0  0  0  0  0  0  0  0  0  0
   59.8100   31.5660   54.2210 N   0  0  0  0  0  0  0  0  0  0  0  0
   60.0290   30.5350   53.3820 C   0  0  0  0  0  0  0  0  0  0  0  0
   61.0140   30.8790   52.4830 C   0  0  0  0  0  0  0  0  0  0  0  0
   61.4880   30.0280   51.3760 C   0  0  0  0  0  0  0  0  0  0  0  0
   62.7220   29.7930   51.2780 O   0  0  0  0  0  0  0  0  0  0  0  0
   60.5820   29.5050   50.3890 N   0  0  0  0  0  0  0  0  0  0  0  0
   59.5060   30.3580   49.8570 C   0  0  0  0  0  0  0  0  0  0  0  0
   58.5210   29.5420   49.0100 C   0  0  0  0  0  0  0  0  0  0  0  0
   59.2390   28.7670   47.8830 C   0  0  0  0  0  0  0  0  0  0  0  0
   58.3430   27.6700   47.3730 C   0  0  0  0  0  0  0  0  0  0  0  0
   57.4320   27.9300   46.5440 O   0  0  0  0  0  0  0  0  0  0  0  0
   58.4970   26.3670   47.8360 O   0  0  0  0  0  0  0  0  0  0  0  0
   60.6230   28.2030   48.3070 C   0  0  0  0  0  0  0  0  0  0  0  0
   60.8000   28.1630   49.8280 C   0  0  0  0  0  0  0  0  0  0  0  0
   62.3930   33.3570   49.4580 C   0  0  0  0  0  0  0  0  0  0  0  0
   61.7850   33.5880   48.2200 C   0  0  0  0  0  0  0  0  0  0  0  0
   62.5660   33.6440   47.0710 O   0  0  0  0  0  0  0  0  0  0  0  0
   60.6380   31.2347   47.7722 H   0  0  0  0  0  0  0  0  0  0  0  0
   60.9010   30.1645   46.3537 H   0  0  0  0  0  0  0  0  0  0  0  0
   61.5625   31.8345   46.3537 H   0  0  0  0  0  0  0  0  0  0  0  0
   58.1360   28.5830   44.5980 H   0  0  0  0  0  0  0  0  0  0  0  0
   56.6470   27.8210   44.4920 H   0  0  0  0  0  0  0  0  0  0  0  0
   56.1710   32.8730   44.3504 H   0  0  0  0  0  0  0  0  0  0  0  0
   57.5914   34.5301   45.5658 H   0  0  0  0  0  0  0  0  0  0  0  0
   58.5338   33.8479   49.2517 H   0  0  0  0  0  0  0  0  0  0  0  0
   59.6155   33.4219   51.4548 H   0  0  0  0  0  0  0  0  0  0  0  0
   63.2402   32.5333   51.7891 H   0  0  0  0  0  0  0  0  0  0  0  0
   62.4151   33.9683   52.4974 H   0  0  0  0  0  0  0  0  0  0  0  0
   60.7411   33.5169   54.2784 H   0  0  0  0  0  0  0  0  0  0  0  0
   59.5032   29.5692   53.4105 H   0  0  0  0  0  0  0  0  0  0  0  0
   58.9632   30.8169   50.6965 H   0  0  0  0  0  0  0  0  0  0  0  0
   59.9574   31.1319   49.2187 H   0  0  0  0  0  0  0  0  0  0  0  0
   58.0016   28.8236   49.6612 H   0  0  0  0  0  0  0  0  0  0  0  0
   57.8095   30.2404   48.5452 H   0  0  0  0  0  0  0  0  0  0  0  0
   59.4447   29.4850   47.0754 H   0  0  0  0  0  0  0  0  0  0  0  0
   60.7228   27.1807   47.9134 H   0  0  0  0  0  0  0  0  0  0  0  0
   61.3953   28.8713   47.8984 H   0  0  0  0  0  0  0  0  0  0  0  0
   60.0715   27.4626   50.2624 H   0  0  0  0  0  0  0  0  0  0  0  0
   61.8209   27.8303   50.0668 H   0  0  0  0  0  0  0  0  0  0  0  0
   63.4821   33.2129   49.5143 H   0  0  0  0  0  0  0  0  0  0  0  0
  1  2  1  0
  2  3  2  0
  3  4  1  0
  4  5  1  0
  5  6  1  0
  5  7  2  0
  5  8  2  0
  4  9  2  0
  9 10  1  0
 10 11  2  0
 11 12  1  0
 12 13  1  0
 13 14  2  0
 14 15  1  0
 15 16  2  0
 16 17  1  0
 17 18  1  0
 18 19  1  0
 19 20  2  0
 20 21  1  0
 21 22  2  0
 22 23  1  0
 23 24  2  0
 23 25  1  0
 25 26  1  0
 26 27  1  0
 27 28  1  0
 28 29  1  0
 29 30  2  0
 29 31  1  0
 28 32  1  0
 32 33  1  0
 16 34  1  0
 34 35  2  0
 35 36  1  0
 11  2  1  0
 35 13  1  0
 22 18  1  0
 33 25  1  0
  1 37  1  0
  1 38  1  0
  1 39  1  0
  6 40  1  0
  6 41  1  0
  9 42  1  0
 10 43  1  0
 14 44  1  0
 15 45  1  0
 17 46  1  0
 17 47  1  0
 19 48  1  0
 21 49  1  0
 26 50  1  0
 26 51  1  0
 27 52  1  0
 27 53  1  0
 28 54  1  0
 32 55  1  0
 32 56  1  0
 33 57  1  0
 33 58  1  0
 34 59  1  0
M  CHG  2  31  -1  36  -1
M  END
>  <UniqueID>  (23) 
23

>  <SMILES>  (23) 
Cc1nc(S(N)(=O)=O)ccc1Oc1ccc(Cn2cncc2C(=O)N2CCC(C(=O)[O-])CC2)cc1[O-]

>  <Energy>  (23) 
103.59727746027043

>  <Genealogy>  (23) 
Cc1nc(S(N)(=O)=O)ccc1Oc1ccc(Cn2cncc2C(=O)N2CCC(C(=O)[O-])CC2)cc1[O-] (protonated)
Cc1nc(S(N)(=O)=O)ccc1Oc1ccc(Cn2cncc2C(=O)N2CCC(C(=O)[O-])CC2)cc1[O-] (3D coordinates assigned)
Cc1nc(S(N)(=O)=O)ccc1Oc1ccc(Cn2cncc2C(=O)N2CCC(C(=O)[O-])CC2)cc1[O-] (nonaromatic ring conformer: 103.59727746027043 kcal/mol)

>  <smiles>  (23) 
Cc1nc(S(N)(=O)=O)ccc1Oc1ccc(Cn2cncc2C(=O)N2CCC(C(=O)O)CC2)cc1O

>  <score_type>  (23) 
oracle

>  <origin>  (23) 
adg

>  <m_score__min__energy>  (23) 
-13.199999999999999

>  <m_primary>  (23) 
energy

$$$$
23:0
     RDKit          3D

 54 57  0  0  0  0  0  0  0  0999 V2000
   56.4900   30.1610   42.6410 C   0  0  0  0  0  0  0  0  0  0  0  0
   55.9340   29.8400   43.9950 C   0  0  0  0  0  0  0  0  0  0  0  0
   54.7850   29.3320   44.0770 O   0  0  0  0  0  0  0  0  0  0  0  0
   56.6840   30.0550   45.1980 N   0  0  0  0  0  0  0  0  0  0  0  0
   57.6020   31.1270   45.4520 C   0  0  0  0  0  0  0  0  0  0  0  0
   57.2940   32.4070   44.9790 C   0  0  0  0  0  0  0  0  0  0  0  0
   58.1740   33.4720   45.1920 C   0  0  0  0  0  0  0  0  0  0  0  0
   59.3820   33.2690   45.8800 C   0  0  0  0  0  0  0  0  0  0  0  0
   60.3370   34.4220   46.1210 C   0  0  0  0  0  0  0  0  0  0  0  0
   60.7340   34.5860   47.5380 N   0  0  0  0  0  0  0  0  0  0  0  0
   59.6360   34.3900   48.5150 C   0  0  0  0  0  0  0  0  0  0  0  0
   59.8000   33.0890   49.3200 C   0  0  0  0  0  0  0  0  0  0  0  0
   61.1060   33.0250   50.0220 N   0  0  0  0  0  0  0  0  0  0  0  0
   61.0140   33.2130   51.4850 C   0  0  0  0  0  0  0  0  0  0  0  0
   59.6370   32.9490   52.0290 C   0  0  0  0  0  0  0  0  0  0  0  0
   58.9940   31.7710   51.9470 N   0  0  0  0  0  0  0  0  0  0  0  0
   57.8120   32.0320   52.5440 C   0  0  0  0  0  0  0  0  0  0  0  0
   56.7070   31.0580   52.7170 C   0  0  0  0  0  0  0  0  0  0  0  0
   55.5150   31.2130   51.9870 C   0  0  0  0  0  0  0  0  0  0  0  0
   54.4650   30.3020   52.1390 C   0  0  0  0  0  0  0  0  0  0  0  0
   54.5940   29.2250   53.0170 C   0  0  0  0  0  0  0  0  0  0  0  0
   55.7720   29.0570   53.7470 C   0  0  0  0  0  0  0  0  0  0  0  0
   56.8250   29.9660   53.6000 C   0  0  0  0  0  0  0  0  0  0  0  0
   57.7530   33.3120   52.9700 N   0  0  0  0  0  0  0  0  0  0  0  0
   58.8930   33.8430   52.6350 O   0  0  0  0  0  0  0  0  0  0  0  0
   62.1820   33.8330   49.4030 C   0  0  0  0  0  0  0  0  0  0  0  0
   62.0030   33.9050   47.8850 C   0  0  0  0  0  0  0  0  0  0  0  0
   59.7160   31.9720   46.3000 C   0  0  0  0  0  0  0  0  0  0  0  0
   58.8340   30.9090   46.0890 C   0  0  0  0  0  0  0  0  0  0  0  0
   57.4376   30.7081   42.7540 H   0  0  0  0  0  0  0  0  0  0  0  0
   56.6693   29.2275   42.0875 H   0  0  0  0  0  0  0  0  0  0  0  0
   55.7712   30.7831   42.0875 H   0  0  0  0  0  0  0  0  0  0  0  0
   56.3527   32.5766   44.4356 H   0  0  0  0  0  0  0  0  0  0  0  0
   57.9192   34.4749   44.8188 H   0  0  0  0  0  0  0  0  0  0  0  0
   61.2451   34.2500   45.5246 H   0  0  0  0  0  0  0  0  0  0  0  0
   59.8079   35.3412   45.8292 H   0  0  0  0  0  0  0  0  0  0  0  0
   59.6271   35.2399   49.2132 H   0  0  0  0  0  0  0  0  0  0  0  0
   58.6923   34.3233   47.9537 H   0  0  0  0  0  0  0  0  0  0  0  0
   58.9936   33.0299   50.0658 H   0  0  0  0  0  0  0  0  0  0  0  0
   59.7546   32.2469   48.6138 H   0  0  0  0  0  0  0  0  0  0  0  0
   61.7204   32.5243   51.9714 H   0  0  0  0  0  0  0  0  0  0  0  0
   61.2533   34.2658   51.6958 H   0  0  0  0  0  0  0  0  0  0  0  0
   59.3450   30.8830   51.5290 H   0  0  0  0  0  0  0  0  0  0  0  0
   55.4077   32.0578   51.2907 H   0  0  0  0  0  0  0  0  0  0  0  0
   53.5357   30.4346   51.5655 H   0  0  0  0  0  0  0  0  0  0  0  0
   53.7676   28.5085   53.1338 H   0  0  0  0  0  0  0  0  0  0  0  0
   55.8724   28.2080   54.4393 H   0  0  0  0  0  0  0  0  0  0  0  0
   57.7511   29.8276   54.1773 H   0  0  0  0  0  0  0  0  0  0  0  0
   62.1526   34.8512   49.8182 H   0  0  0  0  0  0  0  0  0  0  0  0
   63.1497   33.3579   49.6217 H   0  0  0  0  0  0  0  0  0  0  0  0
   62.8437   34.4642   47.4486 H   0  0  0  0  0  0  0  0  0  0  0  0
   61.9756   32.8812   47.4837 H   0  0  0  0  0  0  0  0  0  0  0  0
   60.6794   31.7910   46.7990 H   0  0  0  0  0  0  0  0  0  0  0  0
   59.1061   29.8970   46.4234 H   0  0  0  0  0  0  0  0  0  0  0  0
  1  2  1  0
  2  3  2  0
  2  4  1  0
  4  5  1  0
  5  6  2  0
  6  7  1  0
  7  8  2  0
  8  9  1  0
  9 10  1  0
 10 11  1  0
 11 12  1  0
 12 13  1  0
 13 14  1  0
 14 15  1  0
 15 16  2  0
 16 17  1  0
 17 18  1  0
 18 19  2  0
 19 20  1  0
 20 21  2  0
 21 22  1  0
 22 23  2  0
 17 24  2  0
 24 25  1  0
 13 26  1  0
 26 27  1  0
  8 28  1  0
 28 29  2  0
 29  5  1  0
 27 10  1  0
 25 15  1  0
 23 18  1  0
  1 30  1  0
  1 31  1  0
  1 32  1  0
  6 33  1  0
  7 34  1  0
  9 35  1  0
  9 36  1  0
 11 37  1  0
 11 38  1  0
 12 39  1  0
 12 40  1  0
 14 41  1  0
 14 42  1  0
 16 43  1  0
 19 44  1  0
 20 45  1  0
 21 46  1  0
 22 47  1  0
 23 48  1  0
 26 49  1  0
 26 50  1  0
 27 51  1  0
 27 52  1  0
 28 53  1  0
 29 54  1  0
M  CHG  2   4  -1  16   1
M  END
>  <UniqueID>  (24) 
24

>  <SMILES>  (24) 
CC(=O)[N-]c1ccc(CN2CCN(Cc3[nH+]c(-c4ccccc4)no3)CC2)cc1

>  <Energy>  (24) 
112.43415588653629

>  <Genealogy>  (24) 
CC(=O)[N-]c1ccc(CN2CCN(Cc3[nH+]c(-c4ccccc4)no3)CC2)cc1 (protonated)
CC(=O)[N-]c1ccc(CN2CCN(Cc3[nH+]c(-c4ccccc4)no3)CC2)cc1 (3D coordinates assigned)
CC(=O)[N-]c1ccc(CN2CCN(Cc3[nH+]c(-c4ccccc4)no3)CC2)cc1 (nonaromatic ring conformer: 112.43415588653629 kcal/mol)

>  <smiles>  (24) 
CC(=O)Nc1ccc(CN2CCN(Cc3nc(-c4ccccc4)no3)CC2)cc1

>  <score_type>  (24) 
oracle

>  <origin>  (24) 
adg

>  <m_score__min__energy>  (24) 
-9.6199999999999992

>  <m_primary>  (24) 
energy

$$$$
24:0
     RDKit          3D

 37 39  0  0  0  0  0  0  0  0999 V2000
   58.1490   32.0190   47.4000 C   0  0  0  0  0  0  0  0  0  0  0  0
   58.2500   31.2150   46.1360 C   0  0  0  0  0  0  0  0  0  0  0  0
   57.3940   31.4550   45.1850 N   0  0  0  0  0  0  0  0  0  0  0  0
   57.4440   30.7810   43.9260 C   0  0  0  0  0  0  0  0  0  0  0  0
   56.6950   31.1450   42.9840 O   0  0  0  0  0  0  0  0  0  0  0  0
   58.3420   29.6870   43.7470 N   0  0  0  0  0  0  0  0  0  0  0  0
   59.1040   29.1590   44.8770 C   0  0  2  0  0  0  0  0  0  0  0  0
   58.3660   27.9830   45.4970 C   0  0  0  0  0  0  0  0  0  0  0  0
   59.0940   26.9790   46.1660 C   0  0  0  0  0  0  0  0  0  0  0  0
   58.4350   25.9020   46.7640 C   0  0  0  0  0  0  0  0  0  0  0  0
   57.0430   25.8120   46.7050 C   0  0  0  0  0  0  0  0  0  0  0  0
   56.3060   26.8020   46.0500 C   0  0  0  0  0  0  0  0  0  0  0  0
   54.9200   26.7130   45.9970 O   0  0  0  0  0  0  0  0  0  0  0  0
   56.9610   27.8820   45.4500 C   0  0  0  0  0  0  0  0  0  0  0  0
   59.4470   30.3040   45.8790 C   0  0  2  0  0  0  0  0  0  0  0  0
   60.0790   29.7980   47.1680 C   0  0  0  0  0  0  0  0  0  0  0  0
   59.4050   29.0770   47.9500 O   0  0  0  0  0  0  0  0  0  0  0  0
   61.3710   30.2460   47.6010 N   0  0  0  0  0  0  0  0  0  0  0  0
   61.9780   31.5100   47.3110 C   0  0  0  0  0  0  0  0  0  0  0  0
   61.2100   32.6570   47.0610 C   0  0  0  0  0  0  0  0  0  0  0  0
   61.8390   33.8630   46.7490 C   0  0  0  0  0  0  0  0  0  0  0  0
   63.2330   33.9060   46.6710 C   0  0  0  0  0  0  0  0  0  0  0  0
   63.9620   32.7790   46.8850 N   0  0  0  0  0  0  0  0  0  0  0  0
   63.3700   31.5930   47.1910 C   0  0  0  0  0  0  0  0  0  0  0  0
   58.2332   31.3491   48.2684 H   0  0  0  0  0  0  0  0  0  0  0  0
   58.9611   32.7604   47.4288 H   0  0  0  0  0  0  0  0  0  0  0  0
   57.1788   32.5365   47.4288 H   0  0  0  0  0  0  0  0  0  0  0  0
   60.0720   28.7629   44.5361 H   0  0  0  0  0  0  0  0  0  0  0  0
   60.1909   27.0438   46.2179 H   0  0  0  0  0  0  0  0  0  0  0  0
   59.0140   25.1234   47.2823 H   0  0  0  0  0  0  0  0  0  0  0  0
   56.5265   24.9617   47.1742 H   0  0  0  0  0  0  0  0  0  0  0  0
   56.3750   28.6590   44.9372 H   0  0  0  0  0  0  0  0  0  0  0  0
   60.2179   30.9185   45.3911 H   0  0  0  0  0  0  0  0  0  0  0  0
   60.1123   32.6058   47.1109 H   0  0  0  0  0  0  0  0  0  0  0  0
   61.2436   34.7698   46.5665 H   0  0  0  0  0  0  0  0  0  0  0  0
   63.7413   34.8529   46.4362 H   0  0  0  0  0  0  0  0  0  0  0  0
   63.9877   30.6959   47.3447 H   0  0  0  0  0  0  0  0  0  0  0  0
  1  2  1  0
  2  3  2  0
  3  4  1  0
  4  5  2  0
  4  6  1  0
  6  7  1  0
  7  8  1  0
  8  9  2  0
  9 10  1  0
 10 11  2  0
 11 12  1  0
 12 13  1  0
 12 14  2  0
  7 15  1  0
 15 16  1  0
 16 17  2  0
 16 18  1  0
 18 19  1  0
 19 20  2  0
 20 21  1  0
 21 22  2  0
 22 23  1  0
 23 24  2  0
 15  2  1  0
 24 19  1  0
 14  8  1  0
  1 25  1  0
  1 26  1  0
  1 27  1  0
  7 28  1  6
  9 29  1  0
 10 30  1  0
 11 31  1  0
 14 32  1  0
 15 33  1  6
 20 34  1  0
 21 35  1  0
 22 36  1  0
 24 37  1  0
M  CHG  3   6  -1  13  -1  18  -1
M  END
>  <UniqueID>  (25) 
25

>  <SMILES>  (25) 
CC1=NC(=O)[N-][C@H](c2cccc([O-])c2)[C@@H]1C(=O)[N-]c1cccnc1

>  <Energy>  (25) 
49.78094588762245

>  <Genealogy>  (25) 
CC1=NC(=O)[N-]C(c2cccc([O-])c2)C1C(=O)[N-]c1cccnc1 (protonated)
CC1=NC(=O)[N-][C@H](c2cccc([O-])c2)[C@@H]1C(=O)[N-]c1cccnc1 (chirality)
CC1=NC(=O)[N-][C@H](c2cccc([O-])c2)[C@@H]1C(=O)[N-]c1cccnc1 (3D coordinates assigned)
CC1=NC(=O)[N-][C@H](c2cccc([O-])c2)[C@@H]1C(=O)[N-]c1cccnc1 (nonaromatic ring conformer: 49.78094588762245 kcal/mol)

>  <smiles>  (25) 
CC1=NC(=O)NC(c2cccc(O)c2)C1C(=O)Nc1cccnc1

>  <score_type>  (25) 
oracle

>  <origin>  (25) 
adg

>  <m_score__min__energy>  (25) 
-12.949999999999999

>  <m_primary>  (25) 
energy

$$$$
25:0
     RDKit          3D

 48 51  0  0  0  0  0  0  0  0999 V2000
   54.2600   26.7010   46.7550 H   0  0  0  0  0  0  0  0  0  0  0  0
   54.9920   26.4940   46.0880 O   0  0  0  0  0  0  0  0  0  0  0  0
   56.0000   25.5750   46.3690 C   0  0  0  0  0  0  0  0  0  0  0  0
   55.7970   24.4600   47.0890 N   0  0  0  0  0  0  0  0  0  0  0  0
   57.0010   23.8510   47.0460 C   0  0  0  0  0  0  0  0  0  0  0  0
   57.2240   22.7480   47.6100 O   0  0  0  0  0  0  0  0  0  0  0  0
   57.9450   24.5130   46.3430 N   0  0  0  0  0  0  0  0  0  0  0  0
   57.3080   25.6220   45.9320 C   0  0  0  0  0  0  0  0  0  0  0  0
   57.9410   26.6470   45.0840 C   0  0  0  0  0  0  0  0  0  0  0  0
   58.0808   26.4247   44.0158 H   0  0  0  0  0  0  0  0  0  0  0  0
   58.3580   27.8420   45.5460 C   0  0  0  0  0  0  0  0  0  0  0  0
   57.7100   29.0590   45.3800 C   0  0  0  0  0  0  0  0  0  0  0  0
   56.7754   29.2351   44.8273 H   0  0  0  0  0  0  0  0  0  0  0  0
   58.4660   30.0050   46.0430 C   0  0  0  0  0  0  0  0  0  0  0  0
   58.1180   31.4580   46.1430 C   0  0  0  0  0  0  0  0  0  0  0  0
   58.0489   31.7464   47.2023 H   0  0  0  0  0  0  0  0  0  0  0  0
   58.8982   32.0567   45.6501 H   0  0  0  0  0  0  0  0  0  0  0  0
   57.1513   31.6383   45.6501 H   0  0  0  0  0  0  0  0  0  0  0  0
   59.5410   29.4250   46.6220 N   0  0  0  0  0  0  0  0  0  0  0  0
   60.5420   30.1060   47.3990 C   0  0  0  0  0  0  0  0  0  0  0  0
   61.5050   30.9050   46.7750 C   0  0  0  0  0  0  0  0  0  0  0  0
   61.4993   31.0199   45.6810 H   0  0  0  0  0  0  0  0  0  0  0  0
   62.4470   31.5390   47.5190 N   0  0  0  0  0  0  0  0  0  0  0  0
   62.4790   31.4090   48.8720 C   0  0  0  0  0  0  0  0  0  0  0  0
   63.4830   32.0890   49.6390 N   0  0  0  0  0  0  0  0  0  0  0  0
   63.5850   32.0010   51.0850 C   0  0  0  0  0  0  0  0  0  0  0  0
   62.6284   32.2729   51.5550 H   0  0  0  0  0  0  0  0  0  0  0  0
   63.8259   30.9799   51.4155 H   0  0  0  0  0  0  0  0  0  0  0  0
   64.6720   32.9930   51.4780 C   0  0  0  0  0  0  0  0  0  0  0  0
   64.2231   33.9064   51.8954 H   0  0  0  0  0  0  0  0  0  0  0  0
   65.3387   32.5763   52.2473 H   0  0  0  0  0  0  0  0  0  0  0  0
   65.4330   33.3150   50.1930 C   0  0  0  0  0  0  0  0  0  0  0  0
   65.6764   34.3869   50.1514 H   0  0  0  0  0  0  0  0  0  0  0  0
   66.3826   32.7625   50.1380 H   0  0  0  0  0  0  0  0  0  0  0  0
   64.5020   32.9390   49.0480 C   0  0  0  0  0  0  0  0  0  0  0  0
   64.0456   33.8399   48.6120 H   0  0  0  0  0  0  0  0  0  0  0  0
   65.0397   32.4271   48.2363 H   0  0  0  0  0  0  0  0  0  0  0  0
   61.5540   30.6310   49.4950 N   0  0  0  0  0  0  0  0  0  0  0  0
   60.5910   29.9750   48.7930 C   0  0  0  0  0  0  0  0  0  0  0  0
   59.6550   29.1680   49.4480 O   0  0  0  0  0  0  0  0  0  0  0  0
   58.5610   29.7010   50.1850 C   0  0  0  0  0  0  0  0  0  0  0  0
   58.7620   29.6031   51.2620 H   0  0  0  0  0  0  0  0  0  0  0  0
   58.4309   30.7634   49.9314 H   0  0  0  0  0  0  0  0  0  0  0  0
   57.6442   29.1486   49.9314 H   0  0  0  0  0  0  0  0  0  0  0  0
   59.4870   28.1020   46.3300 C   0  0  0  0  0  0  0  0  0  0  0  0
   60.3830   27.2010   46.7620 C   0  0  0  0  0  0  0  0  0  0  0  0
   61.2361   27.5247   47.3763 H   0  0  0  0  0  0  0  0  0  0  0  0
   60.2642   26.1388   46.5018 H   0  0  0  0  0  0  0  0  0  0  0  0
  1  2  1  0
  2  3  1  0
  3  4  1  0
  4  5  1  0
  5  6  2  0
  5  7  1  0
  7  8  1  0
  8  9  1  0
  9 10  1  0
  9 11  2  0
 11 12  1  0
 12 13  1  0
 12 14  2  0
 14 15  1  0
 15 16  1  0
 15 17  1  0
 15 18  1  0
 14 19  1  0
 19 20  1  0
 20 21  2  0
 21 22  1  0
 21 23  1  0
 23 24  2  0
 24 25  1  0
 25 26  1  0
 26 27  1  0
 26 28  1  0
 26 29  1  0
 29 30  1  0
 29 31  1  0
 29 32  1  0
 32 33  1  0
 32 34  1  0
 32 35  1  0
 35 36  1  0
 35 37  1  0
 24 38  1  0
 38 39  2  0
 39 40  1  0
 40 41  1  0
 41 42  1  0
 41 43  1  0
 41 44  1  0
 19 45  1  0
 45 46  2  0
 46 47  1  0
 46 48  1  0
  8  3  2  0
 45 11  1  0
 39 20  1  0
 35 25  1  0
M  CHG  2   4  -1   7  -1
M  END
>  <UniqueID>  (26) 
26

>  <SMILES>  (26) 
C=c1/c(=C/c2[n-]c(=O)[n-]c2O)cc(C)n1-c1cnc(N2CCCC2)nc1OC

>  <Energy>  (26) 
118.79971825409784

>  <Genealogy>  (26) 
C=c1c(=Cc2[n-]c(=O)[n-]c2O)cc(C)n1-c1cnc(N2CCCC2)nc1OC (protonated)
C=c1/c(=C/c2[n-]c(=O)[n-]c2O)cc(C)n1-c1cnc(N2CCCC2)nc1OC (cis-trans isomerization)
C=c1/c(=C/c2[n-]c(=O)[n-]c2O)cc(C)n1-c1cnc(N2CCCC2)nc1OC (3D coordinates assigned)
C=c1/c(=C/c2[n-]c(=O)[n-]c2O)cc(C)n1-c1cnc(N2CCCC2)nc1OC (nonaromatic ring conformer: 118.79971825409784 kcal/mol)

>  <smiles>  (26) 
C=c1c(=Cc2[nH]c(=O)[nH]c2O)cc(C)n1-c1cnc(N2CCCC2)nc1OC

>  <score_type>  (26) 
oracle

>  <origin>  (26) 
adg

>  <m_score__min__energy>  (26) 
-12.58

>  <m_primary>  (26) 
energy

$$$$
26:0
     RDKit          3D

 48 50  0  0  0  0  0  0  0  0999 V2000
   60.2660   29.8570   46.3180 C   0  0  0  0  0  0  0  0  0  0  0  0
   59.3320   30.7510   45.9490 C   0  0  0  0  0  0  0  0  0  0  0  0
   58.2400   30.4970   45.1120 C   0  0  0  0  0  0  0  0  0  0  0  0
   57.9560   29.3510   44.4600 C   0  0  0  0  0  0  0  0  0  0  0  0
   57.4110   28.1450   45.1240 C   0  0  0  0  0  0  0  0  0  0  0  0
   56.0250   28.0030   45.2890 C   0  0  0  0  0  0  0  0  0  0  0  0
   55.1540   28.9980   44.8580 O   0  0  0  0  0  0  0  0  0  0  0  0
   55.5210   26.8900   45.8820 N   0  0  0  0  0  0  0  0  0  0  0  0
   56.3380   25.8930   46.3080 C   0  0  0  0  0  0  0  0  0  0  0  0
   55.8480   24.8700   46.8550 O   0  0  0  0  0  0  0  0  0  0  0  0
   57.6810   25.9940   46.1370 N   0  0  0  0  0  0  0  0  0  0  0  0
   58.2340   27.0870   45.5540 C   0  0  0  0  0  0  0  0  0  0  0  0
   59.4810   27.1320   45.3860 O   0  0  0  0  0  0  0  0  0  0  0  0
   57.5290   31.6830   45.0260 C   0  0  0  0  0  0  0  0  0  0  0  0
   58.1980   32.6030   45.8060 C   0  0  0  0  0  0  0  0  0  0  0  0
   57.7850   34.0350   45.9690 C   0  0  0  0  0  0  0  0  0  0  0  0
   59.3070   32.0500   46.3530 N   0  0  0  0  0  0  0  0  0  0  0  0
   60.2910   32.7660   47.1820 C   0  0  0  0  0  0  0  0  0  0  0  0
   59.6850   33.2090   48.4820 C   0  0  0  0  0  0  0  0  0  0  0  0
   59.4200   34.4300   48.6540 O   0  0  0  0  0  0  0  0  0  0  0  0
   59.4220   32.2600   49.5250 N   0  0  0  0  0  0  0  0  0  0  0  0
   59.0360   32.6500   50.8520 C   0  0  0  0  0  0  0  0  0  0  0  0
   59.5180   33.8590   51.3850 C   0  0  0  0  0  0  0  0  0  0  0  0
   59.2440   34.2100   52.7070 C   0  0  0  0  0  0  0  0  0  0  0  0
   58.4980   33.3540   53.5170 C   0  0  0  0  0  0  0  0  0  0  0  0
   58.0130   32.1500   53.0030 C   0  0  0  0  0  0  0  0  0  0  0  0
   58.2620   31.7880   51.6660 C   0  0  0  0  0  0  0  0  0  0  0  0
   57.6640   30.5440   51.1300 C   0  0  0  0  0  0  0  0  0  0  0  0
   58.2810   29.8750   50.2540 O   0  0  0  0  0  0  0  0  0  0  0  0
   56.4410   30.0860   51.6290 O   0  0  0  0  0  0  0  0  0  0  0  0
   56.3330   29.3170   52.8200 C   0  0  0  0  0  0  0  0  0  0  0  0
   61.0872   30.1623   46.9831 H   0  0  0  0  0  0  0  0  0  0  0  0
   60.2089   28.8203   45.9548 H   0  0  0  0  0  0  0  0  0  0  0  0
   58.1392   29.3101   43.3761 H   0  0  0  0  0  0  0  0  0  0  0  0
   56.6095   31.8571   44.4479 H   0  0  0  0  0  0  0  0  0  0  0  0
   57.7152   34.2769   47.0398 H   0  0  0  0  0  0  0  0  0  0  0  0
   58.5313   34.6883   45.4934 H   0  0  0  0  0  0  0  0  0  0  0  0
   56.8054   34.1905   45.4934 H   0  0  0  0  0  0  0  0  0  0  0  0
   61.1389   32.0971   47.3908 H   0  0  0  0  0  0  0  0  0  0  0  0
   60.6269   33.6576   46.6323 H   0  0  0  0  0  0  0  0  0  0  0  0
   59.4690   31.2400   49.3060 H   0  0  0  0  0  0  0  0  0  0  0  0
   60.1159   34.5333   50.7543 H   0  0  0  0  0  0  0  0  0  0  0  0
   59.6167   35.1628   53.1110 H   0  0  0  0  0  0  0  0  0  0  0  0
   58.2915   33.6279   54.5622 H   0  0  0  0  0  0  0  0  0  0  0  0
   57.4303   31.4774   53.6496 H   0  0  0  0  0  0  0  0  0  0  0  0
   56.4260   29.9790   53.6936 H   0  0  0  0  0  0  0  0  0  0  0  0
   55.3553   28.8134   52.8439 H   0  0  0  0  0  0  0  0  0  0  0  0
   57.1342   28.5636   52.8439 H   0  0  0  0  0  0  0  0  0  0  0  0
  1  2  2  0
  2  3  1  0
  3  4  2  3
  4  5  1  0
  5  6  2  0
  6  7  1  0
  6  8  1  0
  8  9  1  0
  9 10  2  0
  9 11  1  0
 11 12  1  0
 12 13  2  0
  3 14  1  0
 14 15  2  0
 15 16  1  0
 15 17  1  0
 17 18  1  0
 18 19  1  0
 19 20  2  0
 19 21  1  0
 21 22  1  0
 22 23  2  0
 23 24  1  0
 24 25  2  0
 25 26  1  0
 26 27  2  0
 27 28  1  0
 28 29  2  0
 28 30  1  0
 30 31  1  0
 17  2  1  0
 27 22  1  0
 12  5  1  0
  1 32  1  0
  1 33  1  0
  4 34  1  0
 14 35  1  0
 16 36  1  0
 16 37  1  0
 16 38  1  0
 18 39  1  0
 18 40  1  0
 21 41  1  0
 23 42  1  0
 24 43  1  0
 25 44  1  0
 26 45  1  0
 31 46  1  0
 31 47  1  0
 31 48  1  0
M  CHG  3   7  -1   8  -1  11  -1
M  END
>  <UniqueID>  (27) 
27

>  <SMILES>  (27) 
C=c1c(=Cc2c([O-])[n-]c(=O)[n-]c2=O)cc(C)n1CC(=O)Nc1ccccc1C(=O)OC

>  <Energy>  (27) 
91.41545582692217

>  <Genealogy>  (27) 
C=c1c(=Cc2c([O-])[n-]c(=O)[n-]c2=O)cc(C)n1CC(=O)Nc1ccccc1C(=O)OC (protonated)
C=c1c(=Cc2c([O-])[n-]c(=O)[n-]c2=O)cc(C)n1CC(=O)Nc1ccccc1C(=O)OC (3D coordinates assigned)
C=c1c(=Cc2c([O-])[n-]c(=O)[n-]c2=O)cc(C)n1CC(=O)Nc1ccccc1C(=O)OC (optimized conformer: 91.41545582692217 kcal/mol)

>  <smiles>  (27) 
C=c1c(=Cc2c(O)[nH]c(=O)[nH]c2=O)cc(C)n1CC(=O)Nc1ccccc1C(=O)OC

>  <score_type>  (27) 
oracle

>  <origin>  (27) 
adg

>  <m_score__min__energy>  (27) 
-15.609999999999999

>  <m_primary>  (27) 
energy

$$$$
27:0
     RDKit          3D

 58 61  0  0  0  0  0  0  0  0999 V2000
   54.4010   29.3450   45.2310 H   0  0  0  0  0  0  0  0  0  0  0  0
   54.8170   29.3520   44.2690 N   0  0  0  0  0  0  0  0  0  0  0  0
   56.2200   29.5520   44.0810 C   0  0  0  0  0  0  0  0  0  0  0  0
   56.6170   30.2170   43.0840 O   0  0  0  0  0  0  0  0  0  0  0  0
   57.1990   28.9810   45.0390 C   0  0  0  0  0  0  0  0  0  0  0  0
   56.9430   27.7490   45.6750 C   0  0  0  0  0  0  0  0  0  0  0  0
   56.0034   27.2147   45.4707 H   0  0  0  0  0  0  0  0  0  0  0  0
   57.8740   27.2000   46.5640 C   0  0  0  0  0  0  0  0  0  0  0  0
   57.6625   26.2377   47.0531 H   0  0  0  0  0  0  0  0  0  0  0  0
   59.0750   27.8710   46.8340 C   0  0  0  0  0  0  0  0  0  0  0  0
   60.2650   27.1410   47.9090 S   0  0  0  0  0  0  0  0  0  0  0  0
   59.6250   25.9950   48.6390 O   0  0  0  0  0  0  0  0  0  0  0  0
   61.4330   26.6080   47.1240 O   0  0  0  0  0  0  0  0  0  0  0  0
   60.8400   28.3000   49.0630 N   0  0  0  0  0  0  0  0  0  0  0  0
   60.5860   29.7110   49.0060 C   0  0  0  0  0  0  0  0  0  0  0  0
   59.3810   30.1990   49.5200 C   0  0  0  0  0  0  0  0  0  0  0  0
   58.6416   29.4983   49.9350 H   0  0  0  0  0  0  0  0  0  0  0  0
   59.1080   31.5690   49.5110 C   0  0  0  0  0  0  0  0  0  0  0  0
   58.1634   31.9394   49.9360 H   0  0  0  0  0  0  0  0  0  0  0  0
   60.0290   32.4780   48.9640 C   0  0  0  0  0  0  0  0  0  0  0  0
   59.7120   33.9230   48.9240 C   0  0  0  0  0  0  0  0  0  0  0  0
   59.5757   34.4626   49.8728 H   0  0  0  0  0  0  0  0  0  0  0  0
   59.5850   34.5980   47.7720 C   0  0  0  0  0  0  0  0  0  0  0  0
   60.0059   35.6123   47.7093 H   0  0  0  0  0  0  0  0  0  0  0  0
   58.9030   34.0400   46.5780 C   0  0  0  0  0  0  0  0  0  0  0  0
   59.5240   34.2060   45.3260 C   0  0  0  0  0  0  0  0  0  0  0  0
   60.5072   34.6955   45.2659 H   0  0  0  0  0  0  0  0  0  0  0  0
   58.9020   33.7540   44.1570 C   0  0  0  0  0  0  0  0  0  0  0  0
   59.3918   33.8986   43.1827 H   0  0  0  0  0  0  0  0  0  0  0  0
   57.6610   33.1200   44.2260 C   0  0  0  0  0  0  0  0  0  0  0  0
   57.1648   32.7815   43.3045 H   0  0  0  0  0  0  0  0  0  0  0  0
   57.0490   32.9150   45.4630 C   0  0  0  0  0  0  0  0  0  0  0  0
   56.0754   32.4056   45.5137 H   0  0  0  0  0  0  0  0  0  0  0  0
   57.6670   33.3540   46.6400 C   0  0  0  0  0  0  0  0  0  0  0  0
   57.0570   33.0760   47.8560 O   0  0  0  0  0  0  0  0  0  0  0  0
   61.2220   31.9820   48.3890 C   0  0  0  0  0  0  0  0  0  0  0  0
   62.4410   33.0720   47.6320 S   0  0  0  0  0  0  0  0  0  0  0  0
   63.4110   33.1790   49.1320 C   0  0  0  0  0  0  0  0  0  0  0  0
   64.7550   32.9870   49.0870 N   0  0  0  0  0  0  0  0  0  0  0  0
   65.5120   33.0460   50.2140 C   0  0  0  0  0  0  0  0  0  0  0  0
   66.9850   32.8130   50.1320 C   0  0  0  0  0  0  0  0  0  0  0  0
   67.4029   32.7469   51.1474 H   0  0  0  0  0  0  0  0  0  0  0  0
   67.1782   31.8731   49.5941 H   0  0  0  0  0  0  0  0  0  0  0  0
   67.4588   33.6474   49.5941 H   0  0  0  0  0  0  0  0  0  0  0  0
   64.9020   33.3150   51.4440 C   0  0  0  0  0  0  0  0  0  0  0  0
   65.4963   33.3590   52.3686 H   0  0  0  0  0  0  0  0  0  0  0  0
   63.5180   33.5270   51.4720 C   0  0  0  0  0  0  0  0  0  0  0  0
   62.8080   33.8360   52.7570 C   0  0  0  0  0  0  0  0  0  0  0  0
   63.4490   33.5570   53.6063 H   0  0  0  0  0  0  0  0  0  0  0  0
   62.5856   34.9123   52.8034 H   0  0  0  0  0  0  0  0  0  0  0  0
   61.8688   33.2652   52.8034 H   0  0  0  0  0  0  0  0  0  0  0  0
   62.8050   33.4470   50.3180 N   0  0  0  0  0  0  0  0  0  0  0  0
   61.5000   30.6110   48.4350 C   0  0  0  0  0  0  0  0  0  0  0  0
   62.4459   30.2341   48.0188 H   0  0  0  0  0  0  0  0  0  0  0  0
   59.3310   29.1050   46.2150 C   0  0  0  0  0  0  0  0  0  0  0  0
   60.2673   29.6409   46.4297 H   0  0  0  0  0  0  0  0  0  0  0  0
   58.4010   29.6570   45.3260 C   0  0  0  0  0  0  0  0  0  0  0  0
   58.6104   30.6254   44.8482 H   0  0  0  0  0  0  0  0  0  0  0  0
  1  2  1  0
  2  3  1  0
  3  4  2  0
  3  5  1  0
  5  6  2  0
  6  7  1  0
  6  8  1  0
  8  9  1  0
  8 10  2  0
 10 11  1  0
 11 12  2  0
 11 13  2  0
 11 14  1  0
 14 15  1  0
 15 16  2  0
 16 17  1  0
 16 18  1  0
 18 19  1  0
 18 20  2  0
 20 21  1  0
 21 22  1  0
 21 23  2  0
 23 24  1  0
 23 25  1  0
 25 26  2  0
 26 27  1  0
 26 28  1  0
 28 29  1  0
 28 30  2  0
 30 31  1  0
 30 32  1  0
 32 33  1  0
 32 34  2  0
 34 35  1  0
 20 36  1  0
 36 37  1  0
 37 38  1  0
 38 39  2  0
 39 40  1  0
 40 41  1  0
 41 42  1  0
 41 43  1  0
 41 44  1  0
 40 45  2  0
 45 46  1  0
 45 47  1  0
 47 48  1  0
 48 49  1  0
 48 50  1  0
 48 51  1  0
 47 52  2  0
 36 53  2  0
 53 54  1  0
 10 55  1  0
 55 56  1  0
 55 57  2  0
 57 58  1  0
 57  5  1  0
 53 15  1  0
 34 25  1  0
 52 38  1  0
M  CHG  3   2  -1  14  -1  35  -1
M  END
>  <UniqueID>  (28) 
28

>  <SMILES>  (28) 
Cc1cc(C)nc(Sc2cc([N-]S(=O)(=O)c3ccc(C([NH-])=O)cc3)ccc2/C=C/c2ccccc2[O-])n1

>  <Energy>  (28) 
67.05151276455176

>  <Genealogy>  (28) 
Cc1cc(C)nc(Sc2cc([N-]S(=O)(=O)c3ccc(C([NH-])=O)cc3)ccc2C=Cc2ccccc2[O-])n1 (protonated)
Cc1cc(C)nc(Sc2cc([N-]S(=O)(=O)c3ccc(C([NH-])=O)cc3)ccc2/C=C/c2ccccc2[O-])n1 (cis-trans isomerization)
Cc1cc(C)nc(Sc2cc([N-]S(=O)(=O)c3ccc(C([NH-])=O)cc3)ccc2/C=C/c2ccccc2[O-])n1 (3D coordinates assigned)
Cc1cc(C)nc(Sc2cc([N-]S(=O)(=O)c3ccc(C([NH-])=O)cc3)ccc2/C=C/c2ccccc2[O-])n1 (optimized conformer: 67.05151276455176 kcal/mol)

>  <smiles>  (28) 
Cc1cc(C)nc(Sc2cc(NS(=O)(=O)c3ccc(C(N)=O)cc3)ccc2C=Cc2ccccc2O)n1

>  <score_type>  (28) 
oracle

>  <origin>  (28) 
adg

>  <m_score__min__energy>  (28) 
-17.59

>  <m_primary>  (28) 
energy

$$$$
28:0
     RDKit          3D

 40 42  0  0  0  0  0  0  0  0999 V2000
   55.6820   29.2430   45.1910 O   0  0  0  0  0  0  0  0  0  0  0  0
   56.9350   29.1190   45.1650 C   0  0  0  0  0  0  0  0  0  0  0  0
   57.5020   27.8950   44.6810 N   0  0  0  0  0  0  0  0  0  0  0  0
   57.6470   26.6900   45.4450 C   0  0  0  0  0  0  0  0  0  0  0  0
   58.8970   26.0580   45.5790 C   0  0  0  0  0  0  0  0  0  0  0  0
   59.0090   24.8610   46.2930 C   0  0  0  0  0  0  0  0  0  0  0  0
   57.8780   24.2870   46.8780 C   0  0  0  0  0  0  0  0  0  0  0  0
   56.6310   24.8990   46.7360 C   0  0  0  0  0  0  0  0  0  0  0  0
   56.5090   26.0960   46.0140 C   0  0  0  0  0  0  0  0  0  0  0  0
   55.2630   26.7020   45.8630 O   0  0  0  0  0  0  0  0  0  0  0  0
   57.7800   30.2100   45.6880 C   0  0  0  0  0  0  0  0  0  0  0  0
   58.8830   30.0580   46.5100 C   0  0  0  0  0  0  0  0  0  0  0  0
   59.3190   31.3380   46.7880 C   0  0  0  0  0  0  0  0  0  0  0  0
   60.6510   31.7780   47.8490 S   0  0  0  0  0  0  0  0  0  0  0  0
   61.8260   30.8900   47.5440 O   0  0  0  0  0  0  0  0  0  0  0  0
   60.2270   31.5160   49.2670 O   0  0  0  0  0  0  0  0  0  0  0  0
   61.1160   33.4620   47.7030 N   0  0  0  0  0  0  0  0  0  0  0  0
   61.6730   33.7800   46.3720 C   0  0  0  0  0  0  0  0  0  0  0  0
   63.2110   33.8490   46.3730 C   0  0  0  0  0  0  0  0  0  0  0  0
   63.7440   32.9640   47.3310 O   0  0  0  0  0  0  0  0  0  0  0  0
   63.4450   33.4220   48.6380 C   0  0  0  0  0  0  0  0  0  0  0  0
   61.9870   33.9050   48.8050 C   0  0  0  0  0  0  0  0  0  0  0  0
   58.4680   32.2120   46.1440 C   0  0  0  0  0  0  0  0  0  0  0  0
   57.5290   31.5180   45.4770 N   0  0  0  0  0  0  0  0  0  0  0  0
   59.7899   26.5075   45.1201 H   0  0  0  0  0  0  0  0  0  0  0  0
   59.9886   24.3710   46.3941 H   0  0  0  0  0  0  0  0  0  0  0  0
   57.9697   23.3524   47.4508 H   0  0  0  0  0  0  0  0  0  0  0  0
   55.7408   24.4410   47.1919 H   0  0  0  0  0  0  0  0  0  0  0  0
   55.1520   27.5650   45.3430 H   0  0  0  0  0  0  0  0  0  0  0  0
   59.3209   29.1143   46.8672 H   0  0  0  0  0  0  0  0  0  0  0  0
   61.3561   33.0013   45.6626 H   0  0  0  0  0  0  0  0  0  0  0  0
   61.2959   34.7719   46.0822 H   0  0  0  0  0  0  0  0  0  0  0  0
   63.5864   33.5728   45.3766 H   0  0  0  0  0  0  0  0  0  0  0  0
   63.5210   34.8741   46.6243 H   0  0  0  0  0  0  0  0  0  0  0  0
   63.6214   32.5974   49.3444 H   0  0  0  0  0  0  0  0  0  0  0  0
   64.0960   34.2868   48.8339 H   0  0  0  0  0  0  0  0  0  0  0  0
   61.5897   33.5070   49.7504 H   0  0  0  0  0  0  0  0  0  0  0  0
   61.9970   35.0049   48.8015 H   0  0  0  0  0  0  0  0  0  0  0  0
   58.5456   33.3089   46.1718 H   0  0  0  0  0  0  0  0  0  0  0  0
   56.7490   31.9230   44.9130 H   0  0  0  0  0  0  0  0  0  0  0  0
  1  2  2  0
  2  3  1  0
  3  4  1  0
  4  5  2  0
  5  6  1  0
  6  7  2  0
  7  8  1  0
  8  9  2  0
  9 10  1  0
  2 11  1  0
 11 12  2  0
 12 13  1  0
 13 14  1  0
 14 15  2  0
 14 16  2  0
 14 17  1  0
 17 18  1  0
 18 19  1  0
 19 20  1  0
 20 21  1  0
 21 22  1  0
 13 23  2  0
 23 24  1  0
  9  4  1  0
 24 11  1  0
 22 17  1  0
  5 25  1  0
  6 26  1  0
  7 27  1  0
  8 28  1  0
 10 29  1  0
 12 30  1  0
 18 31  1  0
 18 32  1  0
 19 33  1  0
 19 34  1  0
 21 35  1  0
 21 36  1  0
 22 37  1  0
 22 38  1  0
 23 39  1  0
 24 40  1  0
M  CHG  1   3  -1
M  END
>  <UniqueID>  (29) 
29

>  <SMILES>  (29) 
O=C([N-]c1ccccc1O)c1cc(S(=O)(=O)N2CCOCC2)c[nH]1

>  <Energy>  (29) 
80.47749050039738

>  <Genealogy>  (29) 
O=C([N-]c1ccccc1O)c1cc(S(=O)(=O)N2CCOCC2)c[nH]1 (protonated)
O=C([N-]c1ccccc1O)c1cc(S(=O)(=O)N2CCOCC2)c[nH]1 (3D coordinates assigned)
O=C([N-]c1ccccc1O)c1cc(S(=O)(=O)N2CCOCC2)c[nH]1 (nonaromatic ring conformer: 80.47749050039738 kcal/mol)

>  <smiles>  (29) 
O=C(Nc1ccccc1O)c1cc(S(=O)(=O)N2CCOCC2)c[nH]1

>  <score_type>  (29) 
oracle

>  <origin>  (29) 
adg

>  <m_score__min__energy>  (29) 
-10.970000000000001

>  <m_primary>  (29) 
energy

$$$$
29:0
     RDKit          3D

 53 55  0  0  0  0  0  0  0  0999 V2000
   59.0190   29.4380   44.7030 C   0  0  0  0  0  0  0  0  0  0  0  0
   59.5230   28.9070   45.8260 C   0  0  0  0  0  0  0  0  0  0  0  0
   59.3340   27.6080   46.3180 C   0  0  0  0  0  0  0  0  0  0  0  0
   58.7850   26.5120   45.7530 C   0  0  0  0  0  0  0  0  0  0  0  0
   57.3580   26.1520   45.7910 C   0  0  0  0  0  0  0  0  0  0  0  0
   56.8910   24.9200   46.0720 N   0  0  0  0  0  0  0  0  0  0  0  0
   55.5540   25.1010   46.1350 C   0  0  0  0  0  0  0  0  0  0  0  0
   54.7540   24.1580   46.3690 O   0  0  0  0  0  0  0  0  0  0  0  0
   55.1430   26.3720   45.9400 N   0  0  0  0  0  0  0  0  0  0  0  0
   56.2970   27.0280   45.7360 C   0  0  0  0  0  0  0  0  0  0  0  0
   56.3690   28.4000   45.5080 O   0  0  0  0  0  0  0  0  0  0  0  0
   59.8760   27.6510   47.5990 C   0  0  0  0  0  0  0  0  0  0  0  0
   59.9600   26.5250   48.5800 C   0  0  0  0  0  0  0  0  0  0  0  0
   60.4100   28.8630   47.8310 N   0  0  0  0  0  0  0  0  0  0  0  0
   60.2060   29.6160   46.7620 N   0  0  0  0  0  0  0  0  0  0  0  0
   60.6090   31.0260   46.7160 C   0  0  0  0  0  0  0  0  0  0  0  0
   59.4100   31.9250   46.8400 C   0  0  0  0  0  0  0  0  0  0  0  0
   58.6170   31.7430   47.8030 O   0  0  0  0  0  0  0  0  0  0  0  0
   59.1330   32.9600   45.8730 N   0  0  0  0  0  0  0  0  0  0  0  0
   58.3840   32.6480   44.6440 C   0  0  0  0  0  0  0  0  0  0  0  0
   56.9130   32.3370   44.9330 C   0  0  0  0  0  0  0  0  0  0  0  0
   56.6120   30.9920   44.6040 O   0  0  0  0  0  0  0  0  0  0  0  0
   56.6580   30.8050   43.2070 C   0  0  0  0  0  0  0  0  0  0  0  0
   59.7930   34.2680   46.0090 C   0  0  0  0  0  0  0  0  0  0  0  0
   61.0020   34.1630   46.9060 C   0  0  0  0  0  0  0  0  0  0  0  0
   60.8780   34.3450   48.2960 C   0  0  0  0  0  0  0  0  0  0  0  0
   61.9960   34.2220   49.1250 C   0  0  0  0  0  0  0  0  0  0  0  0
   63.2460   33.9210   48.5790 C   0  0  0  0  0  0  0  0  0  0  0  0
   63.3810   33.7490   47.1990 C   0  0  0  0  0  0  0  0  0  0  0  0
   62.2650   33.8720   46.3650 C   0  0  0  0  0  0  0  0  0  0  0  0
   59.2503   30.4795   44.4351 H   0  0  0  0  0  0  0  0  0  0  0  0
   58.3741   28.8322   44.0494 H   0  0  0  0  0  0  0  0  0  0  0  0
   59.4618   25.8293   45.2183 H   0  0  0  0  0  0  0  0  0  0  0  0
   56.4730   28.7730   44.5720 H   0  0  0  0  0  0  0  0  0  0  0  0
   59.9300   26.9273   49.6034 H   0  0  0  0  0  0  0  0  0  0  0  0
   59.1102   25.8430   48.4290 H   0  0  0  0  0  0  0  0  0  0  0  0
   60.9015   25.9766   48.4290 H   0  0  0  0  0  0  0  0  0  0  0  0
   61.3016   31.2310   47.5457 H   0  0  0  0  0  0  0  0  0  0  0  0
   61.1005   31.2224   45.7517 H   0  0  0  0  0  0  0  0  0  0  0  0
   58.4378   33.5126   43.9660 H   0  0  0  0  0  0  0  0  0  0  0  0
   58.8368   31.7557   44.1871 H   0  0  0  0  0  0  0  0  0  0  0  0
   56.7124   32.5009   46.0021 H   0  0  0  0  0  0  0  0  0  0  0  0
   56.2842   33.0003   44.3209 H   0  0  0  0  0  0  0  0  0  0  0  0
   56.9154   29.7587   42.9854 H   0  0  0  0  0  0  0  0  0  0  0  0
   55.6751   31.0407   42.7730 H   0  0  0  0  0  0  0  0  0  0  0  0
   57.4194   31.4697   42.7730 H   0  0  0  0  0  0  0  0  0  0  0  0
   60.1095   34.6181   45.0154 H   0  0  0  0  0  0  0  0  0  0  0  0
   59.0818   34.9791   46.4547 H   0  0  0  0  0  0  0  0  0  0  0  0
   59.8969   34.5851   48.7316 H   0  0  0  0  0  0  0  0  0  0  0  0
   61.8915   34.3626   50.2110 H   0  0  0  0  0  0  0  0  0  0  0  0
   64.1232   33.8195   49.2349 H   0  0  0  0  0  0  0  0  0  0  0  0
   64.3660   33.5166   46.7680 H   0  0  0  0  0  0  0  0  0  0  0  0
   62.3772   33.7400   45.2787 H   0  0  0  0  0  0  0  0  0  0  0  0
  1  2  2  0
  2  3  1  0
  3  4  2  3
  4  5  1  0
  5  6  1  0
  6  7  1  0
  7  8  2  0
  7  9  1  0
  9 10  1  0
 10 11  1  0
  3 12  1  0
 12 13  1  0
 12 14  2  0
 14 15  1  0
 15 16  1  0
 16 17  1  0
 17 18  2  0
 17 19  1  0
 19 20  1  0
 20 21  1  0
 21 22  1  0
 22 23  1  0
 19 24  1  0
 24 25  1  0
 25 26  2  0
 26 27  1  0
 27 28  2  0
 28 29  1  0
 29 30  2  0
 15  2  1  0
 30 25  1  0
 10  5  2  0
  1 31  1  0
  1 32  1  0
  4 33  1  0
 11 34  1  0
 13 35  1  0
 13 36  1  0
 13 37  1  0
 16 38  1  0
 16 39  1  0
 20 40  1  0
 20 41  1  0
 21 42  1  0
 21 43  1  0
 23 44  1  0
 23 45  1  0
 23 46  1  0
 24 47  1  0
 24 48  1  0
 26 49  1  0
 27 50  1  0
 28 51  1  0
 29 52  1  0
 30 53  1  0
M  CHG  2   6  -1   9  -1
M  END
>  <UniqueID>  (30) 
30

>  <SMILES>  (30) 
C=c1c(=Cc2[n-]c(=O)[n-]c2O)c(C)nn1CC(=O)N(CCOC)Cc1ccccc1

>  <Energy>  (30) 
126.01839060319121

>  <Genealogy>  (30) 
C=c1c(=Cc2[n-]c(=O)[n-]c2O)c(C)nn1CC(=O)N(CCOC)Cc1ccccc1 (protonated)
C=c1c(=Cc2[n-]c(=O)[n-]c2O)c(C)nn1CC(=O)N(CCOC)Cc1ccccc1 (3D coordinates assigned)
C=c1c(=Cc2[n-]c(=O)[n-]c2O)c(C)nn1CC(=O)N(CCOC)Cc1ccccc1 (optimized conformer: 126.01839060319121 kcal/mol)

>  <smiles>  (30) 
C=c1c(=Cc2[nH]c(=O)[nH]c2O)c(C)nn1CC(=O)N(CCOC)Cc1ccccc1

>  <score_type>  (30) 
oracle

>  <origin>  (30) 
adg

>  <m_score__min__energy>  (30) 
-12.9

>  <m_primary>  (30) 
energy

$$$$
30:0
     RDKit          3D

 43 45  0  0  0  0  0  0  0  0999 V2000
   59.7230   26.4840   48.5400 O   0  0  0  0  0  0  0  0  0  0  0  0
   60.0910   27.4860   47.8730 C   0  0  0  0  0  0  0  0  0  0  0  0
   60.0120   27.4390   46.3710 C   0  0  0  0  0  0  0  0  0  0  0  0
   58.6550   27.8930   45.9030 C   0  0  0  0  0  0  0  0  0  0  0  0
   58.5220   29.0970   45.1920 C   0  0  0  0  0  0  0  0  0  0  0  0
   57.2680   29.5080   44.7310 C   0  0  0  0  0  0  0  0  0  0  0  0
   56.1390   28.7160   44.9680 C   0  0  0  0  0  0  0  0  0  0  0  0
   54.8950   29.1300   44.5060 O   0  0  0  0  0  0  0  0  0  0  0  0
   56.2660   27.5080   45.6640 C   0  0  0  0  0  0  0  0  0  0  0  0
   55.1490   26.7150   45.8970 O   0  0  0  0  0  0  0  0  0  0  0  0
   57.5210   27.0960   46.1270 C   0  0  0  0  0  0  0  0  0  0  0  0
   60.6350   28.6170   48.5680 N   0  0  0  0  0  0  0  0  0  0  0  0
   59.9090   29.7760   49.0000 C   0  0  0  0  0  0  0  0  0  0  0  0
   59.0200   29.7150   50.0860 C   0  0  0  0  0  0  0  0  0  0  0  0
   58.3470   30.8610   50.5090 C   0  0  0  0  0  0  0  0  0  0  0  0
   58.5690   32.0820   49.8670 C   0  0  0  0  0  0  0  0  0  0  0  0
   59.4810   32.1710   48.8060 C   0  0  0  0  0  0  0  0  0  0  0  0
   59.7480   33.7380   48.0200 S   0  0  0  0  0  0  0  0  0  0  0  0
   61.1570   33.7840   47.5000 O   0  0  0  0  0  0  0  0  0  0  0  0
   59.5960   34.8400   49.0300 O   0  0  0  0  0  0  0  0  0  0  0  0
   58.6480   34.0290   46.6930 N   0  0  0  0  0  0  0  0  0  0  0  0
   59.2930   33.8480   45.3940 C   0  0  0  0  0  0  0  0  0  0  0  0
   58.1880   33.4920   44.4090 C   0  0  0  0  0  0  0  0  0  0  0  0
   57.0090   33.0540   45.2660 C   0  0  0  0  0  0  0  0  0  0  0  0
   57.5160   33.1060   46.6970 C   0  0  0  0  0  0  0  0  0  0  0  0
   60.1530   31.0090   48.3740 C   0  0  0  0  0  0  0  0  0  0  0  0
   61.0600   31.0680   47.3200 O   0  0  0  0  0  0  0  0  0  0  0  0
   60.7818   28.1002   45.9466 H   0  0  0  0  0  0  0  0  0  0  0  0
   60.1771   26.4040   46.0369 H   0  0  0  0  0  0  0  0  0  0  0  0
   59.4081   29.7189   44.9972 H   0  0  0  0  0  0  0  0  0  0  0  0
   57.1686   30.4555   44.1811 H   0  0  0  0  0  0  0  0  0  0  0  0
   57.6193   26.1437   46.6687 H   0  0  0  0  0  0  0  0  0  0  0  0
   58.8540   28.7594   50.6049 H   0  0  0  0  0  0  0  0  0  0  0  0
   57.6400   30.8035   51.3497 H   0  0  0  0  0  0  0  0  0  0  0  0
   58.0246   32.9793   50.1963 H   0  0  0  0  0  0  0  0  0  0  0  0
   59.7926   34.7779   45.0849 H   0  0  0  0  0  0  0  0  0  0  0  0
   60.0581   33.0587   45.4361 H   0  0  0  0  0  0  0  0  0  0  0  0
   57.9175   34.3678   43.8009 H   0  0  0  0  0  0  0  0  0  0  0  0
   58.5015   32.7026   43.7100 H   0  0  0  0  0  0  0  0  0  0  0  0
   56.1593   33.7397   45.1326 H   0  0  0  0  0  0  0  0  0  0  0  0
   56.6522   32.0501   44.9924 H   0  0  0  0  0  0  0  0  0  0  0  0
   56.7262   33.4736   47.3686 H   0  0  0  0  0  0  0  0  0  0  0  0
   57.8121   32.1088   47.0546 H   0  0  0  0  0  0  0  0  0  0  0  0
  1  2  2  0
  2  3  1  0
  3  4  1  0
  4  5  2  0
  5  6  1  0
  6  7  2  0
  7  8  1  0
  7  9  1  0
  9 10  1  0
  9 11  2  0
  2 12  1  0
 12 13  1  0
 13 14  2  0
 14 15  1  0
 15 16  2  0
 16 17  1  0
 17 18  1  0
 18 19  2  0
 18 20  2  0
 18 21  1  0
 21 22  1  0
 22 23  1  0
 23 24  1  0
 24 25  1  0
 17 26  2  0
 26 27  1  0
 11  4  1  0
 26 13  1  0
 25 21  1  0
  3 28  1  0
  3 29  1  0
  5 30  1  0
  6 31  1  0
 11 32  1  0
 14 33  1  0
 15 34  1  0
 16 35  1  0
 22 36  1  0
 22 37  1  0
 23 38  1  0
 23 39  1  0
 24 40  1  0
 24 41  1  0
 25 42  1  0
 25 43  1  0
M  CHG  4   8  -1  10  -1  12  -1  27  -1
M  END
>  <UniqueID>  (31) 
31

>  <SMILES>  (31) 
O=C(Cc1ccc([O-])c([O-])c1)[N-]c1cccc(S(=O)(=O)N2CCCC2)c1[O-]

>  <Energy>  (31) 
51.297735589729086

>  <Genealogy>  (31) 
O=C(Cc1ccc([O-])c([O-])c1)[N-]c1cccc(S(=O)(=O)N2CCCC2)c1[O-] (protonated)
O=C(Cc1ccc([O-])c([O-])c1)[N-]c1cccc(S(=O)(=O)N2CCCC2)c1[O-] (3D coordinates assigned)
O=C(Cc1ccc([O-])c([O-])c1)[N-]c1cccc(S(=O)(=O)N2CCCC2)c1[O-] (nonaromatic ring conformer: 51.297735589729086 kcal/mol)

>  <smiles>  (31) 
O=C(Cc1ccc(O)c(O)c1)Nc1cccc(S(=O)(=O)N2CCCC2)c1O

>  <score_type>  (31) 
oracle

>  <origin>  (31) 
adg

>  <m_score__min__energy>  (31) 
-19.359999999999999

>  <m_primary>  (31) 
energy

$$$$
31:0
     RDKit          3D

 42 44  0  0  0  0  0  0  0  0999 V2000
   58.2129   35.2599   46.1415 H   0  0  0  0  0  0  0  0  0  0  0  0
   57.9590   34.1990   46.0000 C   0  0  0  0  0  0  0  0  0  0  0  0
   57.3260   33.6860   44.9750 O   0  0  0  0  0  0  0  0  0  0  0  0
   57.2230   32.3960   45.1940 C   0  0  0  0  0  0  0  0  0  0  0  0
   56.6440   31.5920   44.3510 N   0  0  0  0  0  0  0  0  0  0  0  0
   57.2230   30.4840   43.6370 C   0  0  0  0  0  0  0  0  0  0  0  0
   56.6620   30.1050   42.5750 O   0  0  0  0  0  0  0  0  0  0  0  0
   58.4170   29.7070   44.1330 C   0  0  0  0  0  0  0  0  0  0  0  0
   58.9624   29.3017   43.2679 H   0  0  0  0  0  0  0  0  0  0  0  0
   59.0517   30.3908   44.7158 H   0  0  0  0  0  0  0  0  0  0  0  0
   58.0090   28.5650   45.0320 C   0  0  0  0  0  0  0  0  0  0  0  0
   58.9790   27.8510   45.7570 C   0  0  0  0  0  0  0  0  0  0  0  0
   60.0390   28.1347   45.6803 H   0  0  0  0  0  0  0  0  0  0  0  0
   58.6020   26.7820   46.5750 C   0  0  0  0  0  0  0  0  0  0  0  0
   59.3641   26.2364   47.1508 H   0  0  0  0  0  0  0  0  0  0  0  0
   57.2600   26.4050   46.6630 C   0  0  0  0  0  0  0  0  0  0  0  0
   56.9660   25.5666   47.3115 H   0  0  0  0  0  0  0  0  0  0  0  0
   56.2910   27.0920   45.9280 C   0  0  0  0  0  0  0  0  0  0  0  0
   54.9570   26.7090   46.0080 O   0  0  0  0  0  0  0  0  0  0  0  0
   56.6630   28.1640   45.1090 C   0  0  0  0  0  0  0  0  0  0  0  0
   55.8991   28.6956   44.5226 H   0  0  0  0  0  0  0  0  0  0  0  0
   57.7860   32.0110   46.3560 N   0  0  0  0  0  0  0  0  0  0  0  0
   58.2510   33.1660   46.8730 C   0  0  0  0  0  0  0  0  0  0  0  0
   58.9590   33.2580   48.1740 C   0  0  0  0  0  0  0  0  0  0  0  0
   60.0590   34.1220   48.3090 C   0  0  0  0  0  0  0  0  0  0  0  0
   60.3837   34.7308   47.4523 H   0  0  0  0  0  0  0  0  0  0  0  0
   60.7420   34.2130   49.5220 C   0  0  0  0  0  0  0  0  0  0  0  0
   61.6033   34.8906   49.6166 H   0  0  0  0  0  0  0  0  0  0  0  0
   60.3360   33.4470   50.6160 C   0  0  0  0  0  0  0  0  0  0  0  0
   60.8800   33.5259   51.5688 H   0  0  0  0  0  0  0  0  0  0  0  0
   59.2410   32.5780   50.5110 C   0  0  0  0  0  0  0  0  0  0  0  0
   58.8540   31.8040   51.6630 N   0  0  0  0  0  0  0  0  0  0  0  0
   58.7740   32.2850   52.5870 H   0  0  0  0  0  0  0  0  0  0  0  0
   58.5130   30.1020   51.6470 S   0  0  0  0  0  0  0  0  0  0  0  0
   57.0290   29.8720   51.6190 O   0  0  0  0  0  0  0  0  0  0  0  0
   59.0700   29.4840   52.8990 O   0  0  0  0  0  0  0  0  0  0  0  0
   59.2900   29.3320   50.2420 C   0  0  0  0  0  0  0  0  0  0  0  0
   60.0312   28.5974   50.5898 H   0  0  0  0  0  0  0  0  0  0  0  0
   58.5272   28.8235   49.6341 H   0  0  0  0  0  0  0  0  0  0  0  0
   59.7916   30.0994   49.6341 H   0  0  0  0  0  0  0  0  0  0  0  0
   58.5550   32.4890   49.2830 C   0  0  0  0  0  0  0  0  0  0  0  0
   57.6939   31.8110   49.1895 H   0  0  0  0  0  0  0  0  0  0  0  0
  1  2  1  0
  2  3  1  0
  3  4  1  0
  4  5  2  0
  5  6  1  0
  6  7  2  0
  6  8  1  0
  8  9  1  0
  8 10  1  0
  8 11  1  0
 11 12  2  0
 12 13  1  0
 12 14  1  0
 14 15  1  0
 14 16  2  0
 16 17  1  0
 16 18  1  0
 18 19  1  0
 18 20  2  0
 20 21  1  0
  4 22  1  0
 22 23  1  0
 23 24  1  0
 24 25  2  0
 25 26  1  0
 25 27  1  0
 27 28  1  0
 27 29  2  0
 29 30  1  0
 29 31  1  0
 31 32  1  0
 32 33  1  0
 32 34  1  0
 34 35  2  0
 34 36  2  0
 34 37  1  0
 37 38  1  0
 37 39  1  0
 37 40  1  0
 31 41  2  0
 41 42  1  0
 23  2  2  0
 41 24  1  0
 20 11  1  0
M  CHG  2  19  -1  22  -1
M  END
>  <UniqueID>  (32) 
32

>  <SMILES>  (32) 
CS(=O)(=O)Nc1cccc(-c2co/c(=N/C(=O)Cc3cccc([O-])c3)[n-]2)c1

>  <Energy>  (32) 
76.91028145901605

>  <Genealogy>  (32) 
CS(=O)(=O)Nc1cccc(-c2coc(=NC(=O)Cc3cccc([O-])c3)[n-]2)c1 (protonated)
CS(=O)(=O)Nc1cccc(-c2co/c(=N/C(=O)Cc3cccc([O-])c3)[n-]2)c1 (cis-trans isomerization)
CS(=O)(=O)Nc1cccc(-c2co/c(=N/C(=O)Cc3cccc([O-])c3)[n-]2)c1 (3D coordinates assigned)
CS(=O)(=O)Nc1cccc(-c2co/c(=N/C(=O)Cc3cccc([O-])c3)[n-]2)c1 (optimized conformer: 76.91028145901605 kcal/mol)

>  <smiles>  (32) 
CS(=O)(=O)Nc1cccc(-c2coc(=NC(=O)Cc3cccc(O)c3)[nH]2)c1

>  <score_type>  (32) 
oracle

>  <origin>  (32) 
adg

>  <m_score__min__energy>  (32) 
-13.76

>  <m_primary>  (32) 
energy

$$$$
32:0
     RDKit          3D

 56 59  0  0  0  0  0  0  0  0999 V2000
   57.3530   25.1510   44.8470 C   0  0  0  0  0  0  0  0  0  0  0  0
   56.7270   25.9400   46.3120 S   0  0  0  0  0  0  0  0  0  0  0  0
   55.5210   26.7660   45.9620 O   0  0  0  0  0  0  0  0  0  0  0  0
   56.3220   24.8950   47.3130 O   0  0  0  0  0  0  0  0  0  0  0  0
   57.9770   26.9710   46.9990 C   0  0  0  0  0  0  0  0  0  0  0  0
   59.1600   26.4090   47.4990 C   0  0  0  0  0  0  0  0  0  0  0  0
   60.1470   27.2260   48.0580 C   0  0  0  0  0  0  0  0  0  0  0  0
   59.9580   28.6160   48.1280 C   0  0  0  0  0  0  0  0  0  0  0  0
   60.9730   29.4630   48.7060 N   0  0  0  0  0  0  0  0  0  0  0  0
   61.2620   29.3790   50.0430 C   0  0  0  0  0  0  0  0  0  0  0  0
   60.6660   28.5470   50.7810 O   0  0  0  0  0  0  0  0  0  0  0  0
   62.1880   30.2010   50.5960 N   0  0  0  0  0  0  0  0  0  0  0  0
   62.8320   31.1400   49.8600 C   0  0  0  0  0  0  0  0  0  0  0  0
   63.7590   31.9720   50.4770 O   0  0  0  0  0  0  0  0  0  0  0  0
   62.5440   31.2770   48.4990 C   0  0  0  0  0  0  0  0  0  0  0  0
   63.2080   32.3430   47.7100 C   0  0  0  0  0  0  0  0  0  0  0  0
   62.5690   33.2550   47.0280 N   0  0  0  0  0  0  0  0  0  0  0  0
   61.1610   33.5440   47.0530 C   0  0  0  0  0  0  0  0  0  0  0  0
   60.6460   34.3040   48.1100 C   0  0  0  0  0  0  0  0  0  0  0  0
   59.2870   34.6270   48.1500 C   0  0  0  0  0  0  0  0  0  0  0  0
   58.4300   34.1820   47.1420 C   0  0  0  0  0  0  0  0  0  0  0  0
   58.9230   33.3840   46.1000 C   0  0  0  0  0  0  0  0  0  0  0  0
   57.8440   32.8230   44.8180 S   0  0  0  0  0  0  0  0  0  0  0  0
   58.4890   33.0800   43.4850 O   0  0  0  0  0  0  0  0  0  0  0  0
   56.5630   33.6060   44.8730 O   0  0  0  0  0  0  0  0  0  0  0  0
   57.4890   31.1170   44.9710 N   0  0  0  0  0  0  0  0  0  0  0  0
   58.6180   30.3100   44.4700 C   0  0  0  0  0  0  0  0  0  0  0  0
   58.1530   28.8890   44.1150 C   0  0  0  0  0  0  0  0  0  0  0  0
   57.1480   28.8430   43.1080 O   0  0  0  0  0  0  0  0  0  0  0  0
   56.3940   30.0410   42.9950 C   0  0  0  0  0  0  0  0  0  0  0  0
   56.1990   30.7670   44.3380 C   0  0  0  0  0  0  0  0  0  0  0  0
   60.2830   33.0490   46.0710 C   0  0  0  0  0  0  0  0  0  0  0  0
   61.6290   30.3760   47.9220 C   0  0  0  0  0  0  0  0  0  0  0  0
   61.4280   30.4020   46.6750 O   0  0  0  0  0  0  0  0  0  0  0  0
   58.7700   29.1750   47.6330 C   0  0  0  0  0  0  0  0  0  0  0  0
   57.7840   28.3580   47.0750 C   0  0  0  0  0  0  0  0  0  0  0  0
   58.0133   24.3188   45.1324 H   0  0  0  0  0  0  0  0  0  0  0  0
   56.5129   24.7648   44.2511 H   0  0  0  0  0  0  0  0  0  0  0  0
   57.9201   25.8812   44.2511 H   0  0  0  0  0  0  0  0  0  0  0  0
   59.3122   25.3206   47.4513 H   0  0  0  0  0  0  0  0  0  0  0  0
   61.0748   26.7788   48.4443 H   0  0  0  0  0  0  0  0  0  0  0  0
   64.3077   32.3669   47.6986 H   0  0  0  0  0  0  0  0  0  0  0  0
   61.3143   34.6485   48.9129 H   0  0  0  0  0  0  0  0  0  0  0  0
   58.8915   35.2336   48.9781 H   0  0  0  0  0  0  0  0  0  0  0  0
   57.3655   34.4581   47.1653 H   0  0  0  0  0  0  0  0  0  0  0  0
   59.0339   30.7891   43.5714 H   0  0  0  0  0  0  0  0  0  0  0  0
   59.3841   30.2458   45.2568 H   0  0  0  0  0  0  0  0  0  0  0  0
   59.0241   28.3185   43.7605 H   0  0  0  0  0  0  0  0  0  0  0  0
   57.7095   28.4623   45.0267 H   0  0  0  0  0  0  0  0  0  0  0  0
   56.9171   30.7189   42.3045 H   0  0  0  0  0  0  0  0  0  0  0  0
   55.3953   29.7637   42.6267 H   0  0  0  0  0  0  0  0  0  0  0  0
   55.6273   31.6903   44.1629 H   0  0  0  0  0  0  0  0  0  0  0  0
   55.6608   30.0884   45.0161 H   0  0  0  0  0  0  0  0  0  0  0  0
   60.6673   32.3943   45.2749 H   0  0  0  0  0  0  0  0  0  0  0  0
   58.6143   30.2627   47.6847 H   0  0  0  0  0  0  0  0  0  0  0  0
   56.8534   28.8038   46.6940 H   0  0  0  0  0  0  0  0  0  0  0  0
  1  2  1  0
  2  3  2  0
  2  4  2  0
  2  5  1  0
  5  6  2  0
  6  7  1  0
  7  8  2  0
  8  9  1  0
  9 10  1  0
 10 11  2  0
 10 12  1  0
 12 13  1  0
 13 14  1  0
 13 15  2  0
 15 16  1  0
 16 17  2  3
 17 18  1  0
 18 19  2  0
 19 20  1  0
 20 21  2  0
 21 22  1  0
 22 23  1  0
 23 24  2  0
 23 25  2  0
 23 26  1  0
 26 27  1  0
 27 28  1  0
 28 29  1  0
 29 30  1  0
 30 31  1  0
 22 32  2  0
 15 33  1  0
 33 34  2  0
  8 35  1  0
 35 36  2  0
 36  5  1  0
 33  9  1  0
 32 18  1  0
 31 26  1  0
  1 37  1  0
  1 38  1  0
  1 39  1  0
  6 40  1  0
  7 41  1  0
 16 42  1  0
 19 43  1  0
 20 44  1  0
 21 45  1  0
 27 46  1  0
 27 47  1  0
 28 48  1  0
 28 49  1  0
 30 50  1  0
 30 51  1  0
 31 52  1  0
 31 53  1  0
 32 54  1  0
 35 55  1  0
 36 56  1  0
M  CHG  2  12  -1  14  -1
M  END
>  <UniqueID>  (33) 
33

>  <SMILES>  (33) 
CS(=O)(=O)c1ccc(-n2c(=O)[n-]c([O-])c(C=Nc3cccc(S(=O)(=O)N4CCOCC4)c3)c2=O)cc1

>  <Energy>  (33) 
90.21923162467016

>  <Genealogy>  (33) 
CS(=O)(=O)c1ccc(-n2c(=O)[n-]c([O-])c(C=Nc3cccc(S(=O)(=O)N4CCOCC4)c3)c2=O)cc1 (protonated)
CS(=O)(=O)c1ccc(-n2c(=O)[n-]c([O-])c(C=Nc3cccc(S(=O)(=O)N4CCOCC4)c3)c2=O)cc1 (3D coordinates assigned)
CS(=O)(=O)c1ccc(-n2c(=O)[n-]c([O-])c(C=Nc3cccc(S(=O)(=O)N4CCOCC4)c3)c2=O)cc1 (nonaromatic ring conformer: 90.21923162467016 kcal/mol)

>  <smiles>  (33) 
CS(=O)(=O)c1ccc(-n2c(=O)[nH]c(O)c(C=Nc3cccc(S(=O)(=O)N4CCOCC4)c3)c2=O)cc1

>  <score_type>  (33) 
oracle

>  <origin>  (33) 
adg

>  <m_score__min__energy>  (33) 
-12

>  <m_primary>  (33) 
energy

$$$$
33:0
     RDKit          3D

 39 41  0  0  0  0  0  0  0  0999 V2000
   59.9870   27.1400   46.2780 C   0  0  0  0  0  0  0  0  0  0  0  0
   59.1420   27.8530   45.5150 C   0  0  0  0  0  0  0  0  0  0  0  0
   58.1670   27.3360   44.6450 C   0  0  0  0  0  0  0  0  0  0  0  0
   57.6880   26.0870   44.4910 C   0  0  0  0  0  0  0  0  0  0  0  0
   57.0500   25.2750   45.5420 C   0  0  0  0  0  0  0  0  0  0  0  0
   57.5940   24.1760   46.0970 N   0  0  0  0  0  0  0  0  0  0  0  0
   56.7270   23.8650   47.0850 C   0  0  0  0  0  0  0  0  0  0  0  0
   56.8860   22.8690   47.8380 O   0  0  0  0  0  0  0  0  0  0  0  0
   55.6840   24.7130   47.2110 N   0  0  0  0  0  0  0  0  0  0  0  0
   55.9130   25.6070   46.2350 C   0  0  0  0  0  0  0  0  0  0  0  0
   55.1010   26.7070   45.9870 O   0  0  0  0  0  0  0  0  0  0  0  0
   57.7050   28.4070   43.9020 C   0  0  0  0  0  0  0  0  0  0  0  0
   58.3390   29.5330   44.3810 C   0  0  0  0  0  0  0  0  0  0  0  0
   58.1150   30.9130   43.8390 C   0  0  0  0  0  0  0  0  0  0  0  0
   59.2160   29.2060   45.3610 N   0  0  0  0  0  0  0  0  0  0  0  0
   60.1370   30.1440   46.0290 C   0  0  0  0  0  0  0  0  0  0  0  0
   59.4000   31.0660   47.0130 C   0  0  0  0  0  0  0  0  0  0  0  0
   59.5070   32.5200   46.6230 C   0  0  0  0  0  0  0  0  0  0  0  0
   60.7300   33.1960   46.7810 C   0  0  0  0  0  0  0  0  0  0  0  0
   60.8320   34.5540   46.4720 C   0  0  0  0  0  0  0  0  0  0  0  0
   59.7140   35.2520   46.0020 C   0  0  0  0  0  0  0  0  0  0  0  0
   59.8170   36.6030   45.6970 O   0  0  0  0  0  0  0  0  0  0  0  0
   58.4940   34.5890   45.8430 C   0  0  0  0  0  0  0  0  0  0  0  0
   58.3840   33.2300   46.1540 C   0  0  0  0  0  0  0  0  0  0  0  0
   57.1550   32.5950   46.0050 O   0  0  0  0  0  0  0  0  0  0  0  0
   60.7126   27.6554   46.9244 H   0  0  0  0  0  0  0  0  0  0  0  0
   59.9534   26.0407   46.2564 H   0  0  0  0  0  0  0  0  0  0  0  0
   57.7812   25.6332   43.4933 H   0  0  0  0  0  0  0  0  0  0  0  0
   56.9708   28.3676   43.0839 H   0  0  0  0  0  0  0  0  0  0  0  0
   58.0002   31.6205   44.6734 H   0  0  0  0  0  0  0  0  0  0  0  0
   58.9768   31.2093   43.2230 H   0  0  0  0  0  0  0  0  0  0  0  0
   57.2037   30.9215   43.2230 H   0  0  0  0  0  0  0  0  0  0  0  0
   60.8940   29.5672   46.5807 H   0  0  0  0  0  0  0  0  0  0  0  0
   60.6037   30.7727   45.2563 H   0  0  0  0  0  0  0  0  0  0  0  0
   58.3373   30.7827   47.0353 H   0  0  0  0  0  0  0  0  0  0  0  0
   59.8676   30.9468   48.0015 H   0  0  0  0  0  0  0  0  0  0  0  0
   61.6117   32.6517   47.1503 H   0  0  0  0  0  0  0  0  0  0  0  0
   61.7922   35.0756   46.5982 H   0  0  0  0  0  0  0  0  0  0  0  0
   57.6165   35.1385   45.4716 H   0  0  0  0  0  0  0  0  0  0  0  0
  1  2  2  0
  2  3  1  0
  3  4  2  3
  4  5  1  0
  5  6  1  0
  6  7  1  0
  7  8  2  0
  7  9  1  0
  9 10  1  0
 10 11  1  0
  3 12  1  0
 12 13  2  0
 13 14  1  0
 13 15  1  0
 15 16  1  0
 16 17  1  0
 17 18  1  0
 18 19  2  0
 19 20  1  0
 20 21  2  0
 21 22  1  0
 21 23  1  0
 23 24  2  0
 24 25  1  0
 15  2  1  0
 24 18  1  0
 10  5  2  0
  1 26  1  0
  1 27  1  0
  4 28  1  0
 12 29  1  0
 14 30  1  0
 14 31  1  0
 14 32  1  0
 16 33  1  0
 16 34  1  0
 17 35  1  0
 17 36  1  0
 19 37  1  0
 20 38  1  0
 23 39  1  0
M  CHG  5   6  -1   9  -1  11  -1  22  -1  25  -1
M  END
>  <UniqueID>  (34) 
34

>  <SMILES>  (34) 
C=c1c(=Cc2[n-]c(=O)[n-]c2[O-])cc(C)n1CCc1ccc([O-])cc1[O-]

>  <Energy>  (34) 
106.7362963909155

>  <Genealogy>  (34) 
C=c1c(=Cc2[n-]c(=O)[n-]c2[O-])cc(C)n1CCc1ccc([O-])cc1[O-] (protonated)
C=c1c(=Cc2[n-]c(=O)[n-]c2[O-])cc(C)n1CCc1ccc([O-])cc1[O-] (3D coordinates assigned)
C=c1c(=Cc2[n-]c(=O)[n-]c2[O-])cc(C)n1CCc1ccc([O-])cc1[O-] (optimized conformer: 106.7362963909155 kcal/mol)

>  <smiles>  (34) 
C=c1c(=Cc2[nH]c(=O)[nH]c2O)cc(C)n1CCc1ccc(O)cc1O

>  <score_type>  (34) 
oracle

>  <origin>  (34) 
adg

>  <m_score__min__energy>  (34) 
-17.210000000000001

>  <m_primary>  (34) 
energy

$$$$
34:0
     RDKit          3D

 27 28  0  0  0  0  0  0  0  0999 V2000
   56.5260   29.6320   45.4730 O   0  0  0  0  0  0  0  0  0  0  0  0
   56.8630   28.4210   45.3870 C   0  0  0  0  0  0  0  0  0  0  0  0
   55.9660   27.4520   45.6820 N   0  0  0  0  0  0  0  0  0  0  0  0
   56.2920   26.1350   45.6150 C   0  0  0  0  0  0  0  0  0  0  0  0
   55.3910   25.2830   45.8360 O   0  0  0  0  0  0  0  0  0  0  0  0
   57.5730   25.7440   45.2870 N   0  0  0  0  0  0  0  0  0  0  0  0
   57.9010   24.2910   45.2170 C   0  0  2  0  0  0  0  0  0  0  0  0
   57.4640   23.6550   43.9290 C   0  0  0  0  0  0  0  0  0  0  0  0
   57.0370   22.4120   44.1170 C   0  0  0  0  0  0  0  0  0  0  0  0
   56.6280   21.4900   43.0040 C   0  0  0  0  0  0  0  0  0  0  0  0
   56.2780   20.2330   43.5160 O   0  0  0  0  0  0  0  0  0  0  0  0
   57.0410   22.0290   45.5570 C   0  0  1  0  0  0  0  0  0  0  0  0
   58.1320   21.1870   45.8140 O   0  0  0  0  0  0  0  0  0  0  0  0
   57.2150   23.3790   46.2620 C   0  0  0  0  0  0  0  0  0  0  0  0
   58.4690   26.7130   44.9000 C   0  0  0  0  0  0  0  0  0  0  0  0
   58.1410   28.0670   44.9680 C   0  0  0  0  0  0  0  0  0  0  0  0
   59.3220   29.2860   44.5060 Cl  0  0  0  0  0  0  0  0  0  0  0  0
   58.9892   24.3350   45.3716 H   0  0  0  0  0  0  0  0  0  0  0  0
   57.4939   24.1568   42.9506 H   0  0  0  0  0  0  0  0  0  0  0  0
   55.7641   21.9199   42.4759 H   0  0  0  0  0  0  0  0  0  0  0  0
   57.4732   21.3705   42.3102 H   0  0  0  0  0  0  0  0  0  0  0  0
   57.0210   19.9540   44.1140 H   0  0  0  0  0  0  0  0  0  0  0  0
   56.1420   21.4859   45.8838 H   0  0  0  0  0  0  0  0  0  0  0  0
   58.1080   20.4780   45.1190 H   0  0  0  0  0  0  0  0  0  0  0  0
   56.2379   23.7918   46.5533 H   0  0  0  0  0  0  0  0  0  0  0  0
   57.8071   23.2900   47.1848 H   0  0  0  0  0  0  0  0  0  0  0  0
   59.4613   26.4151   44.5305 H   0  0  0  0  0  0  0  0  0  0  0  0
  1  2  2  0
  2  3  1  0
  3  4  1  0
  4  5  2  0
  4  6  1  0
  6  7  1  0
  7  8  1  0
  8  9  2  0
  9 10  1  0
 10 11  1  0
  9 12  1  0
 12 13  1  0
 12 14  1  0
  6 15  1  0
 15 16  2  0
 16 17  1  0
 16  2  1  0
 14  7  1  0
  7 18  1  1
  8 19  1  0
 10 20  1  0
 10 21  1  0
 11 22  1  0
 12 23  1  1
 13 24  1  0
 14 25  1  0
 14 26  1  0
 15 27  1  0
M  CHG  1   3  -1
M  END
>  <UniqueID>  (35) 
35

>  <SMILES>  (35) 
O=c1[n-]c(=O)n([C@@H]2C=C(CO)[C@@H](O)C2)cc1Cl

>  <Energy>  (35) 
42.10403817559011

>  <Genealogy>  (35) 
O=c1[n-]c(=O)n(C2C=C(CO)C(O)C2)cc1Cl (protonated)
O=c1[n-]c(=O)n([C@@H]2C=C(CO)[C@@H](O)C2)cc1Cl (chirality)
O=c1[n-]c(=O)n([C@@H]2C=C(CO)[C@@H](O)C2)cc1Cl (3D coordinates assigned)
O=c1[n-]c(=O)n([C@@H]2C=C(CO)[C@@H](O)C2)cc1Cl (nonaromatic ring conformer: 42.10403817559011 kcal/mol)

>  <smiles>  (35) 
O=c1[nH]c(=O)n(C2C=C(CO)C(O)C2)cc1Cl

>  <score_type>  (35) 
oracle

>  <origin>  (35) 
adg

>  <m_score__min__energy>  (35) 
-8.3000000000000007

>  <m_primary>  (35) 
energy

$$$$
35:0
     RDKit          3D

 63 66  0  0  0  0  0  0  0  0999 V2000
   61.7051   34.5639   47.8553 H   0  0  0  0  0  0  0  0  0  0  0  0
   60.7870   34.1700   47.3950 C   0  0  0  0  0  0  0  0  0  0  0  0
   60.6010   34.1400   46.0470 N   0  0  0  0  0  0  0  0  0  0  0  0
   59.4050   33.6090   45.7170 C   0  0  0  0  0  0  0  0  0  0  0  0
   59.0240   33.4740   44.4810 N   0  0  0  0  0  0  0  0  0  0  0  0
   57.7130   32.9950   44.0430 C   0  0  0  0  0  0  0  0  0  0  0  0
   57.4747   33.4491   43.0699 H   0  0  0  0  0  0  0  0  0  0  0  0
   56.9723   33.2810   44.8043 H   0  0  0  0  0  0  0  0  0  0  0  0
   57.6840   31.4580   43.8980 C   0  0  1  0  0  0  0  0  0  0  0  0
   58.6786   31.1448   43.5478 H   0  0  0  0  0  0  0  0  0  0  0  0
   57.3940   30.7880   45.2620 C   0  0  0  0  0  0  0  0  0  0  0  0
   58.3494   30.6250   45.7822 H   0  0  0  0  0  0  0  0  0  0  0  0
   56.7291   31.4609   45.8234 H   0  0  0  0  0  0  0  0  0  0  0  0
   56.6690   29.4300   45.1280 C   0  0  0  0  0  0  0  0  0  0  0  0
   56.9284   28.8077   45.9972 H   0  0  0  0  0  0  0  0  0  0  0  0
   55.5902   29.6386   45.0770 H   0  0  0  0  0  0  0  0  0  0  0  0
   57.0350   28.6920   43.8930 N   0  0  2  0  0  0  0  0  0  0  0  0
   56.4120   27.8500   43.8760 H   0  0  0  0  0  0  0  0  0  0  0  0
   58.4420   28.1980   43.9150 C   0  0  0  0  0  0  0  0  0  0  0  0
   59.1098   29.0212   43.6212 H   0  0  0  0  0  0  0  0  0  0  0  0
   58.5111   27.3526   43.2147 H   0  0  0  0  0  0  0  0  0  0  0  0
   58.8600   27.6970   45.2880 C   0  0  0  0  0  0  0  0  0  0  0  0
   58.2530   26.5330   45.7930 C   0  0  0  0  0  0  0  0  0  0  0  0
   57.5106   25.9981   45.1824 H   0  0  0  0  0  0  0  0  0  0  0  0
   58.5820   26.0490   47.0600 C   0  0  0  0  0  0  0  0  0  0  0  0
   58.0954   25.1404   47.4442 H   0  0  0  0  0  0  0  0  0  0  0  0
   59.5260   26.7150   47.8390 C   0  0  0  0  0  0  0  0  0  0  0  0
   59.7825   26.3319   48.8377 H   0  0  0  0  0  0  0  0  0  0  0  0
   60.1460   27.8660   47.3550 C   0  0  0  0  0  0  0  0  0  0  0  0
   60.8904   28.3849   47.9768 H   0  0  0  0  0  0  0  0  0  0  0  0
   59.8310   28.3710   46.0820 C   0  0  0  0  0  0  0  0  0  0  0  0
   60.4930   29.6630   45.6470 C   0  0  0  0  0  0  0  0  0  0  0  0
   59.8041   30.2179   44.9932 H   0  0  0  0  0  0  0  0  0  0  0  0
   61.4208   29.4180   45.1093 H   0  0  0  0  0  0  0  0  0  0  0  0
   60.8440   30.5300   46.8530 C   0  0  0  0  0  0  0  0  0  0  0  0
   60.6208   29.9787   47.7783 H   0  0  0  0  0  0  0  0  0  0  0  0
   61.9146   30.7811   46.8249 H   0  0  0  0  0  0  0  0  0  0  0  0
   60.2496   31.4551   46.8249 H   0  0  0  0  0  0  0  0  0  0  0  0
   56.7190   29.4670   42.6550 C   0  0  0  0  0  0  0  0  0  0  0  0
   57.4945   29.2487   41.9060 H   0  0  0  0  0  0  0  0  0  0  0  0
   55.7134   29.1531   42.3383 H   0  0  0  0  0  0  0  0  0  0  0  0
   56.6580   31.0000   42.8540 C   0  0  0  0  0  0  0  0  0  0  0  0
   56.8729   31.4963   41.8961 H   0  0  0  0  0  0  0  0  0  0  0  0
   55.6520   31.2684   43.2088 H   0  0  0  0  0  0  0  0  0  0  0  0
   58.5250   33.1560   47.0830 S   0  0  0  0  0  0  0  0  0  0  0  0
   59.7290   33.6650   48.1500 C   0  0  0  0  0  0  0  0  0  0  0  0
   59.7430   33.4860   49.6180 C   0  0  0  0  0  0  0  0  0  0  0  0
   60.5120   34.2060   50.3110 O   0  0  0  0  0  0  0  0  0  0  0  0
   58.9590   32.4290   50.2970 C   0  0  0  0  0  0  0  0  0  0  0  0
   58.1290   32.7190   51.3940 C   0  0  0  0  0  0  0  0  0  0  0  0
   58.0761   33.7462   51.7839 H   0  0  0  0  0  0  0  0  0  0  0  0
   57.3690   31.7060   51.9930 C   0  0  0  0  0  0  0  0  0  0  0  0
   56.7099   31.9473   52.8400 H   0  0  0  0  0  0  0  0  0  0  0  0
   57.4410   30.3890   51.5230 C   0  0  0  0  0  0  0  0  0  0  0  0
   56.6430   29.4130   52.1430 O   0  0  0  0  0  0  0  0  0  0  0  0
   55.3690   29.6710   52.7280 C   0  0  0  0  0  0  0  0  0  0  0  0
   55.4584   29.6529   53.8242 H   0  0  0  0  0  0  0  0  0  0  0  0
   55.0110   30.6599   52.4056 H   0  0  0  0  0  0  0  0  0  0  0  0
   54.6544   28.8993   52.4056 H   0  0  0  0  0  0  0  0  0  0  0  0
   58.3030   30.0900   50.4500 C   0  0  0  0  0  0  0  0  0  0  0  0
   58.3831   29.0559   50.0836 H   0  0  0  0  0  0  0  0  0  0  0  0
   59.0580   31.1030   49.8480 C   0  0  0  0  0  0  0  0  0  0  0  0
   59.7346   30.8579   49.0160 H   0  0  0  0  0  0  0  0  0  0  0  0
  1  2  1  0
  2  3  1  0
  3  4  1  0
  4  5  2  0
  5  6  1  0
  6  7  1  0
  6  8  1  0
  6  9  1  0
  9 10  1  6
  9 11  1  0
 11 12  1  0
 11 13  1  0
 11 14  1  0
 14 15  1  0
 14 16  1  0
 14 17  1  0
 17 18  1  6
 17 19  1  0
 19 20  1  0
 19 21  1  0
 19 22  1  0
 22 23  2  0
 23 24  1  0
 23 25  1  0
 25 26  1  0
 25 27  2  0
 27 28  1  0
 27 29  1  0
 29 30  1  0
 29 31  2  0
 31 32  1  0
 32 33  1  0
 32 34  1  0
 32 35  1  0
 35 36  1  0
 35 37  1  0
 35 38  1  0
 17 39  1  0
 39 40  1  0
 39 41  1  0
 39 42  1  0
 42 43  1  0
 42 44  1  0
  4 45  1  0
 45 46  1  0
 46 47  1  0
 47 48  2  0
 47 49  1  0
 49 50  2  0
 50 51  1  0
 50 52  1  0
 52 53  1  0
 52 54  2  0
 54 55  1  0
 55 56  1  0
 56 57  1  0
 56 58  1  0
 56 59  1  0
 54 60  1  0
 60 61  1  0
 60 62  2  0
 62 63  1  0
 46  2  2  0
 62 49  1  0
 42  9  1  0
 31 22  1  0
M  CHG  2   3  -1  17   1
M  END
>  <UniqueID>  (36) 
36

>  <SMILES>  (36) 
CCc1ccccc1C[NH+]1CCC(C/N=c2/[n-]cc(C(=O)c3ccc(OC)cc3)s2)CC1

>  <Energy>  (36) 
109.35769850187987

>  <Genealogy>  (36) 
CCc1ccccc1C[NH+]1CCC(CN=c2[n-]cc(C(=O)c3ccc(OC)cc3)s2)CC1 (protonated)
CCc1ccccc1C[NH+]1CCC(C/N=c2/[n-]cc(C(=O)c3ccc(OC)cc3)s2)CC1 (cis-trans isomerization)
CCc1ccccc1C[NH+]1CCC(C/N=c2/[n-]cc(C(=O)c3ccc(OC)cc3)s2)CC1 (3D coordinates assigned)
CCc1ccccc1C[NH+]1CCC(C/N=c2/[n-]cc(C(=O)c3ccc(OC)cc3)s2)CC1 (nonaromatic ring conformer: 109.35769850187987 kcal/mol)

>  <smiles>  (36) 
CCc1ccccc1CN1CCC(CN=c2[nH]cc(C(=O)c3ccc(OC)cc3)s2)CC1

>  <score_type>  (36) 
oracle

>  <origin>  (36) 
adg

>  <m_score__min__energy>  (36) 
-9.6099999999999994

>  <m_primary>  (36) 
energy

$$$$
36:0
     RDKit          3D

 38 40  0  0  0  0  0  0  0  0999 V2000
   59.1920   30.0160   44.5960 C   0  0  0  0  0  0  0  0  0  0  0  0
   58.9230   29.6710   45.8650 C   0  0  0  0  0  0  0  0  0  0  0  0
   58.3850   28.4590   46.3230 C   0  0  0  0  0  0  0  0  0  0  0  0
   57.8100   27.4400   45.6550 C   0  0  0  0  0  0  0  0  0  0  0  0
   57.2600   26.2200   46.2690 C   0  0  0  0  0  0  0  0  0  0  0  0
   57.9930   25.1620   46.6640 N   0  0  0  0  0  0  0  0  0  0  0  0
   57.0600   24.2540   47.0220 C   0  0  0  0  0  0  0  0  0  0  0  0
   57.3590   23.1150   47.4680 O   0  0  0  0  0  0  0  0  0  0  0  0
   55.7820   24.6560   46.8540 N   0  0  0  0  0  0  0  0  0  0  0  0
   55.9280   25.8960   46.3620 C   0  0  0  0  0  0  0  0  0  0  0  0
   54.8660   26.7160   46.0020 O   0  0  0  0  0  0  0  0  0  0  0  0
   58.5250   28.4690   47.7030 C   0  0  0  0  0  0  0  0  0  0  0  0
   59.0600   29.6940   48.0400 C   0  0  0  0  0  0  0  0  0  0  0  0
   59.3990   30.1320   49.4320 C   0  0  0  0  0  0  0  0  0  0  0  0
   59.2930   30.4250   46.9300 N   0  0  0  0  0  0  0  0  0  0  0  0
   59.9210   31.7170   46.9000 C   0  0  0  0  0  0  0  0  0  0  0  0
   61.3080   31.8080   47.0880 C   0  0  0  0  0  0  0  0  0  0  0  0
   61.9450   33.0490   47.0480 C   0  0  0  0  0  0  0  0  0  0  0  0
   61.2010   34.2080   46.8170 C   0  0  0  0  0  0  0  0  0  0  0  0
   59.8190   34.1300   46.6320 C   0  0  0  0  0  0  0  0  0  0  0  0
   59.1620   32.8890   46.6830 C   0  0  0  0  0  0  0  0  0  0  0  0
   57.6700   32.8290   46.4610 C   0  0  0  0  0  0  0  0  0  0  0  0
   57.3620   32.4960   45.0350 C   0  0  0  0  0  0  0  0  0  0  0  0
   57.8870   33.1580   44.1010 O   0  0  0  0  0  0  0  0  0  0  0  0
   56.5040   31.4450   44.7350 O   0  0  0  0  0  0  0  0  0  0  0  0
   59.6161   31.0062   44.3734 H   0  0  0  0  0  0  0  0  0  0  0  0
   58.9883   29.3085   43.7787 H   0  0  0  0  0  0  0  0  0  0  0  0
   57.7462   27.5267   44.5603 H   0  0  0  0  0  0  0  0  0  0  0  0
   58.2602   27.6561   48.3951 H   0  0  0  0  0  0  0  0  0  0  0  0
   58.8922   29.4772   50.1561 H   0  0  0  0  0  0  0  0  0  0  0  0
   60.4871   30.0705   49.5810 H   0  0  0  0  0  0  0  0  0  0  0  0
   59.0666   31.1699   49.5810 H   0  0  0  0  0  0  0  0  0  0  0  0
   61.8967   30.8964   47.2679 H   0  0  0  0  0  0  0  0  0  0  0  0
   63.0327   33.1142   47.1984 H   0  0  0  0  0  0  0  0  0  0  0  0
   61.7049   35.1851   46.7807 H   0  0  0  0  0  0  0  0  0  0  0  0
   59.2406   35.0468   46.4450 H   0  0  0  0  0  0  0  0  0  0  0  0
   57.2383   32.0562   47.1139 H   0  0  0  0  0  0  0  0  0  0  0  0
   57.2368   33.8123   46.6968 H   0  0  0  0  0  0  0  0  0  0  0  0
  1  2  2  0
  2  3  1  0
  3  4  2  3
  4  5  1  0
  5  6  1  0
  6  7  1  0
  7  8  2  0
  7  9  1  0
  9 10  1  0
 10 11  1  0
  3 12  1  0
 12 13  2  0
 13 14  1  0
 13 15  1  0
 15 16  1  0
 16 17  2  0
 17 18  1  0
 18 19  2  0
 19 20  1  0
 20 21  2  0
 21 22  1  0
 22 23  1  0
 23 24  2  0
 23 25  1  0
 15  2  1  0
 21 16  1  0
 10  5  2  0
  1 26  1  0
  1 27  1  0
  4 28  1  0
 12 29  1  0
 14 30  1  0
 14 31  1  0
 14 32  1  0
 17 33  1  0
 18 34  1  0
 19 35  1  0
 20 36  1  0
 22 37  1  0
 22 38  1  0
M  CHG  4   6  -1   9  -1  11  -1  25  -1
M  END
>  <UniqueID>  (37) 
37

>  <SMILES>  (37) 
C=c1c(=Cc2[n-]c(=O)[n-]c2[O-])cc(C)n1-c1ccccc1CC(=O)[O-]

>  <Energy>  (37) 
113.11034242217285

>  <Genealogy>  (37) 
C=c1c(=Cc2[n-]c(=O)[n-]c2[O-])cc(C)n1-c1ccccc1CC(=O)[O-] (protonated)
C=c1c(=Cc2[n-]c(=O)[n-]c2[O-])cc(C)n1-c1ccccc1CC(=O)[O-] (3D coordinates assigned)
C=c1c(=Cc2[n-]c(=O)[n-]c2[O-])cc(C)n1-c1ccccc1CC(=O)[O-] (optimized conformer: 113.11034242217285 kcal/mol)

>  <smiles>  (37) 
C=c1c(=Cc2[nH]c(=O)[nH]c2O)cc(C)n1-c1ccccc1CC(=O)O

>  <score_type>  (37) 
oracle

>  <origin>  (37) 
adg

>  <m_score__min__energy>  (37) 
-16.260000000000002

>  <m_primary>  (37) 
energy

$$$$
37:0
     RDKit          3D

 67 70  0  0  0  0  0  0  0  0999 V2000
   63.1120   31.1860   52.7140 C   0  0  0  0  0  0  0  0  0  0  0  0
   63.1570   32.6450   52.2890 C   0  0  0  0  0  0  0  0  0  0  0  0
   63.2390   32.7690   50.8340 C   0  0  0  0  0  0  0  0  0  0  0  0
   62.1130   32.9050   50.0560 C   0  0  0  0  0  0  0  0  0  0  0  0
   60.4950   32.8800   50.6210 S   0  0  0  0  0  0  0  0  0  0  0  0
   59.4940   33.2280   49.5340 O   0  0  0  0  0  0  0  0  0  0  0  0
   60.2740   33.8810   51.7090 O   0  0  0  0  0  0  0  0  0  0  0  0
   59.9730   31.2970   51.2230 C   0  0  0  0  0  0  0  0  0  0  0  0
   59.8840   30.3150   50.0800 C   0  0  0  0  0  0  0  0  0  0  0  0
   58.8620   30.4520   49.1440 C   0  0  0  0  0  0  0  0  0  0  0  0
   58.7820   29.5440   48.0880 C   0  0  0  0  0  0  0  0  0  0  0  0
   59.7180   28.5350   47.9980 C   0  0  0  0  0  0  0  0  0  0  0  0
   60.7430   28.3930   48.9310 C   0  0  0  0  0  0  0  0  0  0  0  0
   60.8220   29.2920   49.9770 C   0  0  0  0  0  0  0  0  0  0  0  0
   62.3430   33.0430   48.6800 C   0  0  0  0  0  0  0  0  0  0  0  0
   61.2410   33.1980   47.7340 C   0  0  0  0  0  0  0  0  0  0  0  0
   60.7490   34.4990   47.5920 C   0  0  0  0  0  0  0  0  0  0  0  0
   59.7120   34.7360   46.7170 C   0  0  0  0  0  0  0  0  0  0  0  0
   59.1740   33.6710   45.9880 C   0  0  0  0  0  0  0  0  0  0  0  0
   58.0610   34.0240   45.0650 C   0  0  0  0  0  0  0  0  0  0  0  0
   57.0450   32.9190   44.9110 C   0  0  0  0  0  0  0  0  0  0  0  0
   57.6660   31.8130   44.2300 N   0  0  0  0  0  0  0  0  0  0  0  0
   57.4630   30.4480   44.5610 C   0  0  0  0  0  0  0  0  0  0  0  0
   56.7130   30.0770   45.4850 O   0  0  0  0  0  0  0  0  0  0  0  0
   58.1350   29.4310   43.8200 N   0  0  0  0  0  0  0  0  0  0  0  0
   57.9830   28.0440   44.0940 C   0  0  0  0  0  0  0  0  0  0  0  0
   57.9080   27.1860   43.0040 C   0  0  0  0  0  0  0  0  0  0  0  0
   57.7610   25.8260   43.1420 C   0  0  0  0  0  0  0  0  0  0  0  0
   57.6820   25.3050   44.4170 C   0  0  0  0  0  0  0  0  0  0  0  0
   57.7570   26.1700   45.5000 C   0  0  0  0  0  0  0  0  0  0  0  0
   57.6550   25.4890   47.1120 Cl  0  0  0  0  0  0  0  0  0  0  0  0
   57.9050   27.5280   45.3700 C   0  0  0  0  0  0  0  0  0  0  0  0
   59.6560   32.3830   46.1250 C   0  0  0  0  0  0  0  0  0  0  0  0
   60.7100   32.1450   47.0150 C   0  0  0  0  0  0  0  0  0  0  0  0
   61.2140   30.9020   47.1800 F   0  0  0  0  0  0  0  0  0  0  0  0
   63.6190   33.0420   48.1560 C   0  0  0  0  0  0  0  0  0  0  0  0
   63.8010   33.1730   46.8840 N   0  0  0  0  0  0  0  0  0  0  0  0
   64.6750   32.9050   48.9770 N   0  0  0  0  0  0  0  0  0  0  0  0
   64.4840   32.7720   50.2770 N   0  0  0  0  0  0  0  0  0  0  0  0
   65.6120   32.6320   51.0820 O   0  0  0  0  0  0  0  0  0  0  0  0
   63.1101   31.1239   53.8122 H   0  0  0  0  0  0  0  0  0  0  0  0
   62.1990   30.7169   52.3186 H   0  0  0  0  0  0  0  0  0  0  0  0
   63.9944   30.6615   52.3186 H   0  0  0  0  0  0  0  0  0  0  0  0
   62.2454   33.1498   52.6415 H   0  0  0  0  0  0  0  0  0  0  0  0
   64.0518   33.1090   52.7294 H   0  0  0  0  0  0  0  0  0  0  0  0
   60.7000   30.9305   51.9627 H   0  0  0  0  0  0  0  0  0  0  0  0
   58.9829   31.3969   51.6918 H   0  0  0  0  0  0  0  0  0  0  0  0
   58.1274   31.2656   49.2362 H   0  0  0  0  0  0  0  0  0  0  0  0
   57.9830   29.6316   47.3370 H   0  0  0  0  0  0  0  0  0  0  0  0
   59.6533   27.8205   47.1641 H   0  0  0  0  0  0  0  0  0  0  0  0
   61.4768   27.5790   48.8364 H   0  0  0  0  0  0  0  0  0  0  0  0
   61.6229   29.1997   50.7253 H   0  0  0  0  0  0  0  0  0  0  0  0
   61.1856   35.3247   48.1730 H   0  0  0  0  0  0  0  0  0  0  0  0
   59.3111   35.7528   46.5930 H   0  0  0  0  0  0  0  0  0  0  0  0
   57.5509   34.9161   45.4572 H   0  0  0  0  0  0  0  0  0  0  0  0
   58.5023   34.2036   44.0735 H   0  0  0  0  0  0  0  0  0  0  0  0
   56.6973   32.5949   45.9030 H   0  0  0  0  0  0  0  0  0  0  0  0
   56.1831   33.2803   44.3308 H   0  0  0  0  0  0  0  0  0  0  0  0
   58.3250   32.0030   43.4220 H   0  0  0  0  0  0  0  0  0  0  0  0
   58.7810   29.6870   43.0290 H   0  0  0  0  0  0  0  0  0  0  0  0
   57.9686   27.6112   41.9913 H   0  0  0  0  0  0  0  0  0  0  0  0
   57.7078   25.1711   42.2598 H   0  0  0  0  0  0  0  0  0  0  0  0
   57.5616   24.2227   44.5727 H   0  0  0  0  0  0  0  0  0  0  0  0
   57.9595   28.1819   46.2529 H   0  0  0  0  0  0  0  0  0  0  0  0
   59.2183   31.5579   45.5439 H   0  0  0  0  0  0  0  0  0  0  0  0
   64.5740   32.7140   46.3580 H   0  0  0  0  0  0  0  0  0  0  0  0
   65.6230   32.9090   48.5360 H   0  0  0  0  0  0  0  0  0  0  0  0
  1  2  1  0
  2  3  1  0
  3  4  1  0
  4  5  1  0
  5  6  2  0
  5  7  2  0
  5  8  1  0
  8  9  1  0
  9 10  2  0
 10 11  1  0
 11 12  2  0
 12 13  1  0
 13 14  2  0
  4 15  2  0
 15 16  1  0
 16 17  2  0
 17 18  1  0
 18 19  2  0
 19 20  1  0
 20 21  1  0
 21 22  1  0
 22 23  1  0
 23 24  2  0
 23 25  1  0
 25 26  1  0
 26 27  2  0
 27 28  1  0
 28 29  2  0
 29 30  1  0
 30 31  1  0
 30 32  2  0
 19 33  1  0
 33 34  2  0
 34 35  1  0
 15 36  1  0
 36 37  2  3
 36 38  1  0
 38 39  1  0
 39 40  1  0
 39  3  2  0
 14  9  1  0
 34 16  1  0
 32 26  1  0
  1 41  1  0
  1 42  1  0
  1 43  1  0
  2 44  1  0
  2 45  1  0
  8 46  1  0
  8 47  1  0
 10 48  1  0
 11 49  1  0
 12 50  1  0
 13 51  1  0
 14 52  1  0
 17 53  1  0
 18 54  1  0
 20 55  1  0
 20 56  1  0
 21 57  1  0
 21 58  1  0
 22 59  1  0
 25 60  1  0
 27 61  1  0
 28 62  1  0
 29 63  1  0
 32 64  1  0
 33 65  1  0
 37 66  1  0
 38 67  1  0
M  CHG  2  39   1  40  -1
M  END
>  <smiles>  (38) 
CCc1c(S(=O)(=O)Cc2ccccc2)c(-c2ccc(CCNC(=O)Nc3cccc(Cl)c3)cc2F)c(=N)[nH][n+]1[O-]

>  <score_type>  (38) 
oracle

>  <origin>  (38) 
adg

>  <m_score__min__energy>  (38) 
-10.23

>  <m_primary>  (38) 
energy

$$$$
38:0
     RDKit          3D

 45 48  0  0  0  0  0  0  0  0999 V2000
   60.6480   28.0690   49.7480 C   0  0  0  0  0  0  0  0  0  0  0  0
   59.7970   28.9160   48.9830 O   0  0  0  0  0  0  0  0  0  0  0  0
   59.6360   28.8320   47.5920 C   0  0  0  0  0  0  0  0  0  0  0  0
   60.5740   29.3710   46.6900 C   0  0  0  0  0  0  0  0  0  0  0  0
   60.3720   29.2530   45.3130 C   0  0  0  0  0  0  0  0  0  0  0  0
   59.2360   28.6060   44.8220 C   0  0  0  0  0  0  0  0  0  0  0  0
   58.2850   28.0790   45.7080 C   0  0  0  0  0  0  0  0  0  0  0  0
   57.0830   27.3500   45.1820 C   0  0  0  0  0  0  0  0  0  0  0  0
   55.9130   28.2150   45.2840 N   0  0  0  0  0  0  0  0  0  0  0  0
   55.6580   29.3390   44.4330 C   0  0  0  0  0  0  0  0  0  0  0  0
   54.6100   29.3480   43.7370 O   0  0  0  0  0  0  0  0  0  0  0  0
   56.5560   30.5010   44.3810 C   0  0  0  0  0  0  0  0  0  0  0  0
   57.0250   31.1170   45.4880 N   0  0  0  0  0  0  0  0  0  0  0  0
   57.7730   32.1520   45.0510 C   0  0  0  0  0  0  0  0  0  0  0  0
   58.4830   33.0600   45.9660 C   0  0  0  0  0  0  0  0  0  0  0  0
   58.7870   32.8900   47.2480 C   0  0  0  0  0  0  0  0  0  0  0  0
   58.5180   31.8040   48.0900 C   0  0  0  0  0  0  0  0  0  0  0  0
   58.9720   31.8630   49.4180 C   0  0  0  0  0  0  0  0  0  0  0  0
   59.6920   32.9820   49.8790 C   0  0  0  0  0  0  0  0  0  0  0  0
   59.9770   34.0520   49.0130 C   0  0  0  0  0  0  0  0  0  0  0  0
   59.5210   33.9810   47.6970 C   0  0  0  0  0  0  0  0  0  0  0  0
   59.7500   34.8720   46.7850 N   0  0  0  0  0  0  0  0  0  0  0  0
   59.1130   34.3280   45.6340 C   0  0  0  0  0  0  0  0  0  0  0  0
   59.1060   34.8840   44.5040 O   0  0  0  0  0  0  0  0  0  0  0  0
   57.7820   32.1940   43.6660 C   0  0  0  0  0  0  0  0  0  0  0  0
   58.5550   33.0660   42.8360 N   0  0  0  0  0  0  0  0  0  0  0  0
   56.9900   31.1510   43.2420 C   0  0  0  0  0  0  0  0  0  0  0  0
   56.6560   30.8250   41.9300 O   0  0  0  0  0  0  0  0  0  0  0  0
   58.5000   28.1840   47.0930 C   0  0  0  0  0  0  0  0  0  0  0  0
   60.4722   28.2440   50.8197 H   0  0  0  0  0  0  0  0  0  0  0  0
   60.4311   27.0177   49.5077 H   0  0  0  0  0  0  0  0  0  0  0  0
   61.6983   28.2909   49.5077 H   0  0  0  0  0  0  0  0  0  0  0  0
   61.4680   29.8863   47.0711 H   0  0  0  0  0  0  0  0  0  0  0  0
   61.1103   29.6711   44.6129 H   0  0  0  0  0  0  0  0  0  0  0  0
   59.0865   28.5093   43.7365 H   0  0  0  0  0  0  0  0  0  0  0  0
   57.2491   27.0790   44.1289 H   0  0  0  0  0  0  0  0  0  0  0  0
   56.9186   26.4360   45.7716 H   0  0  0  0  0  0  0  0  0  0  0  0
   57.9654   30.9273   47.7210 H   0  0  0  0  0  0  0  0  0  0  0  0
   58.7634   31.0283   50.1034 H   0  0  0  0  0  0  0  0  0  0  0  0
   60.0337   33.0190   50.9239 H   0  0  0  0  0  0  0  0  0  0  0  0
   60.5464   34.9248   49.3651 H   0  0  0  0  0  0  0  0  0  0  0  0
   59.1460   33.8170   43.2530 H   0  0  0  0  0  0  0  0  0  0  0  0
   58.4930   33.0060   41.7960 H   0  0  0  0  0  0  0  0  0  0  0  0
   55.9140   30.1700   41.7180 H   0  0  0  0  0  0  0  0  0  0  0  0
   57.7682   27.7526   47.7918 H   0  0  0  0  0  0  0  0  0  0  0  0
  1  2  1  0
  2  3  1  0
  3  4  2  0
  4  5  1  0
  5  6  2  0
  6  7  1  0
  7  8  1  0
  8  9  1  0
  9 10  1  0
 10 11  2  0
 10 12  1  0
 12 13  1  0
 13 14  1  0
 14 15  1  0
 15 16  2  0
 16 17  1  0
 17 18  2  0
 18 19  1  0
 19 20  2  0
 20 21  1  0
 21 22  2  0
 22 23  1  0
 23 24  2  0
 14 25  2  0
 25 26  1  0
 25 27  1  0
 27 28  1  0
  7 29  2  0
 29  3  1  0
 27 12  2  0
 23 15  1  0
 21 16  1  0
  1 30  1  0
  1 31  1  0
  1 32  1  0
  4 33  1  0
  5 34  1  0
  6 35  1  0
  8 36  1  0
  8 37  1  0
 17 38  1  0
 18 39  1  0
 19 40  1  0
 20 41  1  0
 26 42  1  0
 26 43  1  0
 28 44  1  0
 29 45  1  0
M  CHG  2   9  -1  13  -1
M  END
>  <UniqueID>  (39) 
38

>  <SMILES>  (39) 
COc1cccc(C[N-]C(=O)c2[n-]c(C3=c4ccccc4=NC3=O)c(N)c2O)c1

>  <Energy>  (39) 
116.39290842603447

>  <Genealogy>  (39) 
COc1cccc(C[N-]C(=O)c2[n-]c(C3=c4ccccc4=NC3=O)c(N)c2O)c1 (protonated)
COc1cccc(C[N-]C(=O)c2[n-]c(C3=c4ccccc4=NC3=O)c(N)c2O)c1 (3D coordinates assigned)
COc1cccc(C[N-]C(=O)c2[n-]c(C3=c4ccccc4=NC3=O)c(N)c2O)c1 (nonaromatic ring conformer: 116.39290842603447 kcal/mol)

>  <smiles>  (39) 
COc1cccc(CNC(=O)c2[nH]c(C3=c4ccccc4=NC3=O)c(N)c2O)c1

>  <score_type>  (39) 
oracle

>  <origin>  (39) 
adg

>  <m_score__min__energy>  (39) 
-11.91

>  <m_primary>  (39) 
energy

$$$$
39:0
     RDKit          3D

 45 47  0  0  0  0  0  0  0  0999 V2000
   55.1360   27.5930   45.5230 H   0  0  0  0  0  0  0  0  0  0  0  0
   55.1520   26.7100   46.0150 O   0  0  0  0  0  0  0  0  0  0  0  0
   56.2930   25.9090   46.1110 C   0  0  0  0  0  0  0  0  0  0  0  0
   56.2070   24.7270   46.8570 C   0  0  0  0  0  0  0  0  0  0  0  0
   55.2684   24.4743   47.3719 H   0  0  0  0  0  0  0  0  0  0  0  0
   57.3030   23.8660   46.9530 C   0  0  0  0  0  0  0  0  0  0  0  0
   57.2030   22.6940   47.6920 O   0  0  0  0  0  0  0  0  0  0  0  0
   58.4990   24.1850   46.3070 C   0  0  0  0  0  0  0  0  0  0  0  0
   59.3611   23.5058   46.3804 H   0  0  0  0  0  0  0  0  0  0  0  0
   58.6020   25.3650   45.5680 C   0  0  0  0  0  0  0  0  0  0  0  0
   59.5478   25.6105   45.0629 H   0  0  0  0  0  0  0  0  0  0  0  0
   57.5080   26.2430   45.4630 C   0  0  0  0  0  0  0  0  0  0  0  0
   57.6630   27.5110   44.7190 C   0  0  0  0  0  0  0  0  0  0  0  0
   56.6690   28.2790   44.6030 O   0  0  0  0  0  0  0  0  0  0  0  0
   58.9880   27.9090   44.1850 C   0  0  0  0  0  0  0  0  0  0  0  0
   59.1697   27.7469   43.1123 H   0  0  0  0  0  0  0  0  0  0  0  0
   59.9840   28.4510   44.9040 C   0  0  0  0  0  0  0  0  0  0  0  0
   60.8767   28.7884   44.3570 H   0  0  0  0  0  0  0  0  0  0  0  0
   59.9780   28.6310   46.3710 C   0  0  0  0  0  0  0  0  0  0  0  0
   60.1240   27.5330   47.2350 C   0  0  0  0  0  0  0  0  0  0  0  0
   60.2963   26.5285   46.8210 H   0  0  0  0  0  0  0  0  0  0  0  0
   60.0510   27.7130   48.6180 C   0  0  0  0  0  0  0  0  0  0  0  0
   60.1756   26.8520   49.2911 H   0  0  0  0  0  0  0  0  0  0  0  0
   59.8200   28.9850   49.1480 C   0  0  0  0  0  0  0  0  0  0  0  0
   59.7612   29.1197   50.2381 H   0  0  0  0  0  0  0  0  0  0  0  0
   59.6630   30.0880   48.3030 C   0  0  0  0  0  0  0  0  0  0  0  0
   59.4130   31.3420   48.8790 O   0  0  0  0  0  0  0  0  0  0  0  0
   59.8710   32.5710   48.3830 C   0  0  0  0  0  0  0  0  0  0  0  0
   59.0680   33.5320   48.2270 O   0  0  0  0  0  0  0  0  0  0  0  0
   61.2510   32.7180   47.9970 N   0  0  0  0  0  0  0  0  0  0  0  0
   62.2050   31.6470   48.3100 C   0  0  0  0  0  0  0  0  0  0  0  0
   62.5452   31.7574   49.3502 H   0  0  0  0  0  0  0  0  0  0  0  0
   61.7069   30.6754   48.1759 H   0  0  0  0  0  0  0  0  0  0  0  0
   63.4140   31.7180   47.3740 C   0  0  0  0  0  0  0  0  0  0  0  0
   64.1828   31.0135   47.7242 H   0  0  0  0  0  0  0  0  0  0  0  0
   63.0879   31.4551   46.3569 H   0  0  0  0  0  0  0  0  0  0  0  0
   63.9570   33.0230   47.3520 O   0  0  0  0  0  0  0  0  0  0  0  0
   63.0230   33.9130   46.7720 C   0  0  0  0  0  0  0  0  0  0  0  0
   63.4901   34.9023   46.6580 H   0  0  0  0  0  0  0  0  0  0  0  0
   62.7207   33.5175   45.7911 H   0  0  0  0  0  0  0  0  0  0  0  0
   61.7780   34.0440   47.6540 C   0  0  0  0  0  0  0  0  0  0  0  0
   62.0433   34.5785   48.5781 H   0  0  0  0  0  0  0  0  0  0  0  0
   61.0073   34.6019   47.1020 H   0  0  0  0  0  0  0  0  0  0  0  0
   59.7170   29.9000   46.9070 C   0  0  0  0  0  0  0  0  0  0  0  0
   59.5533   30.7544   46.2338 H   0  0  0  0  0  0  0  0  0  0  0  0
  1  2  1  0
  2  3  1  0
  3  4  2  0
  4  5  1  0
  4  6  1  0
  6  7  1  0
  6  8  2  0
  8  9  1  0
  8 10  1  0
 10 11  1  0
 10 12  2  0
 12 13  1  0
 13 14  2  0
 13 15  1  0
 15 16  1  0
 15 17  2  0
 17 18  1  0
 17 19  1  0
 19 20  2  0
 20 21  1  0
 20 22  1  0
 22 23  1  0
 22 24  2  0
 24 25  1  0
 24 26  1  0
 26 27  1  0
 27 28  1  0
 28 29  2  0
 28 30  1  0
 30 31  1  0
 31 32  1  0
 31 33  1  0
 31 34  1  0
 34 35  1  0
 34 36  1  0
 34 37  1  0
 37 38  1  0
 38 39  1  0
 38 40  1  0
 38 41  1  0
 41 42  1  0
 41 43  1  0
 26 44  2  0
 44 45  1  0
 12  3  1  0
 44 19  1  0
 41 30  1  0
M  CHG  1   7  -1
M  END
>  <UniqueID>  (40) 
39

>  <SMILES>  (40) 
O=C(/C=C\c1cccc(OC(=O)N2CCOCC2)c1)c1ccc([O-])cc1O

>  <Energy>  (40) 
66.02392479034471

>  <Genealogy>  (40) 
O=C(C=Cc1cccc(OC(=O)N2CCOCC2)c1)c1ccc([O-])cc1O (protonated)
O=C(/C=C\c1cccc(OC(=O)N2CCOCC2)c1)c1ccc([O-])cc1O (cis-trans isomerization)
O=C(/C=C\c1cccc(OC(=O)N2CCOCC2)c1)c1ccc([O-])cc1O (3D coordinates assigned)
O=C(/C=C\c1cccc(OC(=O)N2CCOCC2)c1)c1ccc([O-])cc1O (nonaromatic ring conformer: 66.02392479034471 kcal/mol)

>  <smiles>  (40) 
O=C(C=Cc1cccc(OC(=O)N2CCOCC2)c1)c1ccc(O)cc1O

>  <score_type>  (40) 
oracle

>  <origin>  (40) 
adg

>  <m_score__min__energy>  (40) 
-11.9

>  <m_primary>  (40) 
energy

$$$$
40:0
     RDKit          3D

 55 58  0  0  0  0  0  0  0  0999 V2000
   59.4830   27.4860   48.1560 C   0  0  0  0  0  0  0  0  0  0  0  0
   58.9690   28.6180   47.6450 C   0  0  0  0  0  0  0  0  0  0  0  0
   58.1840   28.7130   46.4950 C   0  0  0  0  0  0  0  0  0  0  0  0
   57.6920   27.7020   45.7510 C   0  0  0  0  0  0  0  0  0  0  0  0
   57.2000   26.4350   46.3180 C   0  0  0  0  0  0  0  0  0  0  0  0
   58.0110   25.4480   46.7370 N   0  0  0  0  0  0  0  0  0  0  0  0
   57.1540   24.4680   47.0930 C   0  0  0  0  0  0  0  0  0  0  0  0
   57.5410   23.3630   47.5580 O   0  0  0  0  0  0  0  0  0  0  0  0
   55.8510   24.7600   46.9020 N   0  0  0  0  0  0  0  0  0  0  0  0
   55.8960   26.0040   46.4020 C   0  0  0  0  0  0  0  0  0  0  0  0
   54.7710   26.7070   45.9830 O   0  0  0  0  0  0  0  0  0  0  0  0
   57.9470   30.0630   46.2990 C   0  0  0  0  0  0  0  0  0  0  0  0
   58.5600   30.7380   47.3390 C   0  0  0  0  0  0  0  0  0  0  0  0
   58.6550   32.2170   47.4560 C   0  0  0  0  0  0  0  0  0  0  0  0
   57.6090   32.8470   47.7720 O   0  0  0  0  0  0  0  0  0  0  0  0
   59.8880   32.9570   47.2470 N   0  0  1  0  0  0  0  0  0  0  0  0
   60.2250   33.7760   48.4380 C   0  0  0  0  0  0  0  0  0  0  0  0
   61.7140   34.1430   48.4720 C   0  0  0  0  0  0  0  0  0  0  0  0
   62.5860   32.8730   48.6040 C   0  0  2  0  0  0  0  0  0  0  0  0
   64.0340   33.1520   48.1520 C   0  0  0  0  0  0  0  0  0  0  0  0
   64.1130   33.2560   46.7560 O   0  0  0  0  0  0  0  0  0  0  0  0
   61.9780   31.6660   47.8420 C   0  0  0  0  0  0  0  0  0  0  0  0
   60.9990   32.1030   46.7400 C   0  0  0  0  0  0  0  0  0  0  0  0
   59.1770   29.8570   48.1650 N   0  0  0  0  0  0  0  0  0  0  0  0
   59.9100   30.1870   49.4010 C   0  0  0  0  0  0  0  0  0  0  0  0
   59.0450   30.9370   50.3900 C   0  0  0  0  0  0  0  0  0  0  0  0
   57.7670   30.4650   50.7460 C   0  0  0  0  0  0  0  0  0  0  0  0
   56.9790   31.1810   51.6520 C   0  0  0  0  0  0  0  0  0  0  0  0
   57.4500   32.3750   52.2020 C   0  0  0  0  0  0  0  0  0  0  0  0
   58.7100   32.8610   51.8430 C   0  0  0  0  0  0  0  0  0  0  0  0
   59.5010   32.1500   50.9340 C   0  0  0  0  0  0  0  0  0  0  0  0
   60.0912   27.5225   49.0719 H   0  0  0  0  0  0  0  0  0  0  0  0
   59.2955   26.5231   47.6583 H   0  0  0  0  0  0  0  0  0  0  0  0
   57.6561   27.8307   44.6591 H   0  0  0  0  0  0  0  0  0  0  0  0
   57.3785   30.5137   45.4722 H   0  0  0  0  0  0  0  0  0  0  0  0
   59.6890   33.6370   46.4740 H   0  0  0  0  0  0  0  0  0  0  0  0
   59.9780   33.2046   49.3449 H   0  0  0  0  0  0  0  0  0  0  0  0
   59.6433   34.7083   48.3885 H   0  0  0  0  0  0  0  0  0  0  0  0
   61.9040   34.8026   49.3316 H   0  0  0  0  0  0  0  0  0  0  0  0
   61.9740   34.6551   47.5338 H   0  0  0  0  0  0  0  0  0  0  0  0
   62.6068   32.5983   49.6689 H   0  0  0  0  0  0  0  0  0  0  0  0
   64.3763   34.0951   48.6030 H   0  0  0  0  0  0  0  0  0  0  0  0
   64.6703   32.3160   48.4779 H   0  0  0  0  0  0  0  0  0  0  0  0
   64.8750   32.6860   46.4700 H   0  0  0  0  0  0  0  0  0  0  0  0
   61.4406   31.0291   48.5600 H   0  0  0  0  0  0  0  0  0  0  0  0
   62.8041   31.1218   47.3609 H   0  0  0  0  0  0  0  0  0  0  0  0
   60.5659   31.2026   46.2799 H   0  0  0  0  0  0  0  0  0  0  0  0
   61.5688   32.7037   46.0158 H   0  0  0  0  0  0  0  0  0  0  0  0
   60.2562   29.2534   49.8685 H   0  0  0  0  0  0  0  0  0  0  0  0
   60.7570   30.8348   49.1309 H   0  0  0  0  0  0  0  0  0  0  0  0
   57.3872   29.5294   50.3096 H   0  0  0  0  0  0  0  0  0  0  0  0
   55.9849   30.8027   51.9325 H   0  0  0  0  0  0  0  0  0  0  0  0
   56.8290   32.9332   52.9181 H   0  0  0  0  0  0  0  0  0  0  0  0
   59.0799   33.8025   52.2751 H   0  0  0  0  0  0  0  0  0  0  0  0
   60.4864   32.5430   50.6432 H   0  0  0  0  0  0  0  0  0  0  0  0
  1  2  2  0
  2  3  1  0
  3  4  2  3
  4  5  1  0
  5  6  1  0
  6  7  1  0
  7  8  2  0
  7  9  1  0
  9 10  1  0
 10 11  1  0
  3 12  1  0
 12 13  2  0
 13 14  1  0
 14 15  2  0
 14 16  1  0
 16 17  1  0
 17 18  1  0
 18 19  1  0
 19 20  1  0
 20 21  1  0
 19 22  1  0
 22 23  1  0
 13 24  1  0
 24 25  1  0
 25 26  1  0
 26 27  2  0
 27 28  1  0
 28 29  2  0
 29 30  1  0
 30 31  2  0
 24  2  1  0
 31 26  1  0
 10  5  2  0
 23 16  1  0
  1 32  1  0
  1 33  1  0
  4 34  1  0
 12 35  1  0
 16 36  1  6
 17 37  1  0
 17 38  1  0
 18 39  1  0
 18 40  1  0
 19 41  1  1
 20 42  1  0
 20 43  1  0
 21 44  1  0
 22 45  1  0
 22 46  1  0
 23 47  1  0
 23 48  1  0
 25 49  1  0
 25 50  1  0
 27 51  1  0
 28 52  1  0
 29 53  1  0
 30 54  1  0
 31 55  1  0
M  CHG  4   6  -1   9  -1  11  -1  16   1
M  END
>  <UniqueID>  (41) 
40

>  <SMILES>  (41) 
C=c1c(=Cc2[n-]c(=O)[n-]c2[O-])cc(C(=O)[NH+]2CCC(CO)CC2)n1Cc1ccccc1

>  <Energy>  (41) 
139.9929802715432

>  <Genealogy>  (41) 
C=c1c(=Cc2[n-]c(=O)[n-]c2[O-])cc(C(=O)[NH+]2CCC(CO)CC2)n1Cc1ccccc1 (protonated)
C=c1c(=Cc2[n-]c(=O)[n-]c2[O-])cc(C(=O)[NH+]2CCC(CO)CC2)n1Cc1ccccc1 (3D coordinates assigned)
C=c1c(=Cc2[n-]c(=O)[n-]c2[O-])cc(C(=O)[NH+]2CCC(CO)CC2)n1Cc1ccccc1 (nonaromatic ring conformer: 139.9929802715432 kcal/mol)

>  <smiles>  (41) 
C=c1c(=Cc2[nH]c(=O)[nH]c2O)cc(C(=O)N2CCC(CO)CC2)n1Cc1ccccc1

>  <score_type>  (41) 
oracle

>  <origin>  (41) 
adg

>  <m_score__min__energy>  (41) 
-15.359999999999999

>  <m_primary>  (41) 
energy

$$$$
41:0
     RDKit          3D

 31 32  0  0  0  0  0  0  0  0999 V2000
   57.6770   30.7580   46.1160 H   0  0  0  0  0  0  0  0  0  0  0  0
   58.1550   31.1800   46.9030 O   0  0  0  0  0  0  0  0  0  0  0  0
   58.7940   32.4180   46.8140 C   0  0  0  0  0  0  0  0  0  0  0  0
   59.2700   33.0210   47.9820 C   0  0  0  0  0  0  0  0  0  0  0  0
   59.1416   32.5175   48.9515 H   0  0  0  0  0  0  0  0  0  0  0  0
   59.9080   34.2610   47.9200 C   0  0  0  0  0  0  0  0  0  0  0  0
   60.2855   34.7391   48.8359 H   0  0  0  0  0  0  0  0  0  0  0  0
   60.0610   34.8860   46.6840 C   0  0  0  0  0  0  0  0  0  0  0  0
   60.5611   35.8637   46.6210 H   0  0  0  0  0  0  0  0  0  0  0  0
   59.5930   34.2890   45.5560 N   0  0  0  0  0  0  0  0  0  0  0  0
   58.9730   33.0740   45.5810 C   0  0  0  0  0  0  0  0  0  0  0  0
   58.5140   32.5300   44.4880 N   0  0  0  0  0  0  0  0  0  0  0  0
   57.2890   31.7990   44.3080 C   0  0  0  0  0  0  0  0  0  0  0  0
   56.2780   32.1620   44.9670 O   0  0  0  0  0  0  0  0  0  0  0  0
   57.1810   30.6200   43.3670 C   0  0  0  0  0  0  0  0  0  0  0  0
   57.0479   31.0000   42.3433 H   0  0  0  0  0  0  0  0  0  0  0  0
   58.1046   30.0316   43.4709 H   0  0  0  0  0  0  0  0  0  0  0  0
   56.0080   29.6920   43.6990 C   0  0  0  0  0  0  0  0  0  0  0  0
   55.0617   30.2294   43.5386 H   0  0  0  0  0  0  0  0  0  0  0  0
   56.0506   28.8082   43.0454 H   0  0  0  0  0  0  0  0  0  0  0  0
   56.0900   29.2620   45.0930 N   0  0  0  0  0  0  0  0  0  0  0  0
   56.8700   28.3560   45.6170 C   0  0  0  0  0  0  0  0  0  0  0  0
   58.1940   28.6510   45.7300 N   0  0  0  0  0  0  0  0  0  0  0  0
   59.0970   27.7830   46.2600 C   0  0  0  0  0  0  0  0  0  0  0  0
   60.1574   28.0670   46.3299 H   0  0  0  0  0  0  0  0  0  0  0  0
   58.6790   26.5350   46.7140 C   0  0  0  0  0  0  0  0  0  0  0  0
   59.4041   25.8287   47.1447 H   0  0  0  0  0  0  0  0  0  0  0  0
   57.3320   26.1900   46.6170 C   0  0  0  0  0  0  0  0  0  0  0  0
   56.9912   25.2061   46.9717 H   0  0  0  0  0  0  0  0  0  0  0  0
   56.4120   27.0910   46.0700 C   0  0  0  0  0  0  0  0  0  0  0  0
   55.0790   26.7050   45.9920 O   0  0  0  0  0  0  0  0  0  0  0  0
  1  2  1  0
  2  3  1  0
  3  4  2  0
  4  5  1  0
  4  6  1  0
  6  7  1  0
  6  8  2  0
  8  9  1  0
  8 10  1  0
 10 11  1  0
 11 12  2  0
 12 13  1  0
 13 14  2  0
 13 15  1  0
 15 16  1  0
 15 17  1  0
 15 18  1  0
 18 19  1  0
 18 20  1  0
 18 21  1  0
 21 22  2  3
 22 23  1  0
 23 24  1  0
 24 25  1  0
 24 26  2  0
 26 27  1  0
 26 28  1  0
 28 29  1  0
 28 30  2  0
 30 31  1  0
 11  3  1  0
 30 22  1  0
M  CHG  3  10  -1  23  -1  31  -1
M  END
>  <UniqueID>  (42) 
41

>  <SMILES>  (42) 
O=C(CCN=c1[n-]cccc1[O-])/N=c1\[n-]cccc1O

>  <Energy>  (42) 
41.17155573136417

>  <Genealogy>  (42) 
O=C(CCN=c1[n-]cccc1[O-])N=c1[n-]cccc1O (protonated)
O=C(CCN=c1[n-]cccc1[O-])/N=c1\[n-]cccc1O (cis-trans isomerization)
O=C(CCN=c1[n-]cccc1[O-])/N=c1\[n-]cccc1O (3D coordinates assigned)
O=C(CCN=c1[n-]cccc1[O-])/N=c1\[n-]cccc1O (optimized conformer: 41.17155573136417 kcal/mol)

>  <smiles>  (42) 
O=C(CCN=c1[nH]cccc1O)N=c1[nH]cccc1O

>  <score_type>  (42) 
oracle

>  <origin>  (42) 
adg

>  <m_score__min__energy>  (42) 
-12.859999999999999

>  <m_primary>  (42) 
energy

$$$$
42:0
     RDKit          3D

 44 46  0  0  0  0  0  0  0  0999 V2000
   59.0210   33.8600   44.8220 C   0  0  0  0  0  0  0  0  0  0  0  0
   57.4240   33.4420   45.4910 S   0  0  0  0  0  0  0  0  0  0  0  0
   56.4620   34.5480   45.1580 O   0  0  0  0  0  0  0  0  0  0  0  0
   56.9190   32.1630   44.8860 O   0  0  0  0  0  0  0  0  0  0  0  0
   57.5220   33.2850   47.2170 N   0  0  0  0  0  0  0  0  0  0  0  0
   58.5950   32.6120   47.8990 C   0  0  0  0  0  0  0  0  0  0  0  0
   59.5670   31.8730   47.2010 C   0  0  0  0  0  0  0  0  0  0  0  0
   60.6030   31.2400   47.8930 C   0  0  0  0  0  0  0  0  0  0  0  0
   60.6850   31.3430   49.2830 C   0  0  0  0  0  0  0  0  0  0  0  0
   59.7220   32.0770   49.9930 C   0  0  0  0  0  0  0  0  0  0  0  0
   59.7740   32.1900   51.4220 N   0  0  0  0  0  0  0  0  0  0  0  0
   58.7020   32.6570   52.2500 C   0  0  0  0  0  0  0  0  0  0  0  0
   58.8090   33.7860   52.7980 O   0  0  0  0  0  0  0  0  0  0  0  0
   57.5050   31.8260   52.5180 C   0  0  0  0  0  0  0  0  0  0  0  0
   56.5440   31.6090   51.5160 C   0  0  0  0  0  0  0  0  0  0  0  0
   55.4250   30.8100   51.7670 C   0  0  0  0  0  0  0  0  0  0  0  0
   55.2530   30.2080   53.0230 C   0  0  0  0  0  0  0  0  0  0  0  0
   54.0410   29.3620   53.3000 C   0  0  0  0  0  0  0  0  0  0  0  0
   52.7090   30.3610   54.0500 S   0  0  0  0  0  0  0  0  0  0  0  0
   52.0740   30.9650   52.4890 C   0  0  0  0  0  0  0  0  0  0  0  0
   51.5140   32.2010   52.4100 N   0  0  0  0  0  0  0  0  0  0  0  0
   51.0370   32.6620   51.2540 N   0  0  0  0  0  0  0  0  0  0  0  0
   51.1010   31.9150   50.1230 C   0  0  0  0  0  0  0  0  0  0  0  0
   50.6450   32.3680   49.0390 O   0  0  0  0  0  0  0  0  0  0  0  0
   51.6820   30.6470   50.1870 C   0  0  0  0  0  0  0  0  0  0  0  0
   51.7730   29.9260   49.1580 O   0  0  0  0  0  0  0  0  0  0  0  0
   52.1600   30.1950   51.3740 N   0  0  0  0  0  0  0  0  0  0  0  0
   56.2100   30.4220   54.0250 C   0  0  0  0  0  0  0  0  0  0  0  0
   57.3330   31.2170   53.7720 C   0  0  0  0  0  0  0  0  0  0  0  0
   58.6680   32.6840   49.2990 C   0  0  0  0  0  0  0  0  0  0  0  0
   59.7266   34.0447   45.6454 H   0  0  0  0  0  0  0  0  0  0  0  0
   59.3888   33.0279   44.2037 H   0  0  0  0  0  0  0  0  0  0  0  0
   58.9339   34.7656   44.2037 H   0  0  0  0  0  0  0  0  0  0  0  0
   56.8420   33.8440   47.7780 H   0  0  0  0  0  0  0  0  0  0  0  0
   59.5115   31.7929   46.1053 H   0  0  0  0  0  0  0  0  0  0  0  0
   61.3562   30.6588   47.3409 H   0  0  0  0  0  0  0  0  0  0  0  0
   61.5058   30.8480   49.8227 H   0  0  0  0  0  0  0  0  0  0  0  0
   56.6734   32.0715   50.5264 H   0  0  0  0  0  0  0  0  0  0  0  0
   54.6761   30.6524   50.9769 H   0  0  0  0  0  0  0  0  0  0  0  0
   53.6793   28.9301   52.3552 H   0  0  0  0  0  0  0  0  0  0  0  0
   54.3217   28.5643   54.0035 H   0  0  0  0  0  0  0  0  0  0  0  0
   56.0771   29.9623   55.0155 H   0  0  0  0  0  0  0  0  0  0  0  0
   58.0859   31.3661   54.5600 H   0  0  0  0  0  0  0  0  0  0  0  0
   57.8885   33.2233   49.8572 H   0  0  0  0  0  0  0  0  0  0  0  0
  1  2  1  0
  2  3  2  0
  2  4  2  0
  2  5  1  0
  5  6  1  0
  6  7  2  0
  7  8  1  0
  8  9  2  0
  9 10  1  0
 10 11  1  0
 11 12  1  0
 12 13  2  0
 12 14  1  0
 14 15  2  0
 15 16  1  0
 16 17  2  0
 17 18  1  0
 18 19  1  0
 19 20  1  0
 20 21  2  0
 21 22  1  0
 22 23  1  0
 23 24  2  0
 23 25  1  0
 25 26  2  0
 25 27  1  0
 17 28  1  0
 28 29  2  0
 10 30  2  0
 30  6  1  0
 29 14  1  0
 27 20  1  0
  1 31  1  0
  1 32  1  0
  1 33  1  0
  5 34  1  0
  7 35  1  0
  8 36  1  0
  9 37  1  0
 15 38  1  0
 16 39  1  0
 18 40  1  0
 18 41  1  0
 28 42  1  0
 29 43  1  0
 30 44  1  0
M  CHG  3  11  -1  22  -1  27  -1
M  END
>  <UniqueID>  (43) 
42

>  <SMILES>  (43) 
CS(=O)(=O)Nc1cccc([N-]C(=O)c2ccc(CSc3n[n-]c(=O)c(=O)[n-]3)cc2)c1

>  <Energy>  (43) 
48.72381045637686

>  <Genealogy>  (43) 
CS(=O)(=O)Nc1cccc([N-]C(=O)c2ccc(CSc3n[n-]c(=O)c(=O)[n-]3)cc2)c1 (protonated)
CS(=O)(=O)Nc1cccc([N-]C(=O)c2ccc(CSc3n[n-]c(=O)c(=O)[n-]3)cc2)c1 (3D coordinates assigned)
CS(=O)(=O)Nc1cccc([N-]C(=O)c2ccc(CSc3n[n-]c(=O)c(=O)[n-]3)cc2)c1 (optimized conformer: 48.72381045637686 kcal/mol)

>  <smiles>  (43) 
CS(=O)(=O)Nc1cccc(NC(=O)c2ccc(CSc3n[nH]c(=O)c(=O)[nH]3)cc2)c1

>  <score_type>  (43) 
oracle

>  <origin>  (43) 
adg

>  <m_score__min__energy>  (43) 
-15.01

>  <m_primary>  (43) 
energy

$$$$
43:0
     RDKit          3D

 60 63  0  0  0  0  0  0  0  0999 V2000
   59.7240   34.7380   45.6550 C   0  0  0  0  0  0  0  0  0  0  0  0
   60.0780   34.3190   46.9690 O   0  0  0  0  0  0  0  0  0  0  0  0
   61.3510   33.8560   47.3420 C   0  0  0  0  0  0  0  0  0  0  0  0
   62.4340   33.8520   46.4390 C   0  0  0  0  0  0  0  0  0  0  0  0
   63.6910   33.3930   46.8420 C   0  0  0  0  0  0  0  0  0  0  0  0
   63.8840   32.9340   48.1440 C   0  0  0  0  0  0  0  0  0  0  0  0
   62.8210   32.9290   49.0500 C   0  0  0  0  0  0  0  0  0  0  0  0
   61.5500   33.3880   48.6600 C   0  0  0  0  0  0  0  0  0  0  0  0
   60.4140   33.3790   49.6590 C   0  0  0  0  0  0  0  0  0  0  0  0
   59.4840   32.1540   49.4950 C   0  0  1  0  0  0  0  0  0  0  0  0
   58.1700   32.5020   48.7480 C   0  0  0  0  0  0  0  0  0  0  0  0
   58.2860   32.2030   47.2490 C   0  0  0  0  0  0  0  0  0  0  0  0
   58.5250   30.7560   46.9760 N   0  0  1  0  0  0  0  0  0  0  0  0
   59.1910   30.5670   45.6650 C   0  0  0  0  0  0  0  0  0  0  0  0
   58.2260   30.7220   44.5190 C   0  0  0  0  0  0  0  0  0  0  0  0
   58.4140   31.4810   43.3800 C   0  0  0  0  0  0  0  0  0  0  0  0
   57.3050   31.4260   42.6150 N   0  0  0  0  0  0  0  0  0  0  0  0
   57.1390   32.0440   41.3060 C   0  0  0  0  0  0  0  0  0  0  0  0
   56.4090   30.6300   43.2350 C   0  0  0  0  0  0  0  0  0  0  0  0
   56.9530   30.1930   44.4320 C   0  0  0  0  0  0  0  0  0  0  0  0
   56.3570   29.3360   45.4150 N   0  0  0  0  0  0  0  0  0  0  0  0
   56.6430   27.9510   45.6430 C   0  0  0  0  0  0  0  0  0  0  0  0
   55.7260   27.0890   45.6280 O   0  0  0  0  0  0  0  0  0  0  0  0
   58.0280   27.5340   45.9070 C   0  0  0  0  0  0  0  0  0  0  0  0
   58.4850   26.9580   47.0790 C   0  0  0  0  0  0  0  0  0  0  0  0
   59.8340   26.7300   46.8940 C   0  0  0  0  0  0  0  0  0  0  0  0
   60.1400   27.1740   45.6230 C   0  0  0  0  0  0  0  0  0  0  0  0
   59.0380   27.6600   45.0240 N   0  0  0  0  0  0  0  0  0  0  0  0
   59.2840   30.0650   48.0580 C   0  0  0  0  0  0  0  0  0  0  0  0
   60.2500   31.0080   48.7900 C   0  0  0  0  0  0  0  0  0  0  0  0
   59.0152   35.5770   45.7161 H   0  0  0  0  0  0  0  0  0  0  0  0
   60.6277   35.0600   45.1169 H   0  0  0  0  0  0  0  0  0  0  0  0
   59.2556   33.9007   45.1169 H   0  0  0  0  0  0  0  0  0  0  0  0
   62.2884   34.2127   45.4101 H   0  0  0  0  0  0  0  0  0  0  0  0
   64.5298   33.3939   46.1303 H   0  0  0  0  0  0  0  0  0  0  0  0
   64.8751   32.5751   48.4584 H   0  0  0  0  0  0  0  0  0  0  0  0
   62.9789   32.5636   50.0755 H   0  0  0  0  0  0  0  0  0  0  0  0
   60.8381   33.3654   50.6739 H   0  0  0  0  0  0  0  0  0  0  0  0
   59.8095   34.2809   49.4825 H   0  0  0  0  0  0  0  0  0  0  0  0
   59.1833   31.8203   50.4991 H   0  0  0  0  0  0  0  0  0  0  0  0
   57.9527   33.5717   48.8843 H   0  0  0  0  0  0  0  0  0  0  0  0
   57.3601   31.8845   49.1637 H   0  0  0  0  0  0  0  0  0  0  0  0
   59.1242   32.7837   46.8365 H   0  0  0  0  0  0  0  0  0  0  0  0
   57.3326   32.4812   46.7761 H   0  0  0  0  0  0  0  0  0  0  0  0
   57.5880   30.2870   46.9230 H   0  0  0  0  0  0  0  0  0  0  0  0
   59.9905   31.3153   45.5608 H   0  0  0  0  0  0  0  0  0  0  0  0
   59.5982   29.5457   45.6329 H   0  0  0  0  0  0  0  0  0  0  0  0
   59.3272   32.0432   43.1351 H   0  0  0  0  0  0  0  0  0  0  0  0
   56.8555   33.0993   41.4321 H   0  0  0  0  0  0  0  0  0  0  0  0
   58.0855   31.9826   40.7488 H   0  0  0  0  0  0  0  0  0  0  0  0
   56.3507   31.5166   40.7488 H   0  0  0  0  0  0  0  0  0  0  0  0
   55.4107   30.3706   42.8529 H   0  0  0  0  0  0  0  0  0  0  0  0
   57.8929   26.7281   47.9771 H   0  0  0  0  0  0  0  0  0  0  0  0
   60.5298   26.2817   47.6185 H   0  0  0  0  0  0  0  0  0  0  0  0
   61.1400   27.1358   45.1664 H   0  0  0  0  0  0  0  0  0  0  0  0
   58.9840   28.0570   44.0600 H   0  0  0  0  0  0  0  0  0  0  0  0
   59.8628   29.2421   47.6133 H   0  0  0  0  0  0  0  0  0  0  0  0
   58.5556   29.6939   48.7940 H   0  0  0  0  0  0  0  0  0  0  0  0
   60.9515   31.4400   48.0611 H   0  0  0  0  0  0  0  0  0  0  0  0
   60.7920   30.4294   49.5526 H   0  0  0  0  0  0  0  0  0  0  0  0
  1  2  1  0
  2  3  1  0
  3  4  2  0
  4  5  1  0
  5  6  2  0
  6  7  1  0
  7  8  2  0
  8  9  1  0
  9 10  1  0
 10 11  1  0
 11 12  1  0
 12 13  1  0
 13 14  1  0
 14 15  1  0
 15 16  2  0
 16 17  1  0
 17 18  1  0
 17 19  1  0
 19 20  2  0
 20 21  1  0
 21 22  1  0
 22 23  2  0
 22 24  1  0
 24 25  2  0
 25 26  1  0
 26 27  2  0
 27 28  1  0
 13 29  1  0
 29 30  1  0
  8  3  1  0
 30 10  1  0
 20 15  1  0
 28 24  1  0
  1 31  1  0
  1 32  1  0
  1 33  1  0
  4 34  1  0
  5 35  1  0
  6 36  1  0
  7 37  1  0
  9 38  1  0
  9 39  1  0
 10 40  1  1
 11 41  1  0
 11 42  1  0
 12 43  1  0
 12 44  1  0
 13 45  1  6
 14 46  1  0
 14 47  1  0
 16 48  1  0
 18 49  1  0
 18 50  1  0
 18 51  1  0
 19 52  1  0
 25 53  1  0
 26 54  1  0
 27 55  1  0
 28 56  1  0
 29 57  1  0
 29 58  1  0
 30 59  1  0
 30 60  1  0
M  CHG  2  13   1  21  -1
M  END
>  <UniqueID>  (44) 
43

>  <SMILES>  (44) 
COc1ccccc1CC1CC[NH+](Cc2cn(C)cc2[N-]C(=O)c2ccc[nH]2)CC1

>  <Energy>  (44) 
121.13971520195693

>  <Genealogy>  (44) 
COc1ccccc1CC1CC[NH+](Cc2cn(C)cc2[N-]C(=O)c2ccc[nH]2)CC1 (protonated)
COc1ccccc1CC1CC[NH+](Cc2cn(C)cc2[N-]C(=O)c2ccc[nH]2)CC1 (3D coordinates assigned)
COc1ccccc1CC1CC[NH+](Cc2cn(C)cc2[N-]C(=O)c2ccc[nH]2)CC1 (nonaromatic ring conformer: 121.13971520195693 kcal/mol)

>  <smiles>  (44) 
COc1ccccc1CC1CCN(Cc2cn(C)cc2NC(=O)c2ccc[nH]2)CC1

>  <score_type>  (44) 
oracle

>  <origin>  (44) 
adg

>  <m_score__min__energy>  (44) 
-8.8399999999999999

>  <m_primary>  (44) 
energy

$$$$
44:0
     RDKit          3D

 55 57  0  0  0  0  0  0  0  0999 V2000
   55.5600   29.2410   45.1974 H   0  0  0  0  0  0  0  0  0  0  0  0
   56.6260   28.9710   45.2240 C   0  0  0  0  0  0  0  0  0  0  0  0
   57.0770   28.0620   46.1300 N   0  0  0  0  0  0  0  0  0  0  0  0
   58.3830   27.6660   46.1670 C   0  0  0  0  0  0  0  0  0  0  0  0
   58.8240   26.8970   47.1190 N   0  0  0  0  0  0  0  0  0  0  0  0
   59.7980   27.3020   48.0870 C   0  0  0  0  0  0  0  0  0  0  0  0
   60.7780   26.5560   48.3610 O   0  0  0  0  0  0  0  0  0  0  0  0
   59.6110   28.6040   48.8090 C   0  0  0  0  0  0  0  0  0  0  0  0
   58.5639   28.6803   49.1374 H   0  0  0  0  0  0  0  0  0  0  0  0
   59.8719   29.4166   48.1150 H   0  0  0  0  0  0  0  0  0  0  0  0
   60.4560   28.7110   49.9450 O   0  0  0  0  0  0  0  0  0  0  0  0
   59.7550   29.2570   51.0590 C   0  0  0  0  0  0  0  0  0  0  0  0
   60.4142   29.9520   51.5997 H   0  0  0  0  0  0  0  0  0  0  0  0
   59.4464   28.4404   51.7283 H   0  0  0  0  0  0  0  0  0  0  0  0
   58.5170   30.0060   50.5770 C   0  0  0  0  0  0  0  0  0  0  0  0
   58.2264   29.6345   49.5833 H   0  0  0  0  0  0  0  0  0  0  0  0
   58.7383   31.0816   50.5135 H   0  0  0  0  0  0  0  0  0  0  0  0
   57.4570   29.7930   51.4900 O   0  0  0  0  0  0  0  0  0  0  0  0
   57.0090   31.0350   51.9840 C   0  0  0  0  0  0  0  0  0  0  0  0
   57.0158   31.0162   53.0838 H   0  0  0  0  0  0  0  0  0  0  0  0
   57.6757   31.8337   51.6268 H   0  0  0  0  0  0  0  0  0  0  0  0
   55.9860   31.2242   51.6268 H   0  0  0  0  0  0  0  0  0  0  0  0
   59.2900   28.1810   45.2330 C   0  0  0  0  0  0  0  0  0  0  0  0
   60.3344   27.8358   45.2225 H   0  0  0  0  0  0  0  0  0  0  0  0
   58.8530   29.1380   44.3150 C   0  0  0  0  0  0  0  0  0  0  0  0
   59.5572   29.5591   43.5823 H   0  0  0  0  0  0  0  0  0  0  0  0
   57.5210   29.5610   44.3270 C   0  0  0  0  0  0  0  0  0  0  0  0
   57.0050   30.9420   43.3050 S   0  0  0  0  0  0  0  0  0  0  0  0
   57.7810   32.1170   44.4190 C   0  0  0  0  0  0  0  0  0  0  0  0
   57.7880   33.4800   44.1020 C   0  0  0  0  0  0  0  0  0  0  0  0
   57.3962   33.8202   43.1321 H   0  0  0  0  0  0  0  0  0  0  0  0
   58.2910   34.4080   45.0140 C   0  0  0  0  0  0  0  0  0  0  0  0
   58.3068   35.4774   44.7570 H   0  0  0  0  0  0  0  0  0  0  0  0
   58.7750   33.9810   46.2540 C   0  0  0  0  0  0  0  0  0  0  0  0
   59.1591   34.7185   46.9741 H   0  0  0  0  0  0  0  0  0  0  0  0
   58.7740   32.6140   46.5870 C   0  0  0  0  0  0  0  0  0  0  0  0
   59.2330   32.1600   47.9210 C   0  0  0  0  0  0  0  0  0  0  0  0
   58.5920   32.4930   48.9510 O   0  0  0  0  0  0  0  0  0  0  0  0
   60.3930   31.3280   48.0680 N   0  0  0  0  0  0  0  0  0  0  0  0
   61.5890   31.7260   48.4070 C   0  0  0  0  0  0  0  0  0  0  0  0
   62.2950   32.7020   47.6690 C   0  0  0  0  0  0  0  0  0  0  0  0
   61.8525   33.1340   46.7593 H   0  0  0  0  0  0  0  0  0  0  0  0
   63.5550   33.1150   48.0990 C   0  0  0  0  0  0  0  0  0  0  0  0
   64.1047   33.8811   47.5326 H   0  0  0  0  0  0  0  0  0  0  0  0
   64.1210   32.5570   49.2490 C   0  0  0  0  0  0  0  0  0  0  0  0
   65.4550   33.0190   49.7560 C   0  0  0  0  0  0  0  0  0  0  0  0
   65.4499   33.0172   50.8560 H   0  0  0  0  0  0  0  0  0  0  0  0
   66.2406   32.3406   49.3919 H   0  0  0  0  0  0  0  0  0  0  0  0
   65.6528   34.0380   49.3919 H   0  0  0  0  0  0  0  0  0  0  0  0
   63.3900   31.6010   49.9630 C   0  0  0  0  0  0  0  0  0  0  0  0
   63.8139   31.1606   50.8775 H   0  0  0  0  0  0  0  0  0  0  0  0
   62.1580   31.2120   49.5340 N   0  0  0  0  0  0  0  0  0  0  0  0
   61.6400   30.5020   50.0970 H   0  0  0  0  0  0  0  0  0  0  0  0
   58.2970   31.6830   45.6480 C   0  0  0  0  0  0  0  0  0  0  0  0
   58.3288   30.6080   45.8789 H   0  0  0  0  0  0  0  0  0  0  0  0
  1  2  1  0
  2  3  1  0
  3  4  1  0
  4  5  2  0
  5  6  1  0
  6  7  2  0
  6  8  1  0
  8  9  1  0
  8 10  1  0
  8 11  1  0
 11 12  1  0
 12 13  1  0
 12 14  1  0
 12 15  1  0
 15 16  1  0
 15 17  1  0
 15 18  1  0
 18 19  1  0
 19 20  1  0
 19 21  1  0
 19 22  1  0
  4 23  1  0
 23 24  1  0
 23 25  2  0
 25 26  1  0
 25 27  1  0
 27 28  1  0
 28 29  1  0
 29 30  2  0
 30 31  1  0
 30 32  1  0
 32 33  1  0
 32 34  2  0
 34 35  1  0
 34 36  1  0
 36 37  1  0
 37 38  2  0
 37 39  1  0
 39 40  2  3
 40 41  1  0
 41 42  1  0
 41 43  2  0
 43 44  1  0
 43 45  1  0
 45 46  1  0
 46 47  1  0
 46 48  1  0
 46 49  1  0
 45 50  2  0
 50 51  1  0
 50 52  1  0
 52 53  1  0
 36 54  2  0
 54 55  1  0
 27  2  2  0
 54 29  1  0
 52 40  1  0
M  CHG  1   3  -1
M  END
>  <UniqueID>  (45) 
44

>  <SMILES>  (45) 
COCCOCC(=O)/N=c1/ccc(Sc2cccc(C(=O)N=c3ccc(C)c[nH]3)c2)c[n-]1

>  <Energy>  (45) 
68.73164446498555

>  <Genealogy>  (45) 
COCCOCC(=O)N=c1ccc(Sc2cccc(C(=O)N=c3ccc(C)c[nH]3)c2)c[n-]1 (protonated)
COCCOCC(=O)/N=c1/ccc(Sc2cccc(C(=O)N=c3ccc(C)c[nH]3)c2)c[n-]1 (cis-trans isomerization)
COCCOCC(=O)/N=c1/ccc(Sc2cccc(C(=O)N=c3ccc(C)c[nH]3)c2)c[n-]1 (3D coordinates assigned)
COCCOCC(=O)/N=c1/ccc(Sc2cccc(C(=O)N=c3ccc(C)c[nH]3)c2)c[n-]1 (optimized conformer: 68.73164446498555 kcal/mol)

>  <smiles>  (45) 
COCCOCC(=O)N=c1ccc(Sc2cccc(C(=O)N=c3ccc(C)c[nH]3)c2)c[nH]1

>  <score_type>  (45) 
oracle

>  <origin>  (45) 
adg

>  <m_score__min__energy>  (45) 
-11.65

>  <m_primary>  (45) 
energy

$$$$
45:0
     RDKit          3D

 50 52  0  0  0  0  0  0  0  0999 V2000
   57.5540   26.0040   47.0890 C   0  0  0  0  0  0  0  0  0  0  0  0
   56.8550   26.8210   46.0550 C   0  0  0  0  0  0  0  0  0  0  0  0
   55.5970   26.7730   45.9770 O   0  0  0  0  0  0  0  0  0  0  0  0
   57.6320   27.6050   45.1360 N   0  0  0  0  0  0  0  0  0  0  0  0
   57.7480   28.9030   45.1130 C   0  0  0  0  0  0  0  0  0  0  0  0
   58.9540   29.5030   45.3270 N   0  0  0  0  0  0  0  0  0  0  0  0
   59.1050   30.8540   45.3020 C   0  0  0  0  0  0  0  0  0  0  0  0
   58.0070   31.6790   45.0390 C   0  0  0  0  0  0  0  0  0  0  0  0
   58.2130   33.4310   44.9930 S   0  0  0  0  0  0  0  0  0  0  0  0
   59.2700   33.8030   43.9910 O   0  0  0  0  0  0  0  0  0  0  0  0
   56.9160   34.0340   44.5320 O   0  0  0  0  0  0  0  0  0  0  0  0
   58.6060   34.1140   46.5560 N   0  0  0  0  0  0  0  0  0  0  0  0
   59.8050   33.5800   47.2300 C   0  0  0  0  0  0  0  0  0  0  0  0
   60.0930   34.2020   48.6080 C   0  0  0  0  0  0  0  0  0  0  0  0
   61.2780   33.4860   49.2830 C   0  0  0  0  0  0  0  0  0  0  0  0
   62.4100   33.1750   48.3630 N   0  0  0  0  0  0  0  0  0  0  0  0
   62.6130   31.7220   48.1790 C   0  0  0  0  0  0  0  0  0  0  0  0
   61.5080   30.9520   48.8510 C   0  0  0  0  0  0  0  0  0  0  0  0
   61.6280   30.5890   50.2030 C   0  0  0  0  0  0  0  0  0  0  0  0
   60.6000   29.8830   50.8370 C   0  0  0  0  0  0  0  0  0  0  0  0
   59.4480   29.5360   50.1260 C   0  0  0  0  0  0  0  0  0  0  0  0
   59.3200   29.8950   48.7810 C   0  0  0  0  0  0  0  0  0  0  0  0
   60.3450   30.6000   48.1440 C   0  0  0  0  0  0  0  0  0  0  0  0
   62.3420   33.8920   47.0700 C   0  0  0  0  0  0  0  0  0  0  0  0
   61.0420   33.5850   46.3060 C   0  0  0  0  0  0  0  0  0  0  0  0
   56.7540   31.0910   44.8380 C   0  0  0  0  0  0  0  0  0  0  0  0
   56.6150   29.7010   44.8670 C   0  0  0  0  0  0  0  0  0  0  0  0
   55.3540   29.1410   44.6490 O   0  0  0  0  0  0  0  0  0  0  0  0
   57.2585   26.3494   48.0907 H   0  0  0  0  0  0  0  0  0  0  0  0
   57.2770   24.9462   46.9694 H   0  0  0  0  0  0  0  0  0  0  0  0
   58.6419   26.1140   46.9694 H   0  0  0  0  0  0  0  0  0  0  0  0
   60.0934   31.2991   45.4891 H   0  0  0  0  0  0  0  0  0  0  0  0
   59.5650   32.5290   47.4484 H   0  0  0  0  0  0  0  0  0  0  0  0
   60.3376   35.2669   48.4811 H   0  0  0  0  0  0  0  0  0  0  0  0
   59.2012   34.0921   49.2426 H   0  0  0  0  0  0  0  0  0  0  0  0
   61.6565   34.1311   50.0896 H   0  0  0  0  0  0  0  0  0  0  0  0
   60.8964   32.5222   49.6510 H   0  0  0  0  0  0  0  0  0  0  0  0
   62.6160   31.4891   47.1039 H   0  0  0  0  0  0  0  0  0  0  0  0
   63.5748   31.4348   48.6290 H   0  0  0  0  0  0  0  0  0  0  0  0
   62.5336   30.8609   50.7651 H   0  0  0  0  0  0  0  0  0  0  0  0
   60.6985   29.6009   51.8956 H   0  0  0  0  0  0  0  0  0  0  0  0
   58.6410   28.9797   50.6253 H   0  0  0  0  0  0  0  0  0  0  0  0
   58.4118   29.6224   48.2235 H   0  0  0  0  0  0  0  0  0  0  0  0
   60.2413   30.8805   47.0854 H   0  0  0  0  0  0  0  0  0  0  0  0
   62.3941   34.9740   47.2612 H   0  0  0  0  0  0  0  0  0  0  0  0
   63.1865   33.5552   46.4509 H   0  0  0  0  0  0  0  0  0  0  0  0
   60.8996   34.3503   45.5288 H   0  0  0  0  0  0  0  0  0  0  0  0
   61.1387   32.5804   45.8686 H   0  0  0  0  0  0  0  0  0  0  0  0
   55.8741   31.7256   44.6563 H   0  0  0  0  0  0  0  0  0  0  0  0
   55.1410   28.1790   44.8820 H   0  0  0  0  0  0  0  0  0  0  0  0
  1  2  1  0
  2  3  2  0
  2  4  1  0
  4  5  2  3
  5  6  1  0
  6  7  1  0
  7  8  2  0
  8  9  1  0
  9 10  2  0
  9 11  2  0
  9 12  1  0
 12 13  1  0
 13 14  1  0
 14 15  1  0
 15 16  1  0
 16 17  1  0
 17 18  1  0
 18 19  2  0
 19 20  1  0
 20 21  2  0
 21 22  1  0
 22 23  2  0
 16 24  1  0
 24 25  1  0
  8 26  1  0
 26 27  2  0
 27 28  1  0
 27  5  1  0
 25 13  1  0
 23 18  1  0
  1 29  1  0
  1 30  1  0
  1 31  1  0
  7 32  1  0
 13 33  1  0
 14 34  1  0
 14 35  1  0
 15 36  1  0
 15 37  1  0
 17 38  1  0
 17 39  1  0
 19 40  1  0
 20 41  1  0
 21 42  1  0
 22 43  1  0
 23 44  1  0
 24 45  1  0
 24 46  1  0
 25 47  1  0
 25 48  1  0
 26 49  1  0
 28 50  1  0
M  CHG  2   6  -1  12  -1
M  END
>  <UniqueID>  (46) 
45

>  <SMILES>  (46) 
CC(=O)N=c1[n-]cc(S(=O)(=O)[N-]C2CCN(Cc3ccccc3)CC2)cc1O

>  <Energy>  (46) 
67.10492600664428

>  <Genealogy>  (46) 
CC(=O)N=c1[n-]cc(S(=O)(=O)[N-]C2CCN(Cc3ccccc3)CC2)cc1O (protonated)
CC(=O)N=c1[n-]cc(S(=O)(=O)[N-]C2CCN(Cc3ccccc3)CC2)cc1O (3D coordinates assigned)
CC(=O)N=c1[n-]cc(S(=O)(=O)[N-]C2CCN(Cc3ccccc3)CC2)cc1O (nonaromatic ring conformer: 67.10492600664428 kcal/mol)

>  <smiles>  (46) 
CC(=O)N=c1[nH]cc(S(=O)(=O)NC2CCN(Cc3ccccc3)CC2)cc1O

>  <score_type>  (46) 
oracle

>  <origin>  (46) 
adg

>  <m_score__min__energy>  (46) 
-12.06

>  <m_primary>  (46) 
energy

$$$$
46:0
     RDKit          3D

 52 55  0  0  0  0  0  0  0  0999 V2000
   53.4490   29.1800   53.7720 O   0  0  0  0  0  0  0  0  0  0  0  0
   53.8850   30.0770   53.0020 C   0  0  0  0  0  0  0  0  0  0  0  0
   52.9560   31.0040   52.4240 N   0  0  0  0  0  0  0  0  0  0  0  0
   52.3320   30.8690   51.1380 C   0  0  0  0  0  0  0  0  0  0  0  0
   52.4550   29.6890   50.3860 C   0  0  0  0  0  0  0  0  0  0  0  0
   51.8150   29.5890   49.1510 C   0  0  0  0  0  0  0  0  0  0  0  0
   51.0710   30.6250   48.6830 N   0  0  0  0  0  0  0  0  0  0  0  0
   50.9160   31.7730   49.3940 C   0  0  0  0  0  0  0  0  0  0  0  0
   50.2110   32.7040   48.9200 O   0  0  0  0  0  0  0  0  0  0  0  0
   51.5410   31.9160   50.6450 C   0  0  0  0  0  0  0  0  0  0  0  0
   51.3910   33.0810   51.4000 O   0  0  0  0  0  0  0  0  0  0  0  0
   55.3400   30.1770   52.7490 C   0  0  0  0  0  0  0  0  0  0  0  0
   55.9030   31.3920   52.3290 C   0  0  0  0  0  0  0  0  0  0  0  0
   57.2820   31.4980   52.1310 C   0  0  0  0  0  0  0  0  0  0  0  0
   58.1200   30.3890   52.3360 C   0  0  0  0  0  0  0  0  0  0  0  0
   59.6180   30.5270   52.1580 C   0  0  0  0  0  0  0  0  0  0  0  0
   60.0210   30.9040   50.7830 N   0  0  0  0  0  0  0  0  0  0  0  0
   60.3650   32.3390   50.6160 C   0  0  0  0  0  0  0  0  0  0  0  0
   59.3810   33.0880   49.7080 C   0  0  0  0  0  0  0  0  0  0  0  0
   59.2650   32.4040   48.4110 N   0  0  0  0  0  0  0  0  0  0  0  0
   58.9270   33.1450   47.2160 C   0  0  0  0  0  0  0  0  0  0  0  0
   59.7240   34.2280   46.7940 C   0  0  0  0  0  0  0  0  0  0  0  0
   59.4010   34.9390   45.6340 C   0  0  0  0  0  0  0  0  0  0  0  0
   58.2820   34.5780   44.8800 C   0  0  0  0  0  0  0  0  0  0  0  0
   57.4810   33.5100   45.2880 C   0  0  0  0  0  0  0  0  0  0  0  0
   57.7970   32.8000   46.4490 C   0  0  0  0  0  0  0  0  0  0  0  0
   59.4470   30.9460   48.3580 C   0  0  0  0  0  0  0  0  0  0  0  0
   59.1590   30.3240   49.7280 C   0  0  0  0  0  0  0  0  0  0  0  0
   57.5480   29.1610   52.7050 C   0  0  0  0  0  0  0  0  0  0  0  0
   56.1710   29.0580   52.9200 C   0  0  0  0  0  0  0  0  0  0  0  0
   53.0527   28.8487   50.7690 H   0  0  0  0  0  0  0  0  0  0  0  0
   51.9127   28.6698   48.5548 H   0  0  0  0  0  0  0  0  0  0  0  0
   51.8360   33.2000   52.3010 H   0  0  0  0  0  0  0  0  0  0  0  0
   55.2560   32.2644   52.1550 H   0  0  0  0  0  0  0  0  0  0  0  0
   57.7152   32.4575   51.8120 H   0  0  0  0  0  0  0  0  0  0  0  0
   59.9805   31.3007   52.8508 H   0  0  0  0  0  0  0  0  0  0  0  0
   60.0589   29.5405   52.3637 H   0  0  0  0  0  0  0  0  0  0  0  0
   60.3627   32.8179   51.6063 H   0  0  0  0  0  0  0  0  0  0  0  0
   61.3554   32.3874   50.1397 H   0  0  0  0  0  0  0  0  0  0  0  0
   58.3934   33.1205   50.1912 H   0  0  0  0  0  0  0  0  0  0  0  0
   59.7521   34.1102   49.5427 H   0  0  0  0  0  0  0  0  0  0  0  0
   60.6077   34.5165   47.3821 H   0  0  0  0  0  0  0  0  0  0  0  0
   60.0291   35.7838   45.3148 H   0  0  0  0  0  0  0  0  0  0  0  0
   58.0320   35.1351   43.9650 H   0  0  0  0  0  0  0  0  0  0  0  0
   56.5993   33.2269   44.6943 H   0  0  0  0  0  0  0  0  0  0  0  0
   57.1573   31.9636   46.7672 H   0  0  0  0  0  0  0  0  0  0  0  0
   58.7569   30.5210   47.6142 H   0  0  0  0  0  0  0  0  0  0  0  0
   60.4872   30.7253   48.0764 H   0  0  0  0  0  0  0  0  0  0  0  0
   58.1057   30.5056   49.9880 H   0  0  0  0  0  0  0  0  0  0  0  0
   59.3688   29.2459   49.6669 H   0  0  0  0  0  0  0  0  0  0  0  0
   58.1878   28.2744   52.8256 H   0  0  0  0  0  0  0  0  0  0  0  0
   55.7356   28.0949   53.2249 H   0  0  0  0  0  0  0  0  0  0  0  0
  1  2  2  0
  2  3  1  0
  3  4  1  0
  4  5  1  0
  5  6  2  0
  6  7  1  0
  7  8  1  0
  8  9  2  0
  8 10  1  0
 10 11  1  0
  2 12  1  0
 12 13  2  0
 13 14  1  0
 14 15  2  0
 15 16  1  0
 16 17  1  0
 17 18  1  0
 18 19  1  0
 19 20  1  0
 20 21  1  0
 21 22  2  0
 22 23  1  0
 23 24  2  0
 24 25  1  0
 25 26  2  0
 20 27  1  0
 27 28  1  0
 15 29  1  0
 29 30  2  0
 10  4  2  0
 30 12  1  0
 28 17  1  0
 26 21  1  0
  5 31  1  0
  6 32  1  0
 11 33  1  0
 13 34  1  0
 14 35  1  0
 16 36  1  0
 16 37  1  0
 18 38  1  0
 18 39  1  0
 19 40  1  0
 19 41  1  0
 22 42  1  0
 23 43  1  0
 24 44  1  0
 25 45  1  0
 26 46  1  0
 27 47  1  0
 27 48  1  0
 28 49  1  0
 28 50  1  0
 29 51  1  0
 30 52  1  0
M  CHG  2   3  -1   7  -1
M  END
>  <UniqueID>  (47) 
46

>  <SMILES>  (47) 
O=C([N-]c1cc[n-]c(=O)c1O)c1ccc(CN2CCN(c3ccccc3)CC2)cc1

>  <Energy>  (47) 
75.26121367182083

>  <Genealogy>  (47) 
O=C([N-]c1cc[n-]c(=O)c1O)c1ccc(CN2CCN(c3ccccc3)CC2)cc1 (protonated)
O=C([N-]c1cc[n-]c(=O)c1O)c1ccc(CN2CCN(c3ccccc3)CC2)cc1 (3D coordinates assigned)
O=C([N-]c1cc[n-]c(=O)c1O)c1ccc(CN2CCN(c3ccccc3)CC2)cc1 (nonaromatic ring conformer: 75.26121367182083 kcal/mol)

>  <smiles>  (47) 
O=C(Nc1cc[nH]c(=O)c1O)c1ccc(CN2CCN(c3ccccc3)CC2)cc1

>  <score_type>  (47) 
oracle

>  <origin>  (47) 
adg

>  <m_score__min__energy>  (47) 
-13.48

>  <m_primary>  (47) 
energy

$$$$
47:0
     RDKit          3D

 27 28  0  0  0  0  0  0  0  0999 V2000
   57.0700   26.1580   46.4040 C   0  0  0  0  0  0  0  0  0  0  0  0
   57.0230   26.8200   45.0980 N   0  0  0  0  0  0  0  0  0  0  0  0
   57.4420   28.1990   45.2180 C   0  0  0  0  0  0  0  0  0  0  0  0
   56.5050   29.2390   45.1130 C   0  0  0  0  0  0  0  0  0  0  0  0
   55.1640   28.9690   44.8690 O   0  0  0  0  0  0  0  0  0  0  0  0
   56.9070   30.5270   45.2550 N   0  0  0  0  0  0  0  0  0  0  0  0
   58.1750   30.8600   45.5060 N   0  0  0  0  0  0  0  0  0  0  0  0
   58.4910   32.2590   45.6400 C   0  0  0  0  0  0  0  0  0  0  0  0
   58.8590   32.7780   46.8930 C   0  0  0  0  0  0  0  0  0  0  0  0
   59.1890   34.1300   47.0290 C   0  0  0  0  0  0  0  0  0  0  0  0
   59.1660   34.9720   45.9150 C   0  0  0  0  0  0  0  0  0  0  0  0
   58.8170   34.4630   44.6610 C   0  0  0  0  0  0  0  0  0  0  0  0
   58.4860   33.1120   44.5200 C   0  0  0  0  0  0  0  0  0  0  0  0
   59.1360   29.8890   45.6160 C   0  0  0  0  0  0  0  0  0  0  0  0
   60.3440   30.2000   45.8130 O   0  0  0  0  0  0  0  0  0  0  0  0
   58.7820   28.5390   45.4880 C   0  0  0  0  0  0  0  0  0  0  0  0
   60.0280   27.3000   45.6690 Cl  0  0  0  0  0  0  0  0  0  0  0  0
   57.0163   26.9146   47.2007 H   0  0  0  0  0  0  0  0  0  0  0  0
   56.2186   25.4676   46.4960 H   0  0  0  0  0  0  0  0  0  0  0  0
   58.0104   25.5948   46.4960 H   0  0  0  0  0  0  0  0  0  0  0  0
   57.6310   26.3040   44.4220 H   0  0  0  0  0  0  0  0  0  0  0  0
   56.0460   26.7660   44.7250 H   0  0  0  0  0  0  0  0  0  0  0  0
   58.8876   32.1170   47.7718 H   0  0  0  0  0  0  0  0  0  0  0  0
   59.4671   34.5310   48.0148 H   0  0  0  0  0  0  0  0  0  0  0  0
   59.4226   36.0360   46.0246 H   0  0  0  0  0  0  0  0  0  0  0  0
   58.8027   35.1264   43.7836 H   0  0  0  0  0  0  0  0  0  0  0  0
   58.2205   32.7138   43.5296 H   0  0  0  0  0  0  0  0  0  0  0  0
  1  2  1  0
  2  3  1  0
  3  4  1  0
  4  5  1  0
  4  6  2  0
  6  7  1  0
  7  8  1  0
  8  9  2  0
  9 10  1  0
 10 11  2  0
 11 12  1  0
 12 13  2  0
  7 14  1  0
 14 15  2  0
 14 16  1  0
 16 17  1  0
 16  3  2  0
 13  8  1  0
  1 18  1  0
  1 19  1  0
  1 20  1  0
  2 21  1  0
  2 22  1  0
  9 23  1  0
 10 24  1  0
 11 25  1  0
 12 26  1  0
 13 27  1  0
M  CHG  2   2   1   5  -1
M  END
>  <UniqueID>  (48) 
47

>  <SMILES>  (48) 
C[NH2+]c1c([O-])nn(-c2ccccc2)c(=O)c1Cl

>  <Energy>  (48) 
38.16958724017464

>  <Genealogy>  (48) 
C[NH2+]c1c([O-])nn(-c2ccccc2)c(=O)c1Cl (protonated)
C[NH2+]c1c([O-])nn(-c2ccccc2)c(=O)c1Cl (3D coordinates assigned)
C[NH2+]c1c([O-])nn(-c2ccccc2)c(=O)c1Cl (optimized conformer: 38.16958724017464 kcal/mol)

>  <smiles>  (48) 
CNc1c(O)nn(-c2ccccc2)c(=O)c1Cl

>  <score_type>  (48) 
oracle

>  <origin>  (48) 
adg

>  <m_score__min__energy>  (48) 
-8.5399999999999991

>  <m_primary>  (48) 
energy

$$$$
48:0
     RDKit          3D

 46 49  0  0  1  0  0  0  0  0999 V2000
   59.5580   27.1780   46.0380 C   0  0  0  0  0  0  0  0  0  0  0  0
   59.0300   28.4310   45.3970 C   0  0  1  0  0  0  0  0  0  0  0  0
   60.0410   29.1090   44.7300 O   0  0  0  0  0  0  0  0  0  0  0  0
   57.9790   28.1180   44.3220 C   0  0  1  0  0  0  0  0  0  0  0  0
   57.0710   27.1560   44.7550 O   0  0  0  0  0  0  0  0  0  0  0  0
   57.2410   29.4610   44.3830 C   0  0  1  0  0  0  0  0  0  0  0  0
   55.9770   29.4260   43.5660 C   0  0  0  0  0  0  0  0  0  0  0  0
   54.9360   29.0960   44.4340 O   0  0  0  0  0  0  0  0  0  0  0  0
   56.9820   29.5180   45.7510 O   0  0  0  0  0  0  0  0  0  0  0  0
   58.2290   29.2830   46.3300 C   0  0  2  0  0  0  0  0  0  0  0  0
   58.8410   30.5830   46.5940 N   0  0  0  0  0  0  0  0  0  0  0  0
   59.9940   30.8110   47.2900 C   0  0  0  0  0  0  0  0  0  0  0  0
   60.2400   32.1670   47.3210 C   0  0  0  0  0  0  0  0  0  0  0  0
   61.3830   32.7480   48.0030 C   0  0  0  0  0  0  0  0  0  0  0  0
   61.3250   33.5650   49.0890 C   0  0  0  0  0  0  0  0  0  0  0  0
   62.4610   34.1030   49.6900 C   0  0  0  0  0  0  0  0  0  0  0  0
   63.6890   33.8010   49.1740 C   0  0  0  0  0  0  0  0  0  0  0  0
   63.7910   32.9640   48.0570 C   0  0  0  0  0  0  0  0  0  0  0  0
   62.6390   32.4350   47.4690 C   0  0  0  0  0  0  0  0  0  0  0  0
   59.2090   32.7470   46.6280 C   0  0  0  0  0  0  0  0  0  0  0  0
   58.9280   34.0460   46.3300 C   0  0  0  0  0  0  0  0  0  0  0  0
   59.7000   34.9920   46.7110 N   0  0  0  0  0  0  0  0  0  0  0  0
   57.8120   34.3170   45.6080 N   0  0  0  0  0  0  0  0  0  0  0  0
   56.9880   33.3480   45.1840 C   0  0  0  0  0  0  0  0  0  0  0  0
   57.2330   32.0580   45.4590 N   0  0  0  0  0  0  0  0  0  0  0  0
   58.3390   31.7760   46.1750 C   0  0  0  0  0  0  0  0  0  0  0  0
   59.5151   27.2799   47.1324 H   0  0  0  0  0  0  0  0  0  0  0  0
   58.9450   26.3198   45.7253 H   0  0  0  0  0  0  0  0  0  0  0  0
   60.6003   27.0174   45.7253 H   0  0  0  0  0  0  0  0  0  0  0  0
   59.6710   29.4630   43.8880 H   0  0  0  0  0  0  0  0  0  0  0  0
   58.3883   27.7641   43.3643 H   0  0  0  0  0  0  0  0  0  0  0  0
   56.2420   27.5300   45.1370 H   0  0  0  0  0  0  0  0  0  0  0  0
   57.7894   30.3255   43.9807 H   0  0  0  0  0  0  0  0  0  0  0  0
   55.7928   30.4116   43.1136 H   0  0  0  0  0  0  0  0  0  0  0  0
   56.0569   28.6895   42.7529 H   0  0  0  0  0  0  0  0  0  0  0  0
   55.1490   28.2150   44.8800 H   0  0  0  0  0  0  0  0  0  0  0  0
   58.1619   28.7395   47.2840 H   0  0  0  0  0  0  0  0  0  0  0  0
   60.6248   30.0370   47.7515 H   0  0  0  0  0  0  0  0  0  0  0  0
   60.3393   33.8114   49.5106 H   0  0  0  0  0  0  0  0  0  0  0  0
   62.3703   34.7610   50.5668 H   0  0  0  0  0  0  0  0  0  0  0  0
   64.5972   34.2153   49.6360 H   0  0  0  0  0  0  0  0  0  0  0  0
   64.7801   32.7220   47.6410 H   0  0  0  0  0  0  0  0  0  0  0  0
   62.7184   31.7764   46.5916 H   0  0  0  0  0  0  0  0  0  0  0  0
   59.3390   35.7350   47.3260 H   0  0  0  0  0  0  0  0  0  0  0  0
   57.5910   35.3280   45.3760 H   0  0  0  0  0  0  0  0  0  0  0  0
   56.0950   33.6156   44.6001 H   0  0  0  0  0  0  0  0  0  0  0  0
  1  2  1  0
  2  3  1  6
  2  4  1  0
  4  5  1  0
  4  6  1  0
  6  7  1  0
  7  8  1  0
  6  9  1  0
  9 10  1  0
 10 11  1  0
 11 12  1  0
 12 13  2  0
 13 14  1  0
 14 15  2  0
 15 16  1  0
 16 17  2  0
 17 18  1  0
 18 19  2  0
 13 20  1  0
 20 21  1  0
 21 22  2  3
 21 23  1  0
 23 24  1  0
 24 25  2  0
 25 26  1  0
 10  2  1  0
 26 11  1  0
 19 14  1  0
 26 20  2  0
  1 27  1  0
  1 28  1  0
  1 29  1  0
  3 30  1  0
  4 31  1  6
  5 32  1  0
  6 33  1  6
  7 34  1  0
  7 35  1  0
  8 36  1  0
 10 37  1  1
 12 38  1  0
 15 39  1  0
 16 40  1  0
 17 41  1  0
 18 42  1  0
 19 43  1  0
 22 44  1  0
 23 45  1  0
 24 46  1  0
M  END
>  <smiles>  (49) 
CC1(O)C(O)C(CO)OC1n1cc(-c2ccccc2)c2c(=N)[nH]cnc21

>  <score_type>  (49) 
oracle

>  <origin>  (49) 
adg

>  <m_score__min__energy>  (49) 
-8.25

>  <m_primary>  (49) 
energy

$$$$
49:0
     RDKit          3D

 57 60  0  0  0  0  0  0  0  0999 V2000
   58.9290   27.3920   45.4080 O   0  0  0  0  0  0  0  0  0  0  0  0
   58.3180   27.5760   46.4960 C   0  0  0  0  0  0  0  0  0  0  0  0
   58.4750   28.8020   47.2180 N   0  0  0  0  0  0  0  0  0  0  0  0
   58.5260   30.1130   46.6360 C   0  0  0  0  0  0  0  0  0  0  0  0
   57.9700   30.3120   45.3680 C   0  0  0  0  0  0  0  0  0  0  0  0
   58.0400   31.5670   44.7550 C   0  0  0  0  0  0  0  0  0  0  0  0
   58.6860   32.6250   45.3990 C   0  0  0  0  0  0  0  0  0  0  0  0
   59.2920   32.4270   46.6470 C   0  0  0  0  0  0  0  0  0  0  0  0
   60.1820   33.7410   47.4230 S   0  0  0  0  0  0  0  0  0  0  0  0
   59.2310   34.5540   48.2550 O   0  0  0  0  0  0  0  0  0  0  0  0
   60.7530   34.6380   46.3650 O   0  0  0  0  0  0  0  0  0  0  0  0
   61.4730   33.1440   48.4490 N   0  0  0  0  0  0  0  0  0  0  0  0
   62.5250   34.1550   48.6190 C   0  0  0  0  0  0  0  0  0  0  0  0
   63.6620   33.8400   47.6560 C   0  0  0  0  0  0  0  0  0  0  0  0
   63.3910   32.4390   47.1410 C   0  0  0  0  0  0  0  0  0  0  0  0
   62.1270   31.9730   47.8540 C   0  0  0  0  0  0  0  0  0  0  0  0
   59.2020   31.1730   47.2690 C   0  0  0  0  0  0  0  0  0  0  0  0
   57.4600   26.5580   47.0230 N   0  0  0  0  0  0  0  0  0  0  0  0
   56.8820   25.5090   46.2400 C   0  0  0  0  0  0  0  0  0  0  0  0
   57.6670   24.3930   45.9180 C   0  0  0  0  0  0  0  0  0  0  0  0
   57.1280   23.3420   45.1660 C   0  0  0  0  0  0  0  0  0  0  0  0
   58.1080   21.9130   44.8490 S   0  0  0  0  0  0  0  0  0  0  0  0
   59.5100   22.1210   45.3560 O   0  0  0  0  0  0  0  0  0  0  0  0
   58.1590   21.6920   43.3620 O   0  0  0  0  0  0  0  0  0  0  0  0
   57.4040   20.5140   45.6290 N   0  0  0  0  0  0  0  0  0  0  0  0
   56.2950   19.9830   44.8110 C   0  0  0  0  0  0  0  0  0  0  0  0
   55.3000   19.1920   45.6810 C   0  0  0  0  0  0  0  0  0  0  0  0
   54.6970   19.9620   46.7160 O   0  0  0  0  0  0  0  0  0  0  0  0
   55.4790   21.0730   47.1310 C   0  0  0  0  0  0  0  0  0  0  0  0
   56.9960   20.8310   47.0170 C   0  0  0  0  0  0  0  0  0  0  0  0
   55.8100   23.4270   44.6960 C   0  0  0  0  0  0  0  0  0  0  0  0
   55.0320   24.5510   44.9870 C   0  0  0  0  0  0  0  0  0  0  0  0
   55.5610   25.5930   45.7550 C   0  0  0  0  0  0  0  0  0  0  0  0
   54.7740   26.7140   46.0130 O   0  0  0  0  0  0  0  0  0  0  0  0
   57.4752   29.4770   44.8503 H   0  0  0  0  0  0  0  0  0  0  0  0
   57.5860   31.7212   43.7650 H   0  0  0  0  0  0  0  0  0  0  0  0
   58.7191   33.6170   44.9249 H   0  0  0  0  0  0  0  0  0  0  0  0
   62.1187   35.1532   48.3988 H   0  0  0  0  0  0  0  0  0  0  0  0
   62.8952   34.1415   49.6547 H   0  0  0  0  0  0  0  0  0  0  0  0
   63.6695   34.5593   46.8238 H   0  0  0  0  0  0  0  0  0  0  0  0
   64.6421   33.9070   48.1509 H   0  0  0  0  0  0  0  0  0  0  0  0
   63.2334   32.4546   46.0525 H   0  0  0  0  0  0  0  0  0  0  0  0
   64.2381   31.7647   47.3355 H   0  0  0  0  0  0  0  0  0  0  0  0
   61.4482   31.4949   47.1325 H   0  0  0  0  0  0  0  0  0  0  0  0
   62.3816   31.2435   48.6370 H   0  0  0  0  0  0  0  0  0  0  0  0
   59.6618   31.0172   48.2561 H   0  0  0  0  0  0  0  0  0  0  0  0
   58.7120   24.3427   46.2579 H   0  0  0  0  0  0  0  0  0  0  0  0
   55.7675   20.8210   44.3320 H   0  0  0  0  0  0  0  0  0  0  0  0
   56.7119   19.3064   44.0505 H   0  0  0  0  0  0  0  0  0  0  0  0
   54.5032   18.8039   45.0295 H   0  0  0  0  0  0  0  0  0  0  0  0
   55.8727   18.3915   46.1721 H   0  0  0  0  0  0  0  0  0  0  0  0
   55.2160   21.9379   46.5043 H   0  0  0  0  0  0  0  0  0  0  0  0
   55.2572   21.2467   48.1943 H   0  0  0  0  0  0  0  0  0  0  0  0
   57.5259   21.7375   47.3448 H   0  0  0  0  0  0  0  0  0  0  0  0
   57.2515   19.9696   47.6516 H   0  0  0  0  0  0  0  0  0  0  0  0
   55.3872   22.6072   44.0968 H   0  0  0  0  0  0  0  0  0  0  0  0
   54.0004   24.6162   44.6108 H   0  0  0  0  0  0  0  0  0  0  0  0
  1  2  2  0
  2  3  1  0
  3  4  1  0
  4  5  2  0
  5  6  1  0
  6  7  2  0
  7  8  1  0
  8  9  1  0
  9 10  2  0
  9 11  2  0
  9 12  1  0
 12 13  1  0
 13 14  1  0
 14 15  1  0
 15 16  1  0
  8 17  2  0
  2 18  1  0
 18 19  1  0
 19 20  2  0
 20 21  1  0
 21 22  1  0
 22 23  2  0
 22 24  2  0
 22 25  1  0
 25 26  1  0
 26 27  1  0
 27 28  1  0
 28 29  1  0
 29 30  1  0
 21 31  2  0
 31 32  1  0
 32 33  2  0
 33 34  1  0
 17  4  1  0
 33 19  1  0
 16 12  1  0
 30 25  1  0
  5 35  1  0
  6 36  1  0
  7 37  1  0
 13 38  1  0
 13 39  1  0
 14 40  1  0
 14 41  1  0
 15 42  1  0
 15 43  1  0
 16 44  1  0
 16 45  1  0
 17 46  1  0
 20 47  1  0
 26 48  1  0
 26 49  1  0
 27 50  1  0
 27 51  1  0
 29 52  1  0
 29 53  1  0
 30 54  1  0
 30 55  1  0
 31 56  1  0
 32 57  1  0
M  CHG  3   3  -1  18  -1  34  -1
M  END
>  <UniqueID>  (50) 
48

>  <SMILES>  (50) 
O=C([N-]c1cccc(S(=O)(=O)N2CCCC2)c1)[N-]c1cc(S(=O)(=O)N2CCOCC2)ccc1[O-]

>  <Energy>  (50) 
81.0606211522061

>  <Genealogy>  (50) 
O=C([N-]c1cccc(S(=O)(=O)N2CCCC2)c1)[N-]c1cc(S(=O)(=O)N2CCOCC2)ccc1[O-] (protonated)
O=C([N-]c1cccc(S(=O)(=O)N2CCCC2)c1)[N-]c1cc(S(=O)(=O)N2CCOCC2)ccc1[O-] (3D coordinates assigned)
O=C([N-]c1cccc(S(=O)(=O)N2CCCC2)c1)[N-]c1cc(S(=O)(=O)N2CCOCC2)ccc1[O-] (nonaromatic ring conformer: 81.0606211522061 kcal/mol)

>  <smiles>  (50) 
O=C(Nc1cccc(S(=O)(=O)N2CCCC2)c1)Nc1cc(S(=O)(=O)N2CCOCC2)ccc1O

>  <score_type>  (50) 
oracle

>  <origin>  (50) 
adg

>  <m_score__min__energy>  (50) 
-17.609999999999999

>  <m_primary>  (50) 
energy

$$$$
50:0
     RDKit          3D

 40 43  0  0  0  0  0  0  0  0999 V2000
   61.0460   30.6150   47.3850 O   0  0  0  0  0  0  0  0  0  0  0  0
   59.9360   30.6340   46.7840 C   0  0  0  0  0  0  0  0  0  0  0  0
   59.4050   31.9000   46.2340 C   0  0  0  0  0  0  0  0  0  0  0  0
   60.1200   33.1030   46.3820 C   0  0  0  0  0  0  0  0  0  0  0  0
   59.6140   34.2950   45.8580 C   0  0  0  0  0  0  0  0  0  0  0  0
   58.3940   34.3000   45.1810 C   0  0  0  0  0  0  0  0  0  0  0  0
   57.6730   33.1140   45.0260 C   0  0  0  0  0  0  0  0  0  0  0  0
   58.1690   31.9050   45.5500 C   0  0  0  0  0  0  0  0  0  0  0  0
   57.4040   30.6420   45.3920 C   0  0  0  0  0  0  0  0  0  0  0  0
   56.3030   30.6560   44.7770 O   0  0  0  0  0  0  0  0  0  0  0  0
   57.9350   29.3700   45.9570 C   0  0  0  0  0  0  0  0  0  0  0  0
   59.1730   29.3810   46.6320 C   0  0  0  0  0  0  0  0  0  0  0  0
   59.6710   28.2300   47.1590 N   0  0  0  0  0  0  0  0  0  0  0  0
   59.0210   27.0440   47.0550 C   0  0  0  0  0  0  0  0  0  0  0  0
   57.7950   26.9690   46.3870 C   0  0  0  0  0  0  0  0  0  0  0  0
   57.0710   25.6810   46.2830 C   0  0  0  0  0  0  0  0  0  0  0  0
   57.0010   24.9540   47.3120 O   0  0  0  0  0  0  0  0  0  0  0  0
   56.4410   25.2350   45.0530 N   0  0  0  0  0  0  0  0  0  0  0  0
   57.3990   24.5080   44.1820 C   0  0  0  0  0  0  0  0  0  0  0  0
   56.6560   23.7500   43.0720 C   0  0  0  0  0  0  0  0  0  0  0  0
   55.7070   22.7520   43.6050 N   0  0  0  0  0  0  0  0  0  0  0  0
   55.3160   22.9840   45.0070 C   0  0  0  0  0  0  0  0  0  0  0  0
   55.1820   24.4850   45.3130 C   0  0  0  0  0  0  0  0  0  0  0  0
   57.2430   28.1420   45.8420 C   0  0  0  0  0  0  0  0  0  0  0  0
   56.1320   28.0870   45.2460 O   0  0  0  0  0  0  0  0  0  0  0  0
   61.0831   33.1047   46.9135 H   0  0  0  0  0  0  0  0  0  0  0  0
   60.1784   35.2313   45.9793 H   0  0  0  0  0  0  0  0  0  0  0  0
   57.9992   35.2402   44.7684 H   0  0  0  0  0  0  0  0  0  0  0  0
   56.7118   33.1245   44.4913 H   0  0  0  0  0  0  0  0  0  0  0  0
   59.4601   26.1378   47.4978 H   0  0  0  0  0  0  0  0  0  0  0  0
   56.1710   26.1000   44.5240 H   0  0  0  0  0  0  0  0  0  0  0  0
   58.0913   25.2304   43.7249 H   0  0  0  0  0  0  0  0  0  0  0  0
   57.9541   23.7827   44.7950 H   0  0  0  0  0  0  0  0  0  0  0  0
   56.0986   24.4758   42.4617 H   0  0  0  0  0  0  0  0  0  0  0  0
   57.4069   23.2113   42.4754 H   0  0  0  0  0  0  0  0  0  0  0  0
   56.1480   21.8030   43.5490 H   0  0  0  0  0  0  0  0  0  0  0  0
   54.3496   22.4932   45.1946 H   0  0  0  0  0  0  0  0  0  0  0  0
   56.0992   22.5675   45.6575 H   0  0  0  0  0  0  0  0  0  0  0  0
   54.3851   24.9039   44.6810 H   0  0  0  0  0  0  0  0  0  0  0  0
   54.9467   24.5880   46.3826 H   0  0  0  0  0  0  0  0  0  0  0  0
  1  2  2  0
  2  3  1  0
  3  4  2  0
  4  5  1  0
  5  6  2  0
  6  7  1  0
  7  8  2  0
  8  9  1  0
  9 10  2  0
  9 11  1  0
 11 12  2  0
 12 13  1  0
 13 14  1  0
 14 15  2  0
 15 16  1  0
 16 17  2  0
 16 18  1  0
 18 19  1  0
 19 20  1  0
 20 21  1  0
 21 22  1  0
 22 23  1  0
 15 24  1  0
 24 25  2  0
 12  2  1  0
 23 18  1  0
  8  3  1  0
 24 11  1  0
  4 26  1  0
  5 27  1  0
  6 28  1  0
  7 29  1  0
 14 30  1  0
 18 31  1  0
 19 32  1  0
 19 33  1  0
 20 34  1  0
 20 35  1  0
 21 36  1  0
 22 37  1  0
 22 38  1  0
 23 39  1  0
 23 40  1  0
M  CHG  2  13  -1  18   1
M  END
>  <UniqueID>  (51) 
49

>  <SMILES>  (51) 
O=C1c2ccccc2C(=O)c2c1[n-]cc(C(=O)[NH+]1CCNCC1)c2=O

>  <Energy>  (51) 
71.17024634321113

>  <Genealogy>  (51) 
O=C1c2ccccc2C(=O)c2c1[n-]cc(C(=O)[NH+]1CCNCC1)c2=O (protonated)
O=C1c2ccccc2C(=O)c2c1[n-]cc(C(=O)[NH+]1CCNCC1)c2=O (3D coordinates assigned)
O=C1c2ccccc2C(=O)c2c1[n-]cc(C(=O)[NH+]1CCNCC1)c2=O (nonaromatic ring conformer: 71.17024634321113 kcal/mol)

>  <smiles>  (51) 
O=C1c2ccccc2C(=O)c2c1[nH]cc(C(=O)N1CCNCC1)c2=O

>  <score_type>  (51) 
oracle

>  <origin>  (51) 
adg

>  <m_score__min__energy>  (51) 
-8.4199999999999999

>  <m_primary>  (51) 
energy

$$$$
51:0
     RDKit          3D

 55 57  0  0  0  0  0  0  0  0999 V2000
   63.9686   32.1216   47.2992 H   0  0  0  0  0  0  0  0  0  0  0  0
   62.9000   32.3140   47.1230 C   0  0  0  0  0  0  0  0  0  0  0  0
   62.4620   33.5830   46.8880 N   0  0  0  0  0  0  0  0  0  0  0  0
   61.1440   33.8420   46.6780 C   0  0  0  0  0  0  0  0  0  0  0  0
   60.8039   34.8719   46.4947 H   0  0  0  0  0  0  0  0  0  0  0  0
   60.2170   32.7810   46.6970 C   0  0  0  0  0  0  0  0  0  0  0  0
   58.7430   33.0370   46.5580 C   0  0  0  0  0  0  0  0  0  0  0  0
   58.5390   34.0975   46.7671 H   0  0  0  0  0  0  0  0  0  0  0  0
   58.2032   32.3976   47.2720 H   0  0  0  0  0  0  0  0  0  0  0  0
   58.2700   32.7040   45.1430 C   0  0  0  0  0  0  0  0  0  0  0  0
   59.1425   32.4927   44.5073 H   0  0  0  0  0  0  0  0  0  0  0  0
   57.7122   33.5608   44.7371 H   0  0  0  0  0  0  0  0  0  0  0  0
   57.3950   31.5300   45.1720 N   0  0  0  0  0  0  0  0  0  0  0  0
   57.7220   30.2700   45.2610 C   0  0  0  0  0  0  0  0  0  0  0  0
   57.7090   29.5380   44.1210 N   0  0  0  0  0  0  0  0  0  0  0  0
   57.9830   28.2140   44.1100 C   0  0  0  0  0  0  0  0  0  0  0  0
   57.9857   27.6599   43.1598 H   0  0  0  0  0  0  0  0  0  0  0  0
   58.2630   27.5500   45.3090 C   0  0  0  0  0  0  0  0  0  0  0  0
   58.5300   26.0650   45.2550 C   0  0  0  0  0  0  0  0  0  0  0  0
   58.6014   25.6678   46.2783 H   0  0  0  0  0  0  0  0  0  0  0  0
   57.7076   25.5637   44.7237 H   0  0  0  0  0  0  0  0  0  0  0  0
   59.4755   25.8815   44.7237 H   0  0  0  0  0  0  0  0  0  0  0  0
   58.3100   28.2660   46.4880 N   0  0  0  0  0  0  0  0  0  0  0  0
   58.5530   27.5840   47.7800 C   0  0  0  0  0  0  0  0  0  0  0  0
   58.7825   26.5245   47.5934 H   0  0  0  0  0  0  0  0  0  0  0  0
   57.6519   27.6704   48.4049 H   0  0  0  0  0  0  0  0  0  0  0  0
   59.7080   28.2220   48.4980 C   0  0  0  0  0  0  0  0  0  0  0  0
   60.8900   27.9130   48.1770 O   0  0  0  0  0  0  0  0  0  0  0  0
   59.4670   29.1720   49.5450 N   0  0  0  0  0  0  0  0  0  0  0  0
   58.5420   29.6580   49.5820 H   0  0  0  0  0  0  0  0  0  0  0  0
   60.5090   29.6030   50.4700 C   0  0  0  0  0  0  0  0  0  0  0  0
   61.4533   29.0979   50.2186 H   0  0  0  0  0  0  0  0  0  0  0  0
   60.2146   29.3440   51.4977 H   0  0  0  0  0  0  0  0  0  0  0  0
   60.6950   31.0960   50.3640 C   0  0  0  0  0  0  0  0  0  0  0  0
   61.9950   31.6340   50.3610 C   0  0  0  0  0  0  0  0  0  0  0  0
   62.8643   30.9655   50.4473 H   0  0  0  0  0  0  0  0  0  0  0  0
   62.1870   33.0120   50.2490 C   0  0  0  0  0  0  0  0  0  0  0  0
   63.2062   33.4257   50.2443 H   0  0  0  0  0  0  0  0  0  0  0  0
   61.0880   33.8660   50.1430 C   0  0  0  0  0  0  0  0  0  0  0  0
   61.2419   34.9539   50.0900 H   0  0  0  0  0  0  0  0  0  0  0  0
   59.7930   33.3430   50.1040 C   0  0  0  0  0  0  0  0  0  0  0  0
   58.9317   34.0206   50.0088 H   0  0  0  0  0  0  0  0  0  0  0  0
   59.5850   31.9530   50.1860 C   0  0  0  0  0  0  0  0  0  0  0  0
   58.2600   31.4010   50.1570 N   0  0  0  0  0  0  0  0  0  0  0  0
   57.5430   30.8840   51.2840 C   0  0  0  0  0  0  0  0  0  0  0  0
   57.4030   29.6420   51.4460 O   0  0  0  0  0  0  0  0  0  0  0  0
   56.9680   31.8330   52.2770 C   0  0  0  0  0  0  0  0  0  0  0  0
   57.1848   31.4752   53.2943 H   0  0  0  0  0  0  0  0  0  0  0  0
   57.4154   32.8279   52.1351 H   0  0  0  0  0  0  0  0  0  0  0  0
   55.8791   31.8970   52.1351 H   0  0  0  0  0  0  0  0  0  0  0  0
   58.0650   29.6230   46.4750 C   0  0  0  0  0  0  0  0  0  0  0  0
   58.1570   30.2870   47.5450 O   0  0  0  0  0  0  0  0  0  0  0  0
   60.6620   31.5150   46.9400 N   0  0  0  0  0  0  0  0  0  0  0  0
   61.9810   31.2550   47.1390 C   0  0  0  0  0  0  0  0  0  0  0  0
   62.3242   30.2242   47.3109 H   0  0  0  0  0  0  0  0  0  0  0  0
  1  2  1  0
  2  3  2  0
  3  4  1  0
  4  5  1  0
  4  6  2  0
  6  7  1  0
  7  8  1  0
  7  9  1  0
  7 10  1  0
 10 11  1  0
 10 12  1  0
 10 13  1  0
 13 14  2  0
 14 15  1  0
 15 16  1  0
 16 17  1  0
 16 18  2  0
 18 19  1  0
 19 20  1  0
 19 21  1  0
 19 22  1  0
 18 23  1  0
 23 24  1  0
 24 25  1  0
 24 26  1  0
 24 27  1  0
 27 28  2  0
 27 29  1  0
 29 30  1  0
 29 31  1  0
 31 32  1  0
 31 33  1  0
 31 34  1  0
 34 35  2  0
 35 36  1  0
 35 37  1  0
 37 38  1  0
 37 39  2  0
 39 40  1  0
 39 41  1  0
 41 42  1  0
 41 43  2  0
 43 44  1  0
 44 45  1  0
 45 46  2  0
 45 47  1  0
 47 48  1  0
 47 49  1  0
 47 50  1  0
 23 51  1  0
 51 52  2  0
  6 53  1  0
 53 54  2  0
 54 55  1  0
 54  2  1  0
 51 14  1  0
 43 34  1  0
M  CHG  2  15  -1  44  -1
M  END
>  <UniqueID>  (52) 
50

>  <SMILES>  (52) 
CC(=O)[N-]c1ccccc1CNC(=O)Cn1c(C)c[n-]/c(=N/CCc2cnccn2)c1=O

>  <Energy>  (52) 
60.95146496160425

>  <Genealogy>  (52) 
CC(=O)[N-]c1ccccc1CNC(=O)Cn1c(C)c[n-]c(=NCCc2cnccn2)c1=O (protonated)
CC(=O)[N-]c1ccccc1CNC(=O)Cn1c(C)c[n-]/c(=N/CCc2cnccn2)c1=O (cis-trans isomerization)
CC(=O)[N-]c1ccccc1CNC(=O)Cn1c(C)c[n-]/c(=N/CCc2cnccn2)c1=O (3D coordinates assigned)
CC(=O)[N-]c1ccccc1CNC(=O)Cn1c(C)c[n-]/c(=N/CCc2cnccn2)c1=O (optimized conformer: 60.95146496160425 kcal/mol)

>  <smiles>  (52) 
CC(=O)Nc1ccccc1CNC(=O)Cn1c(C)c[nH]c(=NCCc2cnccn2)c1=O

>  <score_type>  (52) 
oracle

>  <origin>  (52) 
adg

>  <m_score__min__energy>  (52) 
-11.76

>  <m_primary>  (52) 
energy

$$$$
52:0
     RDKit          3D

 35 36  0  0  0  0  0  0  0  0999 V2000
   62.2650   33.0270   47.1350 C   0  0  0  0  0  0  0  0  0  0  0  0
   62.2070   31.9080   47.8590 C   0  0  0  0  0  0  0  0  0  0  0  0
   60.8850   31.3200   48.2730 C   0  0  0  0  0  0  0  0  0  0  0  0
   59.9040   31.3850   47.1590 N   0  0  0  0  0  0  0  0  0  0  0  0
   59.9030   30.4170   46.1740 C   0  0  0  0  0  0  0  0  0  0  0  0
   61.0350   29.7250   45.8970 C   0  0  0  0  0  0  0  0  0  0  0  0
   58.7450   30.2580   45.3630 C   0  0  0  0  0  0  0  0  0  0  0  0
   58.4430   29.1200   44.6730 C   0  0  0  0  0  0  0  0  0  0  0  0
   57.6640   27.9680   45.1910 C   0  0  0  0  0  0  0  0  0  0  0  0
   56.2730   28.0730   45.4000 C   0  0  0  0  0  0  0  0  0  0  0  0
   55.5660   29.2330   45.0800 O   0  0  0  0  0  0  0  0  0  0  0  0
   55.5900   27.0180   45.9130 N   0  0  0  0  0  0  0  0  0  0  0  0
   56.2160   25.8600   46.2400 C   0  0  0  0  0  0  0  0  0  0  0  0
   55.5550   24.8970   46.7080 O   0  0  0  0  0  0  0  0  0  0  0  0
   57.5560   25.7410   46.0670 N   0  0  0  0  0  0  0  0  0  0  0  0
   58.2920   26.7640   45.5620 C   0  0  0  0  0  0  0  0  0  0  0  0
   59.5400   26.6240   45.4480 O   0  0  0  0  0  0  0  0  0  0  0  0
   57.8550   31.3490   45.3040 C   0  0  0  0  0  0  0  0  0  0  0  0
   56.8650   31.3070   44.5150 O   0  0  0  0  0  0  0  0  0  0  0  0
   58.0340   32.4440   46.1060 N   0  0  0  0  0  0  0  0  0  0  0  0
   57.1140   33.5950   45.9730 C   0  0  0  0  0  0  0  0  0  0  0  0
   58.9950   32.4240   47.0930 C   0  0  0  0  0  0  0  0  0  0  0  0
   59.0740   33.6750   48.1830 S   0  0  0  0  0  0  0  0  0  0  0  0
   63.2404   33.4423   46.8415 H   0  0  0  0  0  0  0  0  0  0  0  0
   61.3374   33.5344   46.8315 H   0  0  0  0  0  0  0  0  0  0  0  0
   63.1398   31.4074   48.1580 H   0  0  0  0  0  0  0  0  0  0  0  0
   61.0329   30.2690   48.5618 H   0  0  0  0  0  0  0  0  0  0  0  0
   60.4925   31.8999   49.1214 H   0  0  0  0  0  0  0  0  0  0  0  0
   61.0305   28.9547   45.1118 H   0  0  0  0  0  0  0  0  0  0  0  0
   61.9582   29.9337   46.4574 H   0  0  0  0  0  0  0  0  0  0  0  0
   58.8105   29.0503   43.6386 H   0  0  0  0  0  0  0  0  0  0  0  0
   55.6260   30.0830   45.6260 H   0  0  0  0  0  0  0  0  0  0  0  0
   56.8278   33.9531   46.9729 H   0  0  0  0  0  0  0  0  0  0  0  0
   57.6167   34.4046   45.4236 H   0  0  0  0  0  0  0  0  0  0  0  0
   56.2135   33.2831   45.4236 H   0  0  0  0  0  0  0  0  0  0  0  0
  1  2  2  0
  2  3  1  0
  3  4  1  0
  4  5  1  0
  5  6  2  0
  5  7  1  0
  7  8  2  3
  8  9  1  0
  9 10  2  0
 10 11  1  0
 10 12  1  0
 12 13  1  0
 13 14  2  0
 13 15  1  0
 15 16  1  0
 16 17  2  0
  7 18  1  0
 18 19  2  0
 18 20  1  0
 20 21  1  0
 20 22  1  0
 22 23  2  0
 22  4  1  0
 16  9  1  0
  1 24  1  0
  1 25  1  0
  2 26  1  0
  3 27  1  0
  3 28  1  0
  6 29  1  0
  6 30  1  0
  8 31  1  0
 11 32  1  0
 21 33  1  0
 21 34  1  0
 21 35  1  0
M  CHG  2  12  -1  15  -1
M  END
>  <UniqueID>  (53) 
51

>  <SMILES>  (53) 
C=CCn1c(=C)c(=Cc2c(O)[n-]c(=O)[n-]c2=O)c(=O)n(C)c1=S

>  <Energy>  (53) 
79.12862845035264

>  <Genealogy>  (53) 
C=CCn1c(=C)c(=Cc2c(O)[n-]c(=O)[n-]c2=O)c(=O)n(C)c1=S (protonated)
C=CCn1c(=C)c(=Cc2c(O)[n-]c(=O)[n-]c2=O)c(=O)n(C)c1=S (3D coordinates assigned)
C=CCn1c(=C)c(=Cc2c(O)[n-]c(=O)[n-]c2=O)c(=O)n(C)c1=S (optimized conformer: 79.12862845035264 kcal/mol)

>  <smiles>  (53) 
C=CCn1c(=C)c(=Cc2c(O)[nH]c(=O)[nH]c2=O)c(=O)n(C)c1=S

>  <score_type>  (53) 
oracle

>  <origin>  (53) 
adg

>  <m_score__min__energy>  (53) 
-11.789999999999999

>  <m_primary>  (53) 
energy

$$$$
53:0
     RDKit          3D

 49 52  0  0  0  0  0  0  0  0999 V2000
   56.7170   34.1280   45.3840 O   0  0  0  0  0  0  0  0  0  0  0  0
   57.7460   33.4760   45.7060 C   0  0  0  0  0  0  0  0  0  0  0  0
   58.4280   32.6190   44.6830 C   0  0  0  0  0  0  0  0  0  0  0  0
   57.9250   31.2380   44.7390 N   0  0  0  0  0  0  0  0  0  0  0  0
   56.7000   30.8980   44.0020 C   0  0  0  0  0  0  0  0  0  0  0  0
   56.8730   29.5930   43.2900 C   0  0  0  0  0  0  0  0  0  0  0  0
   56.2530   29.3690   42.2160 O   0  0  0  0  0  0  0  0  0  0  0  0
   57.7320   28.5600   43.8870 C   0  0  0  0  0  0  0  0  0  0  0  0
   57.9010   27.4690   43.2780 O   0  0  0  0  0  0  0  0  0  0  0  0
   58.4390   28.8540   45.1630 C   0  0  0  0  0  0  0  0  0  0  0  0
   59.0270   27.8450   45.9710 C   0  0  0  0  0  0  0  0  0  0  0  0
   58.8170   26.4030   45.7290 C   0  0  0  0  0  0  0  0  0  0  0  0
   59.7160   25.5810   46.0550 O   0  0  0  0  0  0  0  0  0  0  0  0
   57.5790   25.9330   45.1790 N   0  0  0  0  0  0  0  0  0  0  0  0
   57.3910   24.5330   44.8100 C   0  0  0  0  0  0  0  0  0  0  0  0
   56.9550   24.3300   43.3690 C   0  0  0  0  0  0  0  0  0  0  0  0
   55.9470   24.1800   44.4980 C   0  0  0  0  0  0  0  0  0  0  0  0
   59.7920   28.2150   47.0880 C   0  0  0  0  0  0  0  0  0  0  0  0
   59.9320   29.5550   47.4410 C   0  0  0  0  0  0  0  0  0  0  0  0
   59.3120   30.5480   46.6860 C   0  0  0  0  0  0  0  0  0  0  0  0
   58.5670   30.2140   45.5410 C   0  0  0  0  0  0  0  0  0  0  0  0
   58.2910   33.5890   47.0270 N   0  0  0  0  0  0  0  0  0  0  0  0
   59.1420   34.6890   47.4590 C   0  0  0  0  0  0  0  0  0  0  0  0
   60.5550   34.2090   47.6560 C   0  0  0  0  0  0  0  0  0  0  0  0
   61.3500   33.8510   46.5530 C   0  0  0  0  0  0  0  0  0  0  0  0
   62.6540   33.3840   46.7480 C   0  0  0  0  0  0  0  0  0  0  0  0
   63.1720   33.2670   48.0410 C   0  0  0  0  0  0  0  0  0  0  0  0
   62.3850   33.6150   49.1420 C   0  0  0  0  0  0  0  0  0  0  0  0
   61.0790   34.0810   48.9540 C   0  0  0  0  0  0  0  0  0  0  0  0
   58.2371   33.0320   43.6815 H   0  0  0  0  0  0  0  0  0  0  0  0
   59.5075   32.6097   44.8941 H   0  0  0  0  0  0  0  0  0  0  0  0
   55.8607   30.8184   44.7086 H   0  0  0  0  0  0  0  0  0  0  0  0
   56.4941   31.6865   43.2631 H   0  0  0  0  0  0  0  0  0  0  0  0
   56.8230   26.6200   44.9590 H   0  0  0  0  0  0  0  0  0  0  0  0
   58.1795   24.1114   45.4508 H   0  0  0  0  0  0  0  0  0  0  0  0
   56.8928   25.1905   42.6866 H   0  0  0  0  0  0  0  0  0  0  0  0
   57.2912   23.6944   42.5365 H   0  0  0  0  0  0  0  0  0  0  0  0
   55.1555   24.9320   44.6323 H   0  0  0  0  0  0  0  0  0  0  0  0
   55.2518   23.3909   44.8206 H   0  0  0  0  0  0  0  0  0  0  0  0
   60.2860   27.4388   47.6908 H   0  0  0  0  0  0  0  0  0  0  0  0
   60.5344   29.8302   48.3193 H   0  0  0  0  0  0  0  0  0  0  0  0
   59.4059   31.6016   46.9878 H   0  0  0  0  0  0  0  0  0  0  0  0
   59.1304   35.4791   46.6938 H   0  0  0  0  0  0  0  0  0  0  0  0
   58.7613   35.0831   48.4128 H   0  0  0  0  0  0  0  0  0  0  0  0
   60.9454   33.9384   45.5339 H   0  0  0  0  0  0  0  0  0  0  0  0
   63.2733   33.1082   45.8818 H   0  0  0  0  0  0  0  0  0  0  0  0
   64.1984   32.9012   48.1917 H   0  0  0  0  0  0  0  0  0  0  0  0
   62.7932   33.5224   50.1592 H   0  0  0  0  0  0  0  0  0  0  0  0
   60.4610   34.3478   49.8240 H   0  0  0  0  0  0  0  0  0  0  0  0
  1  2  2  0
  2  3  1  0
  3  4  1  0
  4  5  1  0
  5  6  1  0
  6  7  2  0
  6  8  1  0
  8  9  2  0
  8 10  1  0
 10 11  2  0
 11 12  1  0
 12 13  2  0
 12 14  1  0
 14 15  1  0
 15 16  1  0
 16 17  1  0
 11 18  1  0
 18 19  2  0
 19 20  1  0
 20 21  2  0
  2 22  1  0
 22 23  1  0
 23 24  1  0
 24 25  2  0
 25 26  1  0
 26 27  2  0
 27 28  1  0
 28 29  2  0
 21  4  1  0
 29 24  1  0
 21 10  1  0
 17 15  1  0
  3 30  1  0
  3 31  1  0
  5 32  1  0
  5 33  1  0
 14 34  1  0
 15 35  1  0
 16 36  1  0
 16 37  1  0
 17 38  1  0
 17 39  1  0
 18 40  1  0
 19 41  1  0
 20 42  1  0
 23 43  1  0
 23 44  1  0
 25 45  1  0
 26 46  1  0
 27 47  1  0
 28 48  1  0
 29 49  1  0
M  CHG  1  22  -1
M  END
>  <UniqueID>  (54) 
52

>  <SMILES>  (54) 
O=C(CN1CC(=O)C(=O)c2c(C(=O)NC3CC3)cccc21)[N-]Cc1ccccc1

>  <Energy>  (54) 
323.1958712192743

>  <Genealogy>  (54) 
O=C(CN1CC(=O)C(=O)c2c(C(=O)NC3CC3)cccc21)[N-]Cc1ccccc1 (protonated)
O=C(CN1CC(=O)C(=O)c2c(C(=O)NC3CC3)cccc21)[N-]Cc1ccccc1 (3D coordinates assigned)
O=C(CN1CC(=O)C(=O)c2c(C(=O)NC3CC3)cccc21)[N-]Cc1ccccc1 (nonaromatic ring conformer: 323.1958712192743 kcal/mol)

>  <smiles>  (54) 
O=C(CN1CC(=O)C(=O)c2c(C(=O)NC3CC3)cccc21)NCc1ccccc1

>  <score_type>  (54) 
oracle

>  <origin>  (54) 
adg

>  <m_score__min__energy>  (54) 
-10.93

>  <m_primary>  (54) 
energy

$$$$
54:0
     RDKit          3D

 38 40  0  0  0  0  0  0  0  0999 V2000
   57.8280   25.9690   44.5200 C   0  0  0  0  0  0  0  0  0  0  0  0
   57.2590   26.9090   45.9190 S   0  0  0  0  0  0  0  0  0  0  0  0
   57.1550   26.0110   47.1200 O   0  0  0  0  0  0  0  0  0  0  0  0
   55.9000   27.4790   45.6230 O   0  0  0  0  0  0  0  0  0  0  0  0
   58.3970   28.2120   46.2460 C   0  0  0  0  0  0  0  0  0  0  0  0
   59.1210   28.7920   45.1960 C   0  0  0  0  0  0  0  0  0  0  0  0
   60.0080   29.8420   45.4500 C   0  0  0  0  0  0  0  0  0  0  0  0
   60.1710   30.3340   46.7560 C   0  0  0  0  0  0  0  0  0  0  0  0
   61.0980   31.4580   47.0290 C   0  0  0  0  0  0  0  0  0  0  0  0
   62.3720   31.1770   47.5430 C   0  0  0  0  0  0  0  0  0  0  0  0
   63.2910   32.2030   47.7450 C   0  0  0  0  0  0  0  0  0  0  0  0
   62.9350   33.5140   47.4320 C   0  0  0  0  0  0  0  0  0  0  0  0
   63.7640   34.4470   47.6070 O   0  0  0  0  0  0  0  0  0  0  0  0
   61.6940   33.7870   46.9430 N   0  0  0  0  0  0  0  0  0  0  0  0
   60.7610   32.8070   46.7470 C   0  0  0  0  0  0  0  0  0  0  0  0
   59.4100   33.1930   46.2720 C   0  0  0  0  0  0  0  0  0  0  0  0
   58.2950   33.0960   47.1220 C   0  0  0  0  0  0  0  0  0  0  0  0
   57.0250   33.4580   46.6630 C   0  0  0  0  0  0  0  0  0  0  0  0
   56.8610   33.9310   45.3580 C   0  0  0  0  0  0  0  0  0  0  0  0
   57.9660   34.0470   44.5130 C   0  0  0  0  0  0  0  0  0  0  0  0
   59.2380   33.6840   44.9660 C   0  0  0  0  0  0  0  0  0  0  0  0
   59.4490   29.7430   47.8060 C   0  0  0  0  0  0  0  0  0  0  0  0
   58.5640   28.6920   47.5510 C   0  0  0  0  0  0  0  0  0  0  0  0
   58.3676   25.0775   44.8722 H   0  0  0  0  0  0  0  0  0  0  0  0
   56.9658   25.6590   43.9113 H   0  0  0  0  0  0  0  0  0  0  0  0
   58.5025   26.5892   43.9113 H   0  0  0  0  0  0  0  0  0  0  0  0
   58.9910   28.4200   44.1690 H   0  0  0  0  0  0  0  0  0  0  0  0
   60.5816   30.2856   44.6229 H   0  0  0  0  0  0  0  0  0  0  0  0
   62.6467   30.1404   47.7879 H   0  0  0  0  0  0  0  0  0  0  0  0
   64.2900   31.9810   48.1483 H   0  0  0  0  0  0  0  0  0  0  0  0
   61.4470   34.7830   46.7380 H   0  0  0  0  0  0  0  0  0  0  0  0
   58.4221   32.7337   48.1528 H   0  0  0  0  0  0  0  0  0  0  0  0
   56.1542   33.3705   47.3294 H   0  0  0  0  0  0  0  0  0  0  0  0
   55.8607   34.2120   44.9967 H   0  0  0  0  0  0  0  0  0  0  0  0
   57.8357   34.4249   43.4882 H   0  0  0  0  0  0  0  0  0  0  0  0
   60.1067   33.7829   44.2985 H   0  0  0  0  0  0  0  0  0  0  0  0
   59.5810   30.1095   48.8347 H   0  0  0  0  0  0  0  0  0  0  0  0
   57.9966   28.2402   48.3780 H   0  0  0  0  0  0  0  0  0  0  0  0
  1  2  1  0
  2  3  2  0
  2  4  2  0
  2  5  1  0
  5  6  2  0
  6  7  1  0
  7  8  2  0
  8  9  1  0
  9 10  1  0
 10 11  2  0
 11 12  1  0
 12 13  2  0
 12 14  1  0
 14 15  1  0
 15 16  1  0
 16 17  2  0
 17 18  1  0
 18 19  2  0
 19 20  1  0
 20 21  2  0
  8 22  1  0
 22 23  2  0
 23  5  1  0
 15  9  2  0
 21 16  1  0
  1 24  1  0
  1 25  1  0
  1 26  1  0
  6 27  1  0
  7 28  1  0
 10 29  1  0
 11 30  1  0
 14 31  1  0
 17 32  1  0
 18 33  1  0
 19 34  1  0
 20 35  1  0
 21 36  1  0
 22 37  1  0
 23 38  1  0
M  END
>  <UniqueID>  (55) 
53

>  <SMILES>  (55) 
CS(=O)(=O)c1ccc(-c2ccc(=O)[nH]c2-c2ccccc2)cc1

>  <Energy>  (55) 
50.81126137835332

>  <Genealogy>  (55) 
CS(=O)(=O)c1ccc(-c2ccc(=O)[nH]c2-c2ccccc2)cc1 (3D coordinates assigned)
CS(=O)(=O)c1ccc(-c2ccc(=O)[nH]c2-c2ccccc2)cc1 (optimized conformer: 50.81126137835332 kcal/mol)

>  <smiles>  (55) 
CS(=O)(=O)c1ccc(-c2ccc(=O)[nH]c2-c2ccccc2)cc1

>  <score_type>  (55) 
oracle

>  <origin>  (55) 
adg

>  <m_score__min__energy>  (55) 
-7.8700000000000001

>  <m_primary>  (55) 
energy

$$$$
55:0
     RDKit          3D

 45 48  0  0  0  0  0  0  0  0999 V2000
   58.9120   30.6610   48.7070 O   0  0  0  0  0  0  0  0  0  0  0  0
   58.5300   31.5900   49.4700 C   0  0  0  0  0  0  0  0  0  0  0  0
   58.5800   32.9550   49.0220 N   0  0  0  0  0  0  0  0  0  0  0  0
   58.7650   33.3350   47.6460 C   0  0  0  0  0  0  0  0  0  0  0  0
   59.5260   34.4720   47.3420 C   0  0  0  0  0  0  0  0  0  0  0  0
   59.7100   34.8640   46.0150 C   0  0  0  0  0  0  0  0  0  0  0  0
   59.1350   34.1260   44.9790 C   0  0  0  0  0  0  0  0  0  0  0  0
   58.3590   32.9900   45.2630 C   0  0  0  0  0  0  0  0  0  0  0  0
   57.7350   32.1970   44.1420 C   0  0  0  0  0  0  0  0  0  0  0  0
   57.3080   30.8310   44.6190 C   0  0  0  0  0  0  0  0  0  0  0  0
   55.9940   30.4970   44.4980 N   0  0  0  0  0  0  0  0  0  0  0  0
   55.5280   29.3050   44.8690 N   0  0  0  0  0  0  0  0  0  0  0  0
   56.3430   28.3500   45.3810 C   0  0  0  0  0  0  0  0  0  0  0  0
   55.8570   27.2420   45.7300 O   0  0  0  0  0  0  0  0  0  0  0  0
   57.7140   28.6130   45.5150 C   0  0  0  0  0  0  0  0  0  0  0  0
   58.2090   29.8710   45.1350 C   0  0  0  0  0  0  0  0  0  0  0  0
   59.6810   30.1320   45.3590 C   0  0  0  0  0  0  0  0  0  0  0  0
   60.5210   28.9450   44.8640 C   0  0  0  0  0  0  0  0  0  0  0  0
   59.9860   27.5590   45.3070 C   0  0  0  0  0  0  0  0  0  0  0  0
   58.6720   27.6080   46.1080 C   0  0  0  0  0  0  0  0  0  0  0  0
   58.1570   32.6150   46.6020 C   0  0  0  0  0  0  0  0  0  0  0  0
   58.0700   31.2700   50.8380 C   0  0  0  0  0  0  0  0  0  0  0  0
   57.9400   32.2680   51.8190 C   0  0  0  0  0  0  0  0  0  0  0  0
   57.5190   31.9310   53.0670 N   0  0  0  0  0  0  0  0  0  0  0  0
   57.2210   30.6460   53.3870 C   0  0  0  0  0  0  0  0  0  0  0  0
   57.3500   29.6500   52.4190 C   0  0  0  0  0  0  0  0  0  0  0  0
   57.7710   29.9830   51.1710 N   0  0  0  0  0  0  0  0  0  0  0  0
   58.5850   33.7140   49.7400 H   0  0  0  0  0  0  0  0  0  0  0  0
   59.9808   35.0588   48.1537 H   0  0  0  0  0  0  0  0  0  0  0  0
   60.3098   35.7570   45.7850 H   0  0  0  0  0  0  0  0  0  0  0  0
   59.2903   34.4356   43.9349 H   0  0  0  0  0  0  0  0  0  0  0  0
   56.8544   32.7381   43.7654 H   0  0  0  0  0  0  0  0  0  0  0  0
   58.4811   32.0721   43.3434 H   0  0  0  0  0  0  0  0  0  0  0  0
   59.9755   31.0379   44.8089 H   0  0  0  0  0  0  0  0  0  0  0  0
   59.8577   30.2673   46.4363 H   0  0  0  0  0  0  0  0  0  0  0  0
   60.5413   28.9715   43.7645 H   0  0  0  0  0  0  0  0  0  0  0  0
   61.5196   29.0561   45.3117 H   0  0  0  0  0  0  0  0  0  0  0  0
   59.8163   26.9520   44.4054 H   0  0  0  0  0  0  0  0  0  0  0  0
   60.7453   27.1303   45.9776 H   0  0  0  0  0  0  0  0  0  0  0  0
   58.2041   26.6126   46.0928 H   0  0  0  0  0  0  0  0  0  0  0  0
   58.9020   27.9100   47.1404 H   0  0  0  0  0  0  0  0  0  0  0  0
   57.5178   31.7508   46.8357 H   0  0  0  0  0  0  0  0  0  0  0  0
   58.1773   33.3149   51.5786 H   0  0  0  0  0  0  0  0  0  0  0  0
   56.8805   30.3921   54.4017 H   0  0  0  0  0  0  0  0  0  0  0  0
   57.1129   28.6042   52.6640 H   0  0  0  0  0  0  0  0  0  0  0  0
  1  2  2  0
  2  3  1  0
  3  4  1  0
  4  5  2  0
  5  6  1  0
  6  7  2  0
  7  8  1  0
  8  9  1  0
  9 10  1  0
 10 11  2  0
 11 12  1  0
 12 13  1  0
 13 14  2  0
 13 15  1  0
 15 16  2  0
 16 17  1  0
 17 18  1  0
 18 19  1  0
 19 20  1  0
  8 21  2  0
  2 22  1  0
 22 23  2  0
 23 24  1  0
 24 25  2  0
 25 26  1  0
 26 27  2  0
 21  4  1  0
 27 22  1  0
 16 10  1  0
 20 15  1  0
  3 28  1  0
  5 29  1  0
  6 30  1  0
  7 31  1  0
  9 32  1  0
  9 33  1  0
 17 34  1  0
 17 35  1  0
 18 36  1  0
 18 37  1  0
 19 38  1  0
 19 39  1  0
 20 40  1  0
 20 41  1  0
 21 42  1  0
 23 43  1  0
 25 44  1  0
 26 45  1  0
M  CHG  1  12  -1
M  END
>  <UniqueID>  (56) 
54

>  <SMILES>  (56) 
O=C(Nc1cccc(Cc2n[n-]c(=O)c3c2CCCC3)c1)c1cnccn1

>  <Energy>  (56) 
61.461558907170385

>  <Genealogy>  (56) 
O=C(Nc1cccc(Cc2n[n-]c(=O)c3c2CCCC3)c1)c1cnccn1 (protonated)
O=C(Nc1cccc(Cc2n[n-]c(=O)c3c2CCCC3)c1)c1cnccn1 (3D coordinates assigned)
O=C(Nc1cccc(Cc2n[n-]c(=O)c3c2CCCC3)c1)c1cnccn1 (nonaromatic ring conformer: 61.461558907170385 kcal/mol)

>  <smiles>  (56) 
O=C(Nc1cccc(Cc2n[nH]c(=O)c3c2CCCC3)c1)c1cnccn1

>  <score_type>  (56) 
oracle

>  <origin>  (56) 
adg

>  <m_score__min__energy>  (56) 
-11.59

>  <m_primary>  (56) 
energy

$$$$
56:0
     RDKit          3D

 35 36  0  0  0  0  0  0  0  0999 V2000
   60.0510   34.9810   47.4920 C   0  0  0  0  0  0  0  0  0  0  0  0
   59.6260   35.2470   46.0530 C   0  0  0  0  0  0  0  0  0  0  0  0
   58.7000   34.1770   45.5690 C   0  0  0  0  0  0  0  0  0  0  0  0
   58.8470   32.8220   45.7770 C   0  0  0  0  0  0  0  0  0  0  0  0
   57.7840   32.2740   45.0860 C   0  0  0  0  0  0  0  0  0  0  0  0
   57.4360   30.8500   44.9710 C   0  0  0  0  0  0  0  0  0  0  0  0
   56.2920   30.5370   44.5450 O   0  0  0  0  0  0  0  0  0  0  0  0
   58.3930   29.8280   45.2970 N   0  0  0  0  0  0  0  0  0  0  0  0
   58.0470   28.4480   45.5070 C   0  0  0  0  0  0  0  0  0  0  0  0
   59.0700   27.5000   45.6670 C   0  0  0  0  0  0  0  0  0  0  0  0
   58.7590   26.1580   45.8920 C   0  0  0  0  0  0  0  0  0  0  0  0
   57.4250   25.7510   45.9720 C   0  0  0  0  0  0  0  0  0  0  0  0
   56.3900   26.6830   45.8350 C   0  0  0  0  0  0  0  0  0  0  0  0
   55.0360   26.2200   45.9380 N   0  0  0  0  0  0  0  0  0  0  0  0
   54.4870   24.6060   45.6210 S   0  0  0  0  0  0  0  0  0  0  0  0
   55.3790   23.9120   44.2460 C   0  0  0  0  0  0  0  0  0  0  0  0
   53.0100   24.6100   45.3400 O   0  0  0  0  0  0  0  0  0  0  0  0
   54.7450   23.7620   46.8360 O   0  0  0  0  0  0  0  0  0  0  0  0
   56.7070   28.0370   45.6140 C   0  0  0  0  0  0  0  0  0  0  0  0
   57.0970   33.2460   44.5290 O   0  0  0  0  0  0  0  0  0  0  0  0
   57.6230   34.4060   44.7910 N   0  0  0  0  0  0  0  0  0  0  0  0
   59.3231   35.4366   48.1795 H   0  0  0  0  0  0  0  0  0  0  0  0
   60.0918   33.8959   47.6676 H   0  0  0  0  0  0  0  0  0  0  0  0
   61.0448   35.4185   47.6676 H   0  0  0  0  0  0  0  0  0  0  0  0
   59.1131   36.2188   46.0017 H   0  0  0  0  0  0  0  0  0  0  0  0
   60.5221   35.2543   45.4151 H   0  0  0  0  0  0  0  0  0  0  0  0
   59.6249   32.3017   46.3551 H   0  0  0  0  0  0  0  0  0  0  0  0
   59.4070   30.0780   45.2820 H   0  0  0  0  0  0  0  0  0  0  0  0
   60.1222   27.8164   45.6148 H   0  0  0  0  0  0  0  0  0  0  0  0
   59.5660   25.4193   46.0066 H   0  0  0  0  0  0  0  0  0  0  0  0
   57.1865   24.6910   46.1438 H   0  0  0  0  0  0  0  0  0  0  0  0
   56.1951   23.2771   44.6213 H   0  0  0  0  0  0  0  0  0  0  0  0
   54.6951   23.3062   43.6335 H   0  0  0  0  0  0  0  0  0  0  0  0
   55.7981   24.7239   43.6335 H   0  0  0  0  0  0  0  0  0  0  0  0
   55.8998   28.7789   45.5244 H   0  0  0  0  0  0  0  0  0  0  0  0
  1  2  1  0
  2  3  1  0
  3  4  1  0
  4  5  2  0
  5  6  1  0
  6  7  2  0
  6  8  1  0
  8  9  1  0
  9 10  2  0
 10 11  1  0
 11 12  2  0
 12 13  1  0
 13 14  1  0
 14 15  1  0
 15 16  1  0
 15 17  2  0
 15 18  2  0
 13 19  2  0
  5 20  1  0
 20 21  1  0
 21  3  2  0
 19  9  1  0
  1 22  1  0
  1 23  1  0
  1 24  1  0
  2 25  1  0
  2 26  1  0
  4 27  1  0
  8 28  1  0
 10 29  1  0
 11 30  1  0
 12 31  1  0
 16 32  1  0
 16 33  1  0
 16 34  1  0
 19 35  1  0
M  CHG  1  14  -1
M  END
>  <UniqueID>  (57) 
55

>  <SMILES>  (57) 
CCc1cc(C(=O)Nc2cccc([N-]S(C)(=O)=O)c2)on1

>  <Energy>  (57) 
62.81831050387671

>  <Genealogy>  (57) 
CCc1cc(C(=O)Nc2cccc([N-]S(C)(=O)=O)c2)on1 (protonated)
CCc1cc(C(=O)Nc2cccc([N-]S(C)(=O)=O)c2)on1 (3D coordinates assigned)
CCc1cc(C(=O)Nc2cccc([N-]S(C)(=O)=O)c2)on1 (optimized conformer: 62.81831050387671 kcal/mol)

>  <smiles>  (57) 
CCc1cc(C(=O)Nc2cccc(NS(C)(=O)=O)c2)on1

>  <score_type>  (57) 
oracle

>  <origin>  (57) 
adg

>  <m_score__min__energy>  (57) 
-9.8200000000000003

>  <m_primary>  (57) 
energy

$$$$
57:0
     RDKit          3D

 24 25  0  0  0  0  0  0  0  0999 V2000
   54.3850   27.0870   46.7570 H   0  0  0  0  0  0  0  0  0  0  0  0
   55.1250   26.5510   46.2520 N   0  0  0  0  0  0  0  0  0  0  0  0
   56.2730   27.0800   45.9760 C   0  0  0  0  0  0  0  0  0  0  0  0
   56.3430   28.2200   45.2390 N   0  0  0  0  0  0  0  0  0  0  0  0
   57.5350   28.7990   44.9360 C   0  0  0  0  0  0  0  0  0  0  0  0
   57.5340   30.0450   44.0890 C   0  0  0  0  0  0  0  0  0  0  0  0
   58.3034   29.9489   43.3088 H   0  0  0  0  0  0  0  0  0  0  0  0
   56.5368   30.1591   43.6389 H   0  0  0  0  0  0  0  0  0  0  0  0
   57.8260   31.2710   44.9200 C   0  0  0  0  0  0  0  0  0  0  0  0
   58.1300   31.1330   46.2870 C   0  0  0  0  0  0  0  0  0  0  0  0
   58.1497   30.1323   46.7434 H   0  0  0  0  0  0  0  0  0  0  0  0
   58.4070   32.2570   47.0690 C   0  0  0  0  0  0  0  0  0  0  0  0
   58.6354   32.1398   48.1386 H   0  0  0  0  0  0  0  0  0  0  0  0
   58.3940   33.5300   46.4930 C   0  0  0  0  0  0  0  0  0  0  0  0
   58.6092   34.4149   47.1099 H   0  0  0  0  0  0  0  0  0  0  0  0
   58.1080   33.6790   45.1350 C   0  0  0  0  0  0  0  0  0  0  0  0
   58.1012   34.6820   44.6834 H   0  0  0  0  0  0  0  0  0  0  0  0
   57.8300   32.5580   44.3460 C   0  0  0  0  0  0  0  0  0  0  0  0
   57.5750   32.7320   43.0240 F   0  0  0  0  0  0  0  0  0  0  0  0
   58.7270   28.1970   45.3860 C   0  0  0  0  0  0  0  0  0  0  0  0
   60.4590   28.9370   45.0000 Br  0  0  0  0  0  0  0  0  0  0  0  0
   58.6290   27.0230   46.1450 C   0  0  0  0  0  0  0  0  0  0  0  0
   59.6660   26.4510   46.5730 O   0  0  0  0  0  0  0  0  0  0  0  0
   57.4110   26.4920   46.4220 N   0  0  0  0  0  0  0  0  0  0  0  0
  1  2  1  0
  2  3  2  0
  3  4  1  0
  4  5  1  0
  5  6  1  0
  6  7  1  0
  6  8  1  0
  6  9  1  0
  9 10  2  0
 10 11  1  0
 10 12  1  0
 12 13  1  0
 12 14  2  0
 14 15  1  0
 14 16  1  0
 16 17  1  0
 16 18  2  0
 18 19  1  0
  5 20  2  0
 20 21  1  0
 20 22  1  0
 22 23  2  0
 22 24  1  0
 24  3  1  0
 18  9  1  0
M  CHG  2   4  -1  24  -1
M  END
>  <UniqueID>  (58) 
56

>  <SMILES>  (58) 
[H]/N=c1\[n-]c(Cc2ccccc2F)c(Br)c(=O)[n-]1

>  <Energy>  (58) 
26.94109006111962

>  <Genealogy>  (58) 
N=c1[n-]c(Cc2ccccc2F)c(Br)c(=O)[n-]1 (protonated)
[H]/N=c1\[n-]c(Cc2ccccc2F)c(Br)c(=O)[n-]1 (cis-trans isomerization)
[H]/N=c1\[n-]c(Cc2ccccc2F)c(Br)c(=O)[n-]1 (3D coordinates assigned)
[H]/N=c1\[n-]c(Cc2ccccc2F)c(Br)c(=O)[n-]1 (optimized conformer: 26.94109006111962 kcal/mol)

>  <smiles>  (58) 
N=c1[nH]c(Cc2ccccc2F)c(Br)c(=O)[nH]1

>  <score_type>  (58) 
oracle

>  <origin>  (58) 
adg

>  <m_score__min__energy>  (58) 
-11.16

>  <m_primary>  (58) 
energy

$$$$
58:0
     RDKit          3D

 59 62  0  0  0  0  0  0  0  0999 V2000
   58.8960   31.4840   49.1530 C   0  0  0  0  0  0  0  0  0  0  0  0
   58.7400   31.4760   47.8280 C   0  0  0  0  0  0  0  0  0  0  0  0
   57.7900   32.4150   47.1410 C   0  0  0  0  0  0  0  0  0  0  0  0
   58.5230   33.3320   46.2640 N   0  0  0  0  0  0  0  0  0  0  0  0
   59.4120   34.2890   46.6040 C   0  0  0  0  0  0  0  0  0  0  0  0
   59.9440   34.5290   47.9860 C   0  0  0  0  0  0  0  0  0  0  0  0
   61.3550   34.0310   48.0920 C   0  0  0  0  0  0  0  0  0  0  0  0
   61.9850   33.4260   46.9940 C   0  0  0  0  0  0  0  0  0  0  0  0
   63.2910   32.9490   47.1320 C   0  0  0  0  0  0  0  0  0  0  0  0
   63.9530   33.0790   48.3520 C   0  0  0  0  0  0  0  0  0  0  0  0
   63.2950   33.6840   49.4250 C   0  0  0  0  0  0  0  0  0  0  0  0
   62.0230   34.1400   49.2730 N   0  0  0  0  0  0  0  0  0  0  0  0
   59.8510   34.9590   45.5200 N   0  0  0  0  0  0  0  0  0  0  0  0
   59.2280   34.4470   44.4690 N   0  0  0  0  0  0  0  0  0  0  0  0
   58.4270   33.4670   44.9260 C   0  0  0  0  0  0  0  0  0  0  0  0
   57.3960   32.4650   43.8510 S   0  0  0  0  0  0  0  0  0  0  0  0
   57.9140   30.8730   44.5860 C   0  0  0  0  0  0  0  0  0  0  0  0
   56.7570   29.9250   44.7550 C   0  0  0  0  0  0  0  0  0  0  0  0
   55.5890   30.3930   44.7950 O   0  0  0  0  0  0  0  0  0  0  0  0
   56.9400   28.5160   44.9490 N   0  0  0  0  0  0  0  0  0  0  0  0
   57.7990   27.8830   45.9080 C   0  0  0  0  0  0  0  0  0  0  0  0
   58.9500   28.5380   46.3750 C   0  0  0  0  0  0  0  0  0  0  0  0
   59.7750   27.9310   47.3230 C   0  0  0  0  0  0  0  0  0  0  0  0
   59.4680   26.6590   47.8050 C   0  0  0  0  0  0  0  0  0  0  0  0
   58.3470   25.9800   47.3230 C   0  0  0  0  0  0  0  0  0  0  0  0
   57.5180   26.5690   46.3530 C   0  0  0  0  0  0  0  0  0  0  0  0
   56.3400   25.8120   45.8590 C   0  0  0  0  0  0  0  0  0  0  0  0
   55.1910   26.3100   46.0020 O   0  0  0  0  0  0  0  0  0  0  0  0
   56.4780   24.5270   45.2240 N   0  0  0  0  0  0  0  0  0  0  0  0
   57.3750   23.5050   45.7820 C   0  0  0  0  0  0  0  0  0  0  0  0
   57.9620   22.6120   44.6640 C   0  0  0  0  0  0  0  0  0  0  0  0
   57.3930   22.8560   43.3880 O   0  0  0  0  0  0  0  0  0  0  0  0
   55.9840   22.8610   43.4800 C   0  0  0  0  0  0  0  0  0  0  0  0
   55.5190   24.1380   44.1840 C   0  0  0  0  0  0  0  0  0  0  0  0
   59.5993   30.7844   49.6282 H   0  0  0  0  0  0  0  0  0  0  0  0
   58.3213   32.1902   49.7702 H   0  0  0  0  0  0  0  0  0  0  0  0
   59.3215   30.7641   47.2237 H   0  0  0  0  0  0  0  0  0  0  0  0
   57.0755   31.8327   46.5406 H   0  0  0  0  0  0  0  0  0  0  0  0
   57.2544   33.0011   47.9024 H   0  0  0  0  0  0  0  0  0  0  0  0
   59.9222   35.6075   48.2014 H   0  0  0  0  0  0  0  0  0  0  0  0
   59.3173   33.9884   48.7106 H   0  0  0  0  0  0  0  0  0  0  0  0
   61.4562   33.3282   46.0344 H   0  0  0  0  0  0  0  0  0  0  0  0
   63.7961   32.4716   46.2793 H   0  0  0  0  0  0  0  0  0  0  0  0
   64.9824   32.7091   48.4682 H   0  0  0  0  0  0  0  0  0  0  0  0
   63.8058   33.7917   50.3933 H   0  0  0  0  0  0  0  0  0  0  0  0
   58.6625   30.4058   43.9291 H   0  0  0  0  0  0  0  0  0  0  0  0
   58.3314   31.0795   45.5825 H   0  0  0  0  0  0  0  0  0  0  0  0
   59.2033   29.5371   45.9907 H   0  0  0  0  0  0  0  0  0  0  0  0
   60.6686   28.4567   47.6905 H   0  0  0  0  0  0  0  0  0  0  0  0
   60.1095   26.1900   48.5656 H   0  0  0  0  0  0  0  0  0  0  0  0
   58.1109   24.9761   47.7056 H   0  0  0  0  0  0  0  0  0  0  0  0
   58.1989   24.0020   46.3151 H   0  0  0  0  0  0  0  0  0  0  0  0
   56.7976   22.8703   46.4703 H   0  0  0  0  0  0  0  0  0  0  0  0
   59.0447   22.7964   44.6035 H   0  0  0  0  0  0  0  0  0  0  0  0
   57.7306   21.5694   44.9276 H   0  0  0  0  0  0  0  0  0  0  0  0
   55.5512   22.8219   42.4695 H   0  0  0  0  0  0  0  0  0  0  0  0
   55.6529   21.9850   44.0570 H   0  0  0  0  0  0  0  0  0  0  0  0
   55.4361   24.9492   43.4457 H   0  0  0  0  0  0  0  0  0  0  0  0
   54.5412   23.9515   44.6521 H   0  0  0  0  0  0  0  0  0  0  0  0
  1  2  2  0
  2  3  1  0
  3  4  1  0
  4  5  1  0
  5  6  1  0
  6  7  1  0
  7  8  2  0
  8  9  1  0
  9 10  2  0
 10 11  1  0
 11 12  2  0
  5 13  2  0
 13 14  1  0
 14 15  2  0
 15 16  1  0
 16 17  1  0
 17 18  1  0
 18 19  2  0
 18 20  1  0
 20 21  1  0
 21 22  2  0
 22 23  1  0
 23 24  2  0
 24 25  1  0
 25 26  2  0
 26 27  1  0
 27 28  2  0
 27 29  1  0
 29 30  1  0
 30 31  1  0
 31 32  1  0
 32 33  1  0
 33 34  1  0
 15  4  1  0
 26 21  1  0
 34 29  1  0
 12  7  1  0
  1 35  1  0
  1 36  1  0
  2 37  1  0
  3 38  1  0
  3 39  1  0
  6 40  1  0
  6 41  1  0
  8 42  1  0
  9 43  1  0
 10 44  1  0
 11 45  1  0
 17 46  1  0
 17 47  1  0
 22 48  1  0
 23 49  1  0
 24 50  1  0
 25 51  1  0
 30 52  1  0
 30 53  1  0
 31 54  1  0
 31 55  1  0
 33 56  1  0
 33 57  1  0
 34 58  1  0
 34 59  1  0
M  CHG  1  20  -1
M  END
>  <UniqueID>  (59) 
57

>  <SMILES>  (59) 
C=CCn1c(Cc2ccccn2)nnc1SCC(=O)[N-]c1ccccc1C(=O)N1CCOCC1

>  <Energy>  (59) 
103.17353168713052

>  <Genealogy>  (59) 
C=CCn1c(Cc2ccccn2)nnc1SCC(=O)[N-]c1ccccc1C(=O)N1CCOCC1 (protonated)
C=CCn1c(Cc2ccccn2)nnc1SCC(=O)[N-]c1ccccc1C(=O)N1CCOCC1 (3D coordinates assigned)
C=CCn1c(Cc2ccccn2)nnc1SCC(=O)[N-]c1ccccc1C(=O)N1CCOCC1 (nonaromatic ring conformer: 103.17353168713052 kcal/mol)

>  <smiles>  (59) 
C=CCn1c(Cc2ccccn2)nnc1SCC(=O)Nc1ccccc1C(=O)N1CCOCC1

>  <score_type>  (59) 
oracle

>  <origin>  (59) 
adg

>  <m_score__min__energy>  (59) 
-12.199999999999999

>  <m_primary>  (59) 
energy

$$$$
59:0
     RDKit          3D

 43 45  0  0  0  0  0  0  0  0999 V2000
   54.5150   26.2020   45.9990 N   0  0  0  0  0  0  0  0  0  0  0  0
   56.0050   25.3490   45.8050 S   0  0  0  0  0  0  0  0  0  0  0  0
   56.4170   24.7520   47.1210 O   0  0  0  0  0  0  0  0  0  0  0  0
   55.8280   24.2440   44.8030 O   0  0  0  0  0  0  0  0  0  0  0  0
   57.2480   26.4530   45.2470 C   0  0  0  0  0  0  0  0  0  0  0  0
   57.7870   26.4850   43.9690 C   0  0  0  0  0  0  0  0  0  0  0  0
   58.7800   27.4590   43.8190 C   0  0  0  0  0  0  0  0  0  0  0  0
   59.0120   28.1900   44.9820 C   0  0  0  0  0  0  0  0  0  0  0  0
   60.0260   29.2810   45.1430 C   0  0  0  0  0  0  0  0  0  0  0  0
   59.3740   30.5410   45.6440 C   0  0  0  0  0  0  0  0  0  0  0  0
   60.0880   31.4830   46.4030 C   0  0  0  0  0  0  0  0  0  0  0  0
   59.3520   32.6160   46.7060 C   0  0  0  0  0  0  0  0  0  0  0  0
   59.9610   34.0250   47.5530 S   0  0  0  0  0  0  0  0  0  0  0  0
   58.8540   35.0370   47.6470 O   0  0  0  0  0  0  0  0  0  0  0  0
   61.0940   34.6240   46.7670 O   0  0  0  0  0  0  0  0  0  0  0  0
   60.4970   33.5970   49.1650 N   0  0  0  0  0  0  0  0  0  0  0  0
   59.3760   33.5040   50.1210 C   0  0  0  0  0  0  0  0  0  0  0  0
   58.5140   32.2450   49.9080 C   0  0  0  0  0  0  0  0  0  0  0  0
   59.3480   30.9940   49.5710 C   0  0  0  0  0  0  0  0  0  0  0  0
   60.8280   31.1880   49.8950 C   0  0  0  0  0  0  0  0  0  0  0  0
   61.3940   32.4140   49.1530 C   0  0  0  0  0  0  0  0  0  0  0  0
   57.8260   32.4810   46.0250 S   0  0  0  0  0  0  0  0  0  0  0  0
   58.0660   30.9600   45.3410 C   0  0  0  0  0  0  0  0  0  0  0  0
   57.0390   30.2630   44.5460 C   0  0  0  0  0  0  0  0  0  0  0  0
   57.1440   30.1480   43.2980 O   0  0  0  0  0  0  0  0  0  0  0  0
   55.9310   29.7160   45.1830 O   0  0  0  0  0  0  0  0  0  0  0  0
   57.9980   27.6170   46.1990 S   0  0  0  0  0  0  0  0  0  0  0  0
   54.7340   27.0840   46.5140 H   0  0  0  0  0  0  0  0  0  0  0  0
   57.4669   25.8143   43.1580 H   0  0  0  0  0  0  0  0  0  0  0  0
   59.3228   27.6303   42.8777 H   0  0  0  0  0  0  0  0  0  0  0  0
   60.7919   28.9591   45.8640 H   0  0  0  0  0  0  0  0  0  0  0  0
   60.4857   29.4847   44.1647 H   0  0  0  0  0  0  0  0  0  0  0  0
   61.1294   31.3351   46.7250 H   0  0  0  0  0  0  0  0  0  0  0  0
   59.7853   33.4814   51.1418 H   0  0  0  0  0  0  0  0  0  0  0  0
   58.7297   34.3795   49.9604 H   0  0  0  0  0  0  0  0  0  0  0  0
   57.9455   32.0495   50.8292 H   0  0  0  0  0  0  0  0  0  0  0  0
   57.8528   32.4402   49.0509 H   0  0  0  0  0  0  0  0  0  0  0  0
   58.9651   30.1441   50.1551 H   0  0  0  0  0  0  0  0  0  0  0  0
   59.2586   30.8072   48.4907 H   0  0  0  0  0  0  0  0  0  0  0  0
   60.9434   31.3373   50.9787 H   0  0  0  0  0  0  0  0  0  0  0  0
   61.3802   30.2936   49.5709 H   0  0  0  0  0  0  0  0  0  0  0  0
   62.3450   32.6967   49.6281 H   0  0  0  0  0  0  0  0  0  0  0  0
   61.5162   32.1192   48.1003 H   0  0  0  0  0  0  0  0  0  0  0  0
  1  2  1  0
  2  3  2  0
  2  4  2  0
  2  5  1  0
  5  6  2  0
  6  7  1  0
  7  8  2  0
  8  9  1  0
  9 10  1  0
 10 11  1  0
 11 12  2  0
 12 13  1  0
 13 14  2  0
 13 15  2  0
 13 16  1  0
 16 17  1  0
 17 18  1  0
 18 19  1  0
 19 20  1  0
 20 21  1  0
 12 22  1  0
 22 23  1  0
 23 24  1  0
 24 25  2  0
 24 26  1  0
  8 27  1  0
 27  5  1  0
 23 10  2  0
 21 16  1  0
  1 28  1  0
  6 29  1  0
  7 30  1  0
  9 31  1  0
  9 32  1  0
 11 33  1  0
 17 34  1  0
 17 35  1  0
 18 36  1  0
 18 37  1  0
 19 38  1  0
 19 39  1  0
 20 40  1  0
 20 41  1  0
 21 42  1  0
 21 43  1  0
M  CHG  2   1  -1  26  -1
M  END
>  <UniqueID>  (60) 
58

>  <SMILES>  (60) 
[NH-]S(=O)(=O)c1ccc(Cc2cc(S(=O)(=O)N3CCCCC3)sc2C(=O)[O-])s1

>  <Energy>  (60) 
101.14220222011909

>  <Genealogy>  (60) 
[NH-]S(=O)(=O)c1ccc(Cc2cc(S(=O)(=O)N3CCCCC3)sc2C(=O)[O-])s1 (protonated)
[NH-]S(=O)(=O)c1ccc(Cc2cc(S(=O)(=O)N3CCCCC3)sc2C(=O)[O-])s1 (3D coordinates assigned)
[NH-]S(=O)(=O)c1ccc(Cc2cc(S(=O)(=O)N3CCCCC3)sc2C(=O)[O-])s1 (nonaromatic ring conformer: 101.14220222011909 kcal/mol)

>  <smiles>  (60) 
NS(=O)(=O)c1ccc(Cc2cc(S(=O)(=O)N3CCCCC3)sc2C(=O)O)s1

>  <score_type>  (60) 
oracle

>  <origin>  (60) 
adg

>  <m_score__min__energy>  (60) 
-14.01

>  <m_primary>  (60) 
energy

$$$$
60:0
     RDKit          3D

 57 61  0  0  0  0  0  0  0  0999 V2000
   59.1830   28.2080   47.3720 C   0  0  0  0  0  0  0  0  0  0  0  0
   58.7350   28.8570   46.2850 C   0  0  0  0  0  0  0  0  0  0  0  0
   57.9210   28.3380   45.2680 C   0  0  0  0  0  0  0  0  0  0  0  0
   57.6280   27.0620   44.9410 C   0  0  0  0  0  0  0  0  0  0  0  0
   57.1540   26.0290   45.8760 C   0  0  0  0  0  0  0  0  0  0  0  0
   57.8900   24.9830   46.2940 N   0  0  0  0  0  0  0  0  0  0  0  0
   57.0050   24.2390   46.9820 C   0  0  0  0  0  0  0  0  0  0  0  0
   57.3280   23.1650   47.5490 O   0  0  0  0  0  0  0  0  0  0  0  0
   55.7470   24.7290   47.0050 N   0  0  0  0  0  0  0  0  0  0  0  0
   55.8580   25.8560   46.2910 C   0  0  0  0  0  0  0  0  0  0  0  0
   54.7920   26.7050   46.0150 O   0  0  0  0  0  0  0  0  0  0  0  0
   57.4690   29.4270   44.5390 C   0  0  0  0  0  0  0  0  0  0  0  0
   58.0880   30.5430   45.0610 C   0  0  0  0  0  0  0  0  0  0  0  0
   57.9220   31.9320   44.5230 C   0  0  0  0  0  0  0  0  0  0  0  0
   58.8560   30.2000   46.1210 N   0  0  0  0  0  0  0  0  0  0  0  0
   59.6770   31.0930   46.8940 C   0  0  0  0  0  0  0  0  0  0  0  0
   59.1010   32.1550   47.6050 C   0  0  0  0  0  0  0  0  0  0  0  0
   59.9060   33.0180   48.3570 C   0  0  0  0  0  0  0  0  0  0  0  0
   61.3010   32.8420   48.3900 C   0  0  0  0  0  0  0  0  0  0  0  0
   62.1840   33.7400   49.1780 C   0  0  0  0  0  0  0  0  0  0  0  0
   61.8580   34.9550   49.2940 O   0  0  0  0  0  0  0  0  0  0  0  0
   63.3340   33.2370   49.9040 N   0  0  0  0  0  0  0  0  0  0  0  0
   63.5750   34.0780   51.1000 C   0  0  0  0  0  0  0  0  0  0  0  0
   65.0530   34.1300   51.5230 C   0  0  0  0  0  0  0  0  0  0  0  0
   65.7800   32.8940   51.2010 N   0  0  0  0  0  0  0  0  0  0  0  0
   65.3370   31.7680   52.0370 C   0  0  0  0  0  0  0  0  0  0  0  0
   64.6870   30.6600   51.2220 C   0  0  0  0  0  0  0  0  0  0  0  0
   66.0830   30.4670   51.7820 C   0  0  0  0  0  0  0  0  0  0  0  0
   65.7290   32.5630   49.7570 C   0  0  0  0  0  0  0  0  0  0  0  0
   64.5100   33.1660   49.0200 C   0  0  0  0  0  0  0  0  0  0  0  0
   61.8690   31.7700   47.6790 C   0  0  0  0  0  0  0  0  0  0  0  0
   61.0640   30.9060   46.9370 C   0  0  0  0  0  0  0  0  0  0  0  0
   59.8194   28.7306   48.1012 H   0  0  0  0  0  0  0  0  0  0  0  0
   58.9135   27.1538   47.5331 H   0  0  0  0  0  0  0  0  0  0  0  0
   57.7539   26.7696   43.8881 H   0  0  0  0  0  0  0  0  0  0  0  0
   56.7534   29.4050   43.7039 H   0  0  0  0  0  0  0  0  0  0  0  0
   57.8372   32.6415   45.3594 H   0  0  0  0  0  0  0  0  0  0  0  0
   58.7953   32.1936   43.9074 H   0  0  0  0  0  0  0  0  0  0  0  0
   57.0117   31.9804   43.9074 H   0  0  0  0  0  0  0  0  0  0  0  0
   58.0126   32.3105   47.5717 H   0  0  0  0  0  0  0  0  0  0  0  0
   59.4449   33.8390   48.9257 H   0  0  0  0  0  0  0  0  0  0  0  0
   63.1360   32.2670   50.2310 H   0  0  0  0  0  0  0  0  0  0  0  0
   63.2393   35.1020   50.8795 H   0  0  0  0  0  0  0  0  0  0  0  0
   63.0149   33.6268   51.9323 H   0  0  0  0  0  0  0  0  0  0  0  0
   65.5383   34.9691   51.0030 H   0  0  0  0  0  0  0  0  0  0  0  0
   65.0812   34.2565   52.6153 H   0  0  0  0  0  0  0  0  0  0  0  0
   65.0793   32.3465   52.9364 H   0  0  0  0  0  0  0  0  0  0  0  0
   63.8433   30.0920   51.6410 H   0  0  0  0  0  0  0  0  0  0  0  0
   64.2350   30.5941   50.2213 H   0  0  0  0  0  0  0  0  0  0  0  0
   66.2514   29.7591   52.6069 H   0  0  0  0  0  0  0  0  0  0  0  0
   67.0620   30.2032   51.3553 H   0  0  0  0  0  0  0  0  0  0  0  0
   66.6448   32.9440   49.2815 H   0  0  0  0  0  0  0  0  0  0  0  0
   65.6390   31.4692   49.6824 H   0  0  0  0  0  0  0  0  0  0  0  0
   64.7634   34.1803   48.6780 H   0  0  0  0  0  0  0  0  0  0  0  0
   64.2645   32.5182   48.1655 H   0  0  0  0  0  0  0  0  0  0  0  0
   62.9571   31.6116   47.7083 H   0  0  0  0  0  0  0  0  0  0  0  0
   61.5212   30.0732   46.3826 H   0  0  0  0  0  0  0  0  0  0  0  0
  1  2  2  0
  2  3  1  0
  3  4  2  3
  4  5  1  0
  5  6  1  0
  6  7  1  0
  7  8  2  0
  7  9  1  0
  9 10  1  0
 10 11  1  0
  3 12  1  0
 12 13  2  0
 13 14  1  0
 13 15  1  0
 15 16  1  0
 16 17  2  0
 17 18  1  0
 18 19  2  0
 19 20  1  0
 20 21  2  0
 20 22  1  0
 22 23  1  0
 23 24  1  0
 24 25  1  0
 25 26  1  0
 26 27  1  0
 27 28  1  0
 25 29  1  0
 29 30  1  0
 19 31  1  0
 31 32  2  0
 15  2  1  0
 32 16  1  0
 10  5  2  0
 30 22  1  0
 28 26  1  0
  1 33  1  0
  1 34  1  0
  4 35  1  0
 12 36  1  0
 14 37  1  0
 14 38  1  0
 14 39  1  0
 17 40  1  0
 18 41  1  0
 22 42  1  0
 23 43  1  0
 23 44  1  0
 24 45  1  0
 24 46  1  0
 26 47  1  0
 27 48  1  0
 27 49  1  0
 28 50  1  0
 28 51  1  0
 29 52  1  0
 29 53  1  0
 30 54  1  0
 30 55  1  0
 31 56  1  0
 32 57  1  0
M  CHG  4   6  -1   9  -1  11  -1  22   1
M  END
>  <UniqueID>  (61) 
59

>  <SMILES>  (61) 
C=c1c(=Cc2[n-]c(=O)[n-]c2[O-])cc(C)n1-c1ccc(C(=O)[NH+]2CCN(C3CC3)CC2)cc1

>  <Energy>  (61) 
417.8910329738411

>  <Genealogy>  (61) 
C=c1c(=Cc2[n-]c(=O)[n-]c2[O-])cc(C)n1-c1ccc(C(=O)[NH+]2CCN(C3CC3)CC2)cc1 (protonated)
C=c1c(=Cc2[n-]c(=O)[n-]c2[O-])cc(C)n1-c1ccc(C(=O)[NH+]2CCN(C3CC3)CC2)cc1 (3D coordinates assigned)
C=c1c(=Cc2[n-]c(=O)[n-]c2[O-])cc(C)n1-c1ccc(C(=O)[NH+]2CCN(C3CC3)CC2)cc1 (nonaromatic ring conformer: 417.8910329738411 kcal/mol)

>  <smiles>  (61) 
C=c1c(=Cc2[nH]c(=O)[nH]c2O)cc(C)n1-c1ccc(C(=O)N2CCN(C3CC3)CC2)cc1

>  <score_type>  (61) 
oracle

>  <origin>  (61) 
adg

>  <m_score__min__energy>  (61) 
-15.710000000000001

>  <m_primary>  (61) 
energy

$$$$
61:0
     RDKit          3D

 42 44  0  0  0  0  0  0  0  0999 V2000
   54.7790   30.0130   44.6810 H   0  0  0  0  0  0  0  0  0  0  0  0
   55.1440   29.0880   44.8770 O   0  0  0  0  0  0  0  0  0  0  0  0
   56.4880   28.8790   45.1850 C   0  0  0  0  0  0  0  0  0  0  0  0
   56.9450   27.5720   45.3970 C   0  0  0  0  0  0  0  0  0  0  0  0
   56.2382   26.7303   45.3517 H   0  0  0  0  0  0  0  0  0  0  0  0
   58.2910   27.3340   45.6650 C   0  0  0  0  0  0  0  0  0  0  0  0
   58.6509   26.3085   45.8346 H   0  0  0  0  0  0  0  0  0  0  0  0
   59.1760   28.4070   45.7160 C   0  0  0  0  0  0  0  0  0  0  0  0
   60.2433   28.2305   45.9151 H   0  0  0  0  0  0  0  0  0  0  0  0
   58.7220   29.6720   45.5200 N   0  0  0  0  0  0  0  0  0  0  0  0
   57.4130   29.9530   45.2680 C   0  0  0  0  0  0  0  0  0  0  0  0
   57.0830   31.2040   45.1010 N   0  0  0  0  0  0  0  0  0  0  0  0
   57.9490   32.2930   44.7610 C   0  0  0  0  0  0  0  0  0  0  0  0
   58.1120   32.6840   43.1730 S   0  0  0  0  0  0  0  0  0  0  0  0
   58.5370   33.1350   45.8410 C   0  0  0  0  0  0  0  0  0  0  0  0
   59.1140   34.3930   45.5710 C   0  0  0  0  0  0  0  0  0  0  0  0
   59.1350   34.7733   44.5391 H   0  0  0  0  0  0  0  0  0  0  0  0
   59.6590   35.1600   46.6030 C   0  0  0  0  0  0  0  0  0  0  0  0
   60.1038   36.1410   46.3797 H   0  0  0  0  0  0  0  0  0  0  0  0
   59.6420   34.6880   47.9160 C   0  0  0  0  0  0  0  0  0  0  0  0
   60.0690   35.2987   48.7252 H   0  0  0  0  0  0  0  0  0  0  0  0
   59.0820   33.4380   48.2040 C   0  0  0  0  0  0  0  0  0  0  0  0
   59.0550   32.8360   49.8600 S   0  0  0  0  0  0  0  0  0  0  0  0
   57.7200   32.2040   50.1280 O   0  0  0  0  0  0  0  0  0  0  0  0
   59.2660   33.9690   50.8250 O   0  0  0  0  0  0  0  0  0  0  0  0
   60.3020   31.6480   50.0820 N   0  0  0  0  0  0  0  0  0  0  0  0
   61.5580   32.3050   50.4310 C   0  0  0  0  0  0  0  0  0  0  0  0
   61.3466   33.2537   50.9461 H   0  0  0  0  0  0  0  0  0  0  0  0
   62.1441   31.6540   51.0964 H   0  0  0  0  0  0  0  0  0  0  0  0
   62.3360   32.5770   49.1760 C   0  0  0  0  0  0  0  0  0  0  0  0
   62.6450   31.5300   48.2930 C   0  0  0  0  0  0  0  0  0  0  0  0
   62.3339   30.5020   48.5307 H   0  0  0  0  0  0  0  0  0  0  0  0
   63.3480   31.7910   47.1110 C   0  0  0  0  0  0  0  0  0  0  0  0
   63.5976   30.9665   46.4269 H   0  0  0  0  0  0  0  0  0  0  0  0
   63.7330   33.0970   46.7990 C   0  0  0  0  0  0  0  0  0  0  0  0
   64.2883   33.2998   45.8713 H   0  0  0  0  0  0  0  0  0  0  0  0
   63.4130   34.1460   47.6650 C   0  0  0  0  0  0  0  0  0  0  0  0
   63.7143   35.1744   47.4169 H   0  0  0  0  0  0  0  0  0  0  0  0
   62.7100   33.8900   48.8470 C   0  0  0  0  0  0  0  0  0  0  0  0
   62.4494   34.7196   49.5207 H   0  0  0  0  0  0  0  0  0  0  0  0
   58.5280   32.6710   47.1710 C   0  0  0  0  0  0  0  0  0  0  0  0
   58.0799   31.6932   47.4015 H   0  0  0  0  0  0  0  0  0  0  0  0
  1  2  1  0
  2  3  1  0
  3  4  2  0
  4  5  1  0
  4  6  1  0
  6  7  1  0
  6  8  2  0
  8  9  1  0
  8 10  1  0
 10 11  1  0
 11 12  2  0
 12 13  1  0
 13 14  2  0
 13 15  1  0
 15 16  2  0
 16 17  1  0
 16 18  1  0
 18 19  1  0
 18 20  2  0
 20 21  1  0
 20 22  1  0
 22 23  1  0
 23 24  2  0
 23 25  2  0
 23 26  1  0
 26 27  1  0
 27 28  1  0
 27 29  1  0
 27 30  1  0
 30 31  2  0
 31 32  1  0
 31 33  1  0
 33 34  1  0
 33 35  2  0
 35 36  1  0
 35 37  1  0
 37 38  1  0
 37 39  2  0
 39 40  1  0
 22 41  2  0
 41 42  1  0
 11  3  1  0
 41 15  1  0
 39 30  1  0
M  CHG  2  10  -1  26  -1
M  END
>  <UniqueID>  (62) 
60

>  <SMILES>  (62) 
O=S(=O)([N-]Cc1ccccc1)c1cccc(C(=S)/N=c2/[n-]cccc2O)c1

>  <Energy>  (62) 
55.5326348615479

>  <Genealogy>  (62) 
O=S(=O)([N-]Cc1ccccc1)c1cccc(C(=S)N=c2[n-]cccc2O)c1 (protonated)
O=S(=O)([N-]Cc1ccccc1)c1cccc(C(=S)/N=c2/[n-]cccc2O)c1 (cis-trans isomerization)
O=S(=O)([N-]Cc1ccccc1)c1cccc(C(=S)/N=c2/[n-]cccc2O)c1 (3D coordinates assigned)
O=S(=O)([N-]Cc1ccccc1)c1cccc(C(=S)/N=c2/[n-]cccc2O)c1 (optimized conformer: 55.5326348615479 kcal/mol)

>  <smiles>  (62) 
O=S(=O)(NCc1ccccc1)c1cccc(C(=S)N=c2[nH]cccc2O)c1

>  <score_type>  (62) 
oracle

>  <origin>  (62) 
adg

>  <m_score__min__energy>  (62) 
-13.140000000000001

>  <m_primary>  (62) 
energy

$$$$
62:0
     RDKit          3D

 43 44  0  0  0  0  0  0  0  0999 V2000
   57.2260   22.7450   43.7650 C   0  0  0  0  0  0  0  0  0  0  0  0
   56.1590   23.4390   44.5610 C   0  0  0  0  0  0  0  0  0  0  0  0
   55.0840   22.7080   44.9650 N   0  0  0  0  0  0  0  0  0  0  0  0
   54.0720   23.2670   45.6720 C   0  0  0  0  0  0  0  0  0  0  0  0
   53.0940   22.5620   46.0330 O   0  0  0  0  0  0  0  0  0  0  0  0
   54.1110   24.5830   45.9890 N   0  0  0  0  0  0  0  0  0  0  0  0
   55.1520   25.3670   45.6110 C   0  0  0  0  0  0  0  0  0  0  0  0
   55.1410   26.7130   45.9580 O   0  0  0  0  0  0  0  0  0  0  0  0
   56.2240   24.8170   44.8790 C   0  0  0  0  0  0  0  0  0  0  0  0
   57.3780   25.6940   44.4350 C   0  0  0  0  0  0  0  0  0  0  0  0
   57.9880   26.4330   45.5980 C   0  0  0  0  0  0  0  0  0  0  0  0
   58.4820   25.7270   46.7070 C   0  0  0  0  0  0  0  0  0  0  0  0
   59.0590   26.4100   47.7790 C   0  0  0  0  0  0  0  0  0  0  0  0
   59.1480   27.8050   47.7570 C   0  0  0  0  0  0  0  0  0  0  0  0
   58.6480   28.5290   46.6610 C   0  0  0  0  0  0  0  0  0  0  0  0
   58.7500   29.9620   46.6020 N   0  0  0  0  0  0  0  0  0  0  0  0
   57.7970   30.8140   45.9510 C   0  0  0  0  0  0  0  0  0  0  0  0
   56.9060   30.3200   45.2090 O   0  0  0  0  0  0  0  0  0  0  0  0
   57.9040   32.2020   46.1230 O   0  0  0  0  0  0  0  0  0  0  0  0
   58.1540   33.1700   45.0930 C   0  0  0  0  0  0  0  0  0  0  0  0
   57.0320   34.2170   45.1710 C   0  0  0  0  0  0  0  0  0  0  0  0
   58.1190   32.5060   43.7040 C   0  0  0  0  0  0  0  0  0  0  0  0
   59.5060   33.8730   45.3260 C   0  0  0  0  0  0  0  0  0  0  0  0
   58.0930   27.8340   45.5760 C   0  0  0  0  0  0  0  0  0  0  0  0
   57.9476   22.2757   44.4499 H   0  0  0  0  0  0  0  0  0  0  0  0
   56.7664   21.9725   43.1309 H   0  0  0  0  0  0  0  0  0  0  0  0
   57.7458   23.4783   43.1309 H   0  0  0  0  0  0  0  0  0  0  0  0
   58.1485   25.0623   43.9689 H   0  0  0  0  0  0  0  0  0  0  0  0
   56.9934   26.4346   43.7184 H   0  0  0  0  0  0  0  0  0  0  0  0
   58.4138   24.6294   46.7310 H   0  0  0  0  0  0  0  0  0  0  0  0
   59.4446   25.8492   48.6432 H   0  0  0  0  0  0  0  0  0  0  0  0
   59.6110   28.3379   48.6005 H   0  0  0  0  0  0  0  0  0  0  0  0
   59.6130   30.4140   46.9810 H   0  0  0  0  0  0  0  0  0  0  0  0
   56.8028   34.4309   46.2254 H   0  0  0  0  0  0  0  0  0  0  0  0
   57.3578   35.1414   44.6717 H   0  0  0  0  0  0  0  0  0  0  0  0
   56.1323   33.8281   44.6717 H   0  0  0  0  0  0  0  0  0  0  0  0
   58.0614   31.4138   43.8211 H   0  0  0  0  0  0  0  0  0  0  0  0
   57.2384   32.8622   43.1494 H   0  0  0  0  0  0  0  0  0  0  0  0
   59.0322   32.7677   43.1494 H   0  0  0  0  0  0  0  0  0  0  0  0
   59.6885   33.9679   46.4066 H   0  0  0  0  0  0  0  0  0  0  0  0
   60.3115   33.2795   44.8688 H   0  0  0  0  0  0  0  0  0  0  0  0
   59.4828   34.8732   44.8688 H   0  0  0  0  0  0  0  0  0  0  0  0
   57.7360   28.3923   44.6980 H   0  0  0  0  0  0  0  0  0  0  0  0
  1  2  1  0
  2  3  2  0
  3  4  1  0
  4  5  2  0
  4  6  1  0
  6  7  1  0
  7  8  1  0
  7  9  2  0
  9 10  1  0
 10 11  1  0
 11 12  2  0
 12 13  1  0
 13 14  2  0
 14 15  1  0
 15 16  1  0
 16 17  1  0
 17 18  2  0
 17 19  1  0
 19 20  1  0
 20 21  1  0
 20 22  1  0
 20 23  1  0
 15 24  2  0
  9  2  1  0
 24 11  1  0
  1 25  1  0
  1 26  1  0
  1 27  1  0
 10 28  1  0
 10 29  1  0
 12 30  1  0
 13 31  1  0
 14 32  1  0
 16 33  1  0
 21 34  1  0
 21 35  1  0
 21 36  1  0
 22 37  1  0
 22 38  1  0
 22 39  1  0
 23 40  1  0
 23 41  1  0
 23 42  1  0
 24 43  1  0
M  CHG  2   6  -1   8  -1
M  END
>  <UniqueID>  (63) 
61

>  <SMILES>  (63) 
Cc1nc(=O)[n-]c([O-])c1Cc1cccc(NC(=O)OC(C)(C)C)c1

>  <Energy>  (63) 
43.010036461181244

>  <Genealogy>  (63) 
Cc1nc(=O)[n-]c([O-])c1Cc1cccc(NC(=O)OC(C)(C)C)c1 (protonated)
Cc1nc(=O)[n-]c([O-])c1Cc1cccc(NC(=O)OC(C)(C)C)c1 (3D coordinates assigned)
Cc1nc(=O)[n-]c([O-])c1Cc1cccc(NC(=O)OC(C)(C)C)c1 (optimized conformer: 43.010036461181244 kcal/mol)

>  <smiles>  (63) 
Cc1nc(=O)[nH]c(O)c1Cc1cccc(NC(=O)OC(C)(C)C)c1

>  <score_type>  (63) 
oracle

>  <origin>  (63) 
adg

>  <m_score__min__energy>  (63) 
-13.32

>  <m_primary>  (63) 
energy

$$$$
63:0
     RDKit          3D

 63 66  0  0  0  0  0  0  0  0999 V2000
   53.8140   26.7170   46.3850 H   0  0  0  0  0  0  0  0  0  0  0  0
   54.6300   26.2080   45.9760 N   0  0  0  0  0  0  0  0  0  0  0  0
   55.8290   26.6900   46.0380 C   0  0  0  0  0  0  0  0  0  0  0  0
   56.1620   27.7940   45.3190 N   0  0  0  0  0  0  0  0  0  0  0  0
   57.4140   28.3250   45.3660 C   0  0  0  0  0  0  0  0  0  0  0  0
   57.7070   29.5330   44.5150 C   0  0  0  0  0  0  0  0  0  0  0  0
   58.5898   30.0501   44.9191 H   0  0  0  0  0  0  0  0  0  0  0  0
   57.8910   29.1947   43.4846 H   0  0  0  0  0  0  0  0  0  0  0  0
   56.5490   30.4840   44.5000 C   0  0  0  0  0  0  0  0  0  0  0  0
   55.3700   30.0420   44.5040 O   0  0  0  0  0  0  0  0  0  0  0  0
   56.7990   31.8920   44.5890 N   0  0  0  0  0  0  0  0  0  0  0  0
   57.6340   32.5370   45.5600 C   0  0  0  0  0  0  0  0  0  0  0  0
   58.3420   31.8060   46.5300 C   0  0  0  0  0  0  0  0  0  0  0  0
   58.2877   30.7074   46.5362 H   0  0  0  0  0  0  0  0  0  0  0  0
   59.1150   32.4710   47.4870 C   0  0  0  0  0  0  0  0  0  0  0  0
   59.6656   31.8928   48.2436 H   0  0  0  0  0  0  0  0  0  0  0  0
   59.1920   33.8740   47.4870 C   0  0  0  0  0  0  0  0  0  0  0  0
   59.9880   34.5930   48.5450 C   0  0  0  0  0  0  0  0  0  0  0  0
   60.9535   34.9066   48.1213 H   0  0  0  0  0  0  0  0  0  0  0  0
   59.4194   35.4719   48.8829 H   0  0  0  0  0  0  0  0  0  0  0  0
   60.2400   33.6670   49.7520 C   0  0  0  0  0  0  0  0  0  0  0  0
   59.6982   34.0703   50.6202 H   0  0  0  0  0  0  0  0  0  0  0  0
   59.8868   32.6637   49.4716 H   0  0  0  0  0  0  0  0  0  0  0  0
   61.6760   33.5430   50.1090 N   0  0  1  0  0  0  0  0  0  0  0  0
   61.7820   33.8830   51.0960 H   0  0  0  0  0  0  0  0  0  0  0  0
   62.1160   32.1230   50.0940 C   0  0  0  0  0  0  0  0  0  0  0  0
   61.8705   31.6784   49.1183 H   0  0  0  0  0  0  0  0  0  0  0  0
   61.5974   31.5817   50.8990 H   0  0  0  0  0  0  0  0  0  0  0  0
   63.6010   32.0280   50.3220 C   0  0  0  0  0  0  0  0  0  0  0  0
   64.1650   31.0950   51.2020 C   0  0  0  0  0  0  0  0  0  0  0  0
   63.5154   30.4064   51.7621 H   0  0  0  0  0  0  0  0  0  0  0  0
   65.5630   31.0370   51.3710 C   0  0  0  0  0  0  0  0  0  0  0  0
   66.1690   30.1240   52.2470 O   0  0  0  0  0  0  0  0  0  0  0  0
   66.9260   28.9920   51.8400 C   0  0  0  0  0  0  0  0  0  0  0  0
   67.2864   28.4531   52.7287 H   0  0  0  0  0  0  0  0  0  0  0  0
   66.2922   28.3241   51.2382 H   0  0  0  0  0  0  0  0  0  0  0  0
   67.7853   29.3227   51.2382 H   0  0  0  0  0  0  0  0  0  0  0  0
   66.3890   31.9130   50.6450 C   0  0  0  0  0  0  0  0  0  0  0  0
   67.7770   31.8330   50.8370 O   0  0  0  0  0  0  0  0  0  0  0  0
   68.5380   32.7550   51.6090 C   0  0  0  0  0  0  0  0  0  0  0  0
   68.3759   32.5587   52.6791 H   0  0  0  0  0  0  0  0  0  0  0  0
   69.6058   32.6378   51.3723 H   0  0  0  0  0  0  0  0  0  0  0  0
   68.2205   33.7812   51.3723 H   0  0  0  0  0  0  0  0  0  0  0  0
   65.8120   32.8350   49.7520 C   0  0  0  0  0  0  0  0  0  0  0  0
   66.4556   33.5105   49.1693 H   0  0  0  0  0  0  0  0  0  0  0  0
   64.4210   32.8950   49.6030 C   0  0  0  0  0  0  0  0  0  0  0  0
   63.7680   33.8250   48.6300 C   0  0  0  0  0  0  0  0  0  0  0  0
   63.4948   33.2646   47.7238 H   0  0  0  0  0  0  0  0  0  0  0  0
   64.4755   34.6307   48.3844 H   0  0  0  0  0  0  0  0  0  0  0  0
   62.4950   34.4540   49.2390 C   0  0  0  0  0  0  0  0  0  0  0  0
   61.8567   34.7961   48.4111 H   0  0  0  0  0  0  0  0  0  0  0  0
   62.8432   35.2654   49.8950 H   0  0  0  0  0  0  0  0  0  0  0  0
   58.4650   34.6010   46.5320 C   0  0  0  0  0  0  0  0  0  0  0  0
   58.5079   35.7002   46.5321 H   0  0  0  0  0  0  0  0  0  0  0  0
   57.6870   33.9360   45.5810 C   0  0  0  0  0  0  0  0  0  0  0  0
   57.1121   34.5155   44.8436 H   0  0  0  0  0  0  0  0  0  0  0  0
   58.3950   27.7130   46.1800 C   0  0  0  0  0  0  0  0  0  0  0  0
   59.7350   28.2270   46.2730 N   0  0  0  0  0  0  0  0  0  0  0  0
   60.4490   27.7640   46.8770 H   0  0  0  0  0  0  0  0  0  0  0  0
   60.0470   29.0660   45.7400 H   0  0  0  0  0  0  0  0  0  0  0  0
   58.0230   26.5700   46.9080 C   0  0  0  0  0  0  0  0  0  0  0  0
   58.8580   25.9800   47.6440 O   0  0  0  0  0  0  0  0  0  0  0  0
   56.7570   26.0870   46.8200 N   0  0  0  0  0  0  0  0  0  0  0  0
  1  2  1  0
  2  3  2  0
  3  4  1  0
  4  5  1  0
  5  6  1  0
  6  7  1  0
  6  8  1  0
  6  9  1  0
  9 10  2  0
  9 11  1  0
 11 12  1  0
 12 13  2  0
 13 14  1  0
 13 15  1  0
 15 16  1  0
 15 17  2  0
 17 18  1  0
 18 19  1  0
 18 20  1  0
 18 21  1  0
 21 22  1  0
 21 23  1  0
 21 24  1  0
 24 25  1  1
 24 26  1  0
 26 27  1  0
 26 28  1  0
 26 29  1  0
 29 30  2  0
 30 31  1  0
 30 32  1  0
 32 33  1  0
 33 34  1  0
 34 35  1  0
 34 36  1  0
 34 37  1  0
 32 38  2  0
 38 39  1  0
 39 40  1  0
 40 41  1  0
 40 42  1  0
 40 43  1  0
 38 44  1  0
 44 45  1  0
 44 46  2  0
 46 47  1  0
 47 48  1  0
 47 49  1  0
 47 50  1  0
 50 51  1  0
 50 52  1  0
 17 53  1  0
 53 54  1  0
 53 55  2  0
 55 56  1  0
  5 57  2  0
 57 58  1  0
 58 59  1  0
 58 60  1  0
 57 61  1  0
 61 62  2  0
 61 63  1  0
 63  3  1  0
 55 12  1  0
 50 24  1  0
 46 29  1  0
M  CHG  4   4  -1  11  -1  24   1  63  -1
M  END
>  <UniqueID>  (64) 
62

>  <SMILES>  (64) 
[H]/N=c1\[n-]c(CC(=O)[N-]c2ccc(CC[N@@H+]3CCc4cc(OC)c(OC)cc4C3)cc2)c(N)c(=O)[n-]1

>  <Energy>  (64) 
80.3294184046629

>  <Genealogy>  (64) 
COc1cc2c(cc1OC)C[NH+](CCc1ccc([N-]C(=O)Cc3[n-]c(=N)[n-]c(=O)c3N)cc1)CC2 (protonated)
COc1cc2c(cc1OC)C[N@H+](CCc1ccc([N-]C(=O)Cc3[n-]c(=N)[n-]c(=O)c3N)cc1)CC2 (chirality)
[H]/N=c1\[n-]c(CC(=O)[N-]c2ccc(CC[N@@H+]3CCc4cc(OC)c(OC)cc4C3)cc2)c(N)c(=O)[n-]1 (cis-trans isomerization)
[H]/N=c1\[n-]c(CC(=O)[N-]c2ccc(CC[N@@H+]3CCc4cc(OC)c(OC)cc4C3)cc2)c(N)c(=O)[n-]1 (3D coordinates assigned)
[H]/N=c1\[n-]c(CC(=O)[N-]c2ccc(CC[N@@H+]3CCc4cc(OC)c(OC)cc4C3)cc2)c(N)c(=O)[n-]1 (nonaromatic ring conformer: 80.3294184046629 kcal/mol)

>  <smiles>  (64) 
COc1cc2c(cc1OC)CN(CCc1ccc(NC(=O)Cc3[nH]c(=N)[nH]c(=O)c3N)cc1)CC2

>  <score_type>  (64) 
oracle

>  <origin>  (64) 
adg

>  <m_score__min__energy>  (64) 
-14.59

>  <m_primary>  (64) 
energy

$$$$
64:0
     RDKit          3D

 47 49  0  0  0  0  0  0  0  0999 V2000
   57.0127   29.4702   42.3526 H   0  0  0  0  0  0  0  0  0  0  0  0
   56.9330   30.1790   43.1900 C   0  0  0  0  0  0  0  0  0  0  0  0
   56.1490   29.7550   44.3650 C   0  0  0  0  0  0  0  0  0  0  0  0
   55.1360   30.4270   44.6920 O   0  0  0  0  0  0  0  0  0  0  0  0
   56.5240   28.5970   45.1220 N   0  0  0  0  0  0  0  0  0  0  0  0
   57.7170   28.4590   45.9030 C   0  0  0  0  0  0  0  0  0  0  0  0
   58.2670   27.2020   46.2000 C   0  0  0  0  0  0  0  0  0  0  0  0
   57.7994   26.2898   45.8010 H   0  0  0  0  0  0  0  0  0  0  0  0
   59.4080   27.1080   47.0020 C   0  0  0  0  0  0  0  0  0  0  0  0
   59.8456   26.1227   47.2204 H   0  0  0  0  0  0  0  0  0  0  0  0
   59.9940   28.2630   47.5270 C   0  0  0  0  0  0  0  0  0  0  0  0
   60.8779   28.1838   48.1769 H   0  0  0  0  0  0  0  0  0  0  0  0
   59.4560   29.5240   47.2260 C   0  0  0  0  0  0  0  0  0  0  0  0
   60.1060   30.9770   47.9910 S   0  0  0  0  0  0  0  0  0  0  0  0
   60.6970   30.6130   49.3240 O   0  0  0  0  0  0  0  0  0  0  0  0
   58.9930   31.9580   48.2250 O   0  0  0  0  0  0  0  0  0  0  0  0
   61.3290   31.7290   46.9860 N   0  0  0  0  0  0  0  0  0  0  0  0
   61.1620   33.2000   46.9760 C   0  0  0  0  0  0  0  0  0  0  0  0
   60.3625   33.4621   46.2674 H   0  0  0  0  0  0  0  0  0  0  0  0
   60.9085   33.5208   47.9972 H   0  0  0  0  0  0  0  0  0  0  0  0
   62.4480   33.9190   46.5590 C   0  0  0  0  0  0  0  0  0  0  0  0
   62.7512   33.5666   45.5621 H   0  0  0  0  0  0  0  0  0  0  0  0
   62.2563   35.0020   46.5403 H   0  0  0  0  0  0  0  0  0  0  0  0
   63.5810   33.6360   47.5600 C   0  0  0  0  0  0  0  0  0  0  0  0
   64.5409   33.6756   47.0243 H   0  0  0  0  0  0  0  0  0  0  0  0
   63.5219   34.3989   48.3503 H   0  0  0  0  0  0  0  0  0  0  0  0
   63.4520   32.2590   48.2360 C   0  0  0  0  0  0  0  0  0  0  0  0
   64.4588   31.8633   48.4357 H   0  0  0  0  0  0  0  0  0  0  0  0
   62.8878   32.3859   49.1717 H   0  0  0  0  0  0  0  0  0  0  0  0
   62.6910   31.2620   47.3460 C   0  0  0  0  0  0  0  0  0  0  0  0
   63.2653   31.1091   46.4204 H   0  0  0  0  0  0  0  0  0  0  0  0
   62.5787   30.3292   47.9181 H   0  0  0  0  0  0  0  0  0  0  0  0
   58.3440   29.6140   46.3790 C   0  0  0  0  0  0  0  0  0  0  0  0
   57.9607   30.6025   46.0858 H   0  0  0  0  0  0  0  0  0  0  0  0
   57.5580   31.3620   43.0600 C   0  0  0  0  0  0  0  0  0  0  0  0
   57.9704   31.6101   42.0709 H   0  0  0  0  0  0  0  0  0  0  0  0
   57.7360   32.3580   44.1410 C   0  0  0  0  0  0  0  0  0  0  0  0
   58.6820   33.3810   43.9850 C   0  0  0  0  0  0  0  0  0  0  0  0
   59.2812   33.4468   43.0649 H   0  0  0  0  0  0  0  0  0  0  0  0
   58.8570   34.3150   45.0070 C   0  0  0  0  0  0  0  0  0  0  0  0
   59.6080   35.1119   44.9025 H   0  0  0  0  0  0  0  0  0  0  0  0
   58.0760   34.2360   46.1640 C   0  0  0  0  0  0  0  0  0  0  0  0
   58.2156   34.9615   46.9789 H   0  0  0  0  0  0  0  0  0  0  0  0
   57.1160   33.2260   46.2750 C   0  0  0  0  0  0  0  0  0  0  0  0
   56.4870   33.1631   47.1752 H   0  0  0  0  0  0  0  0  0  0  0  0
   56.9580   32.3200   45.2710 N   0  0  0  0  0  0  0  0  0  0  0  0
   56.2190   31.5960   45.3730 H   0  0  0  0  0  0  0  0  0  0  0  0
  1  2  1  0
  2  3  1  0
  3  4  2  0
  3  5  1  0
  5  6  1  0
  6  7  2  0
  7  8  1  0
  7  9  1  0
  9 10  1  0
  9 11  2  0
 11 12  1  0
 11 13  1  0
 13 14  1  0
 14 15  2  0
 14 16  2  0
 14 17  1  0
 17 18  1  0
 18 19  1  0
 18 20  1  0
 18 21  1  0
 21 22  1  0
 21 23  1  0
 21 24  1  0
 24 25  1  0
 24 26  1  0
 24 27  1  0
 27 28  1  0
 27 29  1  0
 27 30  1  0
 30 31  1  0
 30 32  1  0
 13 33  2  0
 33 34  1  0
  2 35  2  0
 35 36  1  0
 35 37  1  0
 37 38  2  0
 38 39  1  0
 38 40  1  0
 40 41  1  0
 40 42  2  0
 42 43  1  0
 42 44  1  0
 44 45  1  0
 44 46  2  0
 46 47  1  0
 33  6  1  0
 46 37  1  0
 30 17  1  0
M  CHG  2   5  -1  46   1
M  END
>  <UniqueID>  (65) 
63

>  <SMILES>  (65) 
O=C(/C=C\c1cccc[nH+]1)[N-]c1cccc(S(=O)(=O)N2CCCCC2)c1

>  <Energy>  (65) 
62.31140367752266

>  <Genealogy>  (65) 
O=C(C=Cc1cccc[nH+]1)[N-]c1cccc(S(=O)(=O)N2CCCCC2)c1 (protonated)
O=C(/C=C\c1cccc[nH+]1)[N-]c1cccc(S(=O)(=O)N2CCCCC2)c1 (cis-trans isomerization)
O=C(/C=C\c1cccc[nH+]1)[N-]c1cccc(S(=O)(=O)N2CCCCC2)c1 (3D coordinates assigned)
O=C(/C=C\c1cccc[nH+]1)[N-]c1cccc(S(=O)(=O)N2CCCCC2)c1 (nonaromatic ring conformer: 62.31140367752266 kcal/mol)

>  <smiles>  (65) 
O=C(C=Cc1ccccn1)Nc1cccc(S(=O)(=O)N2CCCCC2)c1

>  <score_type>  (65) 
oracle

>  <origin>  (65) 
adg

>  <m_score__min__energy>  (65) 
-9.0500000000000007

>  <m_primary>  (65) 
energy

$$$$
65:0
     RDKit          3D

 51 53  0  0  0  0  0  0  0  0999 V2000
   58.3501   33.7880   42.9283 H   0  0  0  0  0  0  0  0  0  0  0  0
   57.8350   32.9770   43.4640 C   0  0  0  0  0  0  0  0  0  0  0  0
   57.6460   31.6990   42.7540 C   0  0  0  0  0  0  0  0  0  0  0  0
   57.0800   31.7000   41.6290 O   0  0  0  0  0  0  0  0  0  0  0  0
   58.0270   30.4930   43.3520 O   0  0  0  0  0  0  0  0  0  0  0  0
   57.1280   29.4040   43.5300 C   0  0  0  0  0  0  0  0  0  0  0  0
   57.6961   28.4621   43.5374 H   0  0  0  0  0  0  0  0  0  0  0  0
   56.4026   29.4004   42.7031 H   0  0  0  0  0  0  0  0  0  0  0  0
   56.3910   29.5450   44.8220 C   0  0  0  0  0  0  0  0  0  0  0  0
   55.1490   29.3340   44.8640 O   0  0  0  0  0  0  0  0  0  0  0  0
   57.1360   29.8460   46.0110 N   0  0  0  0  0  0  0  0  0  0  0  0
   58.1450   29.1890   46.5110 C   0  0  0  0  0  0  0  0  0  0  0  0
   58.7120   29.5310   47.6820 N   0  0  0  0  0  0  0  0  0  0  0  0
   59.6610   28.6680   47.9050 O   0  0  0  0  0  0  0  0  0  0  0  0
   59.7270   27.7790   46.9410 C   0  0  0  0  0  0  0  0  0  0  0  0
   60.7060   26.6570   46.8910 C   0  0  0  0  0  0  0  0  0  0  0  0
   60.9698   26.3547   47.9152 H   0  0  0  0  0  0  0  0  0  0  0  0
   60.2587   25.8035   46.3604 H   0  0  0  0  0  0  0  0  0  0  0  0
   61.6122   26.9845   46.3604 H   0  0  0  0  0  0  0  0  0  0  0  0
   58.7670   28.0630   45.9930 C   0  0  0  0  0  0  0  0  0  0  0  0
   58.5484   27.5284   45.0568 H   0  0  0  0  0  0  0  0  0  0  0  0
   57.4230   33.2210   44.7180 C   0  0  0  0  0  0  0  0  0  0  0  0
   56.3523   33.0987   44.9384 H   0  0  0  0  0  0  0  0  0  0  0  0
   58.3080   33.6420   45.8210 C   0  0  0  0  0  0  0  0  0  0  0  0
   58.9950   34.8630   45.7350 C   0  0  0  0  0  0  0  0  0  0  0  0
   58.8517   35.5127   44.8590 H   0  0  0  0  0  0  0  0  0  0  0  0
   59.8600   35.2550   46.7590 C   0  0  0  0  0  0  0  0  0  0  0  0
   60.3718   36.2270   46.7020 H   0  0  0  0  0  0  0  0  0  0  0  0
   60.0780   34.4160   47.8570 C   0  0  0  0  0  0  0  0  0  0  0  0
   60.7567   34.7319   48.6630 H   0  0  0  0  0  0  0  0  0  0  0  0
   59.4340   33.1750   47.9320 C   0  0  0  0  0  0  0  0  0  0  0  0
   59.7420   32.0840   49.2810 S   0  0  0  0  0  0  0  0  0  0  0  0
   60.3430   32.8860   50.4030 O   0  0  0  0  0  0  0  0  0  0  0  0
   58.4450   31.4990   49.7680 O   0  0  0  0  0  0  0  0  0  0  0  0
   60.8610   30.8210   48.8090 N   0  0  0  0  0  0  0  0  0  0  0  0
   60.2880   29.9470   48.7330 H   0  0  0  0  0  0  0  0  0  0  0  0
   61.8880   30.5840   49.8410 C   0  0  0  0  0  0  0  0  0  0  0  0
   61.3947   30.5240   50.8223 H   0  0  0  0  0  0  0  0  0  0  0  0
   62.4041   29.6457   49.5896 H   0  0  0  0  0  0  0  0  0  0  0  0
   62.9510   31.7070   49.8880 C   0  0  0  0  0  0  0  0  0  0  0  0
   62.7464   32.3437   50.7614 H   0  0  0  0  0  0  0  0  0  0  0  0
   63.9349   31.2188   49.9488 H   0  0  0  0  0  0  0  0  0  0  0  0
   62.9620   32.5240   48.7300 O   0  0  0  0  0  0  0  0  0  0  0  0
   62.8620   31.7240   47.5730 C   0  0  0  0  0  0  0  0  0  0  0  0
   63.0385   32.3480   46.6845 H   0  0  0  0  0  0  0  0  0  0  0  0
   63.6135   30.9225   47.6273 H   0  0  0  0  0  0  0  0  0  0  0  0
   61.4610   31.0900   47.4780 C   0  0  0  0  0  0  0  0  0  0  0  0
   60.8011   31.7762   46.9270 H   0  0  0  0  0  0  0  0  0  0  0  0
   61.5681   30.1248   46.9613 H   0  0  0  0  0  0  0  0  0  0  0  0
   58.5420   32.7950   46.9190 C   0  0  0  0  0  0  0  0  0  0  0  0
   58.0218   31.8279   46.9836 H   0  0  0  0  0  0  0  0  0  0  0  0
  1  2  1  0
  2  3  1  0
  3  4  2  0
  3  5  1  0
  5  6  1  0
  6  7  1  0
  6  8  1  0
  6  9  1  0
  9 10  2  0
  9 11  1  0
 11 12  2  0
 12 13  1  0
 13 14  1  0
 14 15  1  0
 15 16  1  0
 16 17  1  0
 16 18  1  0
 16 19  1  0
 15 20  2  0
 20 21  1  0
  2 22  2  3
 22 23  1  0
 22 24  1  0
 24 25  2  0
 25 26  1  0
 25 27  1  0
 27 28  1  0
 27 29  2  0
 29 30  1  0
 29 31  1  0
 31 32  1  0
 32 33  2  0
 32 34  2  0
 32 35  1  0
 35 36  1  0
 35 37  1  0
 37 38  1  0
 37 39  1  0
 37 40  1  0
 40 41  1  0
 40 42  1  0
 40 43  1  0
 43 44  1  0
 44 45  1  0
 44 46  1  0
 44 47  1  0
 47 48  1  0
 47 49  1  0
 31 50  2  0
 50 51  1  0
 20 12  1  0
 50 24  1  0
 47 35  1  0
M  CHG  2  13  -1  35   1
M  END
>  <UniqueID>  (66) 
64

>  <SMILES>  (66) 
Cc1c/c(=N\C(=O)COC(=O)C=Cc2cccc(S(=O)(=O)[NH+]3CCOCC3)c2)[n-]o1

>  <Energy>  (66) 
95.0429156777267

>  <Genealogy>  (66) 
Cc1cc(=NC(=O)COC(=O)C=Cc2cccc(S(=O)(=O)[NH+]3CCOCC3)c2)[n-]o1 (protonated)
Cc1c/c(=N\C(=O)COC(=O)C=Cc2cccc(S(=O)(=O)[NH+]3CCOCC3)c2)[n-]o1 (cis-trans isomerization)
Cc1c/c(=N\C(=O)COC(=O)C=Cc2cccc(S(=O)(=O)[NH+]3CCOCC3)c2)[n-]o1 (3D coordinates assigned)
Cc1c/c(=N\C(=O)COC(=O)C=Cc2cccc(S(=O)(=O)[NH+]3CCOCC3)c2)[n-]o1 (nonaromatic ring conformer: 95.0429156777267 kcal/mol)

>  <smiles>  (66) 
Cc1cc(=NC(=O)COC(=O)C=Cc2cccc(S(=O)(=O)N3CCOCC3)c2)[nH]o1

>  <score_type>  (66) 
oracle

>  <origin>  (66) 
adg

>  <m_score__min__energy>  (66) 
-10.08

>  <m_primary>  (66) 
energy

$$$$
66:0
     RDKit          3D

 65 68  0  0  0  0  0  0  0  0999 V2000
   56.2110   22.5620   42.7660 C   0  0  0  0  0  0  0  0  0  0  0  0
   57.0350   22.5440   44.0500 C   0  0  0  0  0  0  0  0  0  0  0  0
   57.3320   23.9580   44.5430 C   0  0  0  0  0  0  0  0  0  0  0  0
   56.0930   24.5800   44.9970 N   0  0  0  0  0  0  0  0  0  0  0  0
   56.0290   25.7830   45.7690 C   0  0  0  0  0  0  0  0  0  0  0  0
   54.9120   26.3280   45.9650 O   0  0  0  0  0  0  0  0  0  0  0  0
   57.2310   26.4020   46.3370 C   0  0  0  0  0  0  0  0  0  0  0  0
   58.1570   25.7320   46.9830 O   0  0  0  0  0  0  0  0  0  0  0  0
   59.1290   26.5120   47.3580 N   0  0  0  0  0  0  0  0  0  0  0  0
   58.8320   27.7550   46.9270 C   0  0  0  0  0  0  0  0  0  0  0  0
   59.6910   28.9510   47.2190 C   0  0  0  0  0  0  0  0  0  0  0  0
   59.3320   29.5500   48.5430 C   0  0  0  0  0  0  0  0  0  0  0  0
   58.1920   29.3390   49.0420 O   0  0  0  0  0  0  0  0  0  0  0  0
   60.3120   30.3050   49.2640 N   0  0  0  0  0  0  0  0  0  0  0  0
   60.1020   31.6100   49.8160 C   0  0  0  0  0  0  0  0  0  0  0  0
   59.1890   31.8040   50.8690 C   0  0  0  0  0  0  0  0  0  0  0  0
   58.9460   33.0850   51.3660 C   0  0  0  0  0  0  0  0  0  0  0  0
   59.6080   34.1870   50.8170 C   0  0  0  0  0  0  0  0  0  0  0  0
   60.5010   34.0100   49.7580 C   0  0  0  0  0  0  0  0  0  0  0  0
   60.7480   32.7270   49.2430 C   0  0  0  0  0  0  0  0  0  0  0  0
   61.6660   32.5740   48.1440 N   0  0  0  0  0  0  0  0  0  0  0  0
   62.6780   31.5090   48.1760 C   0  0  0  0  0  0  0  0  0  0  0  0
   63.7510   31.7670   47.1200 C   0  0  0  0  0  0  0  0  0  0  0  0
   64.0400   33.1470   47.0770 O   0  0  0  0  0  0  0  0  0  0  0  0
   62.9800   33.8430   46.4420 C   0  0  0  0  0  0  0  0  0  0  0  0
   61.5800   33.4820   46.9920 C   0  0  0  0  0  0  0  0  0  0  0  0
   57.6160   27.7320   46.2610 C   0  0  0  0  0  0  0  0  0  0  0  0
   56.9020   28.8550   45.6190 C   0  0  0  0  0  0  0  0  0  0  0  0
   55.8670   28.6390   44.9330 O   0  0  0  0  0  0  0  0  0  0  0  0
   57.4020   30.1860   45.7530 N   0  0  0  0  0  0  0  0  0  0  0  0
   57.3360   31.1750   44.6870 C   0  0  0  0  0  0  0  0  0  0  0  0
   57.8420   32.4890   45.2050 C   0  0  0  0  0  0  0  0  0  0  0  0
   57.7560   32.7880   46.5760 C   0  0  0  0  0  0  0  0  0  0  0  0
   58.2750   33.9900   47.0680 C   0  0  0  0  0  0  0  0  0  0  0  0
   58.8900   34.8960   46.1980 C   0  0  0  0  0  0  0  0  0  0  0  0
   58.9880   34.6000   44.8370 C   0  0  0  0  0  0  0  0  0  0  0  0
   58.4740   33.3980   44.3410 C   0  0  0  0  0  0  0  0  0  0  0  0
   55.1404   22.5854   43.0177 H   0  0  0  0  0  0  0  0  0  0  0  0
   56.4689   23.4547   42.1773 H   0  0  0  0  0  0  0  0  0  0  0  0
   56.4296   21.6589   42.1773 H   0  0  0  0  0  0  0  0  0  0  0  0
   56.4740   22.0047   44.8274 H   0  0  0  0  0  0  0  0  0  0  0  0
   57.9916   22.0434   43.8396 H   0  0  0  0  0  0  0  0  0  0  0  0
   58.0480   23.9137   45.3769 H   0  0  0  0  0  0  0  0  0  0  0  0
   57.7635   24.5512   43.7233 H   0  0  0  0  0  0  0  0  0  0  0  0
   60.7465   28.6417   47.2369 H   0  0  0  0  0  0  0  0  0  0  0  0
   59.5271   29.7041   46.4341 H   0  0  0  0  0  0  0  0  0  0  0  0
   58.6636   30.9405   51.3030 H   0  0  0  0  0  0  0  0  0  0  0  0
   58.2325   33.2279   52.1909 H   0  0  0  0  0  0  0  0  0  0  0  0
   59.4254   35.1943   51.2194 H   0  0  0  0  0  0  0  0  0  0  0  0
   61.0142   34.8810   49.3245 H   0  0  0  0  0  0  0  0  0  0  0  0
   63.1465   31.4831   49.1709 H   0  0  0  0  0  0  0  0  0  0  0  0
   62.1911   30.5456   47.9642 H   0  0  0  0  0  0  0  0  0  0  0  0
   64.6627   31.2085   47.3784 H   0  0  0  0  0  0  0  0  0  0  0  0
   63.3872   31.4357   46.1362 H   0  0  0  0  0  0  0  0  0  0  0  0
   63.1403   34.9222   46.5822 H   0  0  0  0  0  0  0  0  0  0  0  0
   62.9936   33.5503   45.3817 H   0  0  0  0  0  0  0  0  0  0  0  0
   61.0704   34.4057   47.3035 H   0  0  0  0  0  0  0  0  0  0  0  0
   61.0195   32.9720   46.1947 H   0  0  0  0  0  0  0  0  0  0  0  0
   57.9591   30.8477   43.8416 H   0  0  0  0  0  0  0  0  0  0  0  0
   56.2954   31.2860   44.3481 H   0  0  0  0  0  0  0  0  0  0  0  0
   57.2790   32.0744   47.2639 H   0  0  0  0  0  0  0  0  0  0  0  0
   58.1994   34.2230   48.1404 H   0  0  0  0  0  0  0  0  0  0  0  0
   59.2965   35.8417   46.5859 H   0  0  0  0  0  0  0  0  0  0  0  0
   59.4707   35.3140   44.1535 H   0  0  0  0  0  0  0  0  0  0  0  0
   58.5650   33.1635   43.2701 H   0  0  0  0  0  0  0  0  0  0  0  0
  1  2  1  0
  2  3  1  0
  3  4  1  0
  4  5  1  0
  5  6  2  0
  5  7  1  0
  7  8  1  0
  8  9  1  0
  9 10  2  0
 10 11  1  0
 11 12  1  0
 12 13  2  0
 12 14  1  0
 14 15  1  0
 15 16  2  0
 16 17  1  0
 17 18  2  0
 18 19  1  0
 19 20  2  0
 20 21  1  0
 21 22  1  0
 22 23  1  0
 23 24  1  0
 24 25  1  0
 25 26  1  0
 10 27  1  0
 27 28  1  0
 28 29  2  0
 28 30  1  0
 30 31  1  0
 31 32  1  0
 32 33  2  0
 33 34  1  0
 34 35  2  0
 35 36  1  0
 36 37  2  0
 27  7  2  0
 37 32  1  0
 20 15  1  0
 26 21  1  0
  1 38  1  0
  1 39  1  0
  1 40  1  0
  2 41  1  0
  2 42  1  0
  3 43  1  0
  3 44  1  0
 11 45  1  0
 11 46  1  0
 16 47  1  0
 17 48  1  0
 18 49  1  0
 19 50  1  0
 22 51  1  0
 22 52  1  0
 23 53  1  0
 23 54  1  0
 25 55  1  0
 25 56  1  0
 26 57  1  0
 26 58  1  0
 31 59  1  0
 31 60  1  0
 33 61  1  0
 34 62  1  0
 35 63  1  0
 36 64  1  0
 37 65  1  0
M  CHG  3   4  -1  14  -1  30  -1
M  END
>  <UniqueID>  (67) 
65

>  <SMILES>  (67) 
CCC[N-]C(=O)c1onc(CC(=O)[N-]c2ccccc2N2CCOCC2)c1C(=O)[N-]Cc1ccccc1

>  <Energy>  (67) 
106.766539204636

>  <Genealogy>  (67) 
CCC[N-]C(=O)c1onc(CC(=O)[N-]c2ccccc2N2CCOCC2)c1C(=O)[N-]Cc1ccccc1 (protonated)
CCC[N-]C(=O)c1onc(CC(=O)[N-]c2ccccc2N2CCOCC2)c1C(=O)[N-]Cc1ccccc1 (3D coordinates assigned)
CCC[N-]C(=O)c1onc(CC(=O)[N-]c2ccccc2N2CCOCC2)c1C(=O)[N-]Cc1ccccc1 (nonaromatic ring conformer: 106.766539204636 kcal/mol)

>  <smiles>  (67) 
CCCNC(=O)c1onc(CC(=O)Nc2ccccc2N2CCOCC2)c1C(=O)NCc1ccccc1

>  <score_type>  (67) 
oracle

>  <origin>  (67) 
adg

>  <m_score__min__energy>  (67) 
-13.52

>  <m_primary>  (67) 
energy

$$$$
67:0
     RDKit          3D

 65 69  0  0  0  0  0  0  0  0999 V2000
   57.4300   28.2020   43.2760 O   0  0  0  0  0  0  0  0  0  0  0  0
   56.9750   29.0640   44.0740 C   0  0  0  0  0  0  0  0  0  0  0  0
   56.7120   30.3850   43.5820 N   0  0  0  0  0  0  0  0  0  0  0  0
   57.0850   31.4950   44.1450 C   0  0  0  0  0  0  0  0  0  0  0  0
   56.4420   32.0040   45.2190 N   0  0  0  0  0  0  0  0  0  0  0  0
   57.0360   33.1440   45.6680 C   0  0  0  0  0  0  0  0  0  0  0  0
   58.1570   33.5410   44.9460 C   0  0  0  0  0  0  0  0  0  0  0  0
   59.0390   34.7070   45.2600 C   0  0  0  0  0  0  0  0  0  0  0  0
   59.8510   34.4240   46.4930 C   0  0  0  0  0  0  0  0  0  0  0  0
   59.2840   34.5920   47.7670 C   0  0  0  0  0  0  0  0  0  0  0  0
   60.0260   34.2920   48.9140 C   0  0  0  0  0  0  0  0  0  0  0  0
   61.3350   33.8160   48.7960 C   0  0  0  0  0  0  0  0  0  0  0  0
   61.9020   33.6360   47.5320 C   0  0  0  0  0  0  0  0  0  0  0  0
   61.1640   33.9340   46.3830 C   0  0  0  0  0  0  0  0  0  0  0  0
   58.4360   32.4150   43.7290 S   0  0  0  0  0  0  0  0  0  0  0  0
   56.7710   28.7380   45.4620 N   0  0  0  0  0  0  0  0  0  0  0  0
   57.0540   27.4470   46.0270 C   0  0  0  0  0  0  0  0  0  0  0  0
   56.1730   26.3690   45.8250 C   0  0  0  0  0  0  0  0  0  0  0  0
   56.4470   25.1090   46.3760 C   0  0  0  0  0  0  0  0  0  0  0  0
   55.3160   23.7750   46.1600 S   0  0  0  0  0  0  0  0  0  0  0  0
   55.1570   23.0320   47.4580 O   0  0  0  0  0  0  0  0  0  0  0  0
   53.9780   24.3440   45.7770 O   0  0  0  0  0  0  0  0  0  0  0  0
   55.8660   22.6970   44.8930 N   0  0  0  0  0  0  0  0  0  0  0  0
   55.8610   23.3480   43.5710 C   0  0  0  0  0  0  0  0  0  0  0  0
   57.0130   24.3700   43.4160 C   0  0  0  0  0  0  0  0  0  0  0  0
   58.0580   24.1940   44.3580 O   0  0  0  0  0  0  0  0  0  0  0  0
   58.3490   22.8240   44.5140 C   0  0  0  0  0  0  0  0  0  0  0  0
   57.1820   22.1030   45.2150 C   0  0  0  0  0  0  0  0  0  0  0  0
   57.6130   24.9200   47.1240 C   0  0  0  0  0  0  0  0  0  0  0  0
   58.5090   25.9740   47.3050 C   0  0  0  0  0  0  0  0  0  0  0  0
   58.2440   27.2370   46.7530 C   0  0  0  0  0  0  0  0  0  0  0  0
   59.1790   28.3070   46.9510 N   0  0  0  0  0  0  0  0  0  0  0  0
   59.7930   28.9300   45.7770 C   0  0  0  0  0  0  0  0  0  0  0  0
   61.0400   29.7190   46.1930 C   0  0  0  0  0  0  0  0  0  0  0  0
   60.7470   30.6000   47.2610 O   0  0  0  0  0  0  0  0  0  0  0  0
   60.3910   29.8570   48.4120 C   0  0  0  0  0  0  0  0  0  0  0  0
   59.0840   29.0940   48.1810 C   0  0  0  0  0  0  0  0  0  0  0  0
   56.6588   33.7073   46.5343 H   0  0  0  0  0  0  0  0  0  0  0  0
   59.7161   34.8895   44.4125 H   0  0  0  0  0  0  0  0  0  0  0  0
   58.4132   35.5941   45.4371 H   0  0  0  0  0  0  0  0  0  0  0  0
   58.2522   34.9610   47.8630 H   0  0  0  0  0  0  0  0  0  0  0  0
   59.5792   34.4307   49.9096 H   0  0  0  0  0  0  0  0  0  0  0  0
   61.9188   33.5831   49.6987 H   0  0  0  0  0  0  0  0  0  0  0  0
   62.9313   33.2590   47.4408 H   0  0  0  0  0  0  0  0  0  0  0  0
   61.6120   33.7846   45.3895 H   0  0  0  0  0  0  0  0  0  0  0  0
   56.3850   29.4730   46.0940 H   0  0  0  0  0  0  0  0  0  0  0  0
   55.2602   26.5159   45.2290 H   0  0  0  0  0  0  0  0  0  0  0  0
   55.9669   22.5751   42.7955 H   0  0  0  0  0  0  0  0  0  0  0  0
   54.9111   23.8929   43.4675 H   0  0  0  0  0  0  0  0  0  0  0  0
   57.4349   24.2679   42.4053 H   0  0  0  0  0  0  0  0  0  0  0  0
   56.5849   25.3680   43.5915 H   0  0  0  0  0  0  0  0  0  0  0  0
   58.5112   22.3730   43.5239 H   0  0  0  0  0  0  0  0  0  0  0  0
   59.2543   22.7196   45.1301 H   0  0  0  0  0  0  0  0  0  0  0  0
   57.1790   21.0494   44.8990 H   0  0  0  0  0  0  0  0  0  0  0  0
   57.3343   22.2028   46.2998 H   0  0  0  0  0  0  0  0  0  0  0  0
   57.8245   23.9375   47.5711 H   0  0  0  0  0  0  0  0  0  0  0  0
   59.4301   25.8140   47.8847 H   0  0  0  0  0  0  0  0  0  0  0  0
   60.0797   28.1484   45.0581 H   0  0  0  0  0  0  0  0  0  0  0  0
   59.0696   29.6168   45.3133 H   0  0  0  0  0  0  0  0  0  0  0  0
   61.8223   29.0144   46.5116 H   0  0  0  0  0  0  0  0  0  0  0  0
   61.3841   30.3118   45.3327 H   0  0  0  0  0  0  0  0  0  0  0  0
   61.1926   29.1392   48.6406 H   0  0  0  0  0  0  0  0  0  0  0  0
   60.2505   30.5527   49.2524 H   0  0  0  0  0  0  0  0  0  0  0  0
   58.8989   28.4212   49.0314 H   0  0  0  0  0  0  0  0  0  0  0  0
   58.2560   29.8123   48.0890 H   0  0  0  0  0  0  0  0  0  0  0  0
  1  2  2  0
  2  3  1  0
  3  4  2  3
  4  5  1  0
  5  6  1  0
  6  7  2  0
  7  8  1  0
  8  9  1  0
  9 10  2  0
 10 11  1  0
 11 12  2  0
 12 13  1  0
 13 14  2  0
  7 15  1  0
  2 16  1  0
 16 17  1  0
 17 18  2  0
 18 19  1  0
 19 20  1  0
 20 21  2  0
 20 22  2  0
 20 23  1  0
 23 24  1  0
 24 25  1  0
 25 26  1  0
 26 27  1  0
 27 28  1  0
 19 29  2  0
 29 30  1  0
 30 31  2  0
 31 32  1  0
 32 33  1  0
 33 34  1  0
 34 35  1  0
 35 36  1  0
 36 37  1  0
 15  4  1  0
 31 17  1  0
 37 32  1  0
 14  9  1  0
 28 23  1  0
  6 38  1  0
  8 39  1  0
  8 40  1  0
 10 41  1  0
 11 42  1  0
 12 43  1  0
 13 44  1  0
 14 45  1  0
 16 46  1  0
 18 47  1  0
 24 48  1  0
 24 49  1  0
 25 50  1  0
 25 51  1  0
 27 52  1  0
 27 53  1  0
 28 54  1  0
 28 55  1  0
 29 56  1  0
 30 57  1  0
 33 58  1  0
 33 59  1  0
 34 60  1  0
 34 61  1  0
 36 62  1  0
 36 63  1  0
 37 64  1  0
 37 65  1  0
M  CHG  1   5  -1
M  END
>  <UniqueID>  (68) 
66

>  <SMILES>  (68) 
O=C(N=c1[n-]cc(Cc2ccccc2)s1)Nc1cc(S(=O)(=O)N2CCOCC2)ccc1N1CCOCC1

>  <Energy>  (68) 
121.77397391683157

>  <Genealogy>  (68) 
O=C(N=c1[n-]cc(Cc2ccccc2)s1)Nc1cc(S(=O)(=O)N2CCOCC2)ccc1N1CCOCC1 (protonated)
O=C(N=c1[n-]cc(Cc2ccccc2)s1)Nc1cc(S(=O)(=O)N2CCOCC2)ccc1N1CCOCC1 (3D coordinates assigned)
O=C(N=c1[n-]cc(Cc2ccccc2)s1)Nc1cc(S(=O)(=O)N2CCOCC2)ccc1N1CCOCC1 (nonaromatic ring conformer: 121.77397391683157 kcal/mol)

>  <smiles>  (68) 
O=C(N=c1[nH]cc(Cc2ccccc2)s1)Nc1cc(S(=O)(=O)N2CCOCC2)ccc1N1CCOCC1

>  <score_type>  (68) 
oracle

>  <origin>  (68) 
adg

>  <m_score__min__energy>  (68) 
-12.06

>  <m_primary>  (68) 
energy

$$$$
68:0
     RDKit          3D

 31 32  0  0  0  0  0  0  0  0999 V2000
   55.3810   27.8370   53.9790 O   0  0  0  0  0  0  0  0  0  0  0  0
   55.6240   29.0710   53.9090 C   0  0  0  0  0  0  0  0  0  0  0  0
   57.0470   29.5420   54.0620 C   0  0  0  0  0  0  0  0  0  0  0  0
   57.1240   31.0640   54.2320 C   0  0  0  0  0  0  0  0  0  0  0  0
   57.5960   31.7420   52.9800 C   0  0  0  0  0  0  0  0  0  0  0  0
   58.4440   32.7850   52.9610 N   0  0  0  0  0  0  0  0  0  0  0  0
   58.5250   33.0970   51.6490 C   0  0  0  0  0  0  0  0  0  0  0  0
   59.2390   34.0390   51.2200 O   0  0  0  0  0  0  0  0  0  0  0  0
   57.7730   32.3250   50.8350 N   0  0  0  0  0  0  0  0  0  0  0  0
   57.1860   31.4750   51.6950 C   0  0  0  0  0  0  0  0  0  0  0  0
   56.2910   30.4810   51.3170 O   0  0  0  0  0  0  0  0  0  0  0  0
   54.5420   29.9710   53.6430 N   0  0  0  0  0  0  0  0  0  0  0  0
   53.1450   29.5820   53.5020 C   0  0  0  0  0  0  0  0  0  0  0  0
   52.5110   30.3950   52.4110 C   0  0  0  0  0  0  0  0  0  0  0  0
   52.5210   29.9280   51.0870 C   0  0  0  0  0  0  0  0  0  0  0  0
   51.9010   30.6680   50.0760 C   0  0  0  0  0  0  0  0  0  0  0  0
   51.2570   31.8730   50.3800 C   0  0  0  0  0  0  0  0  0  0  0  0
   50.6440   32.6040   49.3690 O   0  0  0  0  0  0  0  0  0  0  0  0
   51.2300   32.3360   51.7010 C   0  0  0  0  0  0  0  0  0  0  0  0
   50.5860   33.5280   52.0100 O   0  0  0  0  0  0  0  0  0  0  0  0
   51.8510   31.5970   52.7150 C   0  0  0  0  0  0  0  0  0  0  0  0
   57.4886   29.0614   54.9474 H   0  0  0  0  0  0  0  0  0  0  0  0
   57.5988   29.2699   53.1502 H   0  0  0  0  0  0  0  0  0  0  0  0
   56.1241   31.4446   54.4875 H   0  0  0  0  0  0  0  0  0  0  0  0
   57.8469   31.2822   55.0319 H   0  0  0  0  0  0  0  0  0  0  0  0
   55.5310   30.2120   51.9290 H   0  0  0  0  0  0  0  0  0  0  0  0
   53.0851   28.5138   53.2463 H   0  0  0  0  0  0  0  0  0  0  0  0
   52.6155   29.7605   54.4495 H   0  0  0  0  0  0  0  0  0  0  0  0
   53.0181   28.9772   50.8445 H   0  0  0  0  0  0  0  0  0  0  0  0
   51.9193   30.3023   49.0387 H   0  0  0  0  0  0  0  0  0  0  0  0
   51.8220   31.9589   53.7533 H   0  0  0  0  0  0  0  0  0  0  0  0
  1  2  2  0
  2  3  1  0
  3  4  1  0
  4  5  1  0
  5  6  1  0
  6  7  1  0
  7  8  2  0
  7  9  1  0
  9 10  1  0
 10 11  1  0
  2 12  1  0
 12 13  1  0
 13 14  1  0
 14 15  2  0
 15 16  1  0
 16 17  2  0
 17 18  1  0
 17 19  1  0
 19 20  1  0
 19 21  2  0
 10  5  2  0
 21 14  1  0
  3 22  1  0
  3 23  1  0
  4 24  1  0
  4 25  1  0
 11 26  1  0
 13 27  1  0
 13 28  1  0
 15 29  1  0
 16 30  1  0
 21 31  1  0
M  CHG  5   6  -1   9  -1  12  -1  18  -1  20  -1
M  END
>  <UniqueID>  (69) 
67

>  <SMILES>  (69) 
O=C(CCc1[n-]c(=O)[n-]c1O)[N-]Cc1ccc([O-])c([O-])c1

>  <Energy>  (69) 
52.81934133815349

>  <Genealogy>  (69) 
O=C(CCc1[n-]c(=O)[n-]c1O)[N-]Cc1ccc([O-])c([O-])c1 (protonated)
O=C(CCc1[n-]c(=O)[n-]c1O)[N-]Cc1ccc([O-])c([O-])c1 (3D coordinates assigned)
O=C(CCc1[n-]c(=O)[n-]c1O)[N-]Cc1ccc([O-])c([O-])c1 (optimized conformer: 52.81934133815349 kcal/mol)

>  <smiles>  (69) 
O=C(CCc1[nH]c(=O)[nH]c1O)NCc1ccc(O)c(O)c1

>  <score_type>  (69) 
oracle

>  <origin>  (69) 
adg

>  <m_score__min__energy>  (69) 
-17.190000000000001

>  <m_primary>  (69) 
energy

$$$$
69:0
     RDKit          3D

 29 30  0  0  1  0  0  0  0  0999 V2000
   56.9240   31.2120   42.3250 N   0  0  0  0  0  0  0  0  0  0  0  0
   56.7290   30.4080   43.3240 C   0  0  0  0  0  0  0  0  0  0  0  0
   55.6670   29.5740   43.4150 N   0  0  0  0  0  0  0  0  0  0  0  0
   55.8190   28.9270   44.5580 N   0  0  0  0  0  0  0  0  0  0  0  0
   56.9270   29.3120   45.1960 C   0  0  0  0  0  0  0  0  0  0  0  0
   57.4270   28.9310   46.3230 N   0  0  0  0  0  0  0  0  0  0  0  0
   58.3600   27.8350   46.2710 C   0  0  1  0  0  0  0  0  0  0  0  0
   59.3970   27.8690   47.3830 C   0  0  0  0  0  0  0  0  0  0  0  0
   59.9700   26.4580   47.2680 C   0  0  0  0  0  0  0  0  0  0  0  0
   58.9230   25.6310   46.5220 C   0  0  0  0  0  0  0  0  0  0  0  0
   57.7110   26.5080   46.6440 C   0  0  2  0  0  0  0  0  0  0  0  0
   56.5730   26.1410   45.8150 C   0  0  0  0  0  0  0  0  0  0  0  0
   56.7150   25.4320   44.6090 N   0  0  0  0  0  0  0  0  0  0  0  0
   55.3900   26.4580   46.1710 O   0  0  0  0  0  0  0  0  0  0  0  0
   57.5000   30.2460   44.4180 N   0  0  0  0  0  0  0  0  0  0  0  0
   57.7820   31.0690   41.7180 H   0  0  0  0  0  0  0  0  0  0  0  0
   54.8980   29.4890   42.6970 H   0  0  0  0  0  0  0  0  0  0  0  0
   55.1450   28.2080   44.9020 H   0  0  0  0  0  0  0  0  0  0  0  0
   58.7559   27.9236   45.2486 H   0  0  0  0  0  0  0  0  0  0  0  0
   60.1643   28.6356   47.2001 H   0  0  0  0  0  0  0  0  0  0  0  0
   58.9979   28.1235   48.3760 H   0  0  0  0  0  0  0  0  0  0  0  0
   60.9146   26.4750   46.7045 H   0  0  0  0  0  0  0  0  0  0  0  0
   60.1857   26.0314   48.2587 H   0  0  0  0  0  0  0  0  0  0  0  0
   59.2054   25.4790   45.4698 H   0  0  0  0  0  0  0  0  0  0  0  0
   58.7849   24.6151   46.9206 H   0  0  0  0  0  0  0  0  0  0  0  0
   57.2164   26.4702   47.6258 H   0  0  0  0  0  0  0  0  0  0  0  0
   57.0290   25.9170   43.7170 H   0  0  0  0  0  0  0  0  0  0  0  0
   56.5000   24.3920   44.6120 H   0  0  0  0  0  0  0  0  0  0  0  0
   58.3840   30.7580   44.6150 H   0  0  0  0  0  0  0  0  0  0  0  0
  1  2  2  3
  2  3  1  0
  3  4  1  0
  4  5  1  0
  5  6  2  0
  6  7  1  0
  7  8  1  0
  8  9  1  0
  9 10  1  0
 10 11  1  0
 11 12  1  0
 12 13  1  0
 12 14  2  0
  5 15  1  0
 15  2  1  0
 11  7  1  0
  1 16  1  0
  3 17  1  0
  4 18  1  0
  7 19  1  6
  8 20  1  0
  8 21  1  0
  9 22  1  0
  9 23  1  0
 10 24  1  0
 10 25  1  0
 11 26  1  1
 13 27  1  0
 13 28  1  0
 15 29  1  0
M  END
>  <smiles>  (70) 
N=c1[nH][nH]c(=NC2CCCC2C(N)=O)[nH]1

>  <score_type>  (70) 
oracle

>  <origin>  (70) 
adg

>  <m_score__min__energy>  (70) 
-6.71

>  <m_primary>  (70) 
energy

$$$$
70:0
     RDKit          3D

 59 63  0  0  0  0  0  0  0  0999 V2000
   57.6660   21.0630   43.1960 N   0  0  0  0  0  0  0  0  0  0  0  0
   56.2790   22.1360   43.4310 S   0  0  0  0  0  0  0  0  0  0  0  0
   55.4600   22.2210   42.2120 O   0  0  0  0  0  0  0  0  0  0  0  0
   55.5240   21.5010   44.5980 O   0  0  0  0  0  0  0  0  0  0  0  0
   56.9430   23.6780   43.9120 C   0  0  0  0  0  0  0  0  0  0  0  0
   57.1430   23.8760   45.2550 C   0  0  0  0  0  0  0  0  0  0  0  0
   57.6350   25.0610   45.6680 C   0  0  0  0  0  0  0  0  0  0  0  0
   57.9700   26.1350   44.7820 C   0  0  0  0  0  0  0  0  0  0  0  0
   58.5050   27.2270   45.5620 N   0  0  0  0  0  0  0  0  0  0  0  0
   59.7650   26.9630   46.0350 C   0  0  0  0  0  0  0  0  0  0  0  0
   60.3800   25.4450   46.0510 S   0  0  0  0  0  0  0  0  0  0  0  0
   60.5580   27.9440   46.5080 N   0  0  0  0  0  0  0  0  0  0  0  0
   60.0180   29.1890   46.4760 C   0  0  0  0  0  0  0  0  0  0  0  0
   60.8420   30.1660   46.8340 N   0  0  0  0  0  0  0  0  0  0  0  0
   60.5040   31.5050   46.7840 C   0  0  0  0  0  0  0  0  0  0  0  0
   61.6570   32.6090   47.1130 S   0  0  0  0  0  0  0  0  0  0  0  0
   62.7800   33.6710   47.4410 C   0  0  0  0  0  0  0  0  0  0  0  0
   63.4630   33.5910   48.8090 C   0  0  0  0  0  0  0  0  0  0  0  0
   62.8790   34.3470   49.8380 C   0  0  0  0  0  0  0  0  0  0  0  0
   63.4650   34.3750   51.0720 C   0  0  0  0  0  0  0  0  0  0  0  0
   64.6320   33.6560   51.2930 C   0  0  0  0  0  0  0  0  0  0  0  0
   65.2010   32.9080   50.2520 C   0  0  0  0  0  0  0  0  0  0  0  0
   64.6140   32.8700   48.9940 C   0  0  0  0  0  0  0  0  0  0  0  0
   59.2280   31.7390   46.3490 N   0  0  0  0  0  0  0  0  0  0  0  0
   58.7220   33.1230   46.5880 C   0  0  0  0  0  0  0  0  0  0  0  0
   58.9040   33.1960   48.1080 C   0  0  0  0  0  0  0  0  0  0  0  0
   58.3010   32.2230   48.9190 C   0  0  0  0  0  0  0  0  0  0  0  0
   58.3650   32.2660   50.3160 C   0  0  0  0  0  0  0  0  0  0  0  0
   59.0410   33.2990   50.9010 C   0  0  0  0  0  0  0  0  0  0  0  0
   59.6400   34.2650   50.0850 C   0  0  0  0  0  0  0  0  0  0  0  0
   59.5820   34.2260   48.7120 C   0  0  0  0  0  0  0  0  0  0  0  0
   58.3590   30.8090   45.9720 C   0  0  0  0  0  0  0  0  0  0  0  0
   57.2190   31.1190   45.5830 O   0  0  0  0  0  0  0  0  0  0  0  0
   58.7750   29.4990   46.0330 C   0  0  0  0  0  0  0  0  0  0  0  0
   57.9860   28.4420   45.5570 C   0  0  0  0  0  0  0  0  0  0  0  0
   56.7990   28.7050   45.1440 O   0  0  0  0  0  0  0  0  0  0  0  0
   57.7750   25.9370   43.5020 C   0  0  0  0  0  0  0  0  0  0  0  0
   57.2590   24.7130   43.0360 C   0  0  0  0  0  0  0  0  0  0  0  0
   57.2440   20.1270   42.9840 H   0  0  0  0  0  0  0  0  0  0  0  0
   58.0730   20.9120   44.1760 H   0  0  0  0  0  0  0  0  0  0  0  0
   56.9065   23.0834   45.9802 H   0  0  0  0  0  0  0  0  0  0  0  0
   57.7879   25.2116   46.7469 H   0  0  0  0  0  0  0  0  0  0  0  0
   61.5160   27.7640   46.8670 H   0  0  0  0  0  0  0  0  0  0  0  0
   63.5640   33.5657   46.6766 H   0  0  0  0  0  0  0  0  0  0  0  0
   62.2526   34.6363   47.4516 H   0  0  0  0  0  0  0  0  0  0  0  0
   61.9548   34.9136   49.6517 H   0  0  0  0  0  0  0  0  0  0  0  0
   63.0150   34.9634   51.8852 H   0  0  0  0  0  0  0  0  0  0  0  0
   65.1099   33.6730   52.2836 H   0  0  0  0  0  0  0  0  0  0  0  0
   66.1267   32.3426   50.4348 H   0  0  0  0  0  0  0  0  0  0  0  0
   65.0566   32.2827   48.1759 H   0  0  0  0  0  0  0  0  0  0  0  0
   59.3274   33.8779   46.0649 H   0  0  0  0  0  0  0  0  0  0  0  0
   57.7014   33.3186   46.2274 H   0  0  0  0  0  0  0  0  0  0  0  0
   57.7578   31.3957   48.4388 H   0  0  0  0  0  0  0  0  0  0  0  0
   57.8836   31.4884   50.9273 H   0  0  0  0  0  0  0  0  0  0  0  0
   59.1133   33.3702   51.9963 H   0  0  0  0  0  0  0  0  0  0  0  0
   60.1822   35.0936   50.5640 H   0  0  0  0  0  0  0  0  0  0  0  0
   60.0698   35.0056   48.1084 H   0  0  0  0  0  0  0  0  0  0  0  0
   58.0168   26.7348   42.7843 H   0  0  0  0  0  0  0  0  0  0  0  0
   57.1021   24.5712   41.9565 H   0  0  0  0  0  0  0  0  0  0  0  0
  1  2  1  0
  2  3  2  0
  2  4  2  0
  2  5  1  0
  5  6  2  0
  6  7  1  0
  7  8  2  0
  8  9  1  0
  9 10  1  0
 10 11  2  0
 10 12  1  0
 12 13  1  0
 13 14  1  0
 14 15  2  0
 15 16  1  0
 16 17  1  0
 17 18  1  0
 18 19  2  0
 19 20  1  0
 20 21  2  0
 21 22  1  0
 22 23  2  0
 15 24  1  0
 24 25  1  0
 25 26  1  0
 26 27  2  0
 27 28  1  0
 28 29  2  0
 29 30  1  0
 30 31  2  0
 24 32  1  0
 32 33  2  0
 32 34  1  0
 34 35  1  0
 35 36  2  0
  8 37  1  0
 37 38  2  0
 38  5  1  0
 35  9  1  0
 34 13  2  0
 23 18  1  0
 31 26  1  0
  1 39  1  0
  1 40  1  0
  6 41  1  0
  7 42  1  0
 12 43  1  0
 17 44  1  0
 17 45  1  0
 19 46  1  0
 20 47  1  0
 21 48  1  0
 22 49  1  0
 23 50  1  0
 25 51  1  0
 25 52  1  0
 27 53  1  0
 28 54  1  0
 29 55  1  0
 30 56  1  0
 31 57  1  0
 37 58  1  0
 38 59  1  0
M  END
>  <smiles>  (71) 
NS(=O)(=O)c1ccc(-n2c(=S)[nH]c3nc(SCc4ccccc4)n(Cc4ccccc4)c(=O)c3c2=O)cc1

>  <score_type>  (71) 
oracle

>  <origin>  (71) 
adg

>  <m_score__min__energy>  (71) 
-10.25

>  <m_primary>  (71) 
energy

$$$$
71:0
     RDKit          3D

 57 60  0  0  0  0  0  0  0  0999 V2000
   57.3820   28.7960   44.1860 C   0  0  0  0  0  0  0  0  0  0  0  0
   56.3030   29.7630   44.5480 C   0  0  0  0  0  0  0  0  0  0  0  0
   55.1460   29.3390   44.8160 O   0  0  0  0  0  0  0  0  0  0  0  0
   56.5940   31.1650   44.6120 N   0  0  0  0  0  0  0  0  0  0  0  0
   57.6590   31.8220   43.8540 C   0  0  1  0  0  0  0  0  0  0  0  0
   57.4270   31.6590   42.3440 C   0  0  0  0  0  0  0  0  0  0  0  0
   57.7600   33.3020   44.2680 C   0  0  0  0  0  0  0  0  0  0  0  0
   58.5670   33.5130   45.5260 C   0  0  0  0  0  0  0  0  0  0  0  0
   58.9140   34.8090   45.9420 C   0  0  0  0  0  0  0  0  0  0  0  0
   59.6710   34.9990   47.1030 C   0  0  0  0  0  0  0  0  0  0  0  0
   60.0990   33.9000   47.8670 C   0  0  0  0  0  0  0  0  0  0  0  0
   60.9120   34.1520   49.1250 C   0  0  0  0  0  0  0  0  0  0  0  0
   61.2530   32.9260   49.9210 C   0  0  0  0  0  0  0  0  0  0  0  0
   62.7100   32.9950   49.6930 N   0  0  0  0  0  0  0  0  0  0  0  0
   63.8780   32.2720   50.0850 C   0  0  0  0  0  0  0  0  0  0  0  0
   63.7570   31.1090   50.8530 C   0  0  0  0  0  0  0  0  0  0  0  0
   64.9090   30.4280   51.2560 C   0  0  0  0  0  0  0  0  0  0  0  0
   66.1770   30.9160   50.8910 C   0  0  0  0  0  0  0  0  0  0  0  0
   67.3730   30.2740   51.2440 O   0  0  0  0  0  0  0  0  0  0  0  0
   67.5220   28.8780   51.5120 C   0  0  0  0  0  0  0  0  0  0  0  0
   67.8860   28.0910   50.2400 C   0  0  0  0  0  0  0  0  0  0  0  0
   68.6660   26.7930   50.4530 C   0  0  0  0  0  0  0  0  0  0  0  0
   67.1890   26.7390   50.0840 C   0  0  0  0  0  0  0  0  0  0  0  0
   66.2480   32.0800   50.1200 C   0  0  0  0  0  0  0  0  0  0  0  0
   65.1120   32.7210   49.7230 N   0  0  0  0  0  0  0  0  0  0  0  0
   62.3980   34.2120   48.9210 C   0  0  0  0  0  0  0  0  0  0  0  0
   59.7620   32.6010   47.4380 C   0  0  0  0  0  0  0  0  0  0  0  0
   59.0010   32.4120   46.2820 C   0  0  0  0  0  0  0  0  0  0  0  0
   57.8341   28.3908   45.1033 H   0  0  0  0  0  0  0  0  0  0  0  0
   56.9539   27.9736   43.5940 H   0  0  0  0  0  0  0  0  0  0  0  0
   58.1527   29.3113   43.5940 H   0  0  0  0  0  0  0  0  0  0  0  0
   58.6212   31.3420   44.0858 H   0  0  0  0  0  0  0  0  0  0  0  0
   56.5376   31.0341   42.1750 H   0  0  0  0  0  0  0  0  0  0  0  0
   57.2723   32.6480   41.8879 H   0  0  0  0  0  0  0  0  0  0  0  0
   58.3050   31.1782   41.8879 H   0  0  0  0  0  0  0  0  0  0  0  0
   58.2352   33.8625   43.4495 H   0  0  0  0  0  0  0  0  0  0  0  0
   56.7384   33.6553   44.4715 H   0  0  0  0  0  0  0  0  0  0  0  0
   58.5890   35.6787   45.3521 H   0  0  0  0  0  0  0  0  0  0  0  0
   59.9338   36.0187   47.4210 H   0  0  0  0  0  0  0  0  0  0  0  0
   60.3080   34.9871   49.5093 H   0  0  0  0  0  0  0  0  0  0  0  0
   60.9841   33.0206   50.9834 H   0  0  0  0  0  0  0  0  0  0  0  0
   60.7453   31.9903   49.6440 H   0  0  0  0  0  0  0  0  0  0  0  0
   62.7630   30.7335   51.1375 H   0  0  0  0  0  0  0  0  0  0  0  0
   64.8243   29.5113   51.8580 H   0  0  0  0  0  0  0  0  0  0  0  0
   68.3198   28.7409   52.2568 H   0  0  0  0  0  0  0  0  0  0  0  0
   66.5617   28.4963   51.8890 H   0  0  0  0  0  0  0  0  0  0  0  0
   68.0190   28.9827   49.6098 H   0  0  0  0  0  0  0  0  0  0  0  0
   69.4269   26.4827   49.7218 H   0  0  0  0  0  0  0  0  0  0  0  0
   69.2792   26.3795   51.2673 H   0  0  0  0  0  0  0  0  0  0  0  0
   66.8841   26.3897   49.0865 H   0  0  0  0  0  0  0  0  0  0  0  0
   66.2953   26.2704   50.5219 H   0  0  0  0  0  0  0  0  0  0  0  0
   67.2300   32.4827   49.8308 H   0  0  0  0  0  0  0  0  0  0  0  0
   65.2010   33.5910   49.1510 H   0  0  0  0  0  0  0  0  0  0  0  0
   62.8499   35.1169   49.3534 H   0  0  0  0  0  0  0  0  0  0  0  0
   62.7603   34.2541   47.8832 H   0  0  0  0  0  0  0  0  0  0  0  0
   60.1006   31.7295   48.0175 H   0  0  0  0  0  0  0  0  0  0  0  0
   58.7396   31.3928   45.9613 H   0  0  0  0  0  0  0  0  0  0  0  0
  1  2  1  0
  2  3  2  0
  2  4  1  0
  4  5  1  0
  5  6  1  0
  5  7  1  0
  7  8  1  0
  8  9  2  0
  9 10  1  0
 10 11  2  0
 11 12  1  0
 12 13  1  0
 13 14  1  0
 14 15  1  0
 15 16  2  0
 16 17  1  0
 17 18  2  0
 18 19  1  0
 19 20  1  0
 20 21  1  0
 21 22  1  0
 22 23  1  0
 18 24  1  0
 24 25  2  0
 14 26  1  0
 11 27  1  0
 27 28  2  0
 28  8  1  0
 26 12  1  0
 25 15  1  0
 23 21  1  0
  1 29  1  0
  1 30  1  0
  1 31  1  0
  5 32  1  1
  6 33  1  0
  6 34  1  0
  6 35  1  0
  7 36  1  0
  7 37  1  0
  9 38  1  0
 10 39  1  0
 12 40  1  0
 13 41  1  0
 13 42  1  0
 16 43  1  0
 17 44  1  0
 20 45  1  0
 20 46  1  0
 21 47  1  0
 22 48  1  0
 22 49  1  0
 23 50  1  0
 23 51  1  0
 24 52  1  0
 25 53  1  0
 26 54  1  0
 26 55  1  0
 27 56  1  0
 28 57  1  0
M  CHG  2   4  -1  25   1
M  END
>  <UniqueID>  (72) 
68

>  <SMILES>  (72) 
CC(=O)[N-][C@@H](C)Cc1ccc(C2CN(c3ccc(OCC4CC4)c[nH+]3)C2)cc1

>  <Energy>  (72) 
362.8099361534742

>  <Genealogy>  (72) 
CC(=O)[N-]C(C)Cc1ccc(C2CN(c3ccc(OCC4CC4)c[nH+]3)C2)cc1 (protonated)
CC(=O)[N-][C@@H](C)Cc1ccc(C2CN(c3ccc(OCC4CC4)c[nH+]3)C2)cc1 (chirality)
CC(=O)[N-][C@@H](C)Cc1ccc(C2CN(c3ccc(OCC4CC4)c[nH+]3)C2)cc1 (3D coordinates assigned)
CC(=O)[N-][C@@H](C)Cc1ccc(C2CN(c3ccc(OCC4CC4)c[nH+]3)C2)cc1 (nonaromatic ring conformer: 362.8099361534742 kcal/mol)

>  <smiles>  (72) 
CC(=O)NC(C)Cc1ccc(C2CN(c3ccc(OCC4CC4)cn3)C2)cc1

>  <score_type>  (72) 
oracle

>  <origin>  (72) 
adg

>  <m_score__min__energy>  (72) 
-9.2200000000000006

>  <m_primary>  (72) 
energy

$$$$
72:0
     RDKit          3D

 40 42  0  0  0  0  0  0  0  0999 V2000
   58.7499   33.4494   48.8545 H   0  0  0  0  0  0  0  0  0  0  0  0
   59.3530   33.7640   47.9900 C   0  0  0  0  0  0  0  0  0  0  0  0
   58.6910   34.1660   46.8950 C   0  0  0  0  0  0  0  0  0  0  0  0
   58.3425   35.2091   46.8718 H   0  0  0  0  0  0  0  0  0  0  0  0
   58.3900   33.3250   45.7160 C   0  0  0  0  0  0  0  0  0  0  0  0
   58.6470   33.8300   44.4360 C   0  0  0  0  0  0  0  0  0  0  0  0
   59.1306   34.8115   44.3224 H   0  0  0  0  0  0  0  0  0  0  0  0
   58.2930   33.0950   43.3020 C   0  0  0  0  0  0  0  0  0  0  0  0
   58.5182   33.4908   42.3007 H   0  0  0  0  0  0  0  0  0  0  0  0
   57.6540   31.8590   43.4340 C   0  0  0  0  0  0  0  0  0  0  0  0
   57.3100   31.1490   42.2870 O   0  0  0  0  0  0  0  0  0  0  0  0
   57.3700   31.3430   44.7130 C   0  0  0  0  0  0  0  0  0  0  0  0
   56.6300   30.0670   44.8710 C   0  0  0  0  0  0  0  0  0  0  0  0
   55.4540   29.9750   44.4280 O   0  0  0  0  0  0  0  0  0  0  0  0
   57.2080   28.9040   45.5710 C   0  0  0  0  0  0  0  0  0  0  0  0
   57.5446   29.0223   46.6115 H   0  0  0  0  0  0  0  0  0  0  0  0
   57.3360   27.7100   44.9810 C   0  0  0  0  0  0  0  0  0  0  0  0
   57.5427   27.6703   43.9013 H   0  0  0  0  0  0  0  0  0  0  0  0
   57.2090   26.4420   45.7310 C   0  0  0  0  0  0  0  0  0  0  0  0
   55.9680   25.9810   46.2100 C   0  0  0  0  0  0  0  0  0  0  0  0
   54.8040   26.7090   45.9960 O   0  0  0  0  0  0  0  0  0  0  0  0
   55.9030   24.8230   46.9180 N   0  0  0  0  0  0  0  0  0  0  0  0
   57.0200   24.1000   47.1850 C   0  0  0  0  0  0  0  0  0  0  0  0
   56.9330   23.0310   47.8420 O   0  0  0  0  0  0  0  0  0  0  0  0
   58.2300   24.5320   46.7500 N   0  0  0  0  0  0  0  0  0  0  0  0
   58.3510   25.6820   46.0370 C   0  0  0  0  0  0  0  0  0  0  0  0
   59.4920   26.0520   45.6520 O   0  0  0  0  0  0  0  0  0  0  0  0
   57.7390   32.0860   45.8490 C   0  0  0  0  0  0  0  0  0  0  0  0
   57.5158   31.6935   46.8520 H   0  0  0  0  0  0  0  0  0  0  0  0
   60.8250   33.7070   48.1360 C   0  0  0  0  0  0  0  0  0  0  0  0
   61.5960   33.2110   47.0730 C   0  0  0  0  0  0  0  0  0  0  0  0
   61.1105   32.9460   46.1222 H   0  0  0  0  0  0  0  0  0  0  0  0
   62.9770   33.0520   47.2160 C   0  0  0  0  0  0  0  0  0  0  0  0
   63.5772   32.6791   46.3730 H   0  0  0  0  0  0  0  0  0  0  0  0
   63.5960   33.3660   48.4280 C   0  0  0  0  0  0  0  0  0  0  0  0
   64.9310   33.1790   48.5740 F   0  0  0  0  0  0  0  0  0  0  0  0
   62.8380   33.8560   49.4930 C   0  0  0  0  0  0  0  0  0  0  0  0
   63.3282   34.1119   50.4439 H   0  0  0  0  0  0  0  0  0  0  0  0
   61.4570   34.0220   49.3530 C   0  0  0  0  0  0  0  0  0  0  0  0
   60.8622   34.4003   50.1975 H   0  0  0  0  0  0  0  0  0  0  0  0
  1  2  1  0
  2  3  2  3
  3  4  1  0
  3  5  1  0
  5  6  2  0
  6  7  1  0
  6  8  1  0
  8  9  1  0
  8 10  2  0
 10 11  1  0
 10 12  1  0
 12 13  1  0
 13 14  2  0
 13 15  1  0
 15 16  1  0
 15 17  2  0
 17 18  1  0
 17 19  1  0
 19 20  2  0
 20 21  1  0
 20 22  1  0
 22 23  1  0
 23 24  2  0
 23 25  1  0
 25 26  1  0
 26 27  2  0
 12 28  2  0
 28 29  1  0
  2 30  1  0
 30 31  2  0
 31 32  1  0
 31 33  1  0
 33 34  1  0
 33 35  2  0
 35 36  1  0
 35 37  1  0
 37 38  1  0
 37 39  2  0
 39 40  1  0
 28  5  1  0
 39 30  1  0
 26 19  1  0
M  CHG  4  11  -1  21  -1  22  -1  25  -1
M  END
>  <UniqueID>  (73) 
69

>  <SMILES>  (73) 
O=C(/C=C/c1c([O-])[n-]c(=O)[n-]c1=O)c1cc(C=Cc2ccc(F)cc2)ccc1[O-]

>  <Energy>  (73) 
60.995373681864066

>  <Genealogy>  (73) 
O=C(C=Cc1c([O-])[n-]c(=O)[n-]c1=O)c1cc(C=Cc2ccc(F)cc2)ccc1[O-] (protonated)
O=C(/C=C/c1c([O-])[n-]c(=O)[n-]c1=O)c1cc(C=Cc2ccc(F)cc2)ccc1[O-] (cis-trans isomerization)
O=C(/C=C/c1c([O-])[n-]c(=O)[n-]c1=O)c1cc(C=Cc2ccc(F)cc2)ccc1[O-] (3D coordinates assigned)
O=C(/C=C/c1c([O-])[n-]c(=O)[n-]c1=O)c1cc(C=Cc2ccc(F)cc2)ccc1[O-] (optimized conformer: 60.995373681864066 kcal/mol)

>  <smiles>  (73) 
O=C(C=Cc1c(O)[nH]c(=O)[nH]c1=O)c1cc(C=Cc2ccc(F)cc2)ccc1O

>  <score_type>  (73) 
oracle

>  <origin>  (73) 
adg

>  <m_score__min__energy>  (73) 
-18.129999999999999

>  <m_primary>  (73) 
energy

$$$$
73:0
     RDKit          3D

 47 50  0  0  0  0  0  0  0  0999 V2000
   56.6950   29.3490   44.1560 C   0  0  0  0  0  0  0  0  0  0  0  0
   57.8220   29.0750   44.8290 C   0  0  0  0  0  0  0  0  0  0  0  0
   58.3150   27.8040   45.1430 C   0  0  0  0  0  0  0  0  0  0  0  0
   57.7710   26.6140   44.8190 C   0  0  0  0  0  0  0  0  0  0  0  0
   57.1790   25.6840   45.7970 C   0  0  0  0  0  0  0  0  0  0  0  0
   57.8110   24.5850   46.2440 N   0  0  0  0  0  0  0  0  0  0  0  0
   56.8910   23.9940   47.0370 C   0  0  0  0  0  0  0  0  0  0  0  0
   57.1190   22.9240   47.6600 O   0  0  0  0  0  0  0  0  0  0  0  0
   55.7040   24.6350   47.1030 N   0  0  0  0  0  0  0  0  0  0  0  0
   55.8970   25.6950   46.3030 C   0  0  0  0  0  0  0  0  0  0  0  0
   54.9060   26.6240   46.0060 O   0  0  0  0  0  0  0  0  0  0  0  0
   59.5210   28.0050   45.8020 C   0  0  0  0  0  0  0  0  0  0  0  0
   59.7050   29.3700   45.8830 C   0  0  0  0  0  0  0  0  0  0  0  0
   60.9010   30.0310   46.4990 C   0  0  0  0  0  0  0  0  0  0  0  0
   58.6810   30.0210   45.2880 N   0  0  0  0  0  0  0  0  0  0  0  0
   58.5420   31.4500   45.1820 C   0  0  0  0  0  0  0  0  0  0  0  0
   57.6680   32.0040   44.2380 C   0  0  0  0  0  0  0  0  0  0  0  0
   57.5270   33.3910   44.1420 C   0  0  0  0  0  0  0  0  0  0  0  0
   58.2480   34.2300   44.9940 C   0  0  0  0  0  0  0  0  0  0  0  0
   59.1150   33.6880   45.9590 C   0  0  0  0  0  0  0  0  0  0  0  0
   59.8890   34.5720   46.8610 C   0  0  0  0  0  0  0  0  0  0  0  0
   59.6690   35.8140   46.8400 O   0  0  0  0  0  0  0  0  0  0  0  0
   60.8990   34.0470   47.7450 N   0  0  0  0  0  0  0  0  0  0  0  0
   60.6400   33.9250   49.1880 C   0  0  0  0  0  0  0  0  0  0  0  0
   61.2440   32.6580   49.7320 C   0  0  0  0  0  0  0  0  0  0  0  0
   62.3990   32.1820   49.2440 C   0  0  0  0  0  0  0  0  0  0  0  0
   63.1340   32.8930   48.1370 C   0  0  0  0  0  0  0  0  0  0  0  0
   62.1680   33.5970   47.2280 C   0  0  0  0  0  0  0  0  0  0  0  0
   62.4970   33.8320   46.0350 O   0  0  0  0  0  0  0  0  0  0  0  0
   59.2660   32.2930   46.0370 C   0  0  0  0  0  0  0  0  0  0  0  0
   56.4072   30.3938   43.9675 H   0  0  0  0  0  0  0  0  0  0  0  0
   56.0583   28.5290   43.7924 H   0  0  0  0  0  0  0  0  0  0  0  0
   57.7688   26.3189   43.7593 H   0  0  0  0  0  0  0  0  0  0  0  0
   60.1979   27.2271   46.1849 H   0  0  0  0  0  0  0  0  0  0  0  0
   60.8205   29.9865   47.5952 H   0  0  0  0  0  0  0  0  0  0  0  0
   61.8145   29.5097   46.1770 H   0  0  0  0  0  0  0  0  0  0  0  0
   60.9456   31.0819   46.1770 H   0  0  0  0  0  0  0  0  0  0  0  0
   57.0916   31.3461   43.5710 H   0  0  0  0  0  0  0  0  0  0  0  0
   56.8464   33.8228   43.3935 H   0  0  0  0  0  0  0  0  0  0  0  0
   58.1370   35.3211   44.9097 H   0  0  0  0  0  0  0  0  0  0  0  0
   61.0815   34.7878   49.7083 H   0  0  0  0  0  0  0  0  0  0  0  0
   59.5525   33.8965   49.3508 H   0  0  0  0  0  0  0  0  0  0  0  0
   60.7315   32.1156   50.5402 H   0  0  0  0  0  0  0  0  0  0  0  0
   62.8182   31.2540   49.6601 H   0  0  0  0  0  0  0  0  0  0  0  0
   63.8214   33.6314   48.5755 H   0  0  0  0  0  0  0  0  0  0  0  0
   63.6960   32.1510   47.5508 H   0  0  0  0  0  0  0  0  0  0  0  0
   59.9574   31.8592   46.7744 H   0  0  0  0  0  0  0  0  0  0  0  0
  1  2  2  0
  2  3  1  0
  3  4  2  3
  4  5  1  0
  5  6  1  0
  6  7  1  0
  7  8  2  0
  7  9  1  0
  9 10  1  0
 10 11  1  0
  3 12  1  0
 12 13  2  0
 13 14  1  0
 13 15  1  0
 15 16  1  0
 16 17  2  0
 17 18  1  0
 18 19  2  0
 19 20  1  0
 20 21  1  0
 21 22  2  0
 21 23  1  0
 23 24  1  0
 24 25  1  0
 25 26  2  0
 26 27  1  0
 27 28  1  0
 28 29  2  0
 20 30  2  0
 15  2  1  0
 30 16  1  0
 10  5  2  0
 28 23  1  0
  1 31  1  0
  1 32  1  0
  4 33  1  0
 12 34  1  0
 14 35  1  0
 14 36  1  0
 14 37  1  0
 17 38  1  0
 18 39  1  0
 19 40  1  0
 24 41  1  0
 24 42  1  0
 25 43  1  0
 26 44  1  0
 27 45  1  0
 27 46  1  0
 30 47  1  0
M  CHG  3   6  -1   9  -1  11  -1
M  END
>  <UniqueID>  (74) 
70

>  <SMILES>  (74) 
C=c1c(=Cc2[n-]c(=O)[n-]c2[O-])cc(C)n1-c1cccc(C(=O)N2CC=CCC2=O)c1

>  <Energy>  (74) 
128.149022318261

>  <Genealogy>  (74) 
C=c1c(=Cc2[n-]c(=O)[n-]c2[O-])cc(C)n1-c1cccc(C(=O)N2CC=CCC2=O)c1 (protonated)
C=c1c(=Cc2[n-]c(=O)[n-]c2[O-])cc(C)n1-c1cccc(C(=O)N2CC=CCC2=O)c1 (3D coordinates assigned)
C=c1c(=Cc2[n-]c(=O)[n-]c2[O-])cc(C)n1-c1cccc(C(=O)N2CC=CCC2=O)c1 (nonaromatic ring conformer: 128.149022318261 kcal/mol)

>  <smiles>  (74) 
C=c1c(=Cc2[nH]c(=O)[nH]c2O)cc(C)n1-c1cccc(C(=O)N2CC=CCC2=O)c1

>  <score_type>  (74) 
oracle

>  <origin>  (74) 
adg

>  <m_score__min__energy>  (74) 
-17.219999999999999

>  <m_primary>  (74) 
energy

$$$$
74:0
     RDKit          3D

 40 42  0  0  0  0  0  0  0  0999 V2000
   59.4770   29.4010   45.0290 O   0  0  0  0  0  0  0  0  0  0  0  0
   58.3060   29.4130   45.4970 C   0  0  0  0  0  0  0  0  0  0  0  0
   57.6240   30.6640   45.6720 N   0  0  0  0  0  0  0  0  0  0  0  0
   58.3010   31.9300   45.6160 C   0  0  0  0  0  0  0  0  0  0  0  0
   57.9620   32.8320   44.5950 C   0  0  0  0  0  0  0  0  0  0  0  0
   58.6200   34.0580   44.4860 C   0  0  0  0  0  0  0  0  0  0  0  0
   59.6110   34.4040   45.4030 C   0  0  0  0  0  0  0  0  0  0  0  0
   59.9410   33.5300   46.4410 C   0  0  0  0  0  0  0  0  0  0  0  0
   59.2930   32.2900   46.5630 C   0  0  0  0  0  0  0  0  0  0  0  0
   59.6020   31.4330   47.7290 C   0  0  0  0  0  0  0  0  0  0  0  0
   58.6530   30.8560   48.3280 O   0  0  0  0  0  0  0  0  0  0  0  0
   60.9510   31.2770   48.2150 N   0  0  0  0  0  0  0  0  0  0  0  0
   62.0910   31.2670   47.2870 C   0  0  0  0  0  0  0  0  0  0  0  0
   63.1540   32.2920   47.7020 C   0  0  0  0  0  0  0  0  0  0  0  0
   63.5170   32.3510   49.5040 S   0  0  0  0  0  0  0  0  0  0  0  0
   62.6300   30.8390   50.0050 C   0  0  0  0  0  0  0  0  0  0  0  0
   61.1500   30.9430   49.6330 C   0  0  0  0  0  0  0  0  0  0  0  0
   57.6360   28.1290   45.8120 C   0  0  0  0  0  0  0  0  0  0  0  0
   58.3860   27.0650   46.3420 C   0  0  0  0  0  0  0  0  0  0  0  0
   57.7720   25.8470   46.6380 C   0  0  0  0  0  0  0  0  0  0  0  0
   56.4020   25.7010   46.4120 C   0  0  0  0  0  0  0  0  0  0  0  0
   55.8310   24.6100   46.6710 O   0  0  0  0  0  0  0  0  0  0  0  0
   55.6810   26.7410   45.9190 N   0  0  0  0  0  0  0  0  0  0  0  0
   56.2510   27.9400   45.6210 C   0  0  0  0  0  0  0  0  0  0  0  0
   55.4430   28.9700   45.1550 O   0  0  0  0  0  0  0  0  0  0  0  0
   56.5800   30.6670   45.6140 H   0  0  0  0  0  0  0  0  0  0  0  0
   57.1720   32.5705   43.8756 H   0  0  0  0  0  0  0  0  0  0  0  0
   58.3560   34.7525   43.6749 H   0  0  0  0  0  0  0  0  0  0  0  0
   60.1340   35.3671   45.3089 H   0  0  0  0  0  0  0  0  0  0  0  0
   60.7148   33.8151   47.1690 H   0  0  0  0  0  0  0  0  0  0  0  0
   62.5421   30.2637   47.2838 H   0  0  0  0  0  0  0  0  0  0  0  0
   61.7254   31.5315   46.2838 H   0  0  0  0  0  0  0  0  0  0  0  0
   64.0876   32.0480   47.1739 H   0  0  0  0  0  0  0  0  0  0  0  0
   62.7476   33.2796   47.4383 H   0  0  0  0  0  0  0  0  0  0  0  0
   63.0728   29.9721   49.4927 H   0  0  0  0  0  0  0  0  0  0  0  0
   62.7170   30.7180   51.0949 H   0  0  0  0  0  0  0  0  0  0  0  0
   60.6650   29.9777   49.8401 H   0  0  0  0  0  0  0  0  0  0  0  0
   60.7092   31.7524   50.2335 H   0  0  0  0  0  0  0  0  0  0  0  0
   59.4632   27.1929   46.5246 H   0  0  0  0  0  0  0  0  0  0  0  0
   58.3608   25.0116   47.0447 H   0  0  0  0  0  0  0  0  0  0  0  0
  1  2  2  0
  2  3  1  0
  3  4  1  0
  4  5  2  0
  5  6  1  0
  6  7  2  0
  7  8  1  0
  8  9  2  0
  9 10  1  0
 10 11  2  0
 10 12  1  0
 12 13  1  0
 13 14  1  0
 14 15  1  0
 15 16  1  0
 16 17  1  0
  2 18  1  0
 18 19  1  0
 19 20  2  0
 20 21  1  0
 21 22  2  0
 21 23  1  0
 23 24  1  0
 24 25  1  0
  9  4  1  0
 17 12  1  0
 24 18  2  0
  3 26  1  0
  5 27  1  0
  6 28  1  0
  7 29  1  0
  8 30  1  0
 13 31  1  0
 13 32  1  0
 14 33  1  0
 14 34  1  0
 16 35  1  0
 16 36  1  0
 17 37  1  0
 17 38  1  0
 19 39  1  0
 20 40  1  0
M  CHG  2  23  -1  25  -1
M  END
>  <UniqueID>  (75) 
71

>  <SMILES>  (75) 
O=C(Nc1ccccc1C(=O)N1CCSCC1)c1ccc(=O)[n-]c1[O-]

>  <Energy>  (75) 
57.91960814382008

>  <Genealogy>  (75) 
O=C(Nc1ccccc1C(=O)N1CCSCC1)c1ccc(=O)[n-]c1[O-] (protonated)
O=C(Nc1ccccc1C(=O)N1CCSCC1)c1ccc(=O)[n-]c1[O-] (3D coordinates assigned)
O=C(Nc1ccccc1C(=O)N1CCSCC1)c1ccc(=O)[n-]c1[O-] (nonaromatic ring conformer: 57.91960814382008 kcal/mol)

>  <smiles>  (75) 
O=C(Nc1ccccc1C(=O)N1CCSCC1)c1ccc(=O)[nH]c1O

>  <score_type>  (75) 
oracle

>  <origin>  (75) 
adg

>  <m_score__min__energy>  (75) 
-14

>  <m_primary>  (75) 
energy

$$$$
75:0
     RDKit          3D

 47 49  0  0  0  0  0  0  0  0999 V2000
   63.0110   33.8400   46.8600 C   0  0  0  0  0  0  0  0  0  0  0  0
   62.2280   32.7500   47.5360 C   0  0  0  0  0  0  0  0  0  0  0  0
   61.5170   31.8230   46.7560 C   0  0  0  0  0  0  0  0  0  0  0  0
   60.7430   30.8310   47.3630 C   0  0  0  0  0  0  0  0  0  0  0  0
   60.6660   30.7520   48.7570 C   0  0  0  0  0  0  0  0  0  0  0  0
   59.7030   29.4940   49.5290 S   0  0  0  0  0  0  0  0  0  0  0  0
   60.2550   29.2360   50.9030 O   0  0  0  0  0  0  0  0  0  0  0  0
   58.2700   29.9260   49.6570 O   0  0  0  0  0  0  0  0  0  0  0  0
   59.7720   28.0300   48.6010 N   0  0  0  0  0  0  0  0  0  0  0  0
   58.8550   27.7010   47.5420 C   0  0  0  0  0  0  0  0  0  0  0  0
   58.4690   26.3630   47.3630 C   0  0  0  0  0  0  0  0  0  0  0  0
   57.5950   26.0080   46.3310 C   0  0  0  0  0  0  0  0  0  0  0  0
   57.1030   26.9840   45.4620 C   0  0  0  0  0  0  0  0  0  0  0  0
   57.4750   28.3240   45.6300 C   0  0  0  0  0  0  0  0  0  0  0  0
   56.9250   29.5580   44.5020 S   0  0  0  0  0  0  0  0  0  0  0  0
   55.5080   29.9310   44.8340 O   0  0  0  0  0  0  0  0  0  0  0  0
   56.9680   29.0380   43.0910 O   0  0  0  0  0  0  0  0  0  0  0  0
   57.9350   30.9640   44.6440 N   0  0  0  0  0  0  0  0  0  0  0  0
   57.1290   32.1090   45.0580 C   0  0  0  0  0  0  0  0  0  0  0  0
   58.0000   33.1040   45.7670 C   0  0  0  0  0  0  0  0  0  0  0  0
   58.7310   34.0610   45.0420 C   0  0  0  0  0  0  0  0  0  0  0  0
   59.5330   34.9910   45.7130 C   0  0  0  0  0  0  0  0  0  0  0  0
   59.6250   34.9600   47.1070 C   0  0  0  0  0  0  0  0  0  0  0  0
   58.9130   34.0030   47.8340 C   0  0  0  0  0  0  0  0  0  0  0  0
   58.1010   33.0780   47.1690 C   0  0  0  0  0  0  0  0  0  0  0  0
   58.3410   28.6800   46.6700 C   0  0  0  0  0  0  0  0  0  0  0  0
   61.3680   31.6750   49.5420 C   0  0  0  0  0  0  0  0  0  0  0  0
   62.1380   32.6780   48.9420 C   0  0  0  0  0  0  0  0  0  0  0  0
   63.0270   33.9410   50.0800 Br  0  0  0  0  0  0  0  0  0  0  0  0
   63.4742   34.4849   47.6213 H   0  0  0  0  0  0  0  0  0  0  0  0
   63.7954   33.3925   46.2319 H   0  0  0  0  0  0  0  0  0  0  0  0
   62.3365   34.4405   46.2319 H   0  0  0  0  0  0  0  0  0  0  0  0
   61.5701   31.8786   45.6587 H   0  0  0  0  0  0  0  0  0  0  0  0
   60.1920   30.1093   46.7420 H   0  0  0  0  0  0  0  0  0  0  0  0
   60.5380   27.3590   48.8340 H   0  0  0  0  0  0  0  0  0  0  0  0
   58.8573   25.5879   48.0400 H   0  0  0  0  0  0  0  0  0  0  0  0
   57.2943   24.9576   46.2034 H   0  0  0  0  0  0  0  0  0  0  0  0
   56.4230   26.7005   44.6452 H   0  0  0  0  0  0  0  0  0  0  0  0
   56.6799   32.5809   44.1716 H   0  0  0  0  0  0  0  0  0  0  0  0
   56.3323   31.7702   45.7366 H   0  0  0  0  0  0  0  0  0  0  0  0
   58.6725   34.0789   43.9437 H   0  0  0  0  0  0  0  0  0  0  0  0
   60.0917   35.7474   45.1423 H   0  0  0  0  0  0  0  0  0  0  0  0
   60.2586   35.6898   47.6323 H   0  0  0  0  0  0  0  0  0  0  0  0
   58.9909   33.9767   48.9309 H   0  0  0  0  0  0  0  0  0  0  0  0
   57.5396   32.3277   47.7451 H   0  0  0  0  0  0  0  0  0  0  0  0
   58.6228   29.7343   46.8076 H   0  0  0  0  0  0  0  0  0  0  0  0
   61.3138   31.6112   50.6388 H   0  0  0  0  0  0  0  0  0  0  0  0
  1  2  1  0
  2  3  2  0
  3  4  1  0
  4  5  2  0
  5  6  1  0
  6  7  2  0
  6  8  2  0
  6  9  1  0
  9 10  1  0
 10 11  2  0
 11 12  1  0
 12 13  2  0
 13 14  1  0
 14 15  1  0
 15 16  2  0
 15 17  2  0
 15 18  1  0
 18 19  1  0
 19 20  1  0
 20 21  2  0
 21 22  1  0
 22 23  2  0
 23 24  1  0
 24 25  2  0
 14 26  2  0
  5 27  1  0
 27 28  2  0
 28 29  1  0
 28  2  1  0
 26 10  1  0
 25 20  1  0
  1 30  1  0
  1 31  1  0
  1 32  1  0
  3 33  1  0
  4 34  1  0
  9 35  1  0
 11 36  1  0
 12 37  1  0
 13 38  1  0
 19 39  1  0
 19 40  1  0
 21 41  1  0
 22 42  1  0
 23 43  1  0
 24 44  1  0
 25 45  1  0
 26 46  1  0
 27 47  1  0
M  CHG  1  18  -1
M  END
>  <UniqueID>  (76) 
72

>  <SMILES>  (76) 
Cc1ccc(S(=O)(=O)Nc2cccc(S(=O)(=O)[N-]Cc3ccccc3)c2)cc1Br

>  <Energy>  (76) 
46.522022824602544

>  <Genealogy>  (76) 
Cc1ccc(S(=O)(=O)Nc2cccc(S(=O)(=O)[N-]Cc3ccccc3)c2)cc1Br (protonated)
Cc1ccc(S(=O)(=O)Nc2cccc(S(=O)(=O)[N-]Cc3ccccc3)c2)cc1Br (3D coordinates assigned)
Cc1ccc(S(=O)(=O)Nc2cccc(S(=O)(=O)[N-]Cc3ccccc3)c2)cc1Br (optimized conformer: 46.522022824602544 kcal/mol)

>  <smiles>  (76) 
Cc1ccc(S(=O)(=O)Nc2cccc(S(=O)(=O)NCc3ccccc3)c2)cc1Br

>  <score_type>  (76) 
oracle

>  <origin>  (76) 
adg

>  <m_score__min__energy>  (76) 
-11.76

>  <m_primary>  (76) 
energy

$$$$
76:0
     RDKit          3D

 40 42  0  0  0  0  0  0  0  0999 V2000
   59.3420   31.7290   52.0230 H   0  0  0  0  0  0  0  0  0  0  0  0
   59.5620   32.0920   51.1020 O   0  0  0  0  0  0  0  0  0  0  0  0
   59.4940   31.2910   49.9640 C   0  0  0  0  0  0  0  0  0  0  0  0
   60.2280   31.6410   48.8200 C   0  0  0  0  0  0  0  0  0  0  0  0
   60.8925   32.5173   48.8431 H   0  0  0  0  0  0  0  0  0  0  0  0
   60.1190   30.8820   47.6520 C   0  0  0  0  0  0  0  0  0  0  0  0
   60.7016   31.1577   46.7606 H   0  0  0  0  0  0  0  0  0  0  0  0
   59.2710   29.7740   47.6160 C   0  0  0  0  0  0  0  0  0  0  0  0
   59.1759   29.1843   46.6923 H   0  0  0  0  0  0  0  0  0  0  0  0
   58.5420   29.4130   48.7540 C   0  0  0  0  0  0  0  0  0  0  0  0
   57.8644   28.5473   48.7168 H   0  0  0  0  0  0  0  0  0  0  0  0
   58.6690   30.1460   49.9400 C   0  0  0  0  0  0  0  0  0  0  0  0
   57.8980   29.7400   51.0800 N   0  0  0  0  0  0  0  0  0  0  0  0
   58.3820   29.6600   52.4250 C   0  0  0  0  0  0  0  0  0  0  0  0
   59.6190   29.6720   52.6620 O   0  0  0  0  0  0  0  0  0  0  0  0
   57.4150   29.4560   53.5480 C   0  0  0  0  0  0  0  0  0  0  0  0
   57.6093   30.2000   54.3346 H   0  0  0  0  0  0  0  0  0  0  0  0
   57.5426   28.4408   53.9518 H   0  0  0  0  0  0  0  0  0  0  0  0
   56.0360   29.6100   53.0640 N   0  0  0  0  0  0  0  0  0  0  0  0
   55.0450   28.6980   53.1980 C   0  0  0  0  0  0  0  0  0  0  0  0
   55.1630   27.4020   53.9430 C   0  0  0  0  0  0  0  0  0  0  0  0
   55.1451   27.5982   55.0252 H   0  0  0  0  0  0  0  0  0  0  0  0
   54.3208   26.7471   53.6752 H   0  0  0  0  0  0  0  0  0  0  0  0
   56.1097   26.9100   53.6752 H   0  0  0  0  0  0  0  0  0  0  0  0
   53.8880   29.1440   52.5930 C   0  0  0  0  0  0  0  0  0  0  0  0
   52.9208   28.6211   52.5587 H   0  0  0  0  0  0  0  0  0  0  0  0
   54.1820   30.3810   52.0360 C   0  0  0  0  0  0  0  0  0  0  0  0
   53.3220   31.1830   51.3780 C   0  0  0  0  0  0  0  0  0  0  0  0
   53.5897   31.5014   50.3597 H   0  0  0  0  0  0  0  0  0  0  0  0
   52.0450   31.6600   51.9380 C   0  0  0  0  0  0  0  0  0  0  0  0
   51.7390   31.5850   53.2460 N   0  0  0  0  0  0  0  0  0  0  0  0
   50.5400   32.2010   53.3240 C   0  0  0  0  0  0  0  0  0  0  0  0
   49.9100   32.3220   54.4070 O   0  0  0  0  0  0  0  0  0  0  0  0
   50.0740   32.6860   52.1540 N   0  0  0  0  0  0  0  0  0  0  0  0
   51.0430   32.3470   51.2890 C   0  0  0  0  0  0  0  0  0  0  0  0
   51.0310   32.7030   49.9440 O   0  0  0  0  0  0  0  0  0  0  0  0
   55.5210   30.6430   52.3450 C   0  0  0  0  0  0  0  0  0  0  0  0
   56.2160   31.7320   51.9830 C   0  0  0  0  0  0  0  0  0  0  0  0
   57.2695   31.8366   52.2818 H   0  0  0  0  0  0  0  0  0  0  0  0
   55.7324   32.5203   51.3874 H   0  0  0  0  0  0  0  0  0  0  0  0
  1  2  1  0
  2  3  1  0
  3  4  2  0
  4  5  1  0
  4  6  1  0
  6  7  1  0
  6  8  2  0
  8  9  1  0
  8 10  1  0
 10 11  1  0
 10 12  2  0
 12 13  1  0
 13 14  1  0
 14 15  2  0
 14 16  1  0
 16 17  1  0
 16 18  1  0
 16 19  1  0
 19 20  1  0
 20 21  1  0
 21 22  1  0
 21 23  1  0
 21 24  1  0
 20 25  2  0
 25 26  1  0
 25 27  1  0
 27 28  2  0
 28 29  1  0
 28 30  1  0
 30 31  1  0
 31 32  1  0
 32 33  2  0
 32 34  1  0
 34 35  1  0
 35 36  1  0
 27 37  1  0
 37 38  2  0
 38 39  1  0
 38 40  1  0
 12  3  1  0
 37 19  1  0
 35 30  2  0
M  CHG  4  13  -1  31  -1  34  -1  36  -1
M  END
>  <UniqueID>  (77) 
73

>  <SMILES>  (77) 
C=c1/c(=C/c2[n-]c(=O)[n-]c2[O-])cc(C)n1CC(=O)[N-]c1ccccc1O

>  <Energy>  (77) 
110.44833082639084

>  <Genealogy>  (77) 
C=c1c(=Cc2[n-]c(=O)[n-]c2[O-])cc(C)n1CC(=O)[N-]c1ccccc1O (protonated)
C=c1/c(=C/c2[n-]c(=O)[n-]c2[O-])cc(C)n1CC(=O)[N-]c1ccccc1O (cis-trans isomerization)
C=c1/c(=C/c2[n-]c(=O)[n-]c2[O-])cc(C)n1CC(=O)[N-]c1ccccc1O (3D coordinates assigned)
C=c1/c(=C/c2[n-]c(=O)[n-]c2[O-])cc(C)n1CC(=O)[N-]c1ccccc1O (optimized conformer: 110.44833082639084 kcal/mol)

>  <smiles>  (77) 
C=c1c(=Cc2[nH]c(=O)[nH]c2O)cc(C)n1CC(=O)Nc1ccccc1O

>  <score_type>  (77) 
oracle

>  <origin>  (77) 
adg

>  <m_score__min__energy>  (77) 
-16.07

>  <m_primary>  (77) 
energy

$$$$
77:0
     RDKit          3D

 41 43  0  0  0  0  0  0  0  0999 V2000
   59.5140   29.0530   44.4870 C   0  0  0  0  0  0  0  0  0  0  0  0
   58.6030   28.0400   45.1150 C   0  0  0  0  0  0  0  0  0  0  0  0
   59.0580   26.7780   45.5320 C   0  0  0  0  0  0  0  0  0  0  0  0
   58.0680   25.9800   46.0890 C   0  0  0  0  0  0  0  0  0  0  0  0
   56.6260   26.8390   46.0620 S   0  0  0  0  0  0  0  0  0  0  0  0
   57.2350   28.2370   45.3480 C   0  0  0  0  0  0  0  0  0  0  0  0
   56.4240   29.4280   45.0390 C   0  0  0  0  0  0  0  0  0  0  0  0
   55.1780   29.3270   44.8800 O   0  0  0  0  0  0  0  0  0  0  0  0
   57.0760   30.6940   44.8680 N   0  0  0  0  0  0  0  0  0  0  0  0
   57.8550   31.3920   45.8490 C   0  0  0  0  0  0  0  0  0  0  0  0
   58.0410   32.7730   45.7000 C   0  0  0  0  0  0  0  0  0  0  0  0
   58.8070   33.4890   46.6240 C   0  0  0  0  0  0  0  0  0  0  0  0
   59.4130   32.8280   47.7000 C   0  0  0  0  0  0  0  0  0  0  0  0
   60.3640   33.7500   48.8600 S   0  0  0  0  0  0  0  0  0  0  0  0
   60.6190   32.8830   50.0620 O   0  0  0  0  0  0  0  0  0  0  0  0
   59.5990   34.9700   49.2970 O   0  0  0  0  0  0  0  0  0  0  0  0
   61.8790   34.2140   48.1150 N   0  0  0  0  0  0  0  0  0  0  0  0
   62.9960   34.2060   49.0850 C   0  0  0  0  0  0  0  0  0  0  0  0
   63.8610   32.9360   48.9870 C   0  0  0  0  0  0  0  0  0  0  0  0
   63.0660   31.8330   48.6180 O   0  0  0  0  0  0  0  0  0  0  0  0
   62.6280   31.9700   47.2770 C   0  0  0  0  0  0  0  0  0  0  0  0
   62.1670   33.4050   46.9190 C   0  0  0  0  0  0  0  0  0  0  0  0
   59.2510   31.4430   47.8410 C   0  0  0  0  0  0  0  0  0  0  0  0
   58.4830   30.7260   46.9180 C   0  0  0  0  0  0  0  0  0  0  0  0
   60.0270   29.6234   45.2754 H   0  0  0  0  0  0  0  0  0  0  0  0
   60.2593   28.5386   43.8626 H   0  0  0  0  0  0  0  0  0  0  0  0
   58.9237   29.7398   43.8626 H   0  0  0  0  0  0  0  0  0  0  0  0
   60.1033   26.4519   45.4268 H   0  0  0  0  0  0  0  0  0  0  0  0
   58.2048   24.9611   46.4803 H   0  0  0  0  0  0  0  0  0  0  0  0
   57.5807   33.2973   44.8495 H   0  0  0  0  0  0  0  0  0  0  0  0
   58.9344   34.5752   46.5059 H   0  0  0  0  0  0  0  0  0  0  0  0
   63.6339   35.0815   48.8939 H   0  0  0  0  0  0  0  0  0  0  0  0
   62.5590   34.2325   50.0941 H   0  0  0  0  0  0  0  0  0  0  0  0
   64.6451   33.0879   48.2306 H   0  0  0  0  0  0  0  0  0  0  0  0
   64.3183   32.7368   49.9674 H   0  0  0  0  0  0  0  0  0  0  0  0
   63.4584   31.6949   46.6101 H   0  0  0  0  0  0  0  0  0  0  0  0
   61.7562   31.3107   47.1533 H   0  0  0  0  0  0  0  0  0  0  0  0
   62.9626   33.8984   46.3413 H   0  0  0  0  0  0  0  0  0  0  0  0
   61.2380   33.3243   46.3355 H   0  0  0  0  0  0  0  0  0  0  0  0
   59.7297   30.9180   48.6808 H   0  0  0  0  0  0  0  0  0  0  0  0
   58.3694   29.6374   47.0280 H   0  0  0  0  0  0  0  0  0  0  0  0
  1  2  1  0
  2  3  1  0
  3  4  2  0
  4  5  1  0
  5  6  1  0
  6  7  1  0
  7  8  2  0
  7  9  1  0
  9 10  1  0
 10 11  2  0
 11 12  1  0
 12 13  2  0
 13 14  1  0
 14 15  2  0
 14 16  2  0
 14 17  1  0
 17 18  1  0
 18 19  1  0
 19 20  1  0
 20 21  1  0
 21 22  1  0
 13 23  1  0
 23 24  2  0
  6  2  2  0
 24 10  1  0
 22 17  1  0
  1 25  1  0
  1 26  1  0
  1 27  1  0
  3 28  1  0
  4 29  1  0
 11 30  1  0
 12 31  1  0
 18 32  1  0
 18 33  1  0
 19 34  1  0
 19 35  1  0
 21 36  1  0
 21 37  1  0
 22 38  1  0
 22 39  1  0
 23 40  1  0
 24 41  1  0
M  CHG  1   9  -1
M  END
>  <UniqueID>  (78) 
74

>  <SMILES>  (78) 
Cc1ccsc1C(=O)[N-]c1ccc(S(=O)(=O)N2CCOCC2)cc1

>  <Energy>  (78) 
81.96446281449182

>  <Genealogy>  (78) 
Cc1ccsc1C(=O)[N-]c1ccc(S(=O)(=O)N2CCOCC2)cc1 (protonated)
Cc1ccsc1C(=O)[N-]c1ccc(S(=O)(=O)N2CCOCC2)cc1 (3D coordinates assigned)
Cc1ccsc1C(=O)[N-]c1ccc(S(=O)(=O)N2CCOCC2)cc1 (nonaromatic ring conformer: 81.96446281449182 kcal/mol)

>  <smiles>  (78) 
Cc1ccsc1C(=O)Nc1ccc(S(=O)(=O)N2CCOCC2)cc1

>  <score_type>  (78) 
oracle

>  <origin>  (78) 
adg

>  <m_score__min__energy>  (78) 
-9.3499999999999996

>  <m_primary>  (78) 
energy

$$$$
78:0
     RDKit          3D

 36 38  0  0  0  0  0  0  0  0999 V2000
   56.8870   22.5890   47.8150 O   0  0  0  0  0  0  0  0  0  0  0  0
   57.4320   23.5680   47.2400 C   0  0  0  0  0  0  0  0  0  0  0  0
   57.7030   23.5140   45.8710 C   0  0  0  0  0  0  0  0  0  0  0  0
   58.3080   24.6090   45.2510 C   0  0  0  0  0  0  0  0  0  0  0  0
   58.6490   25.7440   46.0010 C   0  0  0  0  0  0  0  0  0  0  0  0
   59.2600   26.9410   45.3210 C   0  0  0  0  0  0  0  0  0  0  0  0
   58.1900   27.9060   44.9200 C   0  0  0  0  0  0  0  0  0  0  0  0
   56.8510   27.8270   45.2600 C   0  0  0  0  0  0  0  0  0  0  0  0
   56.2840   28.9930   44.7910 C   0  0  0  0  0  0  0  0  0  0  0  0
   54.9480   29.3450   44.9440 O   0  0  0  0  0  0  0  0  0  0  0  0
   57.2050   29.7670   44.1830 N   0  0  0  0  0  0  0  0  0  0  0  0
   57.0120   31.1210   43.6690 C   0  0  0  0  0  0  0  0  0  0  0  0
   57.5820   32.1210   44.6350 C   0  0  0  0  0  0  0  0  0  0  0  0
   57.9840   33.3890   44.1830 C   0  0  0  0  0  0  0  0  0  0  0  0
   58.5590   34.3030   45.0700 C   0  0  0  0  0  0  0  0  0  0  0  0
   58.7470   33.9560   46.4100 C   0  0  0  0  0  0  0  0  0  0  0  0
   58.3630   32.6910   46.8650 C   0  0  0  0  0  0  0  0  0  0  0  0
   57.7870   31.7730   45.9800 C   0  0  0  0  0  0  0  0  0  0  0  0
   58.3810   29.1150   44.2740 C   0  0  0  0  0  0  0  0  0  0  0  0
   58.3430   25.7610   47.3760 C   0  0  0  0  0  0  0  0  0  0  0  0
   58.6390   26.8770   48.1530 O   0  0  0  0  0  0  0  0  0  0  0  0
   57.7530   24.6790   47.9540 N   0  0  0  0  0  0  0  0  0  0  0  0
   57.4426   22.6186   45.2876 H   0  0  0  0  0  0  0  0  0  0  0  0
   58.5177   24.5814   44.1715 H   0  0  0  0  0  0  0  0  0  0  0  0
   59.9562   27.4368   46.0134 H   0  0  0  0  0  0  0  0  0  0  0  0
   59.7997   26.6080   44.4222 H   0  0  0  0  0  0  0  0  0  0  0  0
   56.3458   27.0073   45.7919 H   0  0  0  0  0  0  0  0  0  0  0  0
   57.5219   31.2191   42.6993 H   0  0  0  0  0  0  0  0  0  0  0  0
   55.9357   31.3109   43.5442 H   0  0  0  0  0  0  0  0  0  0  0  0
   57.8456   33.6634   43.1268 H   0  0  0  0  0  0  0  0  0  0  0  0
   58.8641   35.2975   44.7124 H   0  0  0  0  0  0  0  0  0  0  0  0
   59.1972   34.6780   47.1072 H   0  0  0  0  0  0  0  0  0  0  0  0
   58.5138   32.4172   47.9196 H   0  0  0  0  0  0  0  0  0  0  0  0
   57.4938   30.7754   46.3389 H   0  0  0  0  0  0  0  0  0  0  0  0
   59.3440   29.4864   43.8936 H   0  0  0  0  0  0  0  0  0  0  0  0
   58.3610   27.8050   47.8580 H   0  0  0  0  0  0  0  0  0  0  0  0
  1  2  2  0
  2  3  1  0
  3  4  2  0
  4  5  1  0
  5  6  1  0
  6  7  1  0
  7  8  1  0
  8  9  2  0
  9 10  1  0
  9 11  1  0
 11 12  1  0
 12 13  1  0
 13 14  2  0
 14 15  1  0
 15 16  2  0
 16 17  1  0
 17 18  2  0
 11 19  1  0
  5 20  2  0
 20 21  1  0
 20 22  1  0
 22  2  1  0
 19  7  2  0
 18 13  1  0
  3 23  1  0
  4 24  1  0
  6 25  1  0
  6 26  1  0
  8 27  1  0
 12 28  1  0
 12 29  1  0
 14 30  1  0
 15 31  1  0
 16 32  1  0
 17 33  1  0
 18 34  1  0
 19 35  1  0
 21 36  1  0
M  CHG  2  10  -1  22  -1
M  END
>  <UniqueID>  (79) 
75

>  <SMILES>  (79) 
O=c1ccc(Cc2cc([O-])n(Cc3ccccc3)c2)c(O)[n-]1

>  <Energy>  (79) 
62.18446577829976

>  <Genealogy>  (79) 
O=c1ccc(Cc2cc([O-])n(Cc3ccccc3)c2)c(O)[n-]1 (protonated)
O=c1ccc(Cc2cc([O-])n(Cc3ccccc3)c2)c(O)[n-]1 (3D coordinates assigned)
O=c1ccc(Cc2cc([O-])n(Cc3ccccc3)c2)c(O)[n-]1 (optimized conformer: 62.18446577829976 kcal/mol)

>  <smiles>  (79) 
O=c1ccc(Cc2cc(O)n(Cc3ccccc3)c2)c(O)[nH]1

>  <score_type>  (79) 
oracle

>  <origin>  (79) 
adg

>  <m_score__min__energy>  (79) 
-12.210000000000001

>  <m_primary>  (79) 
energy

$$$$
79:0
     RDKit          3D

 36 38  0  0  0  0  0  0  0  0999 V2000
   59.8930   35.9746   47.2383 H   0  0  0  0  0  0  0  0  0  0  0  0
   59.4560   35.1150   46.7090 C   0  0  0  0  0  0  0  0  0  0  0  0
   59.4550   35.0830   45.3510 N   0  0  0  0  0  0  0  0  0  0  0  0
   58.9220   34.0400   44.6590 C   0  0  0  0  0  0  0  0  0  0  0  0
   58.9364   34.0489   43.5591 H   0  0  0  0  0  0  0  0  0  0  0  0
   58.3530   32.9510   45.3420 C   0  0  0  0  0  0  0  0  0  0  0  0
   57.7690   31.8050   44.5980 C   0  0  0  0  0  0  0  0  0  0  0  0
   57.4670   31.9230   43.2300 C   0  0  0  0  0  0  0  0  0  0  0  0
   57.6548   32.8732   42.7087 H   0  0  0  0  0  0  0  0  0  0  0  0
   56.9300   30.8410   42.5290 C   0  0  0  0  0  0  0  0  0  0  0  0
   56.7011   30.9410   41.4577 H   0  0  0  0  0  0  0  0  0  0  0  0
   56.6830   29.6340   43.1830 C   0  0  0  0  0  0  0  0  0  0  0  0
   56.2703   28.7830   42.6214 H   0  0  0  0  0  0  0  0  0  0  0  0
   56.9570   29.4980   44.5510 C   0  0  0  0  0  0  0  0  0  0  0  0
   56.7150   28.2360   45.1980 N   0  0  0  0  0  0  0  0  0  0  0  0
   55.8990   27.6680   44.8780 H   0  0  0  0  0  0  0  0  0  0  0  0
   57.4270   27.7890   46.3630 C   0  0  0  0  0  0  0  0  0  0  0  0
   57.9430   28.6310   47.1460 O   0  0  0  0  0  0  0  0  0  0  0  0
   57.4900   26.3980   46.7100 N   0  0  0  0  0  0  0  0  0  0  0  0
   56.5500   25.5190   46.5210 C   0  0  0  0  0  0  0  0  0  0  0  0
   55.3400   25.7860   45.9930 N   0  0  0  0  0  0  0  0  0  0  0  0
   54.6900   24.6360   45.9360 N   0  0  0  0  0  0  0  0  0  0  0  0
   53.3610   24.4830   45.3620 C   0  0  0  0  0  0  0  0  0  0  0  0
   52.6200   24.3977   46.1705 H   0  0  0  0  0  0  0  0  0  0  0  0
   53.1267   25.3601   44.7409 H   0  0  0  0  0  0  0  0  0  0  0  0
   53.3321   23.5756   44.7409 H   0  0  0  0  0  0  0  0  0  0  0  0
   55.4720   23.6360   46.3900 C   0  0  0  0  0  0  0  0  0  0  0  0
   55.1918   22.5735   46.4405 H   0  0  0  0  0  0  0  0  0  0  0  0
   56.6840   24.1700   46.7810 C   0  0  0  0  0  0  0  0  0  0  0  0
   57.5533   23.6433   47.2015 H   0  0  0  0  0  0  0  0  0  0  0  0
   57.5170   30.5840   45.2490 C   0  0  0  0  0  0  0  0  0  0  0  0
   57.7605   30.4767   46.3163 H   0  0  0  0  0  0  0  0  0  0  0  0
   58.3510   32.9750   46.7480 C   0  0  0  0  0  0  0  0  0  0  0  0
   57.9127   32.1370   47.3098 H   0  0  0  0  0  0  0  0  0  0  0  0
   58.9030   34.0580   47.4330 C   0  0  0  0  0  0  0  0  0  0  0  0
   58.9023   34.0784   48.5328 H   0  0  0  0  0  0  0  0  0  0  0  0
  1  2  1  0
  2  3  2  0
  3  4  1  0
  4  5  1  0
  4  6  2  0
  6  7  1  0
  7  8  2  0
  8  9  1  0
  8 10  1  0
 10 11  1  0
 10 12  2  0
 12 13  1  0
 12 14  1  0
 14 15  1  0
 15 16  1  0
 15 17  1  0
 17 18  2  0
 17 19  1  0
 19 20  2  0
 20 21  1  0
 21 22  1  0
 22 23  1  0
 23 24  1  0
 23 25  1  0
 23 26  1  0
 22 27  1  0
 27 28  1  0
 27 29  2  0
 29 30  1  0
 14 31  2  0
 31 32  1  0
  6 33  1  0
 33 34  1  0
 33 35  2  0
 35 36  1  0
 35  2  1  0
 31  7  1  0
 29 20  1  0
M  CHG  1  21  -1
M  END
>  <UniqueID>  (80) 
76

>  <SMILES>  (80) 
Cn1cc/c(=N/C(=O)Nc2cccc(-c3cccnc3)c2)[n-]1

>  <Energy>  (80) 
80.38329357043126

>  <Genealogy>  (80) 
Cn1ccc(=NC(=O)Nc2cccc(-c3cccnc3)c2)[n-]1 (protonated)
Cn1cc/c(=N/C(=O)Nc2cccc(-c3cccnc3)c2)[n-]1 (cis-trans isomerization)
Cn1cc/c(=N/C(=O)Nc2cccc(-c3cccnc3)c2)[n-]1 (3D coordinates assigned)
Cn1cc/c(=N/C(=O)Nc2cccc(-c3cccnc3)c2)[n-]1 (optimized conformer: 80.38329357043126 kcal/mol)

>  <smiles>  (80) 
Cn1ccc(=NC(=O)Nc2cccc(-c3cccnc3)c2)[nH]1

>  <score_type>  (80) 
oracle

>  <origin>  (80) 
adg

>  <m_score__min__energy>  (80) 
-9.8499999999999996

>  <m_primary>  (80) 
energy

$$$$
80:0
     RDKit          3D

 64 69  0  0  0  0  0  0  0  0999 V2000
   59.5305   27.9188   48.1129 H   0  0  0  0  0  0  0  0  0  0  0  0
   59.1060   27.1420   47.4600 C   0  0  0  0  0  0  0  0  0  0  0  0
   59.2331   26.0795   47.7149 H   0  0  0  0  0  0  0  0  0  0  0  0
   58.4340   27.4900   46.3540 C   0  0  0  0  0  0  0  0  0  0  0  0
   57.8310   26.6360   45.4150 C   0  0  0  0  0  0  0  0  0  0  0  0
   57.5670   25.3150   45.4610 C   0  0  0  0  0  0  0  0  0  0  0  0
   58.4303   24.6337   45.4859 H   0  0  0  0  0  0  0  0  0  0  0  0
   56.2290   24.7000   45.4810 C   0  0  0  0  0  0  0  0  0  0  0  0
   55.9850   23.3790   45.3970 N   0  0  0  0  0  0  0  0  0  0  0  0
   54.6540   23.2950   45.6030 C   0  0  0  0  0  0  0  0  0  0  0  0
   54.0320   22.2020   45.5850 O   0  0  0  0  0  0  0  0  0  0  0  0
   54.0420   24.4730   45.8470 N   0  0  0  0  0  0  0  0  0  0  0  0
   55.0570   25.3500   45.7830 C   0  0  0  0  0  0  0  0  0  0  0  0
   54.9180   26.7140   46.0010 O   0  0  0  0  0  0  0  0  0  0  0  0
   57.4950   27.4280   44.3280 C   0  0  0  0  0  0  0  0  0  0  0  0
   57.0467   27.0883   43.3827 H   0  0  0  0  0  0  0  0  0  0  0  0
   57.8310   28.7240   44.6600 C   0  0  0  0  0  0  0  0  0  0  0  0
   57.6330   29.9200   43.7800 C   0  0  0  0  0  0  0  0  0  0  0  0
   57.4850   30.8138   44.4039 H   0  0  0  0  0  0  0  0  0  0  0  0
   58.5204   30.0589   43.1450 H   0  0  0  0  0  0  0  0  0  0  0  0
   56.7482   29.7655   43.1450 H   0  0  0  0  0  0  0  0  0  0  0  0
   58.3890   28.7630   45.8880 N   0  0  0  0  0  0  0  0  0  0  0  0
   58.9010   29.9390   46.5290 C   0  0  0  0  0  0  0  0  0  0  0  0
   58.8580   30.0560   47.9230 C   0  0  0  0  0  0  0  0  0  0  0  0
   58.4069   29.2553   48.5276 H   0  0  0  0  0  0  0  0  0  0  0  0
   59.3870   31.1880   48.5480 C   0  0  0  0  0  0  0  0  0  0  0  0
   59.3438   31.2782   49.6434 H   0  0  0  0  0  0  0  0  0  0  0  0
   59.9750   32.2140   47.7840 C   0  0  0  0  0  0  0  0  0  0  0  0
   60.5460   33.4130   48.4390 C   0  0  0  0  0  0  0  0  0  0  0  0
   60.0570   34.5500   48.1830 O   0  0  0  0  0  0  0  0  0  0  0  0
   61.6470   33.3090   49.3600 N   0  0  0  0  0  0  0  0  0  0  0  0
   62.7880   32.4810   49.0460 C   0  0  0  0  0  0  0  0  0  0  0  0
   62.8630   31.8400   47.9640 O   0  0  0  0  0  0  0  0  0  0  0  0
   63.8770   32.4340   50.0140 C   0  0  0  0  0  0  0  0  0  0  0  0
   65.0020   31.6960   49.9080 N   0  0  0  0  0  0  0  0  0  0  0  0
   65.7020   32.0350   51.0160 C   0  0  0  0  0  0  0  0  0  0  0  0
   67.0520   31.5180   51.3050 C   0  0  0  0  0  0  0  0  0  0  0  0
   68.0340   32.2880   51.1420 O   0  0  0  0  0  0  0  0  0  0  0  0
   67.2800   30.1650   51.7440 N   0  0  0  0  0  0  0  0  0  0  0  0
   68.5330   29.7470   52.3470 C   0  0  0  0  0  0  0  0  0  0  0  0
   69.3821   30.2173   51.8295 H   0  0  0  0  0  0  0  0  0  0  0  0
   68.5909   30.0446   53.4044 H   0  0  0  0  0  0  0  0  0  0  0  0
   68.5890   28.2350   52.1890 C   0  0  0  0  0  0  0  0  0  0  0  0
   69.2727   27.9608   51.3721 H   0  0  0  0  0  0  0  0  0  0  0  0
   68.9610   27.7472   53.1020 H   0  0  0  0  0  0  0  0  0  0  0  0
   67.1670   27.7960   51.8600 C   0  0  0  0  0  0  0  0  0  0  0  0
   67.1774   27.0062   51.0945 H   0  0  0  0  0  0  0  0  0  0  0  0
   66.6558   27.3848   52.7429 H   0  0  0  0  0  0  0  0  0  0  0  0
   66.4620   29.0360   51.3320 C   0  0  0  0  0  0  0  0  0  0  0  0
   66.3887   28.9966   50.2352 H   0  0  0  0  0  0  0  0  0  0  0  0
   65.4371   29.1155   51.7236 H   0  0  0  0  0  0  0  0  0  0  0  0
   65.0070   32.9870   51.7430 C   0  0  0  0  0  0  0  0  0  0  0  0
   65.3445   33.4747   52.6694 H   0  0  0  0  0  0  0  0  0  0  0  0
   63.8450   33.2040   51.1070 N   0  0  0  0  0  0  0  0  0  0  0  0
   62.8250   34.2150   51.3730 C   0  0  0  0  0  0  0  0  0  0  0  0
   63.1391   35.1737   50.9346 H   0  0  0  0  0  0  0  0  0  0  0  0
   62.7005   34.3254   52.4603 H   0  0  0  0  0  0  0  0  0  0  0  0
   61.4810   33.7840   50.7500 C   0  0  0  0  0  0  0  0  0  0  0  0
   60.7953   34.6441   50.7528 H   0  0  0  0  0  0  0  0  0  0  0  0
   61.0773   32.9543   51.3488 H   0  0  0  0  0  0  0  0  0  0  0  0
   59.9980   32.0950   46.3820 C   0  0  0  0  0  0  0  0  0  0  0  0
   60.4387   32.8975   45.7722 H   0  0  0  0  0  0  0  0  0  0  0  0
   59.4650   30.9650   45.7610 C   0  0  0  0  0  0  0  0  0  0  0  0
   59.4879   30.8798   44.6645 H   0  0  0  0  0  0  0  0  0  0  0  0
  1  2  1  0
  2  3  1  0
  2  4  2  0
  4  5  1  0
  5  6  2  0
  6  7  1  0
  6  8  1  0
  8  9  1  0
  9 10  1  0
 10 11  2  0
 10 12  1  0
 12 13  1  0
 13 14  1  0
  5 15  1  0
 15 16  1  0
 15 17  2  0
 17 18  1  0
 18 19  1  0
 18 20  1  0
 18 21  1  0
 17 22  1  0
 22 23  1  0
 23 24  2  0
 24 25  1  0
 24 26  1  0
 26 27  1  0
 26 28  2  0
 28 29  1  0
 29 30  2  0
 29 31  1  0
 31 32  1  0
 32 33  2  0
 32 34  1  0
 34 35  2  0
 35 36  1  0
 36 37  1  0
 37 38  2  0
 37 39  1  0
 39 40  1  0
 40 41  1  0
 40 42  1  0
 40 43  1  0
 43 44  1  0
 43 45  1  0
 43 46  1  0
 46 47  1  0
 46 48  1  0
 46 49  1  0
 49 50  1  0
 49 51  1  0
 36 52  2  0
 52 53  1  0
 52 54  1  0
 54 55  1  0
 55 56  1  0
 55 57  1  0
 55 58  1  0
 58 59  1  0
 58 60  1  0
 28 61  1  0
 61 62  1  0
 61 63  2  0
 63 64  1  0
 22  4  1  0
 63 23  1  0
 13  8  2  0
 58 31  1  0
 54 34  1  0
 49 39  1  0
M  CHG  3   9  -1  12  -1  14  -1
M  END
>  <UniqueID>  (81) 
77

>  <SMILES>  (81) 
C=c1/c(=C\c2[n-]c(=O)[n-]c2[O-])cc(C)n1-c1ccc(C(=O)N2CCn3cc(C(=O)N4CCCC4)nc3C2=O)cc1

>  <Energy>  (81) 
186.79158539047742

>  <Genealogy>  (81) 
C=c1c(=Cc2[n-]c(=O)[n-]c2[O-])cc(C)n1-c1ccc(C(=O)N2CCn3cc(C(=O)N4CCCC4)nc3C2=O)cc1 (protonated)
C=c1/c(=C\c2[n-]c(=O)[n-]c2[O-])cc(C)n1-c1ccc(C(=O)N2CCn3cc(C(=O)N4CCCC4)nc3C2=O)cc1 (cis-trans isomerization)
C=c1/c(=C\c2[n-]c(=O)[n-]c2[O-])cc(C)n1-c1ccc(C(=O)N2CCn3cc(C(=O)N4CCCC4)nc3C2=O)cc1 (3D coordinates assigned)
C=c1/c(=C\c2[n-]c(=O)[n-]c2[O-])cc(C)n1-c1ccc(C(=O)N2CCn3cc(C(=O)N4CCCC4)nc3C2=O)cc1 (nonaromatic ring conformer: 186.79158539047742 kcal/mol)

>  <smiles>  (81) 
C=c1c(=Cc2[nH]c(=O)[nH]c2O)cc(C)n1-c1ccc(C(=O)N2CCn3cc(C(=O)N4CCCC4)nc3C2=O)cc1

>  <score_type>  (81) 
oracle

>  <origin>  (81) 
adg

>  <m_score__min__energy>  (81) 
-16.75

>  <m_primary>  (81) 
energy

$$$$
81:0
     RDKit          3D

 50 52  0  0  0  0  0  0  0  0999 V2000
   58.4800   30.9250   44.0470 O   0  0  0  0  0  0  0  0  0  0  0  0
   57.4110   31.5470   44.2840 C   0  0  0  0  0  0  0  0  0  0  0  0
   57.3900   33.0430   44.1140 C   0  0  0  0  0  0  0  0  0  0  0  0
   58.1620   33.7260   45.2110 C   0  0  0  0  0  0  0  0  0  0  0  0
   57.8370   33.4890   46.5590 C   0  0  0  0  0  0  0  0  0  0  0  0
   58.5620   34.1100   47.5810 C   0  0  0  0  0  0  0  0  0  0  0  0
   59.6220   34.9650   47.2660 C   0  0  0  0  0  0  0  0  0  0  0  0
   59.9560   35.2030   45.9300 C   0  0  0  0  0  0  0  0  0  0  0  0
   59.2340   34.5840   44.9050 C   0  0  0  0  0  0  0  0  0  0  0  0
   56.2760   30.8070   44.7560 N   0  0  0  0  0  0  0  0  0  0  0  0
   56.0470   29.3770   44.5810 C   0  0  0  0  0  0  0  0  0  0  0  0
   57.1270   28.5790   45.2470 C   0  0  0  0  0  0  0  0  0  0  0  0
   57.1260   27.3220   45.1400 O   0  0  0  0  0  0  0  0  0  0  0  0
   58.1540   29.2440   45.9970 N   0  0  0  0  0  0  0  0  0  0  0  0
   58.9960   28.5410   46.9210 C   0  0  0  0  0  0  0  0  0  0  0  0
   59.0370   27.1400   46.8560 C   0  0  0  0  0  0  0  0  0  0  0  0
   59.8640   26.4150   47.7140 C   0  0  0  0  0  0  0  0  0  0  0  0
   60.6470   27.0810   48.6560 C   0  0  0  0  0  0  0  0  0  0  0  0
   60.6020   28.4740   48.7470 C   0  0  0  0  0  0  0  0  0  0  0  0
   59.7820   29.2220   47.8830 C   0  0  0  0  0  0  0  0  0  0  0  0
   59.6940   30.6900   48.0660 C   0  0  0  0  0  0  0  0  0  0  0  0
   58.5650   31.2500   48.0760 O   0  0  0  0  0  0  0  0  0  0  0  0
   60.8740   31.4880   48.2650 N   0  0  0  0  0  0  0  0  0  0  0  0
   62.0960   31.2250   47.4980 C   0  0  0  0  0  0  0  0  0  0  0  0
   62.8860   32.5240   47.3180 C   0  0  0  0  0  0  0  0  0  0  0  0
   63.0820   33.1730   48.5610 O   0  0  0  0  0  0  0  0  0  0  0  0
   61.8350   33.5870   49.0860 C   0  0  0  0  0  0  0  0  0  0  0  0
   60.9590   32.3790   49.4250 C   0  0  0  0  0  0  0  0  0  0  0  0
   57.8407   33.3003   43.1441 H   0  0  0  0  0  0  0  0  0  0  0  0
   56.3452   33.3842   44.1586 H   0  0  0  0  0  0  0  0  0  0  0  0
   57.0079   32.8113   46.8106 H   0  0  0  0  0  0  0  0  0  0  0  0
   58.2981   33.9256   48.6328 H   0  0  0  0  0  0  0  0  0  0  0  0
   60.1938   35.4509   48.0703 H   0  0  0  0  0  0  0  0  0  0  0  0
   60.7886   35.8786   45.6843 H   0  0  0  0  0  0  0  0  0  0  0  0
   59.5053   34.7687   43.8551 H   0  0  0  0  0  0  0  0  0  0  0  0
   55.0762   29.1104   45.0244 H   0  0  0  0  0  0  0  0  0  0  0  0
   56.0526   29.1484   43.5050 H   0  0  0  0  0  0  0  0  0  0  0  0
   58.1090   30.2850   46.0830 H   0  0  0  0  0  0  0  0  0  0  0  0
   58.4121   26.6092   46.1227 H   0  0  0  0  0  0  0  0  0  0  0  0
   59.8984   25.3176   47.6474 H   0  0  0  0  0  0  0  0  0  0  0  0
   61.3017   26.5080   49.3291 H   0  0  0  0  0  0  0  0  0  0  0  0
   61.2135   28.9909   49.5013 H   0  0  0  0  0  0  0  0  0  0  0  0
   62.7151   30.4930   48.0374 H   0  0  0  0  0  0  0  0  0  0  0  0
   61.8251   30.8252   46.5097 H   0  0  0  0  0  0  0  0  0  0  0  0
   63.8656   32.2912   46.8749 H   0  0  0  0  0  0  0  0  0  0  0  0
   62.3150   33.1938   46.6582 H   0  0  0  0  0  0  0  0  0  0  0  0
   62.0060   34.1759   49.9992 H   0  0  0  0  0  0  0  0  0  0  0  0
   61.3185   34.1951   48.3288 H   0  0  0  0  0  0  0  0  0  0  0  0
   61.4001   31.8342   50.2727 H   0  0  0  0  0  0  0  0  0  0  0  0
   59.9497   32.7252   49.6925 H   0  0  0  0  0  0  0  0  0  0  0  0
  1  2  2  0
  2  3  1  0
  3  4  1  0
  4  5  2  0
  5  6  1  0
  6  7  2  0
  7  8  1  0
  8  9  2  0
  2 10  1  0
 10 11  1  0
 11 12  1  0
 12 13  2  0
 12 14  1  0
 14 15  1  0
 15 16  2  0
 16 17  1  0
 17 18  2  0
 18 19  1  0
 19 20  2  0
 20 21  1  0
 21 22  2  0
 21 23  1  0
 23 24  1  0
 24 25  1  0
 25 26  1  0
 26 27  1  0
 27 28  1  0
  9  4  1  0
 20 15  1  0
 28 23  1  0
  3 29  1  0
  3 30  1  0
  5 31  1  0
  6 32  1  0
  7 33  1  0
  8 34  1  0
  9 35  1  0
 11 36  1  0
 11 37  1  0
 14 38  1  0
 16 39  1  0
 17 40  1  0
 18 41  1  0
 19 42  1  0
 24 43  1  0
 24 44  1  0
 25 45  1  0
 25 46  1  0
 27 47  1  0
 27 48  1  0
 28 49  1  0
 28 50  1  0
M  CHG  1  10  -1
M  END
>  <UniqueID>  (82) 
78

>  <SMILES>  (82) 
O=C(Cc1ccccc1)[N-]CC(=O)Nc1ccccc1C(=O)N1CCOCC1

>  <Energy>  (82) 
60.36814941356263

>  <Genealogy>  (82) 
O=C(Cc1ccccc1)[N-]CC(=O)Nc1ccccc1C(=O)N1CCOCC1 (protonated)
O=C(Cc1ccccc1)[N-]CC(=O)Nc1ccccc1C(=O)N1CCOCC1 (3D coordinates assigned)
O=C(Cc1ccccc1)[N-]CC(=O)Nc1ccccc1C(=O)N1CCOCC1 (nonaromatic ring conformer: 60.36814941356263 kcal/mol)

>  <smiles>  (82) 
O=C(Cc1ccccc1)NCC(=O)Nc1ccccc1C(=O)N1CCOCC1

>  <score_type>  (82) 
oracle

>  <origin>  (82) 
adg

>  <m_score__min__energy>  (82) 
-11.43

>  <m_primary>  (82) 
energy

$$$$
82:0
     RDKit          3D

 40 42  0  0  0  0  0  0  0  0999 V2000
   58.1050   32.6850   48.6030 O   0  0  0  0  0  0  0  0  0  0  0  0
   58.7880   32.1240   47.7040 C   0  0  0  0  0  0  0  0  0  0  0  0
   59.1900   32.8990   46.4890 C   0  0  0  0  0  0  0  0  0  0  0  0
   57.7510   33.7640   45.7670 S   0  0  0  0  0  0  0  0  0  0  0  0
   57.3960   32.4960   44.5480 C   0  0  0  0  0  0  0  0  0  0  0  0
   57.9040   32.6040   43.2480 C   0  0  0  0  0  0  0  0  0  0  0  0
   57.5930   31.6170   42.3100 C   0  0  0  0  0  0  0  0  0  0  0  0
   56.7990   30.5310   42.6830 C   0  0  0  0  0  0  0  0  0  0  0  0
   56.3270   30.4470   43.9970 C   0  0  0  0  0  0  0  0  0  0  0  0
   56.6310   31.4250   44.8930 N   0  0  0  0  0  0  0  0  0  0  0  0
   59.0970   30.7270   47.7790 N   0  0  0  0  0  0  0  0  0  0  0  0
   59.2260   29.8180   46.6750 C   0  0  0  0  0  0  0  0  0  0  0  0
   60.4610   29.7250   46.0270 C   0  0  0  0  0  0  0  0  0  0  0  0
   60.6290   28.8510   44.9520 C   0  0  0  0  0  0  0  0  0  0  0  0
   59.5680   28.0500   44.5240 C   0  0  0  0  0  0  0  0  0  0  0  0
   58.3250   28.1030   45.1850 C   0  0  0  0  0  0  0  0  0  0  0  0
   57.2200   27.2690   44.7950 N   0  0  0  0  0  0  0  0  0  0  0  0
   56.6070   25.9590   45.7550 S   0  0  0  0  0  0  0  0  0  0  0  0
   57.3200   25.9310   47.0780 O   0  0  0  0  0  0  0  0  0  0  0  0
   55.1370   26.1630   45.9980 O   0  0  0  0  0  0  0  0  0  0  0  0
   56.8870   24.4370   44.9310 C   0  0  0  0  0  0  0  0  0  0  0  0
   56.2060   23.9790   43.8130 C   0  0  0  0  0  0  0  0  0  0  0  0
   56.6820   22.7440   43.3550 C   0  0  0  0  0  0  0  0  0  0  0  0
   57.7350   22.2360   44.1090 C   0  0  0  0  0  0  0  0  0  0  0  0
   58.0780   23.3250   45.3450 S   0  0  0  0  0  0  0  0  0  0  0  0
   58.1650   28.9940   46.2610 C   0  0  0  0  0  0  0  0  0  0  0  0
   59.9529   33.6401   46.7698 H   0  0  0  0  0  0  0  0  0  0  0  0
   59.5930   32.1997   45.7416 H   0  0  0  0  0  0  0  0  0  0  0  0
   58.5407   33.4563   42.9685 H   0  0  0  0  0  0  0  0  0  0  0  0
   57.9725   31.6951   41.2805 H   0  0  0  0  0  0  0  0  0  0  0  0
   56.5472   29.7494   41.9511 H   0  0  0  0  0  0  0  0  0  0  0  0
   55.7101   29.5904   44.3061 H   0  0  0  0  0  0  0  0  0  0  0  0
   61.3048   30.3439   46.3661 H   0  0  0  0  0  0  0  0  0  0  0  0
   61.6008   28.7928   44.4399 H   0  0  0  0  0  0  0  0  0  0  0  0
   59.7035   27.3744   43.6666 H   0  0  0  0  0  0  0  0  0  0  0  0
   56.7000   27.4960   43.9180 H   0  0  0  0  0  0  0  0  0  0  0  0
   55.3799   24.5274   43.3367 H   0  0  0  0  0  0  0  0  0  0  0  0
   56.2625   22.2243   42.4809 H   0  0  0  0  0  0  0  0  0  0  0  0
   58.2552   21.2838   43.9279 H   0  0  0  0  0  0  0  0  0  0  0  0
   57.1990   29.0468   46.7845 H   0  0  0  0  0  0  0  0  0  0  0  0
  1  2  2  0
  2  3  1  0
  3  4  1  0
  4  5  1  0
  5  6  2  0
  6  7  1  0
  7  8  2  0
  8  9  1  0
  9 10  2  0
  2 11  1  0
 11 12  1  0
 12 13  2  0
 13 14  1  0
 14 15  2  0
 15 16  1  0
 16 17  1  0
 17 18  1  0
 18 19  2  0
 18 20  2  0
 18 21  1  0
 21 22  2  0
 22 23  1  0
 23 24  2  0
 24 25  1  0
 16 26  2  0
 10  5  1  0
 26 12  1  0
 25 21  1  0
  3 27  1  0
  3 28  1  0
  6 29  1  0
  7 30  1  0
  8 31  1  0
  9 32  1  0
 13 33  1  0
 14 34  1  0
 15 35  1  0
 17 36  1  0
 22 37  1  0
 23 38  1  0
 24 39  1  0
 26 40  1  0
M  CHG  1  11  -1
M  END
>  <UniqueID>  (83) 
79

>  <SMILES>  (83) 
O=C(CSc1ccccn1)[N-]c1cccc(NS(=O)(=O)c2cccs2)c1

>  <Energy>  (83) 
69.450803582211

>  <Genealogy>  (83) 
O=C(CSc1ccccn1)[N-]c1cccc(NS(=O)(=O)c2cccs2)c1 (protonated)
O=C(CSc1ccccn1)[N-]c1cccc(NS(=O)(=O)c2cccs2)c1 (3D coordinates assigned)
O=C(CSc1ccccn1)[N-]c1cccc(NS(=O)(=O)c2cccs2)c1 (optimized conformer: 69.450803582211 kcal/mol)

>  <smiles>  (83) 
O=C(CSc1ccccn1)Nc1cccc(NS(=O)(=O)c2cccs2)c1

>  <score_type>  (83) 
oracle

>  <origin>  (83) 
adg

>  <m_score__min__energy>  (83) 
-10.84

>  <m_primary>  (83) 
energy

$$$$
83:0
     RDKit          3D

 63 67  0  0  1  0  0  0  0  0999 V2000
   63.7670   32.7850   47.8410 C   0  0  0  0  0  0  0  0  0  0  0  0
   62.8290   33.8010   48.4360 C   0  0  0  0  0  0  0  0  0  0  0  0
   61.5670   33.8570   47.7410 N   0  0  0  0  0  0  0  0  0  0  0  0
   60.4510   34.2180   48.5190 C   0  0  0  0  0  0  0  0  0  0  0  0
   59.2530   33.3430   48.4950 C   0  0  0  0  0  0  0  0  0  0  0  0
   59.2120   32.4200   47.3580 N   0  0  0  0  0  0  0  0  0  0  0  0
   58.0500   32.2030   46.5820 C   0  0  0  0  0  0  0  0  0  0  0  0
   57.0250   32.8700   46.8920 O   0  0  0  0  0  0  0  0  0  0  0  0
   58.0970   31.2440   45.4850 C   0  0  1  0  0  0  0  0  0  0  0  0
   58.3970   29.8170   45.9940 C   0  0  0  0  0  0  0  0  0  0  0  0
   58.1870   29.0570   44.6670 C   0  0  1  0  0  0  0  0  0  0  0  0
   57.7090   27.6840   44.9030 C   0  0  0  0  0  0  0  0  0  0  0  0
   56.5950   27.2250   45.5030 N   0  0  0  0  0  0  0  0  0  0  0  0
   56.5980   25.8780   45.5080 C   0  0  0  0  0  0  0  0  0  0  0  0
   55.5850   24.9560   46.0480 C   0  0  0  0  0  0  0  0  0  0  0  0
   55.9060   24.2070   47.1500 C   0  0  0  0  0  0  0  0  0  0  0  0
   54.9620   23.3350   47.6600 C   0  0  0  0  0  0  0  0  0  0  0  0
   53.7090   23.1970   47.0930 C   0  0  0  0  0  0  0  0  0  0  0  0
   52.7940   22.3420   47.6040 F   0  0  0  0  0  0  0  0  0  0  0  0
   53.4080   23.9710   45.9720 C   0  0  0  0  0  0  0  0  0  0  0  0
   54.3430   24.8500   45.4490 C   0  0  0  0  0  0  0  0  0  0  0  0
   57.7670   25.4700   44.8820 C   0  0  0  0  0  0  0  0  0  0  0  0
   58.1400   24.0700   44.7070 C   0  0  0  0  0  0  0  0  0  0  0  0
   59.3030   23.5770   45.2530 C   0  0  0  0  0  0  0  0  0  0  0  0
   59.5530   22.2200   45.0130 C   0  0  0  0  0  0  0  0  0  0  0  0
   58.7180   21.4540   44.2990 N   0  0  0  0  0  0  0  0  0  0  0  0
   57.5950   22.0220   43.7980 C   0  0  0  0  0  0  0  0  0  0  0  0
   56.7650   21.3230   43.1000 N   0  0  0  0  0  0  0  0  0  0  0  0
   57.2860   23.3130   43.9850 N   0  0  0  0  0  0  0  0  0  0  0  0
   58.3950   26.5830   44.5400 N   0  0  0  0  0  0  0  0  0  0  0  0
   57.2070   29.9100   43.9360 C   0  0  0  0  0  0  0  0  0  0  0  0
   56.7810   30.9420   44.9110 N   0  0  0  0  0  0  0  0  0  0  0  0
   60.4900   31.7540   47.0640 C   0  0  0  0  0  0  0  0  0  0  0  0
   61.4170   32.9040   46.7120 C   0  0  0  0  0  0  0  0  0  0  0  0
   64.2735   32.2363   48.6487 H   0  0  0  0  0  0  0  0  0  0  0  0
   63.1965   32.0789   47.2198 H   0  0  0  0  0  0  0  0  0  0  0  0
   64.5164   33.2974   47.2198 H   0  0  0  0  0  0  0  0  0  0  0  0
   62.6420   33.5362   49.4872 H   0  0  0  0  0  0  0  0  0  0  0  0
   63.3047   34.7889   48.3478 H   0  0  0  0  0  0  0  0  0  0  0  0
   60.7895   34.2749   49.5641 H   0  0  0  0  0  0  0  0  0  0  0  0
   60.1037   35.1590   48.0676 H   0  0  0  0  0  0  0  0  0  0  0  0
   59.2385   32.7509   49.4219 H   0  0  0  0  0  0  0  0  0  0  0  0
   58.3784   34.0034   48.4006 H   0  0  0  0  0  0  0  0  0  0  0  0
   58.8230   31.7102   44.8026 H   0  0  0  0  0  0  0  0  0  0  0  0
   59.4258   29.7183   46.3707 H   0  0  0  0  0  0  0  0  0  0  0  0
   57.7895   29.4737   46.8444 H   0  0  0  0  0  0  0  0  0  0  0  0
   59.1113   28.9124   44.0884 H   0  0  0  0  0  0  0  0  0  0  0  0
   56.8964   24.2979   47.6200 H   0  0  0  0  0  0  0  0  0  0  0  0
   55.2160   22.7323   48.5445 H   0  0  0  0  0  0  0  0  0  0  0  0
   52.4190   23.8827   45.4987 H   0  0  0  0  0  0  0  0  0  0  0  0
   54.0995   25.4580   44.5653 H   0  0  0  0  0  0  0  0  0  0  0  0
   59.9898   24.2061   45.8383 H   0  0  0  0  0  0  0  0  0  0  0  0
   60.4670   21.7676   45.4253 H   0  0  0  0  0  0  0  0  0  0  0  0
   58.8860   20.4310   44.1020 H   0  0  0  0  0  0  0  0  0  0  0  0
   56.9310   20.3040   42.9720 H   0  0  0  0  0  0  0  0  0  0  0  0
   59.3140   26.5980   44.0450 H   0  0  0  0  0  0  0  0  0  0  0  0
   57.6818   30.3790   43.0616 H   0  0  0  0  0  0  0  0  0  0  0  0
   56.3547   29.3247   43.5605 H   0  0  0  0  0  0  0  0  0  0  0  0
   56.3800   31.7750   44.4410 H   0  0  0  0  0  0  0  0  0  0  0  0
   60.8594   31.2065   47.9436 H   0  0  0  0  0  0  0  0  0  0  0  0
   60.4089   31.0078   46.2599 H   0  0  0  0  0  0  0  0  0  0  0  0
   62.4085   32.4894   46.4776 H   0  0  0  0  0  0  0  0  0  0  0  0
   60.9634   33.4277   45.8576 H   0  0  0  0  0  0  0  0  0  0  0  0
  1  2  1  0
  2  3  1  0
  3  4  1  0
  4  5  1  0
  5  6  1  0
  6  7  1  0
  7  8  2  0
  7  9  1  0
  9 10  1  0
 10 11  1  0
 11 12  1  0
 12 13  2  0
 13 14  1  0
 14 15  1  0
 15 16  2  0
 16 17  1  0
 17 18  2  0
 18 19  1  0
 18 20  1  0
 20 21  2  0
 14 22  2  0
 22 23  1  0
 23 24  1  0
 24 25  2  0
 25 26  1  0
 26 27  1  0
 27 28  2  3
 27 29  1  0
 22 30  1  0
 11 31  1  0
 31 32  1  0
  6 33  1  0
 33 34  1  0
 34  3  1  0
 32  9  1  0
 30 12  1  0
 21 15  1  0
 29 23  2  0
  1 35  1  0
  1 36  1  0
  1 37  1  0
  2 38  1  0
  2 39  1  0
  4 40  1  0
  4 41  1  0
  5 42  1  0
  5 43  1  0
  9 44  1  6
 10 45  1  0
 10 46  1  0
 11 47  1  6
 16 48  1  0
 17 49  1  0
 20 50  1  0
 21 51  1  0
 24 52  1  0
 25 53  1  0
 26 54  1  0
 28 55  1  0
 30 56  1  0
 31 57  1  0
 31 58  1  0
 32 59  1  0
 33 60  1  0
 33 61  1  0
 34 62  1  0
 34 63  1  0
M  END
>  <smiles>  (84) 
CCN1CCN(C(=O)C2CC(c3nc(-c4ccc(F)cc4)c(-c4cc[nH]c(=N)n4)[nH]3)CN2)CC1

>  <score_type>  (84) 
oracle

>  <origin>  (84) 
adg

>  <m_score__min__energy>  (84) 
-9.0899999999999999

>  <m_primary>  (84) 
energy

$$$$
84:0
     RDKit          3D

 49 52  0  0  1  0  0  0  0  0999 V2000
   56.5150   29.5510   45.2110 O   0  0  0  0  0  0  0  0  0  0  0  0
   57.7180   29.9890   45.2120 C   0  0  0  0  0  0  0  0  0  0  0  0
   58.7440   29.0390   45.2520 N   0  0  0  0  0  0  0  0  0  0  0  0
   59.4010   28.8610   46.3560 C   0  0  0  0  0  0  0  0  0  0  0  0
   59.9970   29.9020   47.0040 N   0  0  0  0  0  0  0  0  0  0  0  0
   60.6690   29.7430   48.1460 C   0  0  0  0  0  0  0  0  0  0  0  0
   61.2890   30.7990   48.8280 O   0  0  0  0  0  0  0  0  0  0  0  0
   61.8070   31.8570   48.0650 C   0  0  0  0  0  0  0  0  0  0  0  0
   63.1740   31.8640   47.8680 C   0  0  0  0  0  0  0  0  0  0  0  0
   63.7420   32.8960   47.1150 C   0  0  0  0  0  0  0  0  0  0  0  0
   62.9190   33.8860   46.5870 C   0  0  0  0  0  0  0  0  0  0  0  0
   61.5480   33.8590   46.7960 C   0  0  0  0  0  0  0  0  0  0  0  0
   60.9770   32.8430   47.5380 C   0  0  0  0  0  0  0  0  0  0  0  0
   60.7800   28.5070   48.7040 N   0  0  0  0  0  0  0  0  0  0  0  0
   60.2020   27.4500   48.0910 C   0  0  0  0  0  0  0  0  0  0  0  0
   59.5040   27.6210   46.9050 C   0  0  0  0  0  0  0  0  0  0  0  0
   58.9130   26.4110   46.3340 C   0  0  0  0  0  0  0  0  0  0  0  0
   59.4380   25.2740   46.4240 O   0  0  0  0  0  0  0  0  0  0  0  0
   57.6790   26.5730   45.6470 N   0  0  0  0  0  0  0  0  0  0  0  0
   56.9620   25.5110   45.0360 C   0  0  0  0  0  0  0  0  0  0  0  0
   57.3890   24.8690   43.8840 C   0  0  0  0  0  0  0  0  0  0  0  0
   56.6140   23.8560   43.3750 C   0  0  0  0  0  0  0  0  0  0  0  0
   55.4240   23.4360   43.9470 C   0  0  0  0  0  0  0  0  0  0  0  0
   55.0000   24.0860   45.1060 C   0  0  0  0  0  0  0  0  0  0  0  0
   55.7660   25.1100   45.6380 C   0  0  0  0  0  0  0  0  0  0  0  0
   57.8660   31.4270   45.1700 C   0  0  0  0  0  0  0  0  0  0  0  0
   58.0540   32.1710   44.0310 C   0  0  0  0  0  0  0  0  0  0  0  0
   58.1750   33.5540   44.1150 C   0  0  0  0  0  0  0  0  0  0  0  0
   58.1120   34.2370   45.3100 C   0  0  0  0  0  0  0  0  0  0  0  0
   57.9200   33.4700   46.4580 C   0  0  0  0  0  0  0  0  0  0  0  0
   57.7990   32.0950   46.4000 C   0  0  0  0  0  0  0  0  0  0  0  0
   59.9490   30.8750   46.6190 H   0  0  0  0  0  0  0  0  0  0  0  0
   63.8050   31.0712   48.2962 H   0  0  0  0  0  0  0  0  0  0  0  0
   64.8279   32.9250   46.9418 H   0  0  0  0  0  0  0  0  0  0  0  0
   63.3617   34.7012   45.9958 H   0  0  0  0  0  0  0  0  0  0  0  0
   60.9130   34.6494   46.3694 H   0  0  0  0  0  0  0  0  0  0  0  0
   59.8907   32.8137   47.7087 H   0  0  0  0  0  0  0  0  0  0  0  0
   60.2859   26.4475   48.5359 H   0  0  0  0  0  0  0  0  0  0  0  0
   57.2400   27.5360   45.5690 H   0  0  0  0  0  0  0  0  0  0  0  0
   58.3262   25.1639   43.3894 H   0  0  0  0  0  0  0  0  0  0  0  0
   56.9575   23.3492   42.4612 H   0  0  0  0  0  0  0  0  0  0  0  0
   54.8351   22.6197   43.5033 H   0  0  0  0  0  0  0  0  0  0  0  0
   54.0614   23.7867   45.5953 H   0  0  0  0  0  0  0  0  0  0  0  0
   55.4263   25.6179   46.5527 H   0  0  0  0  0  0  0  0  0  0  0  0
   58.1089   31.6728   43.0518 H   0  0  0  0  0  0  0  0  0  0  0  0
   58.3274   34.1267   43.1883 H   0  0  0  0  0  0  0  0  0  0  0  0
   58.2083   35.3318   45.3558 H   0  0  0  0  0  0  0  0  0  0  0  0
   57.8634   33.9723   47.4350 H   0  0  0  0  0  0  0  0  0  0  0  0
   57.6490   31.5205   47.3260 H   0  0  0  0  0  0  0  0  0  0  0  0
  1  2  2  0
  2  3  1  0
  3  4  2  0
  4  5  1  0
  5  6  1  0
  6  7  1  0
  7  8  1  0
  8  9  2  0
  9 10  1  0
 10 11  2  0
 11 12  1  0
 12 13  2  0
  6 14  2  0
 14 15  1  0
 15 16  2  0
 16 17  1  0
 17 18  2  0
 17 19  1  0
 19 20  1  0
 20 21  2  0
 21 22  1  0
 22 23  2  0
 23 24  1  0
 24 25  2  0
  2 26  1  0
 26 27  2  0
 27 28  1  0
 28 29  2  0
 29 30  1  0
 30 31  2  0
 16  4  1  0
 25 20  1  0
 31 26  1  0
 13  8  1  0
  5 32  1  0
  9 33  1  0
 10 34  1  0
 11 35  1  0
 12 36  1  0
 13 37  1  0
 15 38  1  0
 19 39  1  0
 21 40  1  0
 22 41  1  0
 23 42  1  0
 24 43  1  0
 25 44  1  0
 27 45  1  0
 28 46  1  0
 29 47  1  0
 30 48  1  0
 31 49  1  0
M  END
>  <smiles>  (85) 
O=C(N=c1[nH]c(Oc2ccccc2)ncc1C(=O)Nc1ccccc1)c1ccccc1

>  <score_type>  (85) 
oracle

>  <origin>  (85) 
adg

>  <m_score__min__energy>  (85) 
-9.9199999999999999

>  <m_primary>  (85) 
energy

$$$$
85:0
     RDKit          3D

 46 48  0  0  0  0  0  0  0  0999 V2000
   57.4070   25.2370   43.9910 C   0  0  0  0  0  0  0  0  0  0  0  0
   57.4850   24.4760   45.0900 C   0  0  0  0  0  0  0  0  0  0  0  0
   58.6840   24.5160   45.9980 C   0  0  0  0  0  0  0  0  0  0  0  0
   59.3560   25.8020   45.8770 N   0  0  0  0  0  0  0  0  0  0  0  0
   59.2670   26.8390   46.8650 C   0  0  0  0  0  0  0  0  0  0  0  0
   60.3090   27.3290   47.3740 O   0  0  0  0  0  0  0  0  0  0  0  0
   57.9250   27.2870   47.3460 C   0  0  0  0  0  0  0  0  0  0  0  0
   57.3820   28.3020   46.4380 N   0  0  0  0  0  0  0  0  0  0  0  0
   56.3240   28.1290   45.6200 C   0  0  0  0  0  0  0  0  0  0  0  0
   55.5100   27.0010   45.6220 O   0  0  0  0  0  0  0  0  0  0  0  0
   56.1860   29.2050   44.7730 C   0  0  0  0  0  0  0  0  0  0  0  0
   55.2080   29.3700   43.7950 O   0  0  0  0  0  0  0  0  0  0  0  0
   57.2050   30.0900   45.0700 C   0  0  0  0  0  0  0  0  0  0  0  0
   57.4670   31.3730   44.3800 C   0  0  0  0  0  0  0  0  0  0  0  0
   57.1950   31.4740   43.1530 O   0  0  0  0  0  0  0  0  0  0  0  0
   58.0370   32.5400   45.0890 C   0  0  0  0  0  0  0  0  0  0  0  0
   57.7290   32.7630   46.4420 C   0  0  0  0  0  0  0  0  0  0  0  0
   58.2370   33.8830   47.1070 C   0  0  0  0  0  0  0  0  0  0  0  0
   59.0670   34.7830   46.4310 C   0  0  0  0  0  0  0  0  0  0  0  0
   59.5640   35.9010   47.0920 O   0  0  0  0  0  0  0  0  0  0  0  0
   59.3970   34.5570   45.0910 C   0  0  0  0  0  0  0  0  0  0  0  0
   58.8920   33.4370   44.4240 C   0  0  0  0  0  0  0  0  0  0  0  0
   57.9410   29.4950   46.0990 C   0  0  0  0  0  0  0  0  0  0  0  0
   59.2110   30.0070   46.6530 C   0  0  0  0  0  0  0  0  0  0  0  0
   60.3930   29.9370   45.9010 C   0  0  0  0  0  0  0  0  0  0  0  0
   61.6000   30.3920   46.4410 C   0  0  0  0  0  0  0  0  0  0  0  0
   61.6330   30.9180   47.7360 C   0  0  0  0  0  0  0  0  0  0  0  0
   62.8340   31.3690   48.2720 O   0  0  0  0  0  0  0  0  0  0  0  0
   60.4590   30.9870   48.4930 C   0  0  0  0  0  0  0  0  0  0  0  0
   59.2520   30.5330   47.9550 C   0  0  0  0  0  0  0  0  0  0  0  0
   56.5163   25.1844   43.3477 H   0  0  0  0  0  0  0  0  0  0  0  0
   58.2336   25.9148   43.7315 H   0  0  0  0  0  0  0  0  0  0  0  0
   56.6499   23.8034   45.3356 H   0  0  0  0  0  0  0  0  0  0  0  0
   58.3582   24.3715   47.0386 H   0  0  0  0  0  0  0  0  0  0  0  0
   59.3815   23.7151   45.7115 H   0  0  0  0  0  0  0  0  0  0  0  0
   57.2429   26.4247   47.3787 H   0  0  0  0  0  0  0  0  0  0  0  0
   58.0271   27.7192   48.3524 H   0  0  0  0  0  0  0  0  0  0  0  0
   55.4410   29.7510   42.8850 H   0  0  0  0  0  0  0  0  0  0  0  0
   57.0848   32.0525   46.9807 H   0  0  0  0  0  0  0  0  0  0  0  0
   57.9835   34.0565   48.1632 H   0  0  0  0  0  0  0  0  0  0  0  0
   60.0549   35.2615   44.5610 H   0  0  0  0  0  0  0  0  0  0  0  0
   59.1647   33.2564   43.3738 H   0  0  0  0  0  0  0  0  0  0  0  0
   60.3704   29.5225   44.8823 H   0  0  0  0  0  0  0  0  0  0  0  0
   62.5239   30.3361   45.8467 H   0  0  0  0  0  0  0  0  0  0  0  0
   60.4859   31.3989   49.5126 H   0  0  0  0  0  0  0  0  0  0  0  0
   58.3305   30.5877   48.5532 H   0  0  0  0  0  0  0  0  0  0  0  0
  1  2  2  0
  2  3  1  0
  3  4  1  0
  4  5  1  0
  5  6  2  0
  5  7  1  0
  7  8  1  0
  8  9  1  0
  9 10  1  0
  9 11  2  0
 11 12  1  0
 11 13  1  0
 13 14  1  0
 14 15  2  0
 14 16  1  0
 16 17  2  0
 17 18  1  0
 18 19  2  0
 19 20  1  0
 19 21  1  0
 21 22  2  0
 13 23  2  0
 23 24  1  0
 24 25  2  0
 25 26  1  0
 26 27  2  0
 27 28  1  0
 27 29  1  0
 29 30  2  0
 23  8  1  0
 30 24  1  0
 22 16  1  0
  1 31  1  0
  1 32  1  0
  2 33  1  0
  3 34  1  0
  3 35  1  0
  7 36  1  0
  7 37  1  0
 12 38  1  0
 17 39  1  0
 18 40  1  0
 21 41  1  0
 22 42  1  0
 25 43  1  0
 26 44  1  0
 29 45  1  0
 30 46  1  0
M  CHG  4   4  -1  10  -1  20  -1  28  -1
M  END
>  <UniqueID>  (86) 
80

>  <SMILES>  (86) 
C=CC[N-]C(=O)Cn1c([O-])c(O)c(C(=O)c2ccc([O-])cc2)c1-c1ccc([O-])cc1

>  <Energy>  (86) 
80.32628727961033

>  <Genealogy>  (86) 
C=CC[N-]C(=O)Cn1c([O-])c(O)c(C(=O)c2ccc([O-])cc2)c1-c1ccc([O-])cc1 (protonated)
C=CC[N-]C(=O)Cn1c([O-])c(O)c(C(=O)c2ccc([O-])cc2)c1-c1ccc([O-])cc1 (3D coordinates assigned)
C=CC[N-]C(=O)Cn1c([O-])c(O)c(C(=O)c2ccc([O-])cc2)c1-c1ccc([O-])cc1 (optimized conformer: 80.32628727961033 kcal/mol)

>  <smiles>  (86) 
C=CCNC(=O)Cn1c(O)c(O)c(C(=O)c2ccc(O)cc2)c1-c1ccc(O)cc1

>  <score_type>  (86) 
oracle

>  <origin>  (86) 
adg

>  <m_score__min__energy>  (86) 
-11.56

>  <m_primary>  (86) 
energy

$$$$
86:0
     RDKit          3D

 56 60  0  0  0  0  0  0  0  0999 V2000
   55.8490   27.4650   45.6320 O   0  0  0  0  0  0  0  0  0  0  0  0
   56.9830   27.3900   46.1820 C   0  0  0  0  0  0  0  0  0  0  0  0
   57.4120   26.1660   46.7930 N   0  0  0  0  0  0  0  0  0  0  0  0
   57.8570   24.9940   46.0430 C   0  0  0  0  0  0  0  0  0  0  0  0
   56.8540   24.6220   44.9290 C   0  0  0  0  0  0  0  0  0  0  0  0
   57.2520   23.4940   43.9780 C   0  0  0  0  0  0  0  0  0  0  0  0
   57.3300   24.9390   43.5090 C   0  0  0  0  0  0  0  0  0  0  0  0
   57.8960   28.5950   46.1930 C   0  0  1  0  0  0  0  0  0  0  0  0
   59.0930   28.3130   47.1380 C   0  0  0  0  0  0  0  0  0  0  0  0
   60.2450   29.2120   46.8990 N   0  0  0  0  0  0  0  0  0  0  0  0
   60.0270   30.5890   47.3970 C   0  0  0  0  0  0  0  0  0  0  0  0
   61.2570   31.0920   48.1030 C   0  0  0  0  0  0  0  0  0  0  0  0
   61.4670   30.8250   49.4580 C   0  0  0  0  0  0  0  0  0  0  0  0
   62.6330   31.2610   50.0950 C   0  0  0  0  0  0  0  0  0  0  0  0
   63.6180   31.9660   49.3850 C   0  0  0  0  0  0  0  0  0  0  0  0
   64.8410   32.4030   50.0150 N   0  0  0  0  0  0  0  0  0  0  0  0
   65.1000   33.6100   50.5640 C   0  0  0  0  0  0  0  0  0  0  0  0
   66.3780   33.5940   51.0780 C   0  0  0  0  0  0  0  0  0  0  0  0
   66.8510   32.3290   50.8030 C   0  0  0  0  0  0  0  0  0  0  0  0
   65.9040   31.6250   50.1590 N   0  0  0  0  0  0  0  0  0  0  0  0
   63.3950   32.2350   48.0270 C   0  0  0  0  0  0  0  0  0  0  0  0
   62.2280   31.8030   47.3940 C   0  0  0  0  0  0  0  0  0  0  0  0
   60.7670   29.1580   45.5070 C   0  0  0  0  0  0  0  0  0  0  0  0
   59.7820   28.5470   44.4900 C   0  0  0  0  0  0  0  0  0  0  0  0
   58.3460   29.0210   44.7520 C   0  0  0  0  0  0  0  0  0  0  0  0
   58.3230   30.4310   44.6470 O   0  0  0  0  0  0  0  0  0  0  0  0
   57.1710   30.7490   43.9280 C   0  0  0  0  0  0  0  0  0  0  0  0
   56.6430   29.4670   43.3550 C   0  0  0  0  0  0  0  0  0  0  0  0
   57.5060   28.4480   43.7670 O   0  0  0  0  0  0  0  0  0  0  0  0
   58.8340   25.2112   45.5867 H   0  0  0  0  0  0  0  0  0  0  0  0
   57.9306   24.1456   46.7392 H   0  0  0  0  0  0  0  0  0  0  0  0
   55.9610   24.8343   45.5352 H   0  0  0  0  0  0  0  0  0  0  0  0
   58.1756   22.9243   44.1577 H   0  0  0  0  0  0  0  0  0  0  0  0
   56.7609   22.5826   43.6062 H   0  0  0  0  0  0  0  0  0  0  0  0
   58.3097   25.4135   43.3507 H   0  0  0  0  0  0  0  0  0  0  0  0
   56.9188   25.5037   42.6593 H   0  0  0  0  0  0  0  0  0  0  0  0
   57.3392   29.4609   46.5806 H   0  0  0  0  0  0  0  0  0  0  0  0
   58.7569   28.4431   48.1773 H   0  0  0  0  0  0  0  0  0  0  0  0
   59.4320   27.2853   46.9408 H   0  0  0  0  0  0  0  0  0  0  0  0
   59.8008   31.2502   46.5475 H   0  0  0  0  0  0  0  0  0  0  0  0
   59.1858   30.5833   48.1058 H   0  0  0  0  0  0  0  0  0  0  0  0
   60.7094   30.2675   50.0283 H   0  0  0  0  0  0  0  0  0  0  0  0
   62.7802   31.0493   51.1644 H   0  0  0  0  0  0  0  0  0  0  0  0
   64.4062   34.4631   50.5953 H   0  0  0  0  0  0  0  0  0  0  0  0
   66.9046   34.4104   51.5939 H   0  0  0  0  0  0  0  0  0  0  0  0
   67.8499   31.9532   51.0695 H   0  0  0  0  0  0  0  0  0  0  0  0
   64.1491   32.7935   47.4531 H   0  0  0  0  0  0  0  0  0  0  0  0
   62.0719   32.0244   46.3279 H   0  0  0  0  0  0  0  0  0  0  0  0
   61.0032   30.1834   45.1864 H   0  0  0  0  0  0  0  0  0  0  0  0
   61.6518   28.5047   45.5245 H   0  0  0  0  0  0  0  0  0  0  0  0
   60.0801   28.8502   43.4755 H   0  0  0  0  0  0  0  0  0  0  0  0
   59.8109   27.4522   44.5927 H   0  0  0  0  0  0  0  0  0  0  0  0
   56.4223   31.2012   44.5950 H   0  0  0  0  0  0  0  0  0  0  0  0
   57.3938   31.4729   43.1303 H   0  0  0  0  0  0  0  0  0  0  0  0
   55.6268   29.2759   43.7304 H   0  0  0  0  0  0  0  0  0  0  0  0
   56.5937   29.5191   42.2573 H   0  0  0  0  0  0  0  0  0  0  0  0
  1  2  2  0
  2  3  1  0
  3  4  1  0
  4  5  1  0
  5  6  1  0
  6  7  1  0
  2  8  1  0
  8  9  1  0
  9 10  1  0
 10 11  1  0
 11 12  1  0
 12 13  2  0
 13 14  1  0
 14 15  2  0
 15 16  1  0
 16 17  1  0
 17 18  2  0
 18 19  1  0
 19 20  2  0
 15 21  1  0
 21 22  2  0
 10 23  1  0
 23 24  1  0
 24 25  1  0
 25 26  1  0
 26 27  1  0
 27 28  1  0
 28 29  1  0
  7  5  1  0
 25  8  1  0
 22 12  1  0
 29 25  1  0
 20 16  1  0
  4 30  1  0
  4 31  1  0
  5 32  1  0
  6 33  1  0
  6 34  1  0
  7 35  1  0
  7 36  1  0
  8 37  1  1
  9 38  1  0
  9 39  1  0
 11 40  1  0
 11 41  1  0
 13 42  1  0
 14 43  1  0
 17 44  1  0
 18 45  1  0
 19 46  1  0
 21 47  1  0
 22 48  1  0
 23 49  1  0
 23 50  1  0
 24 51  1  0
 24 52  1  0
 27 53  1  0
 27 54  1  0
 28 55  1  0
 28 56  1  0
M  CHG  1   3  -1
M  END
>  <UniqueID>  (87) 
81

>  <SMILES>  (87) 
O=C([N-]CC1CC1)[C@H]1CN(Cc2ccc(-n3cccn3)cc2)CCC12OCCO2

>  <Energy>  (87) 
362.8456978849518

>  <Genealogy>  (87) 
O=C([N-]CC1CC1)C1CN(Cc2ccc(-n3cccn3)cc2)CCC12OCCO2 (protonated)
O=C([N-]CC1CC1)[C@H]1CN(Cc2ccc(-n3cccn3)cc2)CCC12OCCO2 (chirality)
O=C([N-]CC1CC1)[C@H]1CN(Cc2ccc(-n3cccn3)cc2)CCC12OCCO2 (3D coordinates assigned)
O=C([N-]CC1CC1)[C@H]1CN(Cc2ccc(-n3cccn3)cc2)CCC12OCCO2 (nonaromatic ring conformer: 362.8456978849518 kcal/mol)

>  <smiles>  (87) 
O=C(NCC1CC1)C1CN(Cc2ccc(-n3cccn3)cc2)CCC12OCCO2

>  <score_type>  (87) 
oracle

>  <origin>  (87) 
adg

>  <m_score__min__energy>  (87) 
-9

>  <m_primary>  (87) 
energy

$$$$
87:0
     RDKit          3D

 42 44  0  0  0  0  0  0  0  0999 V2000
   55.4490   29.2800   45.2130 N   0  0  0  0  0  0  0  0  0  0  0  0
   56.8160   29.7840   44.2840 S   0  0  0  0  0  0  0  0  0  0  0  0
   57.8960   28.7430   44.3910 O   0  0  0  0  0  0  0  0  0  0  0  0
   56.4200   29.9260   42.8420 O   0  0  0  0  0  0  0  0  0  0  0  0
   57.3930   31.3350   44.8870 C   0  0  0  0  0  0  0  0  0  0  0  0
   57.4360   32.4360   44.0250 C   0  0  0  0  0  0  0  0  0  0  0  0
   57.8790   33.6750   44.4900 C   0  0  0  0  0  0  0  0  0  0  0  0
   58.2810   33.8230   45.8190 C   0  0  0  0  0  0  0  0  0  0  0  0
   58.2440   32.7290   46.7030 C   0  0  0  0  0  0  0  0  0  0  0  0
   58.6730   32.9050   48.1130 C   0  0  0  0  0  0  0  0  0  0  0  0
   59.5270   33.8690   48.6140 C   0  0  0  0  0  0  0  0  0  0  0  0
   59.6590   33.6950   49.9410 N   0  0  0  0  0  0  0  0  0  0  0  0
   58.8790   32.6290   50.2050 C   0  0  0  0  0  0  0  0  0  0  0  0
   58.6780   31.9530   51.8520 S   0  0  0  0  0  0  0  0  0  0  0  0
   56.9080   32.3800   51.9750 C   0  0  0  0  0  0  0  0  0  0  0  0
   56.0570   31.1420   52.0310 C   0  0  0  0  0  0  0  0  0  0  0  0
   56.5430   30.0510   51.6320 O   0  0  0  0  0  0  0  0  0  0  0  0
   54.6970   31.1670   52.4810 N   0  0  0  0  0  0  0  0  0  0  0  0
   53.5120   31.1740   51.6270 C   0  0  0  0  0  0  0  0  0  0  0  0
   52.2690   31.4510   52.4340 C   0  0  0  0  0  0  0  0  0  0  0  0
   52.1130   30.8760   53.7080 C   0  0  0  0  0  0  0  0  0  0  0  0
   50.9700   31.1370   54.4680 C   0  0  0  0  0  0  0  0  0  0  0  0
   49.9760   31.9820   53.9690 C   0  0  0  0  0  0  0  0  0  0  0  0
   50.1250   32.5700   52.7090 C   0  0  0  0  0  0  0  0  0  0  0  0
   51.2670   32.3130   51.9430 C   0  0  0  0  0  0  0  0  0  0  0  0
   51.4000   32.9190   50.6980 O   0  0  0  0  0  0  0  0  0  0  0  0
   58.2620   32.1160   49.1220 N   0  0  0  0  0  0  0  0  0  0  0  0
   57.7940   31.4820   46.2230 C   0  0  0  0  0  0  0  0  0  0  0  0
   54.6090   29.3890   44.6020 H   0  0  0  0  0  0  0  0  0  0  0  0
   57.1196   32.3248   42.9774 H   0  0  0  0  0  0  0  0  0  0  0  0
   57.9116   34.5373   43.8078 H   0  0  0  0  0  0  0  0  0  0  0  0
   58.6294   34.8028   46.1777 H   0  0  0  0  0  0  0  0  0  0  0  0
   60.0203   34.6537   48.0217 H   0  0  0  0  0  0  0  0  0  0  0  0
   56.7433   32.9711   52.8879 H   0  0  0  0  0  0  0  0  0  0  0  0
   56.6249   32.9595   51.0839 H   0  0  0  0  0  0  0  0  0  0  0  0
   53.6251   31.9547   50.8604 H   0  0  0  0  0  0  0  0  0  0  0  0
   53.4122   30.1849   51.1562 H   0  0  0  0  0  0  0  0  0  0  0  0
   52.8964   30.2161   54.1089 H   0  0  0  0  0  0  0  0  0  0  0  0
   50.8528   30.6766   55.4601 H   0  0  0  0  0  0  0  0  0  0  0  0
   49.0756   32.1850   54.5674 H   0  0  0  0  0  0  0  0  0  0  0  0
   49.3418   33.2367   52.3190 H   0  0  0  0  0  0  0  0  0  0  0  0
   57.7571   30.6173   46.9019 H   0  0  0  0  0  0  0  0  0  0  0  0
  1  2  1  0
  2  3  2  0
  2  4  2  0
  2  5  1  0
  5  6  2  0
  6  7  1  0
  7  8  2  0
  8  9  1  0
  9 10  1  0
 10 11  2  0
 11 12  1  0
 12 13  2  0
 13 14  1  0
 14 15  1  0
 15 16  1  0
 16 17  2  0
 16 18  1  0
 18 19  1  0
 19 20  1  0
 20 21  2  0
 21 22  1  0
 22 23  2  0
 23 24  1  0
 24 25  2  0
 25 26  1  0
 13 27  1  0
  9 28  2  0
 28  5  1  0
 27 10  1  0
 25 20  1  0
  1 29  1  0
  6 30  1  0
  7 31  1  0
  8 32  1  0
 11 33  1  0
 15 34  1  0
 15 35  1  0
 19 36  1  0
 19 37  1  0
 21 38  1  0
 22 39  1  0
 23 40  1  0
 24 41  1  0
 28 42  1  0
M  CHG  4   1  -1  18  -1  26  -1  27  -1
M  END
>  <UniqueID>  (88) 
82

>  <SMILES>  (88) 
[NH-]S(=O)(=O)c1cccc(-c2cnc(SCC(=O)[N-]Cc3ccccc3[O-])[n-]2)c1

>  <Energy>  (88) 
68.00285763082748

>  <Genealogy>  (88) 
[NH-]S(=O)(=O)c1cccc(-c2cnc(SCC(=O)[N-]Cc3ccccc3[O-])[n-]2)c1 (protonated)
[NH-]S(=O)(=O)c1cccc(-c2cnc(SCC(=O)[N-]Cc3ccccc3[O-])[n-]2)c1 (3D coordinates assigned)
[NH-]S(=O)(=O)c1cccc(-c2cnc(SCC(=O)[N-]Cc3ccccc3[O-])[n-]2)c1 (optimized conformer: 68.00285763082748 kcal/mol)

>  <smiles>  (88) 
NS(=O)(=O)c1cccc(-c2cnc(SCC(=O)NCc3ccccc3O)[nH]2)c1

>  <score_type>  (88) 
oracle

>  <origin>  (88) 
adg

>  <m_score__min__energy>  (88) 
-18.239999999999998

>  <m_primary>  (88) 
energy

$$$$
88:0
     RDKit          3D

 50 53  0  0  0  0  0  0  0  0999 V2000
   59.9120   28.0240   46.1610 C   0  0  0  0  0  0  0  0  0  0  0  0
   58.9320   28.5860   45.4330 C   0  0  0  0  0  0  0  0  0  0  0  0
   57.8510   27.9170   44.8360 C   0  0  0  0  0  0  0  0  0  0  0  0
   57.6210   26.6040   44.6360 C   0  0  0  0  0  0  0  0  0  0  0  0
   57.0910   25.6640   45.6380 C   0  0  0  0  0  0  0  0  0  0  0  0
   57.7020   24.5270   46.0230 N   0  0  0  0  0  0  0  0  0  0  0  0
   56.7910   23.9430   46.8320 C   0  0  0  0  0  0  0  0  0  0  0  0
   57.0040   22.8470   47.4110 O   0  0  0  0  0  0  0  0  0  0  0  0
   55.6310   24.6230   46.9630 N   0  0  0  0  0  0  0  0  0  0  0  0
   55.8340   25.7000   46.1890 C   0  0  0  0  0  0  0  0  0  0  0  0
   54.8860   26.6960   45.9860 O   0  0  0  0  0  0  0  0  0  0  0  0
   56.9700   28.8980   44.4180 C   0  0  0  0  0  0  0  0  0  0  0  0
   57.5640   30.1120   44.6900 C   0  0  0  0  0  0  0  0  0  0  0  0
   56.9280   31.4400   44.4090 C   0  0  0  0  0  0  0  0  0  0  0  0
   58.7590   29.9330   45.3030 N   0  0  0  0  0  0  0  0  0  0  0  0
   59.6300   31.0160   45.7880 C   0  0  0  0  0  0  0  0  0  0  0  0
   59.4070   31.2690   47.2580 C   0  0  0  0  0  0  0  0  0  0  0  0
   58.9620   32.5240   47.7040 C   0  0  0  0  0  0  0  0  0  0  0  0
   58.7630   32.7590   49.0670 C   0  0  0  0  0  0  0  0  0  0  0  0
   59.0000   31.7410   50.0040 C   0  0  0  0  0  0  0  0  0  0  0  0
   58.8090   31.9830   51.4080 N   0  0  0  0  0  0  0  0  0  0  0  0
   59.3360   33.2360   51.9690 C   0  0  0  0  0  0  0  0  0  0  0  0
   59.4640   33.1720   53.4920 C   0  0  0  0  0  0  0  0  0  0  0  0
   58.1430   32.7210   54.1130 C   0  0  0  0  0  0  0  0  0  0  0  0
   57.7960   31.3020   53.6650 C   0  0  0  0  0  0  0  0  0  0  0  0
   57.9250   31.1370   52.1770 C   0  0  0  0  0  0  0  0  0  0  0  0
   57.3200   30.1800   51.6210 O   0  0  0  0  0  0  0  0  0  0  0  0
   59.4440   30.4880   49.5600 C   0  0  0  0  0  0  0  0  0  0  0  0
   59.6420   30.2520   48.1970 C   0  0  0  0  0  0  0  0  0  0  0  0
   60.7124   28.6501   46.5822 H   0  0  0  0  0  0  0  0  0  0  0  0
   59.9137   26.9380   46.3357 H   0  0  0  0  0  0  0  0  0  0  0  0
   57.8488   26.1999   43.6386 H   0  0  0  0  0  0  0  0  0  0  0  0
   55.9840   28.7398   43.9568 H   0  0  0  0  0  0  0  0  0  0  0  0
   56.6885   31.9402   45.3590 H   0  0  0  0  0  0  0  0  0  0  0  0
   57.6245   32.0651   43.8309 H   0  0  0  0  0  0  0  0  0  0  0  0
   56.0044   31.2892   43.8309 H   0  0  0  0  0  0  0  0  0  0  0  0
   60.6806   30.7327   45.6267 H   0  0  0  0  0  0  0  0  0  0  0  0
   59.3901   31.9349   45.2330 H   0  0  0  0  0  0  0  0  0  0  0  0
   58.7691   33.3263   46.9766 H   0  0  0  0  0  0  0  0  0  0  0  0
   58.4189   33.7468   49.4074 H   0  0  0  0  0  0  0  0  0  0  0  0
   60.3290   33.4288   51.5368 H   0  0  0  0  0  0  0  0  0  0  0  0
   58.6309   34.0429   51.7206 H   0  0  0  0  0  0  0  0  0  0  0  0
   60.2550   32.4564   53.7606 H   0  0  0  0  0  0  0  0  0  0  0  0
   59.7176   34.1720   53.8736 H   0  0  0  0  0  0  0  0  0  0  0  0
   58.2327   32.7425   55.2091 H   0  0  0  0  0  0  0  0  0  0  0  0
   57.3449   33.4025   53.7836 H   0  0  0  0  0  0  0  0  0  0  0  0
   58.4775   30.5956   54.1616 H   0  0  0  0  0  0  0  0  0  0  0  0
   56.7497   31.1037   53.9406 H   0  0  0  0  0  0  0  0  0  0  0  0
   59.6376   29.6864   50.2880 H   0  0  0  0  0  0  0  0  0  0  0  0
   59.9841   29.2632   47.8576 H   0  0  0  0  0  0  0  0  0  0  0  0
  1  2  2  0
  2  3  1  0
  3  4  2  3
  4  5  1  0
  5  6  1  0
  6  7  1  0
  7  8  2  0
  7  9  1  0
  9 10  1  0
 10 11  1  0
  3 12  1  0
 12 13  2  0
 13 14  1  0
 13 15  1  0
 15 16  1  0
 16 17  1  0
 17 18  2  0
 18 19  1  0
 19 20  2  0
 20 21  1  0
 21 22  1  0
 22 23  1  0
 23 24  1  0
 24 25  1  0
 25 26  1  0
 26 27  2  0
 20 28  1  0
 28 29  2  0
 15  2  1  0
 29 17  1  0
 10  5  2  0
 26 21  1  0
  1 30  1  0
  1 31  1  0
  4 32  1  0
 12 33  1  0
 14 34  1  0
 14 35  1  0
 14 36  1  0
 16 37  1  0
 16 38  1  0
 18 39  1  0
 19 40  1  0
 22 41  1  0
 22 42  1  0
 23 43  1  0
 23 44  1  0
 24 45  1  0
 24 46  1  0
 25 47  1  0
 25 48  1  0
 28 49  1  0
 29 50  1  0
M  CHG  3   6  -1   9  -1  11  -1
M  END
>  <UniqueID>  (89) 
83

>  <SMILES>  (89) 
C=c1c(=Cc2[n-]c(=O)[n-]c2[O-])cc(C)n1Cc1ccc(N2CCCCC2=O)cc1

>  <Energy>  (89) 
125.02839034948482

>  <Genealogy>  (89) 
C=c1c(=Cc2[n-]c(=O)[n-]c2[O-])cc(C)n1Cc1ccc(N2CCCCC2=O)cc1 (protonated)
C=c1c(=Cc2[n-]c(=O)[n-]c2[O-])cc(C)n1Cc1ccc(N2CCCCC2=O)cc1 (3D coordinates assigned)
C=c1c(=Cc2[n-]c(=O)[n-]c2[O-])cc(C)n1Cc1ccc(N2CCCCC2=O)cc1 (nonaromatic ring conformer: 125.02839034948482 kcal/mol)

>  <smiles>  (89) 
C=c1c(=Cc2[nH]c(=O)[nH]c2O)cc(C)n1Cc1ccc(N2CCCCC2=O)cc1

>  <score_type>  (89) 
oracle

>  <origin>  (89) 
adg

>  <m_score__min__energy>  (89) 
-17.219999999999999

>  <m_primary>  (89) 
energy

$$$$
