0:0
     RDKit          3D

 35 35  0  0  0  0  0  0  0  0999 V2000
   56.5590   22.6760   43.1110 C   0  0  0  0  0  0  0  0  0  0  0  0
   56.0330   23.7030   44.1130 C   0  0  0  0  0  0  0  0  0  0  0  0
   54.5000   23.7310   44.1810 C   0  0  0  0  0  0  0  0  0  0  0  0
   53.9790   24.3100   45.5030 C   0  0  0  0  0  0  0  0  0  0  0  0
   54.3580   25.7130   45.6300 N   0  0  0  0  0  0  0  0  0  0  0  0
   55.6300   26.1910   46.0840 C   0  0  0  0  0  0  0  0  0  0  0  0
   56.2740   25.4990   46.9150 O   0  0  0  0  0  0  0  0  0  0  0  0
   56.1760   27.4310   45.6020 N   0  0  0  0  0  0  0  0  0  0  0  0
   57.4400   27.9870   46.1000 C   0  0  0  0  0  0  0  0  0  0  0  0
   57.5060   29.5000   45.7770 C   0  0  0  0  0  0  0  0  0  0  0  0
   58.9540   29.9870   45.6690 C   0  0  0  0  0  0  0  0  0  0  0  0
   59.7080   29.2730   44.5290 C   0  0  0  0  0  0  0  0  0  0  0  0
   59.1910   27.8470   44.2490 C   0  0  0  0  0  0  0  0  0  0  0  0
   58.6320   27.1900   45.5160 C   0  0  0  0  0  0  0  0  0  0  0  0
   56.9952   21.8244   43.6536 H   0  0  0  0  0  0  0  0  0  0  0  0
   55.7308   22.3228   42.4791 H   0  0  0  0  0  0  0  0  0  0  0  0
   57.3296   23.1416   42.4791 H   0  0  0  0  0  0  0  0  0  0  0  0
   56.4253   23.4549   45.1103 H   0  0  0  0  0  0  0  0  0  0  0  0
   56.3695   24.6958   43.7796 H   0  0  0  0  0  0  0  0  0  0  0  0
   54.1217   24.3481   43.3527 H   0  0  0  0  0  0  0  0  0  0  0  0
   54.1441   22.6927   44.1085 H   0  0  0  0  0  0  0  0  0  0  0  0
   52.8824   24.2275   45.5273 H   0  0  0  0  0  0  0  0  0  0  0  0
   54.4200   23.7451   46.3375 H   0  0  0  0  0  0  0  0  0  0  0  0
   55.7430   27.8880   44.7700 H   0  0  0  0  0  0  0  0  0  0  0  0
   57.4974   27.8882   47.1940 H   0  0  0  0  0  0  0  0  0  0  0  0
   56.9944   29.6842   44.8208 H   0  0  0  0  0  0  0  0  0  0  0  0
   57.0165   30.0496   46.5945 H   0  0  0  0  0  0  0  0  0  0  0  0
   58.9532   31.0695   45.4737 H   0  0  0  0  0  0  0  0  0  0  0  0
   59.4656   29.7598   46.6159 H   0  0  0  0  0  0  0  0  0  0  0  0
   59.5982   29.8697   43.6115 H   0  0  0  0  0  0  0  0  0  0  0  0
   60.7582   29.1809   44.8431 H   0  0  0  0  0  0  0  0  0  0  0  0
   58.3942   27.8984   43.4924 H   0  0  0  0  0  0  0  0  0  0  0  0
   60.0350   27.2395   43.8904 H   0  0  0  0  0  0  0  0  0  0  0  0
   58.2935   26.1728   45.2697 H   0  0  0  0  0  0  0  0  0  0  0  0
   59.4316   27.1691   46.2711 H   0  0  0  0  0  0  0  0  0  0  0  0
  1  2  1  0
  2  3  1  0
  3  4  1  0
  4  5  1  0
  5  6  1  0
  6  7  2  0
  6  8  1  0
  8  9  1  0
  9 10  1  0
 10 11  1  0
 11 12  1  0
 12 13  1  0
 13 14  1  0
 14  9  1  0
  1 15  1  0
  1 16  1  0
  1 17  1  0
  2 18  1  0
  2 19  1  0
  3 20  1  0
  3 21  1  0
  4 22  1  0
  4 23  1  0
  8 24  1  0
  9 25  1  0
 10 26  1  0
 10 27  1  0
 11 28  1  0
 11 29  1  0
 12 30  1  0
 12 31  1  0
 13 32  1  0
 13 33  1  0
 14 34  1  0
 14 35  1  0
M  CHG  1   5  -1
M  END
>  <UniqueID>  (1) 
1

>  <SMILES>  (1) 
CCCC[N-]C(=O)NC1CCCCC1

>  <Energy>  (1) 
24.253851749998358

>  <Genealogy>  (1) 
CCCC[N-]C(=O)NC1CCCCC1 (protonated)
CCCC[N-]C(=O)NC1CCCCC1 (3D coordinates assigned)
CCCC[N-]C(=O)NC1CCCCC1 (nonaromatic ring conformer: 24.253851749998358 kcal/mol)

>  <smiles>  (1) 
CCCCNC(=O)NC1CCCCC1

>  <score_type>  (1) 
oracle

>  <origin>  (1) 
adg

>  <m_score__min__energy>  (1) 
-7.4900000000000002

>  <m_primary>  (1) 
energy

$$$$
1:0
     RDKit          3D

 52 56  0  0  0  0  0  0  0  0999 V2000
   54.9110   31.2290   51.1420 H   0  0  0  0  0  0  0  0  0  0  0  0
   55.7620   30.8580   51.6220 N   0  0  0  0  0  0  0  0  0  0  0  0
   56.9090   31.4380   51.4920 C   0  0  0  0  0  0  0  0  0  0  0  0
   57.2420   32.5590   52.1650 N   0  0  0  0  0  0  0  0  0  0  0  0
   58.4990   32.9730   51.8510 C   0  0  0  0  0  0  0  0  0  0  0  0
   59.0720   34.2220   52.4440 C   0  0  0  0  0  0  0  0  0  0  0  0
   59.0410   34.1545   53.5415 H   0  0  0  0  0  0  0  0  0  0  0  0
   60.1144   34.3402   52.1132 H   0  0  0  0  0  0  0  0  0  0  0  0
   58.4817   35.0892   52.1132 H   0  0  0  0  0  0  0  0  0  0  0  0
   59.1700   32.1530   50.9380 C   0  0  0  0  0  0  0  0  0  0  0  0
   60.5200   32.3480   50.3900 C   0  0  0  0  0  0  0  0  0  0  0  0
   61.5790   31.6180   50.7900 N   0  0  0  0  0  0  0  0  0  0  0  0
   62.6470   32.1280   50.1950 N   0  0  0  0  0  0  0  0  0  0  0  0
   62.2250   33.1690   49.4550 C   0  0  0  0  0  0  0  0  0  0  0  0
   63.3480   34.2310   48.5380 S   0  0  0  0  0  0  0  0  0  0  0  0
   63.0500   33.4260   46.9270 C   0  0  0  0  0  0  0  0  0  0  0  0
   62.3231   34.0209   46.3545 H   0  0  0  0  0  0  0  0  0  0  0  0
   64.0028   33.3614   46.3811 H   0  0  0  0  0  0  0  0  0  0  0  0
   62.5100   32.0430   47.1210 C   0  0  0  0  0  0  0  0  0  0  0  0
   63.2480   31.1570   47.6300 O   0  0  0  0  0  0  0  0  0  0  0  0
   61.1420   31.7570   46.7930 N   0  0  0  0  0  0  0  0  0  0  0  0
   60.5030   32.5670   46.6260 H   0  0  0  0  0  0  0  0  0  0  0  0
   60.5690   30.4380   46.8040 C   0  0  0  0  0  0  0  0  0  0  0  0
   60.5570   29.7000   48.0150 C   0  0  0  0  0  0  0  0  0  0  0  0
   60.9989   30.1368   48.9227 H   0  0  0  0  0  0  0  0  0  0  0  0
   59.9860   28.4150   48.0680 C   0  0  0  0  0  0  0  0  0  0  0  0
   59.9847   27.8316   49.0005 H   0  0  0  0  0  0  0  0  0  0  0  0
   59.4230   27.9070   46.9010 C   0  0  0  0  0  0  0  0  0  0  0  0
   59.4130   28.6130   45.7430 C   0  0  0  0  0  0  0  0  0  0  0  0
   59.9690   29.8850   45.6470 C   0  0  0  0  0  0  0  0  0  0  0  0
   59.9431   30.4443   44.7002 H   0  0  0  0  0  0  0  0  0  0  0  0
   58.7820   27.8740   44.7610 O   0  0  0  0  0  0  0  0  0  0  0  0
   58.3770   26.6250   45.3370 C   0  0  0  0  0  0  0  0  0  0  0  0
   57.2847   26.5090   45.2786 H   0  0  0  0  0  0  0  0  0  0  0  0
   58.8149   25.7659   44.8077 H   0  0  0  0  0  0  0  0  0  0  0  0
   58.8040   26.6880   46.7040 O   0  0  0  0  0  0  0  0  0  0  0  0
   60.8850   33.3290   49.5360 N   0  0  0  0  0  0  0  0  0  0  0  0
   60.0770   34.4620   49.0650 C   0  0  0  0  0  0  0  0  0  0  0  0
   59.3154   34.6958   49.8235 H   0  0  0  0  0  0  0  0  0  0  0  0
   60.7494   35.3173   48.9029 H   0  0  0  0  0  0  0  0  0  0  0  0
   59.3870   34.1540   47.7590 C   0  0  0  0  0  0  0  0  0  0  0  0
   58.3990   33.1560   47.6870 C   0  0  0  0  0  0  0  0  0  0  0  0
   58.1328   32.5830   48.5875 H   0  0  0  0  0  0  0  0  0  0  0  0
   57.7540   32.8890   46.4770 C   0  0  0  0  0  0  0  0  0  0  0  0
   56.9858   32.1033   46.4266 H   0  0  0  0  0  0  0  0  0  0  0  0
   58.0820   33.6170   45.3310 C   0  0  0  0  0  0  0  0  0  0  0  0
   57.5751   33.4021   44.3787 H   0  0  0  0  0  0  0  0  0  0  0  0
   59.0540   34.6180   45.3950 C   0  0  0  0  0  0  0  0  0  0  0  0
   59.3103   35.1927   44.4928 H   0  0  0  0  0  0  0  0  0  0  0  0
   59.7020   34.8910   46.6040 C   0  0  0  0  0  0  0  0  0  0  0  0
   60.4612   35.6856   46.6513 H   0  0  0  0  0  0  0  0  0  0  0  0
   58.1400   30.9030   50.4790 S   0  0  0  0  0  0  0  0  0  0  0  0
  1  2  1  0
  2  3  2  0
  3  4  1  0
  4  5  1  0
  5  6  1  0
  6  7  1  0
  6  8  1  0
  6  9  1  0
  5 10  2  0
 10 11  1  0
 11 12  2  0
 12 13  1  0
 13 14  2  0
 14 15  1  0
 15 16  1  0
 16 17  1  0
 16 18  1  0
 16 19  1  0
 19 20  2  0
 19 21  1  0
 21 22  1  0
 21 23  1  0
 23 24  2  0
 24 25  1  0
 24 26  1  0
 26 27  1  0
 26 28  2  0
 28 29  1  0
 29 30  2  0
 30 31  1  0
 29 32  1  0
 32 33  1  0
 33 34  1  0
 33 35  1  0
 33 36  1  0
 14 37  1  0
 37 38  1  0
 38 39  1  0
 38 40  1  0
 38 41  1  0
 41 42  2  0
 42 43  1  0
 42 44  1  0
 44 45  1  0
 44 46  2  0
 46 47  1  0
 46 48  1  0
 48 49  1  0
 48 50  2  0
 50 51  1  0
 10 52  1  0
 52  3  1  0
 37 11  1  0
 50 41  1  0
 30 23  1  0
 36 28  1  0
M  CHG  1   4  -1
M  END
>  <UniqueID>  (2) 
2

>  <SMILES>  (2) 
[H]/N=c1/[n-]c(C)c(-c2nnc(SCC(=O)Nc3ccc4c(c3)OCO4)n2Cc2ccccc2)s1

>  <Energy>  (2) 
153.32135110320996

>  <Genealogy>  (2) 
Cc1[n-]c(=N)sc1-c1nnc(SCC(=O)Nc2ccc3c(c2)OCO3)n1Cc1ccccc1 (protonated)
[H]/N=c1/[n-]c(C)c(-c2nnc(SCC(=O)Nc3ccc4c(c3)OCO4)n2Cc2ccccc2)s1 (cis-trans isomerization)
[H]/N=c1/[n-]c(C)c(-c2nnc(SCC(=O)Nc3ccc4c(c3)OCO4)n2Cc2ccccc2)s1 (3D coordinates assigned)
[H]/N=c1/[n-]c(C)c(-c2nnc(SCC(=O)Nc3ccc4c(c3)OCO4)n2Cc2ccccc2)s1 (nonaromatic ring conformer: 153.32135110320996 kcal/mol)

>  <smiles>  (2) 
Cc1[nH]c(=N)sc1-c1nnc(SCC(=O)Nc2ccc3c(c2)OCO3)n1Cc1ccccc1

>  <score_type>  (2) 
oracle

>  <origin>  (2) 
adg

>  <m_score__min__energy>  (2) 
-10.75

>  <m_primary>  (2) 
energy

$$$$
2:0
     RDKit          3D

 43 45  0  0  0  0  0  0  0  0999 V2000
   55.1530   26.4880   45.9490 N   0  0  0  0  0  0  0  0  0  0  0  0
   56.6790   25.6860   46.0830 S   0  0  0  0  0  0  0  0  0  0  0  0
   56.6130   24.7240   47.2360 O   0  0  0  0  0  0  0  0  0  0  0  0
   56.9580   24.9150   44.8230 O   0  0  0  0  0  0  0  0  0  0  0  0
   57.9610   26.8780   46.3460 C   0  0  0  0  0  0  0  0  0  0  0  0
   58.7720   26.7550   47.4860 C   0  0  0  0  0  0  0  0  0  0  0  0
   59.7740   27.6900   47.7490 C   0  0  0  0  0  0  0  0  0  0  0  0
   59.9780   28.7560   46.8780 C   0  0  0  0  0  0  0  0  0  0  0  0
   59.1860   28.8920   45.7370 C   0  0  0  0  0  0  0  0  0  0  0  0
   58.1680   27.9600   45.4520 C   0  0  0  0  0  0  0  0  0  0  0  0
   57.3770   28.0900   44.2540 N   0  0  0  0  0  0  0  0  0  0  0  0
   56.3340   29.4410   43.9350 S   0  0  0  0  0  0  0  0  0  0  0  0
   55.8130   29.3400   42.5300 O   0  0  0  0  0  0  0  0  0  0  0  0
   55.1730   29.4000   44.8890 O   0  0  0  0  0  0  0  0  0  0  0  0
   57.2250   30.9480   44.1130 C   0  0  0  0  0  0  0  0  0  0  0  0
   57.6690   31.6370   42.9780 C   0  0  0  0  0  0  0  0  0  0  0  0
   58.3830   32.8280   43.1170 C   0  0  0  0  0  0  0  0  0  0  0  0
   58.6550   33.3410   44.3880 C   0  0  0  0  0  0  0  0  0  0  0  0
   58.2090   32.6650   45.5400 C   0  0  0  0  0  0  0  0  0  0  0  0
   58.4980   33.2080   46.8890 C   0  0  0  0  0  0  0  0  0  0  0  0
   57.6380   33.0910   47.8050 O   0  0  0  0  0  0  0  0  0  0  0  0
   59.7870   33.7830   47.1680 N   0  0  0  0  0  0  0  0  0  0  0  0
   60.9440   33.1930   47.2870 C   0  0  0  0  0  0  0  0  0  0  0  0
   61.1160   31.9380   47.9110 C   0  0  0  0  0  0  0  0  0  0  0  0
   62.3940   31.3810   48.0010 C   0  0  0  0  0  0  0  0  0  0  0  0
   63.4680   32.0490   47.5010 N   0  0  0  0  0  0  0  0  0  0  0  0
   63.3370   33.2650   46.9100 C   0  0  0  0  0  0  0  0  0  0  0  0
   62.0780   33.8590   46.8010 C   0  0  0  0  0  0  0  0  0  0  0  0
   57.4910   31.4640   45.3880 C   0  0  0  0  0  0  0  0  0  0  0  0
   55.3420   27.5140   46.0000 H   0  0  0  0  0  0  0  0  0  0  0  0
   58.6160   25.9141   48.1778 H   0  0  0  0  0  0  0  0  0  0  0  0
   60.4029   27.5843   48.6453 H   0  0  0  0  0  0  0  0  0  0  0  0
   60.7660   29.4938   47.0895 H   0  0  0  0  0  0  0  0  0  0  0  0
   59.3582   29.7358   45.0527 H   0  0  0  0  0  0  0  0  0  0  0  0
   57.3950   27.3430   43.5270 H   0  0  0  0  0  0  0  0  0  0  0  0
   57.4547   31.2390   41.9752 H   0  0  0  0  0  0  0  0  0  0  0  0
   58.7329   33.3648   42.2229 H   0  0  0  0  0  0  0  0  0  0  0  0
   59.2210   34.2787   44.4893 H   0  0  0  0  0  0  0  0  0  0  0  0
   60.2487   31.4020   48.3239 H   0  0  0  0  0  0  0  0  0  0  0  0
   62.5320   30.3993   48.4776 H   0  0  0  0  0  0  0  0  0  0  0  0
   64.2243   33.7827   46.5166 H   0  0  0  0  0  0  0  0  0  0  0  0
   61.9759   34.8496   46.3338 H   0  0  0  0  0  0  0  0  0  0  0  0
   57.1354   30.9254   46.2788 H   0  0  0  0  0  0  0  0  0  0  0  0
  1  2  1  0
  2  3  2  0
  2  4  2  0
  2  5  1  0
  5  6  2  0
  6  7  1  0
  7  8  2  0
  8  9  1  0
  9 10  2  0
 10 11  1  0
 11 12  1  0
 12 13  2  0
 12 14  2  0
 12 15  1  0
 15 16  2  0
 16 17  1  0
 17 18  2  0
 18 19  1  0
 19 20  1  0
 20 21  2  0
 20 22  1  0
 22 23  2  3
 23 24  1  0
 24 25  2  0
 25 26  1  0
 26 27  1  0
 27 28  2  0
 19 29  2  0
 10  5  1  0
 29 15  1  0
 28 23  1  0
  1 30  1  0
  6 31  1  0
  7 32  1  0
  8 33  1  0
  9 34  1  0
 11 35  1  0
 16 36  1  0
 17 37  1  0
 18 38  1  0
 24 39  1  0
 25 40  1  0
 27 41  1  0
 28 42  1  0
 29 43  1  0
M  CHG  2   1  -1  26  -1
M  END
>  <UniqueID>  (3) 
3

>  <SMILES>  (3) 
[NH-]S(=O)(=O)c1ccccc1NS(=O)(=O)c1cccc(C(=O)N=c2cc[n-]cc2)c1

>  <Energy>  (3) 
60.335525886357075

>  <Genealogy>  (3) 
[NH-]S(=O)(=O)c1ccccc1NS(=O)(=O)c1cccc(C(=O)N=c2cc[n-]cc2)c1 (protonated)
[NH-]S(=O)(=O)c1ccccc1NS(=O)(=O)c1cccc(C(=O)N=c2cc[n-]cc2)c1 (3D coordinates assigned)
[NH-]S(=O)(=O)c1ccccc1NS(=O)(=O)c1cccc(C(=O)N=c2cc[n-]cc2)c1 (optimized conformer: 60.335525886357075 kcal/mol)

>  <smiles>  (3) 
NS(=O)(=O)c1ccccc1NS(=O)(=O)c1cccc(C(=O)N=c2cc[nH]cc2)c1

>  <score_type>  (3) 
oracle

>  <origin>  (3) 
adg

>  <m_score__min__energy>  (3) 
-13.6

>  <m_primary>  (3) 
energy

$$$$
3:0
     RDKit          3D

 34 35  0  0  0  0  0  0  0  0999 V2000
   57.0190   32.6160   40.3620 C   0  0  0  0  0  0  0  0  0  0  0  0
   58.1870   32.7080   41.3390 C   0  0  0  0  0  0  0  0  0  0  0  0
   57.9260   31.8720   42.5630 C   0  0  0  0  0  0  0  0  0  0  0  0
   58.4900   32.2280   43.7970 C   0  0  0  0  0  0  0  0  0  0  0  0
   58.2220   31.4710   44.9410 C   0  0  0  0  0  0  0  0  0  0  0  0
   57.3850   30.3430   44.8640 C   0  0  0  0  0  0  0  0  0  0  0  0
   57.0790   29.5680   45.9910 O   0  0  0  0  0  0  0  0  0  0  0  0
   57.9820   28.7460   46.6860 C   0  0  0  0  0  0  0  0  0  0  0  0
   58.9250   29.2900   47.5770 C   0  0  0  0  0  0  0  0  0  0  0  0
   59.8360   28.4610   48.2360 C   0  0  0  0  0  0  0  0  0  0  0  0
   59.8280   27.0860   47.9990 C   0  0  0  0  0  0  0  0  0  0  0  0
   58.9100   26.5350   47.1030 C   0  0  0  0  0  0  0  0  0  0  0  0
   57.9780   27.3560   46.4440 C   0  0  0  0  0  0  0  0  0  0  0  0
   57.0160   26.7450   45.4580 C   0  0  0  0  0  0  0  0  0  0  0  0
   55.9030   26.0590   46.1820 C   0  0  0  0  0  0  0  0  0  0  0  0
   54.7040   26.3220   45.8950 O   0  0  0  0  0  0  0  0  0  0  0  0
   56.1850   25.1620   47.2040 O   0  0  0  0  0  0  0  0  0  0  0  0
   56.7980   30.0090   43.6390 C   0  0  0  0  0  0  0  0  0  0  0  0
   57.0650   30.7650   42.4950 C   0  0  0  0  0  0  0  0  0  0  0  0
   56.0761   32.5417   40.9237 H   0  0  0  0  0  0  0  0  0  0  0  0
   56.9988   33.5153   39.7289 H   0  0  0  0  0  0  0  0  0  0  0  0
   57.1399   31.7246   39.7289 H   0  0  0  0  0  0  0  0  0  0  0  0
   59.1007   32.3474   40.8439 H   0  0  0  0  0  0  0  0  0  0  0  0
   58.3075   33.7570   41.6472 H   0  0  0  0  0  0  0  0  0  0  0  0
   59.1468   33.1078   43.8647 H   0  0  0  0  0  0  0  0  0  0  0  0
   58.6672   31.7583   45.9050 H   0  0  0  0  0  0  0  0  0  0  0  0
   58.9451   30.3752   47.7559 H   0  0  0  0  0  0  0  0  0  0  0  0
   60.5603   28.8926   48.9424 H   0  0  0  0  0  0  0  0  0  0  0  0
   60.5462   26.4350   48.5190 H   0  0  0  0  0  0  0  0  0  0  0  0
   58.9159   25.4518   46.9114 H   0  0  0  0  0  0  0  0  0  0  0  0
   56.5997   27.5368   44.8178 H   0  0  0  0  0  0  0  0  0  0  0  0
   57.5523   26.0080   44.8421 H   0  0  0  0  0  0  0  0  0  0  0  0
   56.1209   29.1444   43.5760 H   0  0  0  0  0  0  0  0  0  0  0  0
   56.5987   30.4919   41.5369 H   0  0  0  0  0  0  0  0  0  0  0  0
  1  2  1  0
  2  3  1  0
  3  4  2  0
  4  5  1  0
  5  6  2  0
  6  7  1  0
  7  8  1  0
  8  9  2  0
  9 10  1  0
 10 11  2  0
 11 12  1  0
 12 13  2  0
 13 14  1  0
 14 15  1  0
 15 16  2  0
 15 17  1  0
  6 18  1  0
 18 19  2  0
 19  3  1  0
 13  8  1  0
  1 20  1  0
  1 21  1  0
  1 22  1  0
  2 23  1  0
  2 24  1  0
  4 25  1  0
  5 26  1  0
  9 27  1  0
 10 28  1  0
 11 29  1  0
 12 30  1  0
 14 31  1  0
 14 32  1  0
 18 33  1  0
 19 34  1  0
M  CHG  1  17  -1
M  END
>  <UniqueID>  (4) 
4

>  <SMILES>  (4) 
CCc1ccc(Oc2ccccc2CC(=O)[O-])cc1

>  <Energy>  (4) 
36.045169396716126

>  <Genealogy>  (4) 
CCc1ccc(Oc2ccccc2CC(=O)[O-])cc1 (protonated)
CCc1ccc(Oc2ccccc2CC(=O)[O-])cc1 (3D coordinates assigned)
CCc1ccc(Oc2ccccc2CC(=O)[O-])cc1 (optimized conformer: 36.045169396716126 kcal/mol)

>  <smiles>  (4) 
CCc1ccc(Oc2ccccc2CC(=O)O)cc1

>  <score_type>  (4) 
oracle

>  <origin>  (4) 
adg

>  <m_score__min__energy>  (4) 
-9.7599999999999998

>  <m_primary>  (4) 
energy

$$$$
4:0
     RDKit          3D

 46 48  0  0  0  0  0  0  0  0999 V2000
   57.4100   31.6720   43.2950 C   0  0  0  0  0  0  0  0  0  0  0  0
   56.6560   30.2640   44.0770 S   0  0  0  0  0  0  0  0  0  0  0  0
   56.9670   29.0290   43.2790 O   0  0  0  0  0  0  0  0  0  0  0  0
   55.1680   30.4690   44.1340 O   0  0  0  0  0  0  0  0  0  0  0  0
   57.2840   30.1090   45.6600 O   0  0  0  0  0  0  0  0  0  0  0  0
   58.5470   30.5570   46.0720 C   0  0  0  0  0  0  0  0  0  0  0  0
   58.8570   31.9270   46.1840 C   0  0  0  0  0  0  0  0  0  0  0  0
   60.1190   32.3340   46.6240 C   0  0  0  0  0  0  0  0  0  0  0  0
   61.0840   31.3840   46.9590 C   0  0  0  0  0  0  0  0  0  0  0  0
   60.7920   30.0240   46.8500 C   0  0  0  0  0  0  0  0  0  0  0  0
   59.5290   29.6010   46.4040 C   0  0  0  0  0  0  0  0  0  0  0  0
   59.2580   28.1930   46.2810 N   0  0  0  0  0  0  0  0  0  0  0  0
   59.1120   27.3620   47.4840 C   0  0  0  0  0  0  0  0  0  0  0  0
   58.2870   26.1090   47.1770 C   0  0  0  0  0  0  0  0  0  0  0  0
   57.2100   26.4660   46.2440 N   0  0  0  0  0  0  0  0  0  0  0  0
   56.0420   25.1720   46.1360 S   0  0  0  0  0  0  0  0  0  0  0  0
   54.7210   25.7250   45.6750 O   0  0  0  0  0  0  0  0  0  0  0  0
   55.8430   24.5680   47.4990 O   0  0  0  0  0  0  0  0  0  0  0  0
   56.5710   23.9120   45.0180 C   0  0  0  0  0  0  0  0  0  0  0  0
   55.8480   23.6660   43.8410 C   0  0  0  0  0  0  0  0  0  0  0  0
   56.2620   22.6630   42.9600 C   0  0  0  0  0  0  0  0  0  0  0  0
   57.3990   21.9030   43.2460 C   0  0  0  0  0  0  0  0  0  0  0  0
   58.1250   22.1460   44.4150 C   0  0  0  0  0  0  0  0  0  0  0  0
   57.7140   23.1490   45.3000 C   0  0  0  0  0  0  0  0  0  0  0  0
   57.7380   26.7950   44.9030 C   0  0  0  0  0  0  0  0  0  0  0  0
   59.0600   27.5890   44.9580 C   0  0  0  0  0  0  0  0  0  0  0  0
   57.7808   32.3643   44.0652 H   0  0  0  0  0  0  0  0  0  0  0  0
   58.2496   31.3373   42.6680 H   0  0  0  0  0  0  0  0  0  0  0  0
   56.6661   32.1853   42.6680 H   0  0  0  0  0  0  0  0  0  0  0  0
   58.1001   32.6813   45.9232 H   0  0  0  0  0  0  0  0  0  0  0  0
   60.3522   33.4058   46.7064 H   0  0  0  0  0  0  0  0  0  0  0  0
   62.0754   31.7072   47.3092 H   0  0  0  0  0  0  0  0  0  0  0  0
   61.5559   29.2782   47.1151 H   0  0  0  0  0  0  0  0  0  0  0  0
   60.1088   27.0606   47.8383 H   0  0  0  0  0  0  0  0  0  0  0  0
   58.5936   27.9469   48.2581 H   0  0  0  0  0  0  0  0  0  0  0  0
   58.9327   25.3443   46.7206 H   0  0  0  0  0  0  0  0  0  0  0  0
   57.8573   25.7083   48.1069 H   0  0  0  0  0  0  0  0  0  0  0  0
   54.9536   24.2637   43.6111 H   0  0  0  0  0  0  0  0  0  0  0  0
   55.6913   22.4715   42.0393 H   0  0  0  0  0  0  0  0  0  0  0  0
   57.7225   21.1138   42.5513 H   0  0  0  0  0  0  0  0  0  0  0  0
   59.0206   21.5482   44.6398 H   0  0  0  0  0  0  0  0  0  0  0  0
   58.2883   23.3396   46.2186 H   0  0  0  0  0  0  0  0  0  0  0  0
   57.9138   25.8576   44.3550 H   0  0  0  0  0  0  0  0  0  0  0  0
   56.9924   27.4285   44.4002 H   0  0  0  0  0  0  0  0  0  0  0  0
   59.8973   26.9082   44.7448 H   0  0  0  0  0  0  0  0  0  0  0  0
   59.0161   28.3936   44.2092 H   0  0  0  0  0  0  0  0  0  0  0  0
  1  2  1  0
  2  3  2  0
  2  4  2  0
  2  5  1  0
  5  6  1  0
  6  7  2  0
  7  8  1  0
  8  9  2  0
  9 10  1  0
 10 11  2  0
 11 12  1  0
 12 13  1  0
 13 14  1  0
 14 15  1  0
 15 16  1  0
 16 17  2  0
 16 18  2  0
 16 19  1  0
 19 20  2  0
 20 21  1  0
 21 22  2  0
 22 23  1  0
 23 24  2  0
 15 25  1  0
 25 26  1  0
 11  6  1  0
 26 12  1  0
 24 19  1  0
  1 27  1  0
  1 28  1  0
  1 29  1  0
  7 30  1  0
  8 31  1  0
  9 32  1  0
 10 33  1  0
 13 34  1  0
 13 35  1  0
 14 36  1  0
 14 37  1  0
 20 38  1  0
 21 39  1  0
 22 40  1  0
 23 41  1  0
 24 42  1  0
 25 43  1  0
 25 44  1  0
 26 45  1  0
 26 46  1  0
M  END
>  <UniqueID>  (5) 
5

>  <SMILES>  (5) 
CS(=O)(=O)Oc1ccccc1N1CCN(S(=O)(=O)c2ccccc2)CC1

>  <Energy>  (5) 
51.64480608152048

>  <Genealogy>  (5) 
CS(=O)(=O)Oc1ccccc1N1CCN(S(=O)(=O)c2ccccc2)CC1 (3D coordinates assigned)
CS(=O)(=O)Oc1ccccc1N1CCN(S(=O)(=O)c2ccccc2)CC1 (nonaromatic ring conformer: 51.64480608152048 kcal/mol)

>  <smiles>  (5) 
CS(=O)(=O)Oc1ccccc1N1CCN(S(=O)(=O)c2ccccc2)CC1

>  <score_type>  (5) 
oracle

>  <origin>  (5) 
adg

>  <m_score__min__energy>  (5) 
-9.1600000000000001

>  <m_primary>  (5) 
energy

$$$$
5:0
     RDKit          3D

 40 43  0  0  0  0  0  0  0  0999 V2000
   57.0230   33.8760   44.7450 O   0  0  0  0  0  0  0  0  0  0  0  0
   57.6520   32.9510   45.3260 C   0  0  0  0  0  0  0  0  0  0  0  0
   58.4850   33.2700   46.4970 C   0  0  0  0  0  0  0  0  0  0  0  0
   59.1800   32.3210   47.1460 C   0  0  0  0  0  0  0  0  0  0  0  0
   59.9720   32.6720   48.3010 N   0  0  0  0  0  0  0  0  0  0  0  0
   59.3480   32.7610   49.6000 C   0  0  0  0  0  0  0  0  0  0  0  0
   58.4070   31.7960   50.0060 C   0  0  0  0  0  0  0  0  0  0  0  0
   57.8070   31.8780   51.2670 C   0  0  0  0  0  0  0  0  0  0  0  0
   58.1410   32.9220   52.1340 C   0  0  0  0  0  0  0  0  0  0  0  0
   59.0750   33.8850   51.7430 C   0  0  0  0  0  0  0  0  0  0  0  0
   59.6780   33.8060   50.4830 C   0  0  0  0  0  0  0  0  0  0  0  0
   61.3890   32.9170   48.1510 C   0  0  0  0  0  0  0  0  0  0  0  0
   61.8800   33.5920   47.0180 C   0  0  0  0  0  0  0  0  0  0  0  0
   63.2520   33.8210   46.8730 C   0  0  0  0  0  0  0  0  0  0  0  0
   64.1440   33.3780   47.8520 C   0  0  0  0  0  0  0  0  0  0  0  0
   63.6680   32.7040   48.9790 C   0  0  0  0  0  0  0  0  0  0  0  0
   62.2970   32.4730   49.1300 C   0  0  0  0  0  0  0  0  0  0  0  0
   59.1300   30.9130   46.6740 C   0  0  0  0  0  0  0  0  0  0  0  0
   59.8250   30.0340   47.2520 O   0  0  0  0  0  0  0  0  0  0  0  0
   58.2840   30.5490   45.5140 C   0  0  0  0  0  0  0  0  0  0  0  0
   58.2000   29.2190   45.0660 C   0  0  0  0  0  0  0  0  0  0  0  0
   57.3990   28.8950   43.9670 C   0  0  0  0  0  0  0  0  0  0  0  0
   56.6800   29.8930   43.3050 C   0  0  0  0  0  0  0  0  0  0  0  0
   56.7550   31.2180   43.7410 C   0  0  0  0  0  0  0  0  0  0  0  0
   57.5570   31.5550   44.8460 C   0  0  0  0  0  0  0  0  0  0  0  0
   58.5397   34.3107   46.8492 H   0  0  0  0  0  0  0  0  0  0  0  0
   58.1417   30.9720   49.3272 H   0  0  0  0  0  0  0  0  0  0  0  0
   57.0719   31.1204   51.5763 H   0  0  0  0  0  0  0  0  0  0  0  0
   57.6682   32.9857   53.1252 H   0  0  0  0  0  0  0  0  0  0  0  0
   59.3365   34.7061   52.4266 H   0  0  0  0  0  0  0  0  0  0  0  0
   60.4144   34.5652   50.1807 H   0  0  0  0  0  0  0  0  0  0  0  0
   61.1816   33.9410   46.2431 H   0  0  0  0  0  0  0  0  0  0  0  0
   63.6293   34.3511   45.9861 H   0  0  0  0  0  0  0  0  0  0  0  0
   65.2225   33.5600   47.7355 H   0  0  0  0  0  0  0  0  0  0  0  0
   64.3721   32.3546   49.7485 H   0  0  0  0  0  0  0  0  0  0  0  0
   61.9265   31.9414   50.0189 H   0  0  0  0  0  0  0  0  0  0  0  0
   58.7668   28.4302   45.5823 H   0  0  0  0  0  0  0  0  0  0  0  0
   57.3348   27.8522   43.6229 H   0  0  0  0  0  0  0  0  0  0  0  0
   56.0534   29.6350   42.4385 H   0  0  0  0  0  0  0  0  0  0  0  0
   56.1850   32.0003   43.2184 H   0  0  0  0  0  0  0  0  0  0  0  0
  1  2  2  0
  2  3  1  0
  3  4  2  0
  4  5  1  0
  5  6  1  0
  6  7  2  0
  7  8  1  0
  8  9  2  0
  9 10  1  0
 10 11  2  0
  5 12  1  0
 12 13  2  0
 13 14  1  0
 14 15  2  0
 15 16  1  0
 16 17  2  0
  4 18  1  0
 18 19  2  0
 18 20  1  0
 20 21  2  0
 21 22  1  0
 22 23  2  0
 23 24  1  0
 24 25  2  0
 25  2  1  0
 11  6  1  0
 17 12  1  0
 25 20  1  0
  3 26  1  0
  7 27  1  0
  8 28  1  0
  9 29  1  0
 10 30  1  0
 11 31  1  0
 13 32  1  0
 14 33  1  0
 15 34  1  0
 16 35  1  0
 17 36  1  0
 21 37  1  0
 22 38  1  0
 23 39  1  0
 24 40  1  0
M  END
>  <UniqueID>  (6) 
6

>  <SMILES>  (6) 
O=C1C=C(N(c2ccccc2)c2ccccc2)C(=O)c2ccccc21

>  <Energy>  (6) 
59.12863224256011

>  <Genealogy>  (6) 
O=C1C=C(N(c2ccccc2)c2ccccc2)C(=O)c2ccccc21 (3D coordinates assigned)
O=C1C=C(N(c2ccccc2)c2ccccc2)C(=O)c2ccccc21 (nonaromatic ring conformer: 59.12863224256011 kcal/mol)

>  <smiles>  (6) 
O=C1C=C(N(c2ccccc2)c2ccccc2)C(=O)c2ccccc21

>  <score_type>  (6) 
oracle

>  <origin>  (6) 
adg

>  <m_score__min__energy>  (6) 
-8.3599999999999994

>  <m_primary>  (6) 
energy

$$$$
6:0
     RDKit          3D

 35 37  0  0  0  0  0  0  0  0999 V2000
   54.1540   26.3330   46.3870 H   0  0  0  0  0  0  0  0  0  0  0  0
   54.9330   25.8040   45.9370 N   0  0  0  0  0  0  0  0  0  0  0  0
   56.1920   26.1100   46.0510 C   0  0  0  0  0  0  0  0  0  0  0  0
   57.0340   25.4520   46.9790 C   0  0  0  0  0  0  0  0  0  0  0  0
   56.5230   24.3660   47.8930 C   0  0  0  0  0  0  0  0  0  0  0  0
   56.6663   24.6706   48.9402 H   0  0  0  0  0  0  0  0  0  0  0  0
   55.4524   24.2002   47.7026 H   0  0  0  0  0  0  0  0  0  0  0  0
   57.0777   23.4354   47.7026 H   0  0  0  0  0  0  0  0  0  0  0  0
   58.3840   25.8190   47.0410 C   0  0  0  0  0  0  0  0  0  0  0  0
   59.0559   25.3104   47.7480 H   0  0  0  0  0  0  0  0  0  0  0  0
   58.8840   26.8260   46.2120 C   0  0  0  0  0  0  0  0  0  0  0  0
   60.2370   27.1910   46.2710 C   0  0  0  0  0  0  0  0  0  0  0  0
   60.9125   26.6815   46.9739 H   0  0  0  0  0  0  0  0  0  0  0  0
   60.7280   28.1980   45.4410 C   0  0  0  0  0  0  0  0  0  0  0  0
   61.7922   28.4732   45.4831 H   0  0  0  0  0  0  0  0  0  0  0  0
   59.8740   28.8570   44.5580 C   0  0  0  0  0  0  0  0  0  0  0  0
   60.2700   29.6508   43.9075 H   0  0  0  0  0  0  0  0  0  0  0  0
   58.5160   28.5180   44.4910 C   0  0  0  0  0  0  0  0  0  0  0  0
   57.4650   29.4650   43.3760 S   0  0  0  0  0  0  0  0  0  0  0  0
   56.7630   30.4290   44.7190 C   0  0  0  0  0  0  0  0  0  0  0  0
   55.6530   30.0730   45.1980 O   0  0  0  0  0  0  0  0  0  0  0  0
   57.4430   31.6340   45.2440 C   0  0  0  0  0  0  0  0  0  0  0  0
   58.1510   31.5940   46.4600 C   0  0  0  0  0  0  0  0  0  0  0  0
   58.1894   30.6599   47.0397 H   0  0  0  0  0  0  0  0  0  0  0  0
   58.8050   32.7330   46.9350 C   0  0  0  0  0  0  0  0  0  0  0  0
   59.3624   32.6906   47.8824 H   0  0  0  0  0  0  0  0  0  0  0  0
   58.7530   33.9260   46.2100 C   0  0  0  0  0  0  0  0  0  0  0  0
   59.2722   34.8206   46.5843 H   0  0  0  0  0  0  0  0  0  0  0  0
   58.0410   33.9820   45.0090 C   0  0  0  0  0  0  0  0  0  0  0  0
   57.9958   34.9226   44.4405 H   0  0  0  0  0  0  0  0  0  0  0  0
   57.3860   32.8440   44.5290 C   0  0  0  0  0  0  0  0  0  0  0  0
   56.8223   32.8952   43.5858 H   0  0  0  0  0  0  0  0  0  0  0  0
   58.0110   27.4780   45.3100 C   0  0  0  0  0  0  0  0  0  0  0  0
   56.7030   27.0860   45.2470 N   0  0  0  0  0  0  0  0  0  0  0  0
   56.0570   27.5280   44.5560 H   0  0  0  0  0  0  0  0  0  0  0  0
  1  2  1  0
  2  3  2  0
  3  4  1  0
  4  5  1  0
  5  6  1  0
  5  7  1  0
  5  8  1  0
  4  9  2  0
  9 10  1  0
  9 11  1  0
 11 12  2  0
 12 13  1  0
 12 14  1  0
 14 15  1  0
 14 16  2  0
 16 17  1  0
 16 18  1  0
 18 19  1  0
 19 20  1  0
 20 21  2  0
 20 22  1  0
 22 23  2  0
 23 24  1  0
 23 25  1  0
 25 26  1  0
 25 27  2  0
 27 28  1  0
 27 29  1  0
 29 30  1  0
 29 31  2  0
 31 32  1  0
 18 33  2  0
 33 34  1  0
 34 35  1  0
 34  3  1  0
 33 11  1  0
 31 22  1  0
M  END
>  <UniqueID>  (7) 
7

>  <SMILES>  (7) 
[H]/N=c1/[nH]c2c(SC(=O)c3ccccc3)cccc2cc1C

>  <Energy>  (7) 
41.89284568678011

>  <Genealogy>  (7) 
[H]/N=c1/[nH]c2c(SC(=O)c3ccccc3)cccc2cc1C (cis-trans isomerization)
[H]/N=c1/[nH]c2c(SC(=O)c3ccccc3)cccc2cc1C (3D coordinates assigned)
[H]/N=c1/[nH]c2c(SC(=O)c3ccccc3)cccc2cc1C (optimized conformer: 41.89284568678011 kcal/mol)

>  <smiles>  (7) 
Cc1cc2cccc(SC(=O)c3ccccc3)c2[nH]c1=N

>  <score_type>  (7) 
oracle

>  <origin>  (7) 
adg

>  <m_score__min__energy>  (7) 
-9.2400000000000002

>  <m_primary>  (7) 
energy

$$$$
7:0
     RDKit          3D

 52 55  0  0  0  0  0  0  0  0999 V2000
   56.9555   32.2196   54.1042 H   0  0  0  0  0  0  0  0  0  0  0  0
   57.4290   32.3650   53.1220 C   0  0  0  0  0  0  0  0  0  0  0  0
   57.0070   31.6190   52.0150 C   0  0  0  0  0  0  0  0  0  0  0  0
   55.8950   30.6250   52.1510 C   0  0  0  0  0  0  0  0  0  0  0  0
   55.6930   30.4444   53.2171 H   0  0  0  0  0  0  0  0  0  0  0  0
   54.9891   31.0199   51.6679 H   0  0  0  0  0  0  0  0  0  0  0  0
   56.1862   29.6806   51.6679 H   0  0  0  0  0  0  0  0  0  0  0  0
   57.6050   31.8050   50.8050 N   0  0  0  0  0  0  0  0  0  0  0  0
   58.6180   32.7010   50.6280 C   0  0  0  0  0  0  0  0  0  0  0  0
   59.1830   32.8670   49.4650 N   0  0  0  0  0  0  0  0  0  0  0  0
   58.8490   32.2000   48.2370 C   0  0  0  0  0  0  0  0  0  0  0  0
   58.5900   30.9640   48.2320 O   0  0  0  0  0  0  0  0  0  0  0  0
   58.8420   32.9550   46.9590 C   0  0  0  0  0  0  0  0  0  0  0  0
   58.3520   32.3410   45.7910 C   0  0  0  0  0  0  0  0  0  0  0  0
   57.9554   31.3161   45.8392 H   0  0  0  0  0  0  0  0  0  0  0  0
   58.3650   33.0230   44.5690 C   0  0  0  0  0  0  0  0  0  0  0  0
   57.7610   32.2150   43.0880 S   0  0  0  0  0  0  0  0  0  0  0  0
   57.1890   30.7820   43.9900 C   0  0  0  0  0  0  0  0  0  0  0  0
   58.1830   29.6240   44.6980 S   0  0  0  0  0  0  0  0  0  0  0  0
   56.8700   28.7460   45.3040 C   0  0  0  0  0  0  0  0  0  0  0  0
   56.9330   27.6830   46.0520 N   0  0  0  0  0  0  0  0  0  0  0  0
   57.7970   26.5480   45.8780 C   0  0  0  0  0  0  0  0  0  0  0  0
   58.9710   26.5600   46.3420 O   0  0  0  0  0  0  0  0  0  0  0  0
   57.3130   25.3610   45.1330 C   0  0  0  0  0  0  0  0  0  0  0  0
   57.4370   25.2950   43.7330 C   0  0  0  0  0  0  0  0  0  0  0  0
   57.8675   26.1449   43.1831 H   0  0  0  0  0  0  0  0  0  0  0  0
   57.0180   24.1590   43.0350 C   0  0  0  0  0  0  0  0  0  0  0  0
   57.1223   24.1199   41.9407 H   0  0  0  0  0  0  0  0  0  0  0  0
   56.4640   23.0660   43.7240 C   0  0  0  0  0  0  0  0  0  0  0  0
   56.0300   21.9040   43.0670 O   0  0  0  0  0  0  0  0  0  0  0  0
   56.7710   20.6920   43.0000 C   0  0  0  0  0  0  0  0  0  0  0  0
   56.9875   20.3378   44.0187 H   0  0  0  0  0  0  0  0  0  0  0  0
   56.1830   19.9319   42.4648 H   0  0  0  0  0  0  0  0  0  0  0  0
   57.7156   20.8688   42.4648 H   0  0  0  0  0  0  0  0  0  0  0  0
   56.3320   23.1340   45.1150 C   0  0  0  0  0  0  0  0  0  0  0  0
   55.8955   22.2855   45.6623 H   0  0  0  0  0  0  0  0  0  0  0  0
   56.7490   24.2690   45.8170 C   0  0  0  0  0  0  0  0  0  0  0  0
   56.6354   24.3082   46.9104 H   0  0  0  0  0  0  0  0  0  0  0  0
   55.6960   29.3290   44.9770 N   0  0  0  0  0  0  0  0  0  0  0  0
   54.7610   28.9610   45.2630 H   0  0  0  0  0  0  0  0  0  0  0  0
   55.8620   30.4600   44.2430 C   0  0  0  0  0  0  0  0  0  0  0  0
   55.0194   31.0674   43.8809 H   0  0  0  0  0  0  0  0  0  0  0  0
   58.8440   34.3360   44.5070 C   0  0  0  0  0  0  0  0  0  0  0  0
   58.8437   34.8762   43.5488 H   0  0  0  0  0  0  0  0  0  0  0  0
   59.3220   34.9610   45.6590 C   0  0  0  0  0  0  0  0  0  0  0  0
   59.6971   35.9937   45.6066 H   0  0  0  0  0  0  0  0  0  0  0  0
   59.3260   34.2790   46.8810 C   0  0  0  0  0  0  0  0  0  0  0  0
   59.7790   34.9290   47.9820 F   0  0  0  0  0  0  0  0  0  0  0  0
   59.0560   33.4690   51.7150 C   0  0  0  0  0  0  0  0  0  0  0  0
   59.8650   34.2030   51.5852 H   0  0  0  0  0  0  0  0  0  0  0  0
   58.4570   33.2950   52.9650 C   0  0  0  0  0  0  0  0  0  0  0  0
   58.7958   33.8911   53.8252 H   0  0  0  0  0  0  0  0  0  0  0  0
  1  2  1  0
  2  3  2  0
  3  4  1  0
  4  5  1  0
  4  6  1  0
  4  7  1  0
  3  8  1  0
  8  9  1  0
  9 10  2  3
 10 11  1  0
 11 12  2  0
 11 13  1  0
 13 14  2  0
 14 15  1  0
 14 16  1  0
 16 17  1  0
 17 18  1  0
 18 19  1  0
 19 20  1  0
 20 21  2  0
 21 22  1  0
 22 23  2  0
 22 24  1  0
 24 25  2  0
 25 26  1  0
 25 27  1  0
 27 28  1  0
 27 29  2  0
 29 30  1  0
 30 31  1  0
 31 32  1  0
 31 33  1  0
 31 34  1  0
 29 35  1  0
 35 36  1  0
 35 37  2  0
 37 38  1  0
 20 39  1  0
 39 40  1  0
 39 41  1  0
 41 42  1  0
 16 43  2  0
 43 44  1  0
 43 45  1  0
 45 46  1  0
 45 47  2  0
 47 48  1  0
  9 49  1  0
 49 50  1  0
 49 51  2  0
 51 52  1  0
 51  2  1  0
 47 13  1  0
 41 18  2  0
 37 24  1  0
M  CHG  1   8  -1
M  END
>  <UniqueID>  (8) 
8

>  <SMILES>  (8) 
COc1ccc(C(=O)/N=c2/[nH]cc(Sc3ccc(F)c(C(=O)N=c4cccc(C)[n-]4)c3)s2)cc1

>  <Energy>  (8) 
91.14654399193789

>  <Genealogy>  (8) 
COc1ccc(C(=O)N=c2[nH]cc(Sc3ccc(F)c(C(=O)N=c4cccc(C)[n-]4)c3)s2)cc1 (protonated)
COc1ccc(C(=O)/N=c2/[nH]cc(Sc3ccc(F)c(C(=O)N=c4cccc(C)[n-]4)c3)s2)cc1 (cis-trans isomerization)
COc1ccc(C(=O)/N=c2/[nH]cc(Sc3ccc(F)c(C(=O)N=c4cccc(C)[n-]4)c3)s2)cc1 (3D coordinates assigned)
COc1ccc(C(=O)/N=c2/[nH]cc(Sc3ccc(F)c(C(=O)N=c4cccc(C)[n-]4)c3)s2)cc1 (optimized conformer: 91.14654399193789 kcal/mol)

>  <smiles>  (8) 
COc1ccc(C(=O)N=c2[nH]cc(Sc3ccc(F)c(C(=O)N=c4cccc(C)[nH]4)c3)s2)cc1

>  <score_type>  (8) 
oracle

>  <origin>  (8) 
adg

>  <m_score__min__energy>  (8) 
-10.94

>  <m_primary>  (8) 
energy

$$$$
8:0
     RDKit          3D

 40 42  0  0  0  0  0  0  0  0999 V2000
   63.2100   33.4660   48.5400 C   0  0  0  0  0  0  0  0  0  0  0  0
   61.9850   34.1920   48.5210 O   0  0  0  0  0  0  0  0  0  0  0  0
   60.8760   33.8510   47.7340 C   0  0  0  0  0  0  0  0  0  0  0  0
   60.8690   34.2410   46.3890 C   0  0  0  0  0  0  0  0  0  0  0  0
   59.7870   33.9250   45.5640 C   0  0  0  0  0  0  0  0  0  0  0  0
   58.6910   33.2120   46.0740 C   0  0  0  0  0  0  0  0  0  0  0  0
   57.5390   32.8410   45.1810 C   0  0  0  0  0  0  0  0  0  0  0  0
   58.0950   31.7920   43.7920 S   0  0  0  0  0  0  0  0  0  0  0  0
   57.3380   30.2910   44.4240 C   0  0  0  0  0  0  0  0  0  0  0  0
   56.0160   30.1660   44.6420 N   0  0  0  0  0  0  0  0  0  0  0  0
   55.8200   28.9500   45.1270 N   0  0  0  0  0  0  0  0  0  0  0  0
   57.0260   28.3510   45.2030 C   0  0  0  0  0  0  0  0  0  0  0  0
   57.2170   26.9830   45.7350 C   0  0  0  0  0  0  0  0  0  0  0  0
   58.5110   26.4580   45.8890 C   0  0  0  0  0  0  0  0  0  0  0  0
   58.6950   25.1750   46.4130 C   0  0  0  0  0  0  0  0  0  0  0  0
   57.5900   24.4060   46.8000 C   0  0  0  0  0  0  0  0  0  0  0  0
   57.7610   23.1280   47.3240 O   0  0  0  0  0  0  0  0  0  0  0  0
   56.3000   24.9300   46.6640 C   0  0  0  0  0  0  0  0  0  0  0  0
   56.1090   26.2120   46.1380 C   0  0  0  0  0  0  0  0  0  0  0  0
   54.8150   26.7060   46.0080 O   0  0  0  0  0  0  0  0  0  0  0  0
   58.0030   29.1660   44.7490 N   0  0  0  0  0  0  0  0  0  0  0  0
   59.4400   28.9170   44.6410 C   0  0  0  0  0  0  0  0  0  0  0  0
   58.6960   32.8150   47.4200 C   0  0  0  0  0  0  0  0  0  0  0  0
   59.7780   33.1340   48.2470 C   0  0  0  0  0  0  0  0  0  0  0  0
   63.5135   33.2861   49.5819 H   0  0  0  0  0  0  0  0  0  0  0  0
   63.0734   32.5029   48.0264 H   0  0  0  0  0  0  0  0  0  0  0  0
   63.9893   34.0482   48.0264 H   0  0  0  0  0  0  0  0  0  0  0  0
   61.7225   34.8007   45.9789 H   0  0  0  0  0  0  0  0  0  0  0  0
   59.7940   34.2366   44.5091 H   0  0  0  0  0  0  0  0  0  0  0  0
   56.7907   32.2904   45.7699 H   0  0  0  0  0  0  0  0  0  0  0  0
   57.1043   33.7640   44.7697 H   0  0  0  0  0  0  0  0  0  0  0  0
   59.3840   27.0596   45.5957 H   0  0  0  0  0  0  0  0  0  0  0  0
   59.7111   24.7680   46.5218 H   0  0  0  0  0  0  0  0  0  0  0  0
   58.1260   22.9830   48.2580 H   0  0  0  0  0  0  0  0  0  0  0  0
   55.4309   24.3304   46.9725 H   0  0  0  0  0  0  0  0  0  0  0  0
   59.8758   28.8415   45.6482 H   0  0  0  0  0  0  0  0  0  0  0  0
   59.6092   27.9761   44.0968 H   0  0  0  0  0  0  0  0  0  0  0  0
   59.9159   29.7461   44.0968 H   0  0  0  0  0  0  0  0  0  0  0  0
   57.8444   32.2499   47.8268 H   0  0  0  0  0  0  0  0  0  0  0  0
   59.7712   32.8236   49.3023 H   0  0  0  0  0  0  0  0  0  0  0  0
  1  2  1  0
  2  3  1  0
  3  4  2  0
  4  5  1  0
  5  6  2  0
  6  7  1  0
  7  8  1  0
  8  9  1  0
  9 10  2  0
 10 11  1  0
 11 12  2  0
 12 13  1  0
 13 14  2  0
 14 15  1  0
 15 16  2  0
 16 17  1  0
 16 18  1  0
 18 19  2  0
 19 20  1  0
 12 21  1  0
 21 22  1  0
  6 23  1  0
 23 24  2  0
 24  3  1  0
 21  9  1  0
 19 13  1  0
  1 25  1  0
  1 26  1  0
  1 27  1  0
  4 28  1  0
  5 29  1  0
  7 30  1  0
  7 31  1  0
 14 32  1  0
 15 33  1  0
 17 34  1  0
 18 35  1  0
 22 36  1  0
 22 37  1  0
 22 38  1  0
 23 39  1  0
 24 40  1  0
M  CHG  1  20  -1
M  END
>  <UniqueID>  (9) 
9

>  <SMILES>  (9) 
COc1ccc(CSc2nnc(-c3ccc(O)cc3[O-])n2C)cc1

>  <Energy>  (9) 
76.55589992772788

>  <Genealogy>  (9) 
COc1ccc(CSc2nnc(-c3ccc(O)cc3[O-])n2C)cc1 (protonated)
COc1ccc(CSc2nnc(-c3ccc(O)cc3[O-])n2C)cc1 (3D coordinates assigned)
COc1ccc(CSc2nnc(-c3ccc(O)cc3[O-])n2C)cc1 (optimized conformer: 76.55589992772788 kcal/mol)

>  <smiles>  (9) 
COc1ccc(CSc2nnc(-c3ccc(O)cc3O)n2C)cc1

>  <score_type>  (9) 
oracle

>  <origin>  (9) 
adg

>  <m_score__min__energy>  (9) 
-12.789999999999999

>  <m_primary>  (9) 
energy

$$$$
9:0
     RDKit          3D

 35 37  0  0  0  0  0  0  0  0999 V2000
   51.0100   32.3390   49.9830 N   0  0  0  0  0  0  0  0  0  0  0  0
   51.4100   32.2840   51.3510 C   0  0  0  0  0  0  0  0  0  0  0  0
   50.9600   33.1440   52.1560 O   0  0  0  0  0  0  0  0  0  0  0  0
   52.3410   31.2330   51.8220 C   0  0  0  0  0  0  0  0  0  0  0  0
   51.8440   30.0520   52.4010 C   0  0  0  0  0  0  0  0  0  0  0  0
   52.7190   29.0580   52.8430 C   0  0  0  0  0  0  0  0  0  0  0  0
   54.0990   29.2290   52.7190 C   0  0  0  0  0  0  0  0  0  0  0  0
   54.6240   30.4060   52.1540 C   0  0  0  0  0  0  0  0  0  0  0  0
   56.0880   30.6020   52.0050 C   0  0  0  0  0  0  0  0  0  0  0  0
   56.6390   31.8630   51.7130 C   0  0  0  0  0  0  0  0  0  0  0  0
   58.0270   32.0090   51.5930 C   0  0  0  0  0  0  0  0  0  0  0  0
   58.5790   33.2970   51.2650 N   0  0  0  0  0  0  0  0  0  0  0  0
   59.5860   33.5180   50.2630 C   0  0  0  0  0  0  0  0  0  0  0  0
   60.9250   33.6710   50.6470 C   0  0  0  0  0  0  0  0  0  0  0  0
   61.9140   33.8580   49.6810 C   0  0  0  0  0  0  0  0  0  0  0  0
   61.5570   33.8740   48.3310 C   0  0  0  0  0  0  0  0  0  0  0  0
   60.2580   33.6990   47.9690 N   0  0  0  0  0  0  0  0  0  0  0  0
   59.2760   33.5180   48.8930 C   0  0  0  0  0  0  0  0  0  0  0  0
   58.8470   30.8770   51.7250 C   0  0  0  0  0  0  0  0  0  0  0  0
   58.2690   29.6380   52.0030 C   0  0  0  0  0  0  0  0  0  0  0  0
   58.9920   28.6160   52.1260 O   0  0  0  0  0  0  0  0  0  0  0  0
   56.9210   29.5310   52.1360 N   0  0  0  0  0  0  0  0  0  0  0  0
   53.7340   31.3980   51.7000 C   0  0  0  0  0  0  0  0  0  0  0  0
   50.0000   32.3230   49.7170 H   0  0  0  0  0  0  0  0  0  0  0  0
   50.7583   29.9103   52.5064 H   0  0  0  0  0  0  0  0  0  0  0  0
   52.3194   28.1362   53.2908 H   0  0  0  0  0  0  0  0  0  0  0  0
   54.7807   28.4382   53.0654 H   0  0  0  0  0  0  0  0  0  0  0  0
   55.9804   32.7338   51.5790 H   0  0  0  0  0  0  0  0  0  0  0  0
   58.2240   34.1270   51.7930 H   0  0  0  0  0  0  0  0  0  0  0  0
   61.1969   33.6436   51.7125 H   0  0  0  0  0  0  0  0  0  0  0  0
   62.9642   33.9915   49.9796 H   0  0  0  0  0  0  0  0  0  0  0  0
   62.3267   34.0282   47.5604 H   0  0  0  0  0  0  0  0  0  0  0  0
   58.2360   33.3712   48.5662 H   0  0  0  0  0  0  0  0  0  0  0  0
   59.9373   30.9663   51.6101 H   0  0  0  0  0  0  0  0  0  0  0  0
   54.1329   32.3157   51.2431 H   0  0  0  0  0  0  0  0  0  0  0  0
  1  2  1  0
  2  3  2  0
  2  4  1  0
  4  5  2  0
  5  6  1  0
  6  7  2  0
  7  8  1  0
  8  9  1  0
  9 10  2  0
 10 11  1  0
 11 12  1  0
 12 13  1  0
 13 14  2  0
 14 15  1  0
 15 16  2  0
 16 17  1  0
 17 18  2  0
 11 19  2  0
 19 20  1  0
 20 21  2  0
 20 22  1  0
  8 23  2  0
 23  4  1  0
 22  9  1  0
 18 13  1  0
  1 24  1  0
  5 25  1  0
  6 26  1  0
  7 27  1  0
 10 28  1  0
 12 29  1  0
 14 30  1  0
 15 31  1  0
 16 32  1  0
 18 33  1  0
 19 34  1  0
 23 35  1  0
M  CHG  2   1  -1  22  -1
M  END
>  <UniqueID>  (10) 
10

>  <SMILES>  (10) 
[NH-]C(=O)c1cccc(-c2cc(Nc3cccnc3)cc(=O)[n-]2)c1

>  <Energy>  (10) 
49.35123317566712

>  <Genealogy>  (10) 
[NH-]C(=O)c1cccc(-c2cc(Nc3cccnc3)cc(=O)[n-]2)c1 (protonated)
[NH-]C(=O)c1cccc(-c2cc(Nc3cccnc3)cc(=O)[n-]2)c1 (3D coordinates assigned)
[NH-]C(=O)c1cccc(-c2cc(Nc3cccnc3)cc(=O)[n-]2)c1 (optimized conformer: 49.35123317566712 kcal/mol)

>  <smiles>  (10) 
NC(=O)c1cccc(-c2cc(Nc3cccnc3)cc(=O)[nH]2)c1

>  <score_type>  (10) 
oracle

>  <origin>  (10) 
adg

>  <m_score__min__energy>  (10) 
-12.06

>  <m_primary>  (10) 
energy

$$$$
10:0
     RDKit          3D

 53 57  0  0  0  0  0  0  0  0999 V2000
   59.3223   35.2317   47.5747 H   0  0  0  0  0  0  0  0  0  0  0  0
   59.0120   34.5670   46.7550 C   0  0  0  0  0  0  0  0  0  0  0  0
   59.5940   34.6970   45.4900 C   0  0  0  0  0  0  0  0  0  0  0  0
   60.3643   35.4628   45.3164 H   0  0  0  0  0  0  0  0  0  0  0  0
   59.1990   33.8560   44.4460 C   0  0  0  0  0  0  0  0  0  0  0  0
   59.6653   33.9567   43.4548 H   0  0  0  0  0  0  0  0  0  0  0  0
   58.2080   32.8820   44.6580 C   0  0  0  0  0  0  0  0  0  0  0  0
   57.8050   31.9540   43.5460 C   0  0  0  0  0  0  0  0  0  0  0  0
   58.7010   31.6424   42.9891 H   0  0  0  0  0  0  0  0  0  0  0  0
   57.1102   32.4778   42.8730 H   0  0  0  0  0  0  0  0  0  0  0  0
   57.1270   30.7470   44.1070 C   0  0  0  0  0  0  0  0  0  0  0  0
   55.9240   30.7820   44.7240 N   0  0  0  0  0  0  0  0  0  0  0  0
   55.5400   29.5990   45.2000 N   0  0  0  0  0  0  0  0  0  0  0  0
   56.4350   28.6150   44.9670 C   0  0  0  0  0  0  0  0  0  0  0  0
   56.2580   27.4030   45.3990 N   0  0  0  0  0  0  0  0  0  0  0  0
   57.2170   26.5980   46.0980 C   0  0  0  0  0  0  0  0  0  0  0  0
   56.8010   25.6160   46.7700 O   0  0  0  0  0  0  0  0  0  0  0  0
   58.7000   26.7720   45.8880 C   0  0  0  0  0  0  0  0  0  0  0  0
   59.2257   25.9061   46.3169 H   0  0  0  0  0  0  0  0  0  0  0  0
   58.8886   26.8488   44.8070 H   0  0  0  0  0  0  0  0  0  0  0  0
   59.2080   28.0290   46.5470 C   0  0  0  0  0  0  0  0  0  0  0  0
   58.5240   28.5740   47.6470 C   0  0  0  0  0  0  0  0  0  0  0  0
   57.6287   28.0694   48.0392 H   0  0  0  0  0  0  0  0  0  0  0  0
   58.9750   29.7530   48.2450 C   0  0  0  0  0  0  0  0  0  0  0  0
   58.4493   30.1589   49.1218 H   0  0  0  0  0  0  0  0  0  0  0  0
   60.0980   30.4220   47.7300 C   0  0  0  0  0  0  0  0  0  0  0  0
   60.6040   31.6040   48.3630 N   0  0  0  0  0  0  0  0  0  0  0  0
   61.7840   32.1650   48.2820 C   0  0  0  0  0  0  0  0  0  0  0  0
   62.0270   32.9330   47.1360 C   0  0  0  0  0  0  0  0  0  0  0  0
   61.1975   33.1765   46.4558 H   0  0  0  0  0  0  0  0  0  0  0  0
   63.3100   33.3900   46.8520 C   0  0  0  0  0  0  0  0  0  0  0  0
   63.4922   33.9728   45.9371 H   0  0  0  0  0  0  0  0  0  0  0  0
   64.3370   33.1220   47.6950 N   0  0  0  0  0  0  0  0  0  0  0  0
   65.2900   33.4640   47.4360 H   0  0  0  0  0  0  0  0  0  0  0  0
   64.1390   32.4720   48.8780 C   0  0  0  0  0  0  0  0  0  0  0  0
   65.2170   32.2950   49.7600 C   0  0  0  0  0  0  0  0  0  0  0  0
   66.2285   32.6010   49.4548 H   0  0  0  0  0  0  0  0  0  0  0  0
   65.0140   31.7340   51.0200 C   0  0  0  0  0  0  0  0  0  0  0  0
   66.3660   31.5320   52.1200 Cl  0  0  0  0  0  0  0  0  0  0  0  0
   63.7280   31.3830   51.4250 C   0  0  0  0  0  0  0  0  0  0  0  0
   63.5635   30.9771   52.4341 H   0  0  0  0  0  0  0  0  0  0  0  0
   62.6470   31.5440   50.5560 C   0  0  0  0  0  0  0  0  0  0  0  0
   61.6319   31.3010   50.9031 H   0  0  0  0  0  0  0  0  0  0  0  0
   62.8380   32.0150   49.2360 C   0  0  0  0  0  0  0  0  0  0  0  0
   60.8030   29.8600   46.6610 C   0  0  0  0  0  0  0  0  0  0  0  0
   61.7141   30.3508   46.2881 H   0  0  0  0  0  0  0  0  0  0  0  0
   60.3560   28.6780   46.0640 C   0  0  0  0  0  0  0  0  0  0  0  0
   60.9063   28.2538   45.2112 H   0  0  0  0  0  0  0  0  0  0  0  0
   57.7970   29.2010   44.1590 S   0  0  0  0  0  0  0  0  0  0  0  0
   57.6370   32.7480   45.9350 C   0  0  0  0  0  0  0  0  0  0  0  0
   56.8738   31.9767   46.1156 H   0  0  0  0  0  0  0  0  0  0  0  0
   58.0350   33.5910   46.9770 C   0  0  0  0  0  0  0  0  0  0  0  0
   57.5792   33.4865   47.9727 H   0  0  0  0  0  0  0  0  0  0  0  0
  1  2  1  0
  2  3  2  0
  3  4  1  0
  3  5  1  0
  5  6  1  0
  5  7  2  0
  7  8  1  0
  8  9  1  0
  8 10  1  0
  8 11  1  0
 11 12  2  0
 12 13  1  0
 13 14  1  0
 14 15  2  0
 15 16  1  0
 16 17  2  0
 16 18  1  0
 18 19  1  0
 18 20  1  0
 18 21  1  0
 21 22  2  0
 22 23  1  0
 22 24  1  0
 24 25  1  0
 24 26  2  0
 26 27  1  0
 27 28  2  3
 28 29  1  0
 29 30  1  0
 29 31  2  0
 31 32  1  0
 31 33  1  0
 33 34  1  0
 33 35  1  0
 35 36  2  0
 36 37  1  0
 36 38  1  0
 38 39  1  0
 38 40  2  0
 40 41  1  0
 40 42  1  0
 42 43  1  0
 42 44  2  0
 26 45  1  0
 45 46  1  0
 45 47  2  0
 47 48  1  0
 14 49  1  0
  7 50  1  0
 50 51  1  0
 50 52  2  0
 52 53  1  0
 52  2  1  0
 49 11  1  0
 47 21  1  0
 44 28  1  0
 44 35  1  0
M  CHG  1  13  -1
M  END
>  <UniqueID>  (11) 
11

>  <SMILES>  (11) 
O=C(Cc1ccc(N=c2cc[nH]c3cc(Cl)ccc23)cc1)/N=c1/[n-]nc(Cc2ccccc2)s1

>  <Energy>  (11) 
121.362597792029

>  <Genealogy>  (11) 
O=C(Cc1ccc(N=c2cc[nH]c3cc(Cl)ccc23)cc1)N=c1[n-]nc(Cc2ccccc2)s1 (protonated)
O=C(Cc1ccc(N=c2cc[nH]c3cc(Cl)ccc23)cc1)/N=c1/[n-]nc(Cc2ccccc2)s1 (cis-trans isomerization)
O=C(Cc1ccc(N=c2cc[nH]c3cc(Cl)ccc23)cc1)/N=c1/[n-]nc(Cc2ccccc2)s1 (3D coordinates assigned)
O=C(Cc1ccc(N=c2cc[nH]c3cc(Cl)ccc23)cc1)/N=c1/[n-]nc(Cc2ccccc2)s1 (optimized conformer: 121.362597792029 kcal/mol)

>  <smiles>  (11) 
O=C(Cc1ccc(N=c2cc[nH]c3cc(Cl)ccc23)cc1)N=c1[nH]nc(Cc2ccccc2)s1

>  <score_type>  (11) 
oracle

>  <origin>  (11) 
adg

>  <m_score__min__energy>  (11) 
-12.789999999999999

>  <m_primary>  (11) 
energy

$$$$
11:0
     RDKit          3D

 37 40  0  0  0  0  0  0  0  0999 V2000
   55.1540   29.5070   43.4740 O   0  0  0  0  0  0  0  0  0  0  0  0
   56.0750   29.5720   44.3300 C   0  0  0  0  0  0  0  0  0  0  0  0
   56.2590   28.4830   45.2450 N   0  0  0  0  0  0  0  0  0  0  0  0
   57.4350   27.6150   45.3010 C   0  0  0  0  0  0  0  0  0  0  0  0
   58.5010   28.1940   46.1970 C   0  0  0  0  0  0  0  0  0  0  0  0
   58.6070   27.7680   47.5480 C   0  0  0  0  0  0  0  0  0  0  0  0
   59.5410   28.3650   48.4140 C   0  0  0  0  0  0  0  0  0  0  0  0
   60.3550   29.3670   47.8990 C   0  0  0  0  0  0  0  0  0  0  0  0
   60.2770   29.7630   46.6040 C   0  0  0  0  0  0  0  0  0  0  0  0
   59.3710   29.1970   45.7120 C   0  0  0  0  0  0  0  0  0  0  0  0
   61.1940   30.7710   46.3750 O   0  0  0  0  0  0  0  0  0  0  0  0
   61.8890   31.0250   47.6030 C   0  0  0  0  0  0  0  0  0  0  0  0
   61.3250   30.1050   48.5490 O   0  0  0  0  0  0  0  0  0  0  0  0
   56.9830   30.7300   44.3190 C   0  0  0  0  0  0  0  0  0  0  0  0
   57.3690   31.3070   43.1060 C   0  0  0  0  0  0  0  0  0  0  0  0
   58.1460   32.4680   43.1070 C   0  0  0  0  0  0  0  0  0  0  0  0
   58.4850   32.9850   42.0080 O   0  0  0  0  0  0  0  0  0  0  0  0
   58.5260   33.0510   44.3290 C   0  0  0  0  0  0  0  0  0  0  0  0
   59.2800   34.2380   44.3810 C   0  0  0  0  0  0  0  0  0  0  0  0
   59.6220   34.8010   45.6140 C   0  0  0  0  0  0  0  0  0  0  0  0
   59.2170   34.1880   46.8030 C   0  0  0  0  0  0  0  0  0  0  0  0
   58.4710   33.0080   46.7660 C   0  0  0  0  0  0  0  0  0  0  0  0
   58.1210   32.4300   45.5360 C   0  0  0  0  0  0  0  0  0  0  0  0
   57.3790   31.2870   45.5000 N   0  0  0  0  0  0  0  0  0  0  0  0
   57.1356   26.6306   45.6901 H   0  0  0  0  0  0  0  0  0  0  0  0
   57.8474   27.5229   44.2854 H   0  0  0  0  0  0  0  0  0  0  0  0
   57.9536   26.9650   47.9199 H   0  0  0  0  0  0  0  0  0  0  0  0
   59.6244   28.0492   49.4644 H   0  0  0  0  0  0  0  0  0  0  0  0
   59.3331   29.5204   44.6613 H   0  0  0  0  0  0  0  0  0  0  0  0
   62.9668   30.8419   47.4817 H   0  0  0  0  0  0  0  0  0  0  0  0
   61.7807   32.0699   47.9294 H   0  0  0  0  0  0  0  0  0  0  0  0
   57.0622   30.8488   42.1542 H   0  0  0  0  0  0  0  0  0  0  0  0
   59.6014   34.7245   43.4483 H   0  0  0  0  0  0  0  0  0  0  0  0
   60.2115   35.7291   45.6485 H   0  0  0  0  0  0  0  0  0  0  0  0
   59.4866   34.6363   47.7707 H   0  0  0  0  0  0  0  0  0  0  0  0
   58.1563   32.5295   47.7051 H   0  0  0  0  0  0  0  0  0  0  0  0
   57.0680   30.8450   46.3950 H   0  0  0  0  0  0  0  0  0  0  0  0
  1  2  2  0
  2  3  1  0
  3  4  1  0
  4  5  1  0
  5  6  2  0
  6  7  1  0
  7  8  2  0
  8  9  1  0
  9 10  2  0
  9 11  1  0
 11 12  1  0
 12 13  1  0
  2 14  1  0
 14 15  2  0
 15 16  1  0
 16 17  2  0
 16 18  1  0
 18 19  2  0
 19 20  1  0
 20 21  2  0
 21 22  1  0
 22 23  2  0
 23 24  1  0
 10  5  1  0
 24 14  1  0
 13  8  1  0
 23 18  1  0
  4 25  1  0
  4 26  1  0
  6 27  1  0
  7 28  1  0
 10 29  1  0
 12 30  1  0
 12 31  1  0
 15 32  1  0
 19 33  1  0
 20 34  1  0
 21 35  1  0
 22 36  1  0
 24 37  1  0
M  CHG  1   3  -1
M  END
>  <UniqueID>  (12) 
12

>  <SMILES>  (12) 
O=C([N-]Cc1ccc2c(c1)OCO2)c1cc(=O)c2ccccc2[nH]1

>  <Energy>  (12) 
75.04505207659692

>  <Genealogy>  (12) 
O=C([N-]Cc1ccc2c(c1)OCO2)c1cc(=O)c2ccccc2[nH]1 (protonated)
O=C([N-]Cc1ccc2c(c1)OCO2)c1cc(=O)c2ccccc2[nH]1 (3D coordinates assigned)
O=C([N-]Cc1ccc2c(c1)OCO2)c1cc(=O)c2ccccc2[nH]1 (nonaromatic ring conformer: 75.04505207659692 kcal/mol)

>  <smiles>  (12) 
O=C(NCc1ccc2c(c1)OCO2)c1cc(=O)c2ccccc2[nH]1

>  <score_type>  (12) 
oracle

>  <origin>  (12) 
adg

>  <m_score__min__energy>  (12) 
-9.1099999999999994

>  <m_primary>  (12) 
energy

$$$$
12:0
     RDKit          3D

 53 57  0  0  0  0  0  0  0  0999 V2000
   59.5900   34.5030   44.5490 C   0  0  0  0  0  0  0  0  0  0  0  0
   58.5520   33.4330   44.4410 C   0  0  0  0  0  0  0  0  0  0  0  0
   57.6360   33.2200   45.4780 C   0  0  0  0  0  0  0  0  0  0  0  0
   56.6830   32.2610   45.3420 N   0  0  0  0  0  0  0  0  0  0  0  0
   56.5970   31.5020   44.2170 C   0  0  0  0  0  0  0  0  0  0  0  0
   55.5270   30.4530   44.1060 C   0  0  0  0  0  0  0  0  0  0  0  0
   55.8910   29.2430   44.8420 N   0  0  0  0  0  0  0  0  0  0  0  0
   57.1660   28.5820   44.8210 C   0  0  0  0  0  0  0  0  0  0  0  0
   57.5410   28.0290   43.7540 O   0  0  0  0  0  0  0  0  0  0  0  0
   58.0250   28.4770   46.0150 C   0  0  0  0  0  0  0  0  0  0  0  0
   58.4950   29.6110   46.6370 C   0  0  0  0  0  0  0  0  0  0  0  0
   59.5230   29.5640   47.8090 C   0  0  1  0  0  0  0  0  0  0  0  0
   60.6710   30.4410   47.4730 N   0  0  0  0  0  0  0  0  0  0  0  0
   60.5760   31.8670   47.6190 C   0  0  0  0  0  0  0  0  0  0  0  0
   61.4490   32.7180   46.9260 C   0  0  0  0  0  0  0  0  0  0  0  0
   61.3380   34.1040   47.0720 C   0  0  0  0  0  0  0  0  0  0  0  0
   60.3640   34.6450   47.9170 C   0  0  0  0  0  0  0  0  0  0  0  0
   59.5000   33.8010   48.6220 C   0  0  0  0  0  0  0  0  0  0  0  0
   59.6040   32.4110   48.4760 C   0  0  0  0  0  0  0  0  0  0  0  0
   58.7620   31.5320   49.2320 N   0  0  0  0  0  0  0  0  0  0  0  0
   58.8740   30.1150   49.0690 C   0  0  0  0  0  0  0  0  0  0  0  0
   58.4460   29.3580   49.9820 O   0  0  0  0  0  0  0  0  0  0  0  0
   59.9410   28.0580   47.9570 C   0  0  2  0  0  0  0  0  0  0  0  0
   61.1240   27.0790   47.8870 C   0  0  0  0  0  0  0  0  0  0  0  0
   60.7680   25.9530   46.8140 C   0  0  0  0  0  0  0  0  0  0  0  0
   59.5550   26.3080   45.8390 C   0  0  0  0  0  0  0  0  0  0  0  0
   58.3620   27.0620   46.5570 C   0  0  1  0  0  0  0  0  0  0  0  0
   58.7300   27.2110   47.9540 N   0  0  0  0  0  0  0  0  0  0  0  0
   57.5230   31.7060   43.1850 C   0  0  0  0  0  0  0  0  0  0  0  0
   58.4700   32.6710   43.3180 N   0  0  0  0  0  0  0  0  0  0  0  0
   59.7925   34.7117   45.6099 H   0  0  0  0  0  0  0  0  0  0  0  0
   60.5154   34.1670   44.0583 H   0  0  0  0  0  0  0  0  0  0  0  0
   59.2261   35.4178   44.0583 H   0  0  0  0  0  0  0  0  0  0  0  0
   57.6873   33.8242   46.3957 H   0  0  0  0  0  0  0  0  0  0  0  0
   54.5885   30.8536   44.5167 H   0  0  0  0  0  0  0  0  0  0  0  0
   55.4066   30.1908   43.0445 H   0  0  0  0  0  0  0  0  0  0  0  0
   58.1308   30.5905   46.2936 H   0  0  0  0  0  0  0  0  0  0  0  0
   61.4960   30.0590   46.9540 H   0  0  0  0  0  0  0  0  0  0  0  0
   62.2216   32.2948   46.2672 H   0  0  0  0  0  0  0  0  0  0  0  0
   62.0182   34.7702   46.5211 H   0  0  0  0  0  0  0  0  0  0  0  0
   60.2773   35.7360   48.0274 H   0  0  0  0  0  0  0  0  0  0  0  0
   58.7387   34.2282   49.2912 H   0  0  0  0  0  0  0  0  0  0  0  0
   58.1400   31.9160   49.9780 H   0  0  0  0  0  0  0  0  0  0  0  0
   60.7540   28.7029   48.3218 H   0  0  0  0  0  0  0  0  0  0  0  0
   62.0341   27.6144   47.5786 H   0  0  0  0  0  0  0  0  0  0  0  0
   61.3037   26.6250   48.8727 H   0  0  0  0  0  0  0  0  0  0  0  0
   61.6610   25.7757   46.1967 H   0  0  0  0  0  0  0  0  0  0  0  0
   60.4514   25.0703   47.3890 H   0  0  0  0  0  0  0  0  0  0  0  0
   59.9354   26.9499   45.0307 H   0  0  0  0  0  0  0  0  0  0  0  0
   59.1540   25.3548   45.4640 H   0  0  0  0  0  0  0  0  0  0  0  0
   57.4653   26.4511   46.3761 H   0  0  0  0  0  0  0  0  0  0  0  0
   57.9290   27.6160   48.4880 H   0  0  0  0  0  0  0  0  0  0  0  0
   57.4834   31.0898   42.2747 H   0  0  0  0  0  0  0  0  0  0  0  0
  1  2  1  0
  2  3  2  0
  3  4  1  0
  4  5  2  0
  5  6  1  0
  6  7  1  0
  7  8  1  0
  8  9  2  0
  8 10  1  0
 10 11  2  0
 11 12  1  0
 12 13  1  6
 13 14  1  0
 14 15  2  0
 15 16  1  0
 16 17  2  0
 17 18  1  0
 18 19  2  0
 19 20  1  0
 20 21  1  0
 21 22  2  0
 12 23  1  0
 23 24  1  0
 24 25  1  0
 25 26  1  0
 26 27  1  0
 27 28  1  0
  5 29  1  0
 29 30  2  0
 30  2  1  0
 27 10  1  0
 21 12  1  0
 28 23  1  0
 19 14  1  0
  1 31  1  0
  1 32  1  0
  1 33  1  0
  3 34  1  0
  6 35  1  0
  6 36  1  0
 11 37  1  0
 13 38  1  0
 15 39  1  0
 16 40  1  0
 17 41  1  0
 18 42  1  0
 20 43  1  0
 23 44  1  1
 24 45  1  0
 24 46  1  0
 25 47  1  0
 25 48  1  0
 26 49  1  0
 26 50  1  0
 27 51  1  1
 28 52  1  0
 29 53  1  0
M  CHG  1   7  -1
M  END
>  <UniqueID>  (13) 
13

>  <SMILES>  (13) 
Cc1cnc(C[N-]C(=O)C2=C[C@]3(Nc4ccccc4NC3=O)[C@H]3CCCC2N3)cn1

>  <Energy>  (13) 
173.06628580588892

>  <Genealogy>  (13) 
Cc1cnc(C[N-]C(=O)C2=CC3(Nc4ccccc4NC3=O)C3CCCC2N3)cn1 (protonated)
Cc1cnc(C[N-]C(=O)C2=C[C@]3(Nc4ccccc4NC3=O)[C@H]3CCCC2N3)cn1 (chirality)
Cc1cnc(C[N-]C(=O)C2=C[C@]3(Nc4ccccc4NC3=O)[C@H]3CCCC2N3)cn1 (3D coordinates assigned)
Cc1cnc(C[N-]C(=O)C2=C[C@]3(Nc4ccccc4NC3=O)[C@H]3CCCC2N3)cn1 (nonaromatic ring conformer: 173.06628580588892 kcal/mol)

>  <smiles>  (13) 
Cc1cnc(CNC(=O)C2=CC3(Nc4ccccc4NC3=O)C3CCCC2N3)cn1

>  <score_type>  (13) 
oracle

>  <origin>  (13) 
adg

>  <m_score__min__energy>  (13) 
-10.33

>  <m_primary>  (13) 
energy

$$$$
13:0
     RDKit          3D

 39 42  0  0  0  0  0  0  0  0999 V2000
   56.9290   30.4920   44.8860 O   0  0  0  0  0  0  0  0  0  0  0  0
   57.7750   30.7670   45.7790 C   0  0  0  0  0  0  0  0  0  0  0  0
   58.2290   29.7130   46.6400 N   0  0  0  0  0  0  0  0  0  0  0  0
   58.3050   28.3200   46.3020 C   0  0  0  0  0  0  0  0  0  0  0  0
   58.2320   27.3170   47.2840 C   0  0  0  0  0  0  0  0  0  0  0  0
   58.3060   25.9690   46.9210 C   0  0  0  0  0  0  0  0  0  0  0  0
   58.4440   25.6030   45.5730 C   0  0  0  0  0  0  0  0  0  0  0  0
   58.5200   24.1700   45.1910 C   0  0  0  0  0  0  0  0  0  0  0  0
   59.6370   23.4130   45.5710 C   0  0  0  0  0  0  0  0  0  0  0  0
   59.7140   22.0620   45.2270 C   0  0  0  0  0  0  0  0  0  0  0  0
   58.7140   21.4720   44.5200 N   0  0  0  0  0  0  0  0  0  0  0  0
   57.6150   22.1790   44.1210 C   0  0  0  0  0  0  0  0  0  0  0  0
   56.5840   21.5850   43.3740 C   0  0  0  0  0  0  0  0  0  0  0  0
   56.6330   20.3660   43.0590 O   0  0  0  0  0  0  0  0  0  0  0  0
   55.5190   22.3320   42.9830 N   0  0  0  0  0  0  0  0  0  0  0  0
   55.4290   23.6500   43.2980 C   0  0  0  0  0  0  0  0  0  0  0  0
   56.4110   24.2470   44.0210 N   0  0  0  0  0  0  0  0  0  0  0  0
   57.4980   23.5470   44.4480 C   0  0  0  0  0  0  0  0  0  0  0  0
   58.4810   26.6080   44.5910 C   0  0  0  0  0  0  0  0  0  0  0  0
   58.4060   27.9550   44.9550 C   0  0  0  0  0  0  0  0  0  0  0  0
   58.3080   32.1470   45.8750 C   0  0  0  0  0  0  0  0  0  0  0  0
   58.1320   33.0460   44.8080 C   0  0  0  0  0  0  0  0  0  0  0  0
   58.6310   34.3490   44.8940 C   0  0  0  0  0  0  0  0  0  0  0  0
   59.3160   34.7650   46.0370 C   0  0  0  0  0  0  0  0  0  0  0  0
   59.5120   33.8750   47.0970 C   0  0  0  0  0  0  0  0  0  0  0  0
   60.3810   34.3940   48.5300 Cl  0  0  0  0  0  0  0  0  0  0  0  0
   59.0170   32.5690   47.0150 C   0  0  0  0  0  0  0  0  0  0  0  0
   58.1162   27.5938   48.3423 H   0  0  0  0  0  0  0  0  0  0  0  0
   58.2558   25.1905   47.6965 H   0  0  0  0  0  0  0  0  0  0  0  0
   60.4526   23.8832   46.1400 H   0  0  0  0  0  0  0  0  0  0  0  0
   60.5905   21.4706   45.5304 H   0  0  0  0  0  0  0  0  0  0  0  0
   58.8100   20.4590   44.2830 H   0  0  0  0  0  0  0  0  0  0  0  0
   54.5585   24.2352   42.9666 H   0  0  0  0  0  0  0  0  0  0  0  0
   58.5695   26.3325   43.5297 H   0  0  0  0  0  0  0  0  0  0  0  0
   58.4265   28.7332   44.1778 H   0  0  0  0  0  0  0  0  0  0  0  0
   57.5993   32.7224   43.9016 H   0  0  0  0  0  0  0  0  0  0  0  0
   58.4834   35.0488   44.0583 H   0  0  0  0  0  0  0  0  0  0  0  0
   59.7015   35.7931   46.1035 H   0  0  0  0  0  0  0  0  0  0  0  0
   59.1830   31.8681   47.8463 H   0  0  0  0  0  0  0  0  0  0  0  0
  1  2  2  0
  2  3  1  0
  3  4  1  0
  4  5  2  0
  5  6  1  0
  6  7  2  0
  7  8  1  0
  8  9  2  0
  9 10  1  0
 10 11  2  0
 11 12  1  0
 12 13  1  0
 13 14  2  0
 13 15  1  0
 15 16  1  0
 16 17  2  0
 17 18  1  0
  7 19  1  0
 19 20  2  0
  2 21  1  0
 21 22  2  0
 22 23  1  0
 23 24  2  0
 24 25  1  0
 25 26  1  0
 25 27  2  0
 20  4  1  0
 27 21  1  0
 18  8  1  0
 18 12  2  0
  5 28  1  0
  6 29  1  0
  9 30  1  0
 10 31  1  0
 11 32  1  0
 16 33  1  0
 19 34  1  0
 20 35  1  0
 22 36  1  0
 23 37  1  0
 24 38  1  0
 27 39  1  0
M  CHG  3   3  -1  11   1  15  -1
M  END
>  <UniqueID>  (14) 
14

>  <SMILES>  (14) 
O=C([N-]c1ccc(-c2cc[nH+]c3c(=O)[n-]cnc23)cc1)c1cccc(Cl)c1

>  <Energy>  (14) 
62.424983959556215

>  <Genealogy>  (14) 
O=C([N-]c1ccc(-c2cc[nH+]c3c(=O)[n-]cnc23)cc1)c1cccc(Cl)c1 (protonated)
O=C([N-]c1ccc(-c2cc[nH+]c3c(=O)[n-]cnc23)cc1)c1cccc(Cl)c1 (3D coordinates assigned)
O=C([N-]c1ccc(-c2cc[nH+]c3c(=O)[n-]cnc23)cc1)c1cccc(Cl)c1 (optimized conformer: 62.424983959556215 kcal/mol)

>  <smiles>  (14) 
O=C(Nc1ccc(-c2ccnc3c(=O)[nH]cnc23)cc1)c1cccc(Cl)c1

>  <score_type>  (14) 
oracle

>  <origin>  (14) 
adg

>  <m_score__min__energy>  (14) 
-10.640000000000001

>  <m_primary>  (14) 
energy

$$$$
14:0
     RDKit          3D

 44 46  0  0  1  0  0  0  0  0999 V2000
   56.6170   30.1680   42.6180 C   0  0  0  0  0  0  0  0  0  0  0  0
   57.0790   30.0230   44.0440 C   0  0  0  0  0  0  0  0  0  0  0  0
   56.1870   30.0990   44.9150 O   0  0  0  0  0  0  0  0  0  0  0  0
   58.4520   29.8140   44.3250 N   0  0  0  0  0  0  0  0  0  0  0  0
   59.0080   29.6630   45.6150 C   0  0  0  0  0  0  0  0  0  0  0  0
   58.2440   28.9640   46.5480 C   0  0  0  0  0  0  0  0  0  0  0  0
   58.7190   28.7760   47.8240 C   0  0  0  0  0  0  0  0  0  0  0  0
   59.9400   29.2480   48.2580 C   0  0  0  0  0  0  0  0  0  0  0  0
   60.7000   29.9400   47.3370 C   0  0  0  0  0  0  0  0  0  0  0  0
   61.9710   30.4550   47.7180 N   0  0  0  0  0  0  0  0  0  0  0  0
   62.2680   31.6500   47.3300 C   0  0  0  0  0  0  0  0  0  0  0  0
   63.5800   31.9300   47.1790 N   0  0  0  0  0  0  0  0  0  0  0  0
   64.0090   33.1390   46.7800 C   0  0  0  0  0  0  0  0  0  0  0  0
   63.0420   34.0980   46.5270 C   0  0  0  0  0  0  0  0  0  0  0  0
   61.6900   33.8330   46.6760 C   0  0  0  0  0  0  0  0  0  0  0  0
   60.7820   34.7280   46.4390 N   0  0  0  0  0  0  0  0  0  0  0  0
   59.4580   34.2840   46.0840 C   0  0  0  0  0  0  0  0  0  0  0  0
   59.0260   34.2790   44.7730 C   0  0  0  0  0  0  0  0  0  0  0  0
   57.7470   33.8420   44.5060 C   0  0  0  0  0  0  0  0  0  0  0  0
   56.8750   33.4080   45.4850 C   0  0  0  0  0  0  0  0  0  0  0  0
   57.3430   33.4260   46.7960 C   0  0  0  0  0  0  0  0  0  0  0  0
   58.6180   33.8570   47.1010 C   0  0  0  0  0  0  0  0  0  0  0  0
   59.0480   33.8470   48.5330 C   0  0  0  0  0  0  0  0  0  0  0  0
   61.3490   32.5990   47.0770 N   0  0  0  0  0  0  0  0  0  0  0  0
   60.2100   30.1280   46.0370 C   0  0  0  0  0  0  0  0  0  0  0  0
   55.5676   30.4974   42.6043 H   0  0  0  0  0  0  0  0  0  0  0  0
   57.2419   30.9132   42.1041 H   0  0  0  0  0  0  0  0  0  0  0  0
   56.7040   29.1993   42.1041 H   0  0  0  0  0  0  0  0  0  0  0  0
   59.0830   29.7730   43.4900 H   0  0  0  0  0  0  0  0  0  0  0  0
   57.2603   28.5626   46.2629 H   0  0  0  0  0  0  0  0  0  0  0  0
   58.0922   28.2198   48.5366 H   0  0  0  0  0  0  0  0  0  0  0  0
   60.2907   29.0812   49.2872 H   0  0  0  0  0  0  0  0  0  0  0  0
   64.3030   31.1900   47.3760 H   0  0  0  0  0  0  0  0  0  0  0  0
   65.0803   33.3576   46.6596 H   0  0  0  0  0  0  0  0  0  0  0  0
   63.3566   35.0994   46.1981 H   0  0  0  0  0  0  0  0  0  0  0  0
   59.6871   34.6159   43.9609 H   0  0  0  0  0  0  0  0  0  0  0  0
   57.4033   33.8386   43.4611 H   0  0  0  0  0  0  0  0  0  0  0  0
   55.8590   33.0644   45.2405 H   0  0  0  0  0  0  0  0  0  0  0  0
   56.6812   33.0889   47.6075 H   0  0  0  0  0  0  0  0  0  0  0  0
   58.1605   33.8676   49.1825 H   0  0  0  0  0  0  0  0  0  0  0  0
   59.6291   32.9351   48.7350 H   0  0  0  0  0  0  0  0  0  0  0  0
   59.6708   34.7309   48.7350 H   0  0  0  0  0  0  0  0  0  0  0  0
   60.3350   32.3820   47.1950 H   0  0  0  0  0  0  0  0  0  0  0  0
   60.8341   30.6825   45.3207 H   0  0  0  0  0  0  0  0  0  0  0  0
  1  2  1  0
  2  3  2  0
  2  4  1  0
  4  5  1  0
  5  6  2  0
  6  7  1  0
  7  8  2  0
  8  9  1  0
  9 10  1  0
 10 11  2  0
 11 12  1  0
 12 13  1  0
 13 14  2  0
 14 15  1  0
 15 16  2  0
 16 17  1  0
 17 18  2  0
 18 19  1  0
 19 20  2  0
 20 21  1  0
 21 22  2  0
 22 23  1  0
 15 24  1  0
  9 25  2  0
 25  5  1  0
 24 11  1  0
 22 17  1  0
  1 26  1  0
  1 27  1  0
  1 28  1  0
  4 29  1  0
  6 30  1  0
  7 31  1  0
  8 32  1  0
 12 33  1  0
 13 34  1  0
 14 35  1  0
 18 36  1  0
 19 37  1  0
 20 38  1  0
 21 39  1  0
 23 40  1  0
 23 41  1  0
 23 42  1  0
 24 43  1  0
 25 44  1  0
M  END
>  <smiles>  (15) 
CC(=O)Nc1cccc(N=c2[nH]ccc(=Nc3ccccc3C)[nH]2)c1

>  <score_type>  (15) 
oracle

>  <origin>  (15) 
adg

>  <m_score__min__energy>  (15) 
-8.5399999999999991

>  <m_primary>  (15) 
energy

$$$$
15:0
     RDKit          3D

 38 40  0  0  0  0  0  0  0  0999 V2000
   55.1670   26.3390   46.0610 N   0  0  0  0  0  0  0  0  0  0  0  0
   56.8830   26.5090   45.9520 S   0  0  0  0  0  0  0  0  0  0  0  0
   57.4190   25.5300   44.9460 O   0  0  0  0  0  0  0  0  0  0  0  0
   57.5030   26.2140   47.2900 O   0  0  0  0  0  0  0  0  0  0  0  0
   57.2820   28.1500   45.4590 C   0  0  0  0  0  0  0  0  0  0  0  0
   58.5810   28.6430   45.6350 C   0  0  0  0  0  0  0  0  0  0  0  0
   58.8970   29.9500   45.2530 C   0  0  0  0  0  0  0  0  0  0  0  0
   57.9240   30.7770   44.6780 C   0  0  0  0  0  0  0  0  0  0  0  0
   58.2870   32.1200   44.3150 N   0  0  0  0  0  0  0  0  0  0  0  0
   58.6920   33.0510   45.1270 C   0  0  0  0  0  0  0  0  0  0  0  0
   59.0980   32.8310   46.3940 N   0  0  0  0  0  0  0  0  0  0  0  0
   59.4490   33.9870   47.0190 C   0  0  0  0  0  0  0  0  0  0  0  0
   59.9090   34.0060   48.4490 C   0  0  0  0  0  0  0  0  0  0  0  0
   61.2280   33.2830   48.6040 C   0  0  0  0  0  0  0  0  0  0  0  0
   62.4030   34.0520   48.6960 C   0  0  0  0  0  0  0  0  0  0  0  0
   63.6480   33.4380   48.8280 C   0  0  0  0  0  0  0  0  0  0  0  0
   63.7410   32.0480   48.8670 C   0  0  0  0  0  0  0  0  0  0  0  0
   62.5860   31.2680   48.7870 C   0  0  0  0  0  0  0  0  0  0  0  0
   61.3190   31.8680   48.6740 C   0  0  0  0  0  0  0  0  0  0  0  0
   60.1500   31.0300   48.6320 N   0  0  0  0  0  0  0  0  0  0  0  0
   60.1770   29.9510   48.0040 O   0  0  0  0  0  0  0  0  0  0  0  0
   59.0740   31.2920   49.4470 O   0  0  0  0  0  0  0  0  0  0  0  0
   59.2810   35.1410   46.2560 C   0  0  0  0  0  0  0  0  0  0  0  0
   58.7040   34.6840   44.7400 S   0  0  0  0  0  0  0  0  0  0  0  0
   56.6070   30.2930   44.5400 C   0  0  0  0  0  0  0  0  0  0  0  0
   56.2940   28.9850   44.9210 C   0  0  0  0  0  0  0  0  0  0  0  0
   54.7680   26.7020   45.1660 H   0  0  0  0  0  0  0  0  0  0  0  0
   59.3561   27.9988   46.0758 H   0  0  0  0  0  0  0  0  0  0  0  0
   59.9174   30.3317   45.4051 H   0  0  0  0  0  0  0  0  0  0  0  0
   60.0307   35.0499   48.7738 H   0  0  0  0  0  0  0  0  0  0  0  0
   59.1551   33.4955   49.0663 H   0  0  0  0  0  0  0  0  0  0  0  0
   62.3386   35.1496   48.6634 H   0  0  0  0  0  0  0  0  0  0  0  0
   64.5580   34.0516   48.9014 H   0  0  0  0  0  0  0  0  0  0  0  0
   64.7250   31.5653   48.9609 H   0  0  0  0  0  0  0  0  0  0  0  0
   62.6678   30.1713   48.8126 H   0  0  0  0  0  0  0  0  0  0  0  0
   59.4886   36.1698   46.5855 H   0  0  0  0  0  0  0  0  0  0  0  0
   55.8229   30.9471   44.1310 H   0  0  0  0  0  0  0  0  0  0  0  0
   55.2674   28.6096   44.7979 H   0  0  0  0  0  0  0  0  0  0  0  0
  1  2  1  0
  2  3  2  0
  2  4  2  0
  2  5  1  0
  5  6  2  0
  6  7  1  0
  7  8  2  0
  8  9  1  0
  9 10  2  3
 10 11  1  0
 11 12  1  0
 12 13  1  0
 13 14  1  0
 14 15  2  0
 15 16  1  0
 16 17  2  0
 17 18  1  0
 18 19  2  0
 19 20  1  0
 20 21  2  0
 20 22  1  0
 12 23  2  0
 23 24  1  0
  8 25  1  0
 25 26  2  0
 26  5  1  0
 24 10  1  0
 19 14  1  0
  1 27  1  0
  6 28  1  0
  7 29  1  0
 13 30  1  0
 13 31  1  0
 15 32  1  0
 16 33  1  0
 17 34  1  0
 18 35  1  0
 23 36  1  0
 25 37  1  0
 26 38  1  0
M  CHG  4   1  -1  11  -1  20   1  22  -1
M  END
>  <UniqueID>  (16) 
15

>  <SMILES>  (16) 
[NH-]S(=O)(=O)c1ccc(N=c2[n-]c(Cc3ccccc3[N+](=O)[O-])cs2)cc1

>  <Energy>  (16) 
79.50866926821548

>  <Genealogy>  (16) 
[NH-]S(=O)(=O)c1ccc(N=c2[n-]c(Cc3ccccc3[N+](=O)[O-])cs2)cc1 (protonated)
[NH-]S(=O)(=O)c1ccc(N=c2[n-]c(Cc3ccccc3[N+](=O)[O-])cs2)cc1 (3D coordinates assigned)
[NH-]S(=O)(=O)c1ccc(N=c2[n-]c(Cc3ccccc3[N+](=O)[O-])cs2)cc1 (optimized conformer: 79.50866926821548 kcal/mol)

>  <smiles>  (16) 
NS(=O)(=O)c1ccc(N=c2[nH]c(Cc3ccccc3[N+](=O)[O-])cs2)cc1

>  <score_type>  (16) 
oracle

>  <origin>  (16) 
adg

>  <m_score__min__energy>  (16) 
-11.92

>  <m_primary>  (16) 
energy

$$$$
16:0
     RDKit          3D

 62 64  0  0  0  0  0  0  0  0999 V2000
   61.8400   31.3790   52.6490 C   0  0  0  0  0  0  0  0  0  0  0  0
   62.9360   30.6280   51.8990 C   0  0  0  0  0  0  0  0  0  0  0  0
   63.3700   31.3950   50.6720 C   0  0  0  0  0  0  0  0  0  0  0  0
   64.6450   31.9800   50.6480 C   0  0  0  0  0  0  0  0  0  0  0  0
   65.0610   32.7270   49.5470 C   0  0  0  0  0  0  0  0  0  0  0  0
   64.2100   32.9040   48.4560 C   0  0  0  0  0  0  0  0  0  0  0  0
   62.9300   32.3270   48.4500 C   0  0  0  0  0  0  0  0  0  0  0  0
   62.0090   32.6000   47.2840 C   0  0  0  0  0  0  0  0  0  0  0  0
   62.5650   33.7120   46.4010 C   0  0  0  0  0  0  0  0  0  0  0  0
   62.5010   31.5780   49.5710 C   0  0  0  0  0  0  0  0  0  0  0  0
   61.1760   31.0290   49.6060 N   0  0  0  0  0  0  0  0  0  0  0  0
   60.6900   30.1630   48.5730 C   0  0  0  0  0  0  0  0  0  0  0  0
   61.4630   29.7760   47.6540 O   0  0  0  0  0  0  0  0  0  0  0  0
   59.2530   29.7420   48.5530 C   0  0  0  0  0  0  0  0  0  0  0  0
   58.5630   30.2100   49.7490 N   0  0  0  0  0  0  0  0  0  0  0  0
   58.1700   31.5710   49.9630 C   0  0  0  0  0  0  0  0  0  0  0  0
   57.3830   31.8530   50.9090 O   0  0  0  0  0  0  0  0  0  0  0  0
   58.6840   32.6430   49.0810 C   0  0  0  0  0  0  0  0  0  0  0  0
   59.6250   33.5720   49.5590 C   0  0  0  0  0  0  0  0  0  0  0  0
   60.0880   34.6000   48.7330 C   0  0  0  0  0  0  0  0  0  0  0  0
   59.6200   34.7140   47.4230 C   0  0  0  0  0  0  0  0  0  0  0  0
   58.6970   33.7870   46.9230 C   0  0  0  0  0  0  0  0  0  0  0  0
   58.1090   33.8940   45.2660 S   0  0  0  0  0  0  0  0  0  0  0  0
   58.8650   34.9820   44.5570 O   0  0  0  0  0  0  0  0  0  0  0  0
   56.6450   34.2320   45.2570 O   0  0  0  0  0  0  0  0  0  0  0  0
   58.3580   32.4060   44.4070 N   0  0  0  0  0  0  0  0  0  0  0  0
   57.7690   31.1410   44.7410 C   0  0  0  0  0  0  0  0  0  0  0  0
   58.4330   30.1910   45.5380 C   0  0  0  0  0  0  0  0  0  0  0  0
   57.8250   28.9640   45.8260 C   0  0  0  0  0  0  0  0  0  0  0  0
   56.5470   28.6660   45.3120 C   0  0  0  0  0  0  0  0  0  0  0  0
   55.9010   27.4450   45.5550 O   0  0  0  0  0  0  0  0  0  0  0  0
   56.5630   26.2530   45.9650 C   0  0  0  0  0  0  0  0  0  0  0  0
   55.8890   29.6190   44.5280 C   0  0  0  0  0  0  0  0  0  0  0  0
   56.4940   30.8470   44.2480 C   0  0  0  0  0  0  0  0  0  0  0  0
   58.2360   32.7530   47.7520 C   0  0  0  0  0  0  0  0  0  0  0  0
   61.9972   31.2713   53.7324 H   0  0  0  0  0  0  0  0  0  0  0  0
   61.8740   32.4445   52.3777 H   0  0  0  0  0  0  0  0  0  0  0  0
   60.8586   30.9627   52.3777 H   0  0  0  0  0  0  0  0  0  0  0  0
   63.8012   30.4935   52.5648 H   0  0  0  0  0  0  0  0  0  0  0  0
   62.5405   29.6516   51.5824 H   0  0  0  0  0  0  0  0  0  0  0  0
   65.3219   31.8481   51.5050 H   0  0  0  0  0  0  0  0  0  0  0  0
   66.0640   33.1785   49.5385 H   0  0  0  0  0  0  0  0  0  0  0  0
   64.5442   33.5000   47.5940 H   0  0  0  0  0  0  0  0  0  0  0  0
   61.9041   31.6831   46.6854 H   0  0  0  0  0  0  0  0  0  0  0  0
   61.0310   32.9172   47.6750 H   0  0  0  0  0  0  0  0  0  0  0  0
   62.9672   34.5165   47.0342 H   0  0  0  0  0  0  0  0  0  0  0  0
   63.3677   33.3092   45.7659 H   0  0  0  0  0  0  0  0  0  0  0  0
   61.7611   34.1125   45.7659 H   0  0  0  0  0  0  0  0  0  0  0  0
   60.5620   31.2690   50.4150 H   0  0  0  0  0  0  0  0  0  0  0  0
   58.7642   30.1675   47.6642 H   0  0  0  0  0  0  0  0  0  0  0  0
   59.2064   28.6434   48.5245 H   0  0  0  0  0  0  0  0  0  0  0  0
   59.9993   33.4891   50.5900 H   0  0  0  0  0  0  0  0  0  0  0  0
   60.8239   35.3219   49.1167 H   0  0  0  0  0  0  0  0  0  0  0  0
   59.9769   35.5336   46.7820 H   0  0  0  0  0  0  0  0  0  0  0  0
   59.4339   30.4134   45.9363 H   0  0  0  0  0  0  0  0  0  0  0  0
   58.3468   28.2289   46.4563 H   0  0  0  0  0  0  0  0  0  0  0  0
   56.5885   26.2071   47.0637 H   0  0  0  0  0  0  0  0  0  0  0  0
   56.0208   25.3794   45.5740 H   0  0  0  0  0  0  0  0  0  0  0  0
   57.5912   26.2516   45.5740 H   0  0  0  0  0  0  0  0  0  0  0  0
   54.8876   29.4002   44.1288 H   0  0  0  0  0  0  0  0  0  0  0  0
   55.9625   31.5891   43.6342 H   0  0  0  0  0  0  0  0  0  0  0  0
   57.5163   32.0202   47.3583 H   0  0  0  0  0  0  0  0  0  0  0  0
  1  2  1  0
  2  3  1  0
  3  4  2  0
  4  5  1  0
  5  6  2  0
  6  7  1  0
  7  8  1  0
  8  9  1  0
  7 10  2  0
 10 11  1  0
 11 12  1  0
 12 13  2  0
 12 14  1  0
 14 15  1  0
 15 16  1  0
 16 17  2  0
 16 18  1  0
 18 19  2  0
 19 20  1  0
 20 21  2  0
 21 22  1  0
 22 23  1  0
 23 24  2  0
 23 25  2  0
 23 26  1  0
 26 27  1  0
 27 28  2  0
 28 29  1  0
 29 30  2  0
 30 31  1  0
 31 32  1  0
 30 33  1  0
 33 34  2  0
 22 35  2  0
 10  3  1  0
 35 18  1  0
 34 27  1  0
  1 36  1  0
  1 37  1  0
  1 38  1  0
  2 39  1  0
  2 40  1  0
  4 41  1  0
  5 42  1  0
  6 43  1  0
  8 44  1  0
  8 45  1  0
  9 46  1  0
  9 47  1  0
  9 48  1  0
 11 49  1  0
 14 50  1  0
 14 51  1  0
 19 52  1  0
 20 53  1  0
 21 54  1  0
 28 55  1  0
 29 56  1  0
 32 57  1  0
 32 58  1  0
 32 59  1  0
 33 60  1  0
 34 61  1  0
 35 62  1  0
M  CHG  2  15  -1  26  -1
M  END
>  <UniqueID>  (17) 
16

>  <SMILES>  (17) 
CCc1cccc(CC)c1NC(=O)C[N-]C(=O)c1cccc(S(=O)(=O)[N-]c2ccc(OC)cc2)c1

>  <Energy>  (17) 
65.33233289795076

>  <Genealogy>  (17) 
CCc1cccc(CC)c1NC(=O)C[N-]C(=O)c1cccc(S(=O)(=O)[N-]c2ccc(OC)cc2)c1 (protonated)
CCc1cccc(CC)c1NC(=O)C[N-]C(=O)c1cccc(S(=O)(=O)[N-]c2ccc(OC)cc2)c1 (3D coordinates assigned)
CCc1cccc(CC)c1NC(=O)C[N-]C(=O)c1cccc(S(=O)(=O)[N-]c2ccc(OC)cc2)c1 (optimized conformer: 65.33233289795076 kcal/mol)

>  <smiles>  (17) 
CCc1cccc(CC)c1NC(=O)CNC(=O)c1cccc(S(=O)(=O)Nc2ccc(OC)cc2)c1

>  <score_type>  (17) 
oracle

>  <origin>  (17) 
adg

>  <m_score__min__energy>  (17) 
-11.73

>  <m_primary>  (17) 
energy

$$$$
17:0
     RDKit          3D

 57 59  0  0  0  0  0  0  0  0999 V2000
   56.7070   24.3160   44.1180 C   0  0  0  0  0  0  0  0  0  0  0  0
   56.6160   24.9170   45.5300 C   0  0  2  0  0  0  0  0  0  0  0  0
   57.2620   24.0300   46.4140 O   0  0  0  0  0  0  0  0  0  0  0  0
   55.1680   25.0540   45.9660 C   0  0  0  0  0  0  0  0  0  0  0  0
   54.5130   24.0570   46.3730 O   0  0  0  0  0  0  0  0  0  0  0  0
   54.5710   26.3080   45.9930 O   0  0  0  0  0  0  0  0  0  0  0  0
   57.3180   26.2780   45.5100 C   0  0  0  0  0  0  0  0  0  0  0  0
   57.7950   26.8300   44.3050 C   0  0  0  0  0  0  0  0  0  0  0  0
   58.3800   28.0990   44.2810 C   0  0  0  0  0  0  0  0  0  0  0  0
   58.4850   28.8580   45.4560 C   0  0  0  0  0  0  0  0  0  0  0  0
   59.0970   30.1630   45.4380 N   0  0  0  0  0  0  0  0  0  0  0  0
   60.4360   30.3820   46.0070 C   0  0  0  0  0  0  0  0  0  0  0  0
   60.4370   30.2070   47.5300 C   0  0  0  0  0  0  0  0  0  0  0  0
   61.5440   30.9990   48.1760 C   0  0  0  0  0  0  0  0  0  0  0  0
   61.8290   30.8320   49.5390 C   0  0  0  0  0  0  0  0  0  0  0  0
   62.8920   31.5250   50.1280 C   0  0  0  0  0  0  0  0  0  0  0  0
   63.6870   32.3940   49.3630 C   0  0  0  0  0  0  0  0  0  0  0  0
   64.8190   33.1210   49.9790 C   0  0  0  0  0  0  0  0  0  0  0  0
   66.0070   32.7830   49.7330 O   0  0  0  0  0  0  0  0  0  0  0  0
   64.5880   34.1890   50.8410 O   0  0  0  0  0  0  0  0  0  0  0  0
   63.3940   32.5630   47.9980 C   0  0  0  0  0  0  0  0  0  0  0  0
   62.3330   31.8700   47.4100 C   0  0  0  0  0  0  0  0  0  0  0  0
   58.2280   31.5170   44.7700 S   0  0  0  0  0  0  0  0  0  0  0  0
   58.5080   31.6340   43.2980 O   0  0  0  0  0  0  0  0  0  0  0  0
   56.7530   31.3070   44.9690 O   0  0  0  0  0  0  0  0  0  0  0  0
   58.7510   33.0090   45.5450 C   0  0  0  0  0  0  0  0  0  0  0  0
   58.9620   34.1530   44.7660 C   0  0  0  0  0  0  0  0  0  0  0  0
   59.4060   35.3370   45.3610 C   0  0  0  0  0  0  0  0  0  0  0  0
   59.6460   35.3830   46.7370 C   0  0  0  0  0  0  0  0  0  0  0  0
   59.4390   34.2400   47.5300 C   0  0  0  0  0  0  0  0  0  0  0  0
   59.6980   34.2770   49.0090 C   0  0  0  0  0  0  0  0  0  0  0  0
   59.3410   33.0670   49.5750 F   0  0  0  0  0  0  0  0  0  0  0  0
   61.0410   34.5110   49.2430 F   0  0  0  0  0  0  0  0  0  0  0  0
   58.9930   33.0540   46.9260 C   0  0  0  0  0  0  0  0  0  0  0  0
   57.9850   28.3260   46.6550 C   0  0  0  0  0  0  0  0  0  0  0  0
   57.3970   27.0600   46.6800 C   0  0  0  0  0  0  0  0  0  0  0  0
   56.8713   23.2308   44.1913 H   0  0  0  0  0  0  0  0  0  0  0  0
   55.7694   24.5091   43.5762 H   0  0  0  0  0  0  0  0  0  0  0  0
   57.5454   24.7780   43.5762 H   0  0  0  0  0  0  0  0  0  0  0  0
   56.5620   23.5490   46.9300 H   0  0  0  0  0  0  0  0  0  0  0  0
   57.7059   26.2552   43.3714 H   0  0  0  0  0  0  0  0  0  0  0  0
   58.7613   28.5060   43.3329 H   0  0  0  0  0  0  0  0  0  0  0  0
   61.1351   29.6575   45.5639 H   0  0  0  0  0  0  0  0  0  0  0  0
   60.7425   31.4135   45.7788 H   0  0  0  0  0  0  0  0  0  0  0  0
   59.4715   30.5503   47.9299 H   0  0  0  0  0  0  0  0  0  0  0  0
   60.5977   29.1423   47.7550 H   0  0  0  0  0  0  0  0  0  0  0  0
   61.2139   30.1530   50.1477 H   0  0  0  0  0  0  0  0  0  0  0  0
   63.1067   31.3883   51.1981 H   0  0  0  0  0  0  0  0  0  0  0  0
   64.0046   33.2457   47.3889 H   0  0  0  0  0  0  0  0  0  0  0  0
   62.1151   32.0081   46.3407 H   0  0  0  0  0  0  0  0  0  0  0  0
   58.7777   34.1198   43.6821 H   0  0  0  0  0  0  0  0  0  0  0  0
   59.5668   36.2342   44.7453 H   0  0  0  0  0  0  0  0  0  0  0  0
   59.9979   36.3161   47.2013 H   0  0  0  0  0  0  0  0  0  0  0  0
   59.1008   35.0844   49.4579 H   0  0  0  0  0  0  0  0  0  0  0  0
   58.8324   32.1549   47.5390 H   0  0  0  0  0  0  0  0  0  0  0  0
   58.0571   28.9119   47.5832 H   0  0  0  0  0  0  0  0  0  0  0  0
   56.9905   26.6681   47.6240 H   0  0  0  0  0  0  0  0  0  0  0  0
  1  2  1  0
  2  3  1  1
  2  4  1  0
  4  5  2  0
  4  6  1  0
  2  7  1  0
  7  8  2  0
  8  9  1  0
  9 10  2  0
 10 11  1  0
 11 12  1  0
 12 13  1  0
 13 14  1  0
 14 15  2  0
 15 16  1  0
 16 17  2  0
 17 18  1  0
 18 19  2  0
 18 20  1  0
 17 21  1  0
 21 22  2  0
 11 23  1  0
 23 24  2  0
 23 25  2  0
 23 26  1  0
 26 27  2  0
 27 28  1  0
 28 29  2  0
 29 30  1  0
 30 31  1  0
 31 32  1  0
 31 33  1  0
 30 34  2  0
 10 35  1  0
 35 36  2  0
 36  7  1  0
 22 14  1  0
 34 26  1  0
  1 37  1  0
  1 38  1  0
  1 39  1  0
  3 40  1  0
  8 41  1  0
  9 42  1  0
 12 43  1  0
 12 44  1  0
 13 45  1  0
 13 46  1  0
 15 47  1  0
 16 48  1  0
 21 49  1  0
 22 50  1  0
 27 51  1  0
 28 52  1  0
 29 53  1  0
 31 54  1  0
 34 55  1  0
 35 56  1  0
 36 57  1  0
M  CHG  2   6  -1  20  -1
M  END
>  <UniqueID>  (18) 
17

>  <SMILES>  (18) 
C[C@](O)(C(=O)[O-])c1ccc(N(CCc2ccc(C(=O)[O-])cc2)S(=O)(=O)c2cccc(C(F)F)c2)cc1

>  <Energy>  (18) 
62.17402589865504

>  <Genealogy>  (18) 
CC(O)(C(=O)[O-])c1ccc(N(CCc2ccc(C(=O)[O-])cc2)S(=O)(=O)c2cccc(C(F)F)c2)cc1 (protonated)
C[C@](O)(C(=O)[O-])c1ccc(N(CCc2ccc(C(=O)[O-])cc2)S(=O)(=O)c2cccc(C(F)F)c2)cc1 (chirality)
C[C@](O)(C(=O)[O-])c1ccc(N(CCc2ccc(C(=O)[O-])cc2)S(=O)(=O)c2cccc(C(F)F)c2)cc1 (3D coordinates assigned)
C[C@](O)(C(=O)[O-])c1ccc(N(CCc2ccc(C(=O)[O-])cc2)S(=O)(=O)c2cccc(C(F)F)c2)cc1 (optimized conformer: 62.17402589865504 kcal/mol)

>  <smiles>  (18) 
CC(O)(C(=O)O)c1ccc(N(CCc2ccc(C(=O)O)cc2)S(=O)(=O)c2cccc(C(F)F)c2)cc1

>  <score_type>  (18) 
oracle

>  <origin>  (18) 
adg

>  <m_score__min__energy>  (18) 
-12.94

>  <m_primary>  (18) 
energy

$$$$
18:0
     RDKit          3D

 38 40  0  0  0  0  0  0  0  0999 V2000
   55.7320   24.1470   44.4170 C   0  0  0  0  0  0  0  0  0  0  0  0
   55.0860   24.7900   45.9460 S   0  0  0  0  0  0  0  0  0  0  0  0
   54.1020   25.8810   45.6350 O   0  0  0  0  0  0  0  0  0  0  0  0
   54.3770   23.7060   46.7100 O   0  0  0  0  0  0  0  0  0  0  0  0
   56.3680   25.4540   46.9080 N   0  0  0  0  0  0  0  0  0  0  0  0
   57.3370   26.4130   46.4650 C   0  0  0  0  0  0  0  0  0  0  0  0
   58.6630   26.2720   46.8940 C   0  0  0  0  0  0  0  0  0  0  0  0
   59.6410   27.1810   46.4810 C   0  0  0  0  0  0  0  0  0  0  0  0
   59.3040   28.2320   45.6250 C   0  0  0  0  0  0  0  0  0  0  0  0
   57.9890   28.3810   45.1720 C   0  0  0  0  0  0  0  0  0  0  0  0
   57.6740   29.4790   44.3020 N   0  0  0  0  0  0  0  0  0  0  0  0
   57.0310   30.7040   44.6770 C   0  0  0  0  0  0  0  0  0  0  0  0
   55.7960   30.8280   44.4580 O   0  0  0  0  0  0  0  0  0  0  0  0
   57.7620   31.8040   45.3480 C   0  0  0  0  0  0  0  0  0  0  0  0
   57.3480   33.1410   45.1940 C   0  0  0  0  0  0  0  0  0  0  0  0
   58.0220   34.1720   45.8580 C   0  0  0  0  0  0  0  0  0  0  0  0
   59.1150   33.8750   46.6740 C   0  0  0  0  0  0  0  0  0  0  0  0
   59.5620   32.5540   46.7970 C   0  0  0  0  0  0  0  0  0  0  0  0
   58.8860   31.5200   46.1430 C   0  0  0  0  0  0  0  0  0  0  0  0
   60.6860   32.2870   47.5850 O   0  0  0  0  0  0  0  0  0  0  0  0
   61.5360   33.3430   48.0400 C   0  0  0  0  0  0  0  0  0  0  0  0
   60.7000   34.5720   48.4240 C   0  0  0  0  0  0  0  0  0  0  0  0
   59.7760   34.8860   47.3790 O   0  0  0  0  0  0  0  0  0  0  0  0
   57.0000   27.4840   45.6170 C   0  0  0  0  0  0  0  0  0  0  0  0
   56.4964   23.3861   44.6331 H   0  0  0  0  0  0  0  0  0  0  0  0
   54.9158   23.6922   43.8365 H   0  0  0  0  0  0  0  0  0  0  0  0
   56.1830   24.9653   43.8365 H   0  0  0  0  0  0  0  0  0  0  0  0
   58.9363   25.4405   47.5602 H   0  0  0  0  0  0  0  0  0  0  0  0
   60.6779   27.0685   46.8307 H   0  0  0  0  0  0  0  0  0  0  0  0
   60.0769   28.9464   45.3054 H   0  0  0  0  0  0  0  0  0  0  0  0
   56.4895   33.3764   44.5478 H   0  0  0  0  0  0  0  0  0  0  0  0
   57.6913   35.2141   45.7372 H   0  0  0  0  0  0  0  0  0  0  0  0
   59.2342   30.4821   46.2506 H   0  0  0  0  0  0  0  0  0  0  0  0
   62.1020   33.0002   48.9187 H   0  0  0  0  0  0  0  0  0  0  0  0
   62.2277   33.6195   47.2306 H   0  0  0  0  0  0  0  0  0  0  0  0
   60.1440   34.3588   49.3489 H   0  0  0  0  0  0  0  0  0  0  0  0
   61.3717   35.4292   48.5791 H   0  0  0  0  0  0  0  0  0  0  0  0
   55.9558   27.6212   45.2995 H   0  0  0  0  0  0  0  0  0  0  0  0
  1  2  1  0
  2  3  2  0
  2  4  2  0
  2  5  1  0
  5  6  1  0
  6  7  2  0
  7  8  1  0
  8  9  2  0
  9 10  1  0
 10 11  1  0
 11 12  1  0
 12 13  2  0
 12 14  1  0
 14 15  2  0
 15 16  1  0
 16 17  2  0
 17 18  1  0
 18 19  2  0
 18 20  1  0
 20 21  1  0
 21 22  1  0
 22 23  1  0
 10 24  2  0
 24  6  1  0
 19 14  1  0
 23 17  1  0
  1 25  1  0
  1 26  1  0
  1 27  1  0
  7 28  1  0
  8 29  1  0
  9 30  1  0
 15 31  1  0
 16 32  1  0
 19 33  1  0
 21 34  1  0
 21 35  1  0
 22 36  1  0
 22 37  1  0
 24 38  1  0
M  CHG  2   5  -1  11  -1
M  END
>  <UniqueID>  (19) 
18

>  <SMILES>  (19) 
CS(=O)(=O)[N-]c1cccc([N-]C(=O)c2ccc3c(c2)OCCO3)c1

>  <Energy>  (19) 
44.983427020294

>  <Genealogy>  (19) 
CS(=O)(=O)[N-]c1cccc([N-]C(=O)c2ccc3c(c2)OCCO3)c1 (protonated)
CS(=O)(=O)[N-]c1cccc([N-]C(=O)c2ccc3c(c2)OCCO3)c1 (3D coordinates assigned)
CS(=O)(=O)[N-]c1cccc([N-]C(=O)c2ccc3c(c2)OCCO3)c1 (nonaromatic ring conformer: 44.983427020294 kcal/mol)

>  <smiles>  (19) 
CS(=O)(=O)Nc1cccc(NC(=O)c2ccc3c(c2)OCCO3)c1

>  <score_type>  (19) 
oracle

>  <origin>  (19) 
adg

>  <m_score__min__energy>  (19) 
-10.779999999999999

>  <m_primary>  (19) 
energy

$$$$
19:0
     RDKit          3D

 35 38  0  0  0  0  0  0  0  0999 V2000
   56.3100   30.5500   44.8620 O   0  0  0  0  0  0  0  0  0  0  0  0
   57.5440   30.6140   45.1070 C   0  0  0  0  0  0  0  0  0  0  0  0
   58.3010   29.3960   45.1600 N   0  0  0  0  0  0  0  0  0  0  0  0
   57.8370   28.1270   45.6470 C   0  0  0  0  0  0  0  0  0  0  0  0
   58.7220   27.1580   46.1540 C   0  0  0  0  0  0  0  0  0  0  0  0
   58.2320   25.9350   46.6210 C   0  0  0  0  0  0  0  0  0  0  0  0
   56.8640   25.6600   46.5660 C   0  0  0  0  0  0  0  0  0  0  0  0
   55.9820   26.6070   46.0360 C   0  0  0  0  0  0  0  0  0  0  0  0
   54.6210   26.3300   45.9730 O   0  0  0  0  0  0  0  0  0  0  0  0
   56.4700   27.8330   45.5700 C   0  0  0  0  0  0  0  0  0  0  0  0
   58.1620   31.9350   45.3410 C   0  0  0  0  0  0  0  0  0  0  0  0
   58.0160   32.9570   44.3790 C   0  0  0  0  0  0  0  0  0  0  0  0
   58.6500   34.2030   44.5480 C   0  0  0  0  0  0  0  0  0  0  0  0
   59.4360   34.4550   45.6830 C   0  0  0  0  0  0  0  0  0  0  0  0
   59.5580   33.4500   46.6380 C   0  0  0  0  0  0  0  0  0  0  0  0
   58.9270   32.2210   46.4850 C   0  0  0  0  0  0  0  0  0  0  0  0
   59.1900   31.4350   47.6970 C   0  0  0  0  0  0  0  0  0  0  0  0
   58.7120   30.3080   47.9910 O   0  0  0  0  0  0  0  0  0  0  0  0
   60.0450   32.2520   48.5500 C   0  0  0  0  0  0  0  0  0  0  0  0
   60.5880   31.9760   49.8040 C   0  0  0  0  0  0  0  0  0  0  0  0
   61.3770   32.9640   50.4160 C   0  0  0  0  0  0  0  0  0  0  0  0
   61.6040   34.2000   49.7720 C   0  0  0  0  0  0  0  0  0  0  0  0
   61.0420   34.4580   48.5090 C   0  0  0  0  0  0  0  0  0  0  0  0
   60.2650   33.4620   47.9180 C   0  0  0  0  0  0  0  0  0  0  0  0
   59.8023   27.3633   46.1830 H   0  0  0  0  0  0  0  0  0  0  0  0
   58.9258   25.1873   47.0329 H   0  0  0  0  0  0  0  0  0  0  0  0
   56.4804   24.6990   46.9394 H   0  0  0  0  0  0  0  0  0  0  0  0
   55.7756   28.5702   45.1406 H   0  0  0  0  0  0  0  0  0  0  0  0
   57.3992   32.7781   43.4859 H   0  0  0  0  0  0  0  0  0  0  0  0
   58.5282   34.9851   43.7842 H   0  0  0  0  0  0  0  0  0  0  0  0
   59.9428   35.4224   45.8145 H   0  0  0  0  0  0  0  0  0  0  0  0
   60.4038   31.0117   50.3002 H   0  0  0  0  0  0  0  0  0  0  0  0
   61.8212   32.7735   51.4041 H   0  0  0  0  0  0  0  0  0  0  0  0
   62.2241   34.9656   50.2612 H   0  0  0  0  0  0  0  0  0  0  0  0
   61.2106   35.4191   48.0011 H   0  0  0  0  0  0  0  0  0  0  0  0
  1  2  2  0
  2  3  1  0
  3  4  1  0
  4  5  2  0
  5  6  1  0
  6  7  2  0
  7  8  1  0
  8  9  1  0
  8 10  2  0
  2 11  1  0
 11 12  2  0
 12 13  1  0
 13 14  2  0
 14 15  1  0
 15 16  2  0
 16 17  1  0
 17 18  2  0
 17 19  1  0
 19 20  2  0
 20 21  1  0
 21 22  2  0
 22 23  1  0
 23 24  2  0
 10  4  1  0
 16 11  1  0
 24 19  1  0
 24 15  1  0
  5 25  1  0
  6 26  1  0
  7 27  1  0
 10 28  1  0
 12 29  1  0
 13 30  1  0
 14 31  1  0
 20 32  1  0
 21 33  1  0
 22 34  1  0
 23 35  1  0
M  CHG  2   3  -1   9  -1
M  END
>  <UniqueID>  (20) 
19

>  <SMILES>  (20) 
O=C([N-]c1cccc([O-])c1)c1cccc2c1C(=O)c1ccccc1-2

>  <Energy>  (20) 
81.90163350030308

>  <Genealogy>  (20) 
O=C([N-]c1cccc([O-])c1)c1cccc2c1C(=O)c1ccccc1-2 (protonated)
O=C([N-]c1cccc([O-])c1)c1cccc2c1C(=O)c1ccccc1-2 (3D coordinates assigned)
O=C([N-]c1cccc([O-])c1)c1cccc2c1C(=O)c1ccccc1-2 (nonaromatic ring conformer: 81.90163350030308 kcal/mol)

>  <smiles>  (20) 
O=C(Nc1cccc(O)c1)c1cccc2c1C(=O)c1ccccc1-2

>  <score_type>  (20) 
oracle

>  <origin>  (20) 
adg

>  <m_score__min__energy>  (20) 
-13.869999999999999

>  <m_primary>  (20) 
energy

$$$$
20:0
     RDKit          3D

 59 62  0  0  0  0  0  0  0  0999 V2000
   60.2660   30.9820   46.7040 N   0  0  0  0  0  0  0  0  0  0  0  0
   60.1900   29.6210   47.1720 C   0  0  0  0  0  0  0  0  0  0  0  0
   60.3910   29.3510   48.5450 C   0  0  0  0  0  0  0  0  0  0  0  0
   60.6270   30.4110   49.4970 N   0  0  0  0  0  0  0  0  0  0  0  0
   59.5020   30.9010   50.3060 C   0  0  0  0  0  0  0  0  0  0  0  0
   59.2220   32.3850   49.9960 C   0  0  0  0  0  0  0  0  0  0  0  0
   59.2580   32.7290   48.5570 N   0  0  0  0  0  0  0  0  0  0  0  0
   57.9480   32.6840   47.8890 C   0  0  0  0  0  0  0  0  0  0  0  0
   58.1430   32.8270   46.3640 C   0  0  0  0  0  0  0  0  0  0  0  0
   59.4420   33.2810   46.0150 O   0  0  0  0  0  0  0  0  0  0  0  0
   59.7930   34.4010   46.8030 C   0  0  0  0  0  0  0  0  0  0  0  0
   59.9710   33.9910   48.2760 C   0  0  0  0  0  0  0  0  0  0  0  0
   61.9690   30.8790   49.7560 C   0  0  0  0  0  0  0  0  0  0  0  0
   62.6420   30.3800   50.6990 O   0  0  0  0  0  0  0  0  0  0  0  0
   62.5960   31.9130   48.9110 C   0  0  0  0  0  0  0  0  0  0  0  0
   63.0030   31.5790   47.6100 C   0  0  0  0  0  0  0  0  0  0  0  0
   63.5640   32.5470   46.7740 C   0  0  0  0  0  0  0  0  0  0  0  0
   63.7370   33.8540   47.2370 C   0  0  0  0  0  0  0  0  0  0  0  0
   63.3610   34.1910   48.5400 C   0  0  0  0  0  0  0  0  0  0  0  0
   62.7960   33.2260   49.3830 C   0  0  0  0  0  0  0  0  0  0  0  0
   62.4210   33.6760   51.0420 Cl  0  0  0  0  0  0  0  0  0  0  0  0
   60.3660   28.0210   48.9730 C   0  0  0  0  0  0  0  0  0  0  0  0
   60.5530   27.7290   50.1830 O   0  0  0  0  0  0  0  0  0  0  0  0
   60.1340   27.0320   48.0830 N   0  0  0  0  0  0  0  0  0  0  0  0
   59.9320   27.2870   46.7690 C   0  0  0  0  0  0  0  0  0  0  0  0
   59.7300   26.3150   45.9930 O   0  0  0  0  0  0  0  0  0  0  0  0
   59.9590   28.5790   46.2950 N   0  0  0  0  0  0  0  0  0  0  0  0
   59.8020   28.8260   44.8430 C   0  0  0  0  0  0  0  0  0  0  0  0
   58.4360   29.3890   44.5330 C   0  0  0  0  0  0  0  0  0  0  0  0
   57.2780   28.7580   45.0190 C   0  0  0  0  0  0  0  0  0  0  0  0
   56.0150   29.2800   44.7290 C   0  0  0  0  0  0  0  0  0  0  0  0
   55.8960   30.4440   43.9640 C   0  0  0  0  0  0  0  0  0  0  0  0
   57.0420   31.0910   43.4940 C   0  0  0  0  0  0  0  0  0  0  0  0
   58.3080   30.5730   43.7830 C   0  0  0  0  0  0  0  0  0  0  0  0
   60.3650   31.7830   47.3620 H   0  0  0  0  0  0  0  0  0  0  0  0
   60.2320   31.2390   45.6970 H   0  0  0  0  0  0  0  0  0  0  0  0
   58.6049   30.3074   50.0762 H   0  0  0  0  0  0  0  0  0  0  0  0
   59.7590   30.8017   51.3709 H   0  0  0  0  0  0  0  0  0  0  0  0
   58.2234   32.6345   50.3840 H   0  0  0  0  0  0  0  0  0  0  0  0
   60.0264   32.9619   50.4757 H   0  0  0  0  0  0  0  0  0  0  0  0
   57.4577   31.7239   48.1076 H   0  0  0  0  0  0  0  0  0  0  0  0
   57.3199   33.5085   48.2574 H   0  0  0  0  0  0  0  0  0  0  0  0
   57.9758   31.8462   45.8949 H   0  0  0  0  0  0  0  0  0  0  0  0
   57.4230   33.5783   46.0074 H   0  0  0  0  0  0  0  0  0  0  0  0
   60.7365   34.8251   46.4290 H   0  0  0  0  0  0  0  0  0  0  0  0
   58.9882   35.1480   46.7370 H   0  0  0  0  0  0  0  0  0  0  0  0
   61.0422   33.8548   48.4859 H   0  0  0  0  0  0  0  0  0  0  0  0
   59.5539   34.7825   48.9160 H   0  0  0  0  0  0  0  0  0  0  0  0
   62.8793   30.5482   47.2464 H   0  0  0  0  0  0  0  0  0  0  0  0
   63.8696   32.2806   45.7514 H   0  0  0  0  0  0  0  0  0  0  0  0
   64.1697   34.6185   46.5750 H   0  0  0  0  0  0  0  0  0  0  0  0
   63.5094   35.2181   48.9049 H   0  0  0  0  0  0  0  0  0  0  0  0
   60.5691   29.5431   44.5154 H   0  0  0  0  0  0  0  0  0  0  0  0
   59.9151   27.8697   44.3113 H   0  0  0  0  0  0  0  0  0  0  0  0
   57.3666   27.8483   45.6310 H   0  0  0  0  0  0  0  0  0  0  0  0
   55.1127   28.7743   45.1032 H   0  0  0  0  0  0  0  0  0  0  0  0
   54.9005   30.8505   43.7321 H   0  0  0  0  0  0  0  0  0  0  0  0
   56.9478   32.0093   42.8957 H   0  0  0  0  0  0  0  0  0  0  0  0
   59.2078   31.0930   43.4227 H   0  0  0  0  0  0  0  0  0  0  0  0
  1  2  1  0
  2  3  2  0
  3  4  1  0
  4  5  1  0
  5  6  1  0
  6  7  1  0
  7  8  1  0
  8  9  1  0
  9 10  1  0
 10 11  1  0
 11 12  1  0
  4 13  1  0
 13 14  2  0
 13 15  1  0
 15 16  2  0
 16 17  1  0
 17 18  2  0
 18 19  1  0
 19 20  2  0
 20 21  1  0
  3 22  1  0
 22 23  2  0
 22 24  1  0
 24 25  1  0
 25 26  2  0
 25 27  1  0
 27 28  1  0
 28 29  1  0
 29 30  2  0
 30 31  1  0
 31 32  2  0
 32 33  1  0
 33 34  2  0
 27  2  1  0
 34 29  1  0
 12  7  1  0
 20 15  1  0
  1 35  1  0
  1 36  1  0
  5 37  1  0
  5 38  1  0
  6 39  1  0
  6 40  1  0
  8 41  1  0
  8 42  1  0
  9 43  1  0
  9 44  1  0
 11 45  1  0
 11 46  1  0
 12 47  1  0
 12 48  1  0
 16 49  1  0
 17 50  1  0
 18 51  1  0
 19 52  1  0
 28 53  1  0
 28 54  1  0
 30 55  1  0
 31 56  1  0
 32 57  1  0
 33 58  1  0
 34 59  1  0
M  CHG  1  24  -1
M  END
>  <UniqueID>  (21) 
20

>  <SMILES>  (21) 
Nc1c(N(CCN2CCOCC2)C(=O)c2ccccc2Cl)c(=O)[n-]c(=O)n1Cc1ccccc1

>  <Energy>  (21) 
92.59856883257724

>  <Genealogy>  (21) 
Nc1c(N(CCN2CCOCC2)C(=O)c2ccccc2Cl)c(=O)[n-]c(=O)n1Cc1ccccc1 (protonated)
Nc1c(N(CCN2CCOCC2)C(=O)c2ccccc2Cl)c(=O)[n-]c(=O)n1Cc1ccccc1 (3D coordinates assigned)
Nc1c(N(CCN2CCOCC2)C(=O)c2ccccc2Cl)c(=O)[n-]c(=O)n1Cc1ccccc1 (nonaromatic ring conformer: 92.59856883257724 kcal/mol)

>  <smiles>  (21) 
Nc1c(N(CCN2CCOCC2)C(=O)c2ccccc2Cl)c(=O)[nH]c(=O)n1Cc1ccccc1

>  <score_type>  (21) 
oracle

>  <origin>  (21) 
adg

>  <m_score__min__energy>  (21) 
-9.5399999999999991

>  <m_primary>  (21) 
energy

$$$$
21:0
     RDKit          3D

 51 53  0  0  1  0  0  0  0  0999 V2000
   60.7400   30.3110   49.5700 C   0  0  0  0  0  0  0  0  0  0  0  0
   59.0220   30.5110   49.2680 S   0  0  0  0  0  0  0  0  0  0  0  0
   58.2360   29.7600   50.2940 O   0  0  0  0  0  0  0  0  0  0  0  0
   58.7110   29.8430   47.9380 O   0  0  0  0  0  0  0  0  0  0  0  0
   58.5160   32.1370   49.1220 N   0  0  0  0  0  0  0  0  0  0  0  0
   58.6780   32.9340   47.9640 C   0  0  0  0  0  0  0  0  0  0  0  0
   59.3340   34.1410   47.9320 C   0  0  0  0  0  0  0  0  0  0  0  0
   59.4760   34.8990   46.7930 C   0  0  0  0  0  0  0  0  0  0  0  0
   58.9180   34.3930   45.6350 C   0  0  0  0  0  0  0  0  0  0  0  0
   58.2450   33.1890   45.5880 C   0  0  0  0  0  0  0  0  0  0  0  0
   57.6470   32.6570   44.3150 C   0  0  0  0  0  0  0  0  0  0  0  0
   56.7500   31.5530   44.6080 N   0  0  0  0  0  0  0  0  0  0  0  0
   57.0880   30.3300   44.5200 C   0  0  0  0  0  0  0  0  0  0  0  0
   56.9880   29.3580   45.4910 C   0  0  0  0  0  0  0  0  0  0  0  0
   57.4600   28.1830   44.9780 C   0  0  0  0  0  0  0  0  0  0  0  0
   57.5240   26.9030   45.6940 C   0  0  0  0  0  0  0  0  0  0  0  0
   57.9930   26.9130   46.9920 C   0  0  0  0  0  0  0  0  0  0  0  0
   58.0560   25.6960   47.6760 C   0  0  0  0  0  0  0  0  0  0  0  0
   57.6480   24.5260   47.0380 C   0  0  0  0  0  0  0  0  0  0  0  0
   57.6920   23.2910   47.6780 O   0  0  0  0  0  0  0  0  0  0  0  0
   57.1790   24.5350   45.7350 C   0  0  0  0  0  0  0  0  0  0  0  0
   56.7560   23.3480   45.0630 N   0  0  0  0  0  0  0  0  0  0  0  0
   57.8100   21.9800   44.9940 S   0  0  0  0  0  0  0  0  0  0  0  0
   57.7510   21.1460   43.4520 C   0  0  0  0  0  0  0  0  0  0  0  0
   59.2040   22.4640   45.2800 O   0  0  0  0  0  0  0  0  0  0  0  0
   57.4150   21.0760   46.1550 O   0  0  0  0  0  0  0  0  0  0  0  0
   57.1270   25.7500   45.0830 C   0  0  0  0  0  0  0  0  0  0  0  0
   57.8440   28.4290   43.7150 N   0  0  0  0  0  0  0  0  0  0  0  0
   57.6190   29.7070   43.4510 N   0  0  0  0  0  0  0  0  0  0  0  0
   58.1410   32.4800   46.7780 C   0  0  0  0  0  0  0  0  0  0  0  0
   60.9216   30.2899   50.6547 H   0  0  0  0  0  0  0  0  0  0  0  0
   61.0835   29.3668   49.1223 H   0  0  0  0  0  0  0  0  0  0  0  0
   61.2912   31.1510   49.1223 H   0  0  0  0  0  0  0  0  0  0  0  0
   58.0450   32.5970   49.9550 H   0  0  0  0  0  0  0  0  0  0  0  0
   59.7691   34.5216   48.8678 H   0  0  0  0  0  0  0  0  0  0  0  0
   60.0082   35.8616   46.8037 H   0  0  0  0  0  0  0  0  0  0  0  0
   59.0145   34.9766   44.7076 H   0  0  0  0  0  0  0  0  0  0  0  0
   57.0852   33.4591   43.8140 H   0  0  0  0  0  0  0  0  0  0  0  0
   58.4550   32.3001   43.6594 H   0  0  0  0  0  0  0  0  0  0  0  0
   56.5945   29.5034   46.5079 H   0  0  0  0  0  0  0  0  0  0  0  0
   58.3077   27.8506   47.4736 H   0  0  0  0  0  0  0  0  0  0  0  0
   58.4253   25.6617   48.7116 H   0  0  0  0  0  0  0  0  0  0  0  0
   58.1480   22.5390   47.1730 H   0  0  0  0  0  0  0  0  0  0  0  0
   55.8100   23.3670   44.6360 H   0  0  0  0  0  0  0  0  0  0  0  0
   57.6743   20.0622   43.6240 H   0  0  0  0  0  0  0  0  0  0  0  0
   56.8749   21.4898   42.8825 H   0  0  0  0  0  0  0  0  0  0  0  0
   58.6667   21.3630   42.8825 H   0  0  0  0  0  0  0  0  0  0  0  0
   56.7573   25.7896   44.0478 H   0  0  0  0  0  0  0  0  0  0  0  0
   58.2480   27.7340   43.0610 H   0  0  0  0  0  0  0  0  0  0  0  0
   57.8420   30.1410   42.5150 H   0  0  0  0  0  0  0  0  0  0  0  0
   57.6087   31.5174   46.7740 H   0  0  0  0  0  0  0  0  0  0  0  0
  1  2  1  0
  2  3  2  0
  2  4  2  0
  2  5  1  0
  5  6  1  0
  6  7  2  0
  7  8  1  0
  8  9  2  0
  9 10  1  0
 10 11  1  0
 11 12  1  0
 12 13  2  0
 13 14  1  0
 14 15  2  0
 15 16  1  0
 16 17  2  0
 17 18  1  0
 18 19  2  0
 19 20  1  0
 19 21  1  0
 21 22  1  0
 22 23  1  0
 23 24  1  0
 23 25  2  0
 23 26  2  0
 21 27  2  0
 15 28  1  0
 28 29  1  0
 10 30  2  0
 30  6  1  0
 29 13  1  0
 27 16  1  0
  1 31  1  0
  1 32  1  0
  1 33  1  0
  5 34  1  0
  7 35  1  0
  8 36  1  0
  9 37  1  0
 11 38  1  0
 11 39  1  0
 14 40  1  0
 17 41  1  0
 18 42  1  0
 20 43  1  0
 22 44  1  0
 24 45  1  0
 24 46  1  0
 24 47  1  0
 27 48  1  0
 28 49  1  0
 29 50  1  0
 30 51  1  0
M  END
>  <smiles>  (22) 
CS(=O)(=O)Nc1cccc(CN=c2cc(-c3ccc(O)c(NS(C)(=O)=O)c3)[nH][nH]2)c1

>  <score_type>  (22) 
oracle

>  <origin>  (22) 
adg

>  <m_score__min__energy>  (22) 
-9.7599999999999998

>  <m_primary>  (22) 
energy

$$$$
22:0
     RDKit          3D

 42 44  0  0  0  0  0  0  0  0999 V2000
   59.6880   25.9990   45.8720 C   0  0  0  0  0  0  0  0  0  0  0  0
   58.2860   25.4960   46.0770 C   0  0  0  0  0  0  0  0  0  0  0  0
   58.0720   24.1500   46.4220 C   0  0  0  0  0  0  0  0  0  0  0  0
   56.7780   23.6710   46.6330 C   0  0  0  0  0  0  0  0  0  0  0  0
   55.6830   24.5250   46.4940 C   0  0  0  0  0  0  0  0  0  0  0  0
   55.8770   25.8650   46.1460 C   0  0  0  0  0  0  0  0  0  0  0  0
   54.7690   26.6870   45.9720 O   0  0  0  0  0  0  0  0  0  0  0  0
   57.1800   26.3670   45.9550 C   0  0  0  0  0  0  0  0  0  0  0  0
   57.3790   27.7400   45.5860 N   0  0  0  0  0  0  0  0  0  0  0  0
   57.7710   28.1400   44.2620 C   0  0  0  0  0  0  0  0  0  0  0  0
   57.9960   27.2710   43.3780 O   0  0  0  0  0  0  0  0  0  0  0  0
   57.9580   29.5220   43.9350 N   0  0  0  0  0  0  0  0  0  0  0  0
   58.1560   30.5880   44.8730 C   0  0  0  0  0  0  0  0  0  0  0  0
   58.9260   30.4110   46.0350 C   0  0  0  0  0  0  0  0  0  0  0  0
   59.0770   31.4590   46.9460 C   0  0  0  0  0  0  0  0  0  0  0  0
   58.4340   32.6870   46.7310 C   0  0  0  0  0  0  0  0  0  0  0  0
   58.6270   33.7600   47.6680 N   0  0  0  0  0  0  0  0  0  0  0  0
   59.7560   33.8750   48.5510 C   0  0  0  0  0  0  0  0  0  0  0  0
   61.0290   34.1230   48.0130 C   0  0  0  0  0  0  0  0  0  0  0  0
   62.1450   34.2120   48.8510 C   0  0  0  0  0  0  0  0  0  0  0  0
   62.0010   34.0390   50.2300 C   0  0  0  0  0  0  0  0  0  0  0  0
   60.7420   33.7700   50.7720 C   0  0  0  0  0  0  0  0  0  0  0  0
   59.6240   33.6800   49.9380 C   0  0  0  0  0  0  0  0  0  0  0  0
   57.6600   32.8590   45.5710 C   0  0  0  0  0  0  0  0  0  0  0  0
   57.5100   31.8100   44.6590 C   0  0  0  0  0  0  0  0  0  0  0  0
   60.1630   26.1694   46.8494 H   0  0  0  0  0  0  0  0  0  0  0  0
   60.2667   25.2524   45.3083 H   0  0  0  0  0  0  0  0  0  0  0  0
   59.6601   26.9432   45.3083 H   0  0  0  0  0  0  0  0  0  0  0  0
   58.9301   23.4697   46.5264 H   0  0  0  0  0  0  0  0  0  0  0  0
   56.6210   22.6180   46.9095 H   0  0  0  0  0  0  0  0  0  0  0  0
   54.6648   24.1428   46.6587 H   0  0  0  0  0  0  0  0  0  0  0  0
   57.1910   28.4710   46.3070 H   0  0  0  0  0  0  0  0  0  0  0  0
   59.4118   29.4432   46.2280 H   0  0  0  0  0  0  0  0  0  0  0  0
   59.7048   31.3203   47.8386 H   0  0  0  0  0  0  0  0  0  0  0  0
   57.8970   34.5080   47.7100 H   0  0  0  0  0  0  0  0  0  0  0  0
   61.1491   34.2479   46.9267 H   0  0  0  0  0  0  0  0  0  0  0  0
   63.1375   34.4185   48.4240 H   0  0  0  0  0  0  0  0  0  0  0  0
   62.8788   34.1146   50.8886 H   0  0  0  0  0  0  0  0  0  0  0  0
   60.6302   33.6287   51.8572 H   0  0  0  0  0  0  0  0  0  0  0  0
   58.6367   33.4557   50.3680 H   0  0  0  0  0  0  0  0  0  0  0  0
   57.1692   33.8246   45.3793 H   0  0  0  0  0  0  0  0  0  0  0  0
   56.8800   31.9465   43.7676 H   0  0  0  0  0  0  0  0  0  0  0  0
  1  2  1  0
  2  3  2  0
  3  4  1  0
  4  5  2  0
  5  6  1  0
  6  7  1  0
  6  8  2  0
  8  9  1  0
  9 10  1  0
 10 11  2  0
 10 12  1  0
 12 13  1  0
 13 14  2  0
 14 15  1  0
 15 16  2  0
 16 17  1  0
 17 18  1  0
 18 19  2  0
 19 20  1  0
 20 21  2  0
 21 22  1  0
 22 23  2  0
 16 24  1  0
 24 25  2  0
  8  2  1  0
 25 13  1  0
 23 18  1  0
  1 26  1  0
  1 27  1  0
  1 28  1  0
  3 29  1  0
  4 30  1  0
  5 31  1  0
  9 32  1  0
 14 33  1  0
 15 34  1  0
 17 35  1  0
 19 36  1  0
 20 37  1  0
 21 38  1  0
 22 39  1  0
 23 40  1  0
 24 41  1  0
 25 42  1  0
M  CHG  2   7  -1  12  -1
M  END
>  <UniqueID>  (23) 
21

>  <SMILES>  (23) 
Cc1cccc([O-])c1NC(=O)[N-]c1ccc(Nc2ccccc2)cc1

>  <Energy>  (23) 
59.85420945548387

>  <Genealogy>  (23) 
Cc1cccc([O-])c1NC(=O)[N-]c1ccc(Nc2ccccc2)cc1 (protonated)
Cc1cccc([O-])c1NC(=O)[N-]c1ccc(Nc2ccccc2)cc1 (3D coordinates assigned)
Cc1cccc([O-])c1NC(=O)[N-]c1ccc(Nc2ccccc2)cc1 (optimized conformer: 59.85420945548387 kcal/mol)

>  <smiles>  (23) 
Cc1cccc(O)c1NC(=O)Nc1ccc(Nc2ccccc2)cc1

>  <score_type>  (23) 
oracle

>  <origin>  (23) 
adg

>  <m_score__min__energy>  (23) 
-14.33

>  <m_primary>  (23) 
energy

$$$$
23:0
     RDKit          3D

 60 63  0  0  0  0  0  0  0  0999 V2000
   54.6050   27.1010   46.7450 H   0  0  0  0  0  0  0  0  0  0  0  0
   55.2330   26.6830   46.0210 N   0  0  0  0  0  0  0  0  0  0  0  0
   56.6110   27.0420   45.9540 C   0  0  0  0  0  0  0  0  0  0  0  0
   57.4930   26.1600   46.1310 O   0  0  0  0  0  0  0  0  0  0  0  0
   57.0050   28.4230   45.6030 C   0  0  0  0  0  0  0  0  0  0  0  0
   56.1540   29.1190   44.7330 C   0  0  0  0  0  0  0  0  0  0  0  0
   55.3755   28.5719   44.1811 H   0  0  0  0  0  0  0  0  0  0  0  0
   56.2790   30.4570   44.5640 N   0  0  0  0  0  0  0  0  0  0  0  0
   57.2210   31.1790   45.2170 C   0  0  0  0  0  0  0  0  0  0  0  0
   57.2790   32.5620   45.0250 C   0  0  0  0  0  0  0  0  0  0  0  0
   56.5575   33.0496   44.3529 H   0  0  0  0  0  0  0  0  0  0  0  0
   58.2510   33.3360   45.6830 C   0  0  0  0  0  0  0  0  0  0  0  0
   58.3340   34.7280   45.5160 O   0  0  0  0  0  0  0  0  0  0  0  0
   59.4190   35.4010   44.8860 C   0  0  0  0  0  0  0  0  0  0  0  0
   60.0884   35.8162   45.6538 H   0  0  0  0  0  0  0  0  0  0  0  0
   59.9769   34.6901   44.2587 H   0  0  0  0  0  0  0  0  0  0  0  0
   59.0300   36.2166   44.2587 H   0  0  0  0  0  0  0  0  0  0  0  0
   59.1730   32.7130   46.5350 C   0  0  0  0  0  0  0  0  0  0  0  0
   60.1340   33.5150   47.1730 O   0  0  0  0  0  0  0  0  0  0  0  0
   61.5340   33.4580   46.9170 C   0  0  0  0  0  0  0  0  0  0  0  0
   62.0806   33.4357   47.8713 H   0  0  0  0  0  0  0  0  0  0  0  0
   61.7647   32.5497   46.3410 H   0  0  0  0  0  0  0  0  0  0  0  0
   61.8378   34.3445   46.3410 H   0  0  0  0  0  0  0  0  0  0  0  0
   59.1170   31.3180   46.7260 C   0  0  0  0  0  0  0  0  0  0  0  0
   59.8459   30.8317   47.3910 H   0  0  0  0  0  0  0  0  0  0  0  0
   58.1390   30.5370   46.0760 C   0  0  0  0  0  0  0  0  0  0  0  0
   58.0790   29.1280   46.2270 C   0  0  0  0  0  0  0  0  0  0  0  0
   59.0340   28.5420   46.9070 N   0  0  0  0  0  0  0  0  0  0  0  0
   59.4110   28.6980   48.2820 C   0  0  0  0  0  0  0  0  0  0  0  0
   60.5720   28.0730   48.7490 C   0  0  0  0  0  0  0  0  0  0  0  0
   61.1996   27.4938   48.0557 H   0  0  0  0  0  0  0  0  0  0  0  0
   60.9370   28.1820   50.0930 C   0  0  0  0  0  0  0  0  0  0  0  0
   61.8676   27.7139   50.4463 H   0  0  0  0  0  0  0  0  0  0  0  0
   60.1250   28.8840   50.9940 C   0  0  0  0  0  0  0  0  0  0  0  0
   60.6280   29.0170   52.7160 S   0  0  0  0  0  0  0  0  0  0  0  0
   60.8460   30.7980   52.6270 C   0  0  0  0  0  0  0  0  0  0  0  0
   61.7580   31.4220   51.8470 N   0  0  0  0  0  0  0  0  0  0  0  0
   62.6620   30.8040   50.8720 C   0  0  0  0  0  0  0  0  0  0  0  0
   62.6061   29.7097   50.9690 H   0  0  0  0  0  0  0  0  0  0  0  0
   63.6878   31.1493   51.0681 H   0  0  0  0  0  0  0  0  0  0  0  0
   62.2690   31.2030   49.4550 C   0  0  0  0  0  0  0  0  0  0  0  0
   61.4976   31.9862   49.4952 H   0  0  0  0  0  0  0  0  0  0  0  0
   63.1527   31.5857   48.9234 H   0  0  0  0  0  0  0  0  0  0  0  0
   61.8730   30.3252   48.9234 H   0  0  0  0  0  0  0  0  0  0  0  0
   61.5580   32.7440   52.0520 C   0  0  0  0  0  0  0  0  0  0  0  0
   62.3420   33.8460   51.4030 C   0  0  0  0  0  0  0  0  0  0  0  0
   62.7937   34.4810   52.1794 H   0  0  0  0  0  0  0  0  0  0  0  0
   63.1354   33.4119   50.7769 H   0  0  0  0  0  0  0  0  0  0  0  0
   61.6717   34.4532   50.7769 H   0  0  0  0  0  0  0  0  0  0  0  0
   60.5430   32.8900   52.9830 C   0  0  0  0  0  0  0  0  0  0  0  0
   59.9780   34.1720   53.5060 C   0  0  0  0  0  0  0  0  0  0  0  0
   59.9857   34.1544   54.6058 H   0  0  0  0  0  0  0  0  0  0  0  0
   60.5882   35.0145   53.1484 H   0  0  0  0  0  0  0  0  0  0  0  0
   58.9445   34.2901   53.1484 H   0  0  0  0  0  0  0  0  0  0  0  0
   60.0900   31.6680   53.3250 N   0  0  0  0  0  0  0  0  0  0  0  0
   59.3140   31.4440   53.9860 H   0  0  0  0  0  0  0  0  0  0  0  0
   58.9380   29.4860   50.5340 C   0  0  0  0  0  0  0  0  0  0  0  0
   57.8960   30.4080   51.6100 Cl  0  0  0  0  0  0  0  0  0  0  0  0
   58.5780   29.3730   49.1870 C   0  0  0  0  0  0  0  0  0  0  0  0
   57.6350   29.8165   48.8348 H   0  0  0  0  0  0  0  0  0  0  0  0
  1  2  1  0
  2  3  1  0
  3  4  2  0
  3  5  1  0
  5  6  2  0
  6  7  1  0
  6  8  1  0
  8  9  1  0
  9 10  2  0
 10 11  1  0
 10 12  1  0
 12 13  1  0
 13 14  1  0
 14 15  1  0
 14 16  1  0
 14 17  1  0
 12 18  2  0
 18 19  1  0
 19 20  1  0
 20 21  1  0
 20 22  1  0
 20 23  1  0
 18 24  1  0
 24 25  1  0
 24 26  2  0
 26 27  1  0
 27 28  2  0
 28 29  1  0
 29 30  2  0
 30 31  1  0
 30 32  1  0
 32 33  1  0
 32 34  2  0
 34 35  1  0
 35 36  1  0
 36 37  1  0
 37 38  1  0
 38 39  1  0
 38 40  1  0
 38 41  1  0
 41 42  1  0
 41 43  1  0
 41 44  1  0
 37 45  1  0
 45 46  1  0
 46 47  1  0
 46 48  1  0
 46 49  1  0
 45 50  2  0
 50 51  1  0
 51 52  1  0
 51 53  1  0
 51 54  1  0
 50 55  1  0
 55 56  1  0
 34 57  1  0
 57 58  1  0
 57 59  2  0
 59 60  1  0
 27  5  1  0
 59 29  1  0
 26  9  1  0
 55 36  2  0
M  CHG  3   2  -1   8  -1  55   1
M  END
>  <UniqueID>  (24) 
22

>  <SMILES>  (24) 
CCn1c(Sc2ccc(/N=c3\c(C([NH-])=O)c[n-]c4cc(OC)c(OC)cc34)cc2Cl)[nH+]c(C)c1C

>  <Energy>  (24) 
111.00601466668027

>  <Genealogy>  (24) 
CCn1c(Sc2ccc(N=c3c(C([NH-])=O)c[n-]c4cc(OC)c(OC)cc34)cc2Cl)[nH+]c(C)c1C (protonated)
CCn1c(Sc2ccc(/N=c3\c(C([NH-])=O)c[n-]c4cc(OC)c(OC)cc34)cc2Cl)[nH+]c(C)c1C (cis-trans isomerization)
CCn1c(Sc2ccc(/N=c3\c(C([NH-])=O)c[n-]c4cc(OC)c(OC)cc34)cc2Cl)[nH+]c(C)c1C (3D coordinates assigned)
CCn1c(Sc2ccc(/N=c3\c(C([NH-])=O)c[n-]c4cc(OC)c(OC)cc34)cc2Cl)[nH+]c(C)c1C (optimized conformer: 111.00601466668027 kcal/mol)

>  <smiles>  (24) 
CCn1c(Sc2ccc(N=c3c(C(N)=O)c[nH]c4cc(OC)c(OC)cc34)cc2Cl)nc(C)c1C

>  <score_type>  (24) 
oracle

>  <origin>  (24) 
adg

>  <m_score__min__energy>  (24) 
-11.140000000000001

>  <m_primary>  (24) 
energy

$$$$
24:0
     RDKit          3D

 45 48  0  0  0  0  0  0  0  0999 V2000
   54.7690   29.5780   55.2830 O   0  0  0  0  0  0  0  0  0  0  0  0
   54.8280   29.6550   54.0260 C   0  0  0  0  0  0  0  0  0  0  0  0
   56.0140   29.0350   53.3320 C   0  0  0  0  0  0  0  0  0  0  0  0
   56.7500   30.0310   52.5570 N   0  0  0  0  0  0  0  0  0  0  0  0
   57.6350   30.9300   53.0220 C   0  0  0  0  0  0  0  0  0  0  0  0
   58.0460   31.6580   51.9280 C   0  0  0  0  0  0  0  0  0  0  0  0
   58.8830   32.8940   51.9560 C   0  0  0  0  0  0  0  0  0  0  0  0
   59.9200   32.8030   50.9340 N   0  0  0  0  0  0  0  0  0  0  0  0
   59.8440   33.4780   49.6720 C   0  0  0  0  0  0  0  0  0  0  0  0
   60.4390   34.5790   49.5130 O   0  0  0  0  0  0  0  0  0  0  0  0
   59.1500   32.8480   48.5280 C   0  0  0  0  0  0  0  0  0  0  0  0
   58.5700   33.6870   47.5600 C   0  0  0  0  0  0  0  0  0  0  0  0
   57.9860   33.1580   46.4100 C   0  0  0  0  0  0  0  0  0  0  0  0
   57.9820   31.7800   46.1980 C   0  0  0  0  0  0  0  0  0  0  0  0
   57.4340   31.2740   45.0600 N   0  0  0  0  0  0  0  0  0  0  0  0
   57.3990   29.9370   44.8160 C   0  0  0  0  0  0  0  0  0  0  0  0
   57.9290   29.0420   45.7450 C   0  0  0  0  0  0  0  0  0  0  0  0
   58.4980   29.5280   46.9230 C   0  0  0  0  0  0  0  0  0  0  0  0
   58.5370   30.9130   47.1660 C   0  0  0  0  0  0  0  0  0  0  0  0
   59.0960   31.4420   48.3490 C   0  0  0  0  0  0  0  0  0  0  0  0
   59.5500   30.5580   49.3330 O   0  0  0  0  0  0  0  0  0  0  0  0
   57.4090   31.1870   50.8360 N   0  0  0  0  0  0  0  0  0  0  0  0
   56.6390   30.1900   51.2470 N   0  0  0  0  0  0  0  0  0  0  0  0
   53.7490   30.3660   53.2850 C   0  0  0  0  0  0  0  0  0  0  0  0
   52.4690   30.4900   53.8600 C   0  0  0  0  0  0  0  0  0  0  0  0
   51.4450   31.1590   53.1820 C   0  0  0  0  0  0  0  0  0  0  0  0
   51.6830   31.7120   51.9220 C   0  0  0  0  0  0  0  0  0  0  0  0
   50.6600   32.3630   51.2450 O   0  0  0  0  0  0  0  0  0  0  0  0
   52.9490   31.6010   51.3400 C   0  0  0  0  0  0  0  0  0  0  0  0
   53.9750   30.9320   52.0120 C   0  0  0  0  0  0  0  0  0  0  0  0
   56.6851   28.5999   54.0872 H   0  0  0  0  0  0  0  0  0  0  0  0
   55.6493   28.2574   52.6447 H   0  0  0  0  0  0  0  0  0  0  0  0
   57.9637   31.0578   54.0639 H   0  0  0  0  0  0  0  0  0  0  0  0
   58.2489   33.7707   51.7577 H   0  0  0  0  0  0  0  0  0  0  0  0
   59.3520   32.9966   52.9457 H   0  0  0  0  0  0  0  0  0  0  0  0
   58.5772   34.7764   47.7124 H   0  0  0  0  0  0  0  0  0  0  0  0
   57.5276   33.8289   45.6686 H   0  0  0  0  0  0  0  0  0  0  0  0
   56.9518   29.5605   43.8842 H   0  0  0  0  0  0  0  0  0  0  0  0
   57.8987   27.9598   45.5505 H   0  0  0  0  0  0  0  0  0  0  0  0
   58.9160   28.8280   47.6615 H   0  0  0  0  0  0  0  0  0  0  0  0
   59.4840   30.7470   50.3240 H   0  0  0  0  0  0  0  0  0  0  0  0
   52.2730   30.0565   54.8518 H   0  0  0  0  0  0  0  0  0  0  0  0
   50.4500   31.2498   53.6422 H   0  0  0  0  0  0  0  0  0  0  0  0
   53.1380   32.0417   50.3500 H   0  0  0  0  0  0  0  0  0  0  0  0
   54.9672   30.8457   51.5451 H   0  0  0  0  0  0  0  0  0  0  0  0
  1  2  2  0
  2  3  1  0
  3  4  1  0
  4  5  1  0
  5  6  2  0
  6  7  1  0
  7  8  1  0
  8  9  1  0
  9 10  2  0
  9 11  1  0
 11 12  2  0
 12 13  1  0
 13 14  2  0
 14 15  1  0
 15 16  2  0
 16 17  1  0
 17 18  2  0
 18 19  1  0
 19 20  2  0
 20 21  1  0
  6 22  1  0
 22 23  2  0
  2 24  1  0
 24 25  2  0
 25 26  1  0
 26 27  2  0
 27 28  1  0
 27 29  1  0
 29 30  2  0
 23  4  1  0
 30 24  1  0
 20 11  1  0
 19 14  1  0
  3 31  1  0
  3 32  1  0
  5 33  1  0
  7 34  1  0
  7 35  1  0
 12 36  1  0
 13 37  1  0
 16 38  1  0
 17 39  1  0
 18 40  1  0
 21 41  1  0
 25 42  1  0
 26 43  1  0
 29 44  1  0
 30 45  1  0
M  CHG  2   8  -1  28  -1
M  END
>  <UniqueID>  (25) 
23

>  <SMILES>  (25) 
O=C(Cn1cc(C[N-]C(=O)c2ccc3ncccc3c2O)nn1)c1ccc([O-])cc1

>  <Energy>  (25) 
90.0974488418486

>  <Genealogy>  (25) 
O=C(Cn1cc(C[N-]C(=O)c2ccc3ncccc3c2O)nn1)c1ccc([O-])cc1 (protonated)
O=C(Cn1cc(C[N-]C(=O)c2ccc3ncccc3c2O)nn1)c1ccc([O-])cc1 (3D coordinates assigned)
O=C(Cn1cc(C[N-]C(=O)c2ccc3ncccc3c2O)nn1)c1ccc([O-])cc1 (optimized conformer: 90.0974488418486 kcal/mol)

>  <smiles>  (25) 
O=C(Cn1cc(CNC(=O)c2ccc3ncccc3c2O)nn1)c1ccc(O)cc1

>  <score_type>  (25) 
oracle

>  <origin>  (25) 
adg

>  <m_score__min__energy>  (25) 
-13.9

>  <m_primary>  (25) 
energy

$$$$
25:0
     RDKit          3D

 60 61  0  0  0  0  0  0  0  0999 V2000
   58.4950   32.1570   49.3490 C   0  0  0  0  0  0  0  0  0  0  0  0
   59.2430   33.2320   48.6800 N   0  0  0  0  0  0  0  0  0  0  0  0
   59.7060   34.2380   49.6480 C   0  0  0  0  0  0  0  0  0  0  0  0
   60.3290   32.7250   47.8100 C   0  0  0  0  0  0  0  0  0  0  0  0
   60.3860   33.3760   46.4130 C   0  0  0  0  0  0  0  0  0  0  0  0
   59.2610   34.3110   46.2580 N   0  0  0  0  0  0  0  0  0  0  0  0
   58.8960   34.5150   44.8450 C   0  0  0  0  0  0  0  0  0  0  0  0
   58.4040   33.2210   44.1780 C   0  0  0  0  0  0  0  0  0  0  0  0
   57.3060   32.5810   44.9890 C   0  0  0  0  0  0  0  0  0  0  0  0
   56.6360   33.2950   45.7790 O   0  0  0  0  0  0  0  0  0  0  0  0
   56.9480   31.1990   44.8320 N   0  0  0  0  0  0  0  0  0  0  0  0
   57.5510   30.0840   45.5030 C   0  0  0  0  0  0  0  0  0  0  0  0
   57.5250   28.7920   44.9520 C   0  0  0  0  0  0  0  0  0  0  0  0
   58.0970   27.7210   45.6440 C   0  0  0  0  0  0  0  0  0  0  0  0
   58.7290   27.9380   46.8740 C   0  0  0  0  0  0  0  0  0  0  0  0
   59.3970   26.5510   47.7930 S   0  0  0  0  0  0  0  0  0  0  0  0
   58.5350   25.3560   46.7680 C   0  0  0  0  0  0  0  0  0  0  0  0
   59.2120   24.6930   45.7400 C   0  0  0  0  0  0  0  0  0  0  0  0
   58.5220   23.8090   44.9060 C   0  0  0  0  0  0  0  0  0  0  0  0
   57.1540   23.5710   45.1000 C   0  0  0  0  0  0  0  0  0  0  0  0
   56.4510   22.7500   44.1440 C   0  0  0  0  0  0  0  0  0  0  0  0
   55.8890   22.0930   43.3740 N   0  0  0  0  0  0  0  0  0  0  0  0
   56.4800   24.2010   46.1730 C   0  0  0  0  0  0  0  0  0  0  0  0
   55.0810   24.0040   46.4240 N   0  0  0  0  0  0  0  0  0  0  0  0
   54.0170   24.7040   45.7670 C   0  0  0  0  0  0  0  0  0  0  0  0
   54.0560   25.9610   45.6550 O   0  0  0  0  0  0  0  0  0  0  0  0
   52.9010   23.9370   45.1220 C   0  0  0  0  0  0  0  0  0  0  0  0
   52.3290   22.9140   46.0650 C   0  0  0  0  0  0  0  0  0  0  0  0
   52.8950   21.7180   46.2490 C   0  0  0  0  0  0  0  0  0  0  0  0
   54.1140   21.4270   45.6450 O   0  0  0  0  0  0  0  0  0  0  0  0
   52.2960   20.7780   47.0240 F   0  0  0  0  0  0  0  0  0  0  0  0
   57.1750   25.1100   46.9810 C   0  0  0  0  0  0  0  0  0  0  0  0
   58.8140   29.2350   47.3950 C   0  0  0  0  0  0  0  0  0  0  0  0
   58.2280   30.3040   46.7090 C   0  0  0  0  0  0  0  0  0  0  0  0
   58.5780   32.2762   50.4394 H   0  0  0  0  0  0  0  0  0  0  0  0
   57.4365   32.2083   49.0540 H   0  0  0  0  0  0  0  0  0  0  0  0
   58.9110   31.1824   49.0540 H   0  0  0  0  0  0  0  0  0  0  0  0
   59.5361   33.8688   50.6701 H   0  0  0  0  0  0  0  0  0  0  0  0
   60.7800   34.4233   49.4989 H   0  0  0  0  0  0  0  0  0  0  0  0
   59.1482   35.1743   49.4989 H   0  0  0  0  0  0  0  0  0  0  0  0
   61.2885   32.9104   48.3149 H   0  0  0  0  0  0  0  0  0  0  0  0
   60.1273   31.6557   47.6489 H   0  0  0  0  0  0  0  0  0  0  0  0
   61.3342   33.9225   46.3022 H   0  0  0  0  0  0  0  0  0  0  0  0
   60.3197   32.5938   45.6425 H   0  0  0  0  0  0  0  0  0  0  0  0
   58.4320   33.9390   46.7810 H   0  0  0  0  0  0  0  0  0  0  0  0
   58.0953   35.2673   44.7914 H   0  0  0  0  0  0  0  0  0  0  0  0
   59.7968   34.8488   44.3092 H   0  0  0  0  0  0  0  0  0  0  0  0
   58.0198   33.4567   43.1746 H   0  0  0  0  0  0  0  0  0  0  0  0
   59.2471   32.5176   44.1115 H   0  0  0  0  0  0  0  0  0  0  0  0
   57.0530   28.6228   43.9729 H   0  0  0  0  0  0  0  0  0  0  0  0
   58.0505   26.7064   45.2216 H   0  0  0  0  0  0  0  0  0  0  0  0
   60.2874   24.8671   45.5877 H   0  0  0  0  0  0  0  0  0  0  0  0
   59.0557   23.2966   44.0920 H   0  0  0  0  0  0  0  0  0  0  0  0
   52.1062   24.6385   44.8283 H   0  0  0  0  0  0  0  0  0  0  0  0
   53.3011   23.4139   44.2410 H   0  0  0  0  0  0  0  0  0  0  0  0
   51.4129   23.1593   46.6224 H   0  0  0  0  0  0  0  0  0  0  0  0
   54.7150   22.1730   45.3180 H   0  0  0  0  0  0  0  0  0  0  0  0
   56.6463   25.6350   47.7902 H   0  0  0  0  0  0  0  0  0  0  0  0
   59.3415   29.4132   48.3437 H   0  0  0  0  0  0  0  0  0  0  0  0
   58.2993   31.3223   47.1188 H   0  0  0  0  0  0  0  0  0  0  0  0
  1  2  1  0
  2  3  1  0
  2  4  1  0
  4  5  1  0
  5  6  1  0
  6  7  1  0
  7  8  1  0
  8  9  1  0
  9 10  2  0
  9 11  1  0
 11 12  1  0
 12 13  2  0
 13 14  1  0
 14 15  2  0
 15 16  1  0
 16 17  1  0
 17 18  2  0
 18 19  1  0
 19 20  2  0
 20 21  1  0
 21 22  3  0
 20 23  1  0
 23 24  1  0
 24 25  1  0
 25 26  2  0
 25 27  1  0
 27 28  1  0
 28 29  2  3
 29 30  1  0
 29 31  1  0
 23 32  2  0
 15 33  1  0
 33 34  2  0
 34 12  1  0
 32 17  1  0
  1 35  1  0
  1 36  1  0
  1 37  1  0
  3 38  1  0
  3 39  1  0
  3 40  1  0
  4 41  1  0
  4 42  1  0
  5 43  1  0
  5 44  1  0
  6 45  1  0
  7 46  1  0
  7 47  1  0
  8 48  1  0
  8 49  1  0
 13 50  1  0
 14 51  1  0
 18 52  1  0
 19 53  1  0
 27 54  1  0
 27 55  1  0
 28 56  1  0
 30 57  1  0
 32 58  1  0
 33 59  1  0
 34 60  1  0
M  CHG  2  11  -1  24  -1
M  END
>  <UniqueID>  (26) 
24

>  <SMILES>  (26) 
CN(C)CCNCCC(=O)[N-]c1ccc(Sc2ccc(C#N)c([N-]C(=O)CC=C(O)F)c2)cc1

>  <Energy>  (26) 
58.58971002420046

>  <Genealogy>  (26) 
CN(C)CCNCCC(=O)[N-]c1ccc(Sc2ccc(C#N)c([N-]C(=O)CC=C(O)F)c2)cc1 (protonated)
CN(C)CCNCCC(=O)[N-]c1ccc(Sc2ccc(C#N)c([N-]C(=O)CC=C(O)F)c2)cc1 (3D coordinates assigned)
CN(C)CCNCCC(=O)[N-]c1ccc(Sc2ccc(C#N)c([N-]C(=O)CC=C(O)F)c2)cc1 (optimized conformer: 58.58971002420046 kcal/mol)

>  <smiles>  (26) 
CN(C)CCNCCC(=O)Nc1ccc(Sc2ccc(C#N)c(NC(=O)CC=C(O)F)c2)cc1

>  <score_type>  (26) 
oracle

>  <origin>  (26) 
adg

>  <m_score__min__energy>  (26) 
-10.43

>  <m_primary>  (26) 
energy

$$$$
26:0
     RDKit          3D

 50 53  0  0  0  0  0  0  0  0999 V2000
   56.7760   24.1140   43.1430 C   0  0  0  0  0  0  0  0  0  0  0  0
   56.8310   22.8410   43.9130 C   0  0  0  0  0  0  0  0  0  0  0  0
   56.2720   21.6880   43.4960 N   0  0  0  0  0  0  0  0  0  0  0  0
   56.4410   20.7950   44.4640 N   0  0  0  0  0  0  0  0  0  0  0  0
   55.8940   19.4480   44.4150 C   0  0  0  0  0  0  0  0  0  0  0  0
   57.0710   21.3550   45.5160 C   0  0  0  0  0  0  0  0  0  0  0  0
   57.3500   22.6630   45.1790 C   0  0  0  0  0  0  0  0  0  0  0  0
   57.9120   23.6850   46.0070 N   0  0  0  0  0  0  0  0  0  0  0  0
   57.0040   24.9620   46.7510 S   0  0  0  0  0  0  0  0  0  0  0  0
   57.1280   24.8330   48.2430 O   0  0  0  0  0  0  0  0  0  0  0  0
   55.5550   24.8070   46.3860 O   0  0  0  0  0  0  0  0  0  0  0  0
   57.5560   26.5680   46.2750 C   0  0  0  0  0  0  0  0  0  0  0  0
   58.8480   26.9970   46.6030 C   0  0  0  0  0  0  0  0  0  0  0  0
   59.2650   28.2910   46.2770 C   0  0  0  0  0  0  0  0  0  0  0  0
   58.3980   29.1640   45.6020 C   0  0  0  0  0  0  0  0  0  0  0  0
   58.8000   30.4700   45.2890 C   0  0  0  0  0  0  0  0  0  0  0  0
   57.9410   31.3350   44.5930 C   0  0  0  0  0  0  0  0  0  0  0  0
   58.3870   32.6720   44.2940 N   0  0  0  0  0  0  0  0  0  0  0  0
   57.5640   33.8710   44.4730 C   0  0  0  0  0  0  0  0  0  0  0  0
   57.4010   34.2030   45.9600 C   0  0  0  0  0  0  0  0  0  0  0  0
   58.6270   33.9160   46.7010 N   0  0  0  0  0  0  0  0  0  0  0  0
   59.8110   34.5330   46.5410 C   0  0  0  0  0  0  0  0  0  0  0  0
   60.7290   33.9380   47.3820 C   0  0  0  0  0  0  0  0  0  0  0  0
   60.0180   32.9450   48.0270 C   0  0  0  0  0  0  0  0  0  0  0  0
   58.7410   32.9480   47.5960 N   0  0  0  0  0  0  0  0  0  0  0  0
   56.6620   30.8820   44.2220 C   0  0  0  0  0  0  0  0  0  0  0  0
   56.2470   29.5870   44.5460 C   0  0  0  0  0  0  0  0  0  0  0  0
   57.1050   28.7230   45.2400 C   0  0  0  0  0  0  0  0  0  0  0  0
   56.6860   27.4310   45.5910 C   0  0  0  0  0  0  0  0  0  0  0  0
   56.7393   24.9634   43.8410 H   0  0  0  0  0  0  0  0  0  0  0  0
   57.6713   24.1984   42.5096 H   0  0  0  0  0  0  0  0  0  0  0  0
   55.8767   24.1208   42.5096 H   0  0  0  0  0  0  0  0  0  0  0  0
   55.7430   19.0761   45.4392 H   0  0  0  0  0  0  0  0  0  0  0  0
   54.9305   19.4626   43.8844 H   0  0  0  0  0  0  0  0  0  0  0  0
   56.5948   18.7867   43.8844 H   0  0  0  0  0  0  0  0  0  0  0  0
   57.3170   20.8603   46.4672 H   0  0  0  0  0  0  0  0  0  0  0  0
   59.5377   26.3130   47.1193 H   0  0  0  0  0  0  0  0  0  0  0  0
   60.2764   28.6261   46.5506 H   0  0  0  0  0  0  0  0  0  0  0  0
   59.7979   30.8202   45.5916 H   0  0  0  0  0  0  0  0  0  0  0  0
   59.2490   32.7830   43.7170 H   0  0  0  0  0  0  0  0  0  0  0  0
   58.0469   34.7189   43.9652 H   0  0  0  0  0  0  0  0  0  0  0  0
   56.5692   33.6828   44.0430 H   0  0  0  0  0  0  0  0  0  0  0  0
   57.1594   35.2710   46.0652 H   0  0  0  0  0  0  0  0  0  0  0  0
   56.5916   33.5811   46.3699 H   0  0  0  0  0  0  0  0  0  0  0  0
   60.0133   35.3697   45.8562 H   0  0  0  0  0  0  0  0  0  0  0  0
   61.7904   34.1968   47.5102 H   0  0  0  0  0  0  0  0  0  0  0  0
   60.4313   32.2562   48.7785 H   0  0  0  0  0  0  0  0  0  0  0  0
   55.9835   31.5515   43.6730 H   0  0  0  0  0  0  0  0  0  0  0  0
   55.2429   29.2447   44.2551 H   0  0  0  0  0  0  0  0  0  0  0  0
   55.6724   27.0933   45.3293 H   0  0  0  0  0  0  0  0  0  0  0  0
  1  2  1  0
  2  3  2  0
  3  4  1  0
  4  5  1  0
  4  6  1  0
  6  7  2  0
  7  8  1  0
  8  9  1  0
  9 10  2  0
  9 11  2  0
  9 12  1  0
 12 13  2  0
 13 14  1  0
 14 15  2  0
 15 16  1  0
 16 17  2  0
 17 18  1  0
 18 19  1  0
 19 20  1  0
 20 21  1  0
 21 22  1  0
 22 23  2  0
 23 24  1  0
 24 25  2  0
 17 26  1  0
 26 27  2  0
 27 28  1  0
 28 29  2  0
  7  2  1  0
 29 12  1  0
 28 15  1  0
 25 21  1  0
  1 30  1  0
  1 31  1  0
  1 32  1  0
  5 33  1  0
  5 34  1  0
  5 35  1  0
  6 36  1  0
 13 37  1  0
 14 38  1  0
 16 39  1  0
 18 40  1  0
 19 41  1  0
 19 42  1  0
 20 43  1  0
 20 44  1  0
 22 45  1  0
 23 46  1  0
 24 47  1  0
 26 48  1  0
 27 49  1  0
 29 50  1  0
M  CHG  1   8  -1
M  END
>  <UniqueID>  (27) 
25

>  <SMILES>  (27) 
Cc1nn(C)cc1[N-]S(=O)(=O)c1ccc2cc(NCCn3cccn3)ccc2c1

>  <Energy>  (27) 
117.65774673343724

>  <Genealogy>  (27) 
Cc1nn(C)cc1[N-]S(=O)(=O)c1ccc2cc(NCCn3cccn3)ccc2c1 (protonated)
Cc1nn(C)cc1[N-]S(=O)(=O)c1ccc2cc(NCCn3cccn3)ccc2c1 (3D coordinates assigned)
Cc1nn(C)cc1[N-]S(=O)(=O)c1ccc2cc(NCCn3cccn3)ccc2c1 (optimized conformer: 117.65774673343724 kcal/mol)

>  <smiles>  (27) 
Cc1nn(C)cc1NS(=O)(=O)c1ccc2cc(NCCn3cccn3)ccc2c1

>  <score_type>  (27) 
oracle

>  <origin>  (27) 
adg

>  <m_score__min__energy>  (27) 
-9.9299999999999997

>  <m_primary>  (27) 
energy

$$$$
27:0
     RDKit          3D

 49 51  0  0  0  0  0  0  0  0999 V2000
   66.6740   32.7800   50.4360 C   0  0  0  0  0  0  0  0  0  0  0  0
   65.1840   32.6010   50.1680 C   0  0  0  0  0  0  0  0  0  0  0  0
   64.8410   33.1030   48.8750 O   0  0  0  0  0  0  0  0  0  0  0  0
   63.5460   33.4490   48.4560 C   0  0  0  0  0  0  0  0  0  0  0  0
   63.2660   33.4370   47.0840 C   0  0  0  0  0  0  0  0  0  0  0  0
   62.0060   33.8220   46.6110 C   0  0  0  0  0  0  0  0  0  0  0  0
   61.0110   34.2140   47.5130 C   0  0  0  0  0  0  0  0  0  0  0  0
   59.4280   34.8250   46.9160 S   0  0  0  0  0  0  0  0  0  0  0  0
   59.6140   34.2070   45.1960 C   0  0  0  0  0  0  0  0  0  0  0  0
   58.6080   33.1400   44.8750 C   0  0  0  0  0  0  0  0  0  0  0  0
   58.1820   32.9310   43.5570 C   0  0  0  0  0  0  0  0  0  0  0  0
   57.3820   31.8250   43.2640 C   0  0  0  0  0  0  0  0  0  0  0  0
   57.0050   30.9350   44.2830 C   0  0  0  0  0  0  0  0  0  0  0  0
   56.2380   29.7070   43.9740 C   0  0  0  0  0  0  0  0  0  0  0  0
   55.9120   29.4460   42.7830 O   0  0  0  0  0  0  0  0  0  0  0  0
   55.8620   28.8090   45.0240 N   0  0  0  0  0  0  0  0  0  0  0  0
   56.7380   27.8470   45.6250 C   0  0  0  0  0  0  0  0  0  0  0  0
   58.1130   28.1110   45.6420 C   0  0  0  0  0  0  0  0  0  0  0  0
   59.0040   27.1910   46.1960 C   0  0  0  0  0  0  0  0  0  0  0  0
   58.5280   25.9880   46.7160 C   0  0  0  0  0  0  0  0  0  0  0  0
   57.1630   25.6970   46.6780 C   0  0  0  0  0  0  0  0  0  0  0  0
   56.2540   26.6170   46.1200 C   0  0  0  0  0  0  0  0  0  0  0  0
   54.8830   26.3290   46.0140 O   0  0  0  0  0  0  0  0  0  0  0  0
   54.3470   25.0700   45.6230 C   0  0  0  0  0  0  0  0  0  0  0  0
   57.4240   31.2060   45.5960 C   0  0  0  0  0  0  0  0  0  0  0  0
   58.2150   32.2800   45.8530 N   0  0  0  0  0  0  0  0  0  0  0  0
   61.2660   34.1760   48.8890 C   0  0  0  0  0  0  0  0  0  0  0  0
   62.5270   33.8080   49.3620 C   0  0  0  0  0  0  0  0  0  0  0  0
   66.8514   32.8013   51.5214 H   0  0  0  0  0  0  0  0  0  0  0  0
   67.2300   31.9422   49.9900 H   0  0  0  0  0  0  0  0  0  0  0  0
   67.0158   33.7257   49.9900 H   0  0  0  0  0  0  0  0  0  0  0  0
   64.9338   31.5310   50.2183 H   0  0  0  0  0  0  0  0  0  0  0  0
   64.6177   33.1607   50.9270 H   0  0  0  0  0  0  0  0  0  0  0  0
   64.0429   33.1223   46.3717 H   0  0  0  0  0  0  0  0  0  0  0  0
   61.7983   33.8163   45.5308 H   0  0  0  0  0  0  0  0  0  0  0  0
   59.4768   35.0469   44.4991 H   0  0  0  0  0  0  0  0  0  0  0  0
   60.6188   33.7706   45.0963 H   0  0  0  0  0  0  0  0  0  0  0  0
   58.4749   33.6313   42.7609 H   0  0  0  0  0  0  0  0  0  0  0  0
   57.0457   31.6500   42.2314 H   0  0  0  0  0  0  0  0  0  0  0  0
   58.4937   29.0507   45.2154 H   0  0  0  0  0  0  0  0  0  0  0  0
   60.0807   27.4146   46.2225 H   0  0  0  0  0  0  0  0  0  0  0  0
   59.2303   25.2657   47.1577 H   0  0  0  0  0  0  0  0  0  0  0  0
   56.7954   24.7439   47.0861 H   0  0  0  0  0  0  0  0  0  0  0  0
   54.0973   24.4835   46.5194 H   0  0  0  0  0  0  0  0  0  0  0  0
   53.4383   25.2285   45.0237 H   0  0  0  0  0  0  0  0  0  0  0  0
   55.0911   24.5249   45.0237 H   0  0  0  0  0  0  0  0  0  0  0  0
   57.1106   30.5465   46.4187 H   0  0  0  0  0  0  0  0  0  0  0  0
   60.4691   34.4373   49.6008 H   0  0  0  0  0  0  0  0  0  0  0  0
   62.7260   33.7981   50.4438 H   0  0  0  0  0  0  0  0  0  0  0  0
  1  2  1  0
  2  3  1  0
  3  4  1  0
  4  5  2  0
  5  6  1  0
  6  7  2  0
  7  8  1  0
  8  9  1  0
  9 10  1  0
 10 11  2  0
 11 12  1  0
 12 13  2  0
 13 14  1  0
 14 15  2  0
 14 16  1  0
 16 17  1  0
 17 18  2  0
 18 19  1  0
 19 20  2  0
 20 21  1  0
 21 22  2  0
 22 23  1  0
 23 24  1  0
 13 25  1  0
 25 26  2  0
  7 27  1  0
 27 28  2  0
 28  4  1  0
 26 10  1  0
 22 17  1  0
  1 29  1  0
  1 30  1  0
  1 31  1  0
  2 32  1  0
  2 33  1  0
  5 34  1  0
  6 35  1  0
  9 36  1  0
  9 37  1  0
 11 38  1  0
 12 39  1  0
 18 40  1  0
 19 41  1  0
 20 42  1  0
 21 43  1  0
 24 44  1  0
 24 45  1  0
 24 46  1  0
 25 47  1  0
 27 48  1  0
 28 49  1  0
M  CHG  1  16  -1
M  END
>  <UniqueID>  (28) 
26

>  <SMILES>  (28) 
CCOc1ccc(SCc2ccc(C(=O)[N-]c3ccccc3OC)cn2)cc1

>  <Energy>  (28) 
47.939115571926976

>  <Genealogy>  (28) 
CCOc1ccc(SCc2ccc(C(=O)[N-]c3ccccc3OC)cn2)cc1 (protonated)
CCOc1ccc(SCc2ccc(C(=O)[N-]c3ccccc3OC)cn2)cc1 (3D coordinates assigned)
CCOc1ccc(SCc2ccc(C(=O)[N-]c3ccccc3OC)cn2)cc1 (optimized conformer: 47.939115571926976 kcal/mol)

>  <smiles>  (28) 
CCOc1ccc(SCc2ccc(C(=O)Nc3ccccc3OC)cn2)cc1

>  <score_type>  (28) 
oracle

>  <origin>  (28) 
adg

>  <m_score__min__energy>  (28) 
-11.4

>  <m_primary>  (28) 
energy

$$$$
28:0
     RDKit          3D

 62 65  0  0  0  0  0  0  0  0999 V2000
   53.9180   25.4240   45.5610 O   0  0  0  0  0  0  0  0  0  0  0  0
   55.1390   25.2260   45.8050 C   0  0  0  0  0  0  0  0  0  0  0  0
   55.8790   26.2570   46.4710 N   0  0  0  0  0  0  0  0  0  0  0  0
   56.9520   27.0500   45.9360 C   0  0  0  0  0  0  0  0  0  0  0  0
   58.2660   26.6200   46.1530 C   0  0  0  0  0  0  0  0  0  0  0  0
   59.3400   27.3580   45.6640 C   0  0  0  0  0  0  0  0  0  0  0  0
   59.1120   28.5530   44.9800 C   0  0  0  0  0  0  0  0  0  0  0  0
   57.8030   29.0170   44.7740 C   0  0  0  0  0  0  0  0  0  0  0  0
   57.5740   30.3450   44.0780 C   0  0  0  0  0  0  0  0  0  0  0  0
   57.3830   31.4850   45.0060 N   0  0  0  0  0  0  0  0  0  0  0  0
   57.4560   32.7950   44.3280 C   0  0  0  0  0  0  0  0  0  0  0  0
   57.0660   33.9180   45.2940 C   0  0  0  0  0  0  0  0  0  0  0  0
   57.9700   33.9170   46.5390 C   0  0  0  0  0  0  0  0  0  0  0  0
   59.3700   34.3940   46.2060 C   0  0  0  0  0  0  0  0  0  0  0  0
   59.6970   34.5560   45.0000 O   0  0  0  0  0  0  0  0  0  0  0  0
   60.3120   34.6800   47.2450 N   0  0  0  0  0  0  0  0  0  0  0  0
   61.4460   33.8230   47.5790 C   0  0  0  0  0  0  0  0  0  0  0  0
   60.9720   32.3810   47.8740 C   0  0  0  0  0  0  0  0  0  0  0  0
   62.0160   31.3130   47.5160 C   0  0  0  0  0  0  0  0  0  0  0  0
   63.4420   31.8370   47.6770 C   0  0  0  0  0  0  0  0  0  0  0  0
   63.7150   33.0470   46.7620 C   0  0  0  0  0  0  0  0  0  0  0  0
   62.4490   33.8560   46.4230 C   0  0  0  0  0  0  0  0  0  0  0  0
   57.9440   32.5140   47.1830 C   0  0  0  0  0  0  0  0  0  0  0  0
   58.2910   31.4180   46.1650 C   0  0  0  0  0  0  0  0  0  0  0  0
   56.7240   28.2550   45.2450 C   0  0  0  0  0  0  0  0  0  0  0  0
   55.7420   23.9240   45.4470 C   0  0  0  0  0  0  0  0  0  0  0  0
   57.1400   23.8160   45.3360 C   0  0  0  0  0  0  0  0  0  0  0  0
   57.7270   22.5910   45.0170 C   0  0  0  0  0  0  0  0  0  0  0  0
   59.6230   22.4410   44.8860 Br  0  0  0  0  0  0  0  0  0  0  0  0
   56.9300   21.4660   44.7990 C   0  0  0  0  0  0  0  0  0  0  0  0
   55.5400   21.5670   44.8890 C   0  0  0  0  0  0  0  0  0  0  0  0
   54.9440   22.7890   45.2090 C   0  0  0  0  0  0  0  0  0  0  0  0
   53.5580   22.8690   45.2610 O   0  0  0  0  0  0  0  0  0  0  0  0
   58.4513   25.6922   46.7140 H   0  0  0  0  0  0  0  0  0  0  0  0
   60.3686   26.9994   45.8167 H   0  0  0  0  0  0  0  0  0  0  0  0
   59.9640   29.1355   44.5996 H   0  0  0  0  0  0  0  0  0  0  0  0
   58.4465   30.5580   43.4428 H   0  0  0  0  0  0  0  0  0  0  0  0
   56.6440   30.2456   43.4991 H   0  0  0  0  0  0  0  0  0  0  0  0
   58.4835   32.9627   43.9730 H   0  0  0  0  0  0  0  0  0  0  0  0
   56.7577   32.7966   43.4780 H   0  0  0  0  0  0  0  0  0  0  0  0
   57.1647   34.8851   44.7792 H   0  0  0  0  0  0  0  0  0  0  0  0
   56.0270   33.7559   45.6167 H   0  0  0  0  0  0  0  0  0  0  0  0
   57.5843   34.6343   47.2784 H   0  0  0  0  0  0  0  0  0  0  0  0
   61.9376   34.1952   48.4899 H   0  0  0  0  0  0  0  0  0  0  0  0
   60.7446   32.3010   48.9473 H   0  0  0  0  0  0  0  0  0  0  0  0
   60.0872   32.1944   47.2477 H   0  0  0  0  0  0  0  0  0  0  0  0
   61.8788   30.4451   48.1777 H   0  0  0  0  0  0  0  0  0  0  0  0
   61.8715   31.0334   46.4620 H   0  0  0  0  0  0  0  0  0  0  0  0
   63.5935   32.1407   48.7233 H   0  0  0  0  0  0  0  0  0  0  0  0
   64.1357   31.0316   47.3941 H   0  0  0  0  0  0  0  0  0  0  0  0
   64.4291   33.7130   47.2685 H   0  0  0  0  0  0  0  0  0  0  0  0
   64.1126   32.6543   45.8145 H   0  0  0  0  0  0  0  0  0  0  0  0
   62.7328   34.8999   46.2236 H   0  0  0  0  0  0  0  0  0  0  0  0
   61.9753   33.4074   45.5374 H   0  0  0  0  0  0  0  0  0  0  0  0
   58.6764   32.4841   48.0032 H   0  0  0  0  0  0  0  0  0  0  0  0
   56.9269   32.3262   47.5574 H   0  0  0  0  0  0  0  0  0  0  0  0
   59.3269   31.5571   45.8220 H   0  0  0  0  0  0  0  0  0  0  0  0
   58.1805   30.4357   46.6477 H   0  0  0  0  0  0  0  0  0  0  0  0
   55.6939   28.6008   45.0735 H   0  0  0  0  0  0  0  0  0  0  0  0
   57.7728   24.7004   45.5013 H   0  0  0  0  0  0  0  0  0  0  0  0
   57.3967   20.4999   44.5563 H   0  0  0  0  0  0  0  0  0  0  0  0
   54.9128   20.6817   44.7074 H   0  0  0  0  0  0  0  0  0  0  0  0
  1  2  2  0
  2  3  1  0
  3  4  1  0
  4  5  2  0
  5  6  1  0
  6  7  2  0
  7  8  1  0
  8  9  1  0
  9 10  1  0
 10 11  1  0
 11 12  1  0
 12 13  1  0
 13 14  1  0
 14 15  2  0
 14 16  1  0
 16 17  1  0
 17 18  1  0
 18 19  1  0
 19 20  1  0
 20 21  1  0
 21 22  1  0
 13 23  1  0
 23 24  1  0
  8 25  2  0
  2 26  1  0
 26 27  2  0
 27 28  1  0
 28 29  1  0
 28 30  2  0
 30 31  1  0
 31 32  2  0
 32 33  1  0
 25  4  1  0
 32 26  1  0
 24 10  1  0
 22 17  1  0
  5 34  1  0
  6 35  1  0
  7 36  1  0
  9 37  1  0
  9 38  1  0
 11 39  1  0
 11 40  1  0
 12 41  1  0
 12 42  1  0
 13 43  1  0
 17 44  1  0
 18 45  1  0
 18 46  1  0
 19 47  1  0
 19 48  1  0
 20 49  1  0
 20 50  1  0
 21 51  1  0
 21 52  1  0
 22 53  1  0
 22 54  1  0
 23 55  1  0
 23 56  1  0
 24 57  1  0
 24 58  1  0
 25 59  1  0
 27 60  1  0
 30 61  1  0
 31 62  1  0
M  CHG  3   3  -1  16  -1  33  -1
M  END
>  <UniqueID>  (29) 
27

>  <SMILES>  (29) 
O=C([N-]c1cccc(CN2CCC(C(=O)[N-]C3CCCCC3)CC2)c1)c1cc(Br)ccc1[O-]

>  <Energy>  (29) 
71.09911252502168

>  <Genealogy>  (29) 
O=C([N-]c1cccc(CN2CCC(C(=O)[N-]C3CCCCC3)CC2)c1)c1cc(Br)ccc1[O-] (protonated)
O=C([N-]c1cccc(CN2CCC(C(=O)[N-]C3CCCCC3)CC2)c1)c1cc(Br)ccc1[O-] (3D coordinates assigned)
O=C([N-]c1cccc(CN2CCC(C(=O)[N-]C3CCCCC3)CC2)c1)c1cc(Br)ccc1[O-] (nonaromatic ring conformer: 71.09911252502168 kcal/mol)

>  <smiles>  (29) 
O=C(Nc1cccc(CN2CCC(C(=O)NC3CCCCC3)CC2)c1)c1cc(Br)ccc1O

>  <score_type>  (29) 
oracle

>  <origin>  (29) 
adg

>  <m_score__min__energy>  (29) 
-16.5

>  <m_primary>  (29) 
energy

$$$$
29:0
     RDKit          3D

 58 60  0  0  0  0  0  0  0  0999 V2000
   64.6330   31.9530   47.5220 H   0  0  0  0  0  0  0  0  0  0  0  0
   64.1360   31.9520   48.4410 N   0  0  0  0  0  0  0  0  0  0  0  0
   64.2530   32.9280   49.2860 C   0  0  0  0  0  0  0  0  0  0  0  0
   63.1560   33.8300   49.5130 N   0  0  0  0  0  0  0  0  0  0  0  0
   63.1400   34.3550   50.4180 H   0  0  0  0  0  0  0  0  0  0  0  0
   62.0380   33.9890   48.6230 C   0  0  0  0  0  0  0  0  0  0  0  0
   62.2340   33.8420   47.2420 C   0  0  0  0  0  0  0  0  0  0  0  0
   63.2416   33.6347   46.8525 H   0  0  0  0  0  0  0  0  0  0  0  0
   61.1580   33.9570   46.3570 C   0  0  0  0  0  0  0  0  0  0  0  0
   61.3250   33.8438   45.2757 H   0  0  0  0  0  0  0  0  0  0  0  0
   59.8660   34.2160   46.8400 C   0  0  0  0  0  0  0  0  0  0  0  0
   58.7010   34.2930   45.8920 C   0  0  0  0  0  0  0  0  0  0  0  0
   57.8186   34.6695   46.4301 H   0  0  0  0  0  0  0  0  0  0  0  0
   58.9543   34.9732   45.0655 H   0  0  0  0  0  0  0  0  0  0  0  0
   58.3980   32.9300   45.3320 C   0  0  0  0  0  0  0  0  0  0  0  0
   58.0860   32.7740   43.9720 C   0  0  0  0  0  0  0  0  0  0  0  0
   58.0999   33.6477   43.3038 H   0  0  0  0  0  0  0  0  0  0  0  0
   57.7580   31.5150   43.4630 C   0  0  0  0  0  0  0  0  0  0  0  0
   57.5142   31.4025   42.3963 H   0  0  0  0  0  0  0  0  0  0  0  0
   57.7380   30.3930   44.3060 C   0  0  0  0  0  0  0  0  0  0  0  0
   57.3400   29.0450   43.7650 C   0  0  0  0  0  0  0  0  0  0  0  0
   56.4815   28.6642   44.3377 H   0  0  0  0  0  0  0  0  0  0  0  0
   57.0703   29.1531   42.7041 H   0  0  0  0  0  0  0  0  0  0  0  0
   58.5030   28.0550   43.8820 C   0  0  0  0  0  0  0  0  0  0  0  0
   58.6034   27.5089   42.9324 H   0  0  0  0  0  0  0  0  0  0  0  0
   59.4169   28.6241   44.1074 H   0  0  0  0  0  0  0  0  0  0  0  0
   58.2380   26.8770   45.2040 S   0  0  0  0  0  0  0  0  0  0  0  0
   57.7660   27.6210   46.4220 O   0  0  0  0  0  0  0  0  0  0  0  0
   59.5100   26.1530   45.5520 O   0  0  0  0  0  0  0  0  0  0  0  0
   57.0220   25.7220   44.7610 N   0  0  0  0  0  0  0  0  0  0  0  0
   56.0720   26.0900   44.5340 H   0  0  0  0  0  0  0  0  0  0  0  0
   57.1790   24.3310   45.0580 C   0  0  0  0  0  0  0  0  0  0  0  0
   58.4430   23.7330   44.9290 C   0  0  0  0  0  0  0  0  0  0  0  0
   59.3035   24.3395   44.6101 H   0  0  0  0  0  0  0  0  0  0  0  0
   58.6160   22.3760   45.2020 C   0  0  0  0  0  0  0  0  0  0  0  0
   59.6119   21.9189   45.1056 H   0  0  0  0  0  0  0  0  0  0  0  0
   57.5280   21.5980   45.5970 C   0  0  0  0  0  0  0  0  0  0  0  0
   57.6665   20.5286   45.8141 H   0  0  0  0  0  0  0  0  0  0  0  0
   56.2620   22.1770   45.7170 C   0  0  0  0  0  0  0  0  0  0  0  0
   55.4054   21.5580   46.0221 H   0  0  0  0  0  0  0  0  0  0  0  0
   56.0750   23.5430   45.4510 C   0  0  0  0  0  0  0  0  0  0  0  0
   54.4660   24.2490   45.6400 S   0  0  0  0  0  0  0  0  0  0  0  0
   53.6510   24.0270   44.3960 O   0  0  0  0  0  0  0  0  0  0  0  0
   53.7600   23.5990   46.7990 O   0  0  0  0  0  0  0  0  0  0  0  0
   54.6130   25.9480   45.9250 N   0  0  0  0  0  0  0  0  0  0  0  0
   53.6480   26.3460   45.9060 H   0  0  0  0  0  0  0  0  0  0  0  0
   58.0290   30.5510   45.6700 C   0  0  0  0  0  0  0  0  0  0  0  0
   57.9971   29.6803   46.3415 H   0  0  0  0  0  0  0  0  0  0  0  0
   58.3590   31.8100   46.1780 C   0  0  0  0  0  0  0  0  0  0  0  0
   58.5897   31.9245   47.2474 H   0  0  0  0  0  0  0  0  0  0  0  0
   59.6620   34.3350   48.2240 C   0  0  0  0  0  0  0  0  0  0  0  0
   58.6505   34.5212   48.6140 H   0  0  0  0  0  0  0  0  0  0  0  0
   60.7380   34.2180   49.1090 C   0  0  0  0  0  0  0  0  0  0  0  0
   60.5669   34.3056   50.1921 H   0  0  0  0  0  0  0  0  0  0  0  0
   65.4830   33.0320   50.1380 C   0  0  0  0  0  0  0  0  0  0  0  0
   65.1967   33.0078   51.1998 H   0  0  0  0  0  0  0  0  0  0  0  0
   66.1529   32.1873   49.9195 H   0  0  0  0  0  0  0  0  0  0  0  0
   66.0015   33.9772   49.9195 H   0  0  0  0  0  0  0  0  0  0  0  0
  1  2  1  0
  2  3  2  0
  3  4  1  0
  4  5  1  0
  4  6  1  0
  6  7  2  0
  7  8  1  0
  7  9  1  0
  9 10  1  0
  9 11  2  0
 11 12  1  0
 12 13  1  0
 12 14  1  0
 12 15  1  0
 15 16  2  0
 16 17  1  0
 16 18  1  0
 18 19  1  0
 18 20  2  0
 20 21  1  0
 21 22  1  0
 21 23  1  0
 21 24  1  0
 24 25  1  0
 24 26  1  0
 24 27  1  0
 27 28  2  0
 27 29  2  0
 27 30  1  0
 30 31  1  0
 30 32  1  0
 32 33  2  0
 33 34  1  0
 33 35  1  0
 35 36  1  0
 35 37  2  0
 37 38  1  0
 37 39  1  0
 39 40  1  0
 39 41  2  0
 41 42  1  0
 42 43  2  0
 42 44  2  0
 42 45  1  0
 45 46  1  0
 20 47  1  0
 47 48  1  0
 47 49  2  0
 49 50  1  0
 11 51  1  0
 51 52  1  0
 51 53  2  0
 53 54  1  0
  3 55  1  0
 55 56  1  0
 55 57  1  0
 55 58  1  0
 53  6  1  0
 49 15  1  0
 41 32  1  0
M  CHG  1  45  -1
M  END
>  <UniqueID>  (30) 
28

>  <SMILES>  (30) 
[H]/N=C(\C)Nc1ccc(Cc2ccc(CCS(=O)(=O)Nc3ccccc3S([NH-])(=O)=O)cc2)cc1

>  <Energy>  (30) 
61.47375005700104

>  <Genealogy>  (30) 
CC(=N)Nc1ccc(Cc2ccc(CCS(=O)(=O)Nc3ccccc3S([NH-])(=O)=O)cc2)cc1 (protonated)
[H]/N=C(\C)Nc1ccc(Cc2ccc(CCS(=O)(=O)Nc3ccccc3S([NH-])(=O)=O)cc2)cc1 (cis-trans isomerization)
[H]/N=C(\C)Nc1ccc(Cc2ccc(CCS(=O)(=O)Nc3ccccc3S([NH-])(=O)=O)cc2)cc1 (3D coordinates assigned)
[H]/N=C(\C)Nc1ccc(Cc2ccc(CCS(=O)(=O)Nc3ccccc3S([NH-])(=O)=O)cc2)cc1 (optimized conformer: 61.47375005700104 kcal/mol)

>  <smiles>  (30) 
CC(=N)Nc1ccc(Cc2ccc(CCS(=O)(=O)Nc3ccccc3S(N)(=O)=O)cc2)cc1

>  <score_type>  (30) 
oracle

>  <origin>  (30) 
adg

>  <m_score__min__energy>  (30) 
-14.77

>  <m_primary>  (30) 
energy

$$$$
30:0
     RDKit          3D

 44 46  0  0  0  0  0  0  0  0999 V2000
   64.8630   33.5040   50.7550 C   0  0  0  0  0  0  0  0  0  0  0  0
   64.6960   32.3440   49.9440 O   0  0  0  0  0  0  0  0  0  0  0  0
   63.6170   32.1360   49.0740 C   0  0  0  0  0  0  0  0  0  0  0  0
   63.5620   32.8810   47.8920 C   0  0  0  0  0  0  0  0  0  0  0  0
   62.5090   32.7080   46.9890 C   0  0  0  0  0  0  0  0  0  0  0  0
   61.4800   31.7890   47.2640 C   0  0  0  0  0  0  0  0  0  0  0  0
   60.4110   31.5470   46.3310 N   0  0  0  0  0  0  0  0  0  0  0  0
   59.7100   30.2990   46.2080 C   0  0  0  0  0  0  0  0  0  0  0  0
   60.2330   29.2290   46.6230 O   0  0  0  0  0  0  0  0  0  0  0  0
   58.3680   30.2530   45.5910 C   0  0  0  0  0  0  0  0  0  0  0  0
   57.5660   29.1090   45.7330 C   0  0  0  0  0  0  0  0  0  0  0  0
   56.3120   29.0430   45.1190 C   0  0  0  0  0  0  0  0  0  0  0  0
   55.5230   27.9100   45.2720 O   0  0  0  0  0  0  0  0  0  0  0  0
   55.8510   30.1170   44.3540 C   0  0  0  0  0  0  0  0  0  0  0  0
   56.6410   31.2570   44.1990 C   0  0  0  0  0  0  0  0  0  0  0  0
   57.8990   31.3340   44.8150 C   0  0  0  0  0  0  0  0  0  0  0  0
   58.7200   32.4850   44.6060 N   0  0  0  0  0  0  0  0  0  0  0  0
   58.4090   33.9710   45.4350 S   0  0  0  0  0  0  0  0  0  0  0  0
   59.2460   35.0760   44.8560 O   0  0  0  0  0  0  0  0  0  0  0  0
   56.9590   34.3290   45.2610 O   0  0  0  0  0  0  0  0  0  0  0  0
   58.7850   33.7670   47.1440 C   0  0  0  0  0  0  0  0  0  0  0  0
   58.1830   32.7460   47.8950 C   0  0  0  0  0  0  0  0  0  0  0  0
   58.5160   32.5770   49.2430 C   0  0  0  0  0  0  0  0  0  0  0  0
   59.4550   33.4190   49.8440 C   0  0  0  0  0  0  0  0  0  0  0  0
   60.0580   34.4370   49.0990 C   0  0  0  0  0  0  0  0  0  0  0  0
   59.7210   34.6130   47.7530 C   0  0  0  0  0  0  0  0  0  0  0  0
   61.5440   31.0300   48.4420 C   0  0  0  0  0  0  0  0  0  0  0  0
   62.5960   31.2040   49.3450 C   0  0  0  0  0  0  0  0  0  0  0  0
   64.8219   33.2183   51.8165 H   0  0  0  0  0  0  0  0  0  0  0  0
   65.8370   33.9665   50.5372 H   0  0  0  0  0  0  0  0  0  0  0  0
   64.0590   34.2225   50.5372 H   0  0  0  0  0  0  0  0  0  0  0  0
   64.3551   33.6104   47.6705 H   0  0  0  0  0  0  0  0  0  0  0  0
   62.4849   33.2937   46.0582 H   0  0  0  0  0  0  0  0  0  0  0  0
   60.1070   32.3450   45.7300 H   0  0  0  0  0  0  0  0  0  0  0  0
   57.9269   28.2594   46.3313 H   0  0  0  0  0  0  0  0  0  0  0  0
   54.8633   30.0641   43.8728 H   0  0  0  0  0  0  0  0  0  0  0  0
   56.2759   32.0983   43.5916 H   0  0  0  0  0  0  0  0  0  0  0  0
   57.4480   32.0774   47.4229 H   0  0  0  0  0  0  0  0  0  0  0  0
   58.0377   31.7798   49.8309 H   0  0  0  0  0  0  0  0  0  0  0  0
   59.7198   33.2811   50.9027 H   0  0  0  0  0  0  0  0  0  0  0  0
   60.7978   35.0998   49.5717 H   0  0  0  0  0  0  0  0  0  0  0  0
   60.1925   35.4184   47.1706 H   0  0  0  0  0  0  0  0  0  0  0  0
   60.7584   30.2907   48.6569 H   0  0  0  0  0  0  0  0  0  0  0  0
   62.6271   30.6110   50.2710 H   0  0  0  0  0  0  0  0  0  0  0  0
  1  2  1  0
  2  3  1  0
  3  4  2  0
  4  5  1  0
  5  6  2  0
  6  7  1  0
  7  8  1  0
  8  9  2  0
  8 10  1  0
 10 11  2  0
 11 12  1  0
 12 13  1  0
 12 14  2  0
 14 15  1  0
 15 16  2  0
 16 17  1  0
 17 18  1  0
 18 19  2  0
 18 20  2  0
 18 21  1  0
 21 22  2  0
 22 23  1  0
 23 24  2  0
 24 25  1  0
 25 26  2  0
  6 27  1  0
 27 28  2  0
 28  3  1  0
 16 10  1  0
 26 21  1  0
  1 29  1  0
  1 30  1  0
  1 31  1  0
  4 32  1  0
  5 33  1  0
  7 34  1  0
 11 35  1  0
 14 36  1  0
 15 37  1  0
 22 38  1  0
 23 39  1  0
 24 40  1  0
 25 41  1  0
 26 42  1  0
 27 43  1  0
 28 44  1  0
M  CHG  2  13  -1  17  -1
M  END
>  <UniqueID>  (31) 
29

>  <SMILES>  (31) 
COc1ccc(NC(=O)c2cc([O-])ccc2[N-]S(=O)(=O)c2ccccc2)cc1

>  <Energy>  (31) 
59.500229008714605

>  <Genealogy>  (31) 
COc1ccc(NC(=O)c2cc([O-])ccc2[N-]S(=O)(=O)c2ccccc2)cc1 (protonated)
COc1ccc(NC(=O)c2cc([O-])ccc2[N-]S(=O)(=O)c2ccccc2)cc1 (3D coordinates assigned)
COc1ccc(NC(=O)c2cc([O-])ccc2[N-]S(=O)(=O)c2ccccc2)cc1 (optimized conformer: 59.500229008714605 kcal/mol)

>  <smiles>  (31) 
COc1ccc(NC(=O)c2cc(O)ccc2NS(=O)(=O)c2ccccc2)cc1

>  <score_type>  (31) 
oracle

>  <origin>  (31) 
adg

>  <m_score__min__energy>  (31) 
-12.130000000000001

>  <m_primary>  (31) 
energy

$$$$
31:0
     RDKit          3D

 46 49  0  0  0  0  0  0  0  0999 V2000
   56.8770   30.2960   44.0460 C   0  0  0  0  0  0  0  0  0  0  0  0
   56.9590   28.9540   44.6960 C   0  0  0  0  0  0  0  0  0  0  0  0
   55.9430   28.3600   45.2790 O   0  0  0  0  0  0  0  0  0  0  0  0
   56.3630   27.2110   45.7580 C   0  0  0  0  0  0  0  0  0  0  0  0
   55.5490   26.3190   46.4460 O   0  0  0  0  0  0  0  0  0  0  0  0
   57.7050   27.0260   45.4900 C   0  0  0  0  0  0  0  0  0  0  0  0
   58.0860   28.1520   44.7870 C   0  0  0  0  0  0  0  0  0  0  0  0
   59.4780   28.4930   44.3400 C   0  0  0  0  0  0  0  0  0  0  0  0
   60.1490   29.2910   45.3150 O   0  0  0  0  0  0  0  0  0  0  0  0
   59.9120   29.2530   46.7000 C   0  0  0  0  0  0  0  0  0  0  0  0
   60.4220   28.2280   47.5230 C   0  0  0  0  0  0  0  0  0  0  0  0
   60.1650   28.2310   48.8950 C   0  0  0  0  0  0  0  0  0  0  0  0
   59.4020   29.2530   49.4620 C   0  0  0  0  0  0  0  0  0  0  0  0
   58.8920   30.2750   48.6590 C   0  0  0  0  0  0  0  0  0  0  0  0
   59.1420   30.2800   47.2730 C   0  0  0  0  0  0  0  0  0  0  0  0
   58.6330   31.3120   46.4170 N   0  0  0  0  0  0  0  0  0  0  0  0
   58.8870   33.0160   46.6270 S   0  0  0  0  0  0  0  0  0  0  0  0
   59.5780   33.5640   45.4110 O   0  0  0  0  0  0  0  0  0  0  0  0
   57.5560   33.6880   46.8180 O   0  0  0  0  0  0  0  0  0  0  0  0
   59.8970   33.3070   48.0550 C   0  0  0  0  0  0  0  0  0  0  0  0
   59.2670   33.5090   49.2960 C   0  0  0  0  0  0  0  0  0  0  0  0
   60.0160   33.7470   50.4480 C   0  0  0  0  0  0  0  0  0  0  0  0
   61.4070   33.7880   50.3870 C   0  0  0  0  0  0  0  0  0  0  0  0
   62.0620   33.5900   49.1690 C   0  0  0  0  0  0  0  0  0  0  0  0
   63.4210   33.6330   49.1250 N   0  0  0  0  0  0  0  0  0  0  0  0
   64.1080   33.4470   47.9690 C   0  0  0  0  0  0  0  0  0  0  0  0
   63.4230   33.2020   46.7810 C   0  0  0  0  0  0  0  0  0  0  0  0
   62.0270   33.1500   46.7870 C   0  0  0  0  0  0  0  0  0  0  0  0
   61.3140   33.3450   47.9860 C   0  0  0  0  0  0  0  0  0  0  0  0
   56.8293   31.0761   44.8201 H   0  0  0  0  0  0  0  0  0  0  0  0
   57.7671   30.4550   43.4196 H   0  0  0  0  0  0  0  0  0  0  0  0
   55.9742   30.3454   43.4196 H   0  0  0  0  0  0  0  0  0  0  0  0
   55.5230   26.3150   47.4600 H   0  0  0  0  0  0  0  0  0  0  0  0
   58.3333   26.1690   45.7743 H   0  0  0  0  0  0  0  0  0  0  0  0
   60.0440   27.5625   44.1858 H   0  0  0  0  0  0  0  0  0  0  0  0
   59.4140   29.0659   43.4031 H   0  0  0  0  0  0  0  0  0  0  0  0
   61.0258   27.4215   47.0814 H   0  0  0  0  0  0  0  0  0  0  0  0
   60.5644   27.4267   49.5303 H   0  0  0  0  0  0  0  0  0  0  0  0
   59.2021   29.2533   50.5437 H   0  0  0  0  0  0  0  0  0  0  0  0
   58.2927   31.0793   49.1106 H   0  0  0  0  0  0  0  0  0  0  0  0
   58.1692   33.4789   49.3588 H   0  0  0  0  0  0  0  0  0  0  0  0
   59.5057   33.9032   51.4099 H   0  0  0  0  0  0  0  0  0  0  0  0
   61.9910   33.9767   51.2999 H   0  0  0  0  0  0  0  0  0  0  0  0
   65.2072   33.4898   47.9704 H   0  0  0  0  0  0  0  0  0  0  0  0
   63.9782   33.0504   45.8436 H   0  0  0  0  0  0  0  0  0  0  0  0
   61.4822   32.9559   45.8513 H   0  0  0  0  0  0  0  0  0  0  0  0
  1  2  1  0
  2  3  1  0
  3  4  1  0
  4  5  1  0
  4  6  2  0
  6  7  1  0
  7  8  1  0
  8  9  1  0
  9 10  1  0
 10 11  2  0
 11 12  1  0
 12 13  2  0
 13 14  1  0
 14 15  2  0
 15 16  1  0
 16 17  1  0
 17 18  2  0
 17 19  2  0
 17 20  1  0
 20 21  2  0
 21 22  1  0
 22 23  2  0
 23 24  1  0
 24 25  2  0
 25 26  1  0
 26 27  2  0
 27 28  1  0
 28 29  2  0
  7  2  2  0
 15 10  1  0
 29 20  1  0
 29 24  1  0
  1 30  1  0
  1 31  1  0
  1 32  1  0
  5 33  1  0
  6 34  1  0
  8 35  1  0
  8 36  1  0
 11 37  1  0
 12 38  1  0
 13 39  1  0
 14 40  1  0
 21 41  1  0
 22 42  1  0
 23 43  1  0
 26 44  1  0
 27 45  1  0
 28 46  1  0
M  CHG  1  16  -1
M  END
>  <UniqueID>  (32) 
30

>  <SMILES>  (32) 
Cc1oc(O)cc1COc1ccccc1[N-]S(=O)(=O)c1cccc2ncccc12

>  <Energy>  (32) 
85.4807707538527

>  <Genealogy>  (32) 
Cc1oc(O)cc1COc1ccccc1[N-]S(=O)(=O)c1cccc2ncccc12 (protonated)
Cc1oc(O)cc1COc1ccccc1[N-]S(=O)(=O)c1cccc2ncccc12 (3D coordinates assigned)
Cc1oc(O)cc1COc1ccccc1[N-]S(=O)(=O)c1cccc2ncccc12 (optimized conformer: 85.4807707538527 kcal/mol)

>  <smiles>  (32) 
Cc1oc(O)cc1COc1ccccc1NS(=O)(=O)c1cccc2ncccc12

>  <score_type>  (32) 
oracle

>  <origin>  (32) 
adg

>  <m_score__min__energy>  (32) 
-11.029999999999999

>  <m_primary>  (32) 
energy

$$$$
32:0
     RDKit          3D

 46 49  0  0  0  0  0  0  0  0999 V2000
   60.5203   34.1238   50.4007 H   0  0  0  0  0  0  0  0  0  0  0  0
   60.0680   33.8540   49.4350 C   0  0  0  0  0  0  0  0  0  0  0  0
   59.1140   32.8380   49.3710 C   0  0  0  0  0  0  0  0  0  0  0  0
   58.8081   32.3136   50.2883 H   0  0  0  0  0  0  0  0  0  0  0  0
   58.5460   32.4850   48.1430 C   0  0  0  0  0  0  0  0  0  0  0  0
   57.7829   31.6939   48.1010 H   0  0  0  0  0  0  0  0  0  0  0  0
   58.9430   33.1330   46.9650 C   0  0  0  0  0  0  0  0  0  0  0  0
   58.3120   32.7600   45.7290 N   0  0  0  0  0  0  0  0  0  0  0  0
   57.7620   31.6140   45.4530 C   0  0  0  0  0  0  0  0  0  0  0  0
   56.7020   31.4550   44.6310 N   0  0  0  0  0  0  0  0  0  0  0  0
   56.3590   30.1450   44.4960 C   0  0  0  0  0  0  0  0  0  0  0  0
   55.1690   29.7520   43.6760 C   0  0  0  0  0  0  0  0  0  0  0  0
   54.3385   29.4777   44.3431 H   0  0  0  0  0  0  0  0  0  0  0  0
   54.8656   30.5977   43.0413 H   0  0  0  0  0  0  0  0  0  0  0  0
   55.4289   28.8920   43.0413 H   0  0  0  0  0  0  0  0  0  0  0  0
   57.1830   29.2500   45.1960 C   0  0  0  0  0  0  0  0  0  0  0  0
   57.0840   27.7810   45.2710 C   0  0  0  0  0  0  0  0  0  0  0  0
   56.0060   27.2720   45.6790 O   0  0  0  0  0  0  0  0  0  0  0  0
   58.1940   26.9440   44.9070 N   0  0  0  0  0  0  0  0  0  0  0  0
   59.0700   27.3920   44.5630 H   0  0  0  0  0  0  0  0  0  0  0  0
   58.1510   25.5060   44.9100 C   0  0  0  0  0  0  0  0  0  0  0  0
   59.1350   24.7950   45.6090 C   0  0  0  0  0  0  0  0  0  0  0  0
   59.9394   25.3391   46.1256 H   0  0  0  0  0  0  0  0  0  0  0  0
   59.1010   23.4000   45.6540 C   0  0  0  0  0  0  0  0  0  0  0  0
   59.8820   22.8494   46.1989 H   0  0  0  0  0  0  0  0  0  0  0  0
   58.0780   22.7020   45.0090 C   0  0  0  0  0  0  0  0  0  0  0  0
   58.0551   21.6030   45.0492 H   0  0  0  0  0  0  0  0  0  0  0  0
   57.0780   23.3970   44.3090 C   0  0  0  0  0  0  0  0  0  0  0  0
   55.9670   22.6730   43.6530 C   0  0  0  0  0  0  0  0  0  0  0  0
   56.2320   21.7320   42.8610 O   0  0  0  0  0  0  0  0  0  0  0  0
   54.5920   22.9840   43.9110 N   0  0  0  0  0  0  0  0  0  0  0  0
   54.0430   23.2520   45.2350 C   0  0  0  0  0  0  0  0  0  0  0  0
   54.3710   22.3240   45.7262 H   0  0  0  0  0  0  0  0  0  0  0  0
   52.7580   24.0580   45.1730 C   0  0  0  0  0  0  0  0  0  0  0  0
   52.3160   24.3147   44.1990 H   0  0  0  0  0  0  0  0  0  0  0  0
   51.7506   23.9506   45.6016 H   0  0  0  0  0  0  0  0  0  0  0  0
   54.0510   24.7200   45.6190 C   0  0  0  0  0  0  0  0  0  0  0  0
   54.5451   25.4562   44.9679 H   0  0  0  0  0  0  0  0  0  0  0  0
   54.3676   25.2907   46.5045 H   0  0  0  0  0  0  0  0  0  0  0  0
   57.1060   24.8010   44.2850 C   0  0  0  0  0  0  0  0  0  0  0  0
   56.3044   25.3540   43.7734 H   0  0  0  0  0  0  0  0  0  0  0  0
   58.3370   30.1500   46.0340 S   0  0  0  0  0  0  0  0  0  0  0  0
   59.8840   34.1790   47.0410 C   0  0  0  0  0  0  0  0  0  0  0  0
   60.1752   34.7220   46.1297 H   0  0  0  0  0  0  0  0  0  0  0  0
   60.4490   34.5290   48.2720 C   0  0  0  0  0  0  0  0  0  0  0  0
   61.1941   35.3365   48.3247 H   0  0  0  0  0  0  0  0  0  0  0  0
  1  2  1  0
  2  3  2  0
  3  4  1  0
  3  5  1  0
  5  6  1  0
  5  7  2  0
  7  8  1  0
  8  9  2  0
  9 10  1  0
 10 11  1  0
 11 12  1  0
 12 13  1  0
 12 14  1  0
 12 15  1  0
 11 16  2  0
 16 17  1  0
 17 18  2  0
 17 19  1  0
 19 20  1  0
 19 21  1  0
 21 22  2  0
 22 23  1  0
 22 24  1  0
 24 25  1  0
 24 26  2  0
 26 27  1  0
 26 28  1  0
 28 29  1  0
 29 30  2  0
 29 31  1  0
 31 32  1  0
 32 33  1  0
 32 34  1  0
 34 35  1  0
 34 36  1  0
 34 37  1  0
 37 38  1  0
 37 39  1  0
 28 40  2  0
 40 41  1  0
 16 42  1  0
  7 43  1  0
 43 44  1  0
 43 45  2  0
 45 46  1  0
 45  2  1  0
 42  9  1  0
 40 21  1  0
 37 32  1  0
M  CHG  2  10  -1  31  -1
M  END
>  <UniqueID>  (33) 
31

>  <SMILES>  (33) 
Cc1[n-]/c(=N\c2ccccc2)sc1C(=O)Nc1cccc(C(=O)[N-]C2CC2)c1

>  <Energy>  (33) 
359.74139454521884

>  <Genealogy>  (33) 
Cc1[n-]c(=Nc2ccccc2)sc1C(=O)Nc1cccc(C(=O)[N-]C2CC2)c1 (protonated)
Cc1[n-]/c(=N\c2ccccc2)sc1C(=O)Nc1cccc(C(=O)[N-]C2CC2)c1 (cis-trans isomerization)
Cc1[n-]/c(=N\c2ccccc2)sc1C(=O)Nc1cccc(C(=O)[N-]C2CC2)c1 (3D coordinates assigned)
Cc1[n-]/c(=N\c2ccccc2)sc1C(=O)Nc1cccc(C(=O)[N-]C2CC2)c1 (nonaromatic ring conformer: 359.74139454521884 kcal/mol)

>  <smiles>  (33) 
Cc1[nH]c(=Nc2ccccc2)sc1C(=O)Nc1cccc(C(=O)NC2CC2)c1

>  <score_type>  (33) 
oracle

>  <origin>  (33) 
adg

>  <m_score__min__energy>  (33) 
-11.779999999999999

>  <m_primary>  (33) 
energy

$$$$
33:0
     RDKit          3D

 49 51  0  0  0  0  0  0  0  0999 V2000
   60.6470   27.1080   48.6110 H   0  0  0  0  0  0  0  0  0  0  0  0
   60.4210   26.6490   47.7370 O   0  0  0  0  0  0  0  0  0  0  0  0
   59.6470   27.2770   46.7640 C   0  0  0  0  0  0  0  0  0  0  0  0
   58.2540   27.3570   46.9010 C   0  0  0  0  0  0  0  0  0  0  0  0
   57.7637   26.9199   47.7833 H   0  0  0  0  0  0  0  0  0  0  0  0
   57.4860   27.9910   45.9190 C   0  0  0  0  0  0  0  0  0  0  0  0
   56.3944   28.0590   46.0363 H   0  0  0  0  0  0  0  0  0  0  0  0
   58.1030   28.5410   44.7840 C   0  0  0  0  0  0  0  0  0  0  0  0
   57.2840   29.2560   43.7470 C   0  0  0  0  0  0  0  0  0  0  0  0
   56.8736   28.5224   43.0375 H   0  0  0  0  0  0  0  0  0  0  0  0
   57.9241   29.9736   43.2129 H   0  0  0  0  0  0  0  0  0  0  0  0
   56.1610   29.9930   44.4020 C   0  0  0  0  0  0  0  0  0  0  0  0
   55.1850   29.3480   44.8720 O   0  0  0  0  0  0  0  0  0  0  0  0
   56.2680   31.3780   44.5820 O   0  0  0  0  0  0  0  0  0  0  0  0
   57.3860   32.0490   45.0970 C   0  0  0  0  0  0  0  0  0  0  0  0
   57.8740   33.1610   44.4030 C   0  0  0  0  0  0  0  0  0  0  0  0
   57.3784   33.4852   43.4760 H   0  0  0  0  0  0  0  0  0  0  0  0
   58.9850   33.8640   44.8760 C   0  0  0  0  0  0  0  0  0  0  0  0
   59.3576   34.7350   44.3170 H   0  0  0  0  0  0  0  0  0  0  0  0
   59.6300   33.4680   46.0590 C   0  0  0  0  0  0  0  0  0  0  0  0
   60.8040   34.2470   46.5210 C   0  0  0  0  0  0  0  0  0  0  0  0
   60.6251   35.2162   47.0096 H   0  0  0  0  0  0  0  0  0  0  0  0
   62.0720   33.8350   46.3760 C   0  0  0  0  0  0  0  0  0  0  0  0
   62.5971   34.0661   45.4374 H   0  0  0  0  0  0  0  0  0  0  0  0
   62.7940   33.0830   47.4250 C   0  0  0  0  0  0  0  0  0  0  0  0
   63.9610   33.4560   47.7220 O   0  0  0  0  0  0  0  0  0  0  0  0
   62.2030   31.9330   48.1520 C   0  0  0  0  0  0  0  0  0  0  0  0
   62.2370   31.8680   49.5560 C   0  0  0  0  0  0  0  0  0  0  0  0
   62.6950   32.6872   50.1297 H   0  0  0  0  0  0  0  0  0  0  0  0
   61.6930   30.7700   50.2280 C   0  0  0  0  0  0  0  0  0  0  0  0
   61.7158   30.7347   51.3272 H   0  0  0  0  0  0  0  0  0  0  0  0
   61.1160   29.7090   49.5050 C   0  0  0  0  0  0  0  0  0  0  0  0
   60.5510   28.5900   50.1330 O   0  0  0  0  0  0  0  0  0  0  0  0
   61.1390   27.9030   51.2340 C   0  0  0  0  0  0  0  0  0  0  0  0
   60.7692   28.3351   52.1756 H   0  0  0  0  0  0  0  0  0  0  0  0
   60.8685   26.8377   51.1882 H   0  0  0  0  0  0  0  0  0  0  0  0
   62.2332   28.0058   51.1882 H   0  0  0  0  0  0  0  0  0  0  0  0
   61.1030   29.7650   48.1070 C   0  0  0  0  0  0  0  0  0  0  0  0
   60.6605   28.9379   47.5325 H   0  0  0  0  0  0  0  0  0  0  0  0
   61.6470   30.8620   47.4340 C   0  0  0  0  0  0  0  0  0  0  0  0
   61.6397   30.8868   46.3343 H   0  0  0  0  0  0  0  0  0  0  0  0
   59.1150   32.3730   46.7790 C   0  0  0  0  0  0  0  0  0  0  0  0
   59.5907   32.0675   47.7226 H   0  0  0  0  0  0  0  0  0  0  0  0
   58.0030   31.6710   46.3030 C   0  0  0  0  0  0  0  0  0  0  0  0
   57.6087   30.8183   46.8752 H   0  0  0  0  0  0  0  0  0  0  0  0
   59.5000   28.4680   44.6570 C   0  0  0  0  0  0  0  0  0  0  0  0
   59.9938   28.9108   43.7795 H   0  0  0  0  0  0  0  0  0  0  0  0
   60.2660   27.8350   45.6410 C   0  0  0  0  0  0  0  0  0  0  0  0
   61.3589   27.7758   45.5313 H   0  0  0  0  0  0  0  0  0  0  0  0
  1  2  1  0
  2  3  1  0
  3  4  2  0
  4  5  1  0
  4  6  1  0
  6  7  1  0
  6  8  2  0
  8  9  1  0
  9 10  1  0
  9 11  1  0
  9 12  1  0
 12 13  2  0
 12 14  1  0
 14 15  1  0
 15 16  2  0
 16 17  1  0
 16 18  1  0
 18 19  1  0
 18 20  2  0
 20 21  1  0
 21 22  1  0
 21 23  2  0
 23 24  1  0
 23 25  1  0
 25 26  2  0
 25 27  1  0
 27 28  2  0
 28 29  1  0
 28 30  1  0
 30 31  1  0
 30 32  2  0
 32 33  1  0
 33 34  1  0
 34 35  1  0
 34 36  1  0
 34 37  1  0
 32 38  1  0
 38 39  1  0
 38 40  2  0
 40 41  1  0
 20 42  1  0
 42 43  1  0
 42 44  2  0
 44 45  1  0
  8 46  1  0
 46 47  1  0
 46 48  2  0
 48 49  1  0
 48  3  1  0
 44 15  1  0
 40 27  1  0
M  END
>  <UniqueID>  (34) 
32

>  <SMILES>  (34) 
COc1ccc(C(=O)/C=C/c2ccc(OC(=O)Cc3ccc(O)cc3)cc2)cc1

>  <Energy>  (34) 
60.17331412619668

>  <Genealogy>  (34) 
COc1ccc(C(=O)/C=C/c2ccc(OC(=O)Cc3ccc(O)cc3)cc2)cc1 (cis-trans isomerization)
COc1ccc(C(=O)/C=C/c2ccc(OC(=O)Cc3ccc(O)cc3)cc2)cc1 (3D coordinates assigned)
COc1ccc(C(=O)/C=C/c2ccc(OC(=O)Cc3ccc(O)cc3)cc2)cc1 (optimized conformer: 60.17331412619668 kcal/mol)

>  <smiles>  (34) 
COc1ccc(C(=O)C=Cc2ccc(OC(=O)Cc3ccc(O)cc3)cc2)cc1

>  <score_type>  (34) 
oracle

>  <origin>  (34) 
adg

>  <m_score__min__energy>  (34) 
-9.8200000000000003

>  <m_primary>  (34) 
energy

$$$$
34:0
     RDKit          3D

 53 56  0  0  0  0  0  0  0  0999 V2000
   55.3250   30.8310   51.9520 C   0  0  0  0  0  0  0  0  0  0  0  0
   56.6370   30.4190   51.5760 O   0  0  0  0  0  0  0  0  0  0  0  0
   57.7740   31.2410   51.6280 C   0  0  0  0  0  0  0  0  0  0  0  0
   57.9800   32.1660   52.6690 C   0  0  0  0  0  0  0  0  0  0  0  0
   59.1250   32.9650   52.6880 C   0  0  0  0  0  0  0  0  0  0  0  0
   60.0780   32.8620   51.6670 C   0  0  0  0  0  0  0  0  0  0  0  0
   61.3250   33.7000   51.7190 C   0  0  0  0  0  0  0  0  0  0  0  0
   62.0690   33.5670   50.4700 N   0  0  0  0  0  0  0  0  0  0  0  0
   63.1830   32.6750   50.3270 C   0  0  0  0  0  0  0  0  0  0  0  0
   63.5080   31.9080   51.2730 O   0  0  0  0  0  0  0  0  0  0  0  0
   64.0020   32.6800   49.0700 C   0  0  0  0  0  0  0  0  0  0  0  0
   63.3570   33.4300   48.0410 O   0  0  0  0  0  0  0  0  0  0  0  0
   62.0880   33.1550   47.5070 C   0  0  0  0  0  0  0  0  0  0  0  0
   61.1290   34.1590   47.2700 C   0  0  0  0  0  0  0  0  0  0  0  0
   59.8810   33.8260   46.7380 C   0  0  0  0  0  0  0  0  0  0  0  0
   59.5730   32.4910   46.4390 C   0  0  0  0  0  0  0  0  0  0  0  0
   60.5190   31.4850   46.6730 C   0  0  0  0  0  0  0  0  0  0  0  0
   61.7730   31.8260   47.2030 C   0  0  0  0  0  0  0  0  0  0  0  0
   60.2270   30.0420   46.3400 C   0  0  0  0  0  0  0  0  0  0  0  0
   58.8470   29.7790   45.8750 N   0  0  0  0  0  0  0  0  0  0  0  0
   57.9440   30.7920   45.6560 C   0  0  0  0  0  0  0  0  0  0  0  0
   56.6930   30.5090   45.2050 N   0  0  0  0  0  0  0  0  0  0  0  0
   56.3010   29.2380   44.9570 C   0  0  0  0  0  0  0  0  0  0  0  0
   55.0160   28.9840   44.4960 O   0  0  0  0  0  0  0  0  0  0  0  0
   57.1900   28.1890   45.1630 C   0  0  0  0  0  0  0  0  0  0  0  0
   58.4750   28.4810   45.6250 C   0  0  0  0  0  0  0  0  0  0  0  0
   59.2860   27.5310   45.8070 O   0  0  0  0  0  0  0  0  0  0  0  0
   58.2940   32.1530   45.9060 N   0  0  0  0  0  0  0  0  0  0  0  0
   59.8810   31.9360   50.6320 C   0  0  0  0  0  0  0  0  0  0  0  0
   58.7300   31.1230   50.6070 C   0  0  0  0  0  0  0  0  0  0  0  0
   58.5010   30.1860   49.5870 O   0  0  0  0  0  0  0  0  0  0  0  0
   59.3490   29.0780   49.3030 C   0  0  0  0  0  0  0  0  0  0  0  0
   55.2485   30.8550   53.0491 H   0  0  0  0  0  0  0  0  0  0  0  0
   55.1262   31.8348   51.5485 H   0  0  0  0  0  0  0  0  0  0  0  0
   54.5880   30.1210   51.5485 H   0  0  0  0  0  0  0  0  0  0  0  0
   57.2345   32.2599   53.4723 H   0  0  0  0  0  0  0  0  0  0  0  0
   59.2794   33.6796   53.5099 H   0  0  0  0  0  0  0  0  0  0  0  0
   61.0493   34.7544   51.8681 H   0  0  0  0  0  0  0  0  0  0  0  0
   61.9554   33.3575   52.5528 H   0  0  0  0  0  0  0  0  0  0  0  0
   61.7990   34.1810   49.6660 H   0  0  0  0  0  0  0  0  0  0  0  0
   64.9830   33.1302   49.2819 H   0  0  0  0  0  0  0  0  0  0  0  0
   64.1200   31.6422   48.7251 H   0  0  0  0  0  0  0  0  0  0  0  0
   61.3633   35.2079   47.5044 H   0  0  0  0  0  0  0  0  0  0  0  0
   59.1366   34.6144   46.5528 H   0  0  0  0  0  0  0  0  0  0  0  0
   62.5187   31.0374   47.3819 H   0  0  0  0  0  0  0  0  0  0  0  0
   60.9211   29.7267   45.5471 H   0  0  0  0  0  0  0  0  0  0  0  0
   60.3512   29.4772   47.2757 H   0  0  0  0  0  0  0  0  0  0  0  0
   56.8872   27.1500   44.9660 H   0  0  0  0  0  0  0  0  0  0  0  0
   57.5900   32.9030   45.7210 H   0  0  0  0  0  0  0  0  0  0  0  0
   60.6313   31.8435   49.8330 H   0  0  0  0  0  0  0  0  0  0  0  0
   59.6931   28.6284   50.2461 H   0  0  0  0  0  0  0  0  0  0  0  0
   58.7913   28.3289   48.7217 H   0  0  0  0  0  0  0  0  0  0  0  0
   60.2177   29.4207   48.7217 H   0  0  0  0  0  0  0  0  0  0  0  0
  1  2  1  0
  2  3  1  0
  3  4  2  0
  4  5  1  0
  5  6  2  0
  6  7  1  0
  7  8  1  0
  8  9  1  0
  9 10  2  0
  9 11  1  0
 11 12  1  0
 12 13  1  0
 13 14  2  0
 14 15  1  0
 15 16  2  0
 16 17  1  0
 17 18  2  0
 17 19  1  0
 19 20  1  0
 20 21  1  0
 21 22  2  0
 22 23  1  0
 23 24  1  0
 23 25  2  0
 25 26  1  0
 26 27  2  0
 21 28  1  0
  6 29  1  0
 29 30  2  0
 30 31  1  0
 31 32  1  0
 30  3  1  0
 18 13  1  0
 26 20  1  0
 28 16  1  0
  1 33  1  0
  1 34  1  0
  1 35  1  0
  4 36  1  0
  5 37  1  0
  7 38  1  0
  7 39  1  0
  8 40  1  0
 11 41  1  0
 11 42  1  0
 14 43  1  0
 15 44  1  0
 18 45  1  0
 19 46  1  0
 19 47  1  0
 25 48  1  0
 28 49  1  0
 29 50  1  0
 32 51  1  0
 32 52  1  0
 32 53  1  0
M  CHG  1  24  -1
M  END
>  <UniqueID>  (35) 
33

>  <SMILES>  (35) 
COc1ccc(CNC(=O)COc2ccc3c(c2)Cn2c(nc([O-])cc2=O)N3)cc1OC

>  <Energy>  (35) 
58.15290978603378

>  <Genealogy>  (35) 
COc1ccc(CNC(=O)COc2ccc3c(c2)Cn2c(nc([O-])cc2=O)N3)cc1OC (protonated)
COc1ccc(CNC(=O)COc2ccc3c(c2)Cn2c(nc([O-])cc2=O)N3)cc1OC (3D coordinates assigned)
COc1ccc(CNC(=O)COc2ccc3c(c2)Cn2c(nc([O-])cc2=O)N3)cc1OC (nonaromatic ring conformer: 58.15290978603378 kcal/mol)

>  <smiles>  (35) 
COc1ccc(CNC(=O)COc2ccc3c(c2)Cn2c(nc(O)cc2=O)N3)cc1OC

>  <score_type>  (35) 
oracle

>  <origin>  (35) 
adg

>  <m_score__min__energy>  (35) 
-10.85

>  <m_primary>  (35) 
energy

$$$$
35:0
     RDKit          3D

 34 35  0  0  0  0  0  0  0  0999 V2000
   55.1690   27.4560   45.2730 H   0  0  0  0  0  0  0  0  0  0  0  0
   55.1710   26.7040   45.9980 N   0  0  0  0  0  0  0  0  0  0  0  0
   56.1560   25.8710   46.1090 C   0  0  0  0  0  0  0  0  0  0  0  0
   56.0570   24.8250   46.9740 N   0  0  0  0  0  0  0  0  0  0  0  0
   57.0580   23.9190   47.1370 C   0  0  0  0  0  0  0  0  0  0  0  0
   56.8950   22.8420   48.0600 N   0  0  0  0  0  0  0  0  0  0  0  0
   56.0240   22.7650   48.6300 H   0  0  0  0  0  0  0  0  0  0  0  0
   57.6400   22.1200   48.1790 H   0  0  0  0  0  0  0  0  0  0  0  0
   58.2380   24.0510   46.4000 C   0  0  0  0  0  0  0  0  0  0  0  0
   59.0540   23.3239   46.5243 H   0  0  0  0  0  0  0  0  0  0  0  0
   58.3720   25.1120   45.5060 C   0  0  0  0  0  0  0  0  0  0  0  0
   59.2996   25.2242   44.9256 H   0  0  0  0  0  0  0  0  0  0  0  0
   57.3290   26.0390   45.3420 C   0  0  0  0  0  0  0  0  0  0  0  0
   57.5040   27.2010   44.3890 C   0  0  0  0  0  0  0  0  0  0  0  0
   58.2707   26.9431   43.6436 H   0  0  0  0  0  0  0  0  0  0  0  0
   56.5407   27.3997   43.8965 H   0  0  0  0  0  0  0  0  0  0  0  0
   57.9340   28.4480   45.1310 C   0  0  0  0  0  0  0  0  0  0  0  0
   58.9220   28.3280   46.1220 C   0  0  0  0  0  0  0  0  0  0  0  0
   59.3633   27.3424   46.3313 H   0  0  0  0  0  0  0  0  0  0  0  0
   59.3530   29.4450   46.8470 C   0  0  0  0  0  0  0  0  0  0  0  0
   60.3770   29.2890   47.9330 C   0  0  0  0  0  0  0  0  0  0  0  0
   59.8853   29.3639   48.9141 H   0  0  0  0  0  0  0  0  0  0  0  0
   60.8629   28.3065   47.8404 H   0  0  0  0  0  0  0  0  0  0  0  0
   61.1334   30.0823   47.8404 H   0  0  0  0  0  0  0  0  0  0  0  0
   58.7710   30.6950   46.6020 C   0  0  0  0  0  0  0  0  0  0  0  0
   59.0857   31.5683   47.1922 H   0  0  0  0  0  0  0  0  0  0  0  0
   57.7880   30.8430   45.6080 C   0  0  0  0  0  0  0  0  0  0  0  0
   57.2010   32.0880   45.3280 O   0  0  0  0  0  0  0  0  0  0  0  0
   57.8140   33.3480   45.5820 C   0  0  0  0  0  0  0  0  0  0  0  0
   57.8909   33.5061   46.6679 H   0  0  0  0  0  0  0  0  0  0  0  0
   58.8199   33.3627   45.1372 H   0  0  0  0  0  0  0  0  0  0  0  0
   57.2047   34.1485   45.1372 H   0  0  0  0  0  0  0  0  0  0  0  0
   57.3730   29.7210   44.8680 C   0  0  0  0  0  0  0  0  0  0  0  0
   56.1570   29.9570   43.6100 Cl  0  0  0  0  0  0  0  0  0  0  0  0
  1  2  1  0
  2  3  2  0
  3  4  1  0
  4  5  1  0
  5  6  1  0
  6  7  1  0
  6  8  1  0
  5  9  2  0
  9 10  1  0
  9 11  1  0
 11 12  1  0
 11 13  2  0
 13 14  1  0
 14 15  1  0
 14 16  1  0
 14 17  1  0
 17 18  2  0
 18 19  1  0
 18 20  1  0
 20 21  1  0
 21 22  1  0
 21 23  1  0
 21 24  1  0
 20 25  2  0
 25 26  1  0
 25 27  1  0
 27 28  1  0
 28 29  1  0
 29 30  1  0
 29 31  1  0
 29 32  1  0
 27 33  2  0
 33 34  1  0
 13  3  1  0
 33 17  1  0
M  CHG  1   4  -1
M  END
>  <UniqueID>  (36) 
34

>  <SMILES>  (36) 
[H]/N=c1\[n-]c(N)ccc1Cc1cc(C)cc(OC)c1Cl

>  <Energy>  (36) 
34.8929451110534

>  <Genealogy>  (36) 
COc1cc(C)cc(Cc2ccc(N)[n-]c2=N)c1Cl (protonated)
[H]/N=c1\[n-]c(N)ccc1Cc1cc(C)cc(OC)c1Cl (cis-trans isomerization)
[H]/N=c1\[n-]c(N)ccc1Cc1cc(C)cc(OC)c1Cl (3D coordinates assigned)
[H]/N=c1\[n-]c(N)ccc1Cc1cc(C)cc(OC)c1Cl (optimized conformer: 34.8929451110534 kcal/mol)

>  <smiles>  (36) 
COc1cc(C)cc(Cc2ccc(N)[nH]c2=N)c1Cl

>  <score_type>  (36) 
oracle

>  <origin>  (36) 
adg

>  <m_score__min__energy>  (36) 
-8.5399999999999991

>  <m_primary>  (36) 
energy

$$$$
36:0
     RDKit          3D

 47 49  0  0  0  0  0  0  0  0999 V2000
   56.3040   30.8220   44.5940 O   0  0  0  0  0  0  0  0  0  0  0  0
   57.4780   30.3990   44.6070 N   0  0  0  0  0  0  0  0  0  0  0  0
   58.4680   31.1720   44.0470 O   0  0  0  0  0  0  0  0  0  0  0  0
   57.8220   29.2420   45.3900 C   0  0  0  0  0  0  0  0  0  0  0  0
   56.9740   28.1220   45.3650 C   0  0  0  0  0  0  0  0  0  0  0  0
   57.2310   27.0100   46.1730 C   0  0  0  0  0  0  0  0  0  0  0  0
   56.1320   25.6350   46.1330 S   0  0  0  0  0  0  0  0  0  0  0  0
   54.7140   26.1160   45.9860 O   0  0  0  0  0  0  0  0  0  0  0  0
   56.2620   24.8860   47.4310 O   0  0  0  0  0  0  0  0  0  0  0  0
   56.5640   24.6000   44.7880 N   0  0  0  0  0  0  0  0  0  0  0  0
   55.9980   23.2390   44.9350 C   0  0  0  0  0  0  0  0  0  0  0  0
   57.0250   22.2200   45.4610 C   0  0  0  0  0  0  0  0  0  0  0  0
   57.9310   22.8480   46.3400 O   0  0  0  0  0  0  0  0  0  0  0  0
   58.7690   23.7410   45.6260 C   0  0  0  0  0  0  0  0  0  0  0  0
   58.0200   24.5790   44.5620 C   0  0  0  0  0  0  0  0  0  0  0  0
   58.3480   27.0100   47.0130 C   0  0  0  0  0  0  0  0  0  0  0  0
   59.2110   28.1060   47.0360 C   0  0  0  0  0  0  0  0  0  0  0  0
   58.9710   29.2290   46.2190 C   0  0  0  0  0  0  0  0  0  0  0  0
   59.9200   30.3140   46.1740 N   0  0  0  0  0  0  0  0  0  0  0  0
   60.4590   30.9500   47.3790 C   0  0  0  0  0  0  0  0  0  0  0  0
   59.4950   32.0020   47.9440 C   0  0  0  0  0  0  0  0  0  0  0  0
   58.9400   32.8820   46.8590 C   0  0  0  0  0  0  0  0  0  0  0  0
   59.7660   33.7760   46.1610 C   0  0  0  0  0  0  0  0  0  0  0  0
   59.2120   34.5940   45.1740 C   0  0  0  0  0  0  0  0  0  0  0  0
   57.8460   34.5160   44.8940 C   0  0  0  0  0  0  0  0  0  0  0  0
   57.0520   33.6170   45.6100 C   0  0  0  0  0  0  0  0  0  0  0  0
   57.6100   32.8290   46.5690 N   0  0  0  0  0  0  0  0  0  0  0  0
   56.0967   28.1199   44.7014 H   0  0  0  0  0  0  0  0  0  0  0  0
   55.1543   23.2833   45.6394 H   0  0  0  0  0  0  0  0  0  0  0  0
   55.6790   22.9032   43.9373 H   0  0  0  0  0  0  0  0  0  0  0  0
   56.4977   21.4166   45.9963 H   0  0  0  0  0  0  0  0  0  0  0  0
   57.5831   21.8024   44.6100 H   0  0  0  0  0  0  0  0  0  0  0  0
   59.2357   24.4299   46.3455 H   0  0  0  0  0  0  0  0  0  0  0  0
   59.5098   23.1289   45.0907 H   0  0  0  0  0  0  0  0  0  0  0  0
   58.3978   25.6116   44.5951 H   0  0  0  0  0  0  0  0  0  0  0  0
   58.2010   24.1155   43.5810 H   0  0  0  0  0  0  0  0  0  0  0  0
   58.5476   26.1422   47.6588 H   0  0  0  0  0  0  0  0  0  0  0  0
   60.0885   28.0935   47.6992 H   0  0  0  0  0  0  0  0  0  0  0  0
   60.2200   30.6730   45.2410 H   0  0  0  0  0  0  0  0  0  0  0  0
   60.6318   30.1777   48.1430 H   0  0  0  0  0  0  0  0  0  0  0  0
   61.3986   31.4547   47.1098 H   0  0  0  0  0  0  0  0  0  0  0  0
   58.6628   31.4894   48.4487 H   0  0  0  0  0  0  0  0  0  0  0  0
   60.0518   32.6354   48.6502 H   0  0  0  0  0  0  0  0  0  0  0  0
   60.8406   33.8321   46.3892 H   0  0  0  0  0  0  0  0  0  0  0  0
   59.8496   35.2977   44.6188 H   0  0  0  0  0  0  0  0  0  0  0  0
   57.4002   35.1556   44.1180 H   0  0  0  0  0  0  0  0  0  0  0  0
   55.9749   33.5460   45.3985 H   0  0  0  0  0  0  0  0  0  0  0  0
  1  2  2  0
  2  3  1  0
  2  4  1  0
  4  5  2  0
  5  6  1  0
  6  7  1  0
  7  8  2  0
  7  9  2  0
  7 10  1  0
 10 11  1  0
 11 12  1  0
 12 13  1  0
 13 14  1  0
 14 15  1  0
  6 16  2  0
 16 17  1  0
 17 18  2  0
 18 19  1  0
 19 20  1  0
 20 21  1  0
 21 22  1  0
 22 23  2  0
 23 24  1  0
 24 25  2  0
 25 26  1  0
 26 27  2  0
 18  4  1  0
 27 22  1  0
 15 10  1  0
  5 28  1  0
 11 29  1  0
 11 30  1  0
 12 31  1  0
 12 32  1  0
 14 33  1  0
 14 34  1  0
 15 35  1  0
 15 36  1  0
 16 37  1  0
 17 38  1  0
 19 39  1  0
 20 40  1  0
 20 41  1  0
 21 42  1  0
 21 43  1  0
 23 44  1  0
 24 45  1  0
 25 46  1  0
 26 47  1  0
M  CHG  2   2   1   3  -1
M  END
>  <UniqueID>  (37) 
35

>  <SMILES>  (37) 
O=[N+]([O-])c1cc(S(=O)(=O)N2CCOCC2)ccc1NCCc1ccccn1

>  <Energy>  (37) 
63.19213841280761

>  <Genealogy>  (37) 
O=[N+]([O-])c1cc(S(=O)(=O)N2CCOCC2)ccc1NCCc1ccccn1 (3D coordinates assigned)
O=[N+]([O-])c1cc(S(=O)(=O)N2CCOCC2)ccc1NCCc1ccccn1 (nonaromatic ring conformer: 63.19213841280761 kcal/mol)

>  <smiles>  (37) 
O=[N+]([O-])c1cc(S(=O)(=O)N2CCOCC2)ccc1NCCc1ccccn1

>  <score_type>  (37) 
oracle

>  <origin>  (37) 
adg

>  <m_score__min__energy>  (37) 
-8.8699999999999992

>  <m_primary>  (37) 
energy

$$$$
37:0
     RDKit          3D

 36 37  0  0  0  0  0  0  0  0999 V2000
   60.3260   25.4680   46.2770 C   0  0  0  0  0  0  0  0  0  0  0  0
   58.8690   25.8220   46.2500 C   0  0  0  0  0  0  0  0  0  0  0  0
   57.9120   24.9120   46.7230 C   0  0  0  0  0  0  0  0  0  0  0  0
   56.5520   25.2220   46.6520 C   0  0  0  0  0  0  0  0  0  0  0  0
   56.1330   26.4390   46.1050 C   0  0  0  0  0  0  0  0  0  0  0  0
   54.7700   26.7000   45.9970 O   0  0  0  0  0  0  0  0  0  0  0  0
   57.0850   27.3680   45.6410 C   0  0  0  0  0  0  0  0  0  0  0  0
   56.6880   28.6210   45.0610 N   0  0  0  0  0  0  0  0  0  0  0  0
   57.2170   29.8860   45.4800 C   0  0  0  0  0  0  0  0  0  0  0  0
   58.1650   29.9410   46.3110 O   0  0  0  0  0  0  0  0  0  0  0  0
   56.6860   31.0870   44.9170 N   0  0  0  0  0  0  0  0  0  0  0  0
   57.4220   31.9050   43.9590 C   0  0  0  0  0  0  0  0  0  0  0  0
   57.3780   33.3750   44.3760 C   0  0  0  0  0  0  0  0  0  0  0  0
   58.3620   33.6600   45.4710 C   0  0  0  0  0  0  0  0  0  0  0  0
   59.4150   34.5540   45.4350 C   0  0  0  0  0  0  0  0  0  0  0  0
   60.0010   34.5940   46.6490 N   0  0  0  0  0  0  0  0  0  0  0  0
   59.3500   33.7500   47.4340 N   0  0  0  0  0  0  0  0  0  0  0  0
   59.6380   33.5740   48.8510 C   0  0  0  0  0  0  0  0  0  0  0  0
   58.3340   33.1780   46.7620 C   0  0  0  0  0  0  0  0  0  0  0  0
   58.4480   27.0380   45.6890 C   0  0  0  0  0  0  0  0  0  0  0  0
   60.6641   25.3859   47.3205 H   0  0  0  0  0  0  0  0  0  0  0  0
   60.4793   24.5065   45.7651 H   0  0  0  0  0  0  0  0  0  0  0  0
   60.9034   26.2520   45.7651 H   0  0  0  0  0  0  0  0  0  0  0  0
   58.2337   23.9512   47.1512 H   0  0  0  0  0  0  0  0  0  0  0  0
   55.8069   24.5055   47.0281 H   0  0  0  0  0  0  0  0  0  0  0  0
   56.1060   28.6020   44.1940 H   0  0  0  0  0  0  0  0  0  0  0  0
   58.4687   31.5688   43.9228 H   0  0  0  0  0  0  0  0  0  0  0  0
   56.9590   31.7995   42.9668 H   0  0  0  0  0  0  0  0  0  0  0  0
   57.6195   34.0020   43.5050 H   0  0  0  0  0  0  0  0  0  0  0  0
   56.3681   33.6001   44.7493 H   0  0  0  0  0  0  0  0  0  0  0  0
   59.7255   35.1393   44.5569 H   0  0  0  0  0  0  0  0  0  0  0  0
   58.8496   34.0558   49.4480 H   0  0  0  0  0  0  0  0  0  0  0  0
   59.6726   32.5003   49.0875 H   0  0  0  0  0  0  0  0  0  0  0  0
   60.6093   34.0330   49.0875 H   0  0  0  0  0  0  0  0  0  0  0  0
   57.6113   32.4558   47.1696 H   0  0  0  0  0  0  0  0  0  0  0  0
   59.1931   27.7383   45.2835 H   0  0  0  0  0  0  0  0  0  0  0  0
  1  2  1  0
  2  3  2  0
  3  4  1  0
  4  5  2  0
  5  6  1  0
  5  7  1  0
  7  8  1  0
  8  9  1  0
  9 10  2  0
  9 11  1  0
 11 12  1  0
 12 13  1  0
 13 14  1  0
 14 15  1  0
 15 16  2  0
 16 17  1  0
 17 18  1  0
 17 19  1  0
  7 20  2  0
 20  2  1  0
 19 14  2  0
  1 21  1  0
  1 22  1  0
  1 23  1  0
  3 24  1  0
  4 25  1  0
  8 26  1  0
 12 27  1  0
 12 28  1  0
 13 29  1  0
 13 30  1  0
 15 31  1  0
 18 32  1  0
 18 33  1  0
 18 34  1  0
 19 35  1  0
 20 36  1  0
M  CHG  2   6  -1  11  -1
M  END
>  <UniqueID>  (38) 
36

>  <SMILES>  (38) 
Cc1ccc([O-])c(NC(=O)[N-]CCc2cnn(C)c2)c1

>  <Energy>  (38) 
63.18362723062602

>  <Genealogy>  (38) 
Cc1ccc([O-])c(NC(=O)[N-]CCc2cnn(C)c2)c1 (protonated)
Cc1ccc([O-])c(NC(=O)[N-]CCc2cnn(C)c2)c1 (3D coordinates assigned)
Cc1ccc([O-])c(NC(=O)[N-]CCc2cnn(C)c2)c1 (optimized conformer: 63.18362723062602 kcal/mol)

>  <smiles>  (38) 
Cc1ccc(O)c(NC(=O)NCCc2cnn(C)c2)c1

>  <score_type>  (38) 
oracle

>  <origin>  (38) 
adg

>  <m_score__min__energy>  (38) 
-12.98

>  <m_primary>  (38) 
energy

$$$$
38:0
     RDKit          3D

 41 43  0  0  0  0  0  0  0  0999 V2000
   57.0950   29.0120   51.6990 H   0  0  0  0  0  0  0  0  0  0  0  0
   56.5300   29.8380   51.9980 N   0  0  0  0  0  0  0  0  0  0  0  0
   57.1350   31.1190   52.1550 C   0  0  0  0  0  0  0  0  0  0  0  0
   56.8490   31.8260   53.1590 O   0  0  0  0  0  0  0  0  0  0  0  0
   58.0900   31.6070   51.1520 C   0  0  0  0  0  0  0  0  0  0  0  0
   57.7330   32.3030   50.0550 N   0  0  0  0  0  0  0  0  0  0  0  0
   58.8330   32.5700   49.3690 N   0  0  0  0  0  0  0  0  0  0  0  0
   58.8230   33.2670   48.1090 C   0  0  0  0  0  0  0  0  0  0  0  0
   59.7840   34.2500   47.8110 C   0  0  0  0  0  0  0  0  0  0  0  0
   60.5553   34.5038   48.5531 H   0  0  0  0  0  0  0  0  0  0  0  0
   59.7640   34.9060   46.5770 C   0  0  0  0  0  0  0  0  0  0  0  0
   60.5277   35.6629   46.3451 H   0  0  0  0  0  0  0  0  0  0  0  0
   58.7760   34.6020   45.6380 C   0  0  0  0  0  0  0  0  0  0  0  0
   58.7647   35.1162   44.6656 H   0  0  0  0  0  0  0  0  0  0  0  0
   57.8030   33.6460   45.9330 C   0  0  0  0  0  0  0  0  0  0  0  0
   57.0203   33.4139   45.1958 H   0  0  0  0  0  0  0  0  0  0  0  0
   57.8210   32.9830   47.1630 C   0  0  0  0  0  0  0  0  0  0  0  0
   57.0477   32.2352   47.3928 H   0  0  0  0  0  0  0  0  0  0  0  0
   59.8950   32.0320   50.0110 C   0  0  0  0  0  0  0  0  0  0  0  0
   61.1100   32.0660   49.5380 N   0  0  0  0  0  0  0  0  0  0  0  0
   61.6920   31.2790   48.4850 C   0  0  0  0  0  0  0  0  0  0  0  0
   62.9420   31.2220   48.3350 O   0  0  0  0  0  0  0  0  0  0  0  0
   60.8100   30.5250   47.5650 C   0  0  0  0  0  0  0  0  0  0  0  0
   60.3450   31.1060   46.3720 C   0  0  0  0  0  0  0  0  0  0  0  0
   60.6536   32.1273   46.1041 H   0  0  0  0  0  0  0  0  0  0  0  0
   59.5160   30.4120   45.5480 N   0  0  0  0  0  0  0  0  0  0  0  0
   59.1060   29.1450   45.8330 C   0  0  0  0  0  0  0  0  0  0  0  0
   58.3000   28.5060   45.0360 N   0  0  0  0  0  0  0  0  0  0  0  0
   57.5290   29.1210   43.9560 C   0  0  0  0  0  0  0  0  0  0  0  0
   57.2272   28.3446   43.2376 H   0  0  0  0  0  0  0  0  0  0  0  0
   58.1532   29.8753   43.4546 H   0  0  0  0  0  0  0  0  0  0  0  0
   56.3070   29.7870   44.5060 C   0  0  0  0  0  0  0  0  0  0  0  0
   56.3110   31.0270   44.7270 O   0  0  0  0  0  0  0  0  0  0  0  0
   55.1510   29.0150   44.8210 N   0  0  0  0  0  0  0  0  0  0  0  0
   54.4530   29.3530   45.5190 H   0  0  0  0  0  0  0  0  0  0  0  0
   59.5470   28.5260   47.0070 C   0  0  0  0  0  0  0  0  0  0  0  0
   59.2262   27.5016   47.2470 H   0  0  0  0  0  0  0  0  0  0  0  0
   60.3970   29.2170   47.8720 C   0  0  0  0  0  0  0  0  0  0  0  0
   60.7452   28.7359   48.7979 H   0  0  0  0  0  0  0  0  0  0  0  0
   59.4580   31.4080   51.1710 C   0  0  0  0  0  0  0  0  0  0  0  0
   60.0581   30.8800   51.9267 H   0  0  0  0  0  0  0  0  0  0  0  0
  1  2  1  0
  2  3  1  0
  3  4  2  0
  3  5  1  0
  5  6  1  0
  6  7  1  0
  7  8  1  0
  8  9  2  0
  9 10  1  0
  9 11  1  0
 11 12  1  0
 11 13  2  0
 13 14  1  0
 13 15  1  0
 15 16  1  0
 15 17  2  0
 17 18  1  0
  7 19  1  0
 19 20  2  3
 20 21  1  0
 21 22  2  0
 21 23  1  0
 23 24  2  0
 24 25  1  0
 24 26  1  0
 26 27  1  0
 27 28  2  0
 28 29  1  0
 29 30  1  0
 29 31  1  0
 29 32  1  0
 32 33  2  0
 32 34  1  0
 34 35  1  0
 27 36  1  0
 36 37  1  0
 36 38  2  0
 38 39  1  0
 19 40  1  0
 40 41  1  0
 40  5  2  0
 17  8  1  0
 38 23  1  0
M  CHG  4   2  -1   6  -1  26  -1  34  -1
M  END
>  <UniqueID>  (39) 
37

>  <SMILES>  (39) 
[NH-]C(=O)C/N=c1/ccc(C(=O)N=c2cc(C([NH-])=O)[n-]n2-c2ccccc2)c[n-]1

>  <Energy>  (39) 
81.31816526052273

>  <Genealogy>  (39) 
[NH-]C(=O)CN=c1ccc(C(=O)N=c2cc(C([NH-])=O)[n-]n2-c2ccccc2)c[n-]1 (protonated)
[NH-]C(=O)C/N=c1/ccc(C(=O)N=c2cc(C([NH-])=O)[n-]n2-c2ccccc2)c[n-]1 (cis-trans isomerization)
[NH-]C(=O)C/N=c1/ccc(C(=O)N=c2cc(C([NH-])=O)[n-]n2-c2ccccc2)c[n-]1 (3D coordinates assigned)
[NH-]C(=O)C/N=c1/ccc(C(=O)N=c2cc(C([NH-])=O)[n-]n2-c2ccccc2)c[n-]1 (optimized conformer: 81.31816526052273 kcal/mol)

>  <smiles>  (39) 
NC(=O)CN=c1ccc(C(=O)N=c2cc(C(N)=O)[nH]n2-c2ccccc2)c[nH]1

>  <score_type>  (39) 
oracle

>  <origin>  (39) 
adg

>  <m_score__min__energy>  (39) 
-16.149999999999999

>  <m_primary>  (39) 
energy

$$$$
39:0
     RDKit          3D

 38 40  0  0  0  0  0  0  0  0999 V2000
   63.4323   33.7907   45.3818 H   0  0  0  0  0  0  0  0  0  0  0  0
   63.0100   33.7070   46.3940 C   0  0  0  0  0  0  0  0  0  0  0  0
   63.8510   33.4660   47.4830 C   0  0  0  0  0  0  0  0  0  0  0  0
   64.9349   33.3611   47.3276 H   0  0  0  0  0  0  0  0  0  0  0  0
   63.3160   33.3580   48.7710 C   0  0  0  0  0  0  0  0  0  0  0  0
   64.3730   33.0610   50.1390 Cl  0  0  0  0  0  0  0  0  0  0  0  0
   61.9370   33.4920   48.9690 C   0  0  0  0  0  0  0  0  0  0  0  0
   61.5189   33.4115   49.9833 H   0  0  0  0  0  0  0  0  0  0  0  0
   61.0840   33.7290   47.8770 C   0  0  0  0  0  0  0  0  0  0  0  0
   59.6040   33.9100   48.0880 C   0  0  0  0  0  0  0  0  0  0  0  0
   59.3955   34.9679   48.3057 H   0  0  0  0  0  0  0  0  0  0  0  0
   59.2840   33.2807   48.9315 H   0  0  0  0  0  0  0  0  0  0  0  0
   58.8610   33.5070   46.8820 N   0  0  0  0  0  0  0  0  0  0  0  0
   58.4740   34.4730   45.9950 C   0  0  0  0  0  0  0  0  0  0  0  0
   58.7474   35.5222   46.1804 H   0  0  0  0  0  0  0  0  0  0  0  0
   57.7380   34.1440   44.8600 C   0  0  0  0  0  0  0  0  0  0  0  0
   57.4274   34.9292   44.1551 H   0  0  0  0  0  0  0  0  0  0  0  0
   57.3980   32.8170   44.6230 C   0  0  0  0  0  0  0  0  0  0  0  0
   56.8149   32.5517   43.7288 H   0  0  0  0  0  0  0  0  0  0  0  0
   57.7960   31.8160   45.5200 C   0  0  0  0  0  0  0  0  0  0  0  0
   57.4330   30.4020   45.2360 C   0  0  0  0  0  0  0  0  0  0  0  0
   56.2590   30.1280   44.8700 O   0  0  0  0  0  0  0  0  0  0  0  0
   58.3600   29.3220   45.4280 N   0  0  0  0  0  0  0  0  0  0  0  0
   58.0830   28.1100   45.8270 C   0  0  0  0  0  0  0  0  0  0  0  0
   58.9660   27.4820   46.7150 C   0  0  0  0  0  0  0  0  0  0  0  0
   59.8648   28.0100   47.0663 H   0  0  0  0  0  0  0  0  0  0  0  0
   58.7000   26.1830   47.1520 C   0  0  0  0  0  0  0  0  0  0  0  0
   59.3938   25.6799   47.8415 H   0  0  0  0  0  0  0  0  0  0  0  0
   57.5530   25.5260   46.7120 C   0  0  0  0  0  0  0  0  0  0  0  0
   57.3382   24.4999   47.0453 H   0  0  0  0  0  0  0  0  0  0  0  0
   56.6800   26.1820   45.8450 C   0  0  0  0  0  0  0  0  0  0  0  0
   55.7684   25.6737   45.4977 H   0  0  0  0  0  0  0  0  0  0  0  0
   56.9510   27.4500   45.4260 N   0  0  0  0  0  0  0  0  0  0  0  0
   56.2440   27.9080   44.8100 H   0  0  0  0  0  0  0  0  0  0  0  0
   58.5200   32.1920   46.6730 C   0  0  0  0  0  0  0  0  0  0  0  0
   58.8390   31.3150   47.5240 O   0  0  0  0  0  0  0  0  0  0  0  0
   61.6320   33.8420   46.5890 C   0  0  0  0  0  0  0  0  0  0  0  0
   60.9741   34.0376   45.7294 H   0  0  0  0  0  0  0  0  0  0  0  0
  1  2  1  0
  2  3  2  0
  3  4  1  0
  3  5  1  0
  5  6  1  0
  5  7  2  0
  7  8  1  0
  7  9  1  0
  9 10  1  0
 10 11  1  0
 10 12  1  0
 10 13  1  0
 13 14  1  0
 14 15  1  0
 14 16  2  0
 16 17  1  0
 16 18  1  0
 18 19  1  0
 18 20  2  0
 20 21  1  0
 21 22  2  0
 21 23  1  0
 23 24  2  0
 24 25  1  0
 25 26  1  0
 25 27  2  0
 27 28  1  0
 27 29  1  0
 29 30  1  0
 29 31  2  0
 31 32  1  0
 31 33  1  0
 33 34  1  0
 20 35  1  0
 35 36  2  0
  9 37  2  0
 37 38  1  0
 37  2  1  0
 35 13  1  0
 33 24  1  0
M  END
>  <UniqueID>  (40) 
38

>  <SMILES>  (40) 
O=C(/N=c1/cccc[nH]1)c1cccn(Cc2cccc(Cl)c2)c1=O

>  <Energy>  (40) 
54.27956671417555

>  <Genealogy>  (40) 
O=C(/N=c1/cccc[nH]1)c1cccn(Cc2cccc(Cl)c2)c1=O (cis-trans isomerization)
O=C(/N=c1/cccc[nH]1)c1cccn(Cc2cccc(Cl)c2)c1=O (3D coordinates assigned)
O=C(/N=c1/cccc[nH]1)c1cccn(Cc2cccc(Cl)c2)c1=O (optimized conformer: 54.27956671417555 kcal/mol)

>  <smiles>  (40) 
O=C(N=c1cccc[nH]1)c1cccn(Cc2cccc(Cl)c2)c1=O

>  <score_type>  (40) 
oracle

>  <origin>  (40) 
adg

>  <m_score__min__energy>  (40) 
-8.2300000000000004

>  <m_primary>  (40) 
energy

$$$$
40:0
     RDKit          3D

 52 55  0  0  0  0  0  0  0  0999 V2000
   61.6697   29.2170   49.2976 H   0  0  0  0  0  0  0  0  0  0  0  0
   60.9040   29.8970   48.8960 C   0  0  0  0  0  0  0  0  0  0  0  0
   59.8420   30.3100   49.7060 C   0  0  0  0  0  0  0  0  0  0  0  0
   59.7724   29.9543   50.7446 H   0  0  0  0  0  0  0  0  0  0  0  0
   58.8680   31.1750   49.1970 C   0  0  0  0  0  0  0  0  0  0  0  0
   58.0351   31.4998   49.8379 H   0  0  0  0  0  0  0  0  0  0  0  0
   58.9490   31.6310   47.8700 C   0  0  0  0  0  0  0  0  0  0  0  0
   57.9010   32.5560   47.3130 C   0  0  0  0  0  0  0  0  0  0  0  0
   57.7413   33.3868   48.0161 H   0  0  0  0  0  0  0  0  0  0  0  0
   56.9674   31.9914   47.1733 H   0  0  0  0  0  0  0  0  0  0  0  0
   58.3260   33.0960   46.0170 N   0  0  0  0  0  0  0  0  0  0  0  0
   59.2180   34.0810   45.7510 C   0  0  0  0  0  0  0  0  0  0  0  0
   59.9560   34.8930   46.7760 C   0  0  0  0  0  0  0  0  0  0  0  0
   60.2122   35.8706   46.3416 H   0  0  0  0  0  0  0  0  0  0  0  0
   59.3060   35.0153   47.6549 H   0  0  0  0  0  0  0  0  0  0  0  0
   61.2220   34.2040   47.2140 C   0  0  0  0  0  0  0  0  0  0  0  0
   62.2490   33.8320   46.3650 C   0  0  0  0  0  0  0  0  0  0  0  0
   62.2915   33.9842   45.2764 H   0  0  0  0  0  0  0  0  0  0  0  0
   63.2100   33.2320   47.1540 C   0  0  0  0  0  0  0  0  0  0  0  0
   64.1659   32.8070   46.8141 H   0  0  0  0  0  0  0  0  0  0  0  0
   62.7410   33.2680   48.4500 C   0  0  0  0  0  0  0  0  0  0  0  0
   63.2701   32.8612   49.3244 H   0  0  0  0  0  0  0  0  0  0  0  0
   61.5390   33.8750   48.4870 N   0  0  0  0  0  0  0  0  0  0  0  0
   60.7180   34.0460   49.6840 C   0  0  0  0  0  0  0  0  0  0  0  0
   61.3436   33.9157   50.5794 H   0  0  0  0  0  0  0  0  0  0  0  0
   60.2794   35.0548   49.6868 H   0  0  0  0  0  0  0  0  0  0  0  0
   59.9131   33.2962   49.6868 H   0  0  0  0  0  0  0  0  0  0  0  0
   59.3350   34.2970   44.4240 N   0  0  0  0  0  0  0  0  0  0  0  0
   58.5100   33.4470   43.8350 N   0  0  0  0  0  0  0  0  0  0  0  0
   58.3680   33.3700   42.8040 H   0  0  0  0  0  0  0  0  0  0  0  0
   57.9020   32.7280   44.7910 C   0  0  0  0  0  0  0  0  0  0  0  0
   56.6760   31.4610   44.4620 S   0  0  0  0  0  0  0  0  0  0  0  0
   57.8770   30.0900   44.4080 C   0  0  0  0  0  0  0  0  0  0  0  0
   58.8910   30.4797   44.5810 H   0  0  0  0  0  0  0  0  0  0  0  0
   57.8436   29.6024   43.4226 H   0  0  0  0  0  0  0  0  0  0  0  0
   57.5300   29.1050   45.4730 C   0  0  0  0  0  0  0  0  0  0  0  0
   58.2070   29.0720   46.5360 O   0  0  0  0  0  0  0  0  0  0  0  0
   56.4010   28.2390   45.2830 N   0  0  0  0  0  0  0  0  0  0  0  0
   56.2980   27.0150   45.7020 C   0  0  0  0  0  0  0  0  0  0  0  0
   55.1390   26.4010   46.0130 N   0  0  0  0  0  0  0  0  0  0  0  0
   55.4570   25.1890   46.3680 O   0  0  0  0  0  0  0  0  0  0  0  0
   56.7570   25.0000   46.3060 C   0  0  0  0  0  0  0  0  0  0  0  0
   57.4400   23.7130   46.6210 C   0  0  0  0  0  0  0  0  0  0  0  0
   57.5053   23.5900   47.7122 H   0  0  0  0  0  0  0  0  0  0  0  0
   56.8660   22.8786   46.1916 H   0  0  0  0  0  0  0  0  0  0  0  0
   58.4527   23.7207   46.1916 H   0  0  0  0  0  0  0  0  0  0  0  0
   57.3620   26.1570   45.8680 C   0  0  0  0  0  0  0  0  0  0  0  0
   58.4311   26.3484   45.6938 H   0  0  0  0  0  0  0  0  0  0  0  0
   60.0210   31.2130   47.0630 C   0  0  0  0  0  0  0  0  0  0  0  0
   60.0958   31.5674   46.0243 H   0  0  0  0  0  0  0  0  0  0  0  0
   60.9930   30.3480   47.5760 C   0  0  0  0  0  0  0  0  0  0  0  0
   61.8289   30.0221   46.9396 H   0  0  0  0  0  0  0  0  0  0  0  0
  1  2  1  0
  2  3  2  0
  3  4  1  0
  3  5  1  0
  5  6  1  0
  5  7  2  0
  7  8  1  0
  8  9  1  0
  8 10  1  0
  8 11  1  0
 11 12  1  0
 12 13  1  0
 13 14  1  0
 13 15  1  0
 13 16  1  0
 16 17  2  0
 17 18  1  0
 17 19  1  0
 19 20  1  0
 19 21  2  0
 21 22  1  0
 21 23  1  0
 23 24  1  0
 24 25  1  0
 24 26  1  0
 24 27  1  0
 12 28  2  0
 28 29  1  0
 29 30  1  0
 29 31  2  0
 31 32  1  0
 32 33  1  0
 33 34  1  0
 33 35  1  0
 33 36  1  0
 36 37  2  0
 36 38  1  0
 38 39  2  0
 39 40  1  0
 40 41  1  0
 41 42  1  0
 42 43  1  0
 43 44  1  0
 43 45  1  0
 43 46  1  0
 42 47  2  0
 47 48  1  0
  7 49  1  0
 49 50  1  0
 49 51  2  0
 51 52  1  0
 51  2  1  0
 31 11  1  0
 47 39  1  0
 23 16  1  0
M  CHG  2  29   1  40  -1
M  END
>  <UniqueID>  (41) 
39

>  <SMILES>  (41) 
Cc1c/c(=N/C(=O)CSc2[nH+]nc(Cc3cccn3C)n2Cc2ccccc2)[n-]o1

>  <Energy>  (41) 
138.50394536705528

>  <Genealogy>  (41) 
Cc1cc(=NC(=O)CSc2[nH+]nc(Cc3cccn3C)n2Cc2ccccc2)[n-]o1 (protonated)
Cc1c/c(=N/C(=O)CSc2[nH+]nc(Cc3cccn3C)n2Cc2ccccc2)[n-]o1 (cis-trans isomerization)
Cc1c/c(=N/C(=O)CSc2[nH+]nc(Cc3cccn3C)n2Cc2ccccc2)[n-]o1 (3D coordinates assigned)
Cc1c/c(=N/C(=O)CSc2[nH+]nc(Cc3cccn3C)n2Cc2ccccc2)[n-]o1 (optimized conformer: 138.50394536705528 kcal/mol)

>  <smiles>  (41) 
Cc1cc(=NC(=O)CSc2nnc(Cc3cccn3C)n2Cc2ccccc2)[nH]o1

>  <score_type>  (41) 
oracle

>  <origin>  (41) 
adg

>  <m_score__min__energy>  (41) 
-9.9600000000000009

>  <m_primary>  (41) 
energy

$$$$
41:0
     RDKit          3D

 79 85  0  0  0  0  0  0  0  0999 V2000
   50.6890   22.1190   47.8180 C   0  0  0  0  0  0  0  0  0  0  0  0
   52.1730   22.2120   48.0470 C   0  0  0  0  0  0  0  0  0  0  0  0
   53.0380   22.4440   46.9640 C   0  0  0  0  0  0  0  0  0  0  0  0
   54.4270   22.5330   47.1630 C   0  0  0  0  0  0  0  0  0  0  0  0
   55.3450   22.7440   46.0190 C   0  0  0  0  0  0  0  0  0  0  0  0
   55.2120   22.0250   44.9920 O   0  0  0  0  0  0  0  0  0  0  0  0
   56.3790   23.7510   46.0460 N   0  0  0  0  0  0  0  0  0  0  0  0
   57.6280   23.5030   45.3080 C   0  0  0  0  0  0  0  0  0  0  0  0
   58.5050   24.7610   45.2390 C   0  0  0  0  0  0  0  0  0  0  0  0
   57.6280   25.9780   44.8710 C   0  0  0  0  0  0  0  0  0  0  0  0
   58.4090   27.2150   44.6190 N   0  0  0  0  0  0  0  0  0  0  0  0
   58.9210   27.8450   45.8590 C   0  0  0  0  0  0  0  0  0  0  0  0
   59.2070   29.3370   45.6830 C   0  0  0  0  0  0  0  0  0  0  0  0
   57.9000   30.0500   45.3220 C   0  0  0  0  0  0  0  0  0  0  0  0
   58.1290   31.4900   45.1040 N   0  0  0  0  0  0  0  0  0  0  0  0
   57.8760   32.1840   43.9610 C   0  0  0  0  0  0  0  0  0  0  0  0
   57.4440   31.6460   42.9070 O   0  0  0  0  0  0  0  0  0  0  0  0
   58.1200   33.5150   44.0470 N   0  0  0  0  0  0  0  0  0  0  0  0
   58.5420   33.6540   45.3160 C   0  0  0  0  0  0  0  0  0  0  0  0
   58.9250   34.8340   45.9500 C   0  0  0  0  0  0  0  0  0  0  0  0
   59.3310   34.7530   47.2940 C   0  0  0  0  0  0  0  0  0  0  0  0
   59.3390   33.5110   47.9650 C   0  0  0  0  0  0  0  0  0  0  0  0
   58.9400   32.3380   47.2990 C   0  0  0  0  0  0  0  0  0  0  0  0
   58.5470   32.4460   45.9620 C   0  0  0  0  0  0  0  0  0  0  0  0
   57.1640   29.3800   44.1340 C   0  0  0  0  0  0  0  0  0  0  0  0
   57.8810   28.1310   43.5740 C   0  0  0  0  0  0  0  0  0  0  0  0
   56.5190   26.2350   45.9220 C   0  0  0  0  0  0  0  0  0  0  0  0
   56.1980   25.0060   46.7920 C   0  0  0  0  0  0  0  0  0  0  0  0
   54.9400   22.4360   48.4650 C   0  0  0  0  0  0  0  0  0  0  0  0
   54.0850   22.2070   49.5460 C   0  0  0  0  0  0  0  0  0  0  0  0
   52.7050   22.0910   49.3440 C   0  0  0  0  0  0  0  0  0  0  0  0
   51.8590   21.7910   50.4550 N   0  0  0  0  0  0  0  0  0  0  0  0
   50.9800   23.0310   51.2850 S   0  0  0  0  0  0  0  0  0  0  0  0
   50.3180   23.9390   50.2840 O   0  0  0  0  0  0  0  0  0  0  0  0
   49.9250   22.3780   52.1360 O   0  0  0  0  0  0  0  0  0  0  0  0
   52.0670   23.9770   52.3070 C   0  0  0  0  0  0  0  0  0  0  0  0
   53.1410   23.3490   52.9560 C   0  0  0  0  0  0  0  0  0  0  0  0
   53.9980   24.0810   53.7820 C   0  0  0  0  0  0  0  0  0  0  0  0
   53.7950   25.4490   53.9750 C   0  0  0  0  0  0  0  0  0  0  0  0
   52.7300   26.0940   53.3320 C   0  0  0  0  0  0  0  0  0  0  0  0
   52.5070   27.4660   53.5070 C   0  0  0  0  0  0  0  0  0  0  0  0
   51.4430   28.0870   52.8480 C   0  0  0  0  0  0  0  0  0  0  0  0
   50.6110   27.3300   52.0190 C   0  0  0  0  0  0  0  0  0  0  0  0
   50.8370   25.9990   51.8600 N   0  0  0  0  0  0  0  0  0  0  0  0
   51.8640   25.3590   52.4880 C   0  0  0  0  0  0  0  0  0  0  0  0
   50.1698   22.0865   48.7872 H   0  0  0  0  0  0  0  0  0  0  0  0
   50.3499   22.9977   47.2497 H   0  0  0  0  0  0  0  0  0  0  0  0
   50.4623   21.2049   47.2497 H   0  0  0  0  0  0  0  0  0  0  0  0
   52.6244   22.5570   45.9510 H   0  0  0  0  0  0  0  0  0  0  0  0
   58.1893   22.7043   45.8150 H   0  0  0  0  0  0  0  0  0  0  0  0
   57.3671   23.2096   44.2804 H   0  0  0  0  0  0  0  0  0  0  0  0
   58.9787   24.9323   46.2169 H   0  0  0  0  0  0  0  0  0  0  0  0
   59.2838   24.6246   44.4742 H   0  0  0  0  0  0  0  0  0  0  0  0
   57.1462   25.7089   43.9195 H   0  0  0  0  0  0  0  0  0  0  0  0
   58.1704   27.7210   46.6535 H   0  0  0  0  0  0  0  0  0  0  0  0
   59.8693   27.3512   46.1178 H   0  0  0  0  0  0  0  0  0  0  0  0
   59.6069   29.7501   46.6208 H   0  0  0  0  0  0  0  0  0  0  0  0
   59.9470   29.4842   44.8825 H   0  0  0  0  0  0  0  0  0  0  0  0
   57.2230   29.9498   46.1832 H   0  0  0  0  0  0  0  0  0  0  0  0
   58.9103   35.7963   45.4174 H   0  0  0  0  0  0  0  0  0  0  0  0
   59.6444   35.6634   47.8259 H   0  0  0  0  0  0  0  0  0  0  0  0
   59.6595   33.4601   49.0160 H   0  0  0  0  0  0  0  0  0  0  0  0
   58.9373   31.3661   47.8143 H   0  0  0  0  0  0  0  0  0  0  0  0
   56.1614   29.0803   44.4730 H   0  0  0  0  0  0  0  0  0  0  0  0
   57.1327   30.1202   43.3209 H   0  0  0  0  0  0  0  0  0  0  0  0
   57.1658   27.5713   42.9533 H   0  0  0  0  0  0  0  0  0  0  0  0
   58.7479   28.4927   43.0017 H   0  0  0  0  0  0  0  0  0  0  0  0
   56.8474   27.0518   46.5815 H   0  0  0  0  0  0  0  0  0  0  0  0
   55.6023   26.4871   45.3688 H   0  0  0  0  0  0  0  0  0  0  0  0
   56.8675   25.0020   47.6648 H   0  0  0  0  0  0  0  0  0  0  0  0
   55.1452   25.0714   47.1041 H   0  0  0  0  0  0  0  0  0  0  0  0
   56.0216   22.5408   48.6359 H   0  0  0  0  0  0  0  0  0  0  0  0
   54.4987   22.1174   50.5613 H   0  0  0  0  0  0  0  0  0  0  0  0
   53.3097   22.2714   52.8133 H   0  0  0  0  0  0  0  0  0  0  0  0
   54.8374   23.5767   54.2831 H   0  0  0  0  0  0  0  0  0  0  0  0
   54.4697   26.0192   54.6305 H   0  0  0  0  0  0  0  0  0  0  0  0
   53.1680   28.0529   54.1617 H   0  0  0  0  0  0  0  0  0  0  0  0
   51.2616   29.1638   52.9808 H   0  0  0  0  0  0  0  0  0  0  0  0
   49.7724   27.8115   51.4946 H   0  0  0  0  0  0  0  0  0  0  0  0
  1  2  1  0
  2  3  2  0
  3  4  1  0
  4  5  1  0
  5  6  2  0
  5  7  1  0
  7  8  1  0
  8  9  1  0
  9 10  1  0
 10 11  1  0
 11 12  1  0
 12 13  1  0
 13 14  1  0
 14 15  1  0
 15 16  1  0
 16 17  2  0
 16 18  1  0
 18 19  1  0
 19 20  2  0
 20 21  1  0
 21 22  2  0
 22 23  1  0
 23 24  2  0
 14 25  1  0
 25 26  1  0
 10 27  1  0
 27 28  1  0
  4 29  2  0
 29 30  1  0
 30 31  2  0
 31 32  1  0
 32 33  1  0
 33 34  2  0
 33 35  2  0
 33 36  1  0
 36 37  2  0
 37 38  1  0
 38 39  2  0
 39 40  1  0
 40 41  2  0
 41 42  1  0
 42 43  2  0
 43 44  1  0
 44 45  2  0
 31  2  1  0
 45 36  1  0
 28  7  1  0
 45 40  1  0
 26 11  1  0
 24 15  1  0
 24 19  1  0
  1 46  1  0
  1 47  1  0
  1 48  1  0
  3 49  1  0
  8 50  1  0
  8 51  1  0
  9 52  1  0
  9 53  1  0
 10 54  1  0
 12 55  1  0
 12 56  1  0
 13 57  1  0
 13 58  1  0
 14 59  1  0
 20 60  1  0
 21 61  1  0
 22 62  1  0
 23 63  1  0
 25 64  1  0
 25 65  1  0
 26 66  1  0
 26 67  1  0
 27 68  1  0
 27 69  1  0
 28 70  1  0
 28 71  1  0
 29 72  1  0
 30 73  1  0
 37 74  1  0
 38 75  1  0
 39 76  1  0
 41 77  1  0
 42 78  1  0
 43 79  1  0
M  CHG  2  18  -1  32  -1
M  END
>  <UniqueID>  (42) 
40

>  <SMILES>  (42) 
Cc1cc(C(=O)N2CCC(N3CCC(n4c(=O)[n-]c5ccccc54)CC3)CC2)ccc1[N-]S(=O)(=O)c1cccc2cccnc12

>  <Energy>  (42) 
163.70703082342263

>  <Genealogy>  (42) 
Cc1cc(C(=O)N2CCC(N3CCC(n4c(=O)[n-]c5ccccc54)CC3)CC2)ccc1[N-]S(=O)(=O)c1cccc2cccnc12 (protonated)
Cc1cc(C(=O)N2CCC(N3CCC(n4c(=O)[n-]c5ccccc54)CC3)CC2)ccc1[N-]S(=O)(=O)c1cccc2cccnc12 (3D coordinates assigned)
Cc1cc(C(=O)N2CCC(N3CCC(n4c(=O)[n-]c5ccccc54)CC3)CC2)ccc1[N-]S(=O)(=O)c1cccc2cccnc12 (nonaromatic ring conformer: 163.70703082342263 kcal/mol)

>  <smiles>  (42) 
Cc1cc(C(=O)N2CCC(N3CCC(n4c(=O)[nH]c5ccccc54)CC3)CC2)ccc1NS(=O)(=O)c1cccc2cccnc12

>  <score_type>  (42) 
oracle

>  <origin>  (42) 
adg

>  <m_score__min__energy>  (42) 
-13.859999999999999

>  <m_primary>  (42) 
energy

$$$$
42:0
     RDKit          3D

 52 55  0  0  0  0  0  0  0  0999 V2000
   60.4680   28.0120   48.8420 C   0  0  0  0  0  0  0  0  0  0  0  0
   60.3550   29.4580   49.2230 C   0  0  0  0  0  0  0  0  0  0  0  0
   59.5220   29.8470   50.2840 C   0  0  0  0  0  0  0  0  0  0  0  0
   59.3750   31.2000   50.6020 C   0  0  0  0  0  0  0  0  0  0  0  0
   60.0470   32.1720   49.8590 C   0  0  0  0  0  0  0  0  0  0  0  0
   60.8750   31.7970   48.7930 C   0  0  0  0  0  0  0  0  0  0  0  0
   61.6300   33.0360   47.7960 S   0  0  0  0  0  0  0  0  0  0  0  0
   62.8610   32.5000   47.1190 O   0  0  0  0  0  0  0  0  0  0  0  0
   62.0270   34.2060   48.6520 O   0  0  0  0  0  0  0  0  0  0  0  0
   60.4560   33.5400   46.5980 C   0  0  0  0  0  0  0  0  0  0  0  0
   60.0990   34.8520   46.3110 C   0  0  0  0  0  0  0  0  0  0  0  0
   58.9690   34.8790   45.5690 N   0  0  0  0  0  0  0  0  0  0  0  0
   58.6020   33.5970   45.4030 C   0  0  0  0  0  0  0  0  0  0  0  0
   57.4190   33.1300   44.8370 C   0  0  0  0  0  0  0  0  0  0  0  0
   57.1550   31.7430   44.8980 C   0  0  0  0  0  0  0  0  0  0  0  0
   55.8820   31.2250   44.5000 N   0  0  0  0  0  0  0  0  0  0  0  0
   55.6740   29.8750   44.0630 C   0  0  0  0  0  0  0  0  0  0  0  0
   55.6190   29.6350   42.8290 O   0  0  0  0  0  0  0  0  0  0  0  0
   55.5440   28.7870   44.9910 N   0  0  0  0  0  0  0  0  0  0  0  0
   56.6570   28.0380   45.5820 C   0  0  0  0  0  0  0  0  0  0  0  0
   57.8180   27.9300   44.5700 C   0  0  0  0  0  0  0  0  0  0  0  0
   58.7470   26.7230   44.8360 C   0  0  0  0  0  0  0  0  0  0  0  0
   58.7210   26.2830   46.3070 C   0  0  0  0  0  0  0  0  0  0  0  0
   57.3010   25.8860   46.7620 C   0  0  0  0  0  0  0  0  0  0  0  0
   56.1850   26.6420   46.0120 C   0  0  0  0  0  0  0  0  0  0  0  0
   58.1110   30.8660   45.4580 C   0  0  0  0  0  0  0  0  0  0  0  0
   59.2840   31.3690   46.0450 C   0  0  0  0  0  0  0  0  0  0  0  0
   59.4920   32.7480   46.0100 C   0  0  0  0  0  0  0  0  0  0  0  0
   61.0180   30.4400   48.4710 C   0  0  0  0  0  0  0  0  0  0  0  0
   60.5162   27.3958   49.7519 H   0  0  0  0  0  0  0  0  0  0  0  0
   59.5899   27.7198   48.2473 H   0  0  0  0  0  0  0  0  0  0  0  0
   61.3808   27.8598   48.2473 H   0  0  0  0  0  0  0  0  0  0  0  0
   58.9836   29.0849   50.8666 H   0  0  0  0  0  0  0  0  0  0  0  0
   58.7282   31.4996   51.4398 H   0  0  0  0  0  0  0  0  0  0  0  0
   59.9260   33.2358   50.1113 H   0  0  0  0  0  0  0  0  0  0  0  0
   60.6561   35.7415   46.6404 H   0  0  0  0  0  0  0  0  0  0  0  0
   58.4480   35.7300   45.2570 H   0  0  0  0  0  0  0  0  0  0  0  0
   56.7104   33.8205   44.3563 H   0  0  0  0  0  0  0  0  0  0  0  0
   57.0171   28.5739   46.4726 H   0  0  0  0  0  0  0  0  0  0  0  0
   57.3935   27.8287   43.5603 H   0  0  0  0  0  0  0  0  0  0  0  0
   58.4270   28.8403   44.6725 H   0  0  0  0  0  0  0  0  0  0  0  0
   58.4211   25.8803   44.2085 H   0  0  0  0  0  0  0  0  0  0  0  0
   59.7754   27.0290   44.5936 H   0  0  0  0  0  0  0  0  0  0  0  0
   59.3895   25.4184   46.4318 H   0  0  0  0  0  0  0  0  0  0  0  0
   59.0525   27.1317   46.9234 H   0  0  0  0  0  0  0  0  0  0  0  0
   57.1683   24.8076   46.5902 H   0  0  0  0  0  0  0  0  0  0  0  0
   57.2146   26.1505   47.8262 H   0  0  0  0  0  0  0  0  0  0  0  0
   55.9000   26.0678   45.1181 H   0  0  0  0  0  0  0  0  0  0  0  0
   55.3248   26.7565   46.6880 H   0  0  0  0  0  0  0  0  0  0  0  0
   57.9353   29.7804   45.4341 H   0  0  0  0  0  0  0  0  0  0  0  0
   60.0154   30.6967   46.5173 H   0  0  0  0  0  0  0  0  0  0  0  0
   61.6537   30.1432   47.6238 H   0  0  0  0  0  0  0  0  0  0  0  0
  1  2  1  0
  2  3  2  0
  3  4  1  0
  4  5  2  0
  5  6  1  0
  6  7  1  0
  7  8  2  0
  7  9  2  0
  7 10  1  0
 10 11  2  0
 11 12  1  0
 12 13  1  0
 13 14  2  0
 14 15  1  0
 15 16  1  0
 16 17  1  0
 17 18  2  0
 17 19  1  0
 19 20  1  0
 20 21  1  0
 21 22  1  0
 22 23  1  0
 23 24  1  0
 24 25  1  0
 15 26  2  0
 26 27  1  0
 27 28  2  0
  6 29  2  0
 29  2  1  0
 28 10  1  0
 28 13  1  0
 25 20  1  0
  1 30  1  0
  1 31  1  0
  1 32  1  0
  3 33  1  0
  4 34  1  0
  5 35  1  0
 11 36  1  0
 12 37  1  0
 14 38  1  0
 20 39  1  0
 21 40  1  0
 21 41  1  0
 22 42  1  0
 22 43  1  0
 23 44  1  0
 23 45  1  0
 24 46  1  0
 24 47  1  0
 25 48  1  0
 25 49  1  0
 26 50  1  0
 27 51  1  0
 29 52  1  0
M  CHG  2  16  -1  19  -1
M  END
>  <UniqueID>  (43) 
41

>  <SMILES>  (43) 
Cc1cccc(S(=O)(=O)c2c[nH]c3cc([N-]C(=O)[N-]C4CCCCC4)ccc23)c1

>  <Energy>  (43) 
94.23169075963415

>  <Genealogy>  (43) 
Cc1cccc(S(=O)(=O)c2c[nH]c3cc([N-]C(=O)[N-]C4CCCCC4)ccc23)c1 (protonated)
Cc1cccc(S(=O)(=O)c2c[nH]c3cc([N-]C(=O)[N-]C4CCCCC4)ccc23)c1 (3D coordinates assigned)
Cc1cccc(S(=O)(=O)c2c[nH]c3cc([N-]C(=O)[N-]C4CCCCC4)ccc23)c1 (nonaromatic ring conformer: 94.23169075963415 kcal/mol)

>  <smiles>  (43) 
Cc1cccc(S(=O)(=O)c2c[nH]c3cc(NC(=O)NC4CCCCC4)ccc23)c1

>  <score_type>  (43) 
oracle

>  <origin>  (43) 
adg

>  <m_score__min__energy>  (43) 
-13.640000000000001

>  <m_primary>  (43) 
energy

$$$$
43:0
     RDKit          3D

 48 50  0  0  0  0  0  0  0  0999 V2000
   59.5080   27.7650   47.4130 C   0  0  0  0  0  0  0  0  0  0  0  0
   59.2400   28.8530   48.4620 C   0  0  0  0  0  0  0  0  0  0  0  0
   58.9970   30.2740   47.8920 C   0  0  2  0  0  0  0  0  0  0  0  0
   59.9600   30.6530   46.3610 S   0  0  0  0  0  0  0  0  0  0  0  0
   58.6180   30.6640   45.1720 C   0  0  0  0  0  0  0  0  0  0  0  0
   58.7390   31.3580   44.0100 N   0  0  0  0  0  0  0  0  0  0  0  0
   57.7300   31.3830   43.1020 C   0  0  0  0  0  0  0  0  0  0  0  0
   57.8700   32.0200   42.0250 O   0  0  0  0  0  0  0  0  0  0  0  0
   56.5420   30.7010   43.3650 C   0  0  0  0  0  0  0  0  0  0  0  0
   56.4240   30.0080   44.5730 C   0  0  0  0  0  0  0  0  0  0  0  0
   55.2270   29.2990   44.8900 N   0  0  0  0  0  0  0  0  0  0  0  0
   57.4620   30.0060   45.4520 N   0  0  0  0  0  0  0  0  0  0  0  0
   59.0870   31.3650   48.9280 C   0  0  0  0  0  0  0  0  0  0  0  0
   59.5560   31.0960   50.0660 O   0  0  0  0  0  0  0  0  0  0  0  0
   58.6300   32.6900   48.6300 N   0  0  0  0  0  0  0  0  0  0  0  0
   58.5390   33.2940   47.3330 C   0  0  0  0  0  0  0  0  0  0  0  0
   57.3090   33.3750   46.6550 C   0  0  0  0  0  0  0  0  0  0  0  0
   57.2230   34.0270   45.4230 C   0  0  0  0  0  0  0  0  0  0  0  0
   58.3550   34.6180   44.8640 C   0  0  0  0  0  0  0  0  0  0  0  0
   59.5770   34.5630   45.5360 C   0  0  0  0  0  0  0  0  0  0  0  0
   59.6800   33.9080   46.7750 C   0  0  0  0  0  0  0  0  0  0  0  0
   60.9560   33.8540   47.4400 N   0  0  0  0  0  0  0  0  0  0  0  0
   61.0940   34.2290   48.8480 C   0  0  0  0  0  0  0  0  0  0  0  0
   62.0980   33.2910   49.5250 C   0  0  0  0  0  0  0  0  0  0  0  0
   63.3160   33.2520   48.8030 O   0  0  0  0  0  0  0  0  0  0  0  0
   63.1010   32.6890   47.5220 C   0  0  0  0  0  0  0  0  0  0  0  0
   62.1800   33.5800   46.6840 C   0  0  0  0  0  0  0  0  0  0  0  0
   59.7415   26.8169   47.9195 H   0  0  0  0  0  0  0  0  0  0  0  0
   58.6152   27.6344   46.7839 H   0  0  0  0  0  0  0  0  0  0  0  0
   60.3593   28.0640   46.7839 H   0  0  0  0  0  0  0  0  0  0  0  0
   58.3489   28.5598   49.0364 H   0  0  0  0  0  0  0  0  0  0  0  0
   60.1531   28.9207   49.0716 H   0  0  0  0  0  0  0  0  0  0  0  0
   57.9456   30.2565   47.5690 H   0  0  0  0  0  0  0  0  0  0  0  0
   55.7165   30.7084   42.6380 H   0  0  0  0  0  0  0  0  0  0  0  0
   54.3940   29.8110   45.2580 H   0  0  0  0  0  0  0  0  0  0  0  0
   55.1640   28.2640   44.7600 H   0  0  0  0  0  0  0  0  0  0  0  0
   56.4097   32.9221   47.0979 H   0  0  0  0  0  0  0  0  0  0  0  0
   56.2604   34.0743   44.8928 H   0  0  0  0  0  0  0  0  0  0  0  0
   58.2851   35.1283   43.8921 H   0  0  0  0  0  0  0  0  0  0  0  0
   60.4658   35.0357   45.0926 H   0  0  0  0  0  0  0  0  0  0  0  0
   61.4544   35.2659   48.9186 H   0  0  0  0  0  0  0  0  0  0  0  0
   60.1179   34.1477   49.3486 H   0  0  0  0  0  0  0  0  0  0  0  0
   62.2953   33.6501   50.5458 H   0  0  0  0  0  0  0  0  0  0  0  0
   61.6712   32.2775   49.5513 H   0  0  0  0  0  0  0  0  0  0  0  0
   64.0675   32.5843   47.0073 H   0  0  0  0  0  0  0  0  0  0  0  0
   62.6239   31.7055   47.6447 H   0  0  0  0  0  0  0  0  0  0  0  0
   62.6915   34.5269   46.4565 H   0  0  0  0  0  0  0  0  0  0  0  0
   61.9267   33.0685   45.7437 H   0  0  0  0  0  0  0  0  0  0  0  0
  1  2  1  0
  2  3  1  0
  3  4  1  0
  4  5  1  0
  5  6  2  0
  6  7  1  0
  7  8  2  0
  7  9  1  0
  9 10  2  0
 10 11  1  0
 10 12  1  0
  3 13  1  0
 13 14  2  0
 13 15  1  0
 15 16  1  0
 16 17  2  0
 17 18  1  0
 18 19  2  0
 19 20  1  0
 20 21  2  0
 21 22  1  0
 22 23  1  0
 23 24  1  0
 24 25  1  0
 25 26  1  0
 26 27  1  0
 12  5  1  0
 21 16  1  0
 27 22  1  0
  1 28  1  0
  1 29  1  0
  1 30  1  0
  2 31  1  0
  2 32  1  0
  3 33  1  6
  9 34  1  0
 11 35  1  0
 11 36  1  0
 17 37  1  0
 18 38  1  0
 19 39  1  0
 20 40  1  0
 23 41  1  0
 23 42  1  0
 24 43  1  0
 24 44  1  0
 26 45  1  0
 26 46  1  0
 27 47  1  0
 27 48  1  0
M  CHG  2  12  -1  15  -1
M  END
>  <UniqueID>  (44) 
42

>  <SMILES>  (44) 
CC[C@H](Sc1nc(=O)cc(N)[n-]1)C(=O)[N-]c1ccccc1N1CCOCC1

>  <Energy>  (44) 
56.07983020766331

>  <Genealogy>  (44) 
CCC(Sc1nc(=O)cc(N)[n-]1)C(=O)[N-]c1ccccc1N1CCOCC1 (protonated)
CC[C@H](Sc1nc(=O)cc(N)[n-]1)C(=O)[N-]c1ccccc1N1CCOCC1 (chirality)
CC[C@H](Sc1nc(=O)cc(N)[n-]1)C(=O)[N-]c1ccccc1N1CCOCC1 (3D coordinates assigned)
CC[C@H](Sc1nc(=O)cc(N)[n-]1)C(=O)[N-]c1ccccc1N1CCOCC1 (nonaromatic ring conformer: 56.07983020766331 kcal/mol)

>  <smiles>  (44) 
CCC(Sc1nc(=O)cc(N)[nH]1)C(=O)Nc1ccccc1N1CCOCC1

>  <score_type>  (44) 
oracle

>  <origin>  (44) 
adg

>  <m_score__min__energy>  (44) 
-10.880000000000001

>  <m_primary>  (44) 
energy

$$$$
44:0
     RDKit          3D

 52 55  0  0  0  0  0  0  0  0999 V2000
   56.0930   30.3420   52.3580 C   0  0  0  0  0  0  0  0  0  0  0  0
   56.9800   30.4920   51.2550 O   0  0  0  0  0  0  0  0  0  0  0  0
   57.8400   31.5850   51.0720 C   0  0  0  0  0  0  0  0  0  0  0  0
   57.7890   32.6320   52.0010 C   0  0  0  0  0  0  0  0  0  0  0  0
   58.6310   33.7390   51.8670 C   0  0  0  0  0  0  0  0  0  0  0  0
   59.5270   33.8130   50.7990 C   0  0  0  0  0  0  0  0  0  0  0  0
   59.5850   32.7790   49.8560 C   0  0  0  0  0  0  0  0  0  0  0  0
   60.7390   32.8640   48.5250 S   0  0  0  0  0  0  0  0  0  0  0  0
   61.8260   33.8420   48.8750 O   0  0  0  0  0  0  0  0  0  0  0  0
   61.3490   31.5010   48.3420 O   0  0  0  0  0  0  0  0  0  0  0  0
   59.9580   33.3640   47.0470 N   0  0  0  0  0  0  0  0  0  0  0  0
   60.0780   34.7810   46.6710 C   0  0  0  0  0  0  0  0  0  0  0  0
   59.6130   35.0380   45.2370 C   0  0  0  0  0  0  0  0  0  0  0  0
   58.2120   34.4740   45.0270 C   0  0  0  0  0  0  0  0  0  0  0  0
   58.1860   33.0070   45.3490 C   0  0  0  0  0  0  0  0  0  0  0  0
   57.2670   32.1710   44.6990 C   0  0  0  0  0  0  0  0  0  0  0  0
   57.2270   30.8070   44.9880 C   0  0  0  0  0  0  0  0  0  0  0  0
   58.1110   30.2540   45.9200 C   0  0  0  0  0  0  0  0  0  0  0  0
   58.0470   28.8450   46.2010 N   0  0  0  0  0  0  0  0  0  0  0  0
   57.0510   27.9670   45.6530 C   0  0  0  0  0  0  0  0  0  0  0  0
   55.9530   28.4390   45.2470 O   0  0  0  0  0  0  0  0  0  0  0  0
   57.2670   26.5000   45.6190 C   0  0  0  0  0  0  0  0  0  0  0  0
   58.5790   25.9900   45.6160 C   0  0  0  0  0  0  0  0  0  0  0  0
   58.8020   24.6100   45.5820 C   0  0  0  0  0  0  0  0  0  0  0  0
   57.7230   23.7260   45.5600 C   0  0  0  0  0  0  0  0  0  0  0  0
   56.4160   24.2190   45.5770 C   0  0  0  0  0  0  0  0  0  0  0  0
   56.1830   25.5990   45.6100 C   0  0  0  0  0  0  0  0  0  0  0  0
   54.9010   26.0400   45.6790 F   0  0  0  0  0  0  0  0  0  0  0  0
   59.0040   31.0960   46.6050 C   0  0  0  0  0  0  0  0  0  0  0  0
   59.0420   32.4820   46.3430 C   0  0  0  0  0  0  0  0  0  0  0  0
   58.7450   31.6640   49.9960 C   0  0  0  0  0  0  0  0  0  0  0  0
   56.6569   30.4374   53.2976 H   0  0  0  0  0  0  0  0  0  0  0  0
   55.3185   31.1219   52.3144 H   0  0  0  0  0  0  0  0  0  0  0  0
   55.6180   29.3508   52.3144 H   0  0  0  0  0  0  0  0  0  0  0  0
   57.0814   32.5824   52.8417 H   0  0  0  0  0  0  0  0  0  0  0  0
   58.5878   34.5539   52.6046 H   0  0  0  0  0  0  0  0  0  0  0  0
   60.1891   34.6856   50.6978 H   0  0  0  0  0  0  0  0  0  0  0  0
   59.4632   35.3829   47.3563 H   0  0  0  0  0  0  0  0  0  0  0  0
   61.1400   35.0599   46.7374 H   0  0  0  0  0  0  0  0  0  0  0  0
   59.6002   36.1216   45.0482 H   0  0  0  0  0  0  0  0  0  0  0  0
   60.3065   34.5429   44.5413 H   0  0  0  0  0  0  0  0  0  0  0  0
   57.5060   35.0023   45.6846 H   0  0  0  0  0  0  0  0  0  0  0  0
   57.9243   34.6141   43.9746 H   0  0  0  0  0  0  0  0  0  0  0  0
   56.5735   32.5933   43.9568 H   0  0  0  0  0  0  0  0  0  0  0  0
   56.4953   30.1620   44.4795 H   0  0  0  0  0  0  0  0  0  0  0  0
   58.6890   28.4590   46.9310 H   0  0  0  0  0  0  0  0  0  0  0  0
   59.4342   26.6814   45.6406 H   0  0  0  0  0  0  0  0  0  0  0  0
   59.8307   24.2205   45.5726 H   0  0  0  0  0  0  0  0  0  0  0  0
   57.9013   22.6410   45.5293 H   0  0  0  0  0  0  0  0  0  0  0  0
   55.5666   23.5201   45.5644 H   0  0  0  0  0  0  0  0  0  0  0  0
   59.6835   30.6680   47.3567 H   0  0  0  0  0  0  0  0  0  0  0  0
   58.7936   30.8469   49.2611 H   0  0  0  0  0  0  0  0  0  0  0  0
  1  2  1  0
  2  3  1  0
  3  4  2  0
  4  5  1  0
  5  6  2  0
  6  7  1  0
  7  8  1  0
  8  9  2  0
  8 10  2  0
  8 11  1  0
 11 12  1  0
 12 13  1  0
 13 14  1  0
 14 15  1  0
 15 16  2  0
 16 17  1  0
 17 18  2  0
 18 19  1  0
 19 20  1  0
 20 21  2  0
 20 22  1  0
 22 23  2  0
 23 24  1  0
 24 25  2  0
 25 26  1  0
 26 27  2  0
 27 28  1  0
 18 29  1  0
 29 30  2  0
  7 31  2  0
 31  3  1  0
 30 11  1  0
 30 15  1  0
 27 22  1  0
  1 32  1  0
  1 33  1  0
  1 34  1  0
  4 35  1  0
  5 36  1  0
  6 37  1  0
 12 38  1  0
 12 39  1  0
 13 40  1  0
 13 41  1  0
 14 42  1  0
 14 43  1  0
 16 44  1  0
 17 45  1  0
 19 46  1  0
 23 47  1  0
 24 48  1  0
 25 49  1  0
 26 50  1  0
 29 51  1  0
 31 52  1  0
M  END
>  <UniqueID>  (45) 
43

>  <SMILES>  (45) 
COc1cccc(S(=O)(=O)N2CCCc3ccc(NC(=O)c4ccccc4F)cc32)c1

>  <Energy>  (45) 
66.02122013258419

>  <Genealogy>  (45) 
COc1cccc(S(=O)(=O)N2CCCc3ccc(NC(=O)c4ccccc4F)cc32)c1 (3D coordinates assigned)
COc1cccc(S(=O)(=O)N2CCCc3ccc(NC(=O)c4ccccc4F)cc32)c1 (nonaromatic ring conformer: 66.02122013258419 kcal/mol)

>  <smiles>  (45) 
COc1cccc(S(=O)(=O)N2CCCc3ccc(NC(=O)c4ccccc4F)cc32)c1

>  <score_type>  (45) 
oracle

>  <origin>  (45) 
adg

>  <m_score__min__energy>  (45) 
-9.4000000000000004

>  <m_primary>  (45) 
energy

$$$$
45:0
     RDKit          3D

 54 57  0  0  0  0  0  0  0  0999 V2000
   56.5210   29.6700   52.8130 C   0  0  0  0  0  0  0  0  0  0  0  0
   57.3710   29.4700   51.6900 O   0  0  0  0  0  0  0  0  0  0  0  0
   57.7670   30.5140   50.8510 C   0  0  0  0  0  0  0  0  0  0  0  0
   57.1700   31.6260   50.8940 O   0  0  0  0  0  0  0  0  0  0  0  0
   58.9260   30.3420   49.9440 C   0  0  0  0  0  0  0  0  0  0  0  0
   59.2640   29.0390   49.5560 C   0  0  0  0  0  0  0  0  0  0  0  0
   60.3210   28.8190   48.6750 C   0  0  0  0  0  0  0  0  0  0  0  0
   60.7930   27.1400   48.2520 S   0  0  0  0  0  0  0  0  0  0  0  0
   59.3570   26.9520   47.1960 C   0  0  0  0  0  0  0  0  0  0  0  0
   58.3510   26.0420   47.5360 C   0  0  0  0  0  0  0  0  0  0  0  0
   57.1860   25.9700   46.7660 C   0  0  0  0  0  0  0  0  0  0  0  0
   57.0180   26.8180   45.6680 C   0  0  0  0  0  0  0  0  0  0  0  0
   58.0250   27.7350   45.3260 C   0  0  0  0  0  0  0  0  0  0  0  0
   57.8590   28.6540   44.2440 N   0  0  0  0  0  0  0  0  0  0  0  0
   56.6690   29.9140   44.2560 S   0  0  0  0  0  0  0  0  0  0  0  0
   56.1890   30.1280   42.8490 O   0  0  0  0  0  0  0  0  0  0  0  0
   55.4900   29.5290   45.1050 O   0  0  0  0  0  0  0  0  0  0  0  0
   57.3990   31.3990   44.8670 C   0  0  0  0  0  0  0  0  0  0  0  0
   56.6690   32.5970   44.8910 C   0  0  0  0  0  0  0  0  0  0  0  0
   57.2550   33.7690   45.3760 C   0  0  0  0  0  0  0  0  0  0  0  0
   58.5770   33.7560   45.8360 C   0  0  0  0  0  0  0  0  0  0  0  0
   59.1700   34.9630   46.3490 C   0  0  0  0  0  0  0  0  0  0  0  0
   59.6500   35.9340   46.7590 N   0  0  0  0  0  0  0  0  0  0  0  0
   59.3150   32.5660   45.8030 C   0  0  0  0  0  0  0  0  0  0  0  0
   58.7270   31.3910   45.3210 C   0  0  0  0  0  0  0  0  0  0  0  0
   59.2050   27.7750   46.0740 C   0  0  0  0  0  0  0  0  0  0  0  0
   61.0250   29.8670   48.1730 N   0  0  0  0  0  0  0  0  0  0  0  0
   60.7570   31.1570   48.5400 C   0  0  0  0  0  0  0  0  0  0  0  0
   61.5470   32.2140   48.0370 C   0  0  0  0  0  0  0  0  0  0  0  0
   62.5890   31.9230   47.1370 O   0  0  0  0  0  0  0  0  0  0  0  0
   63.7630   32.7100   46.9730 C   0  0  0  0  0  0  0  0  0  0  0  0
   61.2820   33.5310   48.4510 C   0  0  0  0  0  0  0  0  0  0  0  0
   60.2640   33.7940   49.3660 C   0  0  0  0  0  0  0  0  0  0  0  0
   59.4850   32.7550   49.8690 C   0  0  0  0  0  0  0  0  0  0  0  0
   59.6970   31.4270   49.4500 C   0  0  0  0  0  0  0  0  0  0  0  0
   57.0989   29.5340   53.7391 H   0  0  0  0  0  0  0  0  0  0  0  0
   56.1091   30.6896   52.7842 H   0  0  0  0  0  0  0  0  0  0  0  0
   55.6977   28.9410   52.7842 H   0  0  0  0  0  0  0  0  0  0  0  0
   58.6922   28.1853   49.9487 H   0  0  0  0  0  0  0  0  0  0  0  0
   58.4760   25.3836   48.4082 H   0  0  0  0  0  0  0  0  0  0  0  0
   56.4006   25.2447   47.0250 H   0  0  0  0  0  0  0  0  0  0  0  0
   56.0956   26.7671   45.0708 H   0  0  0  0  0  0  0  0  0  0  0  0
   55.6313   32.6136   44.5265 H   0  0  0  0  0  0  0  0  0  0  0  0
   56.6761   34.7041   45.3964 H   0  0  0  0  0  0  0  0  0  0  0  0
   60.3568   32.5550   46.1559 H   0  0  0  0  0  0  0  0  0  0  0  0
   59.3081   30.4573   45.2979 H   0  0  0  0  0  0  0  0  0  0  0  0
   60.0174   28.4558   45.7798 H   0  0  0  0  0  0  0  0  0  0  0  0
   61.8120   29.6550   47.5220 H   0  0  0  0  0  0  0  0  0  0  0  0
   64.1648   32.9794   47.9609 H   0  0  0  0  0  0  0  0  0  0  0  0
   64.5160   32.1335   46.4156 H   0  0  0  0  0  0  0  0  0  0  0  0
   63.5158   33.6256   46.4156 H   0  0  0  0  0  0  0  0  0  0  0  0
   61.8827   34.3605   48.0497 H   0  0  0  0  0  0  0  0  0  0  0  0
   60.0750   34.8273   49.6924 H   0  0  0  0  0  0  0  0  0  0  0  0
   58.6948   32.9740   50.6022 H   0  0  0  0  0  0  0  0  0  0  0  0
  1  2  1  0
  2  3  1  0
  3  4  2  0
  3  5  1  0
  5  6  2  0
  6  7  1  0
  7  8  1  0
  8  9  1  0
  9 10  2  0
 10 11  1  0
 11 12  2  0
 12 13  1  0
 13 14  1  0
 14 15  1  0
 15 16  2  0
 15 17  2  0
 15 18  1  0
 18 19  2  0
 19 20  1  0
 20 21  2  0
 21 22  1  0
 22 23  3  0
 21 24  1  0
 24 25  2  0
 13 26  2  0
  7 27  2  0
 27 28  1  0
 28 29  2  0
 29 30  1  0
 30 31  1  0
 29 32  1  0
 32 33  2  0
 33 34  1  0
 34 35  2  0
 35  5  1  0
 26  9  1  0
 35 28  1  0
 25 18  1  0
  1 36  1  0
  1 37  1  0
  1 38  1  0
  6 39  1  0
 10 40  1  0
 11 41  1  0
 12 42  1  0
 19 43  1  0
 20 44  1  0
 24 45  1  0
 25 46  1  0
 26 47  1  0
 27 48  1  0
 31 49  1  0
 31 50  1  0
 31 51  1  0
 32 52  1  0
 33 53  1  0
 34 54  1  0
M  CHG  2  14  -1  27   1
M  END
>  <UniqueID>  (46) 
44

>  <SMILES>  (46) 
COC(=O)c1cc(Sc2cccc([N-]S(=O)(=O)c3ccc(C#N)cc3)c2)[nH+]c2c(OC)cccc12

>  <Energy>  (46) 
63.16375558713997

>  <Genealogy>  (46) 
COC(=O)c1cc(Sc2cccc([N-]S(=O)(=O)c3ccc(C#N)cc3)c2)[nH+]c2c(OC)cccc12 (protonated)
COC(=O)c1cc(Sc2cccc([N-]S(=O)(=O)c3ccc(C#N)cc3)c2)[nH+]c2c(OC)cccc12 (3D coordinates assigned)
COC(=O)c1cc(Sc2cccc([N-]S(=O)(=O)c3ccc(C#N)cc3)c2)[nH+]c2c(OC)cccc12 (optimized conformer: 63.16375558713997 kcal/mol)

>  <smiles>  (46) 
COC(=O)c1cc(Sc2cccc(NS(=O)(=O)c3ccc(C#N)cc3)c2)nc2c(OC)cccc12

>  <score_type>  (46) 
oracle

>  <origin>  (46) 
adg

>  <m_score__min__energy>  (46) 
-9.5999999999999996

>  <m_primary>  (46) 
energy

$$$$
46:0
     RDKit          3D

 70 74  0  0  0  0  0  0  0  0999 V2000
   56.3570   22.5880   42.6290 C   0  0  0  0  0  0  0  0  0  0  0  0
   55.9070   21.4350   43.3310 O   0  0  0  0  0  0  0  0  0  0  0  0
   56.3680   21.0470   44.5970 C   0  0  0  0  0  0  0  0  0  0  0  0
   57.7280   21.1100   44.9570 C   0  0  0  0  0  0  0  0  0  0  0  0
   58.1390   20.6870   46.2220 C   0  0  0  0  0  0  0  0  0  0  0  0
   57.2010   20.2130   47.1440 C   0  0  0  0  0  0  0  0  0  0  0  0
   55.8400   20.1750   46.8160 C   0  0  0  0  0  0  0  0  0  0  0  0
   54.9140   19.6620   47.7840 N   0  0  0  0  0  0  0  0  0  0  0  0
   54.2250   20.4100   48.7950 C   0  0  0  0  0  0  0  0  0  0  0  0
   53.2580   19.9040   49.4220 O   0  0  0  0  0  0  0  0  0  0  0  0
   54.6690   21.8040   49.1370 C   0  0  0  0  0  0  0  0  0  0  0  0
   54.8290   22.6390   47.9220 N   0  0  0  0  0  0  0  0  0  0  0  0
   56.0700   23.1650   47.6480 C   0  0  0  0  0  0  0  0  0  0  0  0
   57.0150   23.0070   48.4750 O   0  0  0  0  0  0  0  0  0  0  0  0
   56.3070   23.8550   46.4840 N   0  0  0  0  0  0  0  0  0  0  0  0
   57.6830   24.2960   46.1650 C   0  0  0  0  0  0  0  0  0  0  0  0
   57.6800   25.7460   45.7490 C   0  0  0  0  0  0  0  0  0  0  0  0
   58.0320   26.1040   44.4380 C   0  0  0  0  0  0  0  0  0  0  0  0
   58.1070   27.4490   44.0670 C   0  0  0  0  0  0  0  0  0  0  0  0
   57.8070   28.4590   44.9960 C   0  0  0  0  0  0  0  0  0  0  0  0
   57.9430   29.8850   44.6320 C   0  0  0  0  0  0  0  0  0  0  0  0
   59.0120   30.2780   44.0980 O   0  0  0  0  0  0  0  0  0  0  0  0
   56.9040   30.8430   44.8720 N   0  0  0  0  0  0  0  0  0  0  0  0
   57.0110   32.2760   44.6190 C   0  0  0  0  0  0  0  0  0  0  0  0
   57.9150   32.8890   45.6480 C   0  0  0  0  0  0  0  0  0  0  0  0
   58.1480   32.2380   46.8700 C   0  0  0  0  0  0  0  0  0  0  0  0
   59.0250   32.7910   47.8090 C   0  0  0  0  0  0  0  0  0  0  0  0
   59.6780   34.0040   47.5390 C   0  0  0  0  0  0  0  0  0  0  0  0
   60.6540   34.5780   48.5230 C   0  0  0  0  0  0  0  0  0  0  0  0
   59.4700   34.6390   46.3040 C   0  0  0  0  0  0  0  0  0  0  0  0
   58.5940   34.0860   45.3660 C   0  0  0  0  0  0  0  0  0  0  0  0
   57.4640   28.1020   46.3080 C   0  0  0  0  0  0  0  0  0  0  0  0
   57.3960   26.7570   46.6820 C   0  0  0  0  0  0  0  0  0  0  0  0
   55.2900   24.0730   45.5940 C   0  0  0  0  0  0  0  0  0  0  0  0
   55.5100   24.6980   44.5170 O   0  0  0  0  0  0  0  0  0  0  0  0
   53.9980   23.6090   45.8710 C   0  0  0  0  0  0  0  0  0  0  0  0
   52.9330   23.8500   44.9790 C   0  0  0  0  0  0  0  0  0  0  0  0
   51.6500   23.3950   45.2700 C   0  0  0  0  0  0  0  0  0  0  0  0
   51.4110   22.6930   46.4470 C   0  0  0  0  0  0  0  0  0  0  0  0
   52.4530   22.4410   47.3400 C   0  0  0  0  0  0  0  0  0  0  0  0
   53.7740   22.8830   47.0650 C   0  0  0  0  0  0  0  0  0  0  0  0
   55.4330   20.5740   45.5290 C   0  0  0  0  0  0  0  0  0  0  0  0
   56.6590   23.3617   43.3502 H   0  0  0  0  0  0  0  0  0  0  0  0
   57.2166   22.3203   41.9971 H   0  0  0  0  0  0  0  0  0  0  0  0
   55.5433   22.9733   41.9971 H   0  0  0  0  0  0  0  0  0  0  0  0
   58.4683   21.4935   44.2394 H   0  0  0  0  0  0  0  0  0  0  0  0
   59.2040   20.7267   46.4943 H   0  0  0  0  0  0  0  0  0  0  0  0
   57.5342   19.8676   48.1338 H   0  0  0  0  0  0  0  0  0  0  0  0
   53.9169   22.2676   49.7924 H   0  0  0  0  0  0  0  0  0  0  0  0
   55.6442   21.7405   49.6420 H   0  0  0  0  0  0  0  0  0  0  0  0
   58.3193   24.1740   47.0539 H   0  0  0  0  0  0  0  0  0  0  0  0
   58.0739   23.6852   45.3378 H   0  0  0  0  0  0  0  0  0  0  0  0
   58.2503   25.3202   43.6977 H   0  0  0  0  0  0  0  0  0  0  0  0
   58.4025   27.7183   43.0422 H   0  0  0  0  0  0  0  0  0  0  0  0
   57.4287   32.4428   43.6152 H   0  0  0  0  0  0  0  0  0  0  0  0
   56.0147   32.7386   44.6776 H   0  0  0  0  0  0  0  0  0  0  0  0
   57.6383   31.2884   47.0901 H   0  0  0  0  0  0  0  0  0  0  0  0
   59.2037   32.2732   48.7629 H   0  0  0  0  0  0  0  0  0  0  0  0
   60.3062   34.3734   49.5463 H   0  0  0  0  0  0  0  0  0  0  0  0
   61.6411   34.1166   48.3721 H   0  0  0  0  0  0  0  0  0  0  0  0
   60.7305   35.6649   48.3721 H   0  0  0  0  0  0  0  0  0  0  0  0
   59.9988   35.5757   46.0739 H   0  0  0  0  0  0  0  0  0  0  0  0
   58.4353   34.5908   44.4016 H   0  0  0  0  0  0  0  0  0  0  0  0
   57.2469   28.8862   47.0482 H   0  0  0  0  0  0  0  0  0  0  0  0
   57.1187   26.4888   47.7121 H   0  0  0  0  0  0  0  0  0  0  0  0
   53.1174   24.4020   44.0456 H   0  0  0  0  0  0  0  0  0  0  0  0
   50.8250   23.5906   44.5692 H   0  0  0  0  0  0  0  0  0  0  0  0
   50.3961   22.3350   46.6746 H   0  0  0  0  0  0  0  0  0  0  0  0
   52.2481   21.8918   48.2708 H   0  0  0  0  0  0  0  0  0  0  0  0
   54.3703   20.5142   45.2513 H   0  0  0  0  0  0  0  0  0  0  0  0
  1  2  1  0
  2  3  1  0
  3  4  2  0
  4  5  1  0
  5  6  2  0
  6  7  1  0
  7  8  1  0
  8  9  1  0
  9 10  2  0
  9 11  1  0
 11 12  1  0
 12 13  1  0
 13 14  2  0
 13 15  1  0
 15 16  1  0
 16 17  1  0
 17 18  2  0
 18 19  1  0
 19 20  2  0
 20 21  1  0
 21 22  2  0
 21 23  1  0
 23 24  1  0
 24 25  1  0
 25 26  2  0
 26 27  1  0
 27 28  2  0
 28 29  1  0
 28 30  1  0
 30 31  2  0
 20 32  1  0
 32 33  2  0
 15 34  1  0
 34 35  2  0
 34 36  1  0
 36 37  2  0
 37 38  1  0
 38 39  2  0
 39 40  1  0
 40 41  2  0
  7 42  2  0
 42  3  1  0
 41 12  1  0
 33 17  1  0
 41 36  1  0
 31 25  1  0
  1 43  1  0
  1 44  1  0
  1 45  1  0
  4 46  1  0
  5 47  1  0
  6 48  1  0
 11 49  1  0
 11 50  1  0
 16 51  1  0
 16 52  1  0
 18 53  1  0
 19 54  1  0
 24 55  1  0
 24 56  1  0
 26 57  1  0
 27 58  1  0
 29 59  1  0
 29 60  1  0
 29 61  1  0
 30 62  1  0
 31 63  1  0
 32 64  1  0
 33 65  1  0
 37 66  1  0
 38 67  1  0
 39 68  1  0
 40 69  1  0
 42 70  1  0
M  CHG  2   8  -1  23  -1
M  END
>  <UniqueID>  (47) 
45

>  <SMILES>  (47) 
COc1cccc([N-]C(=O)Cn2c(=O)n(Cc3ccc(C(=O)[N-]Cc4ccc(C)cc4)cc3)c(=O)c3ccccc32)c1

>  <Energy>  (47) 
97.09096674572757

>  <Genealogy>  (47) 
COc1cccc([N-]C(=O)Cn2c(=O)n(Cc3ccc(C(=O)[N-]Cc4ccc(C)cc4)cc3)c(=O)c3ccccc32)c1 (protonated)
COc1cccc([N-]C(=O)Cn2c(=O)n(Cc3ccc(C(=O)[N-]Cc4ccc(C)cc4)cc3)c(=O)c3ccccc32)c1 (3D coordinates assigned)
COc1cccc([N-]C(=O)Cn2c(=O)n(Cc3ccc(C(=O)[N-]Cc4ccc(C)cc4)cc3)c(=O)c3ccccc32)c1 (optimized conformer: 97.09096674572757 kcal/mol)

>  <smiles>  (47) 
COc1cccc(NC(=O)Cn2c(=O)n(Cc3ccc(C(=O)NCc4ccc(C)cc4)cc3)c(=O)c3ccccc32)c1

>  <score_type>  (47) 
oracle

>  <origin>  (47) 
adg

>  <m_score__min__energy>  (47) 
-12.550000000000001

>  <m_primary>  (47) 
energy

$$$$
47:0
     RDKit          3D

 43 45  0  0  0  0  0  0  0  0999 V2000
   58.8430   34.7990   53.0770 N   0  0  0  0  0  0  0  0  0  0  0  0
   59.5850   33.3880   52.4090 S   0  0  0  0  0  0  0  0  0  0  0  0
   59.0200   32.1710   53.0840 O   0  0  0  0  0  0  0  0  0  0  0  0
   61.0680   33.4340   52.6520 O   0  0  0  0  0  0  0  0  0  0  0  0
   59.2780   33.3240   50.6760 C   0  0  0  0  0  0  0  0  0  0  0  0
   59.8900   34.2350   49.8060 C   0  0  0  0  0  0  0  0  0  0  0  0
   59.6410   34.1720   48.4310 C   0  0  0  0  0  0  0  0  0  0  0  0
   58.7840   33.1890   47.9050 C   0  0  0  0  0  0  0  0  0  0  0  0
   58.5040   33.1100   46.4530 C   0  0  0  0  0  0  0  0  0  0  0  0
   58.7040   34.1280   45.7330 O   0  0  0  0  0  0  0  0  0  0  0  0
   58.0160   31.8960   45.8540 N   0  0  0  0  0  0  0  0  0  0  0  0
   57.7570   31.7580   44.4460 C   0  0  0  0  0  0  0  0  0  0  0  0
   58.2810   32.6990   43.5420 C   0  0  0  0  0  0  0  0  0  0  0  0
   57.9800   32.6200   42.1820 C   0  0  0  0  0  0  0  0  0  0  0  0
   57.1450   31.6090   41.7090 C   0  0  0  0  0  0  0  0  0  0  0  0
   56.6050   30.6750   42.5940 C   0  0  0  0  0  0  0  0  0  0  0  0
   56.8940   30.7410   43.9690 C   0  0  0  0  0  0  0  0  0  0  0  0
   56.3290   29.7150   44.8810 C   0  0  0  0  0  0  0  0  0  0  0  0
   55.1080   29.4210   44.8030 O   0  0  0  0  0  0  0  0  0  0  0  0
   57.1190   29.1000   45.9080 N   0  0  0  0  0  0  0  0  0  0  0  0
   57.4740   27.7110   45.9790 C   0  0  0  0  0  0  0  0  0  0  0  0
   58.8290   27.3680   46.0820 C   0  0  0  0  0  0  0  0  0  0  0  0
   59.2170   26.0280   46.1480 C   0  0  0  0  0  0  0  0  0  0  0  0
   58.2510   25.0180   46.1300 C   0  0  0  0  0  0  0  0  0  0  0  0
   56.8960   25.3490   46.0590 C   0  0  0  0  0  0  0  0  0  0  0  0
   56.5000   26.6910   46.0000 C   0  0  0  0  0  0  0  0  0  0  0  0
   55.1440   26.9940   45.9940 O   0  0  0  0  0  0  0  0  0  0  0  0
   58.1650   32.2850   48.7860 C   0  0  0  0  0  0  0  0  0  0  0  0
   58.4150   32.3500   50.1610 C   0  0  0  0  0  0  0  0  0  0  0  0
   58.5130   35.3810   52.2740 H   0  0  0  0  0  0  0  0  0  0  0  0
   60.5689   35.0028   50.2054 H   0  0  0  0  0  0  0  0  0  0  0  0
   60.1193   34.8970   47.7560 H   0  0  0  0  0  0  0  0  0  0  0  0
   57.8560   31.0570   46.4550 H   0  0  0  0  0  0  0  0  0  0  0  0
   58.9337   33.5042   43.9102 H   0  0  0  0  0  0  0  0  0  0  0  0
   58.4021   33.3563   41.4822 H   0  0  0  0  0  0  0  0  0  0  0  0
   56.9113   31.5473   40.6359 H   0  0  0  0  0  0  0  0  0  0  0  0
   55.9473   29.8799   42.2129 H   0  0  0  0  0  0  0  0  0  0  0  0
   59.5922   28.1597   46.1111 H   0  0  0  0  0  0  0  0  0  0  0  0
   60.2836   25.7673   46.2142 H   0  0  0  0  0  0  0  0  0  0  0  0
   58.5579   23.9625   46.1718 H   0  0  0  0  0  0  0  0  0  0  0  0
   56.1371   24.5528   46.0494 H   0  0  0  0  0  0  0  0  0  0  0  0
   57.4791   31.5210   48.3913 H   0  0  0  0  0  0  0  0  0  0  0  0
   57.9312   31.6326   50.8402 H   0  0  0  0  0  0  0  0  0  0  0  0
  1  2  1  0
  2  3  2  0
  2  4  2  0
  2  5  1  0
  5  6  2  0
  6  7  1  0
  7  8  2  0
  8  9  1  0
  9 10  2  0
  9 11  1  0
 11 12  1  0
 12 13  2  0
 13 14  1  0
 14 15  2  0
 15 16  1  0
 16 17  2  0
 17 18  1  0
 18 19  2  0
 18 20  1  0
 20 21  1  0
 21 22  2  0
 22 23  1  0
 23 24  2  0
 24 25  1  0
 25 26  2  0
 26 27  1  0
  8 28  1  0
 28 29  2  0
 29  5  1  0
 17 12  1  0
 26 21  1  0
  1 30  1  0
  6 31  1  0
  7 32  1  0
 11 33  1  0
 13 34  1  0
 14 35  1  0
 15 36  1  0
 16 37  1  0
 22 38  1  0
 23 39  1  0
 24 40  1  0
 25 41  1  0
 28 42  1  0
 29 43  1  0
M  CHG  3   1  -1  20  -1  27  -1
M  END
>  <UniqueID>  (48) 
46

>  <SMILES>  (48) 
[NH-]S(=O)(=O)c1ccc(C(=O)Nc2ccccc2C(=O)[N-]c2ccccc2[O-])cc1

>  <Energy>  (48) 
63.08756422771671

>  <Genealogy>  (48) 
[NH-]S(=O)(=O)c1ccc(C(=O)Nc2ccccc2C(=O)[N-]c2ccccc2[O-])cc1 (protonated)
[NH-]S(=O)(=O)c1ccc(C(=O)Nc2ccccc2C(=O)[N-]c2ccccc2[O-])cc1 (3D coordinates assigned)
[NH-]S(=O)(=O)c1ccc(C(=O)Nc2ccccc2C(=O)[N-]c2ccccc2[O-])cc1 (optimized conformer: 63.08756422771671 kcal/mol)

>  <smiles>  (48) 
NS(=O)(=O)c1ccc(C(=O)Nc2ccccc2C(=O)Nc2ccccc2O)cc1

>  <score_type>  (48) 
oracle

>  <origin>  (48) 
adg

>  <m_score__min__energy>  (48) 
-15.01

>  <m_primary>  (48) 
energy

$$$$
48:0
     RDKit          3D

 39 41  0  0  1  0  0  0  0  0999 V2000
   59.3470   35.3630   46.2460 N   0  0  0  0  0  0  0  0  0  0  0  0
   58.6610   34.1430   46.4980 C   0  0  0  0  0  0  0  0  0  0  0  0
   58.4100   33.8060   47.6880 O   0  0  0  0  0  0  0  0  0  0  0  0
   58.2280   33.2460   45.4380 C   0  0  0  0  0  0  0  0  0  0  0  0
   58.5740   33.5710   44.1430 C   0  0  0  0  0  0  0  0  0  0  0  0
   58.1770   32.7350   43.0960 C   0  0  0  0  0  0  0  0  0  0  0  0
   57.4440   31.5910   43.3350 C   0  0  0  0  0  0  0  0  0  0  0  0
   57.0950   31.2640   44.6480 C   0  0  0  0  0  0  0  0  0  0  0  0
   56.3400   30.0810   44.8740 N   0  0  0  0  0  0  0  0  0  0  0  0
   56.7880   29.0120   45.4090 C   0  0  0  0  0  0  0  0  0  0  0  0
   58.0320   29.0680   46.0280 C   0  0  0  0  0  0  0  0  0  0  0  0
   58.4770   27.8850   46.5930 C   0  0  0  0  0  0  0  0  0  0  0  0
   57.7480   26.7580   46.5450 N   0  0  0  0  0  0  0  0  0  0  0  0
   56.5370   26.7300   45.9350 C   0  0  0  0  0  0  0  0  0  0  0  0
   55.8110   25.6840   45.8650 N   0  0  0  0  0  0  0  0  0  0  0  0
   56.3430   24.4690   45.3470 C   0  0  0  0  0  0  0  0  0  0  0  0
   57.3760   23.7820   45.9930 C   0  0  0  0  0  0  0  0  0  0  0  0
   57.8300   22.6160   45.4210 C   0  0  0  0  0  0  0  0  0  0  0  0
   57.2870   22.1270   44.2430 C   0  0  0  0  0  0  0  0  0  0  0  0
   56.2710   22.8060   43.6110 C   0  0  0  0  0  0  0  0  0  0  0  0
   55.7480   22.2900   42.4310 O   0  0  0  0  0  0  0  0  0  0  0  0
   55.7950   23.9850   44.1660 C   0  0  0  0  0  0  0  0  0  0  0  0
   56.0830   27.8680   45.3780 N   0  0  0  0  0  0  0  0  0  0  0  0
   57.4980   32.1060   45.6740 C   0  0  0  0  0  0  0  0  0  0  0  0
   59.9100   35.5460   45.3840 H   0  0  0  0  0  0  0  0  0  0  0  0
   59.2830   36.1320   46.9730 H   0  0  0  0  0  0  0  0  0  0  0  0
   59.1574   34.4803   43.9362 H   0  0  0  0  0  0  0  0  0  0  0  0
   58.4538   32.9936   42.0633 H   0  0  0  0  0  0  0  0  0  0  0  0
   57.1375   30.9430   42.5007 H   0  0  0  0  0  0  0  0  0  0  0  0
   58.6250   29.9937   46.0663 H   0  0  0  0  0  0  0  0  0  0  0  0
   59.4554   27.8676   47.0955 H   0  0  0  0  0  0  0  0  0  0  0  0
   58.0710   25.8540   46.9690 H   0  0  0  0  0  0  0  0  0  0  0  0
   57.8117   24.1620   46.9288 H   0  0  0  0  0  0  0  0  0  0  0  0
   58.6428   22.0588   45.9098 H   0  0  0  0  0  0  0  0  0  0  0  0
   57.6706   21.1909   43.8112 H   0  0  0  0  0  0  0  0  0  0  0  0
   56.2030   22.3810   41.5410 H   0  0  0  0  0  0  0  0  0  0  0  0
   54.9829   24.5370   43.6703 H   0  0  0  0  0  0  0  0  0  0  0  0
   55.1500   27.8530   44.9050 H   0  0  0  0  0  0  0  0  0  0  0  0
   57.2246   31.8532   46.7091 H   0  0  0  0  0  0  0  0  0  0  0  0
  1  2  1  0
  2  3  2  0
  2  4  1  0
  4  5  2  0
  5  6  1  0
  6  7  2  0
  7  8  1  0
  8  9  1  0
  9 10  2  0
 10 11  1  0
 11 12  2  0
 12 13  1  0
 13 14  1  0
 14 15  2  0
 15 16  1  0
 16 17  2  0
 17 18  1  0
 18 19  2  0
 19 20  1  0
 20 21  1  0
 20 22  2  0
 14 23  1  0
  8 24  2  0
 24  4  1  0
 23 10  1  0
 22 16  1  0
  1 25  1  0
  1 26  1  0
  5 27  1  0
  6 28  1  0
  7 29  1  0
 11 30  1  0
 12 31  1  0
 13 32  1  0
 17 33  1  0
 18 34  1  0
 19 35  1  0
 21 36  1  0
 22 37  1  0
 23 38  1  0
 24 39  1  0
M  END
>  <smiles>  (49) 
NC(=O)c1cccc(N=c2cc[nH]c(=Nc3cccc(O)c3)[nH]2)c1

>  <score_type>  (49) 
oracle

>  <origin>  (49) 
adg

>  <m_score__min__energy>  (49) 
-9.1799999999999997

>  <m_primary>  (49) 
energy

$$$$
49:0
     RDKit          3D

 55 58  0  0  0  0  0  0  0  0999 V2000
   57.4320   20.8680   46.4030 C   0  0  0  0  0  0  0  0  0  0  0  0
   57.3900   22.0600   47.1810 O   0  0  0  0  0  0  0  0  0  0  0  0
   57.3830   23.3560   46.6460 C   0  0  0  0  0  0  0  0  0  0  0  0
   57.3340   24.5070   47.4540 C   0  0  0  0  0  0  0  0  0  0  0  0
   57.3300   25.7790   46.8740 C   0  0  0  0  0  0  0  0  0  0  0  0
   57.3750   25.9210   45.4730 C   0  0  0  0  0  0  0  0  0  0  0  0
   57.3740   27.1750   44.8370 O   0  0  0  0  0  0  0  0  0  0  0  0
   57.6810   28.4220   45.4640 C   0  0  0  0  0  0  0  0  0  0  0  0
   56.7260   29.5040   45.0290 C   0  0  0  0  0  0  0  0  0  0  0  0
   55.4860   29.3440   45.1880 O   0  0  0  0  0  0  0  0  0  0  0  0
   57.1920   30.7470   44.4830 N   0  0  0  0  0  0  0  0  0  0  0  0
   57.6980   31.8680   45.2180 C   0  0  0  0  0  0  0  0  0  0  0  0
   57.0500   33.1020   45.1000 C   0  0  0  0  0  0  0  0  0  0  0  0
   57.5380   34.2220   45.7760 C   0  0  0  0  0  0  0  0  0  0  0  0
   58.6890   34.1230   46.5620 C   0  0  0  0  0  0  0  0  0  0  0  0
   59.3760   32.9000   46.6660 C   0  0  0  0  0  0  0  0  0  0  0  0
   60.5990   32.7700   47.4940 C   0  0  0  0  0  0  0  0  0  0  0  0
   60.9240   33.7010   48.4820 C   0  0  0  0  0  0  0  0  0  0  0  0
   62.0900   33.5340   49.2230 C   0  0  0  0  0  0  0  0  0  0  0  0
   62.9310   32.4310   48.9760 C   0  0  0  0  0  0  0  0  0  0  0  0
   64.1580   32.2260   49.7430 N   0  0  0  0  0  0  0  0  0  0  0  0
   65.3160   33.1140   49.5090 C   0  0  0  0  0  0  0  0  0  0  0  0
   66.5550   32.7170   50.3120 C   0  0  0  0  0  0  0  0  0  0  0  0
   66.1980   32.3170   51.6130 O   0  0  0  0  0  0  0  0  0  0  0  0
   65.5260   31.0820   51.5290 C   0  0  0  0  0  0  0  0  0  0  0  0
   64.1640   31.2350   50.8400 C   0  0  0  0  0  0  0  0  0  0  0  0
   62.5530   31.5480   47.9980 N   0  0  0  0  0  0  0  0  0  0  0  0
   61.4380   31.7220   47.2880 N   0  0  0  0  0  0  0  0  0  0  0  0
   58.8750   31.7770   45.9820 C   0  0  0  0  0  0  0  0  0  0  0  0
   57.4220   24.7730   44.6740 C   0  0  0  0  0  0  0  0  0  0  0  0
   57.4250   23.5020   45.2550 C   0  0  0  0  0  0  0  0  0  0  0  0
   57.4628   19.9948   47.0713 H   0  0  0  0  0  0  0  0  0  0  0  0
   56.5352   20.8126   45.7684 H   0  0  0  0  0  0  0  0  0  0  0  0
   58.3304   20.8758   45.7684 H   0  0  0  0  0  0  0  0  0  0  0  0
   57.2986   24.4053   48.5487 H   0  0  0  0  0  0  0  0  0  0  0  0
   57.2916   26.6727   47.5141 H   0  0  0  0  0  0  0  0  0  0  0  0
   57.6122   28.3009   46.5551 H   0  0  0  0  0  0  0  0  0  0  0  0
   58.6984   28.7178   45.1685 H   0  0  0  0  0  0  0  0  0  0  0  0
   56.1515   33.1905   44.4715 H   0  0  0  0  0  0  0  0  0  0  0  0
   57.0145   35.1856   45.6895 H   0  0  0  0  0  0  0  0  0  0  0  0
   59.0599   35.0064   47.1024 H   0  0  0  0  0  0  0  0  0  0  0  0
   60.2637   34.5598   48.6733 H   0  0  0  0  0  0  0  0  0  0  0  0
   62.3553   34.2637   50.0022 H   0  0  0  0  0  0  0  0  0  0  0  0
   65.5689   33.0832   48.4389 H   0  0  0  0  0  0  0  0  0  0  0  0
   65.0245   34.1226   49.8373 H   0  0  0  0  0  0  0  0  0  0  0  0
   67.0623   31.8833   49.8044 H   0  0  0  0  0  0  0  0  0  0  0  0
   67.2251   33.5866   50.3810 H   0  0  0  0  0  0  0  0  0  0  0  0
   66.1424   30.3770   50.9519 H   0  0  0  0  0  0  0  0  0  0  0  0
   65.3589   30.7072   52.5496 H   0  0  0  0  0  0  0  0  0  0  0  0
   63.8729   30.2581   50.4264 H   0  0  0  0  0  0  0  0  0  0  0  0
   63.4583   31.5968   51.6023 H   0  0  0  0  0  0  0  0  0  0  0  0
   63.1220   30.7040   47.7770 H   0  0  0  0  0  0  0  0  0  0  0  0
   59.4097   30.8178   46.0456 H   0  0  0  0  0  0  0  0  0  0  0  0
   57.4569   24.8720   43.5790 H   0  0  0  0  0  0  0  0  0  0  0  0
   57.4607   22.6091   44.6136 H   0  0  0  0  0  0  0  0  0  0  0  0
  1  2  1  0
  2  3  1  0
  3  4  2  0
  4  5  1  0
  5  6  2  0
  6  7  1  0
  7  8  1  0
  8  9  1  0
  9 10  2  0
  9 11  1  0
 11 12  1  0
 12 13  2  0
 13 14  1  0
 14 15  2  0
 15 16  1  0
 16 17  1  0
 17 18  2  0
 18 19  1  0
 19 20  2  0
 20 21  1  0
 21 22  1  0
 22 23  1  0
 23 24  1  0
 24 25  1  0
 25 26  1  0
 20 27  1  0
 27 28  2  0
 16 29  2  0
  6 30  1  0
 30 31  2  0
 31  3  1  0
 29 12  1  0
 28 17  1  0
 26 21  1  0
  1 32  1  0
  1 33  1  0
  1 34  1  0
  4 35  1  0
  5 36  1  0
  8 37  1  0
  8 38  1  0
 13 39  1  0
 14 40  1  0
 15 41  1  0
 18 42  1  0
 19 43  1  0
 22 44  1  0
 22 45  1  0
 23 46  1  0
 23 47  1  0
 25 48  1  0
 25 49  1  0
 26 50  1  0
 26 51  1  0
 27 52  1  0
 29 53  1  0
 30 54  1  0
 31 55  1  0
M  CHG  2  11  -1  27   1
M  END
>  <UniqueID>  (50) 
47

>  <SMILES>  (50) 
COc1ccc(OCC(=O)[N-]c2cccc(-c3ccc(N4CCOCC4)[nH+]n3)c2)cc1

>  <Energy>  (50) 
75.07212740030307

>  <Genealogy>  (50) 
COc1ccc(OCC(=O)[N-]c2cccc(-c3ccc(N4CCOCC4)[nH+]n3)c2)cc1 (protonated)
COc1ccc(OCC(=O)[N-]c2cccc(-c3ccc(N4CCOCC4)[nH+]n3)c2)cc1 (3D coordinates assigned)
COc1ccc(OCC(=O)[N-]c2cccc(-c3ccc(N4CCOCC4)[nH+]n3)c2)cc1 (nonaromatic ring conformer: 75.07212740030307 kcal/mol)

>  <smiles>  (50) 
COc1ccc(OCC(=O)Nc2cccc(-c3ccc(N4CCOCC4)nn3)c2)cc1

>  <score_type>  (50) 
oracle

>  <origin>  (50) 
adg

>  <m_score__min__energy>  (50) 
-8.5999999999999996

>  <m_primary>  (50) 
energy

$$$$
50:0
     RDKit          3D

 52 55  0  0  0  0  0  0  0  0999 V2000
   55.1930   28.9640   44.8710 O   0  0  0  0  0  0  0  0  0  0  0  0
   56.5430   29.1630   45.1340 C   0  0  0  0  0  0  0  0  0  0  0  0
   57.0270   30.4700   45.2450 C   0  0  0  0  0  0  0  0  0  0  0  0
   58.3800   30.7120   45.5010 C   0  0  0  0  0  0  0  0  0  0  0  0
   58.9010   32.3900   45.6550 Cl  0  0  0  0  0  0  0  0  0  0  0  0
   59.2760   29.6290   45.6260 C   0  0  0  0  0  0  0  0  0  0  0  0
   60.7440   29.8270   45.9270 C   0  0  0  0  0  0  0  0  0  0  0  0
   60.9130   30.6430   47.1820 C   0  0  0  0  0  0  0  0  0  0  0  0
   60.1970   30.3140   48.3440 C   0  0  0  0  0  0  0  0  0  0  0  0
   60.3970   31.0290   49.5280 C   0  0  0  0  0  0  0  0  0  0  0  0
   61.3230   32.0810   49.5680 C   0  0  0  0  0  0  0  0  0  0  0  0
   61.5390   32.7980   50.7550 C   0  0  0  0  0  0  0  0  0  0  0  0
   62.4690   33.8410   50.7840 C   0  0  0  0  0  0  0  0  0  0  0  0
   63.1890   34.1770   49.6310 C   0  0  0  0  0  0  0  0  0  0  0  0
   62.9820   33.4700   48.4430 C   0  0  0  0  0  0  0  0  0  0  0  0
   62.0510   32.4190   48.4020 C   0  0  0  0  0  0  0  0  0  0  0  0
   61.8410   31.6980   47.2180 C   0  0  0  0  0  0  0  0  0  0  0  0
   58.7820   28.3200   45.5160 C   0  0  0  0  0  0  0  0  0  0  0  0
   57.4170   28.0710   45.2900 C   0  0  0  0  0  0  0  0  0  0  0  0
   56.9220   26.6400   45.1910 C   0  0  2  0  0  0  0  0  0  0  0  0
   56.9580   26.0580   46.4870 O   0  0  0  0  0  0  0  0  0  0  0  0
   56.3810   24.7620   46.4770 C   0  0  2  0  0  0  0  0  0  0  0  0
   56.2700   24.2630   47.9250 C   0  0  0  0  0  0  0  0  0  0  0  0
   57.5110   24.3580   48.5740 O   0  0  0  0  0  0  0  0  0  0  0  0
   57.2260   23.7960   45.6010 C   0  0  2  0  0  0  0  0  0  0  0  0
   58.4880   23.5340   46.1680 O   0  0  0  0  0  0  0  0  0  0  0  0
   57.3740   24.3560   44.1720 C   0  0  1  0  0  0  0  0  0  0  0  0
   56.1450   24.2260   43.5000 O   0  0  0  0  0  0  0  0  0  0  0  0
   57.8070   25.8400   44.2040 C   0  0  1  0  0  0  0  0  0  0  0  0
   57.7150   26.4040   42.9200 O   0  0  0  0  0  0  0  0  0  0  0  0
   56.3354   31.3176   45.1296 H   0  0  0  0  0  0  0  0  0  0  0  0
   61.2221   28.8459   46.0645 H   0  0  0  0  0  0  0  0  0  0  0  0
   61.2137   30.3596   45.0869 H   0  0  0  0  0  0  0  0  0  0  0  0
   59.4725   29.4865   48.3223 H   0  0  0  0  0  0  0  0  0  0  0  0
   59.8265   30.7657   50.4309 H   0  0  0  0  0  0  0  0  0  0  0  0
   60.9757   32.5388   51.6636 H   0  0  0  0  0  0  0  0  0  0  0  0
   62.6360   34.4002   51.7164 H   0  0  0  0  0  0  0  0  0  0  0  0
   63.9192   34.9992   49.6602 H   0  0  0  0  0  0  0  0  0  0  0  0
   63.5490   33.7371   47.5390 H   0  0  0  0  0  0  0  0  0  0  0  0
   62.4062   31.9597   46.3113 H   0  0  0  0  0  0  0  0  0  0  0  0
   59.4766   27.4721   45.6084 H   0  0  0  0  0  0  0  0  0  0  0  0
   55.8898   26.6212   44.8111 H   0  0  0  0  0  0  0  0  0  0  0  0
   55.3747   24.7999   46.0344 H   0  0  0  0  0  0  0  0  0  0  0  0
   55.5320   24.8757   48.4635 H   0  0  0  0  0  0  0  0  0  0  0  0
   55.9533   23.2096   47.9151 H   0  0  0  0  0  0  0  0  0  0  0  0
   58.1240   24.8230   47.9470 H   0  0  0  0  0  0  0  0  0  0  0  0
   56.6880   22.8377   45.5534 H   0  0  0  0  0  0  0  0  0  0  0  0
   58.7250   24.2910   46.7650 H   0  0  0  0  0  0  0  0  0  0  0  0
   58.1521   23.7871   43.6420 H   0  0  0  0  0  0  0  0  0  0  0  0
   55.9810   25.0830   43.0280 H   0  0  0  0  0  0  0  0  0  0  0  0
   58.8526   25.8876   44.5424 H   0  0  0  0  0  0  0  0  0  0  0  0
   56.7880   26.2500   42.6030 H   0  0  0  0  0  0  0  0  0  0  0  0
  1  2  1  0
  2  3  2  0
  3  4  1  0
  4  5  1  0
  4  6  2  0
  6  7  1  0
  7  8  1  0
  8  9  2  0
  9 10  1  0
 10 11  2  0
 11 12  1  0
 12 13  2  0
 13 14  1  0
 14 15  2  0
 15 16  1  0
 16 17  2  0
  6 18  1  0
 18 19  2  0
 19 20  1  0
 20 21  1  0
 21 22  1  0
 22 23  1  0
 23 24  1  0
 22 25  1  0
 25 26  1  0
 25 27  1  0
 27 28  1  0
 27 29  1  0
 29 30  1  0
 19  2  1  0
 29 20  1  0
 17  8  1  0
 16 11  1  0
  3 31  1  0
  7 32  1  0
  7 33  1  0
  9 34  1  0
 10 35  1  0
 12 36  1  0
 13 37  1  0
 14 38  1  0
 15 39  1  0
 17 40  1  0
 18 41  1  0
 20 42  1  6
 22 43  1  6
 23 44  1  0
 23 45  1  0
 24 46  1  0
 25 47  1  6
 26 48  1  0
 27 49  1  6
 28 50  1  0
 29 51  1  1
 30 52  1  0
M  CHG  1   1  -1
M  END
>  <UniqueID>  (51) 
48

>  <SMILES>  (51) 
[O-]c1cc(Cl)c(Cc2ccc3ccccc3c2)cc1[C@@H]1O[C@H](CO)C(O)C(O)C1O

>  <Energy>  (51) 
61.11497515196807

>  <Genealogy>  (51) 
[O-]c1cc(Cl)c(Cc2ccc3ccccc3c2)cc1C1OC(CO)C(O)C(O)C1O (protonated)
[O-]c1cc(Cl)c(Cc2ccc3ccccc3c2)cc1[C@@H]1O[C@H](CO)C(O)C(O)C1O (chirality)
[O-]c1cc(Cl)c(Cc2ccc3ccccc3c2)cc1[C@@H]1O[C@H](CO)C(O)C(O)C1O (3D coordinates assigned)
[O-]c1cc(Cl)c(Cc2ccc3ccccc3c2)cc1[C@@H]1O[C@H](CO)C(O)C(O)C1O (nonaromatic ring conformer: 61.11497515196807 kcal/mol)

>  <smiles>  (51) 
OCC1OC(c2cc(Cc3ccc4ccccc4c3)c(Cl)cc2O)C(O)C(O)C1O

>  <score_type>  (51) 
oracle

>  <origin>  (51) 
adg

>  <m_score__min__energy>  (51) 
-11.029999999999999

>  <m_primary>  (51) 
energy

$$$$
51:0
     RDKit          3D

 56 57  0  0  0  0  0  0  0  0999 V2000
   54.2910   28.9610   44.5620 H   0  0  0  0  0  0  0  0  0  0  0  0
   55.0330   29.5540   44.9160 O   0  0  0  0  0  0  0  0  0  0  0  0
   56.3700   29.2400   44.6920 C   0  0  0  0  0  0  0  0  0  0  0  0
   56.7680   28.1990   43.9990 O   0  0  0  0  0  0  0  0  0  0  0  0
   58.0850   28.2010   43.9710 C   0  0  0  0  0  0  0  0  0  0  0  0
   58.8950   27.1380   43.2950 C   0  0  0  0  0  0  0  0  0  0  0  0
   59.6248   27.6108   42.6213 H   0  0  0  0  0  0  0  0  0  0  0  0
   59.4183   26.5452   44.0597 H   0  0  0  0  0  0  0  0  0  0  0  0
   58.0610   26.2920   42.5530 O   0  0  0  0  0  0  0  0  0  0  0  0
   57.1300   26.6060   42.7070 H   0  0  0  0  0  0  0  0  0  0  0  0
   58.5800   29.2870   44.6850 C   0  0  0  0  0  0  0  0  0  0  0  0
   59.1970   26.5180   46.8250 C   0  0  0  0  0  0  0  0  0  0  0  0
   59.1510   27.2414   45.9976 H   0  0  0  0  0  0  0  0  0  0  0  0
   60.2960   26.5210   47.5950 C   0  0  0  0  0  0  0  0  0  0  0  0
   61.0872   25.7923   47.3649 H   0  0  0  0  0  0  0  0  0  0  0  0
   60.0040   29.5680   44.9580 C   0  0  0  0  0  0  0  0  0  0  0  0
   60.7573   29.2450   44.2243 H   0  0  0  0  0  0  0  0  0  0  0  0
   60.5120   27.4390   48.7310 C   0  0  0  0  0  0  0  0  0  0  0  0
   61.3458   27.2259   49.4162 H   0  0  0  0  0  0  0  0  0  0  0  0
   60.4120   30.2000   46.0630 C   0  0  0  0  0  0  0  0  0  0  0  0
   61.4158   30.6486   46.0979 H   0  0  0  0  0  0  0  0  0  0  0  0
   59.7540   28.5160   48.9780 C   0  0  0  0  0  0  0  0  0  0  0  0
   59.6669   28.8692   50.0161 H   0  0  0  0  0  0  0  0  0  0  0  0
   59.0280   29.2530   47.9180 C   0  0  0  0  0  0  0  0  0  0  0  0
   58.0099   28.9181   47.6702 H   0  0  0  0  0  0  0  0  0  0  0  0
   59.5210   30.2990   47.2380 C   0  0  0  0  0  0  0  0  0  0  0  0
   59.2411   31.3061   47.5807 H   0  0  0  0  0  0  0  0  0  0  0  0
   58.0210   25.5940   47.0130 C   0  0  0  0  0  0  0  0  0  0  0  0
   57.8717   25.4152   48.0881 H   0  0  0  0  0  0  0  0  0  0  0  0
   58.2302   24.6482   46.4917 H   0  0  0  0  0  0  0  0  0  0  0  0
   56.7450   26.2060   46.4240 C   0  0  0  0  0  0  0  0  0  0  0  0
   57.0212   26.9898   45.7033 H   0  0  0  0  0  0  0  0  0  0  0  0
   56.1483   26.6309   47.2446 H   0  0  0  0  0  0  0  0  0  0  0  0
   55.9050   25.1400   45.7090 C   0  0  0  0  0  0  0  0  0  0  0  0
   55.0743   25.6321   45.1820 H   0  0  0  0  0  0  0  0  0  0  0  0
   55.5238   24.4347   46.4622 H   0  0  0  0  0  0  0  0  0  0  0  0
   56.7430   24.3610   44.6990 C   0  0  0  0  0  0  0  0  0  0  0  0
   57.4470   23.7066   45.2338 H   0  0  0  0  0  0  0  0  0  0  0  0
   56.0815   23.7497   44.0676 H   0  0  0  0  0  0  0  0  0  0  0  0
   57.3045   25.0653   44.0676 H   0  0  0  0  0  0  0  0  0  0  0  0
   57.4540   29.9640   45.1310 C   0  0  0  0  0  0  0  0  0  0  0  0
   57.3920   31.1550   45.8550 O   0  0  0  0  0  0  0  0  0  0  0  0
   57.0710   32.3990   45.2400 C   0  0  0  0  0  0  0  0  0  0  0  0
   57.1961   32.3148   44.1504 H   0  0  0  0  0  0  0  0  0  0  0  0
   56.0277   32.6660   45.4643 H   0  0  0  0  0  0  0  0  0  0  0  0
   57.9900   33.4580   45.7710 C   0  0  0  0  0  0  0  0  0  0  0  0
   58.3220   33.4930   47.1370 C   0  0  0  0  0  0  0  0  0  0  0  0
   57.8752   32.7633   47.8283 H   0  0  0  0  0  0  0  0  0  0  0  0
   59.2180   34.4520   47.6200 C   0  0  0  0  0  0  0  0  0  0  0  0
   59.4697   34.4793   48.6905 H   0  0  0  0  0  0  0  0  0  0  0  0
   59.7940   35.3760   46.7430 C   0  0  0  0  0  0  0  0  0  0  0  0
   60.4919   36.1357   47.1247 H   0  0  0  0  0  0  0  0  0  0  0  0
   59.4820   35.3340   45.3780 C   0  0  0  0  0  0  0  0  0  0  0  0
   59.9403   36.0575   44.6877 H   0  0  0  0  0  0  0  0  0  0  0  0
   58.5890   34.3740   44.8910 C   0  0  0  0  0  0  0  0  0  0  0  0
   58.3554   34.3364   43.8167 H   0  0  0  0  0  0  0  0  0  0  0  0
  1  2  1  0
  2  3  1  0
  3  4  1  0
  4  5  1  0
  5  6  1  0
  6  7  1  0
  6  8  1  0
  6  9  1  0
  9 10  1  0
  5 11  2  0
 11 12  1  0
 12 13  1  0
 12 14  2  0
 14 15  1  0
 14 16  1  0
 16 17  1  0
 16 18  2  0
 18 19  1  0
 18 20  1  0
 20 21  1  0
 20 22  2  0
 22 23  1  0
 22 24  1  0
 24 25  1  0
 24 26  2  3
 26 27  1  0
 26 28  1  0
 28 29  1  0
 28 30  1  0
 28 31  1  0
 31 32  1  0
 31 33  1  0
 31 34  1  0
 34 35  1  0
 34 36  1  0
 34 37  1  0
 37 38  1  0
 37 39  1  0
 37 40  1  0
 11 41  1  0
 41 42  1  0
 42 43  1  0
 43 44  1  0
 43 45  1  0
 43 46  1  0
 46 47  2  0
 47 48  1  0
 47 49  1  0
 49 50  1  0
 49 51  2  0
 51 52  1  0
 51 53  1  0
 53 54  1  0
 53 55  2  0
 55 56  1  0
 41  3  2  0
 55 46  1  0
M  END
>  <UniqueID>  (52) 
49

>  <SMILES>  (52) 
CCCCC=C/C=C/C=C\C=Cc1c(CO)oc(O)c1OCc1ccccc1

>  <Energy>  (52) 
83.95034267815554

>  <Genealogy>  (52) 
CCCCC=C/C=C/C=C\C=Cc1c(CO)oc(O)c1OCc1ccccc1 (cis-trans isomerization)
CCCCC=C/C=C/C=C\C=Cc1c(CO)oc(O)c1OCc1ccccc1 (3D coordinates assigned)
CCCCC=C/C=C/C=C\C=Cc1c(CO)oc(O)c1OCc1ccccc1 (optimized conformer: 83.95034267815554 kcal/mol)

>  <smiles>  (52) 
CCCCC=CC=CC=CC=Cc1c(CO)oc(O)c1OCc1ccccc1

>  <score_type>  (52) 
oracle

>  <origin>  (52) 
adg

>  <m_score__min__energy>  (52) 
-8.3599999999999994

>  <m_primary>  (52) 
energy

$$$$
52:0
     RDKit          3D

 32 33  0  0  0  0  0  0  0  0999 V2000
   60.5640   28.9410   45.2170 C   0  0  0  0  0  0  0  0  0  0  0  0
   59.5470   28.5380   44.7090 C   0  0  0  0  0  0  0  0  0  0  0  0
   58.3170   28.0490   44.0880 C   0  0  0  0  0  0  0  0  0  0  0  0
   57.2140   28.3600   44.9310 O   0  0  0  0  0  0  0  0  0  0  0  0
   56.4020   29.4810   44.7380 C   0  0  0  0  0  0  0  0  0  0  0  0
   55.1460   29.3800   44.8120 O   0  0  0  0  0  0  0  0  0  0  0  0
   57.0330   30.7730   44.4270 C   0  0  0  0  0  0  0  0  0  0  0  0
   57.3950   31.1210   43.1190 C   0  0  0  0  0  0  0  0  0  0  0  0
   58.0410   32.3400   42.9090 C   0  0  0  0  0  0  0  0  0  0  0  0
   58.3110   33.1570   43.9600 N   0  0  0  0  0  0  0  0  0  0  0  0
   57.9470   32.8080   45.2210 C   0  0  0  0  0  0  0  0  0  0  0  0
   58.3400   33.8790   46.6020 S   0  0  0  0  0  0  0  0  0  0  0  0
   59.9990   34.3300   45.9790 C   0  0  0  0  0  0  0  0  0  0  0  0
   61.0600   33.4410   46.5720 C   0  0  0  0  0  0  0  0  0  0  0  0
   62.4080   33.8450   46.5790 C   0  0  0  0  0  0  0  0  0  0  0  0
   63.3970   32.9890   47.0710 C   0  0  0  0  0  0  0  0  0  0  0  0
   63.0510   31.7290   47.5650 C   0  0  0  0  0  0  0  0  0  0  0  0
   61.7140   31.3220   47.5660 C   0  0  0  0  0  0  0  0  0  0  0  0
   60.7210   32.1730   47.0730 C   0  0  0  0  0  0  0  0  0  0  0  0
   57.3090   31.6310   45.4430 N   0  0  0  0  0  0  0  0  0  0  0  0
   61.4915   29.3085   45.6803 H   0  0  0  0  0  0  0  0  0  0  0  0
   58.1808   28.5330   43.1096 H   0  0  0  0  0  0  0  0  0  0  0  0
   58.3805   26.9598   43.9477 H   0  0  0  0  0  0  0  0  0  0  0  0
   57.1750   30.4486   42.2767 H   0  0  0  0  0  0  0  0  0  0  0  0
   58.3318   32.6395   41.8913 H   0  0  0  0  0  0  0  0  0  0  0  0
   60.0126   34.2247   44.8841 H   0  0  0  0  0  0  0  0  0  0  0  0
   60.2111   35.3695   46.2697 H   0  0  0  0  0  0  0  0  0  0  0  0
   62.6843   34.8384   46.1957 H   0  0  0  0  0  0  0  0  0  0  0  0
   64.4497   33.3079   47.0693 H   0  0  0  0  0  0  0  0  0  0  0  0
   63.8308   31.0572   47.9532 H   0  0  0  0  0  0  0  0  0  0  0  0
   61.4427   30.3298   47.9556 H   0  0  0  0  0  0  0  0  0  0  0  0
   59.6699   31.8487   47.0773 H   0  0  0  0  0  0  0  0  0  0  0  0
  1  2  3  0
  2  3  1  0
  3  4  1  0
  4  5  1  0
  5  6  2  0
  5  7  1  0
  7  8  2  0
  8  9  1  0
  9 10  2  0
 10 11  1  0
 11 12  1  0
 12 13  1  0
 13 14  1  0
 14 15  2  0
 15 16  1  0
 16 17  2  0
 17 18  1  0
 18 19  2  0
 11 20  2  0
 20  7  1  0
 19 14  1  0
  1 21  1  0
  3 22  1  0
  3 23  1  0
  8 24  1  0
  9 25  1  0
 13 26  1  0
 13 27  1  0
 15 28  1  0
 16 29  1  0
 17 30  1  0
 18 31  1  0
 19 32  1  0
M  END
>  <UniqueID>  (53) 
50

>  <SMILES>  (53) 
C#CCOC(=O)c1ccnc(SCc2ccccc2)n1

>  <Energy>  (53) 
21.716267635818802

>  <Genealogy>  (53) 
C#CCOC(=O)c1ccnc(SCc2ccccc2)n1 (3D coordinates assigned)
C#CCOC(=O)c1ccnc(SCc2ccccc2)n1 (optimized conformer: 21.716267635818802 kcal/mol)

>  <smiles>  (53) 
C#CCOC(=O)c1ccnc(SCc2ccccc2)n1

>  <score_type>  (53) 
oracle

>  <origin>  (53) 
adg

>  <m_score__min__energy>  (53) 
-7.5

>  <m_primary>  (53) 
energy

$$$$
53:0
     RDKit          3D

 52 56  0  0  0  0  0  0  0  0999 V2000
   60.3630   33.6500   51.9400 O   0  0  0  0  0  0  0  0  0  0  0  0
   59.3470   32.9700   51.6370 C   0  0  0  0  0  0  0  0  0  0  0  0
   58.0910   33.3240   52.2340 N   0  0  0  0  0  0  0  0  0  0  0  0
   57.0640   32.4080   52.7320 C   0  0  0  0  0  0  0  0  0  0  0  0
   56.4560   31.5690   51.6020 C   0  0  0  0  0  0  0  0  0  0  0  0
   55.4040   30.6320   52.1160 C   0  0  0  0  0  0  0  0  0  0  0  0
   55.6150   29.3660   52.6510 C   0  0  0  0  0  0  0  0  0  0  0  0
   54.4340   28.7700   52.9310 N   0  0  0  0  0  0  0  0  0  0  0  0
   53.4810   29.6460   52.5690 C   0  0  0  0  0  0  0  0  0  0  0  0
   52.1010   29.4700   52.6440 C   0  0  0  0  0  0  0  0  0  0  0  0
   51.2790   30.5150   52.1830 C   0  0  0  0  0  0  0  0  0  0  0  0
   51.8480   31.6970   51.6600 C   0  0  0  0  0  0  0  0  0  0  0  0
   51.0220   32.7200   51.2070 O   0  0  0  0  0  0  0  0  0  0  0  0
   53.2460   31.8440   51.5930 C   0  0  0  0  0  0  0  0  0  0  0  0
   54.0330   30.7940   52.0630 C   0  0  0  0  0  0  0  0  0  0  0  0
   59.4910   31.8500   50.6830 C   0  0  0  0  0  0  0  0  0  0  0  0
   59.9840   30.6050   51.1060 C   0  0  0  0  0  0  0  0  0  0  0  0
   60.1080   29.5890   50.2120 N   0  0  0  0  0  0  0  0  0  0  0  0
   59.7510   29.7480   48.9120 C   0  0  0  0  0  0  0  0  0  0  0  0
   59.8860   28.6970   48.0000 C   0  0  0  0  0  0  0  0  0  0  0  0
   59.4950   28.8720   46.6600 C   0  0  0  0  0  0  0  0  0  0  0  0
   59.6500   27.7450   45.6720 C   0  0  0  0  0  0  0  0  0  0  0  0
   58.5310   26.7440   45.8250 C   0  0  0  0  0  0  0  0  0  0  0  0
   58.8160   25.3760   46.0030 C   0  0  0  0  0  0  0  0  0  0  0  0
   60.0980   24.9310   46.0090 F   0  0  0  0  0  0  0  0  0  0  0  0
   57.7770   24.4560   46.1690 C   0  0  0  0  0  0  0  0  0  0  0  0
   56.4480   24.8860   46.1620 C   0  0  0  0  0  0  0  0  0  0  0  0
   56.1540   26.2420   45.9990 C   0  0  0  0  0  0  0  0  0  0  0  0
   54.8310   26.6680   46.0020 O   0  0  0  0  0  0  0  0  0  0  0  0
   57.1880   27.1720   45.8360 C   0  0  0  0  0  0  0  0  0  0  0  0
   56.8820   28.4860   45.6830 F   0  0  0  0  0  0  0  0  0  0  0  0
   58.9760   30.1080   46.2470 C   0  0  0  0  0  0  0  0  0  0  0  0
   58.8470   31.1630   47.1560 C   0  0  0  0  0  0  0  0  0  0  0  0
   59.2360   30.9860   48.4870 C   0  0  0  0  0  0  0  0  0  0  0  0
   59.1190   32.0020   49.3830 N   0  0  0  0  0  0  0  0  0  0  0  0
   57.5174   31.7330   53.4728 H   0  0  0  0  0  0  0  0  0  0  0  0
   56.2603   33.0074   53.1845 H   0  0  0  0  0  0  0  0  0  0  0  0
   56.0023   32.2434   50.8608 H   0  0  0  0  0  0  0  0  0  0  0  0
   57.2588   30.9697   51.1477 H   0  0  0  0  0  0  0  0  0  0  0  0
   56.6028   28.9134   52.8222 H   0  0  0  0  0  0  0  0  0  0  0  0
   54.2930   27.8160   53.3320 H   0  0  0  0  0  0  0  0  0  0  0  0
   51.6680   28.5441   53.0504 H   0  0  0  0  0  0  0  0  0  0  0  0
   50.1850   30.4104   52.2304 H   0  0  0  0  0  0  0  0  0  0  0  0
   53.7024   32.7572   51.1833 H   0  0  0  0  0  0  0  0  0  0  0  0
   60.2689   30.4526   52.1575 H   0  0  0  0  0  0  0  0  0  0  0  0
   60.2984   27.7323   48.3305 H   0  0  0  0  0  0  0  0  0  0  0  0
   59.6312   28.1545   44.6512 H   0  0  0  0  0  0  0  0  0  0  0  0
   60.6072   27.2373   45.8619 H   0  0  0  0  0  0  0  0  0  0  0  0
   58.0068   23.3890   46.3057 H   0  0  0  0  0  0  0  0  0  0  0  0
   55.6332   24.1572   46.2848 H   0  0  0  0  0  0  0  0  0  0  0  0
   58.6682   30.2485   45.2003 H   0  0  0  0  0  0  0  0  0  0  0  0
   58.4404   32.1298   46.8244 H   0  0  0  0  0  0  0  0  0  0  0  0
  1  2  2  0
  2  3  1  0
  3  4  1  0
  4  5  1  0
  5  6  1  0
  6  7  2  0
  7  8  1  0
  8  9  1  0
  9 10  2  0
 10 11  1  0
 11 12  2  0
 12 13  1  0
 12 14  1  0
 14 15  2  0
  2 16  1  0
 16 17  2  0
 17 18  1  0
 18 19  2  0
 19 20  1  0
 20 21  2  0
 21 22  1  0
 22 23  1  0
 23 24  2  0
 24 25  1  0
 24 26  1  0
 26 27  2  0
 27 28  1  0
 28 29  1  0
 28 30  2  0
 30 31  1  0
 21 32  1  0
 32 33  2  0
 33 34  1  0
 34 35  2  0
 15  6  1  0
 35 16  1  0
 15  9  1  0
 34 19  1  0
 30 23  1  0
  4 36  1  0
  4 37  1  0
  5 38  1  0
  5 39  1  0
  7 40  1  0
  8 41  1  0
 10 42  1  0
 11 43  1  0
 14 44  1  0
 17 45  1  0
 20 46  1  0
 22 47  1  0
 22 48  1  0
 26 49  1  0
 27 50  1  0
 32 51  1  0
 33 52  1  0
M  CHG  3   3  -1  13  -1  29  -1
M  END
>  <UniqueID>  (54) 
51

>  <SMILES>  (54) 
O=C([N-]CCc1c[nH]c2ccc([O-])cc12)c1cnc2cc(Cc3c(F)ccc([O-])c3F)ccc2n1

>  <Energy>  (54) 
93.89374973435335

>  <Genealogy>  (54) 
O=C([N-]CCc1c[nH]c2ccc([O-])cc12)c1cnc2cc(Cc3c(F)ccc([O-])c3F)ccc2n1 (protonated)
O=C([N-]CCc1c[nH]c2ccc([O-])cc12)c1cnc2cc(Cc3c(F)ccc([O-])c3F)ccc2n1 (3D coordinates assigned)
O=C([N-]CCc1c[nH]c2ccc([O-])cc12)c1cnc2cc(Cc3c(F)ccc([O-])c3F)ccc2n1 (optimized conformer: 93.89374973435335 kcal/mol)

>  <smiles>  (54) 
O=C(NCCc1c[nH]c2ccc(O)cc12)c1cnc2cc(Cc3c(F)ccc(O)c3F)ccc2n1

>  <score_type>  (54) 
oracle

>  <origin>  (54) 
adg

>  <m_score__min__energy>  (54) 
-17.91

>  <m_primary>  (54) 
energy

$$$$
54:0
     RDKit          3D

 47 49  0  0  0  0  0  0  0  0999 V2000
   59.3500   33.2020   50.5820 C   0  0  0  0  0  0  0  0  0  0  0  0
   59.2190   32.5480   49.3240 O   0  0  0  0  0  0  0  0  0  0  0  0
   59.3030   33.1930   48.0790 C   0  0  0  0  0  0  0  0  0  0  0  0
   58.1560   33.4910   47.3160 C   0  0  0  0  0  0  0  0  0  0  0  0
   58.2780   34.1530   46.0910 C   0  0  0  0  0  0  0  0  0  0  0  0
   59.5350   34.5230   45.6160 C   0  0  0  0  0  0  0  0  0  0  0  0
   60.6790   34.2300   46.3620 C   0  0  0  0  0  0  0  0  0  0  0  0
   60.5710   33.5590   47.5900 C   0  0  0  0  0  0  0  0  0  0  0  0
   61.7560   33.2550   48.3410 N   0  0  0  0  0  0  0  0  0  0  0  0
   62.3750   34.2800   49.1760 C   0  0  0  0  0  0  0  0  0  0  0  0
   62.4840   31.6810   48.2230 S   0  0  0  0  0  0  0  0  0  0  0  0
   63.6150   31.7410   47.2350 O   0  0  0  0  0  0  0  0  0  0  0  0
   63.0220   31.2560   49.5610 O   0  0  0  0  0  0  0  0  0  0  0  0
   61.2710   30.5140   47.7080 C   0  0  0  0  0  0  0  0  0  0  0  0
   61.1430   30.1660   46.3570 C   0  0  0  0  0  0  0  0  0  0  0  0
   60.1780   29.2380   45.9570 C   0  0  0  0  0  0  0  0  0  0  0  0
   59.3240   28.6420   46.9050 C   0  0  0  0  0  0  0  0  0  0  0  0
   58.3000   27.6570   46.4810 C   0  0  0  0  0  0  0  0  0  0  0  0
   58.4310   26.4450   46.8030 O   0  0  0  0  0  0  0  0  0  0  0  0
   57.2180   28.0730   45.6290 N   0  0  0  0  0  0  0  0  0  0  0  0
   57.1400   29.1100   44.8400 C   0  0  0  0  0  0  0  0  0  0  0  0
   57.4010   30.4270   45.2780 C   0  0  0  0  0  0  0  0  0  0  0  0
   57.3040   31.4870   44.3740 C   0  0  0  0  0  0  0  0  0  0  0  0
   56.9610   31.2410   43.0470 C   0  0  0  0  0  0  0  0  0  0  0  0
   56.7280   29.9290   42.6360 C   0  0  0  0  0  0  0  0  0  0  0  0
   56.8270   28.9040   43.5260 N   0  0  0  0  0  0  0  0  0  0  0  0
   59.4630   28.9930   48.2600 C   0  0  0  0  0  0  0  0  0  0  0  0
   60.4310   29.9210   48.6560 C   0  0  0  0  0  0  0  0  0  0  0  0
   59.2038   32.4720   51.3918 H   0  0  0  0  0  0  0  0  0  0  0  0
   60.3544   33.6432   50.6630 H   0  0  0  0  0  0  0  0  0  0  0  0
   58.5931   33.9960   50.6630 H   0  0  0  0  0  0  0  0  0  0  0  0
   57.1613   33.2016   47.6859 H   0  0  0  0  0  0  0  0  0  0  0  0
   57.3791   34.3827   45.5000 H   0  0  0  0  0  0  0  0  0  0  0  0
   59.6262   35.0462   44.6527 H   0  0  0  0  0  0  0  0  0  0  0  0
   61.6691   34.5265   45.9853 H   0  0  0  0  0  0  0  0  0  0  0  0
   62.2238   34.0297   50.2364 H   0  0  0  0  0  0  0  0  0  0  0  0
   63.4526   34.3271   48.9604 H   0  0  0  0  0  0  0  0  0  0  0  0
   61.9150   35.2557   48.9604 H   0  0  0  0  0  0  0  0  0  0  0  0
   61.8049   30.6252   45.6080 H   0  0  0  0  0  0  0  0  0  0  0  0
   60.0847   28.9711   44.8940 H   0  0  0  0  0  0  0  0  0  0  0  0
   57.6791   30.6168   46.3252 H   0  0  0  0  0  0  0  0  0  0  0  0
   57.4985   32.5162   44.7101 H   0  0  0  0  0  0  0  0  0  0  0  0
   56.8749   32.0719   42.3313 H   0  0  0  0  0  0  0  0  0  0  0  0
   56.4632   29.7217   41.5887 H   0  0  0  0  0  0  0  0  0  0  0  0
   56.6460   27.9320   43.1850 H   0  0  0  0  0  0  0  0  0  0  0  0
   58.8056   28.5343   49.0133 H   0  0  0  0  0  0  0  0  0  0  0  0
   60.5324   30.1861   49.7188 H   0  0  0  0  0  0  0  0  0  0  0  0
  1  2  1  0
  2  3  1  0
  3  4  2  0
  4  5  1  0
  5  6  2  0
  6  7  1  0
  7  8  2  0
  8  9  1  0
  9 10  1  0
  9 11  1  0
 11 12  2  0
 11 13  2  0
 11 14  1  0
 14 15  2  0
 15 16  1  0
 16 17  2  0
 17 18  1  0
 18 19  2  0
 18 20  1  0
 20 21  2  3
 21 22  1  0
 22 23  2  0
 23 24  1  0
 24 25  2  0
 25 26  1  0
 17 27  1  0
 27 28  2  0
  8  3  1  0
 28 14  1  0
 26 21  1  0
  1 29  1  0
  1 30  1  0
  1 31  1  0
  4 32  1  0
  5 33  1  0
  6 34  1  0
  7 35  1  0
 10 36  1  0
 10 37  1  0
 10 38  1  0
 15 39  1  0
 16 40  1  0
 22 41  1  0
 23 42  1  0
 24 43  1  0
 25 44  1  0
 26 45  1  0
 27 46  1  0
 28 47  1  0
M  END
>  <UniqueID>  (55) 
52

>  <SMILES>  (55) 
COc1ccccc1N(C)S(=O)(=O)c1ccc(C(=O)N=c2cccc[nH]2)cc1

>  <Energy>  (55) 
63.01902888755641

>  <Genealogy>  (55) 
COc1ccccc1N(C)S(=O)(=O)c1ccc(C(=O)N=c2cccc[nH]2)cc1 (3D coordinates assigned)
COc1ccccc1N(C)S(=O)(=O)c1ccc(C(=O)N=c2cccc[nH]2)cc1 (optimized conformer: 63.01902888755641 kcal/mol)

>  <smiles>  (55) 
COc1ccccc1N(C)S(=O)(=O)c1ccc(C(=O)N=c2cccc[nH]2)cc1

>  <score_type>  (55) 
oracle

>  <origin>  (55) 
adg

>  <m_score__min__energy>  (55) 
-9.5199999999999996

>  <m_primary>  (55) 
energy

$$$$
55:0
     RDKit          3D

 48 50  0  0  0  0  0  0  0  0999 V2000
   57.3440   25.9550   44.2580 N   0  0  0  0  0  0  0  0  0  0  0  0
   56.9740   26.8840   45.6680 S   0  0  0  0  0  0  0  0  0  0  0  0
   55.5170   26.7250   46.0100 O   0  0  0  0  0  0  0  0  0  0  0  0
   57.7960   26.3890   46.8240 O   0  0  0  0  0  0  0  0  0  0  0  0
   57.3330   28.5790   45.3600 C   0  0  0  0  0  0  0  0  0  0  0  0
   58.2940   29.2480   46.1300 C   0  0  0  0  0  0  0  0  0  0  0  0
   58.5620   30.6030   45.9040 C   0  0  0  0  0  0  0  0  0  0  0  0
   57.8580   31.3050   44.9090 C   0  0  0  0  0  0  0  0  0  0  0  0
   58.1240   32.6860   44.6280 N   0  0  0  0  0  0  0  0  0  0  0  0
   58.0290   33.7680   45.5620 C   0  0  0  0  0  0  0  0  0  0  0  0
   56.9900   34.4810   45.6170 O   0  0  0  0  0  0  0  0  0  0  0  0
   59.1930   34.0840   46.4470 C   0  0  0  0  0  0  0  0  0  0  0  0
   60.2420   33.0760   46.2910 N   0  0  0  0  0  0  0  0  0  0  0  0
   61.4740   33.0670   47.0430 C   0  0  0  0  0  0  0  0  0  0  0  0
   62.5840   33.8280   46.6230 C   0  0  0  0  0  0  0  0  0  0  0  0
   63.7670   33.8320   47.3670 C   0  0  0  0  0  0  0  0  0  0  0  0
   63.8590   33.0820   48.5390 C   0  0  0  0  0  0  0  0  0  0  0  0
   62.7710   32.3230   48.9700 C   0  0  0  0  0  0  0  0  0  0  0  0
   61.5810   32.3030   48.2290 C   0  0  0  0  0  0  0  0  0  0  0  0
   60.5000   31.4790   48.6860 N   0  0  0  0  0  0  0  0  0  0  0  0
   60.5470   30.0300   48.4840 C   0  0  0  0  0  0  0  0  0  0  0  0
   59.7810   29.3340   49.6150 C   0  0  0  0  0  0  0  0  0  0  0  0
   58.4830   29.8820   49.7510 O   0  0  0  0  0  0  0  0  0  0  0  0
   58.5710   31.2300   50.1740 C   0  0  0  0  0  0  0  0  0  0  0  0
   59.2400   32.0960   49.1010 C   0  0  0  0  0  0  0  0  0  0  0  0
   56.9100   30.6290   44.1300 C   0  0  0  0  0  0  0  0  0  0  0  0
   56.6410   29.2760   44.3600 C   0  0  0  0  0  0  0  0  0  0  0  0
   56.5330   25.3170   44.0890 H   0  0  0  0  0  0  0  0  0  0  0  0
   57.3680   26.6200   43.4530 H   0  0  0  0  0  0  0  0  0  0  0  0
   58.8403   28.7056   46.9157 H   0  0  0  0  0  0  0  0  0  0  0  0
   59.3244   31.1197   46.5055 H   0  0  0  0  0  0  0  0  0  0  0  0
   59.5961   35.0712   46.1767 H   0  0  0  0  0  0  0  0  0  0  0  0
   58.8545   34.0870   47.4936 H   0  0  0  0  0  0  0  0  0  0  0  0
   60.0810   32.3390   45.5700 H   0  0  0  0  0  0  0  0  0  0  0  0
   62.5183   34.4243   45.7010 H   0  0  0  0  0  0  0  0  0  0  0  0
   64.6271   34.4278   47.0275 H   0  0  0  0  0  0  0  0  0  0  0  0
   64.7904   33.0889   49.1241 H   0  0  0  0  0  0  0  0  0  0  0  0
   62.8472   31.7363   49.8974 H   0  0  0  0  0  0  0  0  0  0  0  0
   60.0842   29.7787   47.5182 H   0  0  0  0  0  0  0  0  0  0  0  0
   61.5938   29.6921   48.4865 H   0  0  0  0  0  0  0  0  0  0  0  0
   59.6980   28.2609   49.3879 H   0  0  0  0  0  0  0  0  0  0  0  0
   60.3286   29.4833   50.5573 H   0  0  0  0  0  0  0  0  0  0  0  0
   57.5584   31.6139   50.3672 H   0  0  0  0  0  0  0  0  0  0  0  0
   59.1786   31.2725   51.0899 H   0  0  0  0  0  0  0  0  0  0  0  0
   58.5715   32.1830   48.2318 H   0  0  0  0  0  0  0  0  0  0  0  0
   59.4416   33.0959   49.5127 H   0  0  0  0  0  0  0  0  0  0  0  0
   56.3742   31.1654   43.3330 H   0  0  0  0  0  0  0  0  0  0  0  0
   55.8837   28.7570   43.7540 H   0  0  0  0  0  0  0  0  0  0  0  0
  1  2  1  0
  2  3  2  0
  2  4  2  0
  2  5  1  0
  5  6  2  0
  6  7  1  0
  7  8  2  0
  8  9  1  0
  9 10  1  0
 10 11  2  0
 10 12  1  0
 12 13  1  0
 13 14  1  0
 14 15  2  0
 15 16  1  0
 16 17  2  0
 17 18  1  0
 18 19  2  0
 19 20  1  0
 20 21  1  0
 21 22  1  0
 22 23  1  0
 23 24  1  0
 24 25  1  0
  8 26  1  0
 26 27  2  0
 27  5  1  0
 19 14  1  0
 25 20  1  0
  1 28  1  0
  1 29  1  0
  6 30  1  0
  7 31  1  0
 12 32  1  0
 12 33  1  0
 13 34  1  0
 15 35  1  0
 16 36  1  0
 17 37  1  0
 18 38  1  0
 21 39  1  0
 21 40  1  0
 22 41  1  0
 22 42  1  0
 24 43  1  0
 24 44  1  0
 25 45  1  0
 25 46  1  0
 26 47  1  0
 27 48  1  0
M  CHG  1   9  -1
M  END
>  <UniqueID>  (56) 
53

>  <SMILES>  (56) 
NS(=O)(=O)c1ccc([N-]C(=O)CNc2ccccc2N2CCOCC2)cc1

>  <Energy>  (56) 
57.095180740139455

>  <Genealogy>  (56) 
NS(=O)(=O)c1ccc([N-]C(=O)CNc2ccccc2N2CCOCC2)cc1 (protonated)
NS(=O)(=O)c1ccc([N-]C(=O)CNc2ccccc2N2CCOCC2)cc1 (3D coordinates assigned)
NS(=O)(=O)c1ccc([N-]C(=O)CNc2ccccc2N2CCOCC2)cc1 (nonaromatic ring conformer: 57.095180740139455 kcal/mol)

>  <smiles>  (56) 
NS(=O)(=O)c1ccc(NC(=O)CNc2ccccc2N2CCOCC2)cc1

>  <score_type>  (56) 
oracle

>  <origin>  (56) 
adg

>  <m_score__min__energy>  (56) 
-10.58

>  <m_primary>  (56) 
energy

$$$$
56:0
     RDKit          3D

 35 36  0  0  0  0  0  0  0  0999 V2000
   55.1410   28.6040   45.6190 H   0  0  0  0  0  0  0  0  0  0  0  0
   55.2970   29.3190   44.8730 N   0  0  0  0  0  0  0  0  0  0  0  0
   56.9860   29.6860   44.8710 S   0  0  0  0  0  0  0  0  0  0  0  0
   57.1930   31.1310   45.2280 O   0  0  0  0  0  0  0  0  0  0  0  0
   57.5290   29.4480   43.4900 O   0  0  0  0  0  0  0  0  0  0  0  0
   57.8170   28.6600   46.0470 C   0  0  0  0  0  0  0  0  0  0  0  0
   58.9310   29.1700   46.7350 C   0  0  0  0  0  0  0  0  0  0  0  0
   59.2573   30.2039   46.5490 H   0  0  0  0  0  0  0  0  0  0  0  0
   59.6340   28.3760   47.6580 C   0  0  0  0  0  0  0  0  0  0  0  0
   60.7930   28.8560   48.3530 N   0  0  0  0  0  0  0  0  0  0  0  0
   61.1280   30.5210   48.7010 S   0  0  0  0  0  0  0  0  0  0  0  0
   61.1530   31.2960   47.4140 O   0  0  0  0  0  0  0  0  0  0  0  0
   62.4680   30.6270   49.3740 O   0  0  0  0  0  0  0  0  0  0  0  0
   59.8660   31.1670   49.7380 C   0  0  0  0  0  0  0  0  0  0  0  0
   59.9356   31.0322   50.8275 H   0  0  0  0  0  0  0  0  0  0  0  0
   58.8230   31.8200   49.2190 C   0  0  0  0  0  0  0  0  0  0  0  0
   57.8143   31.5486   49.5638 H   0  0  0  0  0  0  0  0  0  0  0  0
   58.9530   32.8910   48.2030 C   0  0  0  0  0  0  0  0  0  0  0  0
   59.9900   33.8300   48.3420 C   0  0  0  0  0  0  0  0  0  0  0  0
   60.6906   33.7489   49.1861 H   0  0  0  0  0  0  0  0  0  0  0  0
   60.1370   34.8660   47.4150 C   0  0  0  0  0  0  0  0  0  0  0  0
   60.9576   35.5899   47.5268 H   0  0  0  0  0  0  0  0  0  0  0  0
   59.2450   34.9840   46.3480 C   0  0  0  0  0  0  0  0  0  0  0  0
   59.3653   35.7980   45.6180 H   0  0  0  0  0  0  0  0  0  0  0  0
   58.1990   34.0680   46.2070 C   0  0  0  0  0  0  0  0  0  0  0  0
   57.0650   34.2310   44.8780 Cl  0  0  0  0  0  0  0  0  0  0  0  0
   58.0480   33.0280   47.1310 C   0  0  0  0  0  0  0  0  0  0  0  0
   57.2188   32.3137   47.0202 H   0  0  0  0  0  0  0  0  0  0  0  0
   59.2000   27.0700   47.9040 C   0  0  0  0  0  0  0  0  0  0  0  0
   59.7368   26.4440   48.6320 H   0  0  0  0  0  0  0  0  0  0  0  0
   58.0900   26.5550   47.2320 C   0  0  0  0  0  0  0  0  0  0  0  0
   57.7584   25.5263   47.4364 H   0  0  0  0  0  0  0  0  0  0  0  0
   57.3960   27.3340   46.3020 C   0  0  0  0  0  0  0  0  0  0  0  0
   56.3010   26.7600   45.6520 O   0  0  0  0  0  0  0  0  0  0  0  0
   55.8250   27.1950   44.8730 H   0  0  0  0  0  0  0  0  0  0  0  0
  1  2  1  0
  2  3  1  0
  3  4  2  0
  3  5  2  0
  3  6  1  0
  6  7  2  0
  7  8  1  0
  7  9  1  0
  9 10  1  0
 10 11  1  0
 11 12  2  0
 11 13  2  0
 11 14  1  0
 14 15  1  0
 14 16  2  0
 16 17  1  0
 16 18  1  0
 18 19  2  0
 19 20  1  0
 19 21  1  0
 21 22  1  0
 21 23  2  0
 23 24  1  0
 23 25  1  0
 25 26  1  0
 25 27  2  0
 27 28  1  0
  9 29  2  0
 29 30  1  0
 29 31  1  0
 31 32  1  0
 31 33  2  0
 33 34  1  0
 34 35  1  0
 33  6  1  0
 27 18  1  0
M  CHG  2   2  -1  10  -1
M  END
>  <UniqueID>  (57) 
54

>  <SMILES>  (57) 
[NH-]S(=O)(=O)c1cc([N-]S(=O)(=O)/C=C/c2cccc(Cl)c2)ccc1O

>  <Energy>  (57) 
41.30271948985299

>  <Genealogy>  (57) 
[NH-]S(=O)(=O)c1cc([N-]S(=O)(=O)C=Cc2cccc(Cl)c2)ccc1O (protonated)
[NH-]S(=O)(=O)c1cc([N-]S(=O)(=O)/C=C/c2cccc(Cl)c2)ccc1O (cis-trans isomerization)
[NH-]S(=O)(=O)c1cc([N-]S(=O)(=O)/C=C/c2cccc(Cl)c2)ccc1O (3D coordinates assigned)
[NH-]S(=O)(=O)c1cc([N-]S(=O)(=O)/C=C/c2cccc(Cl)c2)ccc1O (optimized conformer: 41.30271948985299 kcal/mol)

>  <smiles>  (57) 
NS(=O)(=O)c1cc(NS(=O)(=O)C=Cc2cccc(Cl)c2)ccc1O

>  <score_type>  (57) 
oracle

>  <origin>  (57) 
adg

>  <m_score__min__energy>  (57) 
-12.69

>  <m_primary>  (57) 
energy

$$$$
57:0
     RDKit          3D

 30 31  0  0  0  0  0  0  0  0999 V2000
   54.8060   26.1970   45.9190 N   0  0  0  0  0  0  0  0  0  0  0  0
   56.4620   25.7050   45.8610 S   0  0  0  0  0  0  0  0  0  0  0  0
   56.8430   25.0550   47.1610 O   0  0  0  0  0  0  0  0  0  0  0  0
   56.6390   24.7060   44.7500 O   0  0  0  0  0  0  0  0  0  0  0  0
   57.4810   27.1130   45.5840 C   0  0  0  0  0  0  0  0  0  0  0  0
   58.8640   26.9780   45.4110 C   0  0  0  0  0  0  0  0  0  0  0  0
   59.6550   28.1060   45.1780 C   0  0  0  0  0  0  0  0  0  0  0  0
   59.0650   29.3710   45.0940 C   0  0  0  0  0  0  0  0  0  0  0  0
   57.6800   29.5160   45.2370 C   0  0  0  0  0  0  0  0  0  0  0  0
   57.1040   30.8250   45.1190 N   0  0  0  0  0  0  0  0  0  0  0  0
   57.6990   31.9640   44.4790 C   0  0  0  0  0  0  0  0  0  0  0  0
   57.6570   32.0420   43.2230 O   0  0  0  0  0  0  0  0  0  0  0  0
   58.3380   33.0580   45.2480 C   0  0  0  0  0  0  0  0  0  0  0  0
   58.6770   34.2500   44.5860 C   0  0  0  0  0  0  0  0  0  0  0  0
   59.3250   35.2790   45.2700 C   0  0  0  0  0  0  0  0  0  0  0  0
   59.6330   35.1350   46.6230 C   0  0  0  0  0  0  0  0  0  0  0  0
   59.2820   33.9670   47.3070 C   0  0  0  0  0  0  0  0  0  0  0  0
   59.6880   33.8440   49.0130 Cl  0  0  0  0  0  0  0  0  0  0  0  0
   58.6170   32.9250   46.6260 C   0  0  0  0  0  0  0  0  0  0  0  0
   58.2150   31.7700   47.3010 O   0  0  0  0  0  0  0  0  0  0  0  0
   56.8940   28.3830   45.5140 C   0  0  0  0  0  0  0  0  0  0  0  0
   54.7690   27.0830   46.4710 H   0  0  0  0  0  0  0  0  0  0  0  0
   59.3286   25.9821   45.4586 H   0  0  0  0  0  0  0  0  0  0  0  0
   60.7434   27.9988   45.0605 H   0  0  0  0  0  0  0  0  0  0  0  0
   59.6923   30.2566   44.9147 H   0  0  0  0  0  0  0  0  0  0  0  0
   58.4298   34.3728   43.5212 H   0  0  0  0  0  0  0  0  0  0  0  0
   59.5935   36.2056   44.7415 H   0  0  0  0  0  0  0  0  0  0  0  0
   60.1547   35.9445   47.1545 H   0  0  0  0  0  0  0  0  0  0  0  0
   57.6830   31.0300   46.8600 H   0  0  0  0  0  0  0  0  0  0  0  0
   55.8119   28.4948   45.6766 H   0  0  0  0  0  0  0  0  0  0  0  0
  1  2  1  0
  2  3  2  0
  2  4  2  0
  2  5  1  0
  5  6  2  0
  6  7  1  0
  7  8  2  0
  8  9  1  0
  9 10  1  0
 10 11  1  0
 11 12  2  0
 11 13  1  0
 13 14  2  0
 14 15  1  0
 15 16  2  0
 16 17  1  0
 17 18  1  0
 17 19  2  0
 19 20  1  0
  9 21  2  0
 21  5  1  0
 19 13  1  0
  1 22  1  0
  6 23  1  0
  7 24  1  0
  8 25  1  0
 14 26  1  0
 15 27  1  0
 16 28  1  0
 20 29  1  0
 21 30  1  0
M  CHG  2   1  -1  10  -1
M  END
>  <UniqueID>  (58) 
55

>  <SMILES>  (58) 
[NH-]S(=O)(=O)c1cccc([N-]C(=O)c2cccc(Cl)c2O)c1

>  <Energy>  (58) 
38.63644418879169

>  <Genealogy>  (58) 
[NH-]S(=O)(=O)c1cccc([N-]C(=O)c2cccc(Cl)c2O)c1 (protonated)
[NH-]S(=O)(=O)c1cccc([N-]C(=O)c2cccc(Cl)c2O)c1 (3D coordinates assigned)
[NH-]S(=O)(=O)c1cccc([N-]C(=O)c2cccc(Cl)c2O)c1 (optimized conformer: 38.63644418879169 kcal/mol)

>  <smiles>  (58) 
NS(=O)(=O)c1cccc(NC(=O)c2cccc(Cl)c2O)c1

>  <score_type>  (58) 
oracle

>  <origin>  (58) 
adg

>  <m_score__min__energy>  (58) 
-12.029999999999999

>  <m_primary>  (58) 
energy

$$$$
58:0
     RDKit          3D

 39 40  0  0  0  0  0  0  0  0999 V2000
   60.3100   30.2250   46.1000 N   0  0  0  0  0  0  0  0  0  0  0  0
   59.7070   28.9020   46.2350 C   0  0  0  0  0  0  0  0  0  0  0  0
   59.6350   28.2140   44.8660 C   0  0  0  0  0  0  0  0  0  0  0  0
   58.1930   28.0070   44.3690 C   0  0  0  0  0  0  0  0  0  0  0  0
   57.3670   29.2990   44.2160 C   0  0  0  0  0  0  0  0  0  0  0  0
   58.1870   30.4310   43.7450 N   0  0  0  0  0  0  0  0  0  0  0  0
   57.4370   31.6980   43.7770 C   0  0  0  0  0  0  0  0  0  0  0  0
   58.0780   32.6960   44.6970 C   0  0  0  0  0  0  0  0  0  0  0  0
   57.6460   33.9870   44.9140 C   0  0  0  0  0  0  0  0  0  0  0  0
   58.5500   34.5410   45.7940 C   0  0  0  0  0  0  0  0  0  0  0  0
   59.4830   33.5490   46.0580 C   0  0  0  0  0  0  0  0  0  0  0  0
   60.6660   33.6480   46.9430 C   0  0  0  0  0  0  0  0  0  0  0  0
   61.9540   33.4820   46.4030 C   0  0  0  0  0  0  0  0  0  0  0  0
   63.0840   33.5710   47.2210 C   0  0  0  0  0  0  0  0  0  0  0  0
   62.9420   33.8280   48.5860 C   0  0  0  0  0  0  0  0  0  0  0  0
   61.6700   33.9950   49.1350 C   0  0  0  0  0  0  0  0  0  0  0  0
   60.5350   33.9060   48.3220 C   0  0  0  0  0  0  0  0  0  0  0  0
   59.1700   32.4630   45.3860 O   0  0  0  0  0  0  0  0  0  0  0  0
   60.1560   30.5450   45.1170 H   0  0  0  0  0  0  0  0  0  0  0  0
   59.7840   30.8890   46.7140 H   0  0  0  0  0  0  0  0  0  0  0  0
   60.3171   28.2919   46.9173 H   0  0  0  0  0  0  0  0  0  0  0  0
   58.6892   29.0094   46.6382 H   0  0  0  0  0  0  0  0  0  0  0  0
   60.1719   28.8348   44.1336 H   0  0  0  0  0  0  0  0  0  0  0  0
   60.0903   27.2186   44.9750 H   0  0  0  0  0  0  0  0  0  0  0  0
   58.2377   27.5119   43.3877 H   0  0  0  0  0  0  0  0  0  0  0  0
   57.6854   27.4058   45.1377 H   0  0  0  0  0  0  0  0  0  0  0  0
   56.5600   29.1199   43.4903 H   0  0  0  0  0  0  0  0  0  0  0  0
   56.9642   29.5619   45.2053 H   0  0  0  0  0  0  0  0  0  0  0  0
   58.4810   30.2530   42.7570 H   0  0  0  0  0  0  0  0  0  0  0  0
   59.0440   30.5290   44.3360 H   0  0  0  0  0  0  0  0  0  0  0  0
   57.4035   32.1188   42.7612 H   0  0  0  0  0  0  0  0  0  0  0  0
   56.4232   31.4886   44.1489 H   0  0  0  0  0  0  0  0  0  0  0  0
   56.7625   34.4740   44.4754 H   0  0  0  0  0  0  0  0  0  0  0  0
   58.5349   35.5618   46.2036 H   0  0  0  0  0  0  0  0  0  0  0  0
   62.0731   33.2805   45.3282 H   0  0  0  0  0  0  0  0  0  0  0  0
   64.0867   33.4383   46.7886 H   0  0  0  0  0  0  0  0  0  0  0  0
   63.8322   33.8988   49.2282 H   0  0  0  0  0  0  0  0  0  0  0  0
   61.5594   34.1973   50.2106 H   0  0  0  0  0  0  0  0  0  0  0  0
   59.5353   34.0381   48.7615 H   0  0  0  0  0  0  0  0  0  0  0  0
  1  2  1  0
  2  3  1  0
  3  4  1  0
  4  5  1  0
  5  6  1  0
  6  7  1  0
  7  8  1  0
  8  9  2  0
  9 10  1  0
 10 11  2  0
 11 12  1  0
 12 13  2  0
 13 14  1  0
 14 15  2  0
 15 16  1  0
 16 17  2  0
 11 18  1  0
 18  8  1  0
 17 12  1  0
  1 19  1  0
  1 20  1  0
  2 21  1  0
  2 22  1  0
  3 23  1  0
  3 24  1  0
  4 25  1  0
  4 26  1  0
  5 27  1  0
  5 28  1  0
  6 29  1  0
  6 30  1  0
  7 31  1  0
  7 32  1  0
  9 33  1  0
 10 34  1  0
 13 35  1  0
 14 36  1  0
 15 37  1  0
 16 38  1  0
 17 39  1  0
M  CHG  1   6   1
M  END
>  <UniqueID>  (59) 
56

>  <SMILES>  (59) 
NCCCC[NH2+]Cc1ccc(-c2ccccc2)o1

>  <Energy>  (59) 
58.52916786206764

>  <Genealogy>  (59) 
NCCCC[NH2+]Cc1ccc(-c2ccccc2)o1 (protonated)
NCCCC[NH2+]Cc1ccc(-c2ccccc2)o1 (3D coordinates assigned)
NCCCC[NH2+]Cc1ccc(-c2ccccc2)o1 (optimized conformer: 58.52916786206764 kcal/mol)

>  <smiles>  (59) 
NCCCCNCc1ccc(-c2ccccc2)o1

>  <score_type>  (59) 
oracle

>  <origin>  (59) 
adg

>  <m_score__min__energy>  (59) 
-6.5700000000000003

>  <m_primary>  (59) 
energy

$$$$
59:0
     RDKit          3D

 41 44  0  0  0  0  0  0  0  0999 V2000
   61.5701   26.8642   46.7502 H   0  0  0  0  0  0  0  0  0  0  0  0
   60.4790   26.7580   46.6590 C   0  0  0  0  0  0  0  0  0  0  0  0
   59.8300   25.6370   46.2900 N   0  0  0  0  0  0  0  0  0  0  0  0
   58.5330   25.9090   46.2770 N   0  0  0  0  0  0  0  0  0  0  0  0
   57.5010   24.9240   45.9670 C   0  0  0  0  0  0  0  0  0  0  0  0
   57.8982   23.9143   46.1478 H   0  0  0  0  0  0  0  0  0  0  0  0
   57.2100   25.0334   44.9119 H   0  0  0  0  0  0  0  0  0  0  0  0
   56.2700   25.1450   46.8450 C   0  0  0  0  0  0  0  0  0  0  0  0
   56.4952   25.9087   47.6040 H   0  0  0  0  0  0  0  0  0  0  0  0
   56.0017   24.1994   47.3388 H   0  0  0  0  0  0  0  0  0  0  0  0
   55.1830   25.5810   46.0470 O   0  0  0  0  0  0  0  0  0  0  0  0
   54.6700   24.5150   45.2800 C   0  0  0  0  0  0  0  0  0  0  0  0
   54.2919   23.7294   45.9507 H   0  0  0  0  0  0  0  0  0  0  0  0
   53.8496   24.8814   44.6454 H   0  0  0  0  0  0  0  0  0  0  0  0
   55.4682   24.1025   44.6454 H   0  0  0  0  0  0  0  0  0  0  0  0
   58.3190   27.1860   46.6450 C   0  0  0  0  0  0  0  0  0  0  0  0
   57.3429   27.6869   46.7248 H   0  0  0  0  0  0  0  0  0  0  0  0
   59.5540   27.7510   46.9040 C   0  0  0  0  0  0  0  0  0  0  0  0
   56.6560   31.1880   44.7180 N   0  0  0  0  0  0  0  0  0  0  0  0
   57.6580   31.3130   45.5420 C   0  0  0  0  0  0  0  0  0  0  0  0
   58.2630   30.1770   45.9910 N   0  0  0  0  0  0  0  0  0  0  0  0
   59.3220   30.1970   46.8560 C   0  0  0  0  0  0  0  0  0  0  0  0
   59.8750   29.1000   47.2840 N   0  0  0  0  0  0  0  0  0  0  0  0
   56.0750   29.9670   44.1750 C   0  0  0  0  0  0  0  0  0  0  0  0
   55.2056   29.9005   44.8456 H   0  0  0  0  0  0  0  0  0  0  0  0
   57.1400   29.0150   43.6610 C   0  0  0  0  0  0  0  0  0  0  0  0
   58.2046   29.2676   43.7741 H   0  0  0  0  0  0  0  0  0  0  0  0
   57.3755   27.9522   43.8192 H   0  0  0  0  0  0  0  0  0  0  0  0
   56.2750   29.7900   42.6810 C   0  0  0  0  0  0  0  0  0  0  0  0
   56.7134   30.6036   42.0845 H   0  0  0  0  0  0  0  0  0  0  0  0
   55.6248   29.5207   41.8356 H   0  0  0  0  0  0  0  0  0  0  0  0
   58.1790   32.5370   46.0180 C   0  0  0  0  0  0  0  0  0  0  0  0
   59.2130   32.5080   46.8700 N   0  0  0  0  0  0  0  0  0  0  0  0
   59.7920   31.3930   47.3010 N   0  0  0  0  0  0  0  0  0  0  0  0
   59.5190   33.7790   47.1650 C   0  0  0  0  0  0  0  0  0  0  0  0
   60.5760   34.2010   48.0450 C   0  0  0  0  0  0  0  0  0  0  0  0
   61.4260   34.5400   48.7530 N   0  0  0  0  0  0  0  0  0  0  0  0
   58.6450   34.5900   46.4670 C   0  0  0  0  0  0  0  0  0  0  0  0
   58.6340   35.6896   46.4927 H   0  0  0  0  0  0  0  0  0  0  0  0
   57.8040   33.8110   45.7460 N   0  0  0  0  0  0  0  0  0  0  0  0
   57.0520   34.1720   45.1250 H   0  0  0  0  0  0  0  0  0  0  0  0
  1  2  1  0
  2  3  2  0
  3  4  1  0
  4  5  1  0
  5  6  1  0
  5  7  1  0
  5  8  1  0
  8  9  1  0
  8 10  1  0
  8 11  1  0
 11 12  1  0
 12 13  1  0
 12 14  1  0
 12 15  1  0
  4 16  1  0
 16 17  1  0
 16 18  2  0
 18 19  1  0
 19 20  2  0
 20 21  1  0
 21 22  1  0
 22 23  2  0
 23 24  1  0
 24 25  1  0
 24 26  1  0
 26 27  1  0
 26 28  1  0
 26 29  1  0
 29 30  1  0
 29 31  1  0
 22 32  1  0
 32 33  1  0
 33 34  1  0
 33 35  1  0
 35 36  1  0
 36 37  3  0
 35 38  2  0
 38 39  1  0
 38 40  1  0
 40 41  1  0
 18  2  1  0
 34 20  1  0
 29 24  1  0
 40 32  2  0
M  CHG  3  21  -1  34  -1  40   1
M  END
>  <UniqueID>  (60) 
57

>  <SMILES>  (60) 
COCCn1cc(/N=c2\[n-]/c(=N/C3CC3)c3[nH+]cc(C#N)n3[n-]2)cn1

>  <Energy>  (60) 
386.8745080192935

>  <Genealogy>  (60) 
COCCn1cc(N=c2[n-]c(=NC3CC3)c3[nH+]cc(C#N)n3[n-]2)cn1 (protonated)
COCCn1cc(/N=c2\[n-]/c(=N/C3CC3)c3[nH+]cc(C#N)n3[n-]2)cn1 (cis-trans isomerization)
COCCn1cc(/N=c2\[n-]/c(=N/C3CC3)c3[nH+]cc(C#N)n3[n-]2)cn1 (3D coordinates assigned)
COCCn1cc(/N=c2\[n-]/c(=N/C3CC3)c3[nH+]cc(C#N)n3[n-]2)cn1 (nonaromatic ring conformer: 386.8745080192935 kcal/mol)

>  <smiles>  (60) 
COCCn1cc(N=c2[nH]c(=NC3CC3)c3ncc(C#N)n3[nH]2)cn1

>  <score_type>  (60) 
oracle

>  <origin>  (60) 
adg

>  <m_score__min__energy>  (60) 
-8.7799999999999994

>  <m_primary>  (60) 
energy

$$$$
60:0
     RDKit          3D

 39 41  0  0  0  0  0  0  0  0999 V2000
   56.1910   30.3560   43.6000 C   0  0  0  0  0  0  0  0  0  0  0  0
   56.7080   30.1070   44.9060 O   0  0  0  0  0  0  0  0  0  0  0  0
   57.6760   29.1270   45.0890 C   0  0  0  0  0  0  0  0  0  0  0  0
   57.8040   28.1040   44.1480 C   0  0  0  0  0  0  0  0  0  0  0  0
   58.7600   27.1620   44.3560 C   0  0  0  0  0  0  0  0  0  0  0  0
   59.6050   27.1550   45.4320 C   0  0  0  0  0  0  0  0  0  0  0  0
   59.4710   28.1680   46.3560 C   0  0  0  0  0  0  0  0  0  0  0  0
   60.3850   28.1660   47.5320 C   0  0  0  0  0  0  0  0  0  0  0  0
   58.5200   29.1560   46.2030 C   0  0  0  0  0  0  0  0  0  0  0  0
   58.3520   30.2580   47.1800 C   0  0  0  0  0  0  0  0  0  0  0  0
   59.2830   31.3710   46.9640 C   0  0  0  0  0  0  0  0  0  0  0  0
   60.5990   31.3620   47.3880 C   0  0  0  0  0  0  0  0  0  0  0  0
   61.2140   32.5120   47.0530 N   0  0  0  0  0  0  0  0  0  0  0  0
   62.5820   32.9120   47.3070 C   0  0  0  0  0  0  0  0  0  0  0  0
   60.2970   33.2540   46.4170 C   0  0  0  0  0  0  0  0  0  0  0  0
   60.3760   34.4810   45.8730 N   0  0  0  0  0  0  0  0  0  0  0  0
   59.2990   35.0400   45.2680 C   0  0  0  0  0  0  0  0  0  0  0  0
   58.1390   34.3620   45.2110 N   0  0  0  0  0  0  0  0  0  0  0  0
   57.9970   33.1170   45.7440 C   0  0  0  0  0  0  0  0  0  0  0  0
   56.8590   32.5760   45.6330 N   0  0  0  0  0  0  0  0  0  0  0  0
   59.1090   32.5890   46.3450 C   0  0  0  0  0  0  0  0  0  0  0  0
   55.2027   30.8320   43.6815 H   0  0  0  0  0  0  0  0  0  0  0  0
   56.8756   31.0232   43.0557 H   0  0  0  0  0  0  0  0  0  0  0  0
   56.0961   29.4048   43.0557 H   0  0  0  0  0  0  0  0  0  0  0  0
   57.1501   28.0620   43.2644 H   0  0  0  0  0  0  0  0  0  0  0  0
   58.8610   26.3558   43.6144 H   0  0  0  0  0  0  0  0  0  0  0  0
   60.3643   26.3686   45.5549 H   0  0  0  0  0  0  0  0  0  0  0  0
   59.7912   28.1673   48.4579 H   0  0  0  0  0  0  0  0  0  0  0  0
   61.0175   27.2665   47.5033 H   0  0  0  0  0  0  0  0  0  0  0  0
   61.0214   29.0628   47.5033 H   0  0  0  0  0  0  0  0  0  0  0  0
   57.3242   30.6418   47.1002 H   0  0  0  0  0  0  0  0  0  0  0  0
   58.5635   29.8448   48.1773 H   0  0  0  0  0  0  0  0  0  0  0  0
   61.0777   30.5299   47.9251 H   0  0  0  0  0  0  0  0  0  0  0  0
   62.7538   32.9622   48.3923 H   0  0  0  0  0  0  0  0  0  0  0  0
   63.2679   32.1768   46.8608 H   0  0  0  0  0  0  0  0  0  0  0  0
   62.7637   33.9009   46.8608 H   0  0  0  0  0  0  0  0  0  0  0  0
   59.3738   36.0443   44.8255 H   0  0  0  0  0  0  0  0  0  0  0  0
   57.3470   34.8440   44.7350 H   0  0  0  0  0  0  0  0  0  0  0  0
   56.6290   31.5940   45.6190 H   0  0  0  0  0  0  0  0  0  0  0  0
  1  2  1  0
  2  3  1  0
  3  4  2  0
  4  5  1  0
  5  6  2  0
  6  7  1  0
  7  8  1  0
  7  9  2  0
  9 10  1  0
 10 11  1  0
 11 12  2  0
 12 13  1  0
 13 14  1  0
 13 15  1  0
 15 16  1  0
 16 17  2  0
 17 18  1  0
 18 19  1  0
 19 20  2  3
 19 21  1  0
  9  3  1  0
 21 11  1  0
 21 15  2  0
  1 22  1  0
  1 23  1  0
  1 24  1  0
  4 25  1  0
  5 26  1  0
  6 27  1  0
  8 28  1  0
  8 29  1  0
  8 30  1  0
 10 31  1  0
 10 32  1  0
 12 33  1  0
 14 34  1  0
 14 35  1  0
 14 36  1  0
 17 37  1  0
 18 38  1  0
 20 39  1  0
M  END
>  <smiles>  (61) 
COc1cccc(C)c1Cc1cn(C)c2nc[nH]c(=N)c12

>  <score_type>  (61) 
oracle

>  <origin>  (61) 
adg

>  <m_score__min__energy>  (61) 
-5.96

>  <m_primary>  (61) 
energy

$$$$
61:0
     RDKit          3D

 34 36  0  0  0  0  0  0  0  0999 V2000
   58.3320   27.2040   47.8170 O   0  0  0  0  0  0  0  0  0  0  0  0
   57.7460   27.3870   46.7140 C   0  0  0  0  0  0  0  0  0  0  0  0
   57.1990   26.2610   46.0080 N   0  0  0  0  0  0  0  0  0  0  0  0
   57.3640   24.8860   46.4760 C   0  0  0  0  0  0  0  0  0  0  0  0
   56.9840   23.9120   45.3860 C   0  0  0  0  0  0  0  0  0  0  0  0
   56.9930   24.3640   44.0540 C   0  0  0  0  0  0  0  0  0  0  0  0
   56.6610   23.5010   43.0070 C   0  0  0  0  0  0  0  0  0  0  0  0
   56.3150   22.1770   43.2770 C   0  0  0  0  0  0  0  0  0  0  0  0
   56.2970   21.7140   44.5930 C   0  0  0  0  0  0  0  0  0  0  0  0
   56.6270   22.5680   45.6530 C   0  0  0  0  0  0  0  0  0  0  0  0
   56.5640   21.8380   47.4270 Br  0  0  0  0  0  0  0  0  0  0  0  0
   57.6270   28.7550   46.1520 C   0  0  0  0  0  0  0  0  0  0  0  0
   58.5960   29.6680   46.4360 N   0  0  0  0  0  0  0  0  0  0  0  0
   58.5480   30.9390   45.9570 C   0  0  0  0  0  0  0  0  0  0  0  0
   59.6140   31.8940   46.2890 C   0  0  0  0  0  0  0  0  0  0  0  0
   60.8030   31.5980   46.9470 C   0  0  0  0  0  0  0  0  0  0  0  0
   61.6280   32.7140   47.1240 C   0  0  0  0  0  0  0  0  0  0  0  0
   61.0970   33.8890   46.6080 C   0  0  0  0  0  0  0  0  0  0  0  0
   59.5980   33.5380   45.9320 S   0  0  0  0  0  0  0  0  0  0  0  0
   57.5080   31.3230   45.1710 N   0  0  0  0  0  0  0  0  0  0  0  0
   56.5130   30.4570   44.8540 C   0  0  0  0  0  0  0  0  0  0  0  0
   55.5620   30.8420   44.1230 O   0  0  0  0  0  0  0  0  0  0  0  0
   56.5460   29.1450   45.3380 C   0  0  0  0  0  0  0  0  0  0  0  0
   55.5220   28.2610   45.0090 O   0  0  0  0  0  0  0  0  0  0  0  0
   56.6610   26.4140   45.1250 H   0  0  0  0  0  0  0  0  0  0  0  0
   58.4144   24.7225   46.7587 H   0  0  0  0  0  0  0  0  0  0  0  0
   56.7100   24.7231   47.3453 H   0  0  0  0  0  0  0  0  0  0  0  0
   57.2641   25.4073   43.8347 H   0  0  0  0  0  0  0  0  0  0  0  0
   56.6724   23.8656   41.9693 H   0  0  0  0  0  0  0  0  0  0  0  0
   56.0561   21.4974   42.4517 H   0  0  0  0  0  0  0  0  0  0  0  0
   56.0213   20.6694   44.7999 H   0  0  0  0  0  0  0  0  0  0  0  0
   61.0681   30.5882   47.2934 H   0  0  0  0  0  0  0  0  0  0  0  0
   62.6060   32.6653   47.6251 H   0  0  0  0  0  0  0  0  0  0  0  0
   61.5750   34.8793   46.6366 H   0  0  0  0  0  0  0  0  0  0  0  0
  1  2  2  0
  2  3  1  0
  3  4  1  0
  4  5  1  0
  5  6  2  0
  6  7  1  0
  7  8  2  0
  8  9  1  0
  9 10  2  0
 10 11  1  0
  2 12  1  0
 12 13  1  0
 13 14  1  0
 14 15  1  0
 15 16  2  0
 16 17  1  0
 17 18  2  0
 18 19  1  0
 14 20  2  0
 20 21  1  0
 21 22  2  0
 21 23  1  0
 23 24  1  0
 10  5  1  0
 23 12  2  0
 19 15  1  0
  3 25  1  0
  4 26  1  0
  4 27  1  0
  6 28  1  0
  7 29  1  0
  8 30  1  0
  9 31  1  0
 16 32  1  0
 17 33  1  0
 18 34  1  0
M  CHG  2  13  -1  24  -1
M  END
>  <UniqueID>  (62) 
58

>  <SMILES>  (62) 
O=C(NCc1ccccc1Br)c1[n-]c(-c2cccs2)nc(=O)c1[O-]

>  <Energy>  (62) 
64.77924283063116

>  <Genealogy>  (62) 
O=C(NCc1ccccc1Br)c1[n-]c(-c2cccs2)nc(=O)c1[O-] (protonated)
O=C(NCc1ccccc1Br)c1[n-]c(-c2cccs2)nc(=O)c1[O-] (3D coordinates assigned)
O=C(NCc1ccccc1Br)c1[n-]c(-c2cccs2)nc(=O)c1[O-] (optimized conformer: 64.77924283063116 kcal/mol)

>  <smiles>  (62) 
O=C(NCc1ccccc1Br)c1[nH]c(-c2cccs2)nc(=O)c1O

>  <score_type>  (62) 
oracle

>  <origin>  (62) 
adg

>  <m_score__min__energy>  (62) 
-11.460000000000001

>  <m_primary>  (62) 
energy

$$$$
62:0
     RDKit          3D

 54 58  0  0  0  0  0  0  0  0999 V2000
   66.1780   31.9230   51.0580 C   0  0  0  0  0  0  0  0  0  0  0  0
   65.0230   32.3360   50.2090 C   0  0  0  0  0  0  0  0  0  0  0  0
   65.1760   33.0290   49.0680 N   0  0  0  0  0  0  0  0  0  0  0  0
   63.9280   33.2110   48.5910 C   0  0  0  0  0  0  0  0  0  0  0  0
   63.7020   33.8520   47.4880 N   0  0  0  0  0  0  0  0  0  0  0  0
   63.0420   32.6380   49.4290 N   0  0  0  0  0  0  0  0  0  0  0  0
   61.6290   32.6230   49.2600 C   0  0  0  0  0  0  0  0  0  0  0  0
   61.0180   33.1230   48.1660 N   0  0  0  0  0  0  0  0  0  0  0  0
   59.6880   33.1040   48.0160 C   0  0  0  0  0  0  0  0  0  0  0  0
   59.1230   33.6460   46.8460 N   0  0  0  0  0  0  0  0  0  0  0  0
   58.1700   32.9350   46.0390 C   0  0  0  0  0  0  0  0  0  0  0  0
   57.2340   33.8600   45.2970 C   0  0  0  0  0  0  0  0  0  0  0  0
   57.8460   34.9530   44.7320 O   0  0  0  0  0  0  0  0  0  0  0  0
   59.2330   34.9600   44.8800 C   0  0  0  0  0  0  0  0  0  0  0  0
   59.4930   34.9920   46.3900 C   0  0  0  0  0  0  0  0  0  0  0  0
   58.8870   32.5780   48.9630 N   0  0  0  0  0  0  0  0  0  0  0  0
   59.4680   32.0660   50.0750 C   0  0  0  0  0  0  0  0  0  0  0  0
   58.7110   31.4900   51.1300 N   0  0  0  0  0  0  0  0  0  0  0  0
   59.1940   30.4390   51.9820 C   0  0  0  0  0  0  0  0  0  0  0  0
   58.1590   29.3420   51.9960 C   0  0  0  0  0  0  0  0  0  0  0  0
   56.8100   29.7980   52.1660 N   0  0  0  0  0  0  0  0  0  0  0  0
   56.0130   28.9610   53.0200 C   0  0  0  0  0  0  0  0  0  0  0  0
   54.5130   29.0520   52.7430 C   0  0  0  0  0  0  0  0  0  0  0  0
   55.0690   29.6670   53.9560 C   0  0  0  0  0  0  0  0  0  0  0  0
   56.6670   31.1970   52.4210 C   0  0  0  0  0  0  0  0  0  0  0  0
   57.3680   31.9870   51.3640 C   0  0  0  0  0  0  0  0  0  0  0  0
   60.8170   32.0920   50.2130 N   0  0  0  0  0  0  0  0  0  0  0  0
   63.7240   32.0950   50.4330 N   0  0  0  0  0  0  0  0  0  0  0  0
   65.9061   32.0202   52.1194 H   0  0  0  0  0  0  0  0  0  0  0  0
   66.4374   30.8764   50.8403 H   0  0  0  0  0  0  0  0  0  0  0  0
   67.0422   32.5678   50.8403 H   0  0  0  0  0  0  0  0  0  0  0  0
   62.7150   33.8600   47.1340 H   0  0  0  0  0  0  0  0  0  0  0  0
   58.7158   32.3233   45.3056 H   0  0  0  0  0  0  0  0  0  0  0  0
   57.5609   32.3134   46.7118 H   0  0  0  0  0  0  0  0  0  0  0  0
   56.7468   33.2858   44.4952 H   0  0  0  0  0  0  0  0  0  0  0  0
   56.5218   34.2481   46.0400 H   0  0  0  0  0  0  0  0  0  0  0  0
   59.6700   34.0537   44.4354 H   0  0  0  0  0  0  0  0  0  0  0  0
   59.6894   35.8228   44.3728 H   0  0  0  0  0  0  0  0  0  0  0  0
   60.5532   35.1975   46.5994 H   0  0  0  0  0  0  0  0  0  0  0  0
   58.9223   35.7821   46.8999 H   0  0  0  0  0  0  0  0  0  0  0  0
   60.1462   30.0497   51.5924 H   0  0  0  0  0  0  0  0  0  0  0  0
   59.3643   30.8186   53.0003 H   0  0  0  0  0  0  0  0  0  0  0  0
   58.2204   28.7998   51.0409 H   0  0  0  0  0  0  0  0  0  0  0  0
   58.3867   28.7088   52.8661 H   0  0  0  0  0  0  0  0  0  0  0  0
   56.7663   28.1670   53.1298 H   0  0  0  0  0  0  0  0  0  0  0  0
   54.1430   29.6876   51.9250 H   0  0  0  0  0  0  0  0  0  0  0  0
   53.7157   28.3224   52.5380 H   0  0  0  0  0  0  0  0  0  0  0  0
   55.1063   30.7629   54.0433 H   0  0  0  0  0  0  0  0  0  0  0  0
   54.8471   29.5817   55.0300 H   0  0  0  0  0  0  0  0  0  0  0  0
   55.5987   31.4590   52.4224 H   0  0  0  0  0  0  0  0  0  0  0  0
   57.1117   31.4314   53.3994 H   0  0  0  0  0  0  0  0  0  0  0  0
   56.7940   31.9197   50.4280 H   0  0  0  0  0  0  0  0  0  0  0  0
   57.4411   33.0303   51.7050 H   0  0  0  0  0  0  0  0  0  0  0  0
   63.3170   31.5790   51.2400 H   0  0  0  0  0  0  0  0  0  0  0  0
  1  2  1  0
  2  3  2  0
  3  4  1  0
  4  5  2  3
  4  6  1  0
  6  7  1  0
  7  8  2  0
  8  9  1  0
  9 10  1  0
 10 11  1  0
 11 12  1  0
 12 13  1  0
 13 14  1  0
 14 15  1  0
  9 16  2  0
 16 17  1  0
 17 18  1  0
 18 19  1  0
 19 20  1  0
 20 21  1  0
 21 22  1  0
 22 23  1  0
 23 24  1  0
 21 25  1  0
 25 26  1  0
 17 27  2  0
  6 28  1  0
 28  2  1  0
 27  7  1  0
 15 10  1  0
 26 18  1  0
 24 22  1  0
  1 29  1  0
  1 30  1  0
  1 31  1  0
  5 32  1  0
 11 33  1  0
 11 34  1  0
 12 35  1  0
 12 36  1  0
 14 37  1  0
 14 38  1  0
 15 39  1  0
 15 40  1  0
 19 41  1  0
 19 42  1  0
 20 43  1  0
 20 44  1  0
 22 45  1  0
 23 46  1  0
 23 47  1  0
 24 48  1  0
 24 49  1  0
 25 50  1  0
 25 51  1  0
 26 52  1  0
 26 53  1  0
 28 54  1  0
M  END
>  <smiles>  (63) 
Cc1nc(=N)n(-c2nc(N3CCOCC3)nc(N3CCN(C4CC4)CC3)n2)[nH]1

>  <score_type>  (63) 
oracle

>  <origin>  (63) 
adg

>  <m_score__min__energy>  (63) 
-6.7000000000000002

>  <m_primary>  (63) 
energy

$$$$
63:0
     RDKit          3D

 43 46  0  0  0  0  0  0  0  0999 V2000
   59.5550   34.8500   45.6980 C   0  0  0  0  0  0  0  0  0  0  0  0
   59.6370   33.7020   46.5350 O   0  0  0  0  0  0  0  0  0  0  0  0
   60.8200   32.9940   46.8090 C   0  0  0  0  0  0  0  0  0  0  0  0
   62.0110   33.6600   47.1680 C   0  0  0  0  0  0  0  0  0  0  0  0
   63.1630   32.9340   47.4900 C   0  0  0  0  0  0  0  0  0  0  0  0
   64.3390   33.5900   47.8480 O   0  0  0  0  0  0  0  0  0  0  0  0
   63.1370   31.5400   47.4600 C   0  0  0  0  0  0  0  0  0  0  0  0
   61.9680   30.8670   47.0980 C   0  0  0  0  0  0  0  0  0  0  0  0
   60.8100   31.5820   46.7510 C   0  0  0  0  0  0  0  0  0  0  0  0
   59.5980   30.8220   46.3670 C   0  0  0  0  0  0  0  0  0  0  0  0
   58.5130   31.4460   45.7360 C   0  0  0  0  0  0  0  0  0  0  0  0
   57.3960   30.6870   45.3840 C   0  0  0  0  0  0  0  0  0  0  0  0
   56.4230   31.2540   44.8170 O   0  0  0  0  0  0  0  0  0  0  0  0
   57.3810   29.3060   45.6620 C   0  0  0  0  0  0  0  0  0  0  0  0
   56.2950   28.4610   45.3340 C   0  0  0  0  0  0  0  0  0  0  0  0
   55.1560   28.9570   44.7080 O   0  0  0  0  0  0  0  0  0  0  0  0
   56.3540   27.0970   45.6370 C   0  0  0  0  0  0  0  0  0  0  0  0
   57.4720   26.5520   46.2750 C   0  0  0  0  0  0  0  0  0  0  0  0
   57.4890   25.1760   46.5450 O   0  0  0  0  0  0  0  0  0  0  0  0
   57.1210   24.1650   45.6440 C   0  0  0  0  0  0  0  0  0  0  0  0
   55.7650   23.9920   45.3450 C   0  0  0  0  0  0  0  0  0  0  0  0
   55.3570   22.9870   44.4630 C   0  0  0  0  0  0  0  0  0  0  0  0
   56.3050   22.1370   43.8840 C   0  0  0  0  0  0  0  0  0  0  0  0
   55.9000   21.1380   43.0070 O   0  0  0  0  0  0  0  0  0  0  0  0
   57.6600   22.2900   44.1910 C   0  0  0  0  0  0  0  0  0  0  0  0
   58.0700   23.2950   45.0730 C   0  0  0  0  0  0  0  0  0  0  0  0
   58.5630   27.3810   46.5850 C   0  0  0  0  0  0  0  0  0  0  0  0
   58.5190   28.7480   46.2900 C   0  0  0  0  0  0  0  0  0  0  0  0
   59.5590   29.5130   46.6050 O   0  0  0  0  0  0  0  0  0  0  0  0
   59.4904   35.7542   46.3211 H   0  0  0  0  0  0  0  0  0  0  0  0
   60.4515   34.9056   45.0630 H   0  0  0  0  0  0  0  0  0  0  0  0
   58.6597   34.7776   45.0630 H   0  0  0  0  0  0  0  0  0  0  0  0
   62.0341   34.7594   47.1950 H   0  0  0  0  0  0  0  0  0  0  0  0
   65.2480   33.1730   47.6890 H   0  0  0  0  0  0  0  0  0  0  0  0
   64.0398   30.9689   47.7222 H   0  0  0  0  0  0  0  0  0  0  0  0
   61.9541   29.7672   47.0845 H   0  0  0  0  0  0  0  0  0  0  0  0
   58.5417   32.5242   45.5202 H   0  0  0  0  0  0  0  0  0  0  0  0
   55.5097   26.4445   45.3698 H   0  0  0  0  0  0  0  0  0  0  0  0
   55.0152   24.6511   45.8070 H   0  0  0  0  0  0  0  0  0  0  0  0
   54.2902   22.8647   44.2243 H   0  0  0  0  0  0  0  0  0  0  0  0
   58.4049   21.6191   43.7383 H   0  0  0  0  0  0  0  0  0  0  0  0
   59.1358   23.4062   45.3212 H   0  0  0  0  0  0  0  0  0  0  0  0
   59.4569   26.9530   47.0623 H   0  0  0  0  0  0  0  0  0  0  0  0
  1  2  1  0
  2  3  1  0
  3  4  2  0
  4  5  1  0
  5  6  1  0
  5  7  2  0
  7  8  1  0
  8  9  2  0
  9 10  1  0
 10 11  2  0
 11 12  1  0
 12 13  2  0
 12 14  1  0
 14 15  2  0
 15 16  1  0
 15 17  1  0
 17 18  2  0
 18 19  1  0
 19 20  1  0
 20 21  2  0
 21 22  1  0
 22 23  2  0
 23 24  1  0
 23 25  1  0
 25 26  2  0
 18 27  1  0
 27 28  2  0
 28 29  1  0
  9  3  1  0
 29 10  1  0
 28 14  1  0
 26 20  1  0
  1 30  1  0
  1 31  1  0
  1 32  1  0
  4 33  1  0
  6 34  1  0
  7 35  1  0
  8 36  1  0
 11 37  1  0
 17 38  1  0
 21 39  1  0
 22 40  1  0
 25 41  1  0
 26 42  1  0
 27 43  1  0
M  CHG  2  16  -1  24  -1
M  END
>  <UniqueID>  (64) 
59

>  <SMILES>  (64) 
COc1cc(O)ccc1-c1cc(=O)c2c([O-])cc(Oc3ccc([O-])cc3)cc2o1

>  <Energy>  (64) 
65.92627441752248

>  <Genealogy>  (64) 
COc1cc(O)ccc1-c1cc(=O)c2c([O-])cc(Oc3ccc([O-])cc3)cc2o1 (protonated)
COc1cc(O)ccc1-c1cc(=O)c2c([O-])cc(Oc3ccc([O-])cc3)cc2o1 (3D coordinates assigned)
COc1cc(O)ccc1-c1cc(=O)c2c([O-])cc(Oc3ccc([O-])cc3)cc2o1 (optimized conformer: 65.92627441752248 kcal/mol)

>  <smiles>  (64) 
COc1cc(O)ccc1-c1cc(=O)c2c(O)cc(Oc3ccc(O)cc3)cc2o1

>  <score_type>  (64) 
oracle

>  <origin>  (64) 
adg

>  <m_score__min__energy>  (64) 
-12.970000000000001

>  <m_primary>  (64) 
energy

$$$$
64:0
     RDKit          3D

 37 41  0  0  0  0  0  0  0  0999 V2000
   54.5940   30.3550   44.8360 H   0  0  0  0  0  0  0  0  0  0  0  0
   55.5310   30.6780   44.5090 N   0  0  0  0  0  0  0  0  0  0  0  0
   56.6110   30.0510   44.8520 C   0  0  0  0  0  0  0  0  0  0  0  0
   56.7000   28.7030   44.9260 N   0  0  0  0  0  0  0  0  0  0  0  0
   57.9450   28.4410   45.2940 N   0  0  0  0  0  0  0  0  0  0  0  0
   58.5060   27.2260   45.5220 C   0  0  0  0  0  0  0  0  0  0  0  0
   57.8040   26.0250   45.3470 C   0  0  0  0  0  0  0  0  0  0  0  0
   56.7556   26.0407   45.0144 H   0  0  0  0  0  0  0  0  0  0  0  0
   58.4450   24.8050   45.5980 C   0  0  0  0  0  0  0  0  0  0  0  0
   57.5750   23.2980   45.3780 Cl  0  0  0  0  0  0  0  0  0  0  0  0
   59.7800   24.7850   46.0260 C   0  0  0  0  0  0  0  0  0  0  0  0
   60.2782   23.8238   46.2205 H   0  0  0  0  0  0  0  0  0  0  0  0
   60.4820   25.9830   46.2070 C   0  0  0  0  0  0  0  0  0  0  0  0
   61.5285   25.9630   46.5452 H   0  0  0  0  0  0  0  0  0  0  0  0
   59.8500   27.2040   45.9570 C   0  0  0  0  0  0  0  0  0  0  0  0
   60.5090   28.3870   46.1390 N   0  0  0  0  0  0  0  0  0  0  0  0
   59.9170   29.5630   45.9010 N   0  0  0  0  0  0  0  0  0  0  0  0
   60.4370   30.4480   46.0850 H   0  0  0  0  0  0  0  0  0  0  0  0
   58.6350   29.5790   45.4530 C   0  0  0  0  0  0  0  0  0  0  0  0
   57.8220   30.6570   45.1660 C   0  0  0  0  0  0  0  0  0  0  0  0
   58.1370   32.0980   45.1740 C   0  0  0  0  0  0  0  0  0  0  0  0
   57.7730   32.9320   44.1810 N   0  0  0  0  0  0  0  0  0  0  0  0
   58.2200   34.1370   44.4990 N   0  0  0  0  0  0  0  0  0  0  0  0
   58.8520   34.0190   45.6800 C   0  0  0  0  0  0  0  0  0  0  0  0
   59.6610   35.2590   46.3830 S   0  0  0  0  0  0  0  0  0  0  0  0
   58.8260   32.7490   46.1380 N   0  0  0  0  0  0  0  0  0  0  0  0
   59.5200   32.1980   47.2740 C   0  0  0  0  0  0  0  0  0  0  0  0
   58.8050   31.5640   48.3040 C   0  0  0  0  0  0  0  0  0  0  0  0
   57.7078   31.5050   48.2531 H   0  0  0  0  0  0  0  0  0  0  0  0
   59.4820   31.0080   49.3930 C   0  0  0  0  0  0  0  0  0  0  0  0
   58.9169   30.5123   50.1961 H   0  0  0  0  0  0  0  0  0  0  0  0
   60.8760   31.0810   49.4630 C   0  0  0  0  0  0  0  0  0  0  0  0
   61.4074   30.6412   50.3198 H   0  0  0  0  0  0  0  0  0  0  0  0
   61.5950   31.7130   48.4440 C   0  0  0  0  0  0  0  0  0  0  0  0
   62.6920   31.7712   48.5001 H   0  0  0  0  0  0  0  0  0  0  0  0
   60.9210   32.2710   47.3540 C   0  0  0  0  0  0  0  0  0  0  0  0
   61.4898   32.7695   46.5553 H   0  0  0  0  0  0  0  0  0  0  0  0
  1  2  1  0
  2  3  2  0
  3  4  1  0
  4  5  1  0
  5  6  1  0
  6  7  2  0
  7  8  1  0
  7  9  1  0
  9 10  1  0
  9 11  2  0
 11 12  1  0
 11 13  1  0
 13 14  1  0
 13 15  2  0
 15 16  1  0
 16 17  2  0
 17 18  1  0
 17 19  1  0
 19 20  2  0
 20 21  1  0
 21 22  2  0
 22 23  1  0
 23 24  1  0
 24 25  2  0
 24 26  1  0
 26 27  1  0
 27 28  2  0
 28 29  1  0
 28 30  1  0
 30 31  1  0
 30 32  2  0
 32 33  1  0
 32 34  1  0
 34 35  1  0
 34 36  2  0
 36 37  1  0
 20  3  1  0
 26 21  1  0
 36 27  1  0
 19  5  1  0
 15  6  1  0
M  CHG  3   4  -1  17   1  23  -1
M  END
>  <UniqueID>  (65) 
60

>  <SMILES>  (65) 
[H]/N=c1\[n-]n2c([nH+]nc3ccc(Cl)cc32)c1-c1n[n-]c(=S)n1-c1ccccc1

>  <Energy>  (65) 
131.59280020922148

>  <Genealogy>  (65) 
N=c1[n-]n2c([nH+]nc3ccc(Cl)cc32)c1-c1n[n-]c(=S)n1-c1ccccc1 (protonated)
[H]/N=c1\[n-]n2c([nH+]nc3ccc(Cl)cc32)c1-c1n[n-]c(=S)n1-c1ccccc1 (cis-trans isomerization)
[H]/N=c1\[n-]n2c([nH+]nc3ccc(Cl)cc32)c1-c1n[n-]c(=S)n1-c1ccccc1 (3D coordinates assigned)
[H]/N=c1\[n-]n2c([nH+]nc3ccc(Cl)cc32)c1-c1n[n-]c(=S)n1-c1ccccc1 (optimized conformer: 131.59280020922148 kcal/mol)

>  <smiles>  (65) 
N=c1[nH]n2c(nnc3ccc(Cl)cc32)c1-c1n[nH]c(=S)n1-c1ccccc1

>  <score_type>  (65) 
oracle

>  <origin>  (65) 
adg

>  <m_score__min__energy>  (65) 
-9.7300000000000004

>  <m_primary>  (65) 
energy

$$$$
65:0
     RDKit          3D

 61 62  0  0  0  0  0  0  0  0999 V2000
   59.4790   34.9030   45.7180 C   0  0  0  0  0  0  0  0  0  0  0  0
   59.2670   33.8660   46.8320 C   0  0  0  0  0  0  0  0  0  0  0  0
   60.2720   32.7150   46.6340 C   0  0  0  0  0  0  0  0  0  0  0  0
   59.4780   34.5460   48.1970 C   0  0  0  0  0  0  0  0  0  0  0  0
   57.9210   33.3860   46.7120 O   0  0  0  0  0  0  0  0  0  0  0  0
   57.3350   32.8260   45.5660 C   0  0  0  0  0  0  0  0  0  0  0  0
   57.0480   33.5360   44.5680 O   0  0  0  0  0  0  0  0  0  0  0  0
   57.0300   31.4310   45.5330 N   0  0  0  0  0  0  0  0  0  0  0  0
   57.1950   30.5950   44.3450 C   0  0  1  0  0  0  0  0  0  0  0  0
   58.4170   29.6580   44.4680 C   0  0  0  0  0  0  0  0  0  0  0  0
   58.0530   28.1940   44.4320 C   0  0  0  0  0  0  0  0  0  0  0  0
   57.6320   27.5380   45.6020 C   0  0  0  0  0  0  0  0  0  0  0  0
   57.2750   26.1890   45.5650 C   0  0  0  0  0  0  0  0  0  0  0  0
   57.3340   25.4750   44.3590 C   0  0  0  0  0  0  0  0  0  0  0  0
   56.9980   24.0800   44.3180 N   0  0  0  0  0  0  0  0  0  0  0  0
   57.9610   23.1090   44.8540 C   0  0  0  0  0  0  0  0  0  0  0  0
   57.4380   22.5260   46.1380 C   0  0  0  0  0  0  0  0  0  0  0  0
   57.0460   23.3710   47.1860 C   0  0  0  0  0  0  0  0  0  0  0  0
   56.6190   22.8340   48.4030 C   0  0  0  0  0  0  0  0  0  0  0  0
   56.5650   21.4420   48.5850 C   0  0  0  0  0  0  0  0  0  0  0  0
   56.1780   20.8520   49.8850 C   0  0  0  0  0  0  0  0  0  0  0  0
   57.0280   20.4890   50.8590 C   0  0  0  0  0  0  0  0  0  0  0  0
   58.4630   20.8290   50.9240 C   0  0  0  0  0  0  0  0  0  0  0  0
   59.3020   20.3320   50.1270 O   0  0  0  0  0  0  0  0  0  0  0  0
   56.9970   20.5990   47.5520 C   0  0  0  0  0  0  0  0  0  0  0  0
   57.4260   21.1360   46.3350 C   0  0  0  0  0  0  0  0  0  0  0  0
   55.6530   23.6780   44.0060 C   0  0  0  0  0  0  0  0  0  0  0  0
   55.4260   22.9960   42.9710 O   0  0  0  0  0  0  0  0  0  0  0  0
   54.5300   24.0340   44.8850 C   0  0  0  0  0  0  0  0  0  0  0  0
   53.5000   23.3120   44.9310 O   0  0  0  0  0  0  0  0  0  0  0  0
   54.5840   25.1950   45.6470 O   0  0  0  0  0  0  0  0  0  0  0  0
   57.7680   26.1200   43.1950 C   0  0  0  0  0  0  0  0  0  0  0  0
   58.1210   27.4730   43.2290 C   0  0  0  0  0  0  0  0  0  0  0  0
   55.9350   29.8170   44.0980 C   0  0  0  0  0  0  0  0  0  0  0  0
   55.5360   29.5970   42.9220 O   0  0  0  0  0  0  0  0  0  0  0  0
   55.1860   29.3560   45.1740 O   0  0  0  0  0  0  0  0  0  0  0  0
   59.6802   35.8870   46.1665 H   0  0  0  0  0  0  0  0  0  0  0  0
   60.3342   34.6022   45.0950 H   0  0  0  0  0  0  0  0  0  0  0  0
   58.5743   34.9620   45.0950 H   0  0  0  0  0  0  0  0  0  0  0  0
   60.5988   32.3407   47.6154 H   0  0  0  0  0  0  0  0  0  0  0  0
   59.7908   31.9006   46.0726 H   0  0  0  0  0  0  0  0  0  0  0  0
   61.1439   33.0820   46.0726 H   0  0  0  0  0  0  0  0  0  0  0  0
   59.2557   33.8297   49.0017 H   0  0  0  0  0  0  0  0  0  0  0  0
   60.5223   34.8809   48.2823 H   0  0  0  0  0  0  0  0  0  0  0  0
   58.8067   35.4132   48.2823 H   0  0  0  0  0  0  0  0  0  0  0  0
   57.3859   31.2504   43.4825 H   0  0  0  0  0  0  0  0  0  0  0  0
   59.1030   29.8677   43.6341 H   0  0  0  0  0  0  0  0  0  0  0  0
   58.8808   29.8543   45.4459 H   0  0  0  0  0  0  0  0  0  0  0  0
   57.5836   28.0908   46.5518 H   0  0  0  0  0  0  0  0  0  0  0  0
   56.9461   25.6839   46.4852 H   0  0  0  0  0  0  0  0  0  0  0  0
   58.1117   22.3022   44.1216 H   0  0  0  0  0  0  0  0  0  0  0  0
   58.9171   23.6167   45.0493 H   0  0  0  0  0  0  0  0  0  0  0  0
   57.0748   24.4621   47.0493 H   0  0  0  0  0  0  0  0  0  0  0  0
   56.3235   23.5048   49.2232 H   0  0  0  0  0  0  0  0  0  0  0  0
   55.1046   20.6978   50.0692 H   0  0  0  0  0  0  0  0  0  0  0  0
   56.6186   19.8844   51.6817 H   0  0  0  0  0  0  0  0  0  0  0  0
   58.8097   21.5372   51.6910 H   0  0  0  0  0  0  0  0  0  0  0  0
   56.9984   19.5090   47.6998 H   0  0  0  0  0  0  0  0  0  0  0  0
   57.7559   20.4661   45.5273 H   0  0  0  0  0  0  0  0  0  0  0  0
   57.8317   25.5607   42.2499 H   0  0  0  0  0  0  0  0  0  0  0  0
   58.4536   27.9749   42.3084 H   0  0  0  0  0  0  0  0  0  0  0  0
  1  2  1  0
  2  3  1  0
  2  4  1  0
  2  5  1  0
  5  6  1  0
  6  7  2  0
  6  8  1  0
  8  9  1  0
  9 10  1  0
 10 11  1  0
 11 12  2  0
 12 13  1  0
 13 14  2  0
 14 15  1  0
 15 16  1  0
 16 17  1  0
 17 18  2  0
 18 19  1  0
 19 20  2  0
 20 21  1  0
 21 22  2  3
 22 23  1  0
 23 24  2  0
 20 25  1  0
 25 26  2  0
 15 27  1  0
 27 28  2  0
 27 29  1  0
 29 30  2  0
 29 31  1  0
 14 32  1  0
 32 33  2  0
  9 34  1  0
 34 35  2  0
 34 36  1  0
 33 11  1  0
 26 17  1  0
  1 37  1  0
  1 38  1  0
  1 39  1  0
  3 40  1  0
  3 41  1  0
  3 42  1  0
  4 43  1  0
  4 44  1  0
  4 45  1  0
  9 46  1  6
 10 47  1  0
 10 48  1  0
 12 49  1  0
 13 50  1  0
 16 51  1  0
 16 52  1  0
 18 53  1  0
 19 54  1  0
 21 55  1  0
 22 56  1  0
 23 57  1  0
 25 58  1  0
 26 59  1  0
 32 60  1  0
 33 61  1  0
M  CHG  3   8  -1  31  -1  36  -1
M  END
>  <UniqueID>  (66) 
61

>  <SMILES>  (66) 
CC(C)(C)OC(=O)[N-][C@@H](Cc1ccc(N(Cc2ccc(C=CC=O)cc2)C(=O)C(=O)[O-])cc1)C(=O)[O-]

>  <Energy>  (66) 
66.83945816056725

>  <Genealogy>  (66) 
CC(C)(C)OC(=O)[N-]C(Cc1ccc(N(Cc2ccc(C=CC=O)cc2)C(=O)C(=O)[O-])cc1)C(=O)[O-] (protonated)
CC(C)(C)OC(=O)[N-][C@@H](Cc1ccc(N(Cc2ccc(C=CC=O)cc2)C(=O)C(=O)[O-])cc1)C(=O)[O-] (chirality)
CC(C)(C)OC(=O)[N-][C@@H](Cc1ccc(N(Cc2ccc(C=CC=O)cc2)C(=O)C(=O)[O-])cc1)C(=O)[O-] (3D coordinates assigned)
CC(C)(C)OC(=O)[N-][C@@H](Cc1ccc(N(Cc2ccc(C=CC=O)cc2)C(=O)C(=O)[O-])cc1)C(=O)[O-] (optimized conformer: 66.83945816056725 kcal/mol)

>  <smiles>  (66) 
CC(C)(C)OC(=O)NC(Cc1ccc(N(Cc2ccc(C=CC=O)cc2)C(=O)C(=O)O)cc1)C(=O)O

>  <score_type>  (66) 
oracle

>  <origin>  (66) 
adg

>  <m_score__min__energy>  (66) 
-14.09

>  <m_primary>  (66) 
energy

$$$$
66:0
     RDKit          3D

 36 37  0  0  0  0  0  0  0  0999 V2000
   59.5460   35.0020   45.8440 C   0  0  0  0  0  0  0  0  0  0  0  0
   58.8180   33.7440   45.4720 C   0  0  0  0  0  0  0  0  0  0  0  0
   58.5180   33.4670   44.1290 C   0  0  0  0  0  0  0  0  0  0  0  0
   57.8420   32.2940   43.7850 C   0  0  0  0  0  0  0  0  0  0  0  0
   57.4580   31.3840   44.7770 C   0  0  0  0  0  0  0  0  0  0  0  0
   56.5200   29.9600   44.3340 S   0  0  0  0  0  0  0  0  0  0  0  0
   57.0210   29.3830   43.0390 O   0  0  0  0  0  0  0  0  0  0  0  0
   55.0850   30.3660   44.1510 O   0  0  0  0  0  0  0  0  0  0  0  0
   56.6130   28.7560   45.5890 N   0  0  0  0  0  0  0  0  0  0  0  0
   57.8850   28.0300   45.5420 C   0  0  0  0  0  0  0  0  0  0  0  0
   58.8870   28.6440   46.4740 C   0  0  0  0  0  0  0  0  0  0  0  0
   58.7230   28.8740   47.8290 C   0  0  0  0  0  0  0  0  0  0  0  0
   59.8860   29.3510   48.3160 N   0  0  0  0  0  0  0  0  0  0  0  0
   60.1440   29.7290   49.7000 C   0  0  0  0  0  0  0  0  0  0  0  0
   60.7640   29.4660   47.3330 N   0  0  0  0  0  0  0  0  0  0  0  0
   60.1840   29.0490   46.1920 C   0  0  0  0  0  0  0  0  0  0  0  0
   60.8900   28.9410   44.8800 C   0  0  0  0  0  0  0  0  0  0  0  0
   57.7820   31.6410   46.1160 C   0  0  0  0  0  0  0  0  0  0  0  0
   58.4610   32.8140   46.4630 C   0  0  0  0  0  0  0  0  0  0  0  0
   58.7570   33.0480   47.7670 F   0  0  0  0  0  0  0  0  0  0  0  0
   59.5951   35.0869   46.9396 H   0  0  0  0  0  0  0  0  0  0  0  0
   60.5657   34.9709   45.4326 H   0  0  0  0  0  0  0  0  0  0  0  0
   59.0110   35.8706   45.4326 H   0  0  0  0  0  0  0  0  0  0  0  0
   58.8167   34.1770   43.3437 H   0  0  0  0  0  0  0  0  0  0  0  0
   57.6105   32.0845   42.7303 H   0  0  0  0  0  0  0  0  0  0  0  0
   57.7136   26.9840   45.8360 H   0  0  0  0  0  0  0  0  0  0  0  0
   58.2811   28.0814   44.5171 H   0  0  0  0  0  0  0  0  0  0  0  0
   57.8041   28.6982   48.4075 H   0  0  0  0  0  0  0  0  0  0  0  0
   59.6538   29.0108   50.3737 H   0  0  0  0  0  0  0  0  0  0  0  0
   61.2283   29.7244   49.8853 H   0  0  0  0  0  0  0  0  0  0  0  0
   59.7446   30.7370   49.8853 H   0  0  0  0  0  0  0  0  0  0  0  0
   61.7460   29.8060   47.4450 H   0  0  0  0  0  0  0  0  0  0  0  0
   61.9637   28.7768   45.0538 H   0  0  0  0  0  0  0  0  0  0  0  0
   60.4773   28.0955   44.3100 H   0  0  0  0  0  0  0  0  0  0  0  0
   60.7489   29.8712   44.3100 H   0  0  0  0  0  0  0  0  0  0  0  0
   57.5016   30.9183   46.8965 H   0  0  0  0  0  0  0  0  0  0  0  0
  1  2  1  0
  2  3  2  0
  3  4  1  0
  4  5  2  0
  5  6  1  0
  6  7  2  0
  6  8  2  0
  6  9  1  0
  9 10  1  0
 10 11  1  0
 11 12  2  0
 12 13  1  0
 13 14  1  0
 13 15  1  0
 15 16  2  0
 16 17  1  0
  5 18  1  0
 18 19  2  0
 19 20  1  0
 19  2  1  0
 16 11  1  0
  1 21  1  0
  1 22  1  0
  1 23  1  0
  3 24  1  0
  4 25  1  0
 10 26  1  0
 10 27  1  0
 12 28  1  0
 14 29  1  0
 14 30  1  0
 14 31  1  0
 15 32  1  0
 17 33  1  0
 17 34  1  0
 17 35  1  0
 18 36  1  0
M  CHG  2   9  -1  15   1
M  END
>  <UniqueID>  (67) 
62

>  <SMILES>  (67) 
Cc1ccc(S(=O)(=O)[N-]Cc2cn(C)[nH+]c2C)cc1F

>  <Energy>  (67) 
58.126503931000805

>  <Genealogy>  (67) 
Cc1ccc(S(=O)(=O)[N-]Cc2cn(C)[nH+]c2C)cc1F (protonated)
Cc1ccc(S(=O)(=O)[N-]Cc2cn(C)[nH+]c2C)cc1F (3D coordinates assigned)
Cc1ccc(S(=O)(=O)[N-]Cc2cn(C)[nH+]c2C)cc1F (optimized conformer: 58.126503931000805 kcal/mol)

>  <smiles>  (67) 
Cc1ccc(S(=O)(=O)NCc2cn(C)nc2C)cc1F

>  <score_type>  (67) 
oracle

>  <origin>  (67) 
adg

>  <m_score__min__energy>  (67) 
-7.3099999999999996

>  <m_primary>  (67) 
energy

$$$$
67:0
     RDKit          3D

 32 34  0  0  0  0  0  0  0  0999 V2000
   60.1470   30.4960   46.2420 C   0  0  0  0  0  0  0  0  0  0  0  0
   58.8220   30.3320   45.5490 C   0  0  0  0  0  0  0  0  0  0  0  0
   58.1290   29.1170   45.6780 C   0  0  0  0  0  0  0  0  0  0  0  0
   56.9180   28.9160   45.0140 C   0  0  0  0  0  0  0  0  0  0  0  0
   56.3780   29.9270   44.2100 C   0  0  0  0  0  0  0  0  0  0  0  0
   55.1430   29.7160   43.5210 N   0  0  0  0  0  0  0  0  0  0  0  0
   57.0520   31.1500   44.0920 C   0  0  0  0  0  0  0  0  0  0  0  0
   58.2540   31.3720   44.7770 C   0  0  0  0  0  0  0  0  0  0  0  0
   58.8870   32.6460   44.6390 N   0  0  0  0  0  0  0  0  0  0  0  0
   58.6150   33.9530   45.7450 S   0  0  0  0  0  0  0  0  0  0  0  0
   59.0230   35.2520   45.1050 O   0  0  0  0  0  0  0  0  0  0  0  0
   57.1550   33.9990   46.0980 O   0  0  0  0  0  0  0  0  0  0  0  0
   59.5780   33.7180   47.2050 C   0  0  0  0  0  0  0  0  0  0  0  0
   58.9490   33.4860   48.4400 C   0  0  0  0  0  0  0  0  0  0  0  0
   59.7060   33.2910   49.6070 C   0  0  0  0  0  0  0  0  0  0  0  0
   61.1060   33.3180   49.5620 C   0  0  0  0  0  0  0  0  0  0  0  0
   61.7430   33.5390   48.3410 C   0  0  0  0  0  0  0  0  0  0  0  0
   63.0930   33.5720   48.2160 N   0  0  0  0  0  0  0  0  0  0  0  0
   63.2290   33.8520   46.5920 S   0  0  0  0  0  0  0  0  0  0  0  0
   61.6830   33.9390   46.0110 N   0  0  0  0  0  0  0  0  0  0  0  0
   60.9800   33.7380   47.1550 C   0  0  0  0  0  0  0  0  0  0  0  0
   59.9958   30.4773   47.3314 H   0  0  0  0  0  0  0  0  0  0  0  0
   60.8174   29.6740   45.9507 H   0  0  0  0  0  0  0  0  0  0  0  0
   60.5967   31.4567   45.9507 H   0  0  0  0  0  0  0  0  0  0  0  0
   58.5445   28.3168   46.3080 H   0  0  0  0  0  0  0  0  0  0  0  0
   56.3857   27.9595   45.1228 H   0  0  0  0  0  0  0  0  0  0  0  0
   55.1180   29.1930   42.6170 H   0  0  0  0  0  0  0  0  0  0  0  0
   54.2440   30.0790   43.9100 H   0  0  0  0  0  0  0  0  0  0  0  0
   56.6333   31.9434   43.4554 H   0  0  0  0  0  0  0  0  0  0  0  0
   57.8507   33.4568   48.4935 H   0  0  0  0  0  0  0  0  0  0  0  0
   59.1949   33.1155   50.5651 H   0  0  0  0  0  0  0  0  0  0  0  0
   61.6956   33.1668   50.4783 H   0  0  0  0  0  0  0  0  0  0  0  0
  1  2  1  0
  2  3  2  0
  3  4  1  0
  4  5  2  0
  5  6  1  0
  5  7  1  0
  7  8  2  0
  8  9  1  0
  9 10  1  0
 10 11  2  0
 10 12  2  0
 10 13  1  0
 13 14  2  0
 14 15  1  0
 15 16  2  0
 16 17  1  0
 17 18  2  0
 18 19  1  0
 19 20  1  0
 20 21  2  0
  8  2  1  0
 21 13  1  0
 21 17  1  0
  1 22  1  0
  1 23  1  0
  1 24  1  0
  3 25  1  0
  4 26  1  0
  6 27  1  0
  6 28  1  0
  7 29  1  0
 14 30  1  0
 15 31  1  0
 16 32  1  0
M  CHG  1   9  -1
M  END
>  <UniqueID>  (68) 
63

>  <SMILES>  (68) 
Cc1ccc(N)cc1[N-]S(=O)(=O)c1cccc2nsnc12

>  <Energy>  (68) 
81.67195671363476

>  <Genealogy>  (68) 
Cc1ccc(N)cc1[N-]S(=O)(=O)c1cccc2nsnc12 (protonated)
Cc1ccc(N)cc1[N-]S(=O)(=O)c1cccc2nsnc12 (3D coordinates assigned)
Cc1ccc(N)cc1[N-]S(=O)(=O)c1cccc2nsnc12 (optimized conformer: 81.67195671363476 kcal/mol)

>  <smiles>  (68) 
Cc1ccc(N)cc1NS(=O)(=O)c1cccc2nsnc12

>  <score_type>  (68) 
oracle

>  <origin>  (68) 
adg

>  <m_score__min__energy>  (68) 
-9.25

>  <m_primary>  (68) 
energy

$$$$
68:0
     RDKit          3D

 49 52  0  0  0  0  0  0  0  0999 V2000
   57.0140   31.2200   42.1560 C   0  0  0  0  0  0  0  0  0  0  0  0
   56.7460   30.4260   43.3510 N   0  0  0  0  0  0  0  0  0  0  0  0
   55.5870   29.8090   43.6850 C   0  0  0  0  0  0  0  0  0  0  0  0
   55.6720   29.1080   44.8460 N   0  0  0  0  0  0  0  0  0  0  0  0
   56.9440   29.3150   45.2340 C   0  0  0  0  0  0  0  0  0  0  0  0
   57.5790   28.8090   46.3660 C   0  0  0  0  0  0  0  0  0  0  0  0
   58.9450   29.1250   46.5540 C   0  0  0  0  0  0  0  0  0  0  0  0
   59.6810   28.5690   47.7030 C   0  0  0  0  0  0  0  0  0  0  0  0
   59.8230   27.3220   47.7970 O   0  0  0  0  0  0  0  0  0  0  0  0
   60.2340   29.4080   48.7240 N   0  0  0  0  0  0  0  0  0  0  0  0
   60.3010   30.8680   48.6590 C   0  0  0  0  0  0  0  0  0  0  0  0
   60.1010   31.4510   50.0670 C   0  0  0  0  0  0  0  0  0  0  0  0
   60.8310   32.7920   50.3000 C   0  0  0  0  0  0  0  0  0  0  0  0
   61.0860   33.5590   49.0630 N   0  0  0  0  0  0  0  0  0  0  0  0
   60.0790   34.5820   48.7070 C   0  0  0  0  0  0  0  0  0  0  0  0
   59.3130   34.2590   47.4450 C   0  0  0  0  0  0  0  0  0  0  0  0
   59.6560   34.8710   46.2260 C   0  0  0  0  0  0  0  0  0  0  0  0
   58.9390   34.5770   45.0630 C   0  0  0  0  0  0  0  0  0  0  0  0
   57.8750   33.6740   45.1050 C   0  0  0  0  0  0  0  0  0  0  0  0
   57.5140   33.0760   46.3160 C   0  0  0  0  0  0  0  0  0  0  0  0
   58.2210   33.3760   47.4840 C   0  0  0  0  0  0  0  0  0  0  0  0
   61.7020   32.8290   47.9300 C   0  0  0  0  0  0  0  0  0  0  0  0
   61.6510   31.3030   48.0850 C   0  0  0  0  0  0  0  0  0  0  0  0
   59.6240   29.9240   45.5990 C   0  0  0  0  0  0  0  0  0  0  0  0
   58.9450   30.4300   44.4750 C   0  0  0  0  0  0  0  0  0  0  0  0
   57.5980   30.1000   44.3330 C   0  0  0  0  0  0  0  0  0  0  0  0
   57.3529   32.2240   42.4512 H   0  0  0  0  0  0  0  0  0  0  0  0
   57.7965   30.7300   41.5581 H   0  0  0  0  0  0  0  0  0  0  0  0
   56.0946   31.3044   41.5581 H   0  0  0  0  0  0  0  0  0  0  0  0
   54.6712   29.8693   43.0786 H   0  0  0  0  0  0  0  0  0  0  0  0
   57.0358   28.1840   47.0901 H   0  0  0  0  0  0  0  0  0  0  0  0
   59.5052   31.2447   47.9996 H   0  0  0  0  0  0  0  0  0  0  0  0
   59.0243   31.6109   50.2257 H   0  0  0  0  0  0  0  0  0  0  0  0
   60.5301   30.7272   50.7756 H   0  0  0  0  0  0  0  0  0  0  0  0
   60.2146   33.4099   50.9695 H   0  0  0  0  0  0  0  0  0  0  0  0
   61.8128   32.5495   50.7328 H   0  0  0  0  0  0  0  0  0  0  0  0
   59.3623   34.6689   49.5369 H   0  0  0  0  0  0  0  0  0  0  0  0
   60.6218   35.5213   48.5251 H   0  0  0  0  0  0  0  0  0  0  0  0
   60.4925   35.5843   46.1878 H   0  0  0  0  0  0  0  0  0  0  0  0
   59.2135   35.0580   44.1126 H   0  0  0  0  0  0  0  0  0  0  0  0
   57.3210   33.4332   44.1857 H   0  0  0  0  0  0  0  0  0  0  0  0
   56.6725   32.3684   46.3498 H   0  0  0  0  0  0  0  0  0  0  0  0
   57.9209   32.9185   48.4383 H   0  0  0  0  0  0  0  0  0  0  0  0
   61.1687   33.1033   47.0079 H   0  0  0  0  0  0  0  0  0  0  0  0
   62.7635   33.1158   47.8990 H   0  0  0  0  0  0  0  0  0  0  0  0
   61.7938   30.8341   47.1003 H   0  0  0  0  0  0  0  0  0  0  0  0
   62.4488   30.9883   48.7739 H   0  0  0  0  0  0  0  0  0  0  0  0
   60.6914   30.1503   45.7382 H   0  0  0  0  0  0  0  0  0  0  0  0
   59.4582   31.0626   43.7357 H   0  0  0  0  0  0  0  0  0  0  0  0
  1  2  1  0
  2  3  1  0
  3  4  2  0
  4  5  1  0
  5  6  2  0
  6  7  1  0
  7  8  1  0
  8  9  2  0
  8 10  1  0
 10 11  1  0
 11 12  1  0
 12 13  1  0
 13 14  1  0
 14 15  1  0
 15 16  1  0
 16 17  2  0
 17 18  1  0
 18 19  2  0
 19 20  1  0
 20 21  2  0
 14 22  1  0
 22 23  1  0
  7 24  2  0
 24 25  1  0
 25 26  2  0
 26  2  1  0
 26  5  1  0
 23 11  1  0
 21 16  1  0
  1 27  1  0
  1 28  1  0
  1 29  1  0
  3 30  1  0
  6 31  1  0
 11 32  1  0
 12 33  1  0
 12 34  1  0
 13 35  1  0
 13 36  1  0
 15 37  1  0
 15 38  1  0
 17 39  1  0
 18 40  1  0
 19 41  1  0
 20 42  1  0
 21 43  1  0
 22 44  1  0
 22 45  1  0
 23 46  1  0
 23 47  1  0
 24 48  1  0
 25 49  1  0
M  CHG  1  10  -1
M  END
>  <UniqueID>  (69) 
64

>  <SMILES>  (69) 
Cn1cnc2cc(C(=O)[N-]C3CCN(Cc4ccccc4)CC3)ccc21

>  <Energy>  (69) 
102.73793393013585

>  <Genealogy>  (69) 
Cn1cnc2cc(C(=O)[N-]C3CCN(Cc4ccccc4)CC3)ccc21 (protonated)
Cn1cnc2cc(C(=O)[N-]C3CCN(Cc4ccccc4)CC3)ccc21 (3D coordinates assigned)
Cn1cnc2cc(C(=O)[N-]C3CCN(Cc4ccccc4)CC3)ccc21 (nonaromatic ring conformer: 102.73793393013585 kcal/mol)

>  <smiles>  (69) 
Cn1cnc2cc(C(=O)NC3CCN(Cc4ccccc4)CC3)ccc21

>  <score_type>  (69) 
oracle

>  <origin>  (69) 
adg

>  <m_score__min__energy>  (69) 
-10.470000000000001

>  <m_primary>  (69) 
energy

$$$$
69:0
     RDKit          3D

 32 33  0  0  0  0  0  0  0  0999 V2000
   56.9380   27.5820   53.6540 O   0  0  0  0  0  0  0  0  0  0  0  0
   56.5880   28.7370   53.2920 C   0  0  0  0  0  0  0  0  0  0  0  0
   55.8350   29.5480   54.1950 N   0  0  0  0  0  0  0  0  0  0  0  0
   54.7460   30.4130   53.7570 C   0  0  0  0  0  0  0  0  0  0  0  0
   53.5850   29.5740   53.2220 C   0  0  0  0  0  0  0  0  0  0  0  0
   52.7820   30.3340   52.1980 C   0  0  0  0  0  0  0  0  0  0  0  0
   52.6980   29.8710   50.8750 C   0  0  0  0  0  0  0  0  0  0  0  0
   51.9290   30.5630   49.9340 C   0  0  0  0  0  0  0  0  0  0  0  0
   51.2320   31.7160   50.3090 C   0  0  0  0  0  0  0  0  0  0  0  0
   50.4690   32.3990   49.3680 O   0  0  0  0  0  0  0  0  0  0  0  0
   51.3030   32.1780   51.6280 C   0  0  0  0  0  0  0  0  0  0  0  0
   50.6080   33.3210   52.0070 O   0  0  0  0  0  0  0  0  0  0  0  0
   52.0720   31.4880   52.5710 C   0  0  0  0  0  0  0  0  0  0  0  0
   56.9830   29.2570   52.0150 N   0  0  0  0  0  0  0  0  0  0  0  0
   57.5470   30.5510   51.7540 C   0  0  0  0  0  0  0  0  0  0  0  0
   58.1730   30.7730   50.5200 C   0  0  0  0  0  0  0  0  0  0  0  0
   58.7530   32.0130   50.2330 C   0  0  0  0  0  0  0  0  0  0  0  0
   58.7250   33.0350   51.1850 C   0  0  0  0  0  0  0  0  0  0  0  0
   58.1250   32.8150   52.4290 C   0  0  0  0  0  0  0  0  0  0  0  0
   57.5440   31.5760   52.7180 C   0  0  0  0  0  0  0  0  0  0  0  0
   54.3963   31.0156   54.6082 H   0  0  0  0  0  0  0  0  0  0  0  0
   55.1118   31.0709   52.9549 H   0  0  0  0  0  0  0  0  0  0  0  0
   53.9874   28.6623   52.7562 H   0  0  0  0  0  0  0  0  0  0  0  0
   52.9229   29.3233   54.0639 H   0  0  0  0  0  0  0  0  0  0  0  0
   53.2391   28.9606   50.5777 H   0  0  0  0  0  0  0  0  0  0  0  0
   51.8723   30.1998   48.8972 H   0  0  0  0  0  0  0  0  0  0  0  0
   52.1212   31.8501   53.6085 H   0  0  0  0  0  0  0  0  0  0  0  0
   58.2085   29.9669   49.7723 H   0  0  0  0  0  0  0  0  0  0  0  0
   59.2314   32.1835   49.2573 H   0  0  0  0  0  0  0  0  0  0  0  0
   59.1747   34.0125   50.9562 H   0  0  0  0  0  0  0  0  0  0  0  0
   58.1100   33.6175   53.1812 H   0  0  0  0  0  0  0  0  0  0  0  0
   57.0834   31.4024   53.7017 H   0  0  0  0  0  0  0  0  0  0  0  0
  1  2  2  0
  2  3  1  0
  3  4  1  0
  4  5  1  0
  5  6  1  0
  6  7  2  0
  7  8  1  0
  8  9  2  0
  9 10  1  0
  9 11  1  0
 11 12  1  0
 11 13  2  0
  2 14  1  0
 14 15  1  0
 15 16  2  0
 16 17  1  0
 17 18  2  0
 18 19  1  0
 19 20  2  0
 13  6  1  0
 20 15  1  0
  4 21  1  0
  4 22  1  0
  5 23  1  0
  5 24  1  0
  7 25  1  0
  8 26  1  0
 13 27  1  0
 16 28  1  0
 17 29  1  0
 18 30  1  0
 19 31  1  0
 20 32  1  0
M  CHG  4   3  -1  10  -1  12  -1  14  -1
M  END
>  <UniqueID>  (70) 
65

>  <SMILES>  (70) 
O=C([N-]CCc1ccc([O-])c([O-])c1)[N-]c1ccccc1

>  <Energy>  (70) 
31.18402935045702

>  <Genealogy>  (70) 
O=C([N-]CCc1ccc([O-])c([O-])c1)[N-]c1ccccc1 (protonated)
O=C([N-]CCc1ccc([O-])c([O-])c1)[N-]c1ccccc1 (3D coordinates assigned)
O=C([N-]CCc1ccc([O-])c([O-])c1)[N-]c1ccccc1 (optimized conformer: 31.18402935045702 kcal/mol)

>  <smiles>  (70) 
O=C(NCCc1ccc(O)c(O)c1)Nc1ccccc1

>  <score_type>  (70) 
oracle

>  <origin>  (70) 
adg

>  <m_score__min__energy>  (70) 
-17.23

>  <m_primary>  (70) 
energy

$$$$
70:0
     RDKit          3D

 50 52  0  0  0  0  0  0  0  0999 V2000
   60.7840   31.8570   51.4220 C   0  0  0  0  0  0  0  0  0  0  0  0
   62.1520   31.3010   51.0410 C   0  0  0  0  0  0  0  0  0  0  0  0
   62.0160   30.1080   50.2680 O   0  0  0  0  0  0  0  0  0  0  0  0
   61.0990   29.9110   49.2230 C   0  0  0  0  0  0  0  0  0  0  0  0
   61.2150   30.5490   47.9730 C   0  0  0  0  0  0  0  0  0  0  0  0
   60.2690   30.3160   46.9700 C   0  0  0  0  0  0  0  0  0  0  0  0
   59.1850   29.4500   47.2010 C   0  0  0  0  0  0  0  0  0  0  0  0
   58.2120   29.1770   46.1790 N   0  0  0  0  0  0  0  0  0  0  0  0
   58.5350   28.6620   44.8780 C   0  0  0  0  0  0  0  0  0  0  0  0
   59.7350   28.5570   44.5050 O   0  0  0  0  0  0  0  0  0  0  0  0
   57.4380   28.3130   43.9200 C   0  0  0  0  0  0  0  0  0  0  0  0
   55.9700   29.3630   44.2020 S   0  0  0  0  0  0  0  0  0  0  0  0
   56.8930   30.8940   44.2910 C   0  0  0  0  0  0  0  0  0  0  0  0
   57.0320   31.4700   45.5030 N   0  0  0  0  0  0  0  0  0  0  0  0
   57.6380   32.5940   45.9470 C   0  0  0  0  0  0  0  0  0  0  0  0
   57.5540   32.8150   47.1840 O   0  0  0  0  0  0  0  0  0  0  0  0
   58.3420   33.5200   45.1510 C   0  0  0  0  0  0  0  0  0  0  0  0
   58.9310   34.7470   45.8340 C   0  0  0  0  0  0  0  0  0  0  0  0
   60.0550   34.3530   46.7580 C   0  0  0  0  0  0  0  0  0  0  0  0
   59.9310   34.5250   48.1480 C   0  0  0  0  0  0  0  0  0  0  0  0
   60.9880   34.1850   48.9980 C   0  0  0  0  0  0  0  0  0  0  0  0
   62.1760   33.6740   48.4690 C   0  0  0  0  0  0  0  0  0  0  0  0
   62.3100   33.5030   47.0880 C   0  0  0  0  0  0  0  0  0  0  0  0
   61.2560   33.8430   46.2340 C   0  0  0  0  0  0  0  0  0  0  0  0
   58.5280   33.4520   43.7630 C   0  0  0  0  0  0  0  0  0  0  0  0
   58.1120   32.4890   42.8480 C   0  0  0  0  0  0  0  0  0  0  0  0
   58.4270   32.6660   41.6420 O   0  0  0  0  0  0  0  0  0  0  0  0
   57.3970   31.3830   43.1390 N   0  0  0  0  0  0  0  0  0  0  0  0
   59.0890   28.7950   48.4370 C   0  0  0  0  0  0  0  0  0  0  0  0
   60.0340   29.0290   49.4390 C   0  0  0  0  0  0  0  0  0  0  0  0
   60.6951   31.8931   52.5178 H   0  0  0  0  0  0  0  0  0  0  0  0
   60.6732   32.8715   51.0115 H   0  0  0  0  0  0  0  0  0  0  0  0
   59.9969   31.2074   51.0115 H   0  0  0  0  0  0  0  0  0  0  0  0
   62.6957   32.0534   50.4508 H   0  0  0  0  0  0  0  0  0  0  0  0
   62.7056   31.0641   51.9615 H   0  0  0  0  0  0  0  0  0  0  0  0
   62.0544   31.2344   47.7846 H   0  0  0  0  0  0  0  0  0  0  0  0
   60.3732   30.8131   45.9943 H   0  0  0  0  0  0  0  0  0  0  0  0
   57.2240   29.4720   46.3540 H   0  0  0  0  0  0  0  0  0  0  0  0
   57.7966   28.4637   42.8911 H   0  0  0  0  0  0  0  0  0  0  0  0
   57.1545   27.2619   44.0773 H   0  0  0  0  0  0  0  0  0  0  0  0
   59.3173   35.4361   45.0685 H   0  0  0  0  0  0  0  0  0  0  0  0
   58.1424   35.2365   46.4243 H   0  0  0  0  0  0  0  0  0  0  0  0
   58.9983   34.9288   48.5687 H   0  0  0  0  0  0  0  0  0  0  0  0
   60.8841   34.3200   50.0847 H   0  0  0  0  0  0  0  0  0  0  0  0
   63.0060   33.4062   49.1393 H   0  0  0  0  0  0  0  0  0  0  0  0
   63.2456   33.1005   46.6726 H   0  0  0  0  0  0  0  0  0  0  0  0
   61.3670   33.7109   45.1476 H   0  0  0  0  0  0  0  0  0  0  0  0
   59.0910   34.2914   43.3290 H   0  0  0  0  0  0  0  0  0  0  0  0
   58.2633   28.0915   48.6191 H   0  0  0  0  0  0  0  0  0  0  0  0
   59.9401   28.5151   50.4070 H   0  0  0  0  0  0  0  0  0  0  0  0
  1  2  1  0
  2  3  1  0
  3  4  1  0
  4  5  2  0
  5  6  1  0
  6  7  2  0
  7  8  1  0
  8  9  1  0
  9 10  2  0
  9 11  1  0
 11 12  1  0
 12 13  1  0
 13 14  2  0
 14 15  1  0
 15 16  2  0
 15 17  1  0
 17 18  1  0
 18 19  1  0
 19 20  2  0
 20 21  1  0
 21 22  2  0
 22 23  1  0
 23 24  2  0
 17 25  2  0
 25 26  1  0
 26 27  2  0
 26 28  1  0
  7 29  1  0
 29 30  2  0
 30  4  1  0
 28 13  1  0
 24 19  1  0
  1 31  1  0
  1 32  1  0
  1 33  1  0
  2 34  1  0
  2 35  1  0
  5 36  1  0
  6 37  1  0
  8 38  1  0
 11 39  1  0
 11 40  1  0
 18 41  1  0
 18 42  1  0
 20 43  1  0
 21 44  1  0
 22 45  1  0
 23 46  1  0
 24 47  1  0
 25 48  1  0
 29 49  1  0
 30 50  1  0
M  CHG  1  28  -1
M  END
>  <UniqueID>  (71) 
66

>  <SMILES>  (71) 
CCOc1ccc(NC(=O)CSc2nc(=O)c(Cc3ccccc3)cc(=O)[n-]2)cc1

>  <Energy>  (71) 
70.72837618901045

>  <Genealogy>  (71) 
CCOc1ccc(NC(=O)CSc2nc(=O)c(Cc3ccccc3)cc(=O)[n-]2)cc1 (protonated)
CCOc1ccc(NC(=O)CSc2nc(=O)c(Cc3ccccc3)cc(=O)[n-]2)cc1 (3D coordinates assigned)
CCOc1ccc(NC(=O)CSc2nc(=O)c(Cc3ccccc3)cc(=O)[n-]2)cc1 (optimized conformer: 70.72837618901045 kcal/mol)

>  <smiles>  (71) 
CCOc1ccc(NC(=O)CSc2nc(=O)c(Cc3ccccc3)cc(=O)[nH]2)cc1

>  <score_type>  (71) 
oracle

>  <origin>  (71) 
adg

>  <m_score__min__energy>  (71) 
-10.06

>  <m_primary>  (71) 
energy

$$$$
71:0
     RDKit          3D

 43 44  0  0  0  0  0  0  0  0999 V2000
   57.0170   32.0100   45.3940 H   0  0  0  0  0  0  0  0  0  0  0  0
   57.8480   32.2840   45.9650 N   0  0  0  0  0  0  0  0  0  0  0  0
   58.3010   33.6420   45.8610 C   0  0  0  0  0  0  0  0  0  0  0  0
   59.1810   34.0930   46.6430 O   0  0  0  0  0  0  0  0  0  0  0  0
   57.6790   34.5540   44.8550 C   0  0  0  0  0  0  0  0  0  0  0  0
   57.1327   35.3550   45.3746 H   0  0  0  0  0  0  0  0  0  0  0  0
   58.4651   34.9954   44.2248 H   0  0  0  0  0  0  0  0  0  0  0  0
   56.9811   33.9833   44.2248 H   0  0  0  0  0  0  0  0  0  0  0  0
   58.4550   31.2850   46.8020 C   0  0  0  0  0  0  0  0  0  0  0  0
   59.1790   31.5550   48.3040 S   0  0  0  0  0  0  0  0  0  0  0  0
   59.6590   29.9630   48.5430 C   0  0  0  0  0  0  0  0  0  0  0  0
   59.2770   29.1970   47.4540 C   0  0  0  0  0  0  0  0  0  0  0  0
   58.5930   29.9340   46.4670 C   0  0  0  0  0  0  0  0  0  0  0  0
   58.0500   29.3430   45.2250 C   0  0  0  0  0  0  0  0  0  0  0  0
   58.8390   28.8370   44.3220 N   0  0  0  0  0  0  0  0  0  0  0  0
   58.8000   27.5100   43.9390 O   0  0  0  0  0  0  0  0  0  0  0  0
   58.0660   27.0930   42.7950 C   0  0  0  0  0  0  0  0  0  0  0  0
   57.1511   26.5732   43.1158 H   0  0  0  0  0  0  0  0  0  0  0  0
   57.7958   27.9725   42.1921 H   0  0  0  0  0  0  0  0  0  0  0  0
   58.6831   26.4106   42.1921 H   0  0  0  0  0  0  0  0  0  0  0  0
   56.5910   29.2520   45.0350 C   0  0  0  0  0  0  0  0  0  0  0  0
   55.9410   30.2670   44.6640 O   0  0  0  0  0  0  0  0  0  0  0  0
   55.9140   28.0110   45.2600 N   0  0  0  0  0  0  0  0  0  0  0  0
   56.5350   26.8870   45.9430 C   0  0  0  0  0  0  0  0  0  0  0  0
   56.4560   27.0299   47.0308 H   0  0  0  0  0  0  0  0  0  0  0  0
   56.0232   25.9562   45.6574 H   0  0  0  0  0  0  0  0  0  0  0  0
   57.5954   26.8248   45.6574 H   0  0  0  0  0  0  0  0  0  0  0  0
   59.4630   27.7100   47.4700 C   0  0  0  0  0  0  0  0  0  0  0  0
   58.5694   27.2360   47.9022 H   0  0  0  0  0  0  0  0  0  0  0  0
   59.6135   27.3544   46.4400 H   0  0  0  0  0  0  0  0  0  0  0  0
   60.6890   27.3430   48.3120 C   0  0  0  0  0  0  0  0  0  0  0  0
   60.7245   26.2507   48.4369 H   0  0  0  0  0  0  0  0  0  0  0  0
   61.5890   27.7036   47.7923 H   0  0  0  0  0  0  0  0  0  0  0  0
   60.6320   27.9790   49.6450 N   0  0  0  0  0  0  0  0  0  0  0  0
   61.1190   27.2570   50.8000 C   0  0  0  0  0  0  0  0  0  0  0  0
   61.1740   25.9970   50.7830 O   0  0  0  0  0  0  0  0  0  0  0  0
   61.5630   27.9710   52.0440 C   0  0  0  0  0  0  0  0  0  0  0  0
   61.2177   27.4157   52.9285 H   0  0  0  0  0  0  0  0  0  0  0  0
   62.6610   28.0359   52.0574 H   0  0  0  0  0  0  0  0  0  0  0  0
   61.1356   28.9845   52.0574 H   0  0  0  0  0  0  0  0  0  0  0  0
   60.3410   29.4240   49.7630 C   0  0  0  0  0  0  0  0  0  0  0  0
   59.6887   29.5845   50.6341 H   0  0  0  0  0  0  0  0  0  0  0  0
   61.2980   29.9540   49.8780 H   0  0  0  0  0  0  0  0  0  0  0  0
  1  2  1  0
  2  3  1  0
  3  4  2  0
  3  5  1  0
  5  6  1  0
  5  7  1  0
  5  8  1  0
  2  9  1  0
  9 10  1  0
 10 11  1  0
 11 12  2  0
 12 13  1  0
 13 14  1  0
 14 15  2  0
 15 16  1  0
 16 17  1  0
 17 18  1  0
 17 19  1  0
 17 20  1  0
 14 21  1  0
 21 22  2  0
 21 23  1  0
 23 24  1  0
 24 25  1  0
 24 26  1  0
 24 27  1  0
 12 28  1  0
 28 29  1  0
 28 30  1  0
 28 31  1  0
 31 32  1  0
 31 33  1  0
 31 34  1  0
 34 35  1  0
 35 36  2  0
 35 37  1  0
 37 38  1  0
 37 39  1  0
 37 40  1  0
 34 41  1  0
 41 42  1  0
 41 43  1  0
 13  9  2  0
 41 11  1  0
M  CHG  1  23  -1
M  END
>  <UniqueID>  (72) 
67

>  <SMILES>  (72) 
C[N-]C(=O)/C(=N/OC)c1c(NC(C)=O)sc2c1CCN(C(C)=O)C2

>  <Energy>  (72) 
77.42026865017664

>  <Genealogy>  (72) 
C[N-]C(=O)C(=NOC)c1c(NC(C)=O)sc2c1CCN(C(C)=O)C2 (protonated)
C[N-]C(=O)/C(=N/OC)c1c(NC(C)=O)sc2c1CCN(C(C)=O)C2 (cis-trans isomerization)
C[N-]C(=O)/C(=N/OC)c1c(NC(C)=O)sc2c1CCN(C(C)=O)C2 (3D coordinates assigned)
C[N-]C(=O)/C(=N/OC)c1c(NC(C)=O)sc2c1CCN(C(C)=O)C2 (nonaromatic ring conformer: 77.42026865017664 kcal/mol)

>  <smiles>  (72) 
CNC(=O)C(=NOC)c1c(NC(C)=O)sc2c1CCN(C(C)=O)C2

>  <score_type>  (72) 
oracle

>  <origin>  (72) 
adg

>  <m_score__min__energy>  (72) 
-8.4100000000000001

>  <m_primary>  (72) 
energy

$$$$
72:0
     RDKit          3D

 55 56  0  0  0  0  0  0  0  0999 V2000
   58.1904   27.1990   44.8652 H   0  0  0  0  0  0  0  0  0  0  0  0
   58.4600   28.2560   45.0070 C   0  0  0  0  0  0  0  0  0  0  0  0
   58.0650   29.1330   44.0740 C   0  0  0  0  0  0  0  0  0  0  0  0
   58.7749   29.3875   43.2732 H   0  0  0  0  0  0  0  0  0  0  0  0
   56.4800   29.9050   44.0480 S   0  0  0  0  0  0  0  0  0  0  0  0
   55.8610   29.7330   42.6900 O   0  0  0  0  0  0  0  0  0  0  0  0
   55.6060   29.2450   45.0780 O   0  0  0  0  0  0  0  0  0  0  0  0
   56.6450   31.5860   44.4310 N   0  0  0  0  0  0  0  0  0  0  0  0
   57.5350   32.1280   45.4140 C   0  0  0  0  0  0  0  0  0  0  0  0
   57.8420   31.3500   46.5370 C   0  0  0  0  0  0  0  0  0  0  0  0
   57.3992   30.3489   46.6459 H   0  0  0  0  0  0  0  0  0  0  0  0
   58.7070   31.8370   47.5200 C   0  0  0  0  0  0  0  0  0  0  0  0
   58.9419   31.2186   48.3989 H   0  0  0  0  0  0  0  0  0  0  0  0
   59.2760   33.1100   47.3900 C   0  0  0  0  0  0  0  0  0  0  0  0
   60.2940   33.7460   48.6770 S   0  0  0  0  0  0  0  0  0  0  0  0
   60.4620   32.7240   49.7670 O   0  0  0  0  0  0  0  0  0  0  0  0
   59.6440   34.9690   49.2630 O   0  0  0  0  0  0  0  0  0  0  0  0
   61.8370   34.1750   48.0100 N   0  0  0  0  0  0  0  0  0  0  0  0
   62.5210   34.2200   48.7990 H   0  0  0  0  0  0  0  0  0  0  0  0
   62.2890   33.1550   47.0600 C   0  0  0  0  0  0  0  0  0  0  0  0
   62.6683   33.6500   46.1538 H   0  0  0  0  0  0  0  0  0  0  0  0
   61.4382   32.5024   46.8145 H   0  0  0  0  0  0  0  0  0  0  0  0
   63.4120   32.2910   47.6710 C   0  0  0  0  0  0  0  0  0  0  0  0
   64.3561   32.5530   47.1710 H   0  0  0  0  0  0  0  0  0  0  0  0
   63.1159   31.2429   47.5164 H   0  0  0  0  0  0  0  0  0  0  0  0
   63.6010   32.4610   49.1330 N   0  0  0  0  0  0  0  0  0  0  0  0
   63.3180   31.2320   49.9070 C   0  0  0  0  0  0  0  0  0  0  0  0
   64.2552   30.6746   50.0517 H   0  0  0  0  0  0  0  0  0  0  0  0
   62.5906   30.6258   49.3472 H   0  0  0  0  0  0  0  0  0  0  0  0
   62.7220   31.5680   51.2710 C   0  0  0  0  0  0  0  0  0  0  0  0
   63.3863   31.1935   52.0637 H   0  0  0  0  0  0  0  0  0  0  0  0
   62.6161   32.6587   51.3663 H   0  0  0  0  0  0  0  0  0  0  0  0
   61.7340   31.0940   51.3663 H   0  0  0  0  0  0  0  0  0  0  0  0
   64.8780   33.1150   49.4960 C   0  0  0  0  0  0  0  0  0  0  0  0
   65.3511   33.5216   48.5900 H   0  0  0  0  0  0  0  0  0  0  0  0
   64.6804   33.9306   50.2072 H   0  0  0  0  0  0  0  0  0  0  0  0
   65.8100   32.0980   50.1410 C   0  0  0  0  0  0  0  0  0  0  0  0
   65.7376   32.1770   51.2358 H   0  0  0  0  0  0  0  0  0  0  0  0
   65.5206   31.0844   49.8266 H   0  0  0  0  0  0  0  0  0  0  0  0
   66.8450   32.2980   49.8266 H   0  0  0  0  0  0  0  0  0  0  0  0
   58.9600   33.8980   46.2750 C   0  0  0  0  0  0  0  0  0  0  0  0
   59.3954   34.9030   46.1733 H   0  0  0  0  0  0  0  0  0  0  0  0
   58.0940   33.4120   45.2920 C   0  0  0  0  0  0  0  0  0  0  0  0
   57.8489   34.0361   44.4200 H   0  0  0  0  0  0  0  0  0  0  0  0
   59.2320   28.6140   46.2110 C   0  0  0  0  0  0  0  0  0  0  0  0
   60.3690   29.4260   46.0870 C   0  0  0  0  0  0  0  0  0  0  0  0
   60.6708   29.7989   45.0971 H   0  0  0  0  0  0  0  0  0  0  0  0
   61.1200   29.7630   47.2170 C   0  0  0  0  0  0  0  0  0  0  0  0
   62.0060   30.4068   47.1147 H   0  0  0  0  0  0  0  0  0  0  0  0
   60.7480   29.2840   48.4770 C   0  0  0  0  0  0  0  0  0  0  0  0
   61.3265   29.5695   49.3680 H   0  0  0  0  0  0  0  0  0  0  0  0
   59.6400   28.4420   48.6020 C   0  0  0  0  0  0  0  0  0  0  0  0
   59.3562   28.0506   49.5901 H   0  0  0  0  0  0  0  0  0  0  0  0
   58.8910   28.0960   47.4720 C   0  0  0  0  0  0  0  0  0  0  0  0
   58.0321   27.4160   47.5711 H   0  0  0  0  0  0  0  0  0  0  0  0
  1  2  1  0
  2  3  2  0
  3  4  1  0
  3  5  1  0
  5  6  2  0
  5  7  2  0
  5  8  1  0
  8  9  1  0
  9 10  2  0
 10 11  1  0
 10 12  1  0
 12 13  1  0
 12 14  2  0
 14 15  1  0
 15 16  2  0
 15 17  2  0
 15 18  1  0
 18 19  1  0
 18 20  1  0
 20 21  1  0
 20 22  1  0
 20 23  1  0
 23 24  1  0
 23 25  1  0
 23 26  1  0
 26 27  1  0
 27 28  1  0
 27 29  1  0
 27 30  1  0
 30 31  1  0
 30 32  1  0
 30 33  1  0
 26 34  1  0
 34 35  1  0
 34 36  1  0
 34 37  1  0
 37 38  1  0
 37 39  1  0
 37 40  1  0
 14 41  1  0
 41 42  1  0
 41 43  2  0
 43 44  1  0
  2 45  1  0
 45 46  2  0
 46 47  1  0
 46 48  1  0
 48 49  1  0
 48 50  2  0
 50 51  1  0
 50 52  1  0
 52 53  1  0
 52 54  2  0
 54 55  1  0
 43  9  1  0
 54 45  1  0
M  CHG  1   8  -1
M  END
>  <UniqueID>  (73) 
68

>  <SMILES>  (73) 
CCN(CC)CCNS(=O)(=O)c1ccc([N-]S(=O)(=O)/C=C\c2ccccc2)cc1

>  <Energy>  (73) 
62.0113808577317

>  <Genealogy>  (73) 
CCN(CC)CCNS(=O)(=O)c1ccc([N-]S(=O)(=O)C=Cc2ccccc2)cc1 (protonated)
CCN(CC)CCNS(=O)(=O)c1ccc([N-]S(=O)(=O)/C=C\c2ccccc2)cc1 (cis-trans isomerization)
CCN(CC)CCNS(=O)(=O)c1ccc([N-]S(=O)(=O)/C=C\c2ccccc2)cc1 (3D coordinates assigned)
CCN(CC)CCNS(=O)(=O)c1ccc([N-]S(=O)(=O)/C=C\c2ccccc2)cc1 (optimized conformer: 62.0113808577317 kcal/mol)

>  <smiles>  (73) 
CCN(CC)CCNS(=O)(=O)c1ccc(NS(=O)(=O)C=Cc2ccccc2)cc1

>  <score_type>  (73) 
oracle

>  <origin>  (73) 
adg

>  <m_score__min__energy>  (73) 
-9.7100000000000009

>  <m_primary>  (73) 
energy

$$$$
73:0
     RDKit          3D

 45 46  0  0  0  0  0  0  0  0999 V2000
   57.2860   25.5380   45.0530 C   0  0  0  0  0  0  0  0  0  0  0  0
   56.7760   26.5740   46.0510 C   0  0  0  0  0  0  0  0  0  0  0  0
   57.8950   27.5360   46.4700 C   0  0  0  0  0  0  0  0  0  0  0  0
   58.5510   28.2420   45.2720 C   0  0  0  0  0  0  0  0  0  0  0  0
   58.3860   29.7560   45.3280 C   0  0  0  0  0  0  0  0  0  0  0  0
   57.2050   30.4030   44.8760 C   0  0  0  0  0  0  0  0  0  0  0  0
   56.1140   29.7160   44.1570 C   0  0  0  0  0  0  0  0  0  0  0  0
   56.1140   29.6980   42.8990 O   0  0  0  0  0  0  0  0  0  0  0  0
   55.1440   28.9940   44.8410 O   0  0  0  0  0  0  0  0  0  0  0  0
   57.0440   31.7300   45.1010 N   0  0  0  0  0  0  0  0  0  0  0  0
   57.9930   32.4810   45.7080 C   0  0  0  0  0  0  0  0  0  0  0  0
   57.7530   33.9490   45.9180 C   0  0  0  0  0  0  0  0  0  0  0  0
   59.0060   34.6610   46.3510 C   0  0  0  0  0  0  0  0  0  0  0  0
   59.5580   35.4710   45.5610 O   0  0  0  0  0  0  0  0  0  0  0  0
   59.6520   34.3620   47.5960 N   0  0  0  0  0  0  0  0  0  0  0  0
   61.0380   34.0410   47.7540 C   0  0  0  0  0  0  0  0  0  0  0  0
   61.8150   33.7750   46.6210 C   0  0  0  0  0  0  0  0  0  0  0  0
   63.1740   33.4740   46.7540 C   0  0  0  0  0  0  0  0  0  0  0  0
   63.7690   33.4590   48.0180 C   0  0  0  0  0  0  0  0  0  0  0  0
   63.0060   33.7600   49.1540 C   0  0  0  0  0  0  0  0  0  0  0  0
   63.6240   33.7740   50.4540 C   0  0  0  0  0  0  0  0  0  0  0  0
   64.1200   33.7860   51.4990 N   0  0  0  0  0  0  0  0  0  0  0  0
   61.6460   34.0620   49.0200 C   0  0  0  0  0  0  0  0  0  0  0  0
   59.1490   31.9010   46.1210 N   0  0  0  0  0  0  0  0  0  0  0  0
   59.3740   30.5650   45.9530 C   0  0  0  0  0  0  0  0  0  0  0  0
   60.6930   29.9950   46.4130 C   0  0  0  0  0  0  0  0  0  0  0  0
   57.7080   24.6807   45.5979 H   0  0  0  0  0  0  0  0  0  0  0  0
   56.4530   25.1966   44.4209 H   0  0  0  0  0  0  0  0  0  0  0  0
   58.0646   25.9900   44.4209 H   0  0  0  0  0  0  0  0  0  0  0  0
   55.9624   27.1502   45.5863 H   0  0  0  0  0  0  0  0  0  0  0  0
   56.4148   26.0475   46.9467 H   0  0  0  0  0  0  0  0  0  0  0  0
   57.4706   28.2992   47.1389 H   0  0  0  0  0  0  0  0  0  0  0  0
   58.6729   26.9419   46.9719 H   0  0  0  0  0  0  0  0  0  0  0  0
   59.6249   28.0037   45.2663 H   0  0  0  0  0  0  0  0  0  0  0  0
   58.0537   27.8841   44.3584 H   0  0  0  0  0  0  0  0  0  0  0  0
   57.3996   34.3910   44.9748 H   0  0  0  0  0  0  0  0  0  0  0  0
   57.0012   34.0635   46.7128 H   0  0  0  0  0  0  0  0  0  0  0  0
   61.3550   33.8028   45.6222 H   0  0  0  0  0  0  0  0  0  0  0  0
   63.7760   33.2485   45.8614 H   0  0  0  0  0  0  0  0  0  0  0  0
   64.8357   33.2111   48.1213 H   0  0  0  0  0  0  0  0  0  0  0  0
   61.0510   34.3168   49.9095 H   0  0  0  0  0  0  0  0  0  0  0  0
   59.8730   32.4930   46.5880 H   0  0  0  0  0  0  0  0  0  0  0  0
   60.7233   29.9819   47.5125 H   0  0  0  0  0  0  0  0  0  0  0  0
   60.8024   28.9693   46.0309 H   0  0  0  0  0  0  0  0  0  0  0  0
   61.5150   30.6182   46.0309 H   0  0  0  0  0  0  0  0  0  0  0  0
  1  2  1  0
  2  3  1  0
  3  4  1  0
  4  5  1  0
  5  6  2  0
  6  7  1  0
  7  8  2  0
  7  9  1  0
  6 10  1  0
 10 11  2  0
 11 12  1  0
 12 13  1  0
 13 14  2  0
 13 15  1  0
 15 16  1  0
 16 17  2  0
 17 18  1  0
 18 19  2  0
 19 20  1  0
 20 21  1  0
 21 22  3  0
 20 23  2  0
 11 24  1  0
 24 25  2  0
 25 26  1  0
 25  5  1  0
 23 16  1  0
  1 27  1  0
  1 28  1  0
  1 29  1  0
  2 30  1  0
  2 31  1  0
  3 32  1  0
  3 33  1  0
  4 34  1  0
  4 35  1  0
 12 36  1  0
 12 37  1  0
 17 38  1  0
 18 39  1  0
 19 40  1  0
 23 41  1  0
 24 42  1  0
 26 43  1  0
 26 44  1  0
 26 45  1  0
M  CHG  3   9  -1  15  -1  24   1
M  END
>  <UniqueID>  (74) 
69

>  <SMILES>  (74) 
CCCCc1c(C(=O)[O-])nc(CC(=O)[N-]c2cccc(C#N)c2)[nH+]c1C

>  <Energy>  (74) 
49.03935903867245

>  <Genealogy>  (74) 
CCCCc1c(C(=O)[O-])nc(CC(=O)[N-]c2cccc(C#N)c2)[nH+]c1C (protonated)
CCCCc1c(C(=O)[O-])nc(CC(=O)[N-]c2cccc(C#N)c2)[nH+]c1C (3D coordinates assigned)
CCCCc1c(C(=O)[O-])nc(CC(=O)[N-]c2cccc(C#N)c2)[nH+]c1C (optimized conformer: 49.03935903867245 kcal/mol)

>  <smiles>  (74) 
CCCCc1c(C)nc(CC(=O)Nc2cccc(C#N)c2)nc1C(=O)O

>  <score_type>  (74) 
oracle

>  <origin>  (74) 
adg

>  <m_score__min__energy>  (74) 
-9.7200000000000006

>  <m_primary>  (74) 
energy

$$$$
74:0
     RDKit          3D

 35 37  0  0  0  0  0  0  0  0999 V2000
   57.3579   32.6372   48.1234 H   0  0  0  0  0  0  0  0  0  0  0  0
   57.7730   33.0240   47.1810 C   0  0  0  0  0  0  0  0  0  0  0  0
   57.4180   32.4540   45.9980 N   0  0  0  0  0  0  0  0  0  0  0  0
   57.9120   32.9050   44.8120 C   0  0  0  0  0  0  0  0  0  0  0  0
   57.4140   32.1130   43.2860 S   0  0  0  0  0  0  0  0  0  0  0  0
   57.3540   30.4890   44.0440 C   0  0  0  0  0  0  0  0  0  0  0  0
   58.5310   29.8400   44.4180 C   0  0  0  0  0  0  0  0  0  0  0  0
   59.5046   30.3250   44.2541 H   0  0  0  0  0  0  0  0  0  0  0  0
   58.4690   28.5750   45.0000 C   0  0  0  0  0  0  0  0  0  0  0  0
   59.3948   28.0529   45.2836 H   0  0  0  0  0  0  0  0  0  0  0  0
   57.2260   27.9700   45.2230 C   0  0  0  0  0  0  0  0  0  0  0  0
   57.2050   26.7830   45.7690 N   0  0  0  0  0  0  0  0  0  0  0  0
   56.2320   25.7390   45.6100 C   0  0  0  0  0  0  0  0  0  0  0  0
   55.0430   25.9220   45.9920 O   0  0  0  0  0  0  0  0  0  0  0  0
   56.6390   24.4060   45.0930 C   0  0  0  0  0  0  0  0  0  0  0  0
   56.1540   23.9630   43.8460 C   0  0  0  0  0  0  0  0  0  0  0  0
   55.4786   24.6073   43.2640 H   0  0  0  0  0  0  0  0  0  0  0  0
   56.5230   22.7130   43.3420 C   0  0  0  0  0  0  0  0  0  0  0  0
   56.1348   22.3778   42.3689 H   0  0  0  0  0  0  0  0  0  0  0  0
   57.3820   21.8890   44.0690 C   0  0  0  0  0  0  0  0  0  0  0  0
   57.6698   20.9051   43.6701 H   0  0  0  0  0  0  0  0  0  0  0  0
   57.8760   22.3140   45.3030 C   0  0  0  0  0  0  0  0  0  0  0  0
   58.7140   21.5100   46.0030 F   0  0  0  0  0  0  0  0  0  0  0  0
   57.5110   23.5640   45.8190 C   0  0  0  0  0  0  0  0  0  0  0  0
   58.0230   23.9420   47.0170 F   0  0  0  0  0  0  0  0  0  0  0  0
   56.0840   28.6190   44.8300 N   0  0  0  0  0  0  0  0  0  0  0  0
   55.1440   28.1750   44.9140 H   0  0  0  0  0  0  0  0  0  0  0  0
   56.1280   29.8540   44.2600 C   0  0  0  0  0  0  0  0  0  0  0  0
   55.1934   30.3551   43.9677 H   0  0  0  0  0  0  0  0  0  0  0  0
   58.8030   33.9830   44.7910 C   0  0  0  0  0  0  0  0  0  0  0  0
   59.2024   34.3556   43.8362 H   0  0  0  0  0  0  0  0  0  0  0  0
   59.1800   34.5810   45.9950 C   0  0  0  0  0  0  0  0  0  0  0  0
   59.8813   35.4285   45.9941 H   0  0  0  0  0  0  0  0  0  0  0  0
   58.6640   34.1000   47.2010 C   0  0  0  0  0  0  0  0  0  0  0  0
   58.9559   34.5631   48.1551 H   0  0  0  0  0  0  0  0  0  0  0  0
  1  2  1  0
  2  3  2  0
  3  4  1  0
  4  5  1  0
  5  6  1  0
  6  7  1  0
  7  8  1  0
  7  9  2  0
  9 10  1  0
  9 11  1  0
 11 12  2  0
 12 13  1  0
 13 14  2  0
 13 15  1  0
 15 16  2  0
 16 17  1  0
 16 18  1  0
 18 19  1  0
 18 20  2  0
 20 21  1  0
 20 22  1  0
 22 23  1  0
 22 24  2  0
 24 25  1  0
 11 26  1  0
 26 27  1  0
 26 28  1  0
 28 29  1  0
  4 30  2  0
 30 31  1  0
 30 32  1  0
 32 33  1  0
 32 34  2  0
 34 35  1  0
 34  2  1  0
 28  6  2  0
 24 15  1  0
M  END
>  <UniqueID>  (75) 
70

>  <SMILES>  (75) 
O=C(/N=c1/ccc(Sc2ccccn2)c[nH]1)c1cccc(F)c1F

>  <Energy>  (75) 
44.23127906276973

>  <Genealogy>  (75) 
O=C(/N=c1/ccc(Sc2ccccn2)c[nH]1)c1cccc(F)c1F (cis-trans isomerization)
O=C(/N=c1/ccc(Sc2ccccn2)c[nH]1)c1cccc(F)c1F (3D coordinates assigned)
O=C(/N=c1/ccc(Sc2ccccn2)c[nH]1)c1cccc(F)c1F (optimized conformer: 44.23127906276973 kcal/mol)

>  <smiles>  (75) 
O=C(N=c1ccc(Sc2ccccn2)c[nH]1)c1cccc(F)c1F

>  <score_type>  (75) 
oracle

>  <origin>  (75) 
adg

>  <m_score__min__energy>  (75) 
-9.1699999999999999

>  <m_primary>  (75) 
energy

$$$$
75:0
     RDKit          3D

 26 27  0  0  0  0  0  0  0  0999 V2000
   58.5050   33.4280   46.7510 C   0  0  0  0  0  0  0  0  0  0  0  0
   58.2430   33.8430   45.0400 S   0  0  0  0  0  0  0  0  0  0  0  0
   59.3890   34.6920   44.5700 O   0  0  0  0  0  0  0  0  0  0  0  0
   56.9680   34.6210   44.8780 O   0  0  0  0  0  0  0  0  0  0  0  0
   58.1870   32.4010   44.0780 N   0  0  0  0  0  0  0  0  0  0  0  0
   57.6440   31.1380   44.4860 C   0  0  0  0  0  0  0  0  0  0  0  0
   56.2990   30.8670   44.1990 C   0  0  0  0  0  0  0  0  0  0  0  0
   55.7260   29.6480   44.5670 C   0  0  0  0  0  0  0  0  0  0  0  0
   56.4900   28.6880   45.2370 C   0  0  0  0  0  0  0  0  0  0  0  0
   57.8390   28.9480   45.5420 C   0  0  0  0  0  0  0  0  0  0  0  0
   58.4150   30.1680   45.1530 C   0  0  0  0  0  0  0  0  0  0  0  0
   58.6900   27.8680   46.1680 C   0  0  0  0  0  0  0  0  0  0  0  0
   57.8830   26.9690   47.1160 C   0  0  0  0  0  0  0  0  0  0  0  0
   56.5930   26.5420   46.4800 C   0  0  0  0  0  0  0  0  0  0  0  0
   56.0890   25.4200   46.7520 O   0  0  0  0  0  0  0  0  0  0  0  0
   55.8950   27.4450   45.6210 N   0  0  0  0  0  0  0  0  0  0  0  0
   58.0268   34.1855   47.3894 H   0  0  0  0  0  0  0  0  0  0  0  0
   58.0656   32.4416   46.9605 H   0  0  0  0  0  0  0  0  0  0  0  0
   59.5845   33.4005   46.9605 H   0  0  0  0  0  0  0  0  0  0  0  0
   55.6897   31.6211   43.6794 H   0  0  0  0  0  0  0  0  0  0  0  0
   54.6718   29.4428   44.3293 H   0  0  0  0  0  0  0  0  0  0  0  0
   59.4748   30.3666   45.3708 H   0  0  0  0  0  0  0  0  0  0  0  0
   59.1173   27.2456   45.3680 H   0  0  0  0  0  0  0  0  0  0  0  0
   59.4780   28.3590   46.7579 H   0  0  0  0  0  0  0  0  0  0  0  0
   58.4777   26.0761   47.3589 H   0  0  0  0  0  0  0  0  0  0  0  0
   57.6533   27.5377   48.0292 H   0  0  0  0  0  0  0  0  0  0  0  0
  1  2  1  0
  2  3  2  0
  2  4  2  0
  2  5  1  0
  5  6  1  0
  6  7  2  0
  7  8  1  0
  8  9  2  0
  9 10  1  0
 10 11  2  0
 10 12  1  0
 12 13  1  0
 13 14  1  0
 14 15  2  0
 14 16  1  0
 11  6  1  0
 16  9  1  0
  1 17  1  0
  1 18  1  0
  1 19  1  0
  7 20  1  0
  8 21  1  0
 11 22  1  0
 12 23  1  0
 12 24  1  0
 13 25  1  0
 13 26  1  0
M  CHG  2   5  -1  16  -1
M  END
>  <UniqueID>  (76) 
71

>  <SMILES>  (76) 
CS(=O)(=O)[N-]c1ccc2c(c1)CCC(=O)[N-]2

>  <Energy>  (76) 
24.928638603056935

>  <Genealogy>  (76) 
CS(=O)(=O)[N-]c1ccc2c(c1)CCC(=O)[N-]2 (protonated)
CS(=O)(=O)[N-]c1ccc2c(c1)CCC(=O)[N-]2 (3D coordinates assigned)
CS(=O)(=O)[N-]c1ccc2c(c1)CCC(=O)[N-]2 (nonaromatic ring conformer: 24.928638603056935 kcal/mol)

>  <smiles>  (76) 
CS(=O)(=O)Nc1ccc2c(c1)CCC(=O)N2

>  <score_type>  (76) 
oracle

>  <origin>  (76) 
adg

>  <m_score__min__energy>  (76) 
-9.4600000000000009

>  <m_primary>  (76) 
energy

$$$$
76:0
     RDKit          3D

 48 51  0  0  0  0  0  0  0  0999 V2000
   55.1450   26.7090   45.9880 O   0  0  0  0  0  0  0  0  0  0  0  0
   56.1450   25.9880   46.2470 C   0  0  0  0  0  0  0  0  0  0  0  0
   56.0470   24.9980   47.2170 O   0  0  0  0  0  0  0  0  0  0  0  0
   57.4230   26.1800   45.4960 C   0  0  0  0  0  0  0  0  0  0  0  0
   58.3490   26.9980   46.2770 N   0  0  0  0  0  0  0  0  0  0  0  0
   58.9880   26.5440   47.3430 N   0  0  0  0  0  0  0  0  0  0  0  0
   59.6700   27.5690   47.8870 C   0  0  0  0  0  0  0  0  0  0  0  0
   59.4530   28.7180   47.1460 C   0  0  0  0  0  0  0  0  0  0  0  0
   60.0690   30.0350   47.4150 C   0  0  0  0  0  0  0  0  0  0  0  0
   61.2760   30.2150   47.0980 O   0  0  0  0  0  0  0  0  0  0  0  0
   59.2920   31.2010   47.9700 C   0  0  0  0  0  0  0  0  0  0  0  0
   59.9210   32.5460   47.5900 C   0  0  0  0  0  0  0  0  0  0  0  0
   61.0840   32.8750   48.4740 C   0  0  0  0  0  0  0  0  0  0  0  0
   62.1550   32.0840   48.6520 N   0  0  0  0  0  0  0  0  0  0  0  0
   62.9230   32.8090   49.4930 C   0  0  0  0  0  0  0  0  0  0  0  0
   64.2330   32.3810   50.0350 C   0  0  0  0  0  0  0  0  0  0  0  0
   65.3870   33.1200   49.7110 C   0  0  0  0  0  0  0  0  0  0  0  0
   66.6360   32.7400   50.2090 C   0  0  0  0  0  0  0  0  0  0  0  0
   66.7520   31.6150   51.0270 C   0  0  0  0  0  0  0  0  0  0  0  0
   65.6180   30.8650   51.3450 C   0  0  0  0  0  0  0  0  0  0  0  0
   64.3630   31.2380   50.8530 C   0  0  0  0  0  0  0  0  0  0  0  0
   63.2950   30.4520   51.1390 F   0  0  0  0  0  0  0  0  0  0  0  0
   62.3320   33.9800   49.8110 N   0  0  0  0  0  0  0  0  0  0  0  0
   61.2050   33.9870   49.1600 O   0  0  0  0  0  0  0  0  0  0  0  0
   58.5970   28.3190   46.1260 C   0  0  0  0  0  0  0  0  0  0  0  0
   57.9280   29.1810   45.1370 C   0  0  0  0  0  0  0  0  0  0  0  0
   56.5570   29.0310   44.8800 C   0  0  0  0  0  0  0  0  0  0  0  0
   55.9220   29.8640   43.9550 C   0  0  0  0  0  0  0  0  0  0  0  0
   56.6500   30.8550   43.2870 C   0  0  0  0  0  0  0  0  0  0  0  0
   58.0140   31.0120   43.5460 C   0  0  0  0  0  0  0  0  0  0  0  0
   58.6530   30.1820   44.4710 C   0  0  0  0  0  0  0  0  0  0  0  0
   57.8807   25.1990   45.3007 H   0  0  0  0  0  0  0  0  0  0  0  0
   57.2077   26.6897   44.5453 H   0  0  0  0  0  0  0  0  0  0  0  0
   60.3034   27.5036   48.7839 H   0  0  0  0  0  0  0  0  0  0  0  0
   58.2664   31.1645   47.5740 H   0  0  0  0  0  0  0  0  0  0  0  0
   59.2992   31.1215   49.0671 H   0  0  0  0  0  0  0  0  0  0  0  0
   60.2669   32.4973   46.5469 H   0  0  0  0  0  0  0  0  0  0  0  0
   59.1601   33.3308   47.7129 H   0  0  0  0  0  0  0  0  0  0  0  0
   62.3160   31.1310   48.2570 H   0  0  0  0  0  0  0  0  0  0  0  0
   65.3046   34.0034   49.0607 H   0  0  0  0  0  0  0  0  0  0  0  0
   67.5300   33.3288   49.9558 H   0  0  0  0  0  0  0  0  0  0  0  0
   67.7357   31.3196   51.4207 H   0  0  0  0  0  0  0  0  0  0  0  0
   65.7121   29.9760   51.9859 H   0  0  0  0  0  0  0  0  0  0  0  0
   55.9810   28.2564   45.4075 H   0  0  0  0  0  0  0  0  0  0  0  0
   54.8480   29.7405   43.7516 H   0  0  0  0  0  0  0  0  0  0  0  0
   56.1489   31.5097   42.5588 H   0  0  0  0  0  0  0  0  0  0  0  0
   58.5862   31.7908   43.0206 H   0  0  0  0  0  0  0  0  0  0  0  0
   59.7254   30.3131   44.6776 H   0  0  0  0  0  0  0  0  0  0  0  0
  1  2  2  0
  2  3  1  0
  2  4  1  0
  4  5  1  0
  5  6  1  0
  6  7  2  0
  7  8  1  0
  8  9  1  0
  9 10  2  0
  9 11  1  0
 11 12  1  0
 12 13  1  0
 13 14  2  0
 14 15  1  0
 15 16  1  0
 16 17  2  0
 17 18  1  0
 18 19  2  0
 19 20  1  0
 20 21  2  0
 21 22  1  0
 15 23  2  0
 23 24  1  0
  8 25  2  0
 25 26  1  0
 26 27  2  0
 27 28  1  0
 28 29  2  0
 29 30  1  0
 30 31  2  0
 25  5  1  0
 31 26  1  0
 24 13  1  0
 21 16  1  0
  4 32  1  0
  4 33  1  0
  7 34  1  0
 11 35  1  0
 11 36  1  0
 12 37  1  0
 12 38  1  0
 14 39  1  0
 17 40  1  0
 18 41  1  0
 19 42  1  0
 20 43  1  0
 27 44  1  0
 28 45  1  0
 29 46  1  0
 30 47  1  0
 31 48  1  0
M  CHG  2   3  -1  14   1
M  END
>  <UniqueID>  (77) 
72

>  <SMILES>  (77) 
O=C([O-])Cn1ncc(C(=O)CCc2[nH+]c(-c3ccccc3F)no2)c1-c1ccccc1

>  <Energy>  (77) 
122.81344891535676

>  <Genealogy>  (77) 
O=C([O-])Cn1ncc(C(=O)CCc2[nH+]c(-c3ccccc3F)no2)c1-c1ccccc1 (protonated)
O=C([O-])Cn1ncc(C(=O)CCc2[nH+]c(-c3ccccc3F)no2)c1-c1ccccc1 (3D coordinates assigned)
O=C([O-])Cn1ncc(C(=O)CCc2[nH+]c(-c3ccccc3F)no2)c1-c1ccccc1 (optimized conformer: 122.81344891535676 kcal/mol)

>  <smiles>  (77) 
O=C(O)Cn1ncc(C(=O)CCc2nc(-c3ccccc3F)no2)c1-c1ccccc1

>  <score_type>  (77) 
oracle

>  <origin>  (77) 
adg

>  <m_score__min__energy>  (77) 
-10.550000000000001

>  <m_primary>  (77) 
energy

$$$$
77:0
     RDKit          3D

 49 51  0  0  0  0  0  0  0  0999 V2000
   63.3200   33.5150   47.1020 C   0  0  0  0  0  0  0  0  0  0  0  0
   62.6200   32.6070   48.1090 C   0  0  0  0  0  0  0  0  0  0  0  0
   62.1940   31.2850   47.4620 C   0  0  0  0  0  0  0  0  0  0  0  0
   61.1280   30.6520   48.2530 N   0  0  0  0  0  0  0  0  0  0  0  0
   60.0390   29.9320   47.5710 C   0  0  0  0  0  0  0  0  0  0  0  0
   60.2880   29.8470   46.0520 C   0  0  0  0  0  0  0  0  0  0  0  0
   58.9870   29.8370   45.2520 C   0  0  0  0  0  0  0  0  0  0  0  0
   61.2320   30.6640   49.6930 C   0  0  0  0  0  0  0  0  0  0  0  0
   62.3670   30.5530   50.2310 O   0  0  0  0  0  0  0  0  0  0  0  0
   60.0530   30.8740   50.5570 C   0  0  0  0  0  0  0  0  0  0  0  0
   59.2330   29.9350   50.7340 O   0  0  0  0  0  0  0  0  0  0  0  0
   59.7700   32.1930   51.1580 C   0  0  0  0  0  0  0  0  0  0  0  0
   59.3690   33.3540   50.4860 C   0  0  0  0  0  0  0  0  0  0  0  0
   59.2690   33.5590   49.0240 C   0  0  0  0  0  0  0  0  0  0  0  0
   58.4070   32.7550   48.2600 C   0  0  0  0  0  0  0  0  0  0  0  0
   58.3000   32.9450   46.8790 C   0  0  0  0  0  0  0  0  0  0  0  0
   59.0430   33.9470   46.2490 C   0  0  0  0  0  0  0  0  0  0  0  0
   58.9070   34.1840   44.5160 Cl  0  0  0  0  0  0  0  0  0  0  0  0
   59.8910   34.7640   47.0040 C   0  0  0  0  0  0  0  0  0  0  0  0
   60.0010   34.5760   48.3840 C   0  0  0  0  0  0  0  0  0  0  0  0
   59.0940   34.3180   51.3950 N   0  0  0  0  0  0  0  0  0  0  0  0
   59.3280   33.7390   52.5840 C   0  0  0  0  0  0  0  0  0  0  0  0
   59.1550   34.3340   53.7900 N   0  0  0  0  0  0  0  0  0  0  0  0
   59.3910   33.6120   54.9230 C   0  0  0  0  0  0  0  0  0  0  0  0
   59.7950   32.2660   54.8390 C   0  0  0  0  0  0  0  0  0  0  0  0
   59.9580   31.6870   53.5740 C   0  0  0  0  0  0  0  0  0  0  0  0
   59.7320   32.4620   52.4820 N   0  0  0  0  0  0  0  0  0  0  0  0
   63.9061   34.2752   47.6392 H   0  0  0  0  0  0  0  0  0  0  0  0
   63.9906   32.9138   46.4704 H   0  0  0  0  0  0  0  0  0  0  0  0
   62.5680   34.0105   46.4704 H   0  0  0  0  0  0  0  0  0  0  0  0
   63.3091   32.3941   48.9395 H   0  0  0  0  0  0  0  0  0  0  0  0
   61.7191   33.1218   48.4741 H   0  0  0  0  0  0  0  0  0  0  0  0
   61.8239   31.4811   46.4448 H   0  0  0  0  0  0  0  0  0  0  0  0
   63.0610   30.6091   47.4228 H   0  0  0  0  0  0  0  0  0  0  0  0
   59.9716   28.9133   47.9805 H   0  0  0  0  0  0  0  0  0  0  0  0
   59.1012   30.4820   47.7386 H   0  0  0  0  0  0  0  0  0  0  0  0
   60.8872   30.7160   45.7424 H   0  0  0  0  0  0  0  0  0  0  0  0
   60.8154   28.9032   45.8493 H   0  0  0  0  0  0  0  0  0  0  0  0
   58.1315   29.8304   45.9434 H   0  0  0  0  0  0  0  0  0  0  0  0
   58.9394   30.7348   44.6182 H   0  0  0  0  0  0  0  0  0  0  0  0
   58.9532   28.9386   44.6182 H   0  0  0  0  0  0  0  0  0  0  0  0
   57.8123   31.9709   48.7514 H   0  0  0  0  0  0  0  0  0  0  0  0
   57.6296   32.3045   46.2871 H   0  0  0  0  0  0  0  0  0  0  0  0
   60.4726   35.5563   46.5100 H   0  0  0  0  0  0  0  0  0  0  0  0
   60.6636   35.2267   48.9735 H   0  0  0  0  0  0  0  0  0  0  0  0
   58.7800   35.2990   51.2190 H   0  0  0  0  0  0  0  0  0  0  0  0
   59.2649   34.0844   55.9084 H   0  0  0  0  0  0  0  0  0  0  0  0
   59.9795   31.6792   55.7509 H   0  0  0  0  0  0  0  0  0  0  0  0
   60.2604   30.6347   53.4682 H   0  0  0  0  0  0  0  0  0  0  0  0
  1  2  1  0
  2  3  1  0
  3  4  1  0
  4  5  1  0
  5  6  1  0
  6  7  1  0
  4  8  1  0
  8  9  2  0
  8 10  1  0
 10 11  2  0
 10 12  1  0
 12 13  2  0
 13 14  1  0
 14 15  2  0
 15 16  1  0
 16 17  2  0
 17 18  1  0
 17 19  1  0
 19 20  2  0
 13 21  1  0
 21 22  2  0
 22 23  1  0
 23 24  2  0
 24 25  1  0
 25 26  2  0
 26 27  1  0
 27 12  1  0
 20 14  1  0
 27 22  1  0
  1 28  1  0
  1 29  1  0
  1 30  1  0
  2 31  1  0
  2 32  1  0
  3 33  1  0
  3 34  1  0
  5 35  1  0
  5 36  1  0
  6 37  1  0
  6 38  1  0
  7 39  1  0
  7 40  1  0
  7 41  1  0
 15 42  1  0
 16 43  1  0
 19 44  1  0
 20 45  1  0
 21 46  1  0
 24 47  1  0
 25 48  1  0
 26 49  1  0
M  CHG  1  21   1
M  END
>  <UniqueID>  (78) 
73

>  <SMILES>  (78) 
CCCN(CCC)C(=O)C(=O)c1c(-c2ccc(Cl)cc2)[nH+]c2ncccn12

>  <Energy>  (78) 
91.15818379152257

>  <Genealogy>  (78) 
CCCN(CCC)C(=O)C(=O)c1c(-c2ccc(Cl)cc2)[nH+]c2ncccn12 (protonated)
CCCN(CCC)C(=O)C(=O)c1c(-c2ccc(Cl)cc2)[nH+]c2ncccn12 (3D coordinates assigned)
CCCN(CCC)C(=O)C(=O)c1c(-c2ccc(Cl)cc2)[nH+]c2ncccn12 (optimized conformer: 91.15818379152257 kcal/mol)

>  <smiles>  (78) 
CCCN(CCC)C(=O)C(=O)c1c(-c2ccc(Cl)cc2)nc2ncccn12

>  <score_type>  (78) 
oracle

>  <origin>  (78) 
adg

>  <m_score__min__energy>  (78) 
-6.1100000000000003

>  <m_primary>  (78) 
energy

$$$$
78:0
     RDKit          3D

 31 33  0  0  0  0  0  0  0  0999 V2000
   56.9830   34.5280   44.8860 C   0  0  0  0  0  0  0  0  0  0  0  0
   57.9690   33.8070   45.7460 C   0  0  0  0  0  0  0  0  0  0  0  0
   58.6710   34.3910   46.7360 N   0  0  0  0  0  0  0  0  0  0  0  0
   59.4710   33.4670   47.2500 N   0  0  0  0  0  0  0  0  0  0  0  0
   60.3500   33.6960   48.3890 C   0  0  0  0  0  0  0  0  0  0  0  0
   59.2920   32.2910   46.6190 C   0  0  0  0  0  0  0  0  0  0  0  0
   58.3440   32.4800   45.6380 C   0  0  0  0  0  0  0  0  0  0  0  0
   57.7490   31.2780   44.5030 S   0  0  0  0  0  0  0  0  0  0  0  0
   57.8290   31.8000   43.0960 O   0  0  0  0  0  0  0  0  0  0  0  0
   56.3190   30.9610   44.8330 O   0  0  0  0  0  0  0  0  0  0  0  0
   58.6910   29.8270   44.6280 N   0  0  0  0  0  0  0  0  0  0  0  0
   58.2570   28.6150   45.2610 C   0  0  0  0  0  0  0  0  0  0  0  0
   59.2290   27.8010   45.8940 C   0  0  0  0  0  0  0  0  0  0  0  0
   58.8630   26.5970   46.5230 C   0  0  0  0  0  0  0  0  0  0  0  0
   57.5200   26.2440   46.4990 C   0  0  0  0  0  0  0  0  0  0  0  0
   56.8380   25.1630   47.0020 C   0  0  0  0  0  0  0  0  0  0  0  0
   55.5280   25.3150   46.6930 N   0  0  0  0  0  0  0  0  0  0  0  0
   55.3630   26.4490   46.0160 N   0  0  0  0  0  0  0  0  0  0  0  0
   56.5750   27.0180   45.8960 C   0  0  0  0  0  0  0  0  0  0  0  0
   56.8980   28.2150   45.2630 C   0  0  0  0  0  0  0  0  0  0  0  0
   56.2591   35.0574   45.5229 H   0  0  0  0  0  0  0  0  0  0  0  0
   57.5121   35.2538   44.2509 H   0  0  0  0  0  0  0  0  0  0  0  0
   56.4518   33.8038   44.2509 H   0  0  0  0  0  0  0  0  0  0  0  0
   59.7866   33.5492   49.3223 H   0  0  0  0  0  0  0  0  0  0  0  0
   61.1900   32.9867   48.3524 H   0  0  0  0  0  0  0  0  0  0  0  0
   60.7371   34.7250   48.3524 H   0  0  0  0  0  0  0  0  0  0  0  0
   59.8104   31.3478   46.8464 H   0  0  0  0  0  0  0  0  0  0  0  0
   60.2834   28.1146   45.8936 H   0  0  0  0  0  0  0  0  0  0  0  0
   59.6121   25.9594   47.0152 H   0  0  0  0  0  0  0  0  0  0  0  0
   57.2782   24.3220   47.5578 H   0  0  0  0  0  0  0  0  0  0  0  0
   56.1239   28.8297   44.7805 H   0  0  0  0  0  0  0  0  0  0  0  0
  1  2  1  0
  2  3  2  0
  3  4  1  0
  4  5  1  0
  4  6  1  0
  6  7  2  0
  7  8  1  0
  8  9  2  0
  8 10  2  0
  8 11  1  0
 11 12  1  0
 12 13  1  0
 13 14  2  0
 14 15  1  0
 15 16  2  0
 16 17  1  0
 17 18  1  0
 18 19  2  0
 19 20  1  0
  7  2  1  0
 20 12  2  0
 19 15  1  0
  1 21  1  0
  1 22  1  0
  1 23  1  0
  5 24  1  0
  5 25  1  0
  5 26  1  0
  6 27  1  0
 13 28  1  0
 14 29  1  0
 16 30  1  0
 20 31  1  0
M  CHG  2  11  -1  17  -1
M  END
>  <UniqueID>  (79) 
74

>  <SMILES>  (79) 
Cc1nn(C)cc1S(=O)(=O)[N-]c1ccc2c[n-]nc2c1

>  <Energy>  (79) 
101.74203051967514

>  <Genealogy>  (79) 
Cc1nn(C)cc1S(=O)(=O)[N-]c1ccc2c[n-]nc2c1 (protonated)
Cc1nn(C)cc1S(=O)(=O)[N-]c1ccc2c[n-]nc2c1 (3D coordinates assigned)
Cc1nn(C)cc1S(=O)(=O)[N-]c1ccc2c[n-]nc2c1 (optimized conformer: 101.74203051967514 kcal/mol)

>  <smiles>  (79) 
Cc1nn(C)cc1S(=O)(=O)Nc1ccc2c[nH]nc2c1

>  <score_type>  (79) 
oracle

>  <origin>  (79) 
adg

>  <m_score__min__energy>  (79) 
-10.83

>  <m_primary>  (79) 
energy

$$$$
79:0
     RDKit          3D

 52 54  0  0  0  0  0  0  0  0999 V2000
   59.0703   29.5263   46.0887 H   0  0  0  0  0  0  0  0  0  0  0  0
   59.2400   30.6090   46.1830 C   0  0  0  0  0  0  0  0  0  0  0  0
   60.4260   31.0780   46.7540 C   0  0  0  0  0  0  0  0  0  0  0  0
   61.1765   30.3575   47.1113 H   0  0  0  0  0  0  0  0  0  0  0  0
   60.6770   32.4650   46.8800 C   0  0  0  0  0  0  0  0  0  0  0  0
   61.9710   33.0280   47.5040 C   0  0  0  0  0  0  0  0  0  0  0  0
   61.7070   33.9730   48.7010 C   0  0  0  0  0  0  0  0  0  0  0  0
   61.8603   33.4244   49.6420 H   0  0  0  0  0  0  0  0  0  0  0  0
   62.4016   34.8248   48.6558 H   0  0  0  0  0  0  0  0  0  0  0  0
   60.6715   34.3415   48.6558 H   0  0  0  0  0  0  0  0  0  0  0  0
   62.7490   33.8300   46.4380 C   0  0  0  0  0  0  0  0  0  0  0  0
   63.4322   34.5343   46.9353 H   0  0  0  0  0  0  0  0  0  0  0  0
   63.3292   33.1381   45.8097 H   0  0  0  0  0  0  0  0  0  0  0  0
   62.0398   34.3889   45.8097 H   0  0  0  0  0  0  0  0  0  0  0  0
   62.8470   31.8620   48.0100 C   0  0  0  0  0  0  0  0  0  0  0  0
   62.8509   31.8568   49.1100 H   0  0  0  0  0  0  0  0  0  0  0  0
   62.4391   30.9097   47.6403 H   0  0  0  0  0  0  0  0  0  0  0  0
   63.8752   31.9886   47.6403 H   0  0  0  0  0  0  0  0  0  0  0  0
   59.6930   33.3550   46.3930 C   0  0  0  0  0  0  0  0  0  0  0  0
   59.8613   34.4396   46.4663 H   0  0  0  0  0  0  0  0  0  0  0  0
   58.5100   32.8810   45.8200 C   0  0  0  0  0  0  0  0  0  0  0  0
   57.7657   33.5947   45.4371 H   0  0  0  0  0  0  0  0  0  0  0  0
   58.2640   31.5090   45.7290 C   0  0  0  0  0  0  0  0  0  0  0  0
   57.0450   31.0670   45.1160 N   0  0  0  0  0  0  0  0  0  0  0  0
   56.6460   29.7090   44.8940 C   0  0  0  0  0  0  0  0  0  0  0  0
   55.4240   29.4010   44.8600 O   0  0  0  0  0  0  0  0  0  0  0  0
   57.6510   28.7230   44.6170 N   0  0  0  0  0  0  0  0  0  0  0  0
   58.6050   29.0680   44.3660 H   0  0  0  0  0  0  0  0  0  0  0  0
   57.4040   27.3080   44.5660 C   0  0  0  0  0  0  0  0  0  0  0  0
   56.8150   26.6250   45.6470 C   0  0  0  0  0  0  0  0  0  0  0  0
   56.5139   27.1810   46.5471 H   0  0  0  0  0  0  0  0  0  0  0  0
   56.6110   25.2440   45.5820 C   0  0  0  0  0  0  0  0  0  0  0  0
   56.1424   24.7192   46.4275 H   0  0  0  0  0  0  0  0  0  0  0  0
   57.0010   24.5250   44.4440 C   0  0  0  0  0  0  0  0  0  0  0  0
   56.7720   22.7810   44.3600 S   0  0  0  0  0  0  0  0  0  0  0  0
   58.1050   22.1040   44.5100 O   0  0  0  0  0  0  0  0  0  0  0  0
   56.1800   22.3840   43.0370 O   0  0  0  0  0  0  0  0  0  0  0  0
   55.7220   22.2670   45.6400 N   0  0  0  0  0  0  0  0  0  0  0  0
   56.1040   22.1810   46.8770 C   0  0  0  0  0  0  0  0  0  0  0  0
   57.3780   22.3190   47.2930 N   0  0  0  0  0  0  0  0  0  0  0  0
   57.3540   22.1660   48.5860 O   0  0  0  0  0  0  0  0  0  0  0  0
   56.1320   21.9350   49.0140 C   0  0  0  0  0  0  0  0  0  0  0  0
   55.7590   21.7370   50.4430 C   0  0  0  0  0  0  0  0  0  0  0  0
   56.5457   22.1546   51.0885 H   0  0  0  0  0  0  0  0  0  0  0  0
   54.8069   22.2484   50.6477 H   0  0  0  0  0  0  0  0  0  0  0  0
   55.6491   20.6618   50.6477 H   0  0  0  0  0  0  0  0  0  0  0  0
   55.2660   21.9370   47.9400 C   0  0  0  0  0  0  0  0  0  0  0  0
   54.1770   21.7821   47.9351 H   0  0  0  0  0  0  0  0  0  0  0  0
   57.6130   25.1960   43.3780 C   0  0  0  0  0  0  0  0  0  0  0  0
   57.9332   24.6349   42.4877 H   0  0  0  0  0  0  0  0  0  0  0  0
   57.8180   26.5780   43.4430 C   0  0  0  0  0  0  0  0  0  0  0  0
   58.3082   27.0965   42.6059 H   0  0  0  0  0  0  0  0  0  0  0  0
  1  2  1  0
  2  3  2  0
  3  4  1  0
  3  5  1  0
  5  6  1  0
  6  7  1  0
  7  8  1  0
  7  9  1  0
  7 10  1  0
  6 11  1  0
 11 12  1  0
 11 13  1  0
 11 14  1  0
  6 15  1  0
 15 16  1  0
 15 17  1  0
 15 18  1  0
  5 19  2  0
 19 20  1  0
 19 21  1  0
 21 22  1  0
 21 23  2  0
 23 24  1  0
 24 25  1  0
 25 26  2  0
 25 27  1  0
 27 28  1  0
 27 29  1  0
 29 30  2  0
 30 31  1  0
 30 32  1  0
 32 33  1  0
 32 34  2  0
 34 35  1  0
 35 36  2  0
 35 37  2  0
 35 38  1  0
 38 39  2  0
 39 40  1  0
 40 41  1  0
 41 42  1  0
 42 43  1  0
 43 44  1  0
 43 45  1  0
 43 46  1  0
 42 47  2  0
 47 48  1  0
 34 49  1  0
 49 50  1  0
 49 51  2  0
 51 52  1  0
 23  2  1  0
 51 29  1  0
 47 39  1  0
M  CHG  2  24  -1  40  -1
M  END
>  <UniqueID>  (80) 
75

>  <SMILES>  (80) 
Cc1c/c(=N/S(=O)(=O)c2ccc(NC(=O)[N-]c3ccc(C(C)(C)C)cc3)cc2)[n-]o1

>  <Energy>  (80) 
94.23073657040463

>  <Genealogy>  (80) 
Cc1cc(=NS(=O)(=O)c2ccc(NC(=O)[N-]c3ccc(C(C)(C)C)cc3)cc2)[n-]o1 (protonated)
Cc1c/c(=N/S(=O)(=O)c2ccc(NC(=O)[N-]c3ccc(C(C)(C)C)cc3)cc2)[n-]o1 (cis-trans isomerization)
Cc1c/c(=N/S(=O)(=O)c2ccc(NC(=O)[N-]c3ccc(C(C)(C)C)cc3)cc2)[n-]o1 (3D coordinates assigned)
Cc1c/c(=N/S(=O)(=O)c2ccc(NC(=O)[N-]c3ccc(C(C)(C)C)cc3)cc2)[n-]o1 (optimized conformer: 94.23073657040463 kcal/mol)

>  <smiles>  (80) 
Cc1cc(=NS(=O)(=O)c2ccc(NC(=O)Nc3ccc(C(C)(C)C)cc3)cc2)[nH]o1

>  <score_type>  (80) 
oracle

>  <origin>  (80) 
adg

>  <m_score__min__energy>  (80) 
-12.77

>  <m_primary>  (80) 
energy

$$$$
80:0
     RDKit          3D

 52 54  0  0  0  0  0  0  0  0999 V2000
   57.9750   29.7208   47.6852 H   0  0  0  0  0  0  0  0  0  0  0  0
   58.9320   29.1900   47.7970 C   0  0  0  0  0  0  0  0  0  0  0  0
   58.9470   27.9570   48.2040 N   0  0  0  0  0  0  0  0  0  0  0  0
   59.5000   26.8330   47.5010 C   0  0  0  0  0  0  0  0  0  0  0  0
   60.7530   26.7190   47.4500 O   0  0  0  0  0  0  0  0  0  0  0  0
   58.6570   25.7430   46.8820 C   0  0  0  0  0  0  0  0  0  0  0  0
   59.1709   24.7789   47.0102 H   0  0  0  0  0  0  0  0  0  0  0  0
   57.6789   25.7390   47.3854 H   0  0  0  0  0  0  0  0  0  0  0  0
   58.4230   25.9860   45.3860 C   0  0  0  0  0  0  0  0  0  0  0  0
   59.3697   25.8225   44.8503 H   0  0  0  0  0  0  0  0  0  0  0  0
   57.6422   25.2863   45.0531 H   0  0  0  0  0  0  0  0  0  0  0  0
   57.9380   27.3840   45.0940 C   0  0  0  0  0  0  0  0  0  0  0  0
   56.6530   27.7920   45.4770 C   0  0  0  0  0  0  0  0  0  0  0  0
   55.9714   27.0756   45.9589 H   0  0  0  0  0  0  0  0  0  0  0  0
   56.2460   29.0700   45.2550 N   0  0  0  0  0  0  0  0  0  0  0  0
   57.0420   29.9850   44.6310 C   0  0  0  0  0  0  0  0  0  0  0  0
   56.6630   31.2220   44.4820 N   0  0  0  0  0  0  0  0  0  0  0  0
   57.5110   32.3450   44.1930 C   0  0  0  0  0  0  0  0  0  0  0  0
   57.6530   32.6930   42.9910 O   0  0  0  0  0  0  0  0  0  0  0  0
   58.1750   33.1370   45.2550 C   0  0  0  0  0  0  0  0  0  0  0  0
   58.9710   34.2500   44.9310 C   0  0  0  0  0  0  0  0  0  0  0  0
   59.0763   34.5616   43.8813 H   0  0  0  0  0  0  0  0  0  0  0  0
   59.6300   34.9630   45.9400 C   0  0  0  0  0  0  0  0  0  0  0  0
   60.2545   35.8306   45.6808 H   0  0  0  0  0  0  0  0  0  0  0  0
   59.4960   34.5750   47.2740 C   0  0  0  0  0  0  0  0  0  0  0  0
   60.0077   35.1423   48.0654 H   0  0  0  0  0  0  0  0  0  0  0  0
   58.7120   33.4660   47.6050 C   0  0  0  0  0  0  0  0  0  0  0  0
   58.6082   33.1606   48.6566 H   0  0  0  0  0  0  0  0  0  0  0  0
   58.0600   32.7450   46.6010 C   0  0  0  0  0  0  0  0  0  0  0  0
   57.4535   31.8660   46.8648 H   0  0  0  0  0  0  0  0  0  0  0  0
   58.3180   29.6050   44.2020 C   0  0  0  0  0  0  0  0  0  0  0  0
   58.9630   30.3263   43.6789 H   0  0  0  0  0  0  0  0  0  0  0  0
   58.7680   28.3070   44.4410 C   0  0  0  0  0  0  0  0  0  0  0  0
   59.7753   28.0065   44.1170 H   0  0  0  0  0  0  0  0  0  0  0  0
   60.1970   29.8780   47.4850 C   0  0  0  0  0  0  0  0  0  0  0  0
   60.5350   29.9980   46.2750 O   0  0  0  0  0  0  0  0  0  0  0  0
   61.0570   30.3940   48.5280 N   0  0  0  0  0  0  0  0  0  0  0  0
   61.8680   31.5620   48.2930 C   0  0  0  0  0  0  0  0  0  0  0  0
   62.7730   31.5980   47.2180 C   0  0  0  0  0  0  0  0  0  0  0  0
   62.8701   30.7262   46.5543 H   0  0  0  0  0  0  0  0  0  0  0  0
   63.5500   32.7370   46.9890 C   0  0  0  0  0  0  0  0  0  0  0  0
   64.2598   32.7581   46.1489 H   0  0  0  0  0  0  0  0  0  0  0  0
   63.4260   33.8500   47.8270 C   0  0  0  0  0  0  0  0  0  0  0  0
   64.0415   34.7441   47.6487 H   0  0  0  0  0  0  0  0  0  0  0  0
   62.5200   33.8260   48.8910 C   0  0  0  0  0  0  0  0  0  0  0  0
   62.4200   34.7031   49.5473 H   0  0  0  0  0  0  0  0  0  0  0  0
   61.7410   32.6890   49.1220 C   0  0  0  0  0  0  0  0  0  0  0  0
   61.0250   32.6764   49.9569 H   0  0  0  0  0  0  0  0  0  0  0  0
   61.1290   29.7310   49.8340 C   0  0  0  0  0  0  0  0  0  0  0  0
   61.0473   30.4835   50.6322 H   0  0  0  0  0  0  0  0  0  0  0  0
   60.3040   29.0091   49.9247 H   0  0  0  0  0  0  0  0  0  0  0  0
   62.0898   29.2031   49.9247 H   0  0  0  0  0  0  0  0  0  0  0  0
  1  2  1  0
  2  3  2  3
  3  4  1  0
  4  5  2  0
  4  6  1  0
  6  7  1  0
  6  8  1  0
  6  9  1  0
  9 10  1  0
  9 11  1  0
  9 12  1  0
 12 13  2  0
 13 14  1  0
 13 15  1  0
 15 16  1  0
 16 17  2  0
 17 18  1  0
 18 19  2  0
 18 20  1  0
 20 21  2  0
 21 22  1  0
 21 23  1  0
 23 24  1  0
 23 25  2  0
 25 26  1  0
 25 27  1  0
 27 28  1  0
 27 29  2  0
 29 30  1  0
 16 31  1  0
 31 32  1  0
 31 33  2  0
 33 34  1  0
  2 35  1  0
 35 36  2  0
 35 37  1  0
 37 38  1  0
 38 39  2  0
 39 40  1  0
 39 41  1  0
 41 42  1  0
 41 43  2  0
 43 44  1  0
 43 45  1  0
 45 46  1  0
 45 47  2  0
 47 48  1  0
 37 49  1  0
 49 50  1  0
 49 51  1  0
 49 52  1  0
 33 12  1  0
 47 38  1  0
 29 20  1  0
M  CHG  1  15  -1
M  END
>  <UniqueID>  (81) 
76

>  <SMILES>  (81) 
CN(C(=O)C=NC(=O)CCc1cc/c(=N/C(=O)c2ccccc2)[n-]c1)c1ccccc1

>  <Energy>  (81) 
63.73765942093

>  <Genealogy>  (81) 
CN(C(=O)C=NC(=O)CCc1ccc(=NC(=O)c2ccccc2)[n-]c1)c1ccccc1 (protonated)
CN(C(=O)C=NC(=O)CCc1cc/c(=N/C(=O)c2ccccc2)[n-]c1)c1ccccc1 (cis-trans isomerization)
CN(C(=O)C=NC(=O)CCc1cc/c(=N/C(=O)c2ccccc2)[n-]c1)c1ccccc1 (3D coordinates assigned)
CN(C(=O)C=NC(=O)CCc1cc/c(=N/C(=O)c2ccccc2)[n-]c1)c1ccccc1 (optimized conformer: 63.73765942093 kcal/mol)

>  <smiles>  (81) 
CN(C(=O)C=NC(=O)CCc1ccc(=NC(=O)c2ccccc2)[nH]c1)c1ccccc1

>  <score_type>  (81) 
oracle

>  <origin>  (81) 
adg

>  <m_score__min__energy>  (81) 
-11.890000000000001

>  <m_primary>  (81) 
energy

$$$$
81:0
     RDKit          3D

 64 67  0  0  0  0  0  0  0  0999 V2000
   52.2300   22.9700   45.6750 C   0  0  0  0  0  0  0  0  0  0  0  0
   53.4580   22.6810   45.0110 O   0  0  0  0  0  0  0  0  0  0  0  0
   54.5620   23.5450   44.9800 C   0  0  0  0  0  0  0  0  0  0  0  0
   54.8110   24.4910   45.9940 C   0  0  0  0  0  0  0  0  0  0  0  0
   55.9220   25.3360   45.9090 C   0  0  0  0  0  0  0  0  0  0  0  0
   56.7860   25.2590   44.8100 C   0  0  0  0  0  0  0  0  0  0  0  0
   58.1160   26.4020   44.6520 S   0  0  0  0  0  0  0  0  0  0  0  0
   58.4110   26.6330   43.1950 O   0  0  0  0  0  0  0  0  0  0  0  0
   59.3530   25.8410   45.2960 O   0  0  0  0  0  0  0  0  0  0  0  0
   57.6880   27.9060   45.4130 N   0  0  0  0  0  0  0  0  0  0  0  0
   56.3410   28.4570   45.2430 C   0  0  0  0  0  0  0  0  0  0  0  0
   56.3390   29.6140   44.2860 C   0  0  0  0  0  0  0  0  0  0  0  0
   55.9130   29.4760   43.1110 O   0  0  0  0  0  0  0  0  0  0  0  0
   56.7560   30.9000   44.7510 N   0  0  0  0  0  0  0  0  0  0  0  0
   57.8440   31.6640   44.1440 C   0  0  0  0  0  0  0  0  0  0  0  0
   57.7180   33.1580   44.4710 C   0  0  0  0  0  0  0  0  0  0  0  0
   58.3360   33.4860   45.8090 C   0  0  0  0  0  0  0  0  0  0  0  0
   59.1050   34.6520   45.9700 C   0  0  0  0  0  0  0  0  0  0  0  0
   59.6540   34.9700   47.2170 C   0  0  0  0  0  0  0  0  0  0  0  0
   59.4360   34.1290   48.3130 C   0  0  0  0  0  0  0  0  0  0  0  0
   58.6530   32.9800   48.1680 C   0  0  0  0  0  0  0  0  0  0  0  0
   58.1010   32.6600   46.9210 C   0  0  0  0  0  0  0  0  0  0  0  0
   58.6670   28.6100   46.1910 C   0  0  0  0  0  0  0  0  0  0  0  0
   58.5050   28.7360   47.5800 C   0  0  0  0  0  0  0  0  0  0  0  0
   59.4870   29.3690   48.3470 C   0  0  0  0  0  0  0  0  0  0  0  0
   60.6520   29.8620   47.7440 C   0  0  0  0  0  0  0  0  0  0  0  0
   61.6170   30.4830   48.5510 O   0  0  0  0  0  0  0  0  0  0  0  0
   62.3730   31.6140   48.2030 C   0  0  0  0  0  0  0  0  0  0  0  0
   61.9570   32.3840   47.1080 C   0  0  0  0  0  0  0  0  0  0  0  0
   62.6590   33.5390   46.7470 C   0  0  0  0  0  0  0  0  0  0  0  0
   63.7800   33.9370   47.4820 C   0  0  0  0  0  0  0  0  0  0  0  0
   64.1970   33.1810   48.5840 C   0  0  0  0  0  0  0  0  0  0  0  0
   63.4930   32.0290   48.9520 C   0  0  0  0  0  0  0  0  0  0  0  0
   60.8010   29.7540   46.3500 C   0  0  0  0  0  0  0  0  0  0  0  0
   59.8180   29.1250   45.5810 C   0  0  0  0  0  0  0  0  0  0  0  0
   56.5500   24.3070   43.8100 C   0  0  0  0  0  0  0  0  0  0  0  0
   55.4450   23.4560   43.8990 C   0  0  0  0  0  0  0  0  0  0  0  0
   52.3844   22.9337   46.7635 H   0  0  0  0  0  0  0  0  0  0  0  0
   51.8848   23.9739   45.3869 H   0  0  0  0  0  0  0  0  0  0  0  0
   51.4733   22.2254   45.3869 H   0  0  0  0  0  0  0  0  0  0  0  0
   54.1299   24.5651   46.8546 H   0  0  0  0  0  0  0  0  0  0  0  0
   56.1180   26.0646   46.7094 H   0  0  0  0  0  0  0  0  0  0  0  0
   55.6787   27.6696   44.8539 H   0  0  0  0  0  0  0  0  0  0  0  0
   55.9879   28.8161   46.2210 H   0  0  0  0  0  0  0  0  0  0  0  0
   58.8041   31.2912   44.5303 H   0  0  0  0  0  0  0  0  0  0  0  0
   57.7924   31.5393   43.0523 H   0  0  0  0  0  0  0  0  0  0  0  0
   58.2289   33.7393   43.6893 H   0  0  0  0  0  0  0  0  0  0  0  0
   56.6488   33.4130   44.5131 H   0  0  0  0  0  0  0  0  0  0  0  0
   59.2759   35.3177   45.1111 H   0  0  0  0  0  0  0  0  0  0  0  0
   60.2575   35.8820   47.3355 H   0  0  0  0  0  0  0  0  0  0  0  0
   59.8808   34.3717   49.2894 H   0  0  0  0  0  0  0  0  0  0  0  0
   58.4702   32.3267   49.0339 H   0  0  0  0  0  0  0  0  0  0  0  0
   57.4808   31.7581   46.8119 H   0  0  0  0  0  0  0  0  0  0  0  0
   57.6030   28.3355   48.0657 H   0  0  0  0  0  0  0  0  0  0  0  0
   59.3444   29.4811   49.4319 H   0  0  0  0  0  0  0  0  0  0  0  0
   61.0731   32.0782   46.5290 H   0  0  0  0  0  0  0  0  0  0  0  0
   62.3286   34.1350   45.8835 H   0  0  0  0  0  0  0  0  0  0  0  0
   64.3336   34.8431   47.1946 H   0  0  0  0  0  0  0  0  0  0  0  0
   65.0796   33.4931   49.1616 H   0  0  0  0  0  0  0  0  0  0  0  0
   63.8142   31.4459   49.8277 H   0  0  0  0  0  0  0  0  0  0  0  0
   61.6962   30.1669   45.8620 H   0  0  0  0  0  0  0  0  0  0  0  0
   59.9487   29.0340   44.4926 H   0  0  0  0  0  0  0  0  0  0  0  0
   57.2355   24.2291   42.9533 H   0  0  0  0  0  0  0  0  0  0  0  0
   55.2680   22.7089   43.1112 H   0  0  0  0  0  0  0  0  0  0  0  0
  1  2  1  0
  2  3  1  0
  3  4  2  0
  4  5  1  0
  5  6  2  0
  6  7  1  0
  7  8  2  0
  7  9  2  0
  7 10  1  0
 10 11  1  0
 11 12  1  0
 12 13  2  0
 12 14  1  0
 14 15  1  0
 15 16  1  0
 16 17  1  0
 17 18  2  0
 18 19  1  0
 19 20  2  0
 20 21  1  0
 21 22  2  0
 10 23  1  0
 23 24  2  0
 24 25  1  0
 25 26  2  0
 26 27  1  0
 27 28  1  0
 28 29  2  0
 29 30  1  0
 30 31  2  0
 31 32  1  0
 32 33  2  0
 26 34  1  0
 34 35  2  0
  6 36  1  0
 36 37  2  0
 37  3  1  0
 22 17  1  0
 35 23  1  0
 33 28  1  0
  1 38  1  0
  1 39  1  0
  1 40  1  0
  4 41  1  0
  5 42  1  0
 11 43  1  0
 11 44  1  0
 15 45  1  0
 15 46  1  0
 16 47  1  0
 16 48  1  0
 18 49  1  0
 19 50  1  0
 20 51  1  0
 21 52  1  0
 22 53  1  0
 24 54  1  0
 25 55  1  0
 29 56  1  0
 30 57  1  0
 31 58  1  0
 32 59  1  0
 33 60  1  0
 34 61  1  0
 35 62  1  0
 36 63  1  0
 37 64  1  0
M  CHG  1  14  -1
M  END
>  <UniqueID>  (82) 
77

>  <SMILES>  (82) 
COc1ccc(S(=O)(=O)N(CC(=O)[N-]CCc2ccccc2)c2ccc(Oc3ccccc3)cc2)cc1

>  <Energy>  (82) 
72.70670896176021

>  <Genealogy>  (82) 
COc1ccc(S(=O)(=O)N(CC(=O)[N-]CCc2ccccc2)c2ccc(Oc3ccccc3)cc2)cc1 (protonated)
COc1ccc(S(=O)(=O)N(CC(=O)[N-]CCc2ccccc2)c2ccc(Oc3ccccc3)cc2)cc1 (3D coordinates assigned)
COc1ccc(S(=O)(=O)N(CC(=O)[N-]CCc2ccccc2)c2ccc(Oc3ccccc3)cc2)cc1 (optimized conformer: 72.70670896176021 kcal/mol)

>  <smiles>  (82) 
COc1ccc(S(=O)(=O)N(CC(=O)NCCc2ccccc2)c2ccc(Oc3ccccc3)cc2)cc1

>  <score_type>  (82) 
oracle

>  <origin>  (82) 
adg

>  <m_score__min__energy>  (82) 
-12.789999999999999

>  <m_primary>  (82) 
energy

$$$$
82:0
     RDKit          3D

 47 50  0  0  0  0  0  0  0  0999 V2000
   65.0000   33.8080   50.8660 C   0  0  0  0  0  0  0  0  0  0  0  0
   63.8920   33.4520   49.9200 C   0  0  0  0  0  0  0  0  0  0  0  0
   62.6050   33.9750   50.1120 C   0  0  0  0  0  0  0  0  0  0  0  0
   61.5800   33.6750   49.2100 C   0  0  0  0  0  0  0  0  0  0  0  0
   61.8320   32.8680   48.0900 C   0  0  0  0  0  0  0  0  0  0  0  0
   60.7380   32.5550   47.1440 C   0  0  0  0  0  0  0  0  0  0  0  0
   60.2640   33.4510   46.2450 N   0  0  0  0  0  0  0  0  0  0  0  0
   59.2580   32.8370   45.6000 C   0  0  0  0  0  0  0  0  0  0  0  0
   58.4740   33.3630   44.5770 C   0  0  0  0  0  0  0  0  0  0  0  0
   57.4860   32.5380   44.0110 C   0  0  0  0  0  0  0  0  0  0  0  0
   57.3080   31.2020   44.4610 C   0  0  0  0  0  0  0  0  0  0  0  0
   56.2720   30.3250   43.8620 C   0  0  0  0  0  0  0  0  0  0  0  0
   56.4630   29.7050   42.5860 N   0  0  0  0  0  0  0  0  0  0  0  0
   55.2030   30.1040   44.4910 O   0  0  0  0  0  0  0  0  0  0  0  0
   58.1210   30.7100   45.5080 C   0  0  0  0  0  0  0  0  0  0  0  0
   59.0790   31.5610   46.0630 C   0  0  0  0  0  0  0  0  0  0  0  0
   60.0200   31.3540   47.0580 C   0  0  0  0  0  0  0  0  0  0  0  0
   60.2670   30.0940   47.7900 C   0  0  0  0  0  0  0  0  0  0  0  0
   60.5900   30.1210   49.1570 C   0  0  0  0  0  0  0  0  0  0  0  0
   60.8060   28.9290   49.8510 C   0  0  0  0  0  0  0  0  0  0  0  0
   60.7100   27.7020   49.1900 C   0  0  0  0  0  0  0  0  0  0  0  0
   60.4050   27.6600   47.8210 C   0  0  0  0  0  0  0  0  0  0  0  0
   60.2600   26.3400   47.1160 C   0  0  0  0  0  0  0  0  0  0  0  0
   58.9500   25.8630   47.2510 O   0  0  0  0  0  0  0  0  0  0  0  0
   60.1700   28.8590   47.1290 C   0  0  0  0  0  0  0  0  0  0  0  0
   63.1230   32.3460   47.8990 C   0  0  0  0  0  0  0  0  0  0  0  0
   64.1470   32.6460   48.8010 C   0  0  0  0  0  0  0  0  0  0  0  0
   64.6481   33.6949   51.9020 H   0  0  0  0  0  0  0  0  0  0  0  0
   65.8570   33.1400   50.6949 H   0  0  0  0  0  0  0  0  0  0  0  0
   65.3075   34.8502   50.6949 H   0  0  0  0  0  0  0  0  0  0  0  0
   62.4011   34.6242   50.9763 H   0  0  0  0  0  0  0  0  0  0  0  0
   60.5691   34.0742   49.3793 H   0  0  0  0  0  0  0  0  0  0  0  0
   60.5960   34.4300   46.0940 H   0  0  0  0  0  0  0  0  0  0  0  0
   58.6230   34.3934   44.2220 H   0  0  0  0  0  0  0  0  0  0  0  0
   56.8430   32.9317   43.2100 H   0  0  0  0  0  0  0  0  0  0  0  0
   57.3850   29.7240   42.0980 H   0  0  0  0  0  0  0  0  0  0  0  0
   55.6930   29.1420   42.1620 H   0  0  0  0  0  0  0  0  0  0  0  0
   58.0016   29.6806   45.8768 H   0  0  0  0  0  0  0  0  0  0  0  0
   60.6730   31.0841   49.6820 H   0  0  0  0  0  0  0  0  0  0  0  0
   61.0528   28.9561   50.9226 H   0  0  0  0  0  0  0  0  0  0  0  0
   60.8740   26.7661   49.7443 H   0  0  0  0  0  0  0  0  0  0  0  0
   60.4914   26.4704   46.0486 H   0  0  0  0  0  0  0  0  0  0  0  0
   60.9550   25.6146   47.5640 H   0  0  0  0  0  0  0  0  0  0  0  0
   58.6550   26.1020   48.1680 H   0  0  0  0  0  0  0  0  0  0  0  0
   59.9079   28.8306   46.0611 H   0  0  0  0  0  0  0  0  0  0  0  0
   63.3283   31.6976   47.0345 H   0  0  0  0  0  0  0  0  0  0  0  0
   65.1585   32.2479   48.6326 H   0  0  0  0  0  0  0  0  0  0  0  0
  1  2  1  0
  2  3  2  0
  3  4  1  0
  4  5  2  0
  5  6  1  0
  6  7  1  0
  7  8  1  0
  8  9  2  0
  9 10  1  0
 10 11  2  0
 11 12  1  0
 12 13  1  0
 12 14  2  0
 11 15  1  0
 15 16  2  0
 16 17  1  0
 17 18  1  0
 18 19  2  0
 19 20  1  0
 20 21  2  0
 21 22  1  0
 22 23  1  0
 23 24  1  0
 22 25  2  0
  5 26  1  0
 26 27  2  0
 27  2  1  0
 17  6  2  0
 25 18  1  0
 16  8  1  0
  1 28  1  0
  1 29  1  0
  1 30  1  0
  3 31  1  0
  4 32  1  0
  7 33  1  0
  9 34  1  0
 10 35  1  0
 13 36  1  0
 13 37  1  0
 15 38  1  0
 19 39  1  0
 20 40  1  0
 21 41  1  0
 23 42  1  0
 23 43  1  0
 24 44  1  0
 25 45  1  0
 26 46  1  0
 27 47  1  0
M  END
>  <UniqueID>  (83) 
78

>  <SMILES>  (83) 
Cc1ccc(-c2[nH]c3ccc(C(N)=O)cc3c2-c2cccc(CO)c2)cc1

>  <Energy>  (83) 
92.5254633070707

>  <Genealogy>  (83) 
Cc1ccc(-c2[nH]c3ccc(C(N)=O)cc3c2-c2cccc(CO)c2)cc1 (3D coordinates assigned)
Cc1ccc(-c2[nH]c3ccc(C(N)=O)cc3c2-c2cccc(CO)c2)cc1 (optimized conformer: 92.5254633070707 kcal/mol)

>  <smiles>  (83) 
Cc1ccc(-c2[nH]c3ccc(C(N)=O)cc3c2-c2cccc(CO)c2)cc1

>  <score_type>  (83) 
oracle

>  <origin>  (83) 
adg

>  <m_score__min__energy>  (83) 
-8.8300000000000001

>  <m_primary>  (83) 
energy

$$$$
83:0
     RDKit          3D

 49 52  0  0  0  0  0  0  0  0999 V2000
   59.9080   34.5530   48.9420 C   0  0  0  0  0  0  0  0  0  0  0  0
   59.2480   34.1330   47.6570 C   0  0  0  0  0  0  0  0  0  0  0  0
   59.3320   34.9570   46.5250 C   0  0  0  0  0  0  0  0  0  0  0  0
   58.7240   34.5770   45.3270 C   0  0  0  0  0  0  0  0  0  0  0  0
   58.0160   33.3710   45.2350 C   0  0  0  0  0  0  0  0  0  0  0  0
   57.3900   33.0190   43.9850 N   0  0  0  0  0  0  0  0  0  0  0  0
   57.5670   31.7370   43.3040 C   0  0  0  0  0  0  0  0  0  0  0  0
   57.1410   30.6080   44.1940 C   0  0  0  0  0  0  0  0  0  0  0  0
   55.8540   30.2420   44.4000 N   0  0  0  0  0  0  0  0  0  0  0  0
   55.8260   29.2040   45.2330 N   0  0  0  0  0  0  0  0  0  0  0  0
   57.0990   28.9100   45.5480 C   0  0  0  0  0  0  0  0  0  0  0  0
   57.5580   27.9020   46.3930 C   0  0  0  0  0  0  0  0  0  0  0  0
   58.9500   27.7810   46.5780 C   0  0  0  0  0  0  0  0  0  0  0  0
   59.4450   26.7880   47.4180 O   0  0  0  0  0  0  0  0  0  0  0  0
   59.8360   28.6650   45.9100 C   0  0  0  0  0  0  0  0  0  0  0  0
   59.3370   29.6720   45.0620 C   0  0  0  0  0  0  0  0  0  0  0  0
   57.9560   29.7600   44.9120 C   0  0  0  0  0  0  0  0  0  0  0  0
   57.9320   32.5430   46.3710 C   0  0  0  0  0  0  0  0  0  0  0  0
   58.5570   32.9080   47.5770 C   0  0  0  0  0  0  0  0  0  0  0  0
   58.4530   32.0790   48.7470 N   0  0  0  0  0  0  0  0  0  0  0  0
   59.2540   30.9310   49.0630 C   0  0  0  0  0  0  0  0  0  0  0  0
   58.6930   29.8050   49.1080 O   0  0  0  0  0  0  0  0  0  0  0  0
   60.6960   31.0380   49.3960 C   0  0  0  0  0  0  0  0  0  0  0  0
   61.2530   30.2850   50.4430 C   0  0  0  0  0  0  0  0  0  0  0  0
   62.6080   30.4040   50.7560 C   0  0  0  0  0  0  0  0  0  0  0  0
   63.4290   31.2530   50.0110 C   0  0  0  0  0  0  0  0  0  0  0  0
   62.9070   31.9780   48.9280 C   0  0  0  0  0  0  0  0  0  0  0  0
   63.7980   32.9120   48.1480 C   0  0  0  0  0  0  0  0  0  0  0  0
   65.0200   33.0470   48.7840 F   0  0  0  0  0  0  0  0  0  0  0  0
   64.0260   32.4350   46.8700 F   0  0  0  0  0  0  0  0  0  0  0  0
   63.1970   34.1540   48.0650 F   0  0  0  0  0  0  0  0  0  0  0  0
   61.5330   31.8770   48.6370 C   0  0  0  0  0  0  0  0  0  0  0  0
   59.3215   34.1798   49.7945 H   0  0  0  0  0  0  0  0  0  0  0  0
   60.9247   34.1354   48.9855 H   0  0  0  0  0  0  0  0  0  0  0  0
   59.9603   35.6509   48.9855 H   0  0  0  0  0  0  0  0  0  0  0  0
   59.8805   35.9088   46.5815 H   0  0  0  0  0  0  0  0  0  0  0  0
   58.8015   35.2311   44.4460 H   0  0  0  0  0  0  0  0  0  0  0  0
   56.7900   33.7310   43.5100 H   0  0  0  0  0  0  0  0  0  0  0  0
   56.9577   31.7261   42.3882 H   0  0  0  0  0  0  0  0  0  0  0  0
   58.6304   31.6108   43.0526 H   0  0  0  0  0  0  0  0  0  0  0  0
   56.8567   27.2225   46.8994 H   0  0  0  0  0  0  0  0  0  0  0  0
   59.6740   26.9790   48.3860 H   0  0  0  0  0  0  0  0  0  0  0  0
   60.9215   28.5628   46.0558 H   0  0  0  0  0  0  0  0  0  0  0  0
   60.0131   30.3633   44.5377 H   0  0  0  0  0  0  0  0  0  0  0  0
   57.3705   31.5988   46.3144 H   0  0  0  0  0  0  0  0  0  0  0  0
   60.6172   29.5972   51.0198 H   0  0  0  0  0  0  0  0  0  0  0  0
   63.0304   29.8273   51.5920 H   0  0  0  0  0  0  0  0  0  0  0  0
   64.4921   31.3545   50.2745 H   0  0  0  0  0  0  0  0  0  0  0  0
   61.1089   32.4607   47.8067 H   0  0  0  0  0  0  0  0  0  0  0  0
  1  2  1  0
  2  3  2  0
  3  4  1  0
  4  5  2  0
  5  6  1  0
  6  7  1  0
  7  8  1  0
  8  9  1  0
  9 10  1  0
 10 11  2  0
 11 12  1  0
 12 13  2  0
 13 14  1  0
 13 15  1  0
 15 16  2  0
 16 17  1  0
  5 18  1  0
 18 19  2  0
 19 20  1  0
 20 21  1  0
 21 22  2  0
 21 23  1  0
 23 24  2  0
 24 25  1  0
 25 26  2  0
 26 27  1  0
 27 28  1  0
 28 29  1  0
 28 30  1  0
 28 31  1  0
 27 32  2  0
 19  2  1  0
 32 23  1  0
 17  8  2  0
 17 11  1  0
  1 33  1  0
  1 34  1  0
  1 35  1  0
  3 36  1  0
  4 37  1  0
  6 38  1  0
  7 39  1  0
  7 40  1  0
 12 41  1  0
 14 42  1  0
 15 43  1  0
 16 44  1  0
 18 45  1  0
 24 46  1  0
 25 47  1  0
 26 48  1  0
 32 49  1  0
M  CHG  2   9  -1  20  -1
M  END
>  <UniqueID>  (84) 
79

>  <SMILES>  (84) 
Cc1ccc(NCc2[n-]nc3cc(O)ccc23)cc1[N-]C(=O)c1cccc(C(F)(F)F)c1

>  <Energy>  (84) 
93.48039723736747

>  <Genealogy>  (84) 
Cc1ccc(NCc2[n-]nc3cc(O)ccc23)cc1[N-]C(=O)c1cccc(C(F)(F)F)c1 (protonated)
Cc1ccc(NCc2[n-]nc3cc(O)ccc23)cc1[N-]C(=O)c1cccc(C(F)(F)F)c1 (3D coordinates assigned)
Cc1ccc(NCc2[n-]nc3cc(O)ccc23)cc1[N-]C(=O)c1cccc(C(F)(F)F)c1 (optimized conformer: 93.48039723736747 kcal/mol)

>  <smiles>  (84) 
Cc1ccc(NCc2[nH]nc3cc(O)ccc23)cc1NC(=O)c1cccc(C(F)(F)F)c1

>  <score_type>  (84) 
oracle

>  <origin>  (84) 
adg

>  <m_score__min__energy>  (84) 
-13.619999999999999

>  <m_primary>  (84) 
energy

$$$$
84:0
     RDKit          3D

 57 60  0  0  0  0  0  0  0  0999 V2000
   54.7460   30.1720   52.4740 C   0  0  0  0  0  0  0  0  0  0  0  0
   56.0680   29.6490   52.4020 O   0  0  0  0  0  0  0  0  0  0  0  0
   57.1920   30.3880   52.0020 C   0  0  0  0  0  0  0  0  0  0  0  0
   57.0850   31.6380   51.3720 C   0  0  0  0  0  0  0  0  0  0  0  0
   58.2320   32.3350   50.9910 C   0  0  0  0  0  0  0  0  0  0  0  0
   59.5100   31.8010   51.2320 C   0  0  0  0  0  0  0  0  0  0  0  0
   60.6980   32.4870   50.7890 N   0  0  0  0  0  0  0  0  0  0  0  0
   60.6900   33.6980   50.0160 C   0  0  0  0  0  0  0  0  0  0  0  0
   59.6410   34.3890   49.9160 O   0  0  0  0  0  0  0  0  0  0  0  0
   61.9510   34.1870   49.3700 C   0  0  0  0  0  0  0  0  0  0  0  0
   62.5890   33.0190   48.1120 S   0  0  0  0  0  0  0  0  0  0  0  0
   60.9700   32.4230   47.5600 C   0  0  0  0  0  0  0  0  0  0  0  0
   60.5360   31.1320   47.9250 C   0  0  0  0  0  0  0  0  0  0  0  0
   61.5170   30.1150   48.9840 Cl  0  0  0  0  0  0  0  0  0  0  0  0
   59.3030   30.6590   47.4430 C   0  0  0  0  0  0  0  0  0  0  0  0
   58.6810   29.0300   47.8800 S   0  0  0  0  0  0  0  0  0  0  0  0
   58.8690   28.3350   46.1980 C   0  0  0  0  0  0  0  0  0  0  0  0
   57.9860   29.0520   45.2120 C   0  0  0  0  0  0  0  0  0  0  0  0
   58.5420   29.9570   44.2940 C   0  0  0  0  0  0  0  0  0  0  0  0
   57.7180   30.6560   43.4060 C   0  0  0  0  0  0  0  0  0  0  0  0
   56.3340   30.4620   43.4350 C   0  0  0  0  0  0  0  0  0  0  0  0
   55.7720   29.5670   44.3500 C   0  0  0  0  0  0  0  0  0  0  0  0
   56.5930   28.8620   45.2350 C   0  0  0  0  0  0  0  0  0  0  0  0
   58.5410   31.4440   46.6400 N   0  0  0  0  0  0  0  0  0  0  0  0
   58.9060   32.7050   46.3010 C   0  0  0  0  0  0  0  0  0  0  0  0
   58.0560   33.4760   45.5000 C   0  0  0  0  0  0  0  0  0  0  0  0
   58.4010   34.7890   45.1730 C   0  0  0  0  0  0  0  0  0  0  0  0
   59.5920   35.3390   45.6500 C   0  0  0  0  0  0  0  0  0  0  0  0
   60.4510   34.5750   46.4460 C   0  0  0  0  0  0  0  0  0  0  0  0
   60.1270   33.2410   46.7710 C   0  0  0  0  0  0  0  0  0  0  0  0
   59.6250   30.5420   51.8540 C   0  0  0  0  0  0  0  0  0  0  0  0
   60.9080   30.0160   52.0790 O   0  0  0  0  0  0  0  0  0  0  0  0
   61.7780   30.4250   53.1300 C   0  0  0  0  0  0  0  0  0  0  0  0
   58.4600   29.8490   52.2400 C   0  0  0  0  0  0  0  0  0  0  0  0
   54.4543   30.2874   53.5283 H   0  0  0  0  0  0  0  0  0  0  0  0
   54.7115   31.1515   51.9747 H   0  0  0  0  0  0  0  0  0  0  0  0
   54.0507   29.4812   51.9747 H   0  0  0  0  0  0  0  0  0  0  0  0
   56.0922   32.0699   51.1778 H   0  0  0  0  0  0  0  0  0  0  0  0
   58.1353   33.3129   50.4967 H   0  0  0  0  0  0  0  0  0  0  0  0
   61.6280   32.1000   51.0630 H   0  0  0  0  0  0  0  0  0  0  0  0
   61.7476   35.1528   48.8844 H   0  0  0  0  0  0  0  0  0  0  0  0
   62.7147   34.2839   50.1557 H   0  0  0  0  0  0  0  0  0  0  0  0
   59.9176   28.4382   45.8821 H   0  0  0  0  0  0  0  0  0  0  0  0
   58.5746   27.2754   46.2236 H   0  0  0  0  0  0  0  0  0  0  0  0
   59.6301   30.1170   44.2730 H   0  0  0  0  0  0  0  0  0  0  0  0
   58.1594   31.3590   42.6842 H   0  0  0  0  0  0  0  0  0  0  0  0
   55.6868   31.0139   42.7375 H   0  0  0  0  0  0  0  0  0  0  0  0
   54.6825   29.4173   44.3737 H   0  0  0  0  0  0  0  0  0  0  0  0
   56.1478   28.1563   45.9517 H   0  0  0  0  0  0  0  0  0  0  0  0
   57.1142   33.0469   45.1273 H   0  0  0  0  0  0  0  0  0  0  0  0
   57.7334   35.3907   44.5387 H   0  0  0  0  0  0  0  0  0  0  0  0
   59.8557   36.3770   45.3988 H   0  0  0  0  0  0  0  0  0  0  0  0
   61.3857   35.0171   46.8213 H   0  0  0  0  0  0  0  0  0  0  0  0
   61.3094   30.2047   54.1005 H   0  0  0  0  0  0  0  0  0  0  0  0
   62.7303   29.8803   53.0506 H   0  0  0  0  0  0  0  0  0  0  0  0
   61.9661   31.5059   53.0506 H   0  0  0  0  0  0  0  0  0  0  0  0
   58.5495   28.8709   52.7352 H   0  0  0  0  0  0  0  0  0  0  0  0
  1  2  1  0
  2  3  1  0
  3  4  2  0
  4  5  1  0
  5  6  2  0
  6  7  1  0
  7  8  1  0
  8  9  2  0
  8 10  1  0
 10 11  1  0
 11 12  1  0
 12 13  2  0
 13 14  1  0
 13 15  1  0
 15 16  1  0
 16 17  1  0
 17 18  1  0
 18 19  2  0
 19 20  1  0
 20 21  2  0
 21 22  1  0
 22 23  2  0
 15 24  2  0
 24 25  1  0
 25 26  2  0
 26 27  1  0
 27 28  2  0
 28 29  1  0
 29 30  2  0
  6 31  1  0
 31 32  1  0
 32 33  1  0
 31 34  2  0
 34  3  1  0
 30 12  1  0
 23 18  1  0
 30 25  1  0
  1 35  1  0
  1 36  1  0
  1 37  1  0
  4 38  1  0
  5 39  1  0
  7 40  1  0
 10 41  1  0
 10 42  1  0
 17 43  1  0
 17 44  1  0
 19 45  1  0
 20 46  1  0
 21 47  1  0
 22 48  1  0
 23 49  1  0
 26 50  1  0
 27 51  1  0
 28 52  1  0
 29 53  1  0
 33 54  1  0
 33 55  1  0
 33 56  1  0
 34 57  1  0
M  END
>  <UniqueID>  (85) 
80

>  <SMILES>  (85) 
COc1ccc(NC(=O)CSc2c(Cl)c(SCc3ccccc3)nc3ccccc23)c(OC)c1

>  <Energy>  (85) 
57.764408668319284

>  <Genealogy>  (85) 
COc1ccc(NC(=O)CSc2c(Cl)c(SCc3ccccc3)nc3ccccc23)c(OC)c1 (3D coordinates assigned)
COc1ccc(NC(=O)CSc2c(Cl)c(SCc3ccccc3)nc3ccccc23)c(OC)c1 (optimized conformer: 57.764408668319284 kcal/mol)

>  <smiles>  (85) 
COc1ccc(NC(=O)CSc2c(Cl)c(SCc3ccccc3)nc3ccccc23)c(OC)c1

>  <score_type>  (85) 
oracle

>  <origin>  (85) 
adg

>  <m_score__min__energy>  (85) 
-9.5700000000000003

>  <m_primary>  (85) 
energy

$$$$
85:0
     RDKit          3D

 63 66  0  0  0  0  0  0  0  0999 V2000
   53.8940   24.7910   45.5780 C   0  0  0  0  0  0  0  0  0  0  0  0
   54.7410   25.8740   45.9030 O   0  0  0  0  0  0  0  0  0  0  0  0
   56.0990   25.7270   46.0030 C   0  0  0  0  0  0  0  0  0  0  0  0
   56.8460   26.8400   46.3370 C   0  0  0  0  0  0  0  0  0  0  0  0
   58.2200   26.7310   46.4480 C   0  0  0  0  0  0  0  0  0  0  0  0
   59.0070   27.8690   46.8000 N   0  0  0  0  0  0  0  0  0  0  0  0
   59.9430   27.8750   47.8630 C   0  0  0  0  0  0  0  0  0  0  0  0
   60.1160   26.8090   48.5510 O   0  0  0  0  0  0  0  0  0  0  0  0
   60.7650   29.0390   48.2550 C   0  0  0  0  0  0  0  0  0  0  0  0
   60.5050   29.5590   49.5550 N   0  0  0  0  0  0  0  0  0  0  0  0
   61.6740   30.0510   50.2180 C   0  0  0  0  0  0  0  0  0  0  0  0
   61.6320   31.5550   50.4700 C   0  0  0  0  0  0  0  0  0  0  0  0
   62.2900   32.2170   49.3110 C   0  0  0  0  0  0  0  0  0  0  0  0
   62.7060   31.5040   48.1870 C   0  0  0  0  0  0  0  0  0  0  0  0
   63.3180   32.1360   47.1310 C   0  0  0  0  0  0  0  0  0  0  0  0
   63.5520   33.5060   47.1260 C   0  0  0  0  0  0  0  0  0  0  0  0
   63.1370   34.1990   48.2430 C   0  0  0  0  0  0  0  0  0  0  0  0
   62.5200   33.5980   49.3200 C   0  0  0  0  0  0  0  0  0  0  0  0
   59.4610   30.5270   49.6210 C   0  0  0  0  0  0  0  0  0  0  0  0
   59.0970   31.1350   48.3140 C   0  0  0  0  0  0  0  0  0  0  0  0
   58.4020   30.4390   47.3650 N   0  0  0  0  0  0  0  0  0  0  0  0
   58.0850   31.0300   46.1790 C   0  0  0  0  0  0  0  0  0  0  0  0
   57.4430   30.4050   45.2900 O   0  0  0  0  0  0  0  0  0  0  0  0
   58.4600   32.3320   45.9230 C   0  0  0  0  0  0  0  0  0  0  0  0
   58.1740   32.9910   44.7460 C   0  0  0  0  0  0  0  0  0  0  0  0
   58.5760   34.3110   44.5290 C   0  0  0  0  0  0  0  0  0  0  0  0
   59.2760   34.9860   45.5100 C   0  0  0  0  0  0  0  0  0  0  0  0
   59.5740   34.3390   46.7050 C   0  0  0  0  0  0  0  0  0  0  0  0
   59.1610   33.0270   46.8870 C   0  0  0  0  0  0  0  0  0  0  0  0
   59.4620   32.4170   48.0520 N   0  0  0  0  0  0  0  0  0  0  0  0
   58.8500   25.5240   46.2290 C   0  0  0  0  0  0  0  0  0  0  0  0
   58.1180   24.3790   45.8880 C   0  0  0  0  0  0  0  0  0  0  0  0
   58.8370   23.2290   45.6900 O   0  0  0  0  0  0  0  0  0  0  0  0
   58.5690   22.4110   44.5800 C   0  0  0  0  0  0  0  0  0  0  0  0
   56.7700   24.5280   45.7890 C   0  0  0  0  0  0  0  0  0  0  0  0
   53.5272   24.3220   46.5029 H   0  0  0  0  0  0  0  0  0  0  0  0
   53.0402   25.1572   44.9890 H   0  0  0  0  0  0  0  0  0  0  0  0
   54.4551   24.0506   44.9890 H   0  0  0  0  0  0  0  0  0  0  0  0
   56.3512   27.8064   46.5135 H   0  0  0  0  0  0  0  0  0  0  0  0
   58.8510   28.7140   46.1830 H   0  0  0  0  0  0  0  0  0  0  0  0
   61.8220   28.7371   48.2152 H   0  0  0  0  0  0  0  0  0  0  0  0
   60.5086   29.8431   47.5495 H   0  0  0  0  0  0  0  0  0  0  0  0
   61.7701   29.5367   51.1856 H   0  0  0  0  0  0  0  0  0  0  0  0
   62.5321   29.8532   49.5588 H   0  0  0  0  0  0  0  0  0  0  0  0
   60.5888   31.8935   50.5542 H   0  0  0  0  0  0  0  0  0  0  0  0
   62.1493   31.8071   51.4074 H   0  0  0  0  0  0  0  0  0  0  0  0
   62.5415   30.4172   48.1448 H   0  0  0  0  0  0  0  0  0  0  0  0
   63.6325   31.5387   46.2625 H   0  0  0  0  0  0  0  0  0  0  0  0
   64.0408   34.0089   46.2785 H   0  0  0  0  0  0  0  0  0  0  0  0
   63.3064   35.2853   48.2770 H   0  0  0  0  0  0  0  0  0  0  0  0
   62.2091   34.2027   50.1847 H   0  0  0  0  0  0  0  0  0  0  0  0
   58.5658   30.0385   50.0333 H   0  0  0  0  0  0  0  0  0  0  0  0
   59.8351   31.3463   50.2525 H   0  0  0  0  0  0  0  0  0  0  0  0
   57.6154   32.4641   43.9584 H   0  0  0  0  0  0  0  0  0  0  0  0
   58.3358   34.8116   43.5794 H   0  0  0  0  0  0  0  0  0  0  0  0
   59.5951   36.0261   45.3478 H   0  0  0  0  0  0  0  0  0  0  0  0
   60.1308   34.8617   47.4967 H   0  0  0  0  0  0  0  0  0  0  0  0
   59.9970   32.9850   48.7710 H   0  0  0  0  0  0  0  0  0  0  0  0
   59.9440   25.4591   46.3235 H   0  0  0  0  0  0  0  0  0  0  0  0
   58.2439   21.4187   44.9258 H   0  0  0  0  0  0  0  0  0  0  0  0
   57.7731   22.8665   43.9725 H   0  0  0  0  0  0  0  0  0  0  0  0
   59.4801   22.3072   43.9725 H   0  0  0  0  0  0  0  0  0  0  0  0
   56.1723   23.6438   45.5227 H   0  0  0  0  0  0  0  0  0  0  0  0
  1  2  1  0
  2  3  1  0
  3  4  2  0
  4  5  1  0
  5  6  1  0
  6  7  1  0
  7  8  2  0
  7  9  1  0
  9 10  1  0
 10 11  1  0
 11 12  1  0
 12 13  1  0
 13 14  2  0
 14 15  1  0
 15 16  2  0
 16 17  1  0
 17 18  2  0
 10 19  1  0
 19 20  1  0
 20 21  2  0
 21 22  1  0
 22 23  2  0
 22 24  1  0
 24 25  2  0
 25 26  1  0
 26 27  2  0
 27 28  1  0
 28 29  2  0
 29 30  1  0
  5 31  2  0
 31 32  1  0
 32 33  1  0
 33 34  1  0
 32 35  2  0
 35  3  1  0
 18 13  1  0
 30 20  1  0
 29 24  1  0
  1 36  1  0
  1 37  1  0
  1 38  1  0
  4 39  1  0
  6 40  1  0
  9 41  1  0
  9 42  1  0
 11 43  1  0
 11 44  1  0
 12 45  1  0
 12 46  1  0
 14 47  1  0
 15 48  1  0
 16 49  1  0
 17 50  1  0
 18 51  1  0
 19 52  1  0
 19 53  1  0
 25 54  1  0
 26 55  1  0
 27 56  1  0
 28 57  1  0
 30 58  1  0
 31 59  1  0
 34 60  1  0
 34 61  1  0
 34 62  1  0
 35 63  1  0
M  END
>  <smiles>  (86) 
COc1cc(NC(=O)CN(CCc2ccccc2)Cc2nc(=O)c3ccccc3[nH]2)cc(OC)c1

>  <score_type>  (86) 
oracle

>  <origin>  (86) 
adg

>  <m_score__min__energy>  (86) 
-9.1300000000000008

>  <m_primary>  (86) 
energy

$$$$
86:0
     RDKit          3D

 36 37  0  0  0  0  0  0  0  0999 V2000
   57.8820   22.7800   45.2810 C   0  0  0  0  0  0  0  0  0  0  0  0
   57.2670   23.1440   46.5100 O   0  0  0  0  0  0  0  0  0  0  0  0
   56.4650   24.2810   46.6470 C   0  0  0  0  0  0  0  0  0  0  0  0
   55.8860   24.5340   47.7380 O   0  0  0  0  0  0  0  0  0  0  0  0
   56.3460   25.2340   45.4990 C   0  0  0  0  0  0  0  0  0  0  0  0
   56.1900   26.5940   46.0060 N   0  0  0  0  0  0  0  0  0  0  0  0
   57.0680   27.6410   45.5660 C   0  0  0  0  0  0  0  0  0  0  0  0
   56.5340   28.8410   45.0700 C   0  0  0  0  0  0  0  0  0  0  0  0
   55.1510   28.9760   44.9650 O   0  0  0  0  0  0  0  0  0  0  0  0
   57.3600   29.8790   44.7180 N   0  0  0  0  0  0  0  0  0  0  0  0
   56.7920   31.1690   44.2960 C   0  0  0  0  0  0  0  0  0  0  0  0
   57.5700   32.3030   44.9120 C   0  0  0  0  0  0  0  0  0  0  0  0
   58.2250   33.2350   44.0910 C   0  0  0  0  0  0  0  0  0  0  0  0
   58.9850   34.2630   44.6590 C   0  0  0  0  0  0  0  0  0  0  0  0
   59.0990   34.3650   46.0470 C   0  0  0  0  0  0  0  0  0  0  0  0
   58.4530   33.4390   46.8710 C   0  0  0  0  0  0  0  0  0  0  0  0
   57.6940   32.4090   46.3080 C   0  0  0  0  0  0  0  0  0  0  0  0
   58.7170   29.7490   44.8280 C   0  0  0  0  0  0  0  0  0  0  0  0
   59.2860   28.5640   45.2930 C   0  0  0  0  0  0  0  0  0  0  0  0
   58.4600   27.5060   45.6680 C   0  0  0  0  0  0  0  0  0  0  0  0
   58.9720   26.4320   46.0840 O   0  0  0  0  0  0  0  0  0  0  0  0
   58.8121   22.2295   45.4854 H   0  0  0  0  0  0  0  0  0  0  0  0
   57.1974   22.1415   44.7034 H   0  0  0  0  0  0  0  0  0  0  0  0
   58.1123   23.6874   44.7034 H   0  0  0  0  0  0  0  0  0  0  0  0
   57.2531   25.1760   44.8795 H   0  0  0  0  0  0  0  0  0  0  0  0
   55.4681   24.9673   44.8922 H   0  0  0  0  0  0  0  0  0  0  0  0
   55.7390   26.6990   46.9430 H   0  0  0  0  0  0  0  0  0  0  0  0
   56.8411   31.2471   43.1999 H   0  0  0  0  0  0  0  0  0  0  0  0
   55.7451   31.2278   44.6286 H   0  0  0  0  0  0  0  0  0  0  0  0
   58.1402   33.1565   42.9971 H   0  0  0  0  0  0  0  0  0  0  0  0
   59.4936   34.9922   44.0112 H   0  0  0  0  0  0  0  0  0  0  0  0
   59.6971   35.1740   46.4919 H   0  0  0  0  0  0  0  0  0  0  0  0
   58.5420   33.5209   47.9643 H   0  0  0  0  0  0  0  0  0  0  0  0
   57.1920   31.6788   46.9598 H   0  0  0  0  0  0  0  0  0  0  0  0
   59.3677   30.5899   44.5461 H   0  0  0  0  0  0  0  0  0  0  0  0
   60.3793   28.4649   45.3634 H   0  0  0  0  0  0  0  0  0  0  0  0
  1  2  1  0
  2  3  1  0
  3  4  2  0
  3  5  1  0
  5  6  1  0
  6  7  1  0
  7  8  2  0
  8  9  1  0
  8 10  1  0
 10 11  1  0
 11 12  1  0
 12 13  2  0
 13 14  1  0
 14 15  2  0
 15 16  1  0
 16 17  2  0
 10 18  1  0
 18 19  2  0
 19 20  1  0
 20 21  2  0
 20  7  1  0
 17 12  1  0
  1 22  1  0
  1 23  1  0
  1 24  1  0
  5 25  1  0
  5 26  1  0
  6 27  1  0
 11 28  1  0
 11 29  1  0
 13 30  1  0
 14 31  1  0
 15 32  1  0
 16 33  1  0
 17 34  1  0
 18 35  1  0
 19 36  1  0
M  CHG  1   9  -1
M  END
>  <UniqueID>  (87) 
81

>  <SMILES>  (87) 
COC(=O)CNc1c([O-])n(Cc2ccccc2)ccc1=O

>  <Energy>  (87) 
36.78274295890179

>  <Genealogy>  (87) 
COC(=O)CNc1c([O-])n(Cc2ccccc2)ccc1=O (protonated)
COC(=O)CNc1c([O-])n(Cc2ccccc2)ccc1=O (3D coordinates assigned)
COC(=O)CNc1c([O-])n(Cc2ccccc2)ccc1=O (optimized conformer: 36.78274295890179 kcal/mol)

>  <smiles>  (87) 
COC(=O)CNc1c(O)n(Cc2ccccc2)ccc1=O

>  <score_type>  (87) 
oracle

>  <origin>  (87) 
adg

>  <m_score__min__energy>  (87) 
-10.65

>  <m_primary>  (87) 
energy

$$$$
87:0
     RDKit          3D

 48 51  0  0  0  0  0  0  0  0999 V2000
   57.2770   24.6160   43.8490 C   0  0  0  0  0  0  0  0  0  0  0  0
   57.3750   25.3280   45.4760 S   0  0  0  0  0  0  0  0  0  0  0  0
   58.4910   24.6750   46.2430 O   0  0  0  0  0  0  0  0  0  0  0  0
   56.0840   25.0940   46.2080 O   0  0  0  0  0  0  0  0  0  0  0  0
   57.6740   27.0570   45.3380 C   0  0  0  0  0  0  0  0  0  0  0  0
   58.9530   27.5250   45.0080 C   0  0  0  0  0  0  0  0  0  0  0  0
   59.1980   28.8970   44.9110 C   0  0  0  0  0  0  0  0  0  0  0  0
   58.1650   29.8210   45.1410 C   0  0  0  0  0  0  0  0  0  0  0  0
   58.4310   31.2750   45.0330 C   0  0  0  0  0  0  0  0  0  0  0  0
   58.1090   32.0030   43.8900 C   0  0  0  0  0  0  0  0  0  0  0  0
   58.5560   33.6030   44.1290 S   0  0  0  0  0  0  0  0  0  0  0  0
   59.1690   33.4060   45.6810 C   0  0  0  0  0  0  0  0  0  0  0  0
   59.6520   34.5380   46.5450 C   0  0  0  0  0  0  0  0  0  0  0  0
   60.9680   34.1980   47.1970 C   0  0  0  0  0  0  0  0  0  0  0  0
   62.0710   33.8090   46.4190 C   0  0  0  0  0  0  0  0  0  0  0  0
   63.2780   33.4580   47.0320 C   0  0  0  0  0  0  0  0  0  0  0  0
   63.3950   33.5020   48.4230 C   0  0  0  0  0  0  0  0  0  0  0  0
   62.3070   33.8980   49.2040 C   0  0  0  0  0  0  0  0  0  0  0  0
   61.0980   34.2480   48.5960 C   0  0  0  0  0  0  0  0  0  0  0  0
   59.0270   32.0630   46.0470 C   0  0  0  0  0  0  0  0  0  0  0  0
   59.3520   31.5580   47.3960 C   0  0  0  0  0  0  0  0  0  0  0  0
   60.4130   30.6580   47.5750 C   0  0  0  0  0  0  0  0  0  0  0  0
   60.7060   30.1600   48.8470 C   0  0  0  0  0  0  0  0  0  0  0  0
   59.9440   30.5590   49.9480 C   0  0  0  0  0  0  0  0  0  0  0  0
   58.8880   31.4620   49.7790 C   0  0  0  0  0  0  0  0  0  0  0  0
   57.9300   31.9610   51.1610 Cl  0  0  0  0  0  0  0  0  0  0  0  0
   58.5930   31.9620   48.5060 C   0  0  0  0  0  0  0  0  0  0  0  0
   56.8900   29.3480   45.4950 C   0  0  0  0  0  0  0  0  0  0  0  0
   56.6470   27.9760   45.5910 C   0  0  0  0  0  0  0  0  0  0  0  0
   57.1274   23.5294   43.9327 H   0  0  0  0  0  0  0  0  0  0  0  0
   56.4317   25.0616   43.3041 H   0  0  0  0  0  0  0  0  0  0  0  0
   58.2112   24.8167   43.3041 H   0  0  0  0  0  0  0  0  0  0  0  0
   59.7676   26.8090   44.8245 H   0  0  0  0  0  0  0  0  0  0  0  0
   60.2054   29.2558   44.6531 H   0  0  0  0  0  0  0  0  0  0  0  0
   57.6398   31.5968   42.9818 H   0  0  0  0  0  0  0  0  0  0  0  0
   59.7805   35.4358   45.9226 H   0  0  0  0  0  0  0  0  0  0  0  0
   58.9070   34.7187   47.3338 H   0  0  0  0  0  0  0  0  0  0  0  0
   61.9850   33.7803   45.3227 H   0  0  0  0  0  0  0  0  0  0  0  0
   64.1360   33.1470   46.4180 H   0  0  0  0  0  0  0  0  0  0  0  0
   64.3447   33.2246   48.9038 H   0  0  0  0  0  0  0  0  0  0  0  0
   62.4016   33.9345   50.2993 H   0  0  0  0  0  0  0  0  0  0  0  0
   60.2450   34.5638   49.2145 H   0  0  0  0  0  0  0  0  0  0  0  0
   61.0164   30.3433   46.7108 H   0  0  0  0  0  0  0  0  0  0  0  0
   61.5377   29.4528   48.9819 H   0  0  0  0  0  0  0  0  0  0  0  0
   60.1741   30.1633   50.9482 H   0  0  0  0  0  0  0  0  0  0  0  0
   57.7644   32.6734   48.3745 H   0  0  0  0  0  0  0  0  0  0  0  0
   56.0786   30.0625   45.6977 H   0  0  0  0  0  0  0  0  0  0  0  0
   55.6450   27.6153   45.8664 H   0  0  0  0  0  0  0  0  0  0  0  0
  1  2  1  0
  2  3  2  0
  2  4  2  0
  2  5  1  0
  5  6  2  0
  6  7  1  0
  7  8  2  0
  8  9  1  0
  9 10  2  0
 10 11  1  0
 11 12  1  0
 12 13  1  0
 13 14  1  0
 14 15  2  0
 15 16  1  0
 16 17  2  0
 17 18  1  0
 18 19  2  0
 12 20  2  0
 20 21  1  0
 21 22  2  0
 22 23  1  0
 23 24  2  0
 24 25  1  0
 25 26  1  0
 25 27  2  0
  8 28  1  0
 28 29  2  0
 29  5  1  0
 20  9  1  0
 27 21  1  0
 19 14  1  0
  1 30  1  0
  1 31  1  0
  1 32  1  0
  6 33  1  0
  7 34  1  0
 10 35  1  0
 13 36  1  0
 13 37  1  0
 15 38  1  0
 16 39  1  0
 17 40  1  0
 18 41  1  0
 19 42  1  0
 22 43  1  0
 23 44  1  0
 24 45  1  0
 27 46  1  0
 28 47  1  0
 29 48  1  0
M  END
>  <UniqueID>  (88) 
82

>  <SMILES>  (88) 
CS(=O)(=O)c1ccc(-c2csc(Cc3ccccc3)c2-c2cccc(Cl)c2)cc1

>  <Energy>  (88) 
82.27495285046409

>  <Genealogy>  (88) 
CS(=O)(=O)c1ccc(-c2csc(Cc3ccccc3)c2-c2cccc(Cl)c2)cc1 (3D coordinates assigned)
CS(=O)(=O)c1ccc(-c2csc(Cc3ccccc3)c2-c2cccc(Cl)c2)cc1 (optimized conformer: 82.27495285046409 kcal/mol)

>  <smiles>  (88) 
CS(=O)(=O)c1ccc(-c2csc(Cc3ccccc3)c2-c2cccc(Cl)c2)cc1

>  <score_type>  (88) 
oracle

>  <origin>  (88) 
adg

>  <m_score__min__energy>  (88) 
-10.23

>  <m_primary>  (88) 
energy

$$$$
88:0
     RDKit          3D

 63 67  0  0  0  0  0  0  0  0999 V2000
   56.3230   32.1330   44.8940 O   0  0  0  0  0  0  0  0  0  0  0  0
   57.6940   32.2990   45.1400 C   0  0  0  0  0  0  0  0  0  0  0  0
   58.2550   31.0380   45.6160 C   0  0  0  0  0  0  0  0  0  0  0  0
   58.7290   29.9980   45.9940 C   0  0  0  0  0  0  0  0  0  0  0  0
   59.3110   28.7680   46.4730 C   0  0  0  0  0  0  0  0  0  0  0  0
   59.9710   27.9370   45.5540 C   0  0  0  0  0  0  0  0  0  0  0  0
   60.5870   26.7580   45.9810 C   0  0  0  0  0  0  0  0  0  0  0  0
   60.5480   26.3990   47.3270 C   0  0  0  0  0  0  0  0  0  0  0  0
   59.8930   27.2170   48.2520 C   0  0  0  0  0  0  0  0  0  0  0  0
   59.2670   28.4090   47.8410 C   0  0  0  0  0  0  0  0  0  0  0  0
   58.5680   29.2700   48.8780 C   0  0  0  0  0  0  0  0  0  0  0  0
   59.3300   30.5020   49.2100 N   0  0  0  0  0  0  0  0  0  0  0  0
   60.7940   30.2040   49.2230 C   0  0  0  0  0  0  0  0  0  0  0  0
   61.5660   30.8640   50.3850 C   0  0  0  0  0  0  0  0  0  0  0  0
   61.0930   32.2260   50.6750 N   0  0  0  0  0  0  0  0  0  0  0  0
   61.8390   33.3690   50.0760 C   0  0  0  0  0  0  0  0  0  0  0  0
   61.2300   33.8040   48.7320 C   0  0  0  0  0  0  0  0  0  0  0  0
   60.0560   34.5890   48.7840 C   0  0  0  0  0  0  0  0  0  0  0  0
   59.3380   34.9030   47.6330 C   0  0  0  0  0  0  0  0  0  0  0  0
   59.7710   34.4460   46.3980 C   0  0  0  0  0  0  0  0  0  0  0  0
   60.9440   33.7020   46.3040 C   0  0  0  0  0  0  0  0  0  0  0  0
   61.6920   33.3870   47.4540 C   0  0  0  0  0  0  0  0  0  0  0  0
   63.0450   32.7720   47.2610 C   0  0  0  0  0  0  0  0  0  0  0  0
   64.1000   33.6950   47.8540 C   0  0  0  0  0  0  0  0  0  0  0  0
   64.3750   33.3280   49.2820 C   0  0  0  0  0  0  0  0  0  0  0  0
   65.7260   33.1580   49.6540 C   0  0  0  0  0  0  0  0  0  0  0  0
   66.0760   32.8030   50.9530 C   0  0  0  0  0  0  0  0  0  0  0  0
   65.0880   32.6200   51.9110 C   0  0  0  0  0  0  0  0  0  0  0  0
   63.7490   32.7980   51.5740 C   0  0  0  0  0  0  0  0  0  0  0  0
   63.3500   33.1410   50.2600 C   0  0  0  0  0  0  0  0  0  0  0  0
   59.6290   32.3810   50.8040 C   0  0  0  0  0  0  0  0  0  0  0  0
   58.8650   31.0870   50.4870 C   0  0  0  0  0  0  0  0  0  0  0  0
   56.0970   31.2190   45.2190 H   0  0  0  0  0  0  0  0  0  0  0  0
   58.2004   32.5989   44.2107 H   0  0  0  0  0  0  0  0  0  0  0  0
   57.8398   33.0783   45.9025 H   0  0  0  0  0  0  0  0  0  0  0  0
   60.0034   28.2160   44.4905 H   0  0  0  0  0  0  0  0  0  0  0  0
   61.1029   26.1129   45.2546 H   0  0  0  0  0  0  0  0  0  0  0  0
   61.0334   25.4705   47.6620 H   0  0  0  0  0  0  0  0  0  0  0  0
   59.8664   26.9262   49.3125 H   0  0  0  0  0  0  0  0  0  0  0  0
   57.5820   29.5610   48.4867 H   0  0  0  0  0  0  0  0  0  0  0  0
   58.4813   28.6752   49.7992 H   0  0  0  0  0  0  0  0  0  0  0  0
   59.1530   31.2040   48.4510 H   0  0  0  0  0  0  0  0  0  0  0  0
   60.9231   29.1142   49.2986 H   0  0  0  0  0  0  0  0  0  0  0  0
   61.2085   30.6200   48.2929 H   0  0  0  0  0  0  0  0  0  0  0  0
   61.4400   30.2474   51.2872 H   0  0  0  0  0  0  0  0  0  0  0  0
   62.6225   30.9340   50.0867 H   0  0  0  0  0  0  0  0  0  0  0  0
   61.7102   34.3233   50.6077 H   0  0  0  0  0  0  0  0  0  0  0  0
   59.7011   34.9607   49.7566 H   0  0  0  0  0  0  0  0  0  0  0  0
   58.4263   35.5143   47.7038 H   0  0  0  0  0  0  0  0  0  0  0  0
   59.1881   34.6711   45.4927 H   0  0  0  0  0  0  0  0  0  0  0  0
   61.2905   33.3561   45.3190 H   0  0  0  0  0  0  0  0  0  0  0  0
   63.0820   31.7964   47.7679 H   0  0  0  0  0  0  0  0  0  0  0  0
   63.2379   32.6296   46.1875 H   0  0  0  0  0  0  0  0  0  0  0  0
   65.0288   33.6048   47.2716 H   0  0  0  0  0  0  0  0  0  0  0  0
   63.7290   34.7299   47.8174 H   0  0  0  0  0  0  0  0  0  0  0  0
   66.5161   33.3088   48.9037 H   0  0  0  0  0  0  0  0  0  0  0  0
   67.1343   32.6675   51.2206 H   0  0  0  0  0  0  0  0  0  0  0  0
   65.3633   32.3342   52.9369 H   0  0  0  0  0  0  0  0  0  0  0  0
   62.9802   32.6686   52.3500 H   0  0  0  0  0  0  0  0  0  0  0  0
   59.3968   32.6828   51.8360 H   0  0  0  0  0  0  0  0  0  0  0  0
   59.3103   33.1415   50.0759 H   0  0  0  0  0  0  0  0  0  0  0  0
   59.0313   30.3622   51.2975 H   0  0  0  0  0  0  0  0  0  0  0  0
   57.7942   31.3225   50.3979 H   0  0  0  0  0  0  0  0  0  0  0  0
  1  2  1  0
  2  3  1  0
  3  4  3  0
  4  5  1  0
  5  6  2  0
  6  7  1  0
  7  8  2  0
  8  9  1  0
  9 10  2  0
 10 11  1  0
 11 12  1  0
 12 13  1  0
 13 14  1  0
 14 15  1  0
 15 16  1  0
 16 17  1  0
 17 18  2  0
 18 19  1  0
 19 20  2  0
 20 21  1  0
 21 22  2  0
 22 23  1  0
 23 24  1  0
 24 25  1  0
 25 26  2  0
 26 27  1  0
 27 28  2  0
 28 29  1  0
 29 30  2  0
 15 31  1  0
 31 32  1  0
 10  5  1  0
 32 12  1  0
 30 16  1  0
 22 17  1  0
 30 25  1  0
  1 33  1  0
  2 34  1  0
  2 35  1  0
  6 36  1  0
  7 37  1  0
  8 38  1  0
  9 39  1  0
 11 40  1  0
 11 41  1  0
 12 42  1  0
 13 43  1  0
 13 44  1  0
 14 45  1  0
 14 46  1  0
 16 47  1  0
 18 48  1  0
 19 49  1  0
 20 50  1  0
 21 51  1  0
 23 52  1  0
 23 53  1  0
 24 54  1  0
 24 55  1  0
 26 56  1  0
 27 57  1  0
 28 58  1  0
 29 59  1  0
 31 60  1  0
 31 61  1  0
 32 62  1  0
 32 63  1  0
M  CHG  1  12   1
M  END
>  <UniqueID>  (89) 
83

>  <SMILES>  (89) 
OCC#Cc1ccccc1C[NH+]1CCN(C2c3ccccc3CCc3ccccc32)CC1

>  <Energy>  (89) 
103.24293460688972

>  <Genealogy>  (89) 
OCC#Cc1ccccc1C[NH+]1CCN(C2c3ccccc3CCc3ccccc32)CC1 (protonated)
OCC#Cc1ccccc1C[NH+]1CCN(C2c3ccccc3CCc3ccccc32)CC1 (3D coordinates assigned)
OCC#Cc1ccccc1C[NH+]1CCN(C2c3ccccc3CCc3ccccc32)CC1 (nonaromatic ring conformer: 103.24293460688972 kcal/mol)

>  <smiles>  (89) 
OCC#Cc1ccccc1CN1CCN(C2c3ccccc3CCc3ccccc32)CC1

>  <score_type>  (89) 
oracle

>  <origin>  (89) 
adg

>  <m_score__min__energy>  (89) 
-6.6100000000000003

>  <m_primary>  (89) 
energy

$$$$
89:0
     RDKit          3D

 53 56  0  0  0  0  0  0  0  0999 V2000
   66.9900   33.0070   50.5170 C   0  0  0  0  0  0  0  0  0  0  0  0
   65.7900   33.6550   50.1080 O   0  0  0  0  0  0  0  0  0  0  0  0
   64.6840   32.9970   49.5480 C   0  0  0  0  0  0  0  0  0  0  0  0
   64.1470   31.8990   50.2300 C   0  0  0  0  0  0  0  0  0  0  0  0
   63.0420   31.2150   49.7180 C   0  0  0  0  0  0  0  0  0  0  0  0
   62.4470   31.6250   48.5130 C   0  0  0  0  0  0  0  0  0  0  0  0
   61.2400   30.8910   47.9610 C   0  0  0  0  0  0  0  0  0  0  0  0
   59.9710   31.1880   48.6680 N   0  0  1  0  0  0  0  0  0  0  0  0
   60.0820   31.0370   50.1310 C   0  0  0  0  0  0  0  0  0  0  0  0
   59.4530   32.4960   48.3160 C   0  0  0  0  0  0  0  0  0  0  0  0
   59.5590   33.4570   49.1300 O   0  0  0  0  0  0  0  0  0  0  0  0
   58.8610   32.7630   46.9820 C   0  0  0  0  0  0  0  0  0  0  0  0
   59.1530   33.9680   46.3220 C   0  0  0  0  0  0  0  0  0  0  0  0
   58.5770   34.2490   45.0800 C   0  0  0  0  0  0  0  0  0  0  0  0
   57.7050   33.3340   44.4870 C   0  0  0  0  0  0  0  0  0  0  0  0
   57.4130   32.1220   45.1210 C   0  0  0  0  0  0  0  0  0  0  0  0
   56.4950   31.2170   44.4940 N   0  0  0  0  0  0  0  0  0  0  0  0
   56.3190   29.8340   44.8290 C   0  0  0  0  0  0  0  0  0  0  0  0
   55.1770   29.3060   44.7440 O   0  0  0  0  0  0  0  0  0  0  0  0
   57.4660   29.0350   45.3190 C   0  0  0  0  0  0  0  0  0  0  0  0
   58.2190   28.2300   44.4200 C   0  0  0  0  0  0  0  0  0  0  0  0
   59.3170   27.4780   44.8770 C   0  0  0  0  0  0  0  0  0  0  0  0
   59.6420   27.5570   46.2270 C   0  0  0  0  0  0  0  0  0  0  0  0
   58.9310   28.3210   47.0930 C   0  0  0  0  0  0  0  0  0  0  0  0
   57.8330   29.0740   46.6870 C   0  0  0  0  0  0  0  0  0  0  0  0
   59.4800   28.2170   48.3570 O   0  0  0  0  0  0  0  0  0  0  0  0
   60.6100   27.3350   48.2770 C   0  0  0  0  0  0  0  0  0  0  0  0
   60.6740   26.9340   46.9000 O   0  0  0  0  0  0  0  0  0  0  0  0
   57.9740   31.8500   46.3830 C   0  0  0  0  0  0  0  0  0  0  0  0
   62.9940   32.7160   47.8170 C   0  0  0  0  0  0  0  0  0  0  0  0
   64.1000   33.4010   48.3310 C   0  0  0  0  0  0  0  0  0  0  0  0
   67.0369   32.9817   51.6157 H   0  0  0  0  0  0  0  0  0  0  0  0
   67.0033   31.9791   50.1256 H   0  0  0  0  0  0  0  0  0  0  0  0
   67.8569   33.5596   50.1256 H   0  0  0  0  0  0  0  0  0  0  0  0
   64.5993   31.5718   51.1778 H   0  0  0  0  0  0  0  0  0  0  0  0
   62.6350   30.3497   50.2617 H   0  0  0  0  0  0  0  0  0  0  0  0
   61.1196   31.1714   46.9042 H   0  0  0  0  0  0  0  0  0  0  0  0
   61.4338   29.8169   48.0982 H   0  0  0  0  0  0  0  0  0  0  0  0
   59.2950   30.4540   48.3540 H   0  0  0  0  0  0  0  0  0  0  0  0
   59.5003   31.8283   50.6265 H   0  0  0  0  0  0  0  0  0  0  0  0
   59.6906   30.0531   50.4288 H   0  0  0  0  0  0  0  0  0  0  0  0
   61.1379   31.1170   50.4288 H   0  0  0  0  0  0  0  0  0  0  0  0
   59.8380   34.6937   46.7847 H   0  0  0  0  0  0  0  0  0  0  0  0
   58.8114   35.1940   44.5681 H   0  0  0  0  0  0  0  0  0  0  0  0
   57.2450   33.5677   43.5155 H   0  0  0  0  0  0  0  0  0  0  0  0
   57.9401   28.1950   43.3565 H   0  0  0  0  0  0  0  0  0  0  0  0
   59.8995   26.8480   44.1887 H   0  0  0  0  0  0  0  0  0  0  0  0
   57.2664   29.6820   47.4076 H   0  0  0  0  0  0  0  0  0  0  0  0
   61.5313   27.8600   48.5697 H   0  0  0  0  0  0  0  0  0  0  0  0
   60.5092   26.4733   48.9532 H   0  0  0  0  0  0  0  0  0  0  0  0
   57.7169   30.9164   46.9048 H   0  0  0  0  0  0  0  0  0  0  0  0
   62.5498   33.0334   46.8621 H   0  0  0  0  0  0  0  0  0  0  0  0
   64.5158   34.2591   47.7825 H   0  0  0  0  0  0  0  0  0  0  0  0
  1  2  1  0
  2  3  1  0
  3  4  2  0
  4  5  1  0
  5  6  2  0
  6  7  1  0
  7  8  1  0
  8  9  1  0
  8 10  1  0
 10 11  2  0
 10 12  1  0
 12 13  2  0
 13 14  1  0
 14 15  2  0
 15 16  1  0
 16 17  1  0
 17 18  1  0
 18 19  2  0
 18 20  1  0
 20 21  2  0
 21 22  1  0
 22 23  2  0
 23 24  1  0
 24 25  2  0
 24 26  1  0
 26 27  1  0
 27 28  1  0
 16 29  2  0
  6 30  1  0
 30 31  2  0
 31  3  1  0
 29 12  1  0
 25 20  1  0
 28 23  1  0
  1 32  1  0
  1 33  1  0
  1 34  1  0
  4 35  1  0
  5 36  1  0
  7 37  1  0
  7 38  1  0
  8 39  1  6
  9 40  1  0
  9 41  1  0
  9 42  1  0
 13 43  1  0
 14 44  1  0
 15 45  1  0
 21 46  1  0
 22 47  1  0
 25 48  1  0
 27 49  1  0
 27 50  1  0
 29 51  1  0
 30 52  1  0
 31 53  1  0
M  CHG  2   8   1  17  -1
M  END
>  <UniqueID>  (90) 
84

>  <SMILES>  (90) 
COc1ccc(C[N@@H+](C)C(=O)c2cccc([N-]C(=O)c3ccc4c(c3)OCO4)c2)cc1

>  <Energy>  (90) 
96.6599191651548

>  <Genealogy>  (90) 
COc1ccc(C[NH+](C)C(=O)c2cccc([N-]C(=O)c3ccc4c(c3)OCO4)c2)cc1 (protonated)
COc1ccc(C[N@@H+](C)C(=O)c2cccc([N-]C(=O)c3ccc4c(c3)OCO4)c2)cc1 (chirality)
COc1ccc(C[N@@H+](C)C(=O)c2cccc([N-]C(=O)c3ccc4c(c3)OCO4)c2)cc1 (3D coordinates assigned)
COc1ccc(C[N@@H+](C)C(=O)c2cccc([N-]C(=O)c3ccc4c(c3)OCO4)c2)cc1 (nonaromatic ring conformer: 96.6599191651548 kcal/mol)

>  <smiles>  (90) 
COc1ccc(CN(C)C(=O)c2cccc(NC(=O)c3ccc4c(c3)OCO4)c2)cc1

>  <score_type>  (90) 
oracle

>  <origin>  (90) 
adg

>  <m_score__min__energy>  (90) 
-8.9199999999999999

>  <m_primary>  (90) 
energy

$$$$
90:0
     RDKit          3D

 41 43  0  0  0  0  0  0  0  0999 V2000
   54.8133   22.5428   45.8560 H   0  0  0  0  0  0  0  0  0  0  0  0
   55.1640   23.5850   45.8840 C   0  0  0  0  0  0  0  0  0  0  0  0
   54.2780   24.6360   45.6200 C   0  0  0  0  0  0  0  0  0  0  0  0
   52.8430   24.3600   45.3050 C   0  0  0  0  0  0  0  0  0  0  0  0
   52.2764   24.2510   46.2415 H   0  0  0  0  0  0  0  0  0  0  0  0
   52.4287   25.1949   44.7208 H   0  0  0  0  0  0  0  0  0  0  0  0
   52.7679   23.4310   44.7208 H   0  0  0  0  0  0  0  0  0  0  0  0
   54.7250   25.9210   45.6700 N   0  0  0  0  0  0  0  0  0  0  0  0
   56.0220   26.2280   45.9570 C   0  0  0  0  0  0  0  0  0  0  0  0
   56.4250   27.4650   45.9880 N   0  0  0  0  0  0  0  0  0  0  0  0
   57.7810   27.9100   45.6670 C   0  0  0  0  0  0  0  0  0  0  0  0
   58.4725   27.5519   46.4439 H   0  0  0  0  0  0  0  0  0  0  0  0
   58.0658   27.5009   44.6864 H   0  0  0  0  0  0  0  0  0  0  0  0
   57.8440   29.4130   45.6030 C   0  0  0  0  0  0  0  0  0  0  0  0
   58.4110   30.1510   46.6550 C   0  0  0  0  0  0  0  0  0  0  0  0
   58.8341   29.6277   47.5252 H   0  0  0  0  0  0  0  0  0  0  0  0
   58.4400   31.5470   46.6010 C   0  0  0  0  0  0  0  0  0  0  0  0
   58.8751   32.1181   47.4344 H   0  0  0  0  0  0  0  0  0  0  0  0
   57.9160   32.2250   45.4870 C   0  0  0  0  0  0  0  0  0  0  0  0
   57.9160   33.6580   45.4070 N   0  0  0  0  0  0  0  0  0  0  0  0
   59.0420   34.5170   45.6320 C   0  0  0  0  0  0  0  0  0  0  0  0
   59.2160   35.4960   44.8580 O   0  0  0  0  0  0  0  0  0  0  0  0
   60.0290   34.2570   46.7070 C   0  0  0  0  0  0  0  0  0  0  0  0
   59.6720   34.4520   48.0530 C   0  0  0  0  0  0  0  0  0  0  0  0
   58.6584   34.7964   48.3061 H   0  0  0  0  0  0  0  0  0  0  0  0
   60.6000   34.2100   49.0720 C   0  0  0  0  0  0  0  0  0  0  0  0
   60.3116   34.3571   50.1233 H   0  0  0  0  0  0  0  0  0  0  0  0
   61.8920   33.7820   48.7570 C   0  0  0  0  0  0  0  0  0  0  0  0
   62.7890   33.5480   49.7470 F   0  0  0  0  0  0  0  0  0  0  0  0
   62.2600   33.6000   47.4220 C   0  0  0  0  0  0  0  0  0  0  0  0
   63.2784   33.2663   47.1742 H   0  0  0  0  0  0  0  0  0  0  0  0
   61.3370   33.8410   46.4000 C   0  0  0  0  0  0  0  0  0  0  0  0
   61.6354   33.7045   45.3501 H   0  0  0  0  0  0  0  0  0  0  0  0
   57.3280   31.4900   44.4520 C   0  0  0  0  0  0  0  0  0  0  0  0
   56.8887   32.0145   43.5907 H   0  0  0  0  0  0  0  0  0  0  0  0
   57.2950   30.0930   44.5050 C   0  0  0  0  0  0  0  0  0  0  0  0
   56.8366   29.5245   43.6823 H   0  0  0  0  0  0  0  0  0  0  0  0
   56.9320   25.1980   46.2210 C   0  0  0  0  0  0  0  0  0  0  0  0
   57.9810   25.4309   46.4563 H   0  0  0  0  0  0  0  0  0  0  0  0
   56.4960   23.8720   46.1830 C   0  0  0  0  0  0  0  0  0  0  0  0
   57.2024   23.0543   46.3887 H   0  0  0  0  0  0  0  0  0  0  0  0
  1  2  1  0
  2  3  2  0
  3  4  1  0
  4  5  1  0
  4  6  1  0
  4  7  1  0
  3  8  1  0
  8  9  1  0
  9 10  2  0
 10 11  1  0
 11 12  1  0
 11 13  1  0
 11 14  1  0
 14 15  2  0
 15 16  1  0
 15 17  1  0
 17 18  1  0
 17 19  2  0
 19 20  1  0
 20 21  1  0
 21 22  2  0
 21 23  1  0
 23 24  2  0
 24 25  1  0
 24 26  1  0
 26 27  1  0
 26 28  2  0
 28 29  1  0
 28 30  1  0
 30 31  1  0
 30 32  2  0
 32 33  1  0
 19 34  1  0
 34 35  1  0
 34 36  2  0
 36 37  1  0
  9 38  1  0
 38 39  1  0
 38 40  2  0
 40 41  1  0
 40  2  1  0
 36 14  1  0
 32 23  1  0
M  CHG  2   8  -1  20  -1
M  END
>  <UniqueID>  (91) 
85

>  <SMILES>  (91) 
Cc1ccc/c(=N/Cc2ccc([N-]C(=O)c3ccc(F)cc3)cc2)[n-]1

>  <Energy>  (91) 
48.62218735831293

>  <Genealogy>  (91) 
Cc1cccc(=NCc2ccc([N-]C(=O)c3ccc(F)cc3)cc2)[n-]1 (protonated)
Cc1ccc/c(=N/Cc2ccc([N-]C(=O)c3ccc(F)cc3)cc2)[n-]1 (cis-trans isomerization)
Cc1ccc/c(=N/Cc2ccc([N-]C(=O)c3ccc(F)cc3)cc2)[n-]1 (3D coordinates assigned)
Cc1ccc/c(=N/Cc2ccc([N-]C(=O)c3ccc(F)cc3)cc2)[n-]1 (optimized conformer: 48.62218735831293 kcal/mol)

>  <smiles>  (91) 
Cc1cccc(=NCc2ccc(NC(=O)c3ccc(F)cc3)cc2)[nH]1

>  <score_type>  (91) 
oracle

>  <origin>  (91) 
adg

>  <m_score__min__energy>  (91) 
-10.84

>  <m_primary>  (91) 
energy

$$$$
91:0
     RDKit          3D

 58 62  0  0  0  0  0  0  0  0999 V2000
   59.2890   35.3050   47.1240 C   0  0  0  0  0  0  0  0  0  0  0  0
   59.5990   34.6060   45.9240 O   0  0  0  0  0  0  0  0  0  0  0  0
   58.8640   33.5180   45.4290 C   0  0  0  0  0  0  0  0  0  0  0  0
   58.5150   32.4940   46.3160 C   0  0  0  0  0  0  0  0  0  0  0  0
   57.7920   31.3840   45.8680 C   0  0  0  0  0  0  0  0  0  0  0  0
   57.4010   31.2910   44.5250 C   0  0  0  0  0  0  0  0  0  0  0  0
   56.5400   29.8680   43.9450 S   0  0  0  0  0  0  0  0  0  0  0  0
   55.4170   29.5490   44.8920 O   0  0  0  0  0  0  0  0  0  0  0  0
   55.9420   30.1220   42.5910 O   0  0  0  0  0  0  0  0  0  0  0  0
   57.6310   28.5190   43.9140 N   0  0  0  0  0  0  0  0  0  0  0  0
   58.1500   27.8070   45.0480 C   0  0  0  0  0  0  0  0  0  0  0  0
   57.9250   26.4260   45.1190 C   0  0  0  0  0  0  0  0  0  0  0  0
   58.4500   25.6760   46.1730 C   0  0  0  0  0  0  0  0  0  0  0  0
   59.2260   26.2950   47.1540 C   0  0  0  0  0  0  0  0  0  0  0  0
   59.4780   27.6700   47.0940 C   0  0  0  0  0  0  0  0  0  0  0  0
   60.3390   28.2300   48.0500 O   0  0  0  0  0  0  0  0  0  0  0  0
   60.1340   29.4500   48.7050 C   0  0  0  0  0  0  0  0  0  0  0  0
   59.0970   29.6150   49.6270 C   0  0  0  0  0  0  0  0  0  0  0  0
   58.9390   30.8450   50.2860 C   0  0  0  0  0  0  0  0  0  0  0  0
   59.8240   31.9130   49.9990 C   0  0  0  0  0  0  0  0  0  0  0  0
   60.8670   31.6870   49.0680 C   0  0  0  0  0  0  0  0  0  0  0  0
   61.8110   32.7100   48.7270 N   0  0  0  0  0  0  0  0  0  0  0  0
   61.7680   33.3470   47.4120 C   0  0  0  0  0  0  0  0  0  0  0  0
   63.1720   33.3230   46.7970 C   0  0  0  0  0  0  0  0  0  0  0  0
   64.1250   33.8610   47.6960 O   0  0  0  0  0  0  0  0  0  0  0  0
   64.2250   33.0390   48.8460 C   0  0  0  0  0  0  0  0  0  0  0  0
   62.9100   33.0400   49.6330 C   0  0  0  0  0  0  0  0  0  0  0  0
   60.9890   30.4750   48.4670 N   0  0  0  0  0  0  0  0  0  0  0  0
   59.6340   33.2220   50.6880 C   0  0  0  0  0  0  0  0  0  0  0  0
   60.3920   34.2020   50.4580 O   0  0  0  0  0  0  0  0  0  0  0  0
   58.5390   33.3790   51.6560 C   0  0  0  0  0  0  0  0  0  0  0  0
   58.3590   34.4790   52.2440 O   0  0  0  0  0  0  0  0  0  0  0  0
   57.6770   32.2790   51.9350 N   0  0  0  0  0  0  0  0  0  0  0  0
   57.8580   31.0210   51.2870 C   0  0  0  0  0  0  0  0  0  0  0  0
   57.0980   30.0630   51.5870 O   0  0  0  0  0  0  0  0  0  0  0  0
   58.9220   28.4310   46.0460 C   0  0  0  0  0  0  0  0  0  0  0  0
   57.7440   32.3150   43.6340 C   0  0  0  0  0  0  0  0  0  0  0  0
   58.4750   33.4210   44.0800 C   0  0  0  0  0  0  0  0  0  0  0  0
   59.5637   34.6856   47.9905 H   0  0  0  0  0  0  0  0  0  0  0  0
   59.8529   36.2490   47.1546 H   0  0  0  0  0  0  0  0  0  0  0  0
   58.2108   35.5208   47.1546 H   0  0  0  0  0  0  0  0  0  0  0  0
   58.8113   32.5625   47.3731 H   0  0  0  0  0  0  0  0  0  0  0  0
   57.5291   30.5808   46.5721 H   0  0  0  0  0  0  0  0  0  0  0  0
   57.3303   25.9290   44.3385 H   0  0  0  0  0  0  0  0  0  0  0  0
   58.2517   24.5955   46.2303 H   0  0  0  0  0  0  0  0  0  0  0  0
   59.6420   25.6984   47.9792 H   0  0  0  0  0  0  0  0  0  0  0  0
   58.4068   28.7843   49.8359 H   0  0  0  0  0  0  0  0  0  0  0  0
   61.0710   32.7999   46.7603 H   0  0  0  0  0  0  0  0  0  0  0  0
   61.4263   34.3875   47.5152 H   0  0  0  0  0  0  0  0  0  0  0  0
   63.4448   32.2836   46.5619 H   0  0  0  0  0  0  0  0  0  0  0  0
   63.1664   33.9341   45.8824 H   0  0  0  0  0  0  0  0  0  0  0  0
   64.4578   32.0101   48.5344 H   0  0  0  0  0  0  0  0  0  0  0  0
   65.0226   33.4336   49.4926 H   0  0  0  0  0  0  0  0  0  0  0  0
   62.9615   32.2918   50.4377 H   0  0  0  0  0  0  0  0  0  0  0  0
   62.7420   34.0339   50.0734 H   0  0  0  0  0  0  0  0  0  0  0  0
   59.0921   29.5171   46.0078 H   0  0  0  0  0  0  0  0  0  0  0  0
   57.4376   32.2495   42.5796 H   0  0  0  0  0  0  0  0  0  0  0  0
   58.7471   34.2186   43.3731 H   0  0  0  0  0  0  0  0  0  0  0  0
  1  2  1  0
  2  3  1  0
  3  4  2  0
  4  5  1  0
  5  6  2  0
  6  7  1  0
  7  8  2  0
  7  9  2  0
  7 10  1  0
 10 11  1  0
 11 12  2  0
 12 13  1  0
 13 14  2  0
 14 15  1  0
 15 16  1  0
 16 17  1  0
 17 18  2  0
 18 19  1  0
 19 20  2  0
 20 21  1  0
 21 22  1  0
 22 23  1  0
 23 24  1  0
 24 25  1  0
 25 26  1  0
 26 27  1  0
 21 28  2  0
 20 29  1  0
 29 30  2  0
 29 31  1  0
 31 32  2  0
 31 33  1  0
 33 34  1  0
 34 35  2  0
 15 36  2  0
  6 37  1  0
 37 38  2  0
 38  3  1  0
 36 11  1  0
 28 17  1  0
 34 19  1  0
 27 22  1  0
  1 39  1  0
  1 40  1  0
  1 41  1  0
  4 42  1  0
  5 43  1  0
 12 44  1  0
 13 45  1  0
 14 46  1  0
 18 47  1  0
 23 48  1  0
 23 49  1  0
 24 50  1  0
 24 51  1  0
 26 52  1  0
 26 53  1  0
 27 54  1  0
 27 55  1  0
 36 56  1  0
 37 57  1  0
 38 58  1  0
M  CHG  2  10  -1  33  -1
M  END
>  <UniqueID>  (92) 
86

>  <SMILES>  (92) 
COc1ccc(S(=O)(=O)[N-]c2cccc(Oc3cc4c(c(N5CCOCC5)n3)C(=O)C(=O)[N-]C4=O)c2)cc1

>  <Energy>  (92) 
85.41202106949719

>  <Genealogy>  (92) 
COc1ccc(S(=O)(=O)[N-]c2cccc(Oc3cc4c(c(N5CCOCC5)n3)C(=O)C(=O)[N-]C4=O)c2)cc1 (protonated)
COc1ccc(S(=O)(=O)[N-]c2cccc(Oc3cc4c(c(N5CCOCC5)n3)C(=O)C(=O)[N-]C4=O)c2)cc1 (3D coordinates assigned)
COc1ccc(S(=O)(=O)[N-]c2cccc(Oc3cc4c(c(N5CCOCC5)n3)C(=O)C(=O)[N-]C4=O)c2)cc1 (nonaromatic ring conformer: 85.41202106949719 kcal/mol)

>  <smiles>  (92) 
COc1ccc(S(=O)(=O)Nc2cccc(Oc3cc4c(c(N5CCOCC5)n3)C(=O)C(=O)NC4=O)c2)cc1

>  <score_type>  (92) 
oracle

>  <origin>  (92) 
adg

>  <m_score__min__energy>  (92) 
-12.66

>  <m_primary>  (92) 
energy

$$$$
92:0
     RDKit          3D

 51 55  0  0  0  0  0  0  0  0999 V2000
   60.6370   26.4580   48.3260 O   0  0  0  0  0  0  0  0  0  0  0  0
   60.7440   27.4260   49.1310 C   0  0  0  0  0  0  0  0  0  0  0  0
   60.7480   27.1720   50.5140 C   0  0  0  0  0  0  0  0  0  0  0  0
   60.6470   25.8710   51.0420 C   0  0  0  0  0  0  0  0  0  0  0  0
   60.6530   25.6720   52.4270 C   0  0  0  0  0  0  0  0  0  0  0  0
   60.7580   26.7660   53.2910 C   0  0  0  0  0  0  0  0  0  0  0  0
   60.8570   28.0600   52.7760 C   0  0  0  0  0  0  0  0  0  0  0  0
   60.8540   28.2650   51.3910 C   0  0  0  0  0  0  0  0  0  0  0  0
   60.9460   29.5190   50.8920 N   0  0  0  0  0  0  0  0  0  0  0  0
   60.9480   29.7590   49.5560 C   0  0  0  0  0  0  0  0  0  0  0  0
   61.0250   31.1670   49.1190 C   0  0  0  0  0  0  0  0  0  0  0  0
   60.1090   31.6430   48.1690 C   0  0  0  0  0  0  0  0  0  0  0  0
   60.1480   32.9810   47.7410 C   0  0  0  0  0  0  0  0  0  0  0  0
   59.1590   33.4860   46.7550 C   0  0  0  0  0  0  0  0  0  0  0  0
   59.5340   34.4420   45.7920 C   0  0  0  0  0  0  0  0  0  0  0  0
   58.6010   34.9170   44.8660 C   0  0  0  0  0  0  0  0  0  0  0  0
   57.2860   34.4460   44.8900 C   0  0  0  0  0  0  0  0  0  0  0  0
   56.9020   33.4970   45.8410 C   0  0  0  0  0  0  0  0  0  0  0  0
   57.8310   33.0190   46.7690 C   0  0  0  0  0  0  0  0  0  0  0  0
   61.1330   33.8350   48.2650 C   0  0  0  0  0  0  0  0  0  0  0  0
   62.0600   33.3610   49.1950 C   0  0  0  0  0  0  0  0  0  0  0  0
   62.0140   32.0340   49.6290 C   0  0  0  0  0  0  0  0  0  0  0  0
   62.9460   31.6090   50.5790 O   0  0  0  0  0  0  0  0  0  0  0  0
   60.8490   28.7160   48.6600 N   0  0  0  0  0  0  0  0  0  0  0  0
   60.8180   28.9770   47.2010 C   0  0  0  0  0  0  0  0  0  0  0  0
   59.4130   28.8790   46.6620 C   0  0  0  0  0  0  0  0  0  0  0  0
   58.8650   29.9320   45.9120 C   0  0  0  0  0  0  0  0  0  0  0  0
   57.5700   29.8310   45.3950 C   0  0  0  0  0  0  0  0  0  0  0  0
   56.8090   28.6810   45.6320 C   0  0  0  0  0  0  0  0  0  0  0  0
   55.5240   28.5810   45.1130 O   0  0  0  0  0  0  0  0  0  0  0  0
   57.3410   27.6360   46.3910 C   0  0  0  0  0  0  0  0  0  0  0  0
   58.6350   27.7350   46.9100 C   0  0  0  0  0  0  0  0  0  0  0  0
   60.5632   25.0087   50.3642 H   0  0  0  0  0  0  0  0  0  0  0  0
   60.5750   24.6540   52.8363 H   0  0  0  0  0  0  0  0  0  0  0  0
   60.7626   26.6069   54.3794 H   0  0  0  0  0  0  0  0  0  0  0  0
   60.9374   28.9188   53.4587 H   0  0  0  0  0  0  0  0  0  0  0  0
   59.3518   30.9613   47.7545 H   0  0  0  0  0  0  0  0  0  0  0  0
   60.5677   34.8175   45.7682 H   0  0  0  0  0  0  0  0  0  0  0  0
   58.9029   35.6635   44.1166 H   0  0  0  0  0  0  0  0  0  0  0  0
   56.5533   34.8220   44.1607 H   0  0  0  0  0  0  0  0  0  0  0  0
   55.8668   33.1256   45.8592 H   0  0  0  0  0  0  0  0  0  0  0  0
   57.5225   32.2725   47.5157 H   0  0  0  0  0  0  0  0  0  0  0  0
   61.1740   34.8851   47.9400 H   0  0  0  0  0  0  0  0  0  0  0  0
   62.8326   34.0376   49.5891 H   0  0  0  0  0  0  0  0  0  0  0  0
   62.8020   30.7950   51.1630 H   0  0  0  0  0  0  0  0  0  0  0  0
   61.2070   29.9877   47.0084 H   0  0  0  0  0  0  0  0  0  0  0  0
   61.4390   28.2215   46.6975 H   0  0  0  0  0  0  0  0  0  0  0  0
   59.4575   30.8408   45.7303 H   0  0  0  0  0  0  0  0  0  0  0  0
   57.1491   30.6561   44.8016 H   0  0  0  0  0  0  0  0  0  0  0  0
   56.7407   26.7339   46.5805 H   0  0  0  0  0  0  0  0  0  0  0  0
   59.0464   26.9138   47.5153 H   0  0  0  0  0  0  0  0  0  0  0  0
  1  2  2  0
  2  3  1  0
  3  4  2  0
  4  5  1  0
  5  6  2  0
  6  7  1  0
  7  8  2  0
  8  9  1  0
  9 10  2  0
 10 11  1  0
 11 12  2  0
 12 13  1  0
 13 14  1  0
 14 15  2  0
 15 16  1  0
 16 17  2  0
 17 18  1  0
 18 19  2  0
 13 20  2  0
 20 21  1  0
 21 22  2  0
 22 23  1  0
 10 24  1  0
 24 25  1  0
 25 26  1  0
 26 27  2  0
 27 28  1  0
 28 29  2  0
 29 30  1  0
 29 31  1  0
 31 32  2  0
 24  2  1  0
 32 26  1  0
  8  3  1  0
 22 11  1  0
 19 14  1  0
  4 33  1  0
  5 34  1  0
  6 35  1  0
  7 36  1  0
 12 37  1  0
 15 38  1  0
 16 39  1  0
 17 40  1  0
 18 41  1  0
 19 42  1  0
 20 43  1  0
 21 44  1  0
 23 45  1  0
 25 46  1  0
 25 47  1  0
 27 48  1  0
 28 49  1  0
 31 50  1  0
 32 51  1  0
M  CHG  1  30  -1
M  END
>  <UniqueID>  (93) 
87

>  <SMILES>  (93) 
O=c1c2ccccc2nc(-c2cc(-c3ccccc3)ccc2O)n1Cc1ccc([O-])cc1

>  <Energy>  (93) 
77.14976604274165

>  <Genealogy>  (93) 
O=c1c2ccccc2nc(-c2cc(-c3ccccc3)ccc2O)n1Cc1ccc([O-])cc1 (protonated)
O=c1c2ccccc2nc(-c2cc(-c3ccccc3)ccc2O)n1Cc1ccc([O-])cc1 (3D coordinates assigned)
O=c1c2ccccc2nc(-c2cc(-c3ccccc3)ccc2O)n1Cc1ccc([O-])cc1 (optimized conformer: 77.14976604274165 kcal/mol)

>  <smiles>  (93) 
O=c1c2ccccc2nc(-c2cc(-c3ccccc3)ccc2O)n1Cc1ccc(O)cc1

>  <score_type>  (93) 
oracle

>  <origin>  (93) 
adg

>  <m_score__min__energy>  (93) 
-10.75

>  <m_primary>  (93) 
energy

$$$$
93:0
     RDKit          3D

 43 44  0  0  0  0  0  0  0  0999 V2000
   57.7850   26.2590   43.5560 C   0  0  0  0  0  0  0  0  0  0  0  0
   57.8080   27.6460   44.2050 C   0  0  1  0  0  0  0  0  0  0  0  0
   57.1100   28.5820   43.3830 O   0  0  0  0  0  0  0  0  0  0  0  0
   56.3710   29.6580   43.8870 C   0  0  0  0  0  0  0  0  0  0  0  0
   55.1420   29.5320   44.1400 O   0  0  0  0  0  0  0  0  0  0  0  0
   57.0270   30.9480   44.1160 C   0  0  0  0  0  0  0  0  0  0  0  0
   57.7390   31.6720   43.1760 C   0  0  0  0  0  0  0  0  0  0  0  0
   58.1730   32.8090   43.8260 C   0  0  0  0  0  0  0  0  0  0  0  0
   57.6930   32.6980   45.1170 C   0  0  0  0  0  0  0  0  0  0  0  0
   57.8900   33.6510   46.1640 N   0  0  0  0  0  0  0  0  0  0  0  0
   58.4960   34.7190   45.9440 O   0  0  0  0  0  0  0  0  0  0  0  0
   57.4170   33.3860   47.4280 O   0  0  0  0  0  0  0  0  0  0  0  0
   57.0150   31.5850   45.2650 O   0  0  0  0  0  0  0  0  0  0  0  0
   57.1420   27.6080   45.5580 C   0  0  0  0  0  0  0  0  0  0  0  0
   55.9080   27.3610   45.6250 O   0  0  0  0  0  0  0  0  0  0  0  0
   57.8370   27.9690   46.7600 N   0  0  0  0  0  0  0  0  0  0  0  0
   58.8390   28.9850   46.8990 C   0  0  0  0  0  0  0  0  0  0  0  0
   60.0320   28.8630   46.1760 C   0  0  0  0  0  0  0  0  0  0  0  0
   61.0180   29.8510   46.2660 C   0  0  0  0  0  0  0  0  0  0  0  0
   60.8130   30.9850   47.0670 C   0  0  0  0  0  0  0  0  0  0  0  0
   61.8270   32.0050   47.1600 N   0  0  0  0  0  0  0  0  0  0  0  0
   63.2400   31.6090   47.1620 C   0  0  0  0  0  0  0  0  0  0  0  0
   61.4420   33.3950   47.2650 C   0  0  0  0  0  0  0  0  0  0  0  0
   61.1100   34.0320   46.2280 O   0  0  0  0  0  0  0  0  0  0  0  0
   61.4840   34.1380   48.5700 C   0  0  0  0  0  0  0  0  0  0  0  0
   59.8770   34.1080   49.3350 Cl  0  0  0  0  0  0  0  0  0  0  0  0
   59.6040   31.1210   47.7680 C   0  0  0  0  0  0  0  0  0  0  0  0
   58.6190   30.1330   47.6760 C   0  0  0  0  0  0  0  0  0  0  0  0
   57.7722   25.4875   44.3400 H   0  0  0  0  0  0  0  0  0  0  0  0
   56.8851   26.1615   42.9309 H   0  0  0  0  0  0  0  0  0  0  0  0
   58.6812   26.1318   42.9309 H   0  0  0  0  0  0  0  0  0  0  0  0
   58.8584   27.9520   44.3189 H   0  0  0  0  0  0  0  0  0  0  0  0
   57.9214   31.3975   42.1265 H   0  0  0  0  0  0  0  0  0  0  0  0
   58.7734   33.6294   43.4059 H   0  0  0  0  0  0  0  0  0  0  0  0
   60.1947   27.9851   45.5335 H   0  0  0  0  0  0  0  0  0  0  0  0
   61.9583   29.7387   45.7064 H   0  0  0  0  0  0  0  0  0  0  0  0
   63.5917   31.5104   48.1996 H   0  0  0  0  0  0  0  0  0  0  0  0
   63.3514   30.6450   46.6440 H   0  0  0  0  0  0  0  0  0  0  0  0
   63.8361   32.3747   46.6440 H   0  0  0  0  0  0  0  0  0  0  0  0
   62.2154   33.6603   49.2385 H   0  0  0  0  0  0  0  0  0  0  0  0
   61.7774   35.1816   48.3837 H   0  0  0  0  0  0  0  0  0  0  0  0
   59.4309   32.0096   48.3929 H   0  0  0  0  0  0  0  0  0  0  0  0
   57.6678   30.2559   48.2147 H   0  0  0  0  0  0  0  0  0  0  0  0
  1  2  1  0
  2  3  1  0
  3  4  1  0
  4  5  2  0
  4  6  1  0
  6  7  2  0
  7  8  1  0
  8  9  2  0
  9 10  1  0
 10 11  2  0
 10 12  1  0
  9 13  1  0
  2 14  1  0
 14 15  2  0
 14 16  1  0
 16 17  1  0
 17 18  2  0
 18 19  1  0
 19 20  2  0
 20 21  1  0
 21 22  1  0
 21 23  1  0
 23 24  2  0
 23 25  1  0
 25 26  1  0
 20 27  1  0
 27 28  2  0
 13  6  1  0
 28 17  1  0
  1 29  1  0
  1 30  1  0
  1 31  1  0
  2 32  1  1
  7 33  1  0
  8 34  1  0
 18 35  1  0
 19 36  1  0
 22 37  1  0
 22 38  1  0
 22 39  1  0
 25 40  1  0
 25 41  1  0
 27 42  1  0
 28 43  1  0
M  CHG  3  10   1  12  -1  16  -1
M  END
>  <UniqueID>  (94) 
88

>  <SMILES>  (94) 
C[C@@H](OC(=O)c1ccc([N+](=O)[O-])o1)C(=O)[N-]c1ccc(N(C)C(=O)CCl)cc1

>  <Energy>  (94) 
73.94765048749683

>  <Genealogy>  (94) 
CC(OC(=O)c1ccc([N+](=O)[O-])o1)C(=O)[N-]c1ccc(N(C)C(=O)CCl)cc1 (protonated)
C[C@@H](OC(=O)c1ccc([N+](=O)[O-])o1)C(=O)[N-]c1ccc(N(C)C(=O)CCl)cc1 (chirality)
C[C@@H](OC(=O)c1ccc([N+](=O)[O-])o1)C(=O)[N-]c1ccc(N(C)C(=O)CCl)cc1 (3D coordinates assigned)
C[C@@H](OC(=O)c1ccc([N+](=O)[O-])o1)C(=O)[N-]c1ccc(N(C)C(=O)CCl)cc1 (optimized conformer: 73.94765048749683 kcal/mol)

>  <smiles>  (94) 
CC(OC(=O)c1ccc([N+](=O)[O-])o1)C(=O)Nc1ccc(N(C)C(=O)CCl)cc1

>  <score_type>  (94) 
oracle

>  <origin>  (94) 
adg

>  <m_score__min__energy>  (94) 
-9.3100000000000005

>  <m_primary>  (94) 
energy

$$$$
