0:0
     RDKit          3D

 25 25  0  0  0  0  0  0  0  0999 V2000
   61.2900   28.6080   44.8090 C   0  0  0  0  0  0  0  0  0  0  0  0
   60.4030   28.9390   45.7550 C   0  0  0  0  0  0  0  0  0  0  0  0
   60.7770   29.9370   46.7280 C   0  0  0  0  0  0  0  0  0  0  0  0
   61.0750   30.7390   47.5090 N   0  0  0  0  0  0  0  0  0  0  0  0
   59.0660   28.2910   45.8360 C   0  0  0  0  0  0  0  0  0  0  0  0
   58.9140   27.0120   46.3980 C   0  0  0  0  0  0  0  0  0  0  0  0
   57.6570   26.4080   46.4610 C   0  0  0  0  0  0  0  0  0  0  0  0
   56.5220   27.0690   45.9590 C   0  0  0  0  0  0  0  0  0  0  0  0
   55.2420   26.4930   46.0050 O   0  0  0  0  0  0  0  0  0  0  0  0
   54.9480   25.1500   45.6360 C   0  0  0  0  0  0  0  0  0  0  0  0
   56.6600   28.3420   45.3860 C   0  0  0  0  0  0  0  0  0  0  0  0
   55.5080   28.9750   44.8910 O   0  0  0  0  0  0  0  0  0  0  0  0
   55.4840   29.8300   43.7520 C   0  0  0  0  0  0  0  0  0  0  0  0
   57.9300   28.9460   45.3250 C   0  0  0  0  0  0  0  0  0  0  0  0
   61.0322   27.8504   44.0543 H   0  0  0  0  0  0  0  0  0  0  0  0
   62.2768   29.0935   44.7862 H   0  0  0  0  0  0  0  0  0  0  0  0
   59.7936   26.4819   46.7919 H   0  0  0  0  0  0  0  0  0  0  0  0
   57.5537   25.4076   46.9066 H   0  0  0  0  0  0  0  0  0  0  0  0
   54.8148   24.5414   46.5426 H   0  0  0  0  0  0  0  0  0  0  0  0
   54.0236   25.1274   45.0401 H   0  0  0  0  0  0  0  0  0  0  0  0
   55.7784   24.7433   45.0401 H   0  0  0  0  0  0  0  0  0  0  0  0
   55.4546   30.8791   44.0816 H   0  0  0  0  0  0  0  0  0  0  0  0
   56.3872   29.6608   43.1474 H   0  0  0  0  0  0  0  0  0  0  0  0
   54.5917   29.6104   43.1474 H   0  0  0  0  0  0  0  0  0  0  0  0
   58.0359   29.9428   44.8721 H   0  0  0  0  0  0  0  0  0  0  0  0
  1  2  2  0
  2  3  1  0
  3  4  3  0
  2  5  1  0
  5  6  2  0
  6  7  1  0
  7  8  2  0
  8  9  1  0
  9 10  1  0
  8 11  1  0
 11 12  1  0
 12 13  1  0
 11 14  2  0
 14  5  1  0
  1 15  1  0
  1 16  1  0
  6 17  1  0
  7 18  1  0
 10 19  1  0
 10 20  1  0
 10 21  1  0
 13 22  1  0
 13 23  1  0
 13 24  1  0
 14 25  1  0
M  END
>  <UniqueID>  (1) 
1

>  <SMILES>  (1) 
C=C(C#N)c1ccc(OC)c(OC)c1

>  <Energy>  (1) 
24.86344664555058

>  <Genealogy>  (1) 
C=C(C#N)c1ccc(OC)c(OC)c1 (3D coordinates assigned)
C=C(C#N)c1ccc(OC)c(OC)c1 (optimized conformer: 24.86344664555058 kcal/mol)

>  <smiles>  (1) 
C=C(C#N)c1ccc(OC)c(OC)c1

>  <score_type>  (1) 
oracle

>  <origin>  (1) 
adg

>  <m_score__min__energy>  (1) 
-5.3300000000000001

>  <m_primary>  (1) 
energy

$$$$
1:0
     RDKit          3D

 49 51  0  0  0  0  0  0  0  0999 V2000
   59.2500   34.9570   47.7700 C   0  0  0  0  0  0  0  0  0  0  0  0
   58.2670   34.2430   46.9340 N   0  0  0  0  0  0  0  0  0  0  0  0
   57.7060   33.0910   47.6640 C   0  0  0  0  0  0  0  0  0  0  0  0
   59.0370   33.7070   45.4540 S   0  0  0  0  0  0  0  0  0  0  0  0
   59.2110   34.8770   44.5250 O   0  0  0  0  0  0  0  0  0  0  0  0
   60.4020   33.1590   45.7690 O   0  0  0  0  0  0  0  0  0  0  0  0
   58.1140   32.4490   44.6320 C   0  0  0  0  0  0  0  0  0  0  0  0
   57.8110   32.5750   43.2670 C   0  0  0  0  0  0  0  0  0  0  0  0
   57.1630   31.5370   42.5880 C   0  0  0  0  0  0  0  0  0  0  0  0
   56.7890   30.3790   43.2740 C   0  0  0  0  0  0  0  0  0  0  0  0
   57.0320   30.2670   44.6500 C   0  0  0  0  0  0  0  0  0  0  0  0
   56.6170   29.0830   45.3370 N   0  0  0  0  0  0  0  0  0  0  0  0
   57.5100   28.1130   45.9150 C   0  0  0  0  0  0  0  0  0  0  0  0
   57.7260   27.0370   45.2940 O   0  0  0  0  0  0  0  0  0  0  0  0
   58.1070   28.3020   47.2900 C   0  0  0  0  0  0  0  0  0  0  0  0
   59.3120   29.1430   47.2160 N   0  0  0  0  0  0  0  0  0  0  0  0
   60.2040   29.1500   46.1900 C   0  0  0  0  0  0  0  0  0  0  0  0
   61.1590   30.1430   46.3730 C   0  0  0  0  0  0  0  0  0  0  0  0
   60.8100   30.7570   47.5640 C   0  0  0  0  0  0  0  0  0  0  0  0
   59.6980   30.1340   48.0520 C   0  0  0  0  0  0  0  0  0  0  0  0
   59.1330   30.5600   49.2530 C   0  0  0  0  0  0  0  0  0  0  0  0
   58.1590   29.9380   49.7590 O   0  0  0  0  0  0  0  0  0  0  0  0
   59.6780   31.6550   49.8830 N   0  0  0  0  0  0  0  0  0  0  0  0
   59.1040   32.1390   51.1540 C   0  0  0  0  0  0  0  0  0  0  0  0
   60.8110   32.2650   49.3690 C   0  0  0  0  0  0  0  0  0  0  0  0
   61.3140   33.2530   49.9740 O   0  0  0  0  0  0  0  0  0  0  0  0
   61.4000   31.8030   48.2060 N   0  0  0  0  0  0  0  0  0  0  0  0
   62.5960   32.4380   47.6350 C   0  0  0  0  0  0  0  0  0  0  0  0
   57.7180   31.2940   45.3220 C   0  0  0  0  0  0  0  0  0  0  0  0
   59.0187   34.7890   48.8322 H   0  0  0  0  0  0  0  0  0  0  0  0
   60.2601   34.5806   47.5507 H   0  0  0  0  0  0  0  0  0  0  0  0
   59.2044   36.0339   47.5507 H   0  0  0  0  0  0  0  0  0  0  0  0
   57.7913   33.2661   48.7466 H   0  0  0  0  0  0  0  0  0  0  0  0
   56.6466   32.9670   47.3950 H   0  0  0  0  0  0  0  0  0  0  0  0
   58.2616   32.1806   47.3950 H   0  0  0  0  0  0  0  0  0  0  0  0
   58.0843   33.4944   42.7284 H   0  0  0  0  0  0  0  0  0  0  0  0
   56.9480   31.6330   41.5135 H   0  0  0  0  0  0  0  0  0  0  0  0
   56.3029   29.5535   42.7334 H   0  0  0  0  0  0  0  0  0  0  0  0
   57.3664   28.7869   47.9430 H   0  0  0  0  0  0  0  0  0  0  0  0
   58.3836   27.3181   47.6967 H   0  0  0  0  0  0  0  0  0  0  0  0
   60.1739   28.4629   45.3315 H   0  0  0  0  0  0  0  0  0  0  0  0
   62.0064   30.3876   45.7157 H   0  0  0  0  0  0  0  0  0  0  0  0
   59.6441   31.6836   51.9972 H   0  0  0  0  0  0  0  0  0  0  0  0
   59.1991   33.2337   51.2060 H   0  0  0  0  0  0  0  0  0  0  0  0
   58.0411   31.8604   51.2060 H   0  0  0  0  0  0  0  0  0  0  0  0
   63.2503   32.7854   48.4481 H   0  0  0  0  0  0  0  0  0  0  0  0
   63.1376   31.7087   47.0147 H   0  0  0  0  0  0  0  0  0  0  0  0
   62.2953   33.2952   47.0147 H   0  0  0  0  0  0  0  0  0  0  0  0
   57.9450   31.1911   46.3934 H   0  0  0  0  0  0  0  0  0  0  0  0
  1  2  1  0
  2  3  1  0
  2  4  1  0
  4  5  2  0
  4  6  2  0
  4  7  1  0
  7  8  2  0
  8  9  1  0
  9 10  2  0
 10 11  1  0
 11 12  1  0
 12 13  1  0
 13 14  2  0
 13 15  1  0
 15 16  1  0
 16 17  1  0
 17 18  2  0
 18 19  1  0
 19 20  2  0
 20 21  1  0
 21 22  2  0
 21 23  1  0
 23 24  1  0
 23 25  1  0
 25 26  2  0
 25 27  1  0
 27 28  1  0
 11 29  2  0
 29  7  1  0
 20 16  1  0
 27 19  1  0
  1 30  1  0
  1 31  1  0
  1 32  1  0
  3 33  1  0
  3 34  1  0
  3 35  1  0
  8 36  1  0
  9 37  1  0
 10 38  1  0
 15 39  1  0
 15 40  1  0
 17 41  1  0
 18 42  1  0
 24 43  1  0
 24 44  1  0
 24 45  1  0
 28 46  1  0
 28 47  1  0
 28 48  1  0
 29 49  1  0
M  CHG  1  12  -1
M  END
>  <UniqueID>  (2) 
2

>  <SMILES>  (2) 
CN(C)S(=O)(=O)c1cccc([N-]C(=O)Cn2ccc3c2c(=O)n(C)c(=O)n3C)c1

>  <Energy>  (2) 
93.91057202444078

>  <Genealogy>  (2) 
CN(C)S(=O)(=O)c1cccc([N-]C(=O)Cn2ccc3c2c(=O)n(C)c(=O)n3C)c1 (protonated)
CN(C)S(=O)(=O)c1cccc([N-]C(=O)Cn2ccc3c2c(=O)n(C)c(=O)n3C)c1 (3D coordinates assigned)
CN(C)S(=O)(=O)c1cccc([N-]C(=O)Cn2ccc3c2c(=O)n(C)c(=O)n3C)c1 (optimized conformer: 93.91057202444078 kcal/mol)

>  <smiles>  (2) 
CN(C)S(=O)(=O)c1cccc(NC(=O)Cn2ccc3c2c(=O)n(C)c(=O)n3C)c1

>  <score_type>  (2) 
oracle

>  <origin>  (2) 
adg

>  <m_score__min__energy>  (2) 
-10.369999999999999

>  <m_primary>  (2) 
energy

$$$$
2:0
     RDKit          3D

 49 53  0  0  0  0  0  0  0  0999 V2000
   59.4250   35.2020   46.1250 C   0  0  0  0  0  0  0  0  0  0  0  0
   58.8730   34.7710   44.9170 C   0  0  0  0  0  0  0  0  0  0  0  0
   58.4390   33.4490   44.7740 C   0  0  0  0  0  0  0  0  0  0  0  0
   58.5550   32.5420   45.8450 C   0  0  0  0  0  0  0  0  0  0  0  0
   58.0950   31.1380   45.6970 C   0  0  0  0  0  0  0  0  0  0  0  0
   57.3130   30.7530   44.5940 C   0  0  0  0  0  0  0  0  0  0  0  0
   56.8830   29.4310   44.4520 C   0  0  0  0  0  0  0  0  0  0  0  0
   57.2220   28.4600   45.4120 C   0  0  0  0  0  0  0  0  0  0  0  0
   56.7790   27.0480   45.2820 C   0  0  0  0  0  0  0  0  0  0  0  0
   57.5800   26.0710   44.8020 N   0  0  0  0  0  0  0  0  0  0  0  0
   56.8240   24.9550   44.8470 C   0  0  0  0  0  0  0  0  0  0  0  0
   57.2990   23.6490   44.3390 C   0  0  0  0  0  0  0  0  0  0  0  0
   58.4990   23.0840   44.8040 C   0  0  0  0  0  0  0  0  0  0  0  0
   58.9220   21.8380   44.3310 C   0  0  0  0  0  0  0  0  0  0  0  0
   58.1460   21.1420   43.4010 C   0  0  0  0  0  0  0  0  0  0  0  0
   56.9420   21.6880   42.9470 C   0  0  0  0  0  0  0  0  0  0  0  0
   56.5140   22.9320   43.4210 C   0  0  0  0  0  0  0  0  0  0  0  0
   55.5770   25.2710   45.3660 C   0  0  0  0  0  0  0  0  0  0  0  0
   54.4630   24.3570   45.6990 C   0  0  0  0  0  0  0  0  0  0  0  0
   54.6350   23.3720   46.6850 C   0  0  0  0  0  0  0  0  0  0  0  0
   53.5900   22.4940   46.9950 C   0  0  0  0  0  0  0  0  0  0  0  0
   52.3720   22.5860   46.3160 C   0  0  0  0  0  0  0  0  0  0  0  0
   52.1980   23.5510   45.3210 C   0  0  0  0  0  0  0  0  0  0  0  0
   53.2400   24.4290   45.0070 C   0  0  0  0  0  0  0  0  0  0  0  0
   55.5550   26.5900   45.6270 N   0  0  0  0  0  0  0  0  0  0  0  0
   58.0040   28.8470   46.5160 C   0  0  0  0  0  0  0  0  0  0  0  0
   58.4350   30.1690   46.6560 C   0  0  0  0  0  0  0  0  0  0  0  0
   59.1130   32.9880   47.0580 C   0  0  0  0  0  0  0  0  0  0  0  0
   59.5450   34.3110   47.1940 C   0  0  0  0  0  0  0  0  0  0  0  0
   59.7651   36.2423   46.2347 H   0  0  0  0  0  0  0  0  0  0  0  0
   58.7792   35.4731   44.0754 H   0  0  0  0  0  0  0  0  0  0  0  0
   58.0047   33.1160   43.8198 H   0  0  0  0  0  0  0  0  0  0  0  0
   57.0368   31.4999   43.8351 H   0  0  0  0  0  0  0  0  0  0  0  0
   56.2737   29.1469   43.5814 H   0  0  0  0  0  0  0  0  0  0  0  0
   59.1082   23.6245   45.5434 H   0  0  0  0  0  0  0  0  0  0  0  0
   59.8669   21.4054   44.6916 H   0  0  0  0  0  0  0  0  0  0  0  0
   58.4825   20.1642   43.0259 H   0  0  0  0  0  0  0  0  0  0  0  0
   56.3306   21.1385   42.2161 H   0  0  0  0  0  0  0  0  0  0  0  0
   55.5582   23.3510   43.0734 H   0  0  0  0  0  0  0  0  0  0  0  0
   55.5949   23.2901   47.2159 H   0  0  0  0  0  0  0  0  0  0  0  0
   53.7277   21.7302   47.7745 H   0  0  0  0  0  0  0  0  0  0  0  0
   51.5502   21.8985   46.5651 H   0  0  0  0  0  0  0  0  0  0  0  0
   51.2404   23.6202   44.7841 H   0  0  0  0  0  0  0  0  0  0  0  0
   53.1029   25.1799   44.2149 H   0  0  0  0  0  0  0  0  0  0  0  0
   54.7620   27.1210   46.0480 H   0  0  0  0  0  0  0  0  0  0  0  0
   58.2789   28.1014   47.2766 H   0  0  0  0  0  0  0  0  0  0  0  0
   59.0462   30.4536   47.5252 H   0  0  0  0  0  0  0  0  0  0  0  0
   59.2098   32.2916   47.9040 H   0  0  0  0  0  0  0  0  0  0  0  0
   59.9804   34.6509   48.1452 H   0  0  0  0  0  0  0  0  0  0  0  0
  1  2  2  0
  2  3  1  0
  3  4  2  0
  4  5  1  0
  5  6  2  0
  6  7  1  0
  7  8  2  0
  8  9  1  0
  9 10  2  0
 10 11  1  0
 11 12  1  0
 12 13  2  0
 13 14  1  0
 14 15  2  0
 15 16  1  0
 16 17  2  0
 11 18  2  0
 18 19  1  0
 19 20  2  0
 20 21  1  0
 21 22  2  0
 22 23  1  0
 23 24  2  0
 18 25  1  0
  8 26  1  0
 26 27  2  0
  4 28  1  0
 28 29  2  0
 29  1  1  0
 27  5  1  0
 25  9  1  0
 17 12  1  0
 24 19  1  0
  1 30  1  0
  2 31  1  0
  3 32  1  0
  6 33  1  0
  7 34  1  0
 13 35  1  0
 14 36  1  0
 15 37  1  0
 16 38  1  0
 17 39  1  0
 20 40  1  0
 21 41  1  0
 22 42  1  0
 23 43  1  0
 24 44  1  0
 25 45  1  0
 26 46  1  0
 27 47  1  0
 28 48  1  0
 29 49  1  0
M  END
>  <UniqueID>  (3) 
3

>  <SMILES>  (3) 
c1ccc(-c2ccc(-c3nc(-c4ccccc4)c(-c4ccccc4)[nH]3)cc2)cc1

>  <Energy>  (3) 
99.81839873532599

>  <Genealogy>  (3) 
c1ccc(-c2ccc(-c3nc(-c4ccccc4)c(-c4ccccc4)[nH]3)cc2)cc1 (3D coordinates assigned)
c1ccc(-c2ccc(-c3nc(-c4ccccc4)c(-c4ccccc4)[nH]3)cc2)cc1 (optimized conformer: 99.81839873532599 kcal/mol)

>  <smiles>  (3) 
c1ccc(-c2ccc(-c3nc(-c4ccccc4)c(-c4ccccc4)[nH]3)cc2)cc1

>  <score_type>  (3) 
oracle

>  <origin>  (3) 
adg

>  <m_score__min__energy>  (3) 
-8.9399999999999995

>  <m_primary>  (3) 
energy

$$$$
3:0
     RDKit          3D

 36 38  0  0  0  0  0  0  0  0999 V2000
   59.2370   32.7400   49.8960 C   0  0  0  0  0  0  0  0  0  0  0  0
   58.3640   32.5960   48.7800 O   0  0  0  0  0  0  0  0  0  0  0  0
   58.5480   33.2350   47.5440 C   0  0  0  0  0  0  0  0  0  0  0  0
   59.4330   34.3190   47.4820 C   0  0  0  0  0  0  0  0  0  0  0  0
   59.6490   34.9880   46.2770 C   0  0  0  0  0  0  0  0  0  0  0  0
   58.9830   34.5810   45.1180 C   0  0  0  0  0  0  0  0  0  0  0  0
   58.0910   33.4910   45.1600 C   0  0  0  0  0  0  0  0  0  0  0  0
   57.3990   33.0370   44.0240 O   0  0  0  0  0  0  0  0  0  0  0  0
   57.6600   31.8150   43.3350 C   0  0  0  0  0  0  0  0  0  0  0  0
   57.1800   30.6450   44.1370 C   0  0  0  0  0  0  0  0  0  0  0  0
   55.8930   30.4480   44.5020 N   0  0  0  0  0  0  0  0  0  0  0  0
   55.8510   29.3310   45.1760 O   0  0  0  0  0  0  0  0  0  0  0  0
   57.0470   28.7980   45.2600 C   0  0  0  0  0  0  0  0  0  0  0  0
   57.9340   29.5820   44.5860 C   0  0  0  0  0  0  0  0  0  0  0  0
   59.4060   29.3150   44.5490 C   0  0  0  0  0  0  0  0  0  0  0  0
   59.6780   27.9050   44.8990 N   0  0  0  0  0  0  0  0  0  0  0  0
   58.9640   27.4780   46.1240 C   0  0  0  0  0  0  0  0  0  0  0  0
   57.4290   27.5230   45.9360 C   0  0  0  0  0  0  0  0  0  0  0  0
   57.8790   32.8270   46.3740 C   0  0  0  0  0  0  0  0  0  0  0  0
   58.6599   32.6448   50.8276 H   0  0  0  0  0  0  0  0  0  0  0  0
   60.0088   31.9570   49.8612 H   0  0  0  0  0  0  0  0  0  0  0  0
   59.7165   33.7294   49.8612 H   0  0  0  0  0  0  0  0  0  0  0  0
   59.9615   34.6451   48.3900 H   0  0  0  0  0  0  0  0  0  0  0  0
   60.3457   35.8384   46.2392 H   0  0  0  0  0  0  0  0  0  0  0  0
   59.1554   35.1127   44.1706 H   0  0  0  0  0  0  0  0  0  0  0  0
   57.1388   31.8276   42.3664 H   0  0  0  0  0  0  0  0  0  0  0  0
   58.7450   31.7189   43.1819 H   0  0  0  0  0  0  0  0  0  0  0  0
   59.7868   29.5182   43.5372 H   0  0  0  0  0  0  0  0  0  0  0  0
   59.9078   29.9689   45.2775 H   0  0  0  0  0  0  0  0  0  0  0  0
   60.7070   27.7910   45.0530 H   0  0  0  0  0  0  0  0  0  0  0  0
   59.4000   27.2860   44.1000 H   0  0  0  0  0  0  0  0  0  0  0  0
   59.2630   26.4485   46.3705 H   0  0  0  0  0  0  0  0  0  0  0  0
   59.2308   28.1707   46.9358 H   0  0  0  0  0  0  0  0  0  0  0  0
   57.1103   26.6707   45.3180 H   0  0  0  0  0  0  0  0  0  0  0  0
   56.9377   27.4678   46.9187 H   0  0  0  0  0  0  0  0  0  0  0  0
   57.1820   31.9770   46.4144 H   0  0  0  0  0  0  0  0  0  0  0  0
  1  2  1  0
  2  3  1  0
  3  4  2  0
  4  5  1  0
  5  6  2  0
  6  7  1  0
  7  8  1  0
  8  9  1  0
  9 10  1  0
 10 11  2  0
 11 12  1  0
 12 13  1  0
 13 14  2  0
 14 15  1  0
 15 16  1  0
 16 17  1  0
 17 18  1  0
  7 19  2  0
 19  3  1  0
 14 10  1  0
 18 13  1  0
  1 20  1  0
  1 21  1  0
  1 22  1  0
  4 23  1  0
  5 24  1  0
  6 25  1  0
  9 26  1  0
  9 27  1  0
 15 28  1  0
 15 29  1  0
 16 30  1  0
 16 31  1  0
 17 32  1  0
 17 33  1  0
 18 34  1  0
 18 35  1  0
 19 36  1  0
M  CHG  1  16   1
M  END
>  <UniqueID>  (4) 
4

>  <SMILES>  (4) 
COc1cccc(OCc2noc3c2C[NH2+]CC3)c1

>  <Energy>  (4) 
70.52542588403877

>  <Genealogy>  (4) 
COc1cccc(OCc2noc3c2C[NH2+]CC3)c1 (protonated)
COc1cccc(OCc2noc3c2C[NH2+]CC3)c1 (3D coordinates assigned)
COc1cccc(OCc2noc3c2C[NH2+]CC3)c1 (nonaromatic ring conformer: 70.52542588403877 kcal/mol)

>  <smiles>  (4) 
COc1cccc(OCc2noc3c2CNCC3)c1

>  <score_type>  (4) 
oracle

>  <origin>  (4) 
adg

>  <m_score__min__energy>  (4) 
-5.5899999999999999

>  <m_primary>  (4) 
energy

$$$$
4:0
     RDKit          3D

 22 23  0  0  0  0  0  0  0  0999 V2000
   60.0725   35.4871   48.0442 H   0  0  0  0  0  0  0  0  0  0  0  0
   59.6250   34.9390   47.2020 C   0  0  0  0  0  0  0  0  0  0  0  0
   59.6490   35.5020   45.9100 C   0  0  0  0  0  0  0  0  0  0  0  0
   60.2220   36.7140   45.7120 F   0  0  0  0  0  0  0  0  0  0  0  0
   59.0810   34.8120   44.8260 C   0  0  0  0  0  0  0  0  0  0  0  0
   59.0932   35.2413   43.8133 H   0  0  0  0  0  0  0  0  0  0  0  0
   58.5020   33.5690   45.0700 C   0  0  0  0  0  0  0  0  0  0  0  0
   57.7550   32.5290   43.9790 S   0  0  0  0  0  0  0  0  0  0  0  0
   57.4250   31.3930   45.1880 C   0  0  0  0  0  0  0  0  0  0  0  0
   56.8110   30.2710   44.9590 N   0  0  0  0  0  0  0  0  0  0  0  0
   57.1280   29.3650   43.8600 C   0  0  0  0  0  0  0  0  0  0  0  0
   56.9074   28.3309   44.1634 H   0  0  0  0  0  0  0  0  0  0  0  0
   58.1950   29.4566   43.6086 H   0  0  0  0  0  0  0  0  0  0  0  0
   56.2910   29.7240   42.6420 C   0  0  0  0  0  0  0  0  0  0  0  0
   55.3259   30.1380   42.9694 H   0  0  0  0  0  0  0  0  0  0  0  0
   56.8249   30.4723   42.0378 H   0  0  0  0  0  0  0  0  0  0  0  0
   56.1168   28.8214   42.0378 H   0  0  0  0  0  0  0  0  0  0  0  0
   57.8710   31.7910   46.4080 N   0  0  0  0  0  0  0  0  0  0  0  0
   57.7730   31.2440   47.2930 H   0  0  0  0  0  0  0  0  0  0  0  0
   58.4720   33.0060   46.3370 C   0  0  0  0  0  0  0  0  0  0  0  0
   59.0340   33.6830   47.4230 C   0  0  0  0  0  0  0  0  0  0  0  0
   59.0142   33.2417   48.4304 H   0  0  0  0  0  0  0  0  0  0  0  0
  1  2  1  0
  2  3  2  0
  3  4  1  0
  3  5  1  0
  5  6  1  0
  5  7  2  0
  7  8  1  0
  8  9  1  0
  9 10  2  0
 10 11  1  0
 11 12  1  0
 11 13  1  0
 11 14  1  0
 14 15  1  0
 14 16  1  0
 14 17  1  0
  9 18  1  0
 18 19  1  0
 18 20  1  0
 20 21  2  0
 21 22  1  0
 21  2  1  0
 20  7  1  0
M  END
>  <UniqueID>  (5) 
5

>  <SMILES>  (5) 
CC/N=c1\[nH]c2ccc(F)cc2s1

>  <Energy>  (5) 
53.45125029264946

>  <Genealogy>  (5) 
CC/N=c1\[nH]c2ccc(F)cc2s1 (cis-trans isomerization)
CC/N=c1\[nH]c2ccc(F)cc2s1 (3D coordinates assigned)
CC/N=c1\[nH]c2ccc(F)cc2s1 (optimized conformer: 53.45125029264946 kcal/mol)

>  <smiles>  (5) 
CCN=c1[nH]c2ccc(F)cc2s1

>  <score_type>  (5) 
oracle

>  <origin>  (5) 
adg

>  <m_score__min__energy>  (5) 
-5.1699999999999999

>  <m_primary>  (5) 
energy

$$$$
5:0
     RDKit          3D

 22 23  0  0  1  0  0  0  0  0999 V2000
   57.4120   32.2540   40.9710 C   0  0  0  0  0  0  0  0  0  0  0  0
   57.0850   31.5470   42.2440 C   0  0  0  0  0  0  0  0  0  0  0  0
   57.4680   31.9560   43.4340 N   0  0  0  0  0  0  0  0  0  0  0  0
   57.2890   31.5160   44.4780 C   0  0  0  0  0  0  0  0  0  0  0  0
   57.5360   31.6940   45.7910 N   0  0  0  0  0  0  0  0  0  0  0  0
   58.3350   32.8290   46.0710 C   0  0  0  0  0  0  0  0  0  0  0  0
   58.4290   33.9040   45.2040 C   0  0  0  0  0  0  0  0  0  0  0  0
   59.2360   34.9650   45.5680 C   0  0  0  0  0  0  0  0  0  0  0  0
   59.9430   34.9730   46.7690 C   0  0  0  0  0  0  0  0  0  0  0  0
   59.8440   33.9010   47.6250 C   0  0  0  0  0  0  0  0  0  0  0  0
   59.0370   32.8360   47.2640 C   0  0  0  0  0  0  0  0  0  0  0  0
   58.9130   31.4670   48.3610 Cl  0  0  0  0  0  0  0  0  0  0  0  0
   56.2550   29.9790   44.0580 S   0  0  0  0  0  0  0  0  0  0  0  0
   56.3590   30.4200   42.2660 N   0  0  0  0  0  0  0  0  0  0  0  0
   57.8637   33.2306   41.1996 H   0  0  0  0  0  0  0  0  0  0  0  0
   58.1218   31.6492   40.3876 H   0  0  0  0  0  0  0  0  0  0  0  0
   56.4915   32.4033   40.3876 H   0  0  0  0  0  0  0  0  0  0  0  0
   57.8771   33.9134   44.2525 H   0  0  0  0  0  0  0  0  0  0  0  0
   59.3228   35.8275   44.8908 H   0  0  0  0  0  0  0  0  0  0  0  0
   60.5773   35.8327   47.0311 H   0  0  0  0  0  0  0  0  0  0  0  0
   60.3949   33.8903   48.5770 H   0  0  0  0  0  0  0  0  0  0  0  0
   55.8970   29.8170   41.5330 H   0  0  0  0  0  0  0  0  0  0  0  0
  1  2  1  0
  2  3  2  0
  3  4  1  0
  4  5  2  0
  5  6  1  0
  6  7  2  0
  7  8  1  0
  8  9  2  0
  9 10  1  0
 10 11  2  0
 11 12  1  0
  4 13  1  0
 13 14  1  0
 14  2  1  0
 11  6  1  0
  1 15  1  0
  1 16  1  0
  1 17  1  0
  7 18  1  0
  8 19  1  0
  9 20  1  0
 10 21  1  0
 14 22  1  0
M  END
>  <smiles>  (6) 
Cc1nc(=Nc2ccccc2Cl)s[nH]1

>  <score_type>  (6) 
oracle

>  <origin>  (6) 
adg

>  <m_score__min__energy>  (6) 
-6.3399999999999999

>  <m_primary>  (6) 
energy

$$$$
6:0
     RDKit          3D

 34 35  0  0  0  0  0  0  0  0999 V2000
   57.5390   31.9660   41.9310 C   0  0  0  0  0  0  0  0  0  0  0  0
   57.0190   30.7160   42.6350 C   0  0  0  0  0  0  0  0  0  0  0  0
   56.7830   30.9810   44.0980 C   0  0  0  0  0  0  0  0  0  0  0  0
   55.8690   30.3290   44.6740 O   0  0  0  0  0  0  0  0  0  0  0  0
   57.5990   31.9470   44.8860 C   0  0  0  0  0  0  0  0  0  0  0  0
   57.3530   33.3340   44.8450 C   0  0  0  0  0  0  0  0  0  0  0  0
   58.1370   34.2180   45.5930 C   0  0  0  0  0  0  0  0  0  0  0  0
   59.1810   33.7450   46.3920 C   0  0  0  0  0  0  0  0  0  0  0  0
   59.9380   34.6800   47.1180 O   0  0  0  0  0  0  0  0  0  0  0  0
   60.3690   34.5220   48.4710 C   0  0  0  0  0  0  0  0  0  0  0  0
   61.7820   34.0050   48.5260 C   0  0  0  0  0  0  0  0  0  0  0  0
   62.4480   33.6450   47.3420 C   0  0  0  0  0  0  0  0  0  0  0  0
   63.7630   33.1740   47.3880 C   0  0  0  0  0  0  0  0  0  0  0  0
   64.4260   33.0680   48.6140 C   0  0  0  0  0  0  0  0  0  0  0  0
   63.7760   33.4360   49.7950 C   0  0  0  0  0  0  0  0  0  0  0  0
   62.4600   33.9070   49.7530 C   0  0  0  0  0  0  0  0  0  0  0  0
   59.4310   32.3630   46.4420 C   0  0  0  0  0  0  0  0  0  0  0  0
   58.6500   31.4760   45.6950 C   0  0  0  0  0  0  0  0  0  0  0  0
   57.8477   32.7081   42.6820 H   0  0  0  0  0  0  0  0  0  0  0  0
   58.4013   31.7005   41.3018 H   0  0  0  0  0  0  0  0  0  0  0  0
   56.7428   32.3904   41.3018 H   0  0  0  0  0  0  0  0  0  0  0  0
   56.0722   30.4073   42.1678 H   0  0  0  0  0  0  0  0  0  0  0  0
   57.7725   29.9203   42.5395 H   0  0  0  0  0  0  0  0  0  0  0  0
   56.5371   33.7247   44.2191 H   0  0  0  0  0  0  0  0  0  0  0  0
   57.9295   35.2975   45.5519 H   0  0  0  0  0  0  0  0  0  0  0  0
   60.3213   35.4957   48.9805 H   0  0  0  0  0  0  0  0  0  0  0  0
   59.7088   33.7963   48.9685 H   0  0  0  0  0  0  0  0  0  0  0  0
   61.9319   33.7343   46.3747 H   0  0  0  0  0  0  0  0  0  0  0  0
   64.2766   32.8865   46.4587 H   0  0  0  0  0  0  0  0  0  0  0  0
   65.4601   32.6947   48.6491 H   0  0  0  0  0  0  0  0  0  0  0  0
   64.3001   33.3551   50.7587 H   0  0  0  0  0  0  0  0  0  0  0  0
   61.9536   34.2019   50.6839 H   0  0  0  0  0  0  0  0  0  0  0  0
   60.2457   31.9770   47.0723 H   0  0  0  0  0  0  0  0  0  0  0  0
   58.8595   30.3971   45.7401 H   0  0  0  0  0  0  0  0  0  0  0  0
  1  2  1  0
  2  3  1  0
  3  4  2  0
  3  5  1  0
  5  6  2  0
  6  7  1  0
  7  8  2  0
  8  9  1  0
  9 10  1  0
 10 11  1  0
 11 12  2  0
 12 13  1  0
 13 14  2  0
 14 15  1  0
 15 16  2  0
  8 17  1  0
 17 18  2  0
 18  5  1  0
 16 11  1  0
  1 19  1  0
  1 20  1  0
  1 21  1  0
  2 22  1  0
  2 23  1  0
  6 24  1  0
  7 25  1  0
 10 26  1  0
 10 27  1  0
 12 28  1  0
 13 29  1  0
 14 30  1  0
 15 31  1  0
 16 32  1  0
 17 33  1  0
 18 34  1  0
M  END
>  <UniqueID>  (7) 
6

>  <SMILES>  (7) 
CCC(=O)c1ccc(OCc2ccccc2)cc1

>  <Energy>  (7) 
32.64924861199342

>  <Genealogy>  (7) 
CCC(=O)c1ccc(OCc2ccccc2)cc1 (3D coordinates assigned)
CCC(=O)c1ccc(OCc2ccccc2)cc1 (optimized conformer: 32.64924861199342 kcal/mol)

>  <smiles>  (7) 
CCC(=O)c1ccc(OCc2ccccc2)cc1

>  <score_type>  (7) 
oracle

>  <origin>  (7) 
adg

>  <m_score__min__energy>  (7) 
-7.1600000000000001

>  <m_primary>  (7) 
energy

$$$$
7:0
     RDKit          3D

 60 64  0  0  1  0  0  0  0  0999 V2000
   59.3000   22.2570   44.7410 C   0  0  0  0  0  0  0  0  0  0  0  0
   58.0200   23.0150   44.6830 C   0  0  0  0  0  0  0  0  0  0  0  0
   57.0030   22.5740   43.8600 C   0  0  0  0  0  0  0  0  0  0  0  0
   55.7890   23.2370   43.7650 C   0  0  0  0  0  0  0  0  0  0  0  0
   55.5800   24.3740   44.5110 C   0  0  0  0  0  0  0  0  0  0  0  0
   56.6010   24.8570   45.3670 C   0  0  0  0  0  0  0  0  0  0  0  0
   56.4030   26.0380   46.0100 N   0  0  0  0  0  0  0  0  0  0  0  0
   56.8450   27.1750   45.9030 C   0  0  0  0  0  0  0  0  0  0  0  0
   56.0760   28.1070   45.2660 N   0  0  0  0  0  0  0  0  0  0  0  0
   56.4760   29.3560   45.1030 N   0  0  0  0  0  0  0  0  0  0  0  0
   57.6830   29.7740   45.5660 C   0  0  0  0  0  0  0  0  0  0  0  0
   58.0230   31.1580   45.3360 C   0  0  0  0  0  0  0  0  0  0  0  0
   57.7930   31.8480   44.1700 C   0  0  0  0  0  0  0  0  0  0  0  0
   58.1610   33.1800   43.9980 C   0  0  0  0  0  0  0  0  0  0  0  0
   58.7840   33.8240   45.0450 C   0  0  0  0  0  0  0  0  0  0  0  0
   59.1730   35.2200   44.8750 C   0  0  0  0  0  0  0  0  0  0  0  0
   59.0310   33.1650   46.2300 C   0  0  0  0  0  0  0  0  0  0  0  0
   59.8230   34.0600   47.5020 S   0  0  0  0  0  0  0  0  0  0  0  0
   61.1410   34.5590   46.9110 O   0  0  0  0  0  0  0  0  0  0  0  0
   59.0980   35.3230   47.8690 O   0  0  0  0  0  0  0  0  0  0  0  0
   60.2460   33.1170   48.8330 N   0  0  0  0  0  0  0  0  0  0  0  0
   59.2280   32.7900   49.7540 C   0  0  0  0  0  0  0  0  0  0  0  0
   59.7260   32.2880   51.0850 C   0  0  0  0  0  0  0  0  0  0  0  0
   61.0290   31.8050   51.0150 O   0  0  0  0  0  0  0  0  0  0  0  0
   61.2730   31.1870   49.7920 C   0  0  0  0  0  0  0  0  0  0  0  0
   61.4010   32.3200   48.7690 C   0  0  0  0  0  0  0  0  0  0  0  0
   58.6480   31.8450   46.3550 C   0  0  0  0  0  0  0  0  0  0  0  0
   58.4550   28.8390   46.2050 C   0  0  0  0  0  0  0  0  0  0  0  0
   59.6660   29.2430   46.6950 C   0  0  0  0  0  0  0  0  0  0  0  0
   60.4420   28.3250   47.3470 C   0  0  0  0  0  0  0  0  0  0  0  0
   60.1110   27.0210   47.5570 C   0  0  0  0  0  0  0  0  0  0  0  0
   58.8600   26.6170   47.0500 C   0  0  0  0  0  0  0  0  0  0  0  0
   58.0730   27.5200   46.3980 C   0  0  0  0  0  0  0  0  0  0  0  0
   57.8190   24.1650   45.4440 C   0  0  0  0  0  0  0  0  0  0  0  0
   59.5805   22.0909   45.7916 H   0  0  0  0  0  0  0  0  0  0  0  0
   59.1750   21.2872   44.2371 H   0  0  0  0  0  0  0  0  0  0  0  0
   60.0903   22.8328   44.2371 H   0  0  0  0  0  0  0  0  0  0  0  0
   57.1612   21.6661   43.2594 H   0  0  0  0  0  0  0  0  0  0  0  0
   55.0000   22.8574   43.0991 H   0  0  0  0  0  0  0  0  0  0  0  0
   54.6207   24.9080   44.4430 H   0  0  0  0  0  0  0  0  0  0  0  0
   55.1400   27.8680   44.8840 H   0  0  0  0  0  0  0  0  0  0  0  0
   57.2976   31.3264   43.3379 H   0  0  0  0  0  0  0  0  0  0  0  0
   57.9598   33.7040   43.0520 H   0  0  0  0  0  0  0  0  0  0  0  0
   59.3032   35.6872   45.8623 H   0  0  0  0  0  0  0  0  0  0  0  0
   60.1197   35.2715   44.3173 H   0  0  0  0  0  0  0  0  0  0  0  0
   58.3894   35.7537   44.3173 H   0  0  0  0  0  0  0  0  0  0  0  0
   58.6229   33.6913   49.9315 H   0  0  0  0  0  0  0  0  0  0  0  0
   58.6529   31.9669   49.3049 H   0  0  0  0  0  0  0  0  0  0  0  0
   59.6942   33.1154   51.8092 H   0  0  0  0  0  0  0  0  0  0  0  0
   59.0759   31.4565   51.3949 H   0  0  0  0  0  0  0  0  0  0  0  0
   62.2049   30.6043   49.8366 H   0  0  0  0  0  0  0  0  0  0  0  0
   60.4665   30.4888   49.5235 H   0  0  0  0  0  0  0  0  0  0  0  0
   62.2856   32.9309   49.0019 H   0  0  0  0  0  0  0  0  0  0  0  0
   61.5120   31.9013   47.7579 H   0  0  0  0  0  0  0  0  0  0  0  0
   58.8486   31.3221   47.3018 H   0  0  0  0  0  0  0  0  0  0  0  0
   60.0075   30.2809   46.5678 H   0  0  0  0  0  0  0  0  0  0  0  0
   61.4131   28.6681   47.7334 H   0  0  0  0  0  0  0  0  0  0  0  0
   60.7782   26.3268   48.0889 H   0  0  0  0  0  0  0  0  0  0  0  0
   58.5200   25.5789   47.1794 H   0  0  0  0  0  0  0  0  0  0  0  0
   58.6171   24.5310   46.1066 H   0  0  0  0  0  0  0  0  0  0  0  0
  1  2  1  0
  2  3  2  0
  3  4  1  0
  4  5  2  0
  5  6  1  0
  6  7  1  0
  7  8  2  0
  8  9  1  0
  9 10  1  0
 10 11  2  0
 11 12  1  0
 12 13  2  0
 13 14  1  0
 14 15  2  0
 15 16  1  0
 15 17  1  0
 17 18  1  0
 18 19  2  0
 18 20  2  0
 18 21  1  0
 21 22  1  0
 22 23  1  0
 23 24  1  0
 24 25  1  0
 25 26  1  0
 17 27  2  0
 11 28  1  0
 28 29  2  0
 29 30  1  0
 30 31  2  0
 31 32  1  0
 32 33  2  0
  6 34  2  0
 34  2  1  0
 33  8  1  0
 27 12  1  0
 33 28  1  0
 26 21  1  0
  1 35  1  0
  1 36  1  0
  1 37  1  0
  3 38  1  0
  4 39  1  0
  5 40  1  0
  9 41  1  0
 13 42  1  0
 14 43  1  0
 16 44  1  0
 16 45  1  0
 16 46  1  0
 22 47  1  0
 22 48  1  0
 23 49  1  0
 23 50  1  0
 25 51  1  0
 25 52  1  0
 26 53  1  0
 26 54  1  0
 27 55  1  0
 29 56  1  0
 30 57  1  0
 31 58  1  0
 32 59  1  0
 34 60  1  0
M  END
>  <smiles>  (8) 
Cc1cccc(N=c2[nH]nc(-c3ccc(C)c(S(=O)(=O)N4CCOCC4)c3)c3ccccc23)c1

>  <score_type>  (8) 
oracle

>  <origin>  (8) 
adg

>  <m_score__min__energy>  (8) 
-11.94

>  <m_primary>  (8) 
energy

$$$$
8:0
     RDKit          3D

 37 38  0  0  0  0  0  0  0  0999 V2000
   61.5910   33.8270   46.7340 C   0  0  0  0  0  0  0  0  0  0  0  0
   60.3340   34.6620   46.9600 C   0  0  0  0  0  0  0  0  0  0  0  0
   59.4860   34.6200   45.8130 O   0  0  0  0  0  0  0  0  0  0  0  0
   58.7920   33.4910   45.3500 C   0  0  0  0  0  0  0  0  0  0  0  0
   58.4070   33.3300   44.0030 C   0  0  0  0  0  0  0  0  0  0  0  0
   57.7170   32.1820   43.6000 C   0  0  0  0  0  0  0  0  0  0  0  0
   57.4050   31.1830   44.5300 C   0  0  0  0  0  0  0  0  0  0  0  0
   56.5410   29.7330   44.0270 S   0  0  0  0  0  0  0  0  0  0  0  0
   55.5040   30.0810   42.9940 O   0  0  0  0  0  0  0  0  0  0  0  0
   55.8600   29.1310   45.2240 O   0  0  0  0  0  0  0  0  0  0  0  0
   57.6560   28.5780   43.3610 N   0  0  0  0  0  0  0  0  0  0  0  0
   58.0130   27.5880   44.3790 C   0  0  0  0  0  0  0  0  0  0  0  0
   58.8650   28.2380   45.4320 C   0  0  0  0  0  0  0  0  0  0  0  0
   59.9910   28.9920   45.0610 C   0  0  0  0  0  0  0  0  0  0  0  0
   60.7650   29.6280   46.0380 C   0  0  0  0  0  0  0  0  0  0  0  0
   60.4130   29.5240   47.3860 C   0  0  0  0  0  0  0  0  0  0  0  0
   59.2850   28.7890   47.7610 C   0  0  0  0  0  0  0  0  0  0  0  0
   58.5080   28.1520   46.7880 C   0  0  0  0  0  0  0  0  0  0  0  0
   57.7770   31.3450   45.8700 C   0  0  0  0  0  0  0  0  0  0  0  0
   58.4660   32.4920   46.2750 C   0  0  0  0  0  0  0  0  0  0  0  0
   62.0210   33.5414   47.7053 H   0  0  0  0  0  0  0  0  0  0  0  0
   61.3321   32.9207   46.1669 H   0  0  0  0  0  0  0  0  0  0  0  0
   62.3260   34.4170   46.1669 H   0  0  0  0  0  0  0  0  0  0  0  0
   59.7874   34.2638   47.8276 H   0  0  0  0  0  0  0  0  0  0  0  0
   60.6312   35.7055   47.1414 H   0  0  0  0  0  0  0  0  0  0  0  0
   58.6502   34.1101   43.2665 H   0  0  0  0  0  0  0  0  0  0  0  0
   57.4182   32.0636   42.5480 H   0  0  0  0  0  0  0  0  0  0  0  0
   58.5210   29.1030   43.1010 H   0  0  0  0  0  0  0  0  0  0  0  0
   57.0973   27.1911   44.8416 H   0  0  0  0  0  0  0  0  0  0  0  0
   58.5730   26.7654   43.9103 H   0  0  0  0  0  0  0  0  0  0  0  0
   60.2649   29.0826   43.9995 H   0  0  0  0  0  0  0  0  0  0  0  0
   61.6510   30.2101   45.7445 H   0  0  0  0  0  0  0  0  0  0  0  0
   61.0245   30.0213   48.1533 H   0  0  0  0  0  0  0  0  0  0  0  0
   59.0079   28.7114   48.8227 H   0  0  0  0  0  0  0  0  0  0  0  0
   57.6152   27.5823   47.0852 H   0  0  0  0  0  0  0  0  0  0  0  0
   57.5263   30.5673   46.6064 H   0  0  0  0  0  0  0  0  0  0  0  0
   58.7545   32.6106   47.3298 H   0  0  0  0  0  0  0  0  0  0  0  0
  1  2  1  0
  2  3  1  0
  3  4  1  0
  4  5  2  0
  5  6  1  0
  6  7  2  0
  7  8  1  0
  8  9  2  0
  8 10  2  0
  8 11  1  0
 11 12  1  0
 12 13  1  0
 13 14  2  0
 14 15  1  0
 15 16  2  0
 16 17  1  0
 17 18  2  0
  7 19  1  0
 19 20  2  0
 20  4  1  0
 18 13  1  0
  1 21  1  0
  1 22  1  0
  1 23  1  0
  2 24  1  0
  2 25  1  0
  5 26  1  0
  6 27  1  0
 11 28  1  0
 12 29  1  0
 12 30  1  0
 14 31  1  0
 15 32  1  0
 16 33  1  0
 17 34  1  0
 18 35  1  0
 19 36  1  0
 20 37  1  0
M  END
>  <UniqueID>  (9) 
7

>  <SMILES>  (9) 
CCOc1ccc(S(=O)(=O)NCc2ccccc2)cc1

>  <Energy>  (9) 
31.97309905904083

>  <Genealogy>  (9) 
CCOc1ccc(S(=O)(=O)NCc2ccccc2)cc1 (3D coordinates assigned)
CCOc1ccc(S(=O)(=O)NCc2ccccc2)cc1 (optimized conformer: 31.97309905904083 kcal/mol)

>  <smiles>  (9) 
CCOc1ccc(S(=O)(=O)NCc2ccccc2)cc1

>  <score_type>  (9) 
oracle

>  <origin>  (9) 
adg

>  <m_score__min__energy>  (9) 
-7.3700000000000001

>  <m_primary>  (9) 
energy

$$$$
9:0
     RDKit          3D

 47 49  0  0  0  0  0  0  0  0999 V2000
   57.4210   20.9700   45.2680 C   0  0  0  0  0  0  0  0  0  0  0  0
   57.8650   21.9460   46.2050 O   0  0  0  0  0  0  0  0  0  0  0  0
   57.6830   23.3300   46.0570 C   0  0  0  0  0  0  0  0  0  0  0  0
   56.3780   23.8200   45.9650 C   0  0  0  0  0  0  0  0  0  0  0  0
   56.1250   25.1980   45.8150 C   0  0  0  0  0  0  0  0  0  0  0  0
   54.8090   25.6880   45.7250 O   0  0  0  0  0  0  0  0  0  0  0  0
   53.6440   24.8770   45.6130 C   0  0  0  0  0  0  0  0  0  0  0  0
   57.2160   26.1000   45.7570 C   0  0  0  0  0  0  0  0  0  0  0  0
   57.0550   27.4960   45.6030 C   0  0  0  0  0  0  0  0  0  0  0  0
   55.9070   28.0050   45.4800 O   0  0  0  0  0  0  0  0  0  0  0  0
   58.1920   28.3280   45.5640 C   0  0  0  0  0  0  0  0  0  0  0  0
   58.0800   29.8020   45.4200 C   0  0  0  0  0  0  0  0  0  0  0  0
   57.7610   30.3660   44.1790 C   0  0  0  0  0  0  0  0  0  0  0  0
   57.6600   31.7590   44.0290 C   0  0  0  0  0  0  0  0  0  0  0  0
   57.3360   32.3490   42.7950 O   0  0  0  0  0  0  0  0  0  0  0  0
   58.1650   32.3150   41.6390 C   0  0  0  0  0  0  0  0  0  0  0  0
   57.8850   32.6030   45.1290 C   0  0  0  0  0  0  0  0  0  0  0  0
   57.7610   33.9870   44.8970 O   0  0  0  0  0  0  0  0  0  0  0  0
   58.8160   34.9430   44.8730 C   0  0  0  0  0  0  0  0  0  0  0  0
   58.2160   32.0430   46.3890 C   0  0  0  0  0  0  0  0  0  0  0  0
   58.4470   32.8810   47.4920 O   0  0  0  0  0  0  0  0  0  0  0  0
   59.6750   33.5440   47.7750 C   0  0  0  0  0  0  0  0  0  0  0  0
   58.3130   30.6430   46.5150 C   0  0  0  0  0  0  0  0  0  0  0  0
   59.4560   27.7320   45.6620 C   0  0  0  0  0  0  0  0  0  0  0  0
   59.5790   26.4180   45.7990 O   0  0  0  0  0  0  0  0  0  0  0  0
   58.5360   25.5970   45.8500 C   0  0  0  0  0  0  0  0  0  0  0  0
   58.7620   24.2270   45.9990 C   0  0  0  0  0  0  0  0  0  0  0  0
   57.0241   20.0975   45.8077 H   0  0  0  0  0  0  0  0  0  0  0  0
   56.6304   21.4012   44.6363 H   0  0  0  0  0  0  0  0  0  0  0  0
   58.2655   20.6574   44.6363 H   0  0  0  0  0  0  0  0  0  0  0  0
   55.5328   23.1175   46.0105 H   0  0  0  0  0  0  0  0  0  0  0  0
   53.2771   24.6216   46.6180 H   0  0  0  0  0  0  0  0  0  0  0  0
   52.8643   25.4286   45.0672 H   0  0  0  0  0  0  0  0  0  0  0  0
   53.8906   23.9543   45.0672 H   0  0  0  0  0  0  0  0  0  0  0  0
   57.5876   29.7114   43.3122 H   0  0  0  0  0  0  0  0  0  0  0  0
   59.2205   32.2717   41.9458 H   0  0  0  0  0  0  0  0  0  0  0  0
   57.9209   31.4261   41.0388 H   0  0  0  0  0  0  0  0  0  0  0  0
   57.9945   33.2209   41.0388 H   0  0  0  0  0  0  0  0  0  0  0  0
   59.1006   35.2009   45.9038 H   0  0  0  0  0  0  0  0  0  0  0  0
   59.6843   34.5178   44.3483 H   0  0  0  0  0  0  0  0  0  0  0  0
   58.4781   35.8489   44.3483 H   0  0  0  0  0  0  0  0  0  0  0  0
   59.8098   33.6168   48.8643 H   0  0  0  0  0  0  0  0  0  0  0  0
   60.5086   32.9734   47.3397 H   0  0  0  0  0  0  0  0  0  0  0  0
   59.6552   34.5540   47.3397 H   0  0  0  0  0  0  0  0  0  0  0  0
   58.5758   30.2039   47.4887 H   0  0  0  0  0  0  0  0  0  0  0  0
   60.3576   28.3611   45.6249 H   0  0  0  0  0  0  0  0  0  0  0  0
   59.7921   23.8479   46.0714 H   0  0  0  0  0  0  0  0  0  0  0  0
  1  2  1  0
  2  3  1  0
  3  4  2  0
  4  5  1  0
  5  6  1  0
  6  7  1  0
  5  8  2  0
  8  9  1  0
  9 10  2  0
  9 11  1  0
 11 12  1  0
 12 13  2  0
 13 14  1  0
 14 15  1  0
 15 16  1  0
 14 17  2  0
 17 18  1  0
 18 19  1  0
 17 20  1  0
 20 21  1  0
 21 22  1  0
 20 23  2  0
 11 24  2  0
 24 25  1  0
 25 26  1  0
 26 27  2  0
 27  3  1  0
 26  8  1  0
 23 12  1  0
  1 28  1  0
  1 29  1  0
  1 30  1  0
  4 31  1  0
  7 32  1  0
  7 33  1  0
  7 34  1  0
 13 35  1  0
 16 36  1  0
 16 37  1  0
 16 38  1  0
 19 39  1  0
 19 40  1  0
 19 41  1  0
 22 42  1  0
 22 43  1  0
 22 44  1  0
 23 45  1  0
 24 46  1  0
 27 47  1  0
M  END
>  <UniqueID>  (10) 
8

>  <SMILES>  (10) 
COc1cc(OC)c2c(=O)c(-c3cc(OC)c(OC)c(OC)c3)coc2c1

>  <Energy>  (10) 
63.50244985796685

>  <Genealogy>  (10) 
COc1cc(OC)c2c(=O)c(-c3cc(OC)c(OC)c(OC)c3)coc2c1 (3D coordinates assigned)
COc1cc(OC)c2c(=O)c(-c3cc(OC)c(OC)c(OC)c3)coc2c1 (optimized conformer: 63.50244985796685 kcal/mol)

>  <smiles>  (10) 
COc1cc(OC)c2c(=O)c(-c3cc(OC)c(OC)c(OC)c3)coc2c1

>  <score_type>  (10) 
oracle

>  <origin>  (10) 
adg

>  <m_score__min__energy>  (10) 
-6.5199999999999996

>  <m_primary>  (10) 
energy

$$$$
10:0
     RDKit          3D

 43 45  0  0  0  0  0  0  0  0999 V2000
   54.7540   26.2090   45.9300 N   0  0  0  0  0  0  0  0  0  0  0  0
   56.2710   25.4120   46.1480 S   0  0  0  0  0  0  0  0  0  0  0  0
   56.4790   24.4170   45.0400 O   0  0  0  0  0  0  0  0  0  0  0  0
   56.2690   24.6790   47.4600 O   0  0  0  0  0  0  0  0  0  0  0  0
   57.5690   26.6030   46.1370 C   0  0  0  0  0  0  0  0  0  0  0  0
   58.9010   26.1960   46.2760 C   0  0  0  0  0  0  0  0  0  0  0  0
   59.9270   27.1430   46.2730 C   0  0  0  0  0  0  0  0  0  0  0  0
   59.6290   28.5000   46.1250 C   0  0  0  0  0  0  0  0  0  0  0  0
   58.2970   28.9260   45.9650 C   0  0  0  0  0  0  0  0  0  0  0  0
   57.9850   30.3710   45.8430 C   0  0  0  0  0  0  0  0  0  0  0  0
   57.0800   30.7480   45.0480 O   0  0  0  0  0  0  0  0  0  0  0  0
   58.6950   31.3490   46.6150 N   0  0  0  0  0  0  0  0  0  0  0  0
   58.8720   32.7010   46.1640 C   0  0  0  0  0  0  0  0  0  0  0  0
   57.8760   33.2920   45.3730 C   0  0  0  0  0  0  0  0  0  0  0  0
   58.0370   34.5920   44.8870 C   0  0  0  0  0  0  0  0  0  0  0  0
   59.1890   35.3170   45.1960 C   0  0  0  0  0  0  0  0  0  0  0  0
   60.1760   34.7520   46.0070 C   0  0  0  0  0  0  0  0  0  0  0  0
   60.0220   33.4500   46.5100 C   0  0  0  0  0  0  0  0  0  0  0  0
   61.0050   32.9200   47.4140 N   0  0  0  0  0  0  0  0  0  0  0  0
   60.5800   32.4700   48.7440 C   0  0  0  0  0  0  0  0  0  0  0  0
   61.7380   31.7910   49.4740 C   0  0  0  0  0  0  0  0  0  0  0  0
   62.5140   31.0590   48.5500 O   0  0  0  0  0  0  0  0  0  0  0  0
   63.2750   31.9490   47.7510 C   0  0  0  0  0  0  0  0  0  0  0  0
   62.4310   33.0760   47.1080 C   0  0  0  0  0  0  0  0  0  0  0  0
   57.2700   27.9620   45.9730 C   0  0  0  0  0  0  0  0  0  0  0  0
   54.7790   27.0760   46.5120 H   0  0  0  0  0  0  0  0  0  0  0  0
   59.1399   25.1281   46.3878 H   0  0  0  0  0  0  0  0  0  0  0  0
   60.9723   26.8200   46.3874 H   0  0  0  0  0  0  0  0  0  0  0  0
   60.4417   29.2413   46.1336 H   0  0  0  0  0  0  0  0  0  0  0  0
   58.9530   31.1150   47.6000 H   0  0  0  0  0  0  0  0  0  0  0  0
   56.9622   32.7284   45.1337 H   0  0  0  0  0  0  0  0  0  0  0  0
   57.2548   35.0448   44.2600 H   0  0  0  0  0  0  0  0  0  0  0  0
   59.3198   36.3350   44.8002 H   0  0  0  0  0  0  0  0  0  0  0  0
   61.0789   35.3302   46.2530 H   0  0  0  0  0  0  0  0  0  0  0  0
   60.2423   33.3381   49.3292 H   0  0  0  0  0  0  0  0  0  0  0  0
   59.7586   31.7473   48.6297 H   0  0  0  0  0  0  0  0  0  0  0  0
   62.3659   32.5551   49.9556 H   0  0  0  0  0  0  0  0  0  0  0  0
   61.3387   31.1083   50.2385 H   0  0  0  0  0  0  0  0  0  0  0  0
   64.0481   32.4103   48.3832 H   0  0  0  0  0  0  0  0  0  0  0  0
   63.7062   31.3584   46.9293 H   0  0  0  0  0  0  0  0  0  0  0  0
   62.7757   34.0462   47.4952 H   0  0  0  0  0  0  0  0  0  0  0  0
   62.5579   33.0229   46.0166 H   0  0  0  0  0  0  0  0  0  0  0  0
   56.2239   28.2789   45.8494 H   0  0  0  0  0  0  0  0  0  0  0  0
  1  2  1  0
  2  3  2  0
  2  4  2  0
  2  5  1  0
  5  6  2  0
  6  7  1  0
  7  8  2  0
  8  9  1  0
  9 10  1  0
 10 11  2  0
 10 12  1  0
 12 13  1  0
 13 14  2  0
 14 15  1  0
 15 16  2  0
 16 17  1  0
 17 18  2  0
 18 19  1  0
 19 20  1  0
 20 21  1  0
 21 22  1  0
 22 23  1  0
 23 24  1  0
  9 25  2  0
 25  5  1  0
 18 13  1  0
 24 19  1  0
  1 26  1  0
  6 27  1  0
  7 28  1  0
  8 29  1  0
 12 30  1  0
 14 31  1  0
 15 32  1  0
 16 33  1  0
 17 34  1  0
 20 35  1  0
 20 36  1  0
 21 37  1  0
 21 38  1  0
 23 39  1  0
 23 40  1  0
 24 41  1  0
 24 42  1  0
 25 43  1  0
M  CHG  1   1  -1
M  END
>  <UniqueID>  (11) 
9

>  <SMILES>  (11) 
[NH-]S(=O)(=O)c1cccc(C(=O)Nc2ccccc2N2CCOCC2)c1

>  <Energy>  (11) 
59.638478803467194

>  <Genealogy>  (11) 
[NH-]S(=O)(=O)c1cccc(C(=O)Nc2ccccc2N2CCOCC2)c1 (protonated)
[NH-]S(=O)(=O)c1cccc(C(=O)Nc2ccccc2N2CCOCC2)c1 (3D coordinates assigned)
[NH-]S(=O)(=O)c1cccc(C(=O)Nc2ccccc2N2CCOCC2)c1 (nonaromatic ring conformer: 59.638478803467194 kcal/mol)

>  <smiles>  (11) 
NS(=O)(=O)c1cccc(C(=O)Nc2ccccc2N2CCOCC2)c1

>  <score_type>  (11) 
oracle

>  <origin>  (11) 
adg

>  <m_score__min__energy>  (11) 
-11.73

>  <m_primary>  (11) 
energy

$$$$
11:0
     RDKit          3D

 50 52  0  0  0  0  0  0  0  0999 V2000
   55.2090   25.1880   45.6310 C   0  0  0  0  0  0  0  0  0  0  0  0
   55.6090   26.4840   46.0650 O   0  0  0  0  0  0  0  0  0  0  0  0
   56.9380   26.8680   46.3100 C   0  0  0  0  0  0  0  0  0  0  0  0
   57.7210   26.2290   47.2930 C   0  0  0  0  0  0  0  0  0  0  0  0
   59.0370   26.6340   47.5240 C   0  0  0  0  0  0  0  0  0  0  0  0
   59.5910   27.6710   46.7770 C   0  0  0  0  0  0  0  0  0  0  0  0
   58.8310   28.3120   45.7990 C   0  0  0  0  0  0  0  0  0  0  0  0
   57.4990   27.9280   45.5630 C   0  0  0  0  0  0  0  0  0  0  0  0
   56.6960   28.6770   44.5250 C   0  0  0  0  0  0  0  0  0  0  0  0
   56.1930   29.9500   45.0710 N   0  0  0  0  0  0  0  0  0  0  0  0
   56.5360   31.1070   44.2280 C   0  0  0  0  0  0  0  0  0  0  0  0
   57.4570   32.0540   44.9500 C   0  0  0  0  0  0  0  0  0  0  0  0
   58.7350   31.6300   45.3480 C   0  0  0  0  0  0  0  0  0  0  0  0
   59.5610   32.4770   46.0910 C   0  0  0  0  0  0  0  0  0  0  0  0
   59.1300   33.7700   46.4250 C   0  0  0  0  0  0  0  0  0  0  0  0
   59.9830   34.6520   47.2990 C   0  0  0  0  0  0  0  0  0  0  0  0
   59.5740   34.5220   48.7070 N   0  0  0  0  0  0  0  0  0  0  0  0
   60.3370   33.4770   49.4080 C   0  0  0  0  0  0  0  0  0  0  0  0
   61.6490   33.1970   48.7340 C   0  0  0  0  0  0  0  0  0  0  0  0
   61.9890   32.0240   48.0710 C   0  0  0  0  0  0  0  0  0  0  0  0
   63.2980   32.0350   47.5730 C   0  0  0  0  0  0  0  0  0  0  0  0
   63.9890   33.2090   47.8440 C   0  0  0  0  0  0  0  0  0  0  0  0
   62.9720   34.2350   48.7070 S   0  0  0  0  0  0  0  0  0  0  0  0
   57.8620   34.2020   46.0110 C   0  0  0  0  0  0  0  0  0  0  0  0
   57.0350   33.3550   45.2690 C   0  0  0  0  0  0  0  0  0  0  0  0
   55.0128   24.5523   46.5070 H   0  0  0  0  0  0  0  0  0  0  0  0
   54.2944   25.2702   45.0254 H   0  0  0  0  0  0  0  0  0  0  0  0
   56.0108   24.7404   45.0254 H   0  0  0  0  0  0  0  0  0  0  0  0
   57.2919   25.4052   47.8823 H   0  0  0  0  0  0  0  0  0  0  0  0
   59.6376   26.1331   48.2975 H   0  0  0  0  0  0  0  0  0  0  0  0
   60.6295   27.9848   46.9588 H   0  0  0  0  0  0  0  0  0  0  0  0
   59.2773   29.1248   45.2072 H   0  0  0  0  0  0  0  0  0  0  0  0
   57.3363   28.8856   43.6552 H   0  0  0  0  0  0  0  0  0  0  0  0
   55.8373   28.0567   44.2284 H   0  0  0  0  0  0  0  0  0  0  0  0
   56.6600   30.0980   45.9970 H   0  0  0  0  0  0  0  0  0  0  0  0
   57.0334   30.7500   43.3141 H   0  0  0  0  0  0  0  0  0  0  0  0
   55.6086   31.6444   43.9808 H   0  0  0  0  0  0  0  0  0  0  0  0
   59.0879   30.6250   45.0732 H   0  0  0  0  0  0  0  0  0  0  0  0
   60.5528   32.1291   46.4154 H   0  0  0  0  0  0  0  0  0  0  0  0
   61.0368   34.3534   47.1979 H   0  0  0  0  0  0  0  0  0  0  0  0
   59.8569   35.6984   46.9841 H   0  0  0  0  0  0  0  0  0  0  0  0
   59.6940   35.4380   49.2010 H   0  0  0  0  0  0  0  0  0  0  0  0
   58.5610   34.2610   48.7400 H   0  0  0  0  0  0  0  0  0  0  0  0
   60.5300   33.8083   50.4390 H   0  0  0  0  0  0  0  0  0  0  0  0
   59.7417   32.5521   49.3945 H   0  0  0  0  0  0  0  0  0  0  0  0
   61.3009   31.1744   47.9498 H   0  0  0  0  0  0  0  0  0  0  0  0
   63.7378   31.1926   47.0190 H   0  0  0  0  0  0  0  0  0  0  0  0
   65.0243   33.4303   47.5455 H   0  0  0  0  0  0  0  0  0  0  0  0
   57.5165   35.2132   46.2718 H   0  0  0  0  0  0  0  0  0  0  0  0
   56.0490   33.7087   44.9332 H   0  0  0  0  0  0  0  0  0  0  0  0
  1  2  1  0
  2  3  1  0
  3  4  2  0
  4  5  1  0
  5  6  2  0
  6  7  1  0
  7  8  2  0
  8  9  1  0
  9 10  1  0
 10 11  1  0
 11 12  1  0
 12 13  2  0
 13 14  1  0
 14 15  2  0
 15 16  1  0
 16 17  1  0
 17 18  1  0
 18 19  1  0
 19 20  2  0
 20 21  1  0
 21 22  2  0
 22 23  1  0
 15 24  1  0
 24 25  2  0
  8  3  1  0
 25 12  1  0
 23 19  1  0
  1 26  1  0
  1 27  1  0
  1 28  1  0
  4 29  1  0
  5 30  1  0
  6 31  1  0
  7 32  1  0
  9 33  1  0
  9 34  1  0
 10 35  1  0
 11 36  1  0
 11 37  1  0
 13 38  1  0
 14 39  1  0
 16 40  1  0
 16 41  1  0
 17 42  1  0
 17 43  1  0
 18 44  1  0
 18 45  1  0
 20 46  1  0
 21 47  1  0
 22 48  1  0
 24 49  1  0
 25 50  1  0
M  CHG  1  17   1
M  END
>  <UniqueID>  (12) 
10

>  <SMILES>  (12) 
COc1ccccc1CNCc1ccc(C[NH2+]Cc2cccs2)cc1

>  <Energy>  (12) 
70.56410281385708

>  <Genealogy>  (12) 
COc1ccccc1CNCc1ccc(C[NH2+]Cc2cccs2)cc1 (protonated)
COc1ccccc1CNCc1ccc(C[NH2+]Cc2cccs2)cc1 (3D coordinates assigned)
COc1ccccc1CNCc1ccc(C[NH2+]Cc2cccs2)cc1 (optimized conformer: 70.56410281385708 kcal/mol)

>  <smiles>  (12) 
COc1ccccc1CNCc1ccc(CNCc2cccs2)cc1

>  <score_type>  (12) 
oracle

>  <origin>  (12) 
adg

>  <m_score__min__energy>  (12) 
-6.8200000000000003

>  <m_primary>  (12) 
energy

$$$$
12:0
     RDKit          3D

 47 49  0  0  0  0  0  0  0  0999 V2000
   58.1034   33.2989   44.5045 H   0  0  0  0  0  0  0  0  0  0  0  0
   57.6160   32.5730   45.1720 C   0  0  0  0  0  0  0  0  0  0  0  0
   57.0870   31.3240   44.5990 C   0  0  0  0  0  0  0  0  0  0  0  0
   55.8450   31.1620   44.4460 O   0  0  0  0  0  0  0  0  0  0  0  0
   58.0100   30.3180   44.1650 N   0  0  0  0  0  0  0  0  0  0  0  0
   58.1410   28.9960   44.7060 C   0  0  0  0  0  0  0  0  0  0  0  0
   59.4250   28.4590   44.8600 C   0  0  0  0  0  0  0  0  0  0  0  0
   60.3017   29.0481   44.5530 H   0  0  0  0  0  0  0  0  0  0  0  0
   59.6040   27.1840   45.3990 C   0  0  0  0  0  0  0  0  0  0  0  0
   60.6179   26.7701   45.5025 H   0  0  0  0  0  0  0  0  0  0  0  0
   58.4960   26.4290   45.8090 C   0  0  0  0  0  0  0  0  0  0  0  0
   58.6730   25.1470   46.3520 C   0  0  0  0  0  0  0  0  0  0  0  0
   59.6849   24.7267   46.4485 H   0  0  0  0  0  0  0  0  0  0  0  0
   57.5670   24.4040   46.7700 C   0  0  0  0  0  0  0  0  0  0  0  0
   57.7102   23.3993   47.1945 H   0  0  0  0  0  0  0  0  0  0  0  0
   56.2800   24.9320   46.6510 C   0  0  0  0  0  0  0  0  0  0  0  0
   55.4140   24.3413   46.9841 H   0  0  0  0  0  0  0  0  0  0  0  0
   56.0850   26.2070   46.1110 C   0  0  0  0  0  0  0  0  0  0  0  0
   54.7900   26.7080   46.0070 O   0  0  0  0  0  0  0  0  0  0  0  0
   57.1910   26.9680   45.6820 C   0  0  0  0  0  0  0  0  0  0  0  0
   57.0260   28.2550   45.1370 C   0  0  0  0  0  0  0  0  0  0  0  0
   56.0173   28.6846   45.0474 H   0  0  0  0  0  0  0  0  0  0  0  0
   57.5240   32.8560   46.4800 C   0  0  0  0  0  0  0  0  0  0  0  0
   56.6648   33.4505   46.8239 H   0  0  0  0  0  0  0  0  0  0  0  0
   58.5180   32.4110   47.4890 C   0  0  0  0  0  0  0  0  0  0  0  0
   58.8970   33.2140   48.5770 C   0  0  0  0  0  0  0  0  0  0  0  0
   58.4552   34.2149   48.6908 H   0  0  0  0  0  0  0  0  0  0  0  0
   59.8340   32.7580   49.5250 C   0  0  0  0  0  0  0  0  0  0  0  0
   60.2110   33.5660   50.6100 O   0  0  0  0  0  0  0  0  0  0  0  0
   59.6090   33.5400   51.9010 C   0  0  0  0  0  0  0  0  0  0  0  0
   60.3930   33.5739   52.6719 H   0  0  0  0  0  0  0  0  0  0  0  0
   58.9459   34.4103   52.0139 H   0  0  0  0  0  0  0  0  0  0  0  0
   59.0234   32.6157   52.0139 H   0  0  0  0  0  0  0  0  0  0  0  0
   60.3940   31.4630   49.3800 C   0  0  0  0  0  0  0  0  0  0  0  0
   61.3440   30.9180   50.2650 O   0  0  0  0  0  0  0  0  0  0  0  0
   62.7530   31.1180   50.2280 C   0  0  0  0  0  0  0  0  0  0  0  0
   63.1426   31.1733   51.2552 H   0  0  0  0  0  0  0  0  0  0  0  0
   63.2288   30.2784   49.7001 H   0  0  0  0  0  0  0  0  0  0  0  0
   62.9763   32.0569   49.7001 H   0  0  0  0  0  0  0  0  0  0  0  0
   60.0000   30.6520   48.3030 C   0  0  0  0  0  0  0  0  0  0  0  0
   60.5680   29.3720   48.1960 O   0  0  0  0  0  0  0  0  0  0  0  0
   59.9360   28.1660   48.6150 C   0  0  0  0  0  0  0  0  0  0  0  0
   59.9149   28.1258   49.7141 H   0  0  0  0  0  0  0  0  0  0  0  0
   58.9070   28.1374   48.2272 H   0  0  0  0  0  0  0  0  0  0  0  0
   60.4981   27.3036   48.2272 H   0  0  0  0  0  0  0  0  0  0  0  0
   59.0620   31.1270   47.3710 C   0  0  0  0  0  0  0  0  0  0  0  0
   58.7509   30.4807   46.5370 H   0  0  0  0  0  0  0  0  0  0  0  0
  1  2  1  0
  2  3  1  0
  3  4  2  0
  3  5  1  0
  5  6  1  0
  6  7  2  0
  7  8  1  0
  7  9  1  0
  9 10  1  0
  9 11  2  0
 11 12  1  0
 12 13  1  0
 12 14  2  0
 14 15  1  0
 14 16  1  0
 16 17  1  0
 16 18  2  0
 18 19  1  0
 18 20  1  0
 20 21  2  0
 21 22  1  0
  2 23  2  0
 23 24  1  0
 23 25  1  0
 25 26  2  0
 26 27  1  0
 26 28  1  0
 28 29  1  0
 29 30  1  0
 30 31  1  0
 30 32  1  0
 30 33  1  0
 28 34  2  0
 34 35  1  0
 35 36  1  0
 36 37  1  0
 36 38  1  0
 36 39  1  0
 34 40  1  0
 40 41  1  0
 41 42  1  0
 42 43  1  0
 42 44  1  0
 42 45  1  0
 40 46  2  0
 46 47  1  0
 21  6  1  0
 46 25  1  0
 20 11  1  0
M  CHG  2   5  -1  19  -1
M  END
>  <UniqueID>  (13) 
11

>  <SMILES>  (13) 
COc1cc(/C=C/C(=O)[N-]c2ccc3cccc([O-])c3c2)cc(OC)c1OC

>  <Energy>  (13) 
60.036141448730646

>  <Genealogy>  (13) 
COc1cc(C=CC(=O)[N-]c2ccc3cccc([O-])c3c2)cc(OC)c1OC (protonated)
COc1cc(/C=C/C(=O)[N-]c2ccc3cccc([O-])c3c2)cc(OC)c1OC (cis-trans isomerization)
COc1cc(/C=C/C(=O)[N-]c2ccc3cccc([O-])c3c2)cc(OC)c1OC (3D coordinates assigned)
COc1cc(/C=C/C(=O)[N-]c2ccc3cccc([O-])c3c2)cc(OC)c1OC (optimized conformer: 60.036141448730646 kcal/mol)

>  <smiles>  (13) 
COc1cc(C=CC(=O)Nc2ccc3cccc(O)c3c2)cc(OC)c1OC

>  <score_type>  (13) 
oracle

>  <origin>  (13) 
adg

>  <m_score__min__energy>  (13) 
-12.859999999999999

>  <m_primary>  (13) 
energy

$$$$
13:0
     RDKit          3D

 66 70  0  0  0  0  0  0  0  0999 V2000
   59.6470   36.1390   44.8880 C   0  0  0  0  0  0  0  0  0  0  0  0
   59.2770   34.7350   45.1380 N   0  0  0  0  0  0  0  0  0  0  0  0
   57.8030   34.5800   45.0990 C   0  0  0  0  0  0  0  0  0  0  0  0
   57.3530   33.2790   45.7740 C   0  0  0  0  0  0  0  0  0  0  0  0
   57.7640   33.2410   47.2590 C   0  0  0  0  0  0  0  0  0  0  0  0
   58.9460   34.1770   47.5740 C   0  0  1  0  0  0  0  0  0  0  0  0
   59.6170   33.7160   48.7490 O   0  0  0  0  0  0  0  0  0  0  0  0
   60.1340   32.4210   48.8780 C   0  0  0  0  0  0  0  0  0  0  0  0
   59.5150   31.3630   48.2940 N   0  0  0  0  0  0  0  0  0  0  0  0
   60.0170   30.1090   48.4270 C   0  0  0  0  0  0  0  0  0  0  0  0
   59.3310   28.9600   47.7880 C   0  0  0  0  0  0  0  0  0  0  0  0
   58.3750   29.1630   46.7770 C   0  0  0  0  0  0  0  0  0  0  0  0
   57.7310   28.0760   46.1770 C   0  0  0  0  0  0  0  0  0  0  0  0
   58.0330   26.7640   46.5750 C   0  0  0  0  0  0  0  0  0  0  0  0
   57.3560   25.6340   46.0040 N   0  0  0  0  0  0  0  0  0  0  0  0
   55.9320   25.5380   45.8650 C   0  0  0  0  0  0  0  0  0  0  0  0
   55.1990   26.5420   46.0750 O   0  0  0  0  0  0  0  0  0  0  0  0
   55.3520   24.2810   45.4910 N   0  0  0  0  0  0  0  0  0  0  0  0
   55.9890   23.2440   44.7330 C   0  0  0  0  0  0  0  0  0  0  0  0
   56.7370   22.2740   45.4130 C   0  0  0  0  0  0  0  0  0  0  0  0
   57.3990   21.2660   44.7060 C   0  0  0  0  0  0  0  0  0  0  0  0
   57.3340   21.2320   43.3120 C   0  0  0  0  0  0  0  0  0  0  0  0
   56.6110   22.2070   42.6210 C   0  0  0  0  0  0  0  0  0  0  0  0
   55.9420   23.2140   43.3250 C   0  0  0  0  0  0  0  0  0  0  0  0
   58.9690   26.5590   47.5970 C   0  0  0  0  0  0  0  0  0  0  0  0
   59.6220   27.6430   48.1890 C   0  0  0  0  0  0  0  0  0  0  0  0
   61.1540   29.9230   49.1490 N   0  0  0  0  0  0  0  0  0  0  0  0
   61.7870   30.9750   49.7350 C   0  0  0  0  0  0  0  0  0  0  0  0
   62.9970   30.7680   50.4940 N   0  0  0  0  0  0  0  0  0  0  0  0
   64.0030   31.8370   50.5680 C   0  0  0  0  0  0  0  0  0  0  0  0
   65.3790   31.2600   50.9120 C   0  0  0  0  0  0  0  0  0  0  0  0
   65.3040   30.4180   52.0440 O   0  0  0  0  0  0  0  0  0  0  0  0
   64.5260   29.2810   51.7320 C   0  0  0  0  0  0  0  0  0  0  0  0
   63.0700   29.6720   51.4710 C   0  0  0  0  0  0  0  0  0  0  0  0
   61.2680   32.2230   49.5930 N   0  0  0  0  0  0  0  0  0  0  0  0
   59.9170   34.2220   46.3790 C   0  0  0  0  0  0  0  0  0  0  0  0
   59.7839   36.6586   45.8478 H   0  0  0  0  0  0  0  0  0  0  0  0
   60.5852   36.1745   44.3148 H   0  0  0  0  0  0  0  0  0  0  0  0
   58.8482   36.6322   44.3148 H   0  0  0  0  0  0  0  0  0  0  0  0
   57.3409   35.4310   45.6208 H   0  0  0  0  0  0  0  0  0  0  0  0
   57.4888   34.5468   44.0453 H   0  0  0  0  0  0  0  0  0  0  0  0
   56.2580   33.2004   45.7042 H   0  0  0  0  0  0  0  0  0  0  0  0
   57.8399   32.4373   45.2597 H   0  0  0  0  0  0  0  0  0  0  0  0
   56.9017   33.5454   47.8705 H   0  0  0  0  0  0  0  0  0  0  0  0
   58.0839   32.2139   47.4885 H   0  0  0  0  0  0  0  0  0  0  0  0
   58.5704   35.1953   47.7529 H   0  0  0  0  0  0  0  0  0  0  0  0
   58.1314   30.1862   46.4550 H   0  0  0  0  0  0  0  0  0  0  0  0
   56.9837   28.2501   45.3888 H   0  0  0  0  0  0  0  0  0  0  0  0
   57.9330   24.8820   45.5660 H   0  0  0  0  0  0  0  0  0  0  0  0
   56.8038   22.3058   46.5105 H   0  0  0  0  0  0  0  0  0  0  0  0
   57.9715   20.4992   45.2485 H   0  0  0  0  0  0  0  0  0  0  0  0
   57.8528   20.4364   42.7571 H   0  0  0  0  0  0  0  0  0  0  0  0
   56.5676   22.1831   41.5221 H   0  0  0  0  0  0  0  0  0  0  0  0
   55.3781   23.9840   42.7782 H   0  0  0  0  0  0  0  0  0  0  0  0
   59.1916   25.5365   47.9360 H   0  0  0  0  0  0  0  0  0  0  0  0
   60.3702   27.4654   48.9755 H   0  0  0  0  0  0  0  0  0  0  0  0
   64.0585   32.3490   49.5960 H   0  0  0  0  0  0  0  0  0  0  0  0
   63.7091   32.5463   51.3557 H   0  0  0  0  0  0  0  0  0  0  0  0
   65.7504   30.6790   50.0550 H   0  0  0  0  0  0  0  0  0  0  0  0
   66.0625   32.0918   51.1374 H   0  0  0  0  0  0  0  0  0  0  0  0
   64.9366   28.7992   50.8324 H   0  0  0  0  0  0  0  0  0  0  0  0
   64.5567   28.5884   52.5860 H   0  0  0  0  0  0  0  0  0  0  0  0
   62.5262   28.8003   51.0780 H   0  0  0  0  0  0  0  0  0  0  0  0
   62.6176   30.0077   52.4158 H   0  0  0  0  0  0  0  0  0  0  0  0
   60.7616   34.8780   46.6364 H   0  0  0  0  0  0  0  0  0  0  0  0
   60.2477   33.1918   46.1807 H   0  0  0  0  0  0  0  0  0  0  0  0
  1  2  1  0
  2  3  1  0
  3  4  1  0
  4  5  1  0
  5  6  1  0
  6  7  1  0
  7  8  1  0
  8  9  2  0
  9 10  1  0
 10 11  1  0
 11 12  2  0
 12 13  1  0
 13 14  2  0
 14 15  1  0
 15 16  1  0
 16 17  2  0
 16 18  1  0
 18 19  1  0
 19 20  2  0
 20 21  1  0
 21 22  2  0
 22 23  1  0
 23 24  2  0
 14 25  1  0
 25 26  2  0
 10 27  2  0
 27 28  1  0
 28 29  1  0
 29 30  1  0
 30 31  1  0
 31 32  1  0
 32 33  1  0
 33 34  1  0
 28 35  2  0
  6 36  1  0
 36  2  1  0
 35  8  1  0
 26 11  1  0
 34 29  1  0
 24 19  1  0
  1 37  1  0
  1 38  1  0
  1 39  1  0
  3 40  1  0
  3 41  1  0
  4 42  1  0
  4 43  1  0
  5 44  1  0
  5 45  1  0
  6 46  1  1
 12 47  1  0
 13 48  1  0
 15 49  1  0
 20 50  1  0
 21 51  1  0
 22 52  1  0
 23 53  1  0
 24 54  1  0
 25 55  1  0
 26 56  1  0
 30 57  1  0
 30 58  1  0
 31 59  1  0
 31 60  1  0
 33 61  1  0
 33 62  1  0
 34 63  1  0
 34 64  1  0
 36 65  1  0
 36 66  1  0
M  CHG  1  18  -1
M  END
>  <UniqueID>  (14) 
12

>  <SMILES>  (14) 
CN1CCC[C@@H](Oc2nc(-c3ccc(NC(=O)[N-]c4ccccc4)cc3)nc(N3CCOCC3)n2)C1

>  <Energy>  (14) 
85.50777864607169

>  <Genealogy>  (14) 
CN1CCCC(Oc2nc(-c3ccc(NC(=O)[N-]c4ccccc4)cc3)nc(N3CCOCC3)n2)C1 (protonated)
CN1CCC[C@@H](Oc2nc(-c3ccc(NC(=O)[N-]c4ccccc4)cc3)nc(N3CCOCC3)n2)C1 (chirality)
CN1CCC[C@@H](Oc2nc(-c3ccc(NC(=O)[N-]c4ccccc4)cc3)nc(N3CCOCC3)n2)C1 (3D coordinates assigned)
CN1CCC[C@@H](Oc2nc(-c3ccc(NC(=O)[N-]c4ccccc4)cc3)nc(N3CCOCC3)n2)C1 (nonaromatic ring conformer: 85.50777864607169 kcal/mol)

>  <smiles>  (14) 
CN1CCCC(Oc2nc(-c3ccc(NC(=O)Nc4ccccc4)cc3)nc(N3CCOCC3)n2)C1

>  <score_type>  (14) 
oracle

>  <origin>  (14) 
adg

>  <m_score__min__energy>  (14) 
-9.8499999999999996

>  <m_primary>  (14) 
energy

$$$$
14:0
     RDKit          3D

 61 65  0  0  0  0  0  0  0  0999 V2000
   58.8870   32.7450   51.2360 C   0  0  0  0  0  0  0  0  0  0  0  0
   59.6390   33.8000   50.4310 C   0  0  0  0  0  0  0  0  0  0  0  0
   59.7440   33.3850   49.0140 N   0  0  0  0  0  0  0  0  0  0  0  0
   59.7900   34.5510   48.0990 C   0  0  0  0  0  0  0  0  0  0  0  0
   58.9320   34.3120   46.8970 C   0  0  0  0  0  0  0  0  0  0  0  0
   59.2700   34.6130   45.5940 C   0  0  0  0  0  0  0  0  0  0  0  0
   58.1950   34.2120   44.8310 C   0  0  0  0  0  0  0  0  0  0  0  0
   57.2680   33.6980   45.7170 C   0  0  0  0  0  0  0  0  0  0  0  0
   57.7370   33.7720   46.9410 O   0  0  0  0  0  0  0  0  0  0  0  0
   60.8070   32.3800   48.7230 C   0  0  1  0  0  0  0  0  0  0  0  0
   60.2900   31.1200   48.0120 C   0  0  0  0  0  0  0  0  0  0  0  0
   59.6750   31.1910   46.7470 C   0  0  0  0  0  0  0  0  0  0  0  0
   59.1870   30.0370   46.1250 C   0  0  0  0  0  0  0  0  0  0  0  0
   58.5720   30.0930   44.8660 C   0  0  0  0  0  0  0  0  0  0  0  0
   58.0940   28.9240   44.2670 C   0  0  0  0  0  0  0  0  0  0  0  0
   58.2270   27.6860   44.9110 C   0  0  0  0  0  0  0  0  0  0  0  0
   57.7350   26.5440   44.2630 O   0  0  0  0  0  0  0  0  0  0  0  0
   57.7710   26.3400   42.8540 C   0  0  0  0  0  0  0  0  0  0  0  0
   58.8450   27.6300   46.1750 C   0  0  0  0  0  0  0  0  0  0  0  0
   59.3220   28.7990   46.7790 C   0  0  0  0  0  0  0  0  0  0  0  0
   59.9200   28.7410   47.9960 N   0  0  0  0  0  0  0  0  0  0  0  0
   60.4010   29.8470   48.6220 C   0  0  0  0  0  0  0  0  0  0  0  0
   60.9420   29.7150   49.7520 O   0  0  0  0  0  0  0  0  0  0  0  0
   61.9960   33.0130   48.0260 C   0  0  0  0  0  0  0  0  0  0  0  0
   62.3890   32.7430   46.7650 N   0  0  0  0  0  0  0  0  0  0  0  0
   63.4430   33.5170   46.5510 N   0  0  0  0  0  0  0  0  0  0  0  0
   63.7010   34.2400   47.6290 N   0  0  0  0  0  0  0  0  0  0  0  0
   62.8140   33.9420   48.5620 N   0  0  0  0  0  0  0  0  0  0  0  0
   62.8000   34.5220   49.9050 C   0  0  0  0  0  0  0  0  0  0  0  0
   63.5750   33.6390   50.9000 C   0  0  2  0  0  0  0  0  0  0  0  0
   65.0000   33.3480   50.4470 C   0  0  0  0  0  0  0  0  0  0  0  0
   64.8700   32.0330   49.7480 C   0  0  0  0  0  0  0  0  0  0  0  0
   63.6550   31.4120   50.4080 C   0  0  0  0  0  0  0  0  0  0  0  0
   62.8940   32.4130   51.0500 O   0  0  0  0  0  0  0  0  0  0  0  0
   59.0239   32.9371   52.3104 H   0  0  0  0  0  0  0  0  0  0  0  0
   57.8160   32.7898   50.9891 H   0  0  0  0  0  0  0  0  0  0  0  0
   59.2787   31.7472   50.9891 H   0  0  0  0  0  0  0  0  0  0  0  0
   59.0979   34.7559   50.4903 H   0  0  0  0  0  0  0  0  0  0  0  0
   60.6509   33.9141   50.8469 H   0  0  0  0  0  0  0  0  0  0  0  0
   59.4264   35.4425   48.6311 H   0  0  0  0  0  0  0  0  0  0  0  0
   60.8284   34.7016   47.7689 H   0  0  0  0  0  0  0  0  0  0  0  0
   60.2023   35.0761   45.2385 H   0  0  0  0  0  0  0  0  0  0  0  0
   58.0952   34.2861   43.7381 H   0  0  0  0  0  0  0  0  0  0  0  0
   56.2856   33.2887   45.4390 H   0  0  0  0  0  0  0  0  0  0  0  0
   61.1627   32.0165   49.6984 H   0  0  0  0  0  0  0  0  0  0  0  0
   59.5774   32.1638   46.2430 H   0  0  0  0  0  0  0  0  0  0  0  0
   58.4656   31.0581   44.3491 H   0  0  0  0  0  0  0  0  0  0  0  0
   57.6090   28.9760   43.2811 H   0  0  0  0  0  0  0  0  0  0  0  0
   57.9586   25.2770   42.6421 H   0  0  0  0  0  0  0  0  0  0  0  0
   56.8066   26.6366   42.4158 H   0  0  0  0  0  0  0  0  0  0  0  0
   58.5756   26.9488   42.4158 H   0  0  0  0  0  0  0  0  0  0  0  0
   58.9533   26.6639   46.6897 H   0  0  0  0  0  0  0  0  0  0  0  0
   63.2657   35.5180   49.8707 H   0  0  0  0  0  0  0  0  0  0  0  0
   61.7556   34.5940   50.2428 H   0  0  0  0  0  0  0  0  0  0  0  0
   63.6326   34.1911   51.8497 H   0  0  0  0  0  0  0  0  0  0  0  0
   65.3630   34.1266   49.7599 H   0  0  0  0  0  0  0  0  0  0  0  0
   65.7224   33.3280   51.2763 H   0  0  0  0  0  0  0  0  0  0  0  0
   64.7051   32.1736   48.6696 H   0  0  0  0  0  0  0  0  0  0  0  0
   65.7724   31.4091   49.8288 H   0  0  0  0  0  0  0  0  0  0  0  0
   63.0372   30.9177   49.6438 H   0  0  0  0  0  0  0  0  0  0  0  0
   63.9850   30.6734   51.1533 H   0  0  0  0  0  0  0  0  0  0  0  0
  1  2  1  0
  2  3  1  0
  3  4  1  0
  4  5  1  0
  5  6  2  0
  6  7  1  0
  7  8  2  0
  8  9  1  0
  3 10  1  0
 10 11  1  0
 11 12  2  0
 12 13  1  0
 13 14  2  0
 14 15  1  0
 15 16  2  0
 16 17  1  0
 17 18  1  0
 16 19  1  0
 19 20  2  0
 20 21  1  0
 21 22  1  0
 22 23  2  0
 10 24  1  0
 24 25  2  0
 25 26  1  0
 26 27  2  0
 27 28  1  0
 28 29  1  0
 29 30  1  0
 30 31  1  0
 31 32  1  0
 32 33  1  0
 33 34  1  0
  9  5  1  0
 22 11  1  0
 28 24  1  0
 34 30  1  0
 20 13  1  0
  1 35  1  0
  1 36  1  0
  1 37  1  0
  2 38  1  0
  2 39  1  0
  4 40  1  0
  4 41  1  0
  6 42  1  0
  7 43  1  0
  8 44  1  0
 10 45  1  1
 12 46  1  0
 14 47  1  0
 15 48  1  0
 18 49  1  0
 18 50  1  0
 18 51  1  0
 19 52  1  0
 29 53  1  0
 29 54  1  0
 30 55  1  1
 31 56  1  0
 31 57  1  0
 32 58  1  0
 32 59  1  0
 33 60  1  0
 33 61  1  0
M  CHG  1  21  -1
M  END
>  <UniqueID>  (15) 
13

>  <SMILES>  (15) 
CCN(Cc1ccco1)[C@@H](c1cc2ccc(OC)cc2[n-]c1=O)c1nnnn1C[C@@H]1CCCO1

>  <Energy>  (15) 
136.34296125640208

>  <Genealogy>  (15) 
CCN(Cc1ccco1)C(c1cc2ccc(OC)cc2[n-]c1=O)c1nnnn1CC1CCCO1 (protonated)
CCN(Cc1ccco1)[C@@H](c1cc2ccc(OC)cc2[n-]c1=O)c1nnnn1C[C@@H]1CCCO1 (chirality)
CCN(Cc1ccco1)[C@@H](c1cc2ccc(OC)cc2[n-]c1=O)c1nnnn1C[C@@H]1CCCO1 (3D coordinates assigned)
CCN(Cc1ccco1)[C@@H](c1cc2ccc(OC)cc2[n-]c1=O)c1nnnn1C[C@@H]1CCCO1 (nonaromatic ring conformer: 136.34296125640208 kcal/mol)

>  <smiles>  (15) 
CCN(Cc1ccco1)C(c1cc2ccc(OC)cc2[nH]c1=O)c1nnnn1CC1CCCO1

>  <score_type>  (15) 
oracle

>  <origin>  (15) 
adg

>  <m_score__min__energy>  (15) 
-11.029999999999999

>  <m_primary>  (15) 
energy

$$$$
15:0
     RDKit          3D

 39 41  0  0  0  0  0  0  0  0999 V2000
   51.8359   32.4335   49.9312 H   0  0  0  0  0  0  0  0  0  0  0  0
   52.1550   31.9400   50.8610 C   0  0  0  0  0  0  0  0  0  0  0  0
   53.3160   31.1600   50.8750 C   0  0  0  0  0  0  0  0  0  0  0  0
   53.9081   31.0419   49.9555 H   0  0  0  0  0  0  0  0  0  0  0  0
   53.7290   30.5260   52.0610 C   0  0  0  0  0  0  0  0  0  0  0  0
   54.9120   29.7200   52.1120 N   0  0  0  0  0  0  0  0  0  0  0  0
   55.9670   30.1030   52.7130 N   0  0  0  0  0  0  0  0  0  0  0  0
   56.9570   30.9150   52.0700 C   0  0  0  0  0  0  0  0  0  0  0  0
   57.7550   30.4180   51.0240 C   0  0  0  0  0  0  0  0  0  0  0  0
   57.6243   29.3814   50.6798 H   0  0  0  0  0  0  0  0  0  0  0  0
   58.7140   31.2370   50.4200 C   0  0  0  0  0  0  0  0  0  0  0  0
   59.3352   30.8410   49.6031 H   0  0  0  0  0  0  0  0  0  0  0  0
   58.8880   32.5580   50.8490 C   0  0  0  0  0  0  0  0  0  0  0  0
   59.8800   33.3690   50.2070 N   0  0  0  0  0  0  0  0  0  0  0  0
   59.5740   34.2740   49.3670 N   0  0  0  0  0  0  0  0  0  0  0  0
   59.1950   33.9690   48.0190 C   0  0  0  0  0  0  0  0  0  0  0  0
   59.8950   34.5690   46.9650 C   0  0  0  0  0  0  0  0  0  0  0  0
   60.7211   35.2623   47.1817 H   0  0  0  0  0  0  0  0  0  0  0  0
   59.5500   34.2920   45.6390 C   0  0  0  0  0  0  0  0  0  0  0  0
   60.1113   34.7620   44.8180 H   0  0  0  0  0  0  0  0  0  0  0  0
   58.4920   33.4180   45.3500 C   0  0  0  0  0  0  0  0  0  0  0  0
   58.1480   33.0900   43.9270 C   0  0  0  0  0  0  0  0  0  0  0  0
   57.3520   32.3310   43.9078 H   0  0  0  0  0  0  0  0  0  0  0  0
   57.8001   33.9993   43.4149 H   0  0  0  0  0  0  0  0  0  0  0  0
   59.0397   32.6992   43.4149 H   0  0  0  0  0  0  0  0  0  0  0  0
   57.8000   32.8020   46.4050 C   0  0  0  0  0  0  0  0  0  0  0  0
   56.9830   32.0986   46.1865 H   0  0  0  0  0  0  0  0  0  0  0  0
   58.1440   33.0780   47.7320 C   0  0  0  0  0  0  0  0  0  0  0  0
   57.5920   32.5977   48.5533 H   0  0  0  0  0  0  0  0  0  0  0  0
   58.0910   33.0550   51.8950 C   0  0  0  0  0  0  0  0  0  0  0  0
   58.2212   34.0918   52.2386 H   0  0  0  0  0  0  0  0  0  0  0  0
   57.1330   32.2350   52.5000 C   0  0  0  0  0  0  0  0  0  0  0  0
   56.5140   32.6302   53.3190 H   0  0  0  0  0  0  0  0  0  0  0  0
   52.9650   30.6850   53.2260 C   0  0  0  0  0  0  0  0  0  0  0  0
   53.2803   30.1931   54.1580 H   0  0  0  0  0  0  0  0  0  0  0  0
   51.8050   31.4650   53.2100 C   0  0  0  0  0  0  0  0  0  0  0  0
   51.2105   31.5851   54.1277 H   0  0  0  0  0  0  0  0  0  0  0  0
   51.4000   32.0930   52.0270 C   0  0  0  0  0  0  0  0  0  0  0  0
   50.2460   32.8680   52.0120 O   0  0  0  0  0  0  0  0  0  0  0  0
  1  2  1  0
  2  3  2  0
  3  4  1  0
  3  5  1  0
  5  6  1  0
  6  7  2  0
  7  8  1  0
  8  9  2  0
  9 10  1  0
  9 11  1  0
 11 12  1  0
 11 13  2  0
 13 14  1  0
 14 15  2  0
 15 16  1  0
 16 17  2  0
 17 18  1  0
 17 19  1  0
 19 20  1  0
 19 21  2  0
 21 22  1  0
 22 23  1  0
 22 24  1  0
 22 25  1  0
 21 26  1  0
 26 27  1  0
 26 28  2  0
 28 29  1  0
 13 30  1  0
 30 31  1  0
 30 32  2  0
 32 33  1  0
  5 34  2  0
 34 35  1  0
 34 36  1  0
 36 37  1  0
 36 38  2  0
 38 39  1  0
 38  2  1  0
 32  8  1  0
 28 16  1  0
M  CHG  1  39  -1
M  END
>  <UniqueID>  (16) 
14

>  <SMILES>  (16) 
Cc1ccc(/N=N/c2ccc(/N=N/c3ccc([O-])cc3)cc2)cc1

>  <Energy>  (16) 
41.43216218226588

>  <Genealogy>  (16) 
Cc1ccc(N=Nc2ccc(N=Nc3ccc([O-])cc3)cc2)cc1 (protonated)
Cc1ccc(/N=N/c2ccc(/N=N/c3ccc([O-])cc3)cc2)cc1 (cis-trans isomerization)
Cc1ccc(/N=N/c2ccc(/N=N/c3ccc([O-])cc3)cc2)cc1 (3D coordinates assigned)
Cc1ccc(/N=N/c2ccc(/N=N/c3ccc([O-])cc3)cc2)cc1 (optimized conformer: 41.43216218226588 kcal/mol)

>  <smiles>  (16) 
Cc1ccc(N=Nc2ccc(N=Nc3ccc(O)cc3)cc2)cc1

>  <score_type>  (16) 
oracle

>  <origin>  (16) 
adg

>  <m_score__min__energy>  (16) 
-12.08

>  <m_primary>  (16) 
energy

$$$$
16:0
     RDKit          3D

 30 32  0  0  0  0  0  0  0  0999 V2000
   55.6450   28.7900   44.8830 N   0  0  0  0  0  0  0  0  0  0  0  0
   56.3410   29.8550   44.2320 C   0  0  0  0  0  0  0  0  0  0  0  0
   56.2250   30.0270   42.8460 C   0  0  0  0  0  0  0  0  0  0  0  0
   56.9060   31.0680   42.2100 C   0  0  0  0  0  0  0  0  0  0  0  0
   57.7050   31.9420   42.9520 C   0  0  0  0  0  0  0  0  0  0  0  0
   57.8340   31.7830   44.3440 C   0  0  0  0  0  0  0  0  0  0  0  0
   58.6770   32.7010   45.1470 C   0  0  0  0  0  0  0  0  0  0  0  0
   59.6230   32.3710   46.1000 C   0  0  0  0  0  0  0  0  0  0  0  0
   60.1250   33.5330   46.5600 N   0  0  0  0  0  0  0  0  0  0  0  0
   61.1340   33.7240   47.5720 C   0  0  0  0  0  0  0  0  0  0  0  0
   60.7540   33.9930   48.8980 C   0  0  0  0  0  0  0  0  0  0  0  0
   61.7330   34.1770   49.8750 C   0  0  0  0  0  0  0  0  0  0  0  0
   63.0800   34.0950   49.5310 C   0  0  0  0  0  0  0  0  0  0  0  0
   63.4310   33.8310   48.2060 C   0  0  0  0  0  0  0  0  0  0  0  0
   62.4660   33.6540   47.2620 N   0  0  0  0  0  0  0  0  0  0  0  0
   59.5140   34.5220   45.9250 N   0  0  0  0  0  0  0  0  0  0  0  0
   58.6310   34.0470   45.0590 N   0  0  0  0  0  0  0  0  0  0  0  0
   57.1430   30.7320   44.9750 C   0  0  0  0  0  0  0  0  0  0  0  0
   54.7790   28.9760   45.4370 H   0  0  0  0  0  0  0  0  0  0  0  0
   55.9890   27.8050   44.8160 H   0  0  0  0  0  0  0  0  0  0  0  0
   55.5970   29.3415   42.2581 H   0  0  0  0  0  0  0  0  0  0  0  0
   56.8130   31.2000   41.1219 H   0  0  0  0  0  0  0  0  0  0  0  0
   58.2369   32.7601   42.4442 H   0  0  0  0  0  0  0  0  0  0  0  0
   59.9093   31.3582   46.4197 H   0  0  0  0  0  0  0  0  0  0  0  0
   59.6888   34.0582   49.1646 H   0  0  0  0  0  0  0  0  0  0  0  0
   61.4415   34.3864   50.9148 H   0  0  0  0  0  0  0  0  0  0  0  0
   63.8587   34.2367   50.2949 H   0  0  0  0  0  0  0  0  0  0  0  0
   64.4920   33.7657   47.9233 H   0  0  0  0  0  0  0  0  0  0  0  0
   62.7760   33.4730   46.2830 H   0  0  0  0  0  0  0  0  0  0  0  0
   57.2333   30.5973   46.0630 H   0  0  0  0  0  0  0  0  0  0  0  0
  1  2  1  0
  2  3  2  0
  3  4  1  0
  4  5  2  0
  5  6  1  0
  6  7  1  0
  7  8  2  0
  8  9  1  0
  9 10  1  0
 10 11  2  0
 11 12  1  0
 12 13  2  0
 13 14  1  0
 14 15  2  0
  9 16  1  0
 16 17  2  0
  6 18  2  0
 18  2  1  0
 17  7  1  0
 15 10  1  0
  1 19  1  0
  1 20  1  0
  3 21  1  0
  4 22  1  0
  5 23  1  0
  8 24  1  0
 11 25  1  0
 12 26  1  0
 13 27  1  0
 14 28  1  0
 15 29  1  0
 18 30  1  0
M  CHG  1  15   1
M  END
>  <UniqueID>  (17) 
15

>  <SMILES>  (17) 
Nc1cccc(-c2cn(-c3cccc[nH+]3)nn2)c1

>  <Energy>  (17) 
70.24328649581969

>  <Genealogy>  (17) 
Nc1cccc(-c2cn(-c3cccc[nH+]3)nn2)c1 (protonated)
Nc1cccc(-c2cn(-c3cccc[nH+]3)nn2)c1 (3D coordinates assigned)
Nc1cccc(-c2cn(-c3cccc[nH+]3)nn2)c1 (optimized conformer: 70.24328649581969 kcal/mol)

>  <smiles>  (17) 
Nc1cccc(-c2cn(-c3ccccn3)nn2)c1

>  <score_type>  (17) 
oracle

>  <origin>  (17) 
adg

>  <m_score__min__energy>  (17) 
-6.3300000000000001

>  <m_primary>  (17) 
energy

$$$$
17:0
     RDKit          3D

 53 56  0  0  0  0  0  0  0  0999 V2000
   64.7260   31.1184   50.4978 H   0  0  0  0  0  0  0  0  0  0  0  0
   63.8180   31.7220   50.6430 C   0  0  0  0  0  0  0  0  0  0  0  0
   62.9910   31.6430   51.7050 N   0  0  0  0  0  0  0  0  0  0  0  0
   62.0330   32.5600   51.4550 C   0  0  0  0  0  0  0  0  0  0  0  0
   61.1838   32.7529   52.1271 H   0  0  0  0  0  0  0  0  0  0  0  0
   62.2290   33.2140   50.2930 N   0  0  0  0  0  0  0  0  0  0  0  0
   61.3300   34.2060   49.7020 C   0  0  0  0  0  0  0  0  0  0  0  0
   61.5164   35.1867   50.1641 H   0  0  0  0  0  0  0  0  0  0  0  0
   61.5164   34.2603   48.6193 H   0  0  0  0  0  0  0  0  0  0  0  0
   59.8730   33.8040   49.9390 C   0  0  0  0  0  0  0  0  0  0  0  0
   59.8083   33.2067   50.8604 H   0  0  0  0  0  0  0  0  0  0  0  0
   59.2648   34.7158   50.0324 H   0  0  0  0  0  0  0  0  0  0  0  0
   59.3790   33.0320   48.8440 O   0  0  0  0  0  0  0  0  0  0  0  0
   58.9720   33.5470   47.6020 C   0  0  0  0  0  0  0  0  0  0  0  0
   57.6830   33.3360   47.0720 C   0  0  0  0  0  0  0  0  0  0  0  0
   56.9466   32.7479   47.6393 H   0  0  0  0  0  0  0  0  0  0  0  0
   57.3370   33.8720   45.8270 C   0  0  0  0  0  0  0  0  0  0  0  0
   56.3294   33.7053   45.4185 H   0  0  0  0  0  0  0  0  0  0  0  0
   58.2680   34.6180   45.1020 C   0  0  0  0  0  0  0  0  0  0  0  0
   57.9924   35.0406   44.1245 H   0  0  0  0  0  0  0  0  0  0  0  0
   59.5490   34.8280   45.6170 C   0  0  0  0  0  0  0  0  0  0  0  0
   60.2828   35.4142   45.0443 H   0  0  0  0  0  0  0  0  0  0  0  0
   59.8990   34.2930   46.8610 C   0  0  0  0  0  0  0  0  0  0  0  0
   60.9101   34.4590   47.2612 H   0  0  0  0  0  0  0  0  0  0  0  0
   63.3480   32.6770   49.7680 C   0  0  0  0  0  0  0  0  0  0  0  0
   64.0010   33.0840   48.4750 C   0  0  0  0  0  0  0  0  0  0  0  0
   64.9681   32.5671   48.3881 H   0  0  0  0  0  0  0  0  0  0  0  0
   64.1319   34.1761   48.4910 H   0  0  0  0  0  0  0  0  0  0  0  0
   63.1380   32.7290   47.2540 C   0  0  0  0  0  0  0  0  0  0  0  0
   63.7261   32.9202   46.3443 H   0  0  0  0  0  0  0  0  0  0  0  0
   62.2334   33.3529   47.3042 H   0  0  0  0  0  0  0  0  0  0  0  0
   62.6760   31.2620   47.2360 C   0  0  0  0  0  0  0  0  0  0  0  0
   63.1702   30.7227   48.0575 H   0  0  0  0  0  0  0  0  0  0  0  0
   62.9462   30.8298   46.2612 H   0  0  0  0  0  0  0  0  0  0  0  0
   61.2240   31.1480   47.3990 N   0  0  0  0  0  0  0  0  0  0  0  0
   60.8110   31.5070   48.2870 H   0  0  0  0  0  0  0  0  0  0  0  0
   60.4260   30.6160   46.5170 C   0  0  0  0  0  0  0  0  0  0  0  0
   60.1370   28.8310   46.4520 S   0  0  0  0  0  0  0  0  0  0  0  0
   58.5040   29.3070   45.8230 C   0  0  2  0  0  0  0  0  0  0  0  0
   57.9074   29.4748   46.7318 H   0  0  0  0  0  0  0  0  0  0  0  0
   57.6610   28.3180   45.0390 C   0  0  0  0  0  0  0  0  0  0  0  0
   58.2739   27.7367   44.3344 H   0  0  0  0  0  0  0  0  0  0  0  0
   57.1616   27.5605   45.6609 H   0  0  0  0  0  0  0  0  0  0  0  0
   56.5390   29.4140   44.1800 S   0  0  0  0  0  0  0  0  0  0  0  0
   55.1800   29.4290   44.8170 O   0  0  0  0  0  0  0  0  0  0  0  0
   56.4430   29.0680   42.7200 O   0  0  0  0  0  0  0  0  0  0  0  0
   57.3990   30.9630   44.4350 C   0  0  0  0  0  0  0  0  0  0  0  0
   57.4689   31.5432   43.5031 H   0  0  0  0  0  0  0  0  0  0  0  0
   56.9043   31.6420   45.1451 H   0  0  0  0  0  0  0  0  0  0  0  0
   58.7630   30.4730   44.8890 C   0  0  1  0  0  0  0  0  0  0  0  0
   59.3131   30.2671   43.9589 H   0  0  0  0  0  0  0  0  0  0  0  0
   59.5900   31.3860   45.6430 N   0  0  0  0  0  0  0  0  0  0  0  0
   59.7730   32.3710   45.3500 H   0  0  0  0  0  0  0  0  0  0  0  0
  1  2  1  0
  2  3  1  0
  3  4  2  0
  4  5  1  0
  4  6  1  0
  6  7  1  0
  7  8  1  0
  7  9  1  0
  7 10  1  0
 10 11  1  0
 10 12  1  0
 10 13  1  0
 13 14  1  0
 14 15  2  0
 15 16  1  0
 15 17  1  0
 17 18  1  0
 17 19  2  0
 19 20  1  0
 19 21  1  0
 21 22  1  0
 21 23  2  0
 23 24  1  0
  6 25  1  0
 25 26  1  0
 26 27  1  0
 26 28  1  0
 26 29  1  0
 29 30  1  0
 29 31  1  0
 29 32  1  0
 32 33  1  0
 32 34  1  0
 32 35  1  0
 35 36  1  0
 35 37  2  0
 37 38  1  0
 38 39  1  0
 39 40  1  1
 39 41  1  0
 41 42  1  0
 41 43  1  0
 41 44  1  0
 44 45  2  0
 44 46  2  0
 44 47  1  0
 47 48  1  0
 47 49  1  0
 47 50  1  0
 50 51  1  6
 50 52  1  0
 52 53  1  0
 25  2  2  0
 52 37  1  0
 23 14  1  0
 50 39  1  0
M  CHG  1  35   1
M  END
>  <UniqueID>  (18) 
16

>  <SMILES>  (18) 
O=S1(=O)C[C@H]2N/C(=[NH+]\CCCc3cncn3CCOc3ccccc3)S[C@@H]2C1

>  <Energy>  (18) 
97.20070764790253

>  <Genealogy>  (18) 
O=S1(=O)CC2NC(=[NH+]CCCc3cncn3CCOc3ccccc3)SC2C1 (protonated)
O=S1(=O)C[C@H]2NC(=[NH+]CCCc3cncn3CCOc3ccccc3)S[C@@H]2C1 (chirality)
O=S1(=O)C[C@H]2N/C(=[NH+]\CCCc3cncn3CCOc3ccccc3)S[C@@H]2C1 (cis-trans isomerization)
O=S1(=O)C[C@H]2N/C(=[NH+]\CCCc3cncn3CCOc3ccccc3)S[C@@H]2C1 (3D coordinates assigned)
O=S1(=O)C[C@H]2N/C(=[NH+]\CCCc3cncn3CCOc3ccccc3)S[C@@H]2C1 (nonaromatic ring conformer: 97.20070764790253 kcal/mol)

>  <smiles>  (18) 
O=S1(=O)CC2NC(=NCCCc3cncn3CCOc3ccccc3)SC2C1

>  <score_type>  (18) 
oracle

>  <origin>  (18) 
adg

>  <m_score__min__energy>  (18) 
-7.0999999999999996

>  <m_primary>  (18) 
energy

$$$$
18:0
     RDKit          3D

 39 41  0  0  0  0  0  0  0  0999 V2000
   54.4900   27.0880   46.7470 H   0  0  0  0  0  0  0  0  0  0  0  0
   55.1470   26.6910   46.0390 N   0  0  0  0  0  0  0  0  0  0  0  0
   56.5020   27.1310   45.9700 C   0  0  0  0  0  0  0  0  0  0  0  0
   57.4190   26.3610   46.3620 O   0  0  0  0  0  0  0  0  0  0  0  0
   56.8010   28.4970   45.4920 C   0  0  0  0  0  0  0  0  0  0  0  0
   56.0620   28.9920   44.4610 N   0  0  0  0  0  0  0  0  0  0  0  0
   56.2310   30.2540   43.9900 C   0  0  0  0  0  0  0  0  0  0  0  0
   55.6230   30.6184   43.1488 H   0  0  0  0  0  0  0  0  0  0  0  0
   57.1820   31.0840   44.5820 C   0  0  0  0  0  0  0  0  0  0  0  0
   57.3560   32.2960   44.1420 N   0  0  0  0  0  0  0  0  0  0  0  0
   57.0680   33.5120   44.9040 C   0  0  0  0  0  0  0  0  0  0  0  0
   57.0400   34.3694   44.2155 H   0  0  0  0  0  0  0  0  0  0  0  0
   56.0973   33.3883   45.4064 H   0  0  0  0  0  0  0  0  0  0  0  0
   58.1240   33.7570   45.9540 C   0  0  0  0  0  0  0  0  0  0  0  0
   57.9580   33.2640   47.2600 C   0  0  0  0  0  0  0  0  0  0  0  0
   57.0404   32.7197   47.5277 H   0  0  0  0  0  0  0  0  0  0  0  0
   58.9550   33.4630   48.2200 C   0  0  0  0  0  0  0  0  0  0  0  0
   58.8238   33.0691   49.2386 H   0  0  0  0  0  0  0  0  0  0  0  0
   60.1180   34.1620   47.8860 C   0  0  0  0  0  0  0  0  0  0  0  0
   60.9023   34.3170   48.6415 H   0  0  0  0  0  0  0  0  0  0  0  0
   60.2850   34.6640   46.5930 C   0  0  0  0  0  0  0  0  0  0  0  0
   61.1992   35.2180   46.3334 H   0  0  0  0  0  0  0  0  0  0  0  0
   59.2930   34.4640   45.6280 C   0  0  0  0  0  0  0  0  0  0  0  0
   59.4285   34.8613   44.6112 H   0  0  0  0  0  0  0  0  0  0  0  0
   57.9340   30.5960   45.6040 N   0  0  0  0  0  0  0  0  0  0  0  0
   57.7860   29.3290   46.0770 C   0  0  0  0  0  0  0  0  0  0  0  0
   58.7040   28.8430   47.0700 N   0  0  0  0  0  0  0  0  0  0  0  0
   58.7400   27.8140   47.2500 H   0  0  0  0  0  0  0  0  0  0  0  0
   59.7660   29.6520   47.6050 C   0  0  0  0  0  0  0  0  0  0  0  0
   60.6930   30.2840   46.7590 C   0  0  0  0  0  0  0  0  0  0  0  0
   60.6104   30.1637   45.6687 H   0  0  0  0  0  0  0  0  0  0  0  0
   61.7210   31.0660   47.2980 C   0  0  0  0  0  0  0  0  0  0  0  0
   62.4482   31.5533   46.6318 H   0  0  0  0  0  0  0  0  0  0  0  0
   61.8240   31.2280   48.6820 C   0  0  0  0  0  0  0  0  0  0  0  0
   62.6370   31.8362   49.1051 H   0  0  0  0  0  0  0  0  0  0  0  0
   60.8950   30.6180   49.5290 C   0  0  0  0  0  0  0  0  0  0  0  0
   60.9744   30.7504   50.6181 H   0  0  0  0  0  0  0  0  0  0  0  0
   59.8640   29.8390   48.9930 C   0  0  0  0  0  0  0  0  0  0  0  0
   59.1269   29.3709   49.6620 H   0  0  0  0  0  0  0  0  0  0  0  0
  1  2  1  0
  2  3  1  0
  3  4  2  0
  3  5  1  0
  5  6  1  0
  6  7  2  0
  7  8  1  0
  7  9  1  0
  9 10  2  0
 10 11  1  0
 11 12  1  0
 11 13  1  0
 11 14  1  0
 14 15  2  0
 15 16  1  0
 15 17  1  0
 17 18  1  0
 17 19  2  0
 19 20  1  0
 19 21  1  0
 21 22  1  0
 21 23  2  0
 23 24  1  0
  9 25  1  0
 25 26  1  0
 26 27  1  0
 27 28  1  0
 27 29  1  0
 29 30  2  0
 30 31  1  0
 30 32  1  0
 32 33  1  0
 32 34  2  0
 34 35  1  0
 34 36  1  0
 36 37  1  0
 36 38  2  0
 38 39  1  0
 26  5  2  0
 38 29  1  0
 23 14  1  0
M  CHG  2   2  -1  25  -1
M  END
>  <UniqueID>  (19) 
17

>  <SMILES>  (19) 
[NH-]C(=O)c1nc/c(=N/Cc2ccccc2)[n-]c1Nc1ccccc1

>  <Energy>  (19) 
46.961417404512154

>  <Genealogy>  (19) 
[NH-]C(=O)c1ncc(=NCc2ccccc2)[n-]c1Nc1ccccc1 (protonated)
[NH-]C(=O)c1nc/c(=N/Cc2ccccc2)[n-]c1Nc1ccccc1 (cis-trans isomerization)
[NH-]C(=O)c1nc/c(=N/Cc2ccccc2)[n-]c1Nc1ccccc1 (3D coordinates assigned)
[NH-]C(=O)c1nc/c(=N/Cc2ccccc2)[n-]c1Nc1ccccc1 (optimized conformer: 46.961417404512154 kcal/mol)

>  <smiles>  (19) 
NC(=O)c1ncc(=NCc2ccccc2)[nH]c1Nc1ccccc1

>  <score_type>  (19) 
oracle

>  <origin>  (19) 
adg

>  <m_score__min__energy>  (19) 
-12.029999999999999

>  <m_primary>  (19) 
energy

$$$$
19:0
     RDKit          3D

 38 39  0  0  0  0  0  0  0  0999 V2000
   61.2660   33.9460   46.3710 C   0  0  0  0  0  0  0  0  0  0  0  0
   59.7220   34.0530   46.3690 C   0  0  0  0  0  0  0  0  0  0  0  0
   59.2900   34.6140   47.7410 C   0  0  0  0  0  0  0  0  0  0  0  0
   59.3220   35.0490   45.2580 C   0  0  0  0  0  0  0  0  0  0  0  0
   59.0210   32.7000   46.1230 C   0  0  0  0  0  0  0  0  0  0  0  0
   58.1460   32.5570   45.0250 C   0  0  0  0  0  0  0  0  0  0  0  0
   57.4930   31.3480   44.7700 C   0  0  0  0  0  0  0  0  0  0  0  0
   57.6880   30.2410   45.6110 C   0  0  0  0  0  0  0  0  0  0  0  0
   57.0100   28.9460   45.3560 C   0  0  0  0  0  0  0  0  0  0  0  0
   55.8150   28.9550   44.9540 O   0  0  0  0  0  0  0  0  0  0  0  0
   57.6880   27.6930   45.5660 N   0  0  0  0  0  0  0  0  0  0  0  0
   57.1220   26.4110   45.2440 C   0  0  0  0  0  0  0  0  0  0  0  0
   57.6590   25.6070   44.2220 C   0  0  0  0  0  0  0  0  0  0  0  0
   57.1050   24.3530   43.9480 C   0  0  0  0  0  0  0  0  0  0  0  0
   56.0220   23.8850   44.6980 C   0  0  0  0  0  0  0  0  0  0  0  0
   55.5000   24.6670   45.7310 C   0  0  0  0  0  0  0  0  0  0  0  0
   56.0510   25.9210   46.0080 C   0  0  0  0  0  0  0  0  0  0  0  0
   58.5680   30.3650   46.6950 C   0  0  0  0  0  0  0  0  0  0  0  0
   59.2210   31.5730   46.9540 C   0  0  0  0  0  0  0  0  0  0  0  0
   61.6304   33.9207   47.4086 H   0  0  0  0  0  0  0  0  0  0  0  0
   61.5704   33.0246   45.8529 H   0  0  0  0  0  0  0  0  0  0  0  0
   61.6946   34.8166   45.8529 H   0  0  0  0  0  0  0  0  0  0  0  0
   59.7497   34.0170   48.5424 H   0  0  0  0  0  0  0  0  0  0  0  0
   59.6179   35.6603   47.8290 H   0  0  0  0  0  0  0  0  0  0  0  0
   58.1947   34.5643   47.8290 H   0  0  0  0  0  0  0  0  0  0  0  0
   58.9491   35.9775   45.7149 H   0  0  0  0  0  0  0  0  0  0  0  0
   60.1995   35.2741   44.6340 H   0  0  0  0  0  0  0  0  0  0  0  0
   58.5326   34.6046   44.6340 H   0  0  0  0  0  0  0  0  0  0  0  0
   57.9746   33.4139   44.3569 H   0  0  0  0  0  0  0  0  0  0  0  0
   56.8209   31.2631   43.9034 H   0  0  0  0  0  0  0  0  0  0  0  0
   58.6270   27.6920   46.0240 H   0  0  0  0  0  0  0  0  0  0  0  0
   58.5180   25.9664   43.6363 H   0  0  0  0  0  0  0  0  0  0  0  0
   57.5221   23.7333   43.1406 H   0  0  0  0  0  0  0  0  0  0  0  0
   55.5814   22.9021   44.4749 H   0  0  0  0  0  0  0  0  0  0  0  0
   54.6538   24.2951   46.3274 H   0  0  0  0  0  0  0  0  0  0  0  0
   55.6430   26.5279   46.8297 H   0  0  0  0  0  0  0  0  0  0  0  0
   58.7469   29.4999   47.3505 H   0  0  0  0  0  0  0  0  0  0  0  0
   59.9000   31.6485   47.8161 H   0  0  0  0  0  0  0  0  0  0  0  0
  1  2  1  0
  2  3  1  0
  2  4  1  0
  2  5  1  0
  5  6  2  0
  6  7  1  0
  7  8  2  0
  8  9  1  0
  9 10  2  0
  9 11  1  0
 11 12  1  0
 12 13  2  0
 13 14  1  0
 14 15  2  0
 15 16  1  0
 16 17  2  0
  8 18  1  0
 18 19  2  0
 19  5  1  0
 17 12  1  0
  1 20  1  0
  1 21  1  0
  1 22  1  0
  3 23  1  0
  3 24  1  0
  3 25  1  0
  4 26  1  0
  4 27  1  0
  4 28  1  0
  6 29  1  0
  7 30  1  0
 11 31  1  0
 13 32  1  0
 14 33  1  0
 15 34  1  0
 16 35  1  0
 17 36  1  0
 18 37  1  0
 19 38  1  0
M  END
>  <UniqueID>  (20) 
18

>  <SMILES>  (20) 
CC(C)(C)c1ccc(C(=O)Nc2ccccc2)cc1

>  <Energy>  (20) 
46.40561653079935

>  <Genealogy>  (20) 
CC(C)(C)c1ccc(C(=O)Nc2ccccc2)cc1 (3D coordinates assigned)
CC(C)(C)c1ccc(C(=O)Nc2ccccc2)cc1 (optimized conformer: 46.40561653079935 kcal/mol)

>  <smiles>  (20) 
CC(C)(C)c1ccc(C(=O)Nc2ccccc2)cc1

>  <score_type>  (20) 
oracle

>  <origin>  (20) 
adg

>  <m_score__min__energy>  (20) 
-6.8499999999999996

>  <m_primary>  (20) 
energy

$$$$
20:0
     RDKit          3D

 38 40  0  0  0  0  0  0  0  0999 V2000
   57.3750   20.3650   45.2570 N   0  0  0  0  0  0  0  0  0  0  0  0
   57.2870   21.4360   43.9040 S   0  0  0  0  0  0  0  0  0  0  0  0
   58.6050   21.4420   43.1820 O   0  0  0  0  0  0  0  0  0  0  0  0
   56.2220   20.9600   42.9570 O   0  0  0  0  0  0  0  0  0  0  0  0
   56.9050   23.0620   44.4610 C   0  0  0  0  0  0  0  0  0  0  0  0
   55.5920   23.3940   44.8230 C   0  0  0  0  0  0  0  0  0  0  0  0
   55.2920   24.6820   45.2770 C   0  0  0  0  0  0  0  0  0  0  0  0
   56.3020   25.6430   45.4000 C   0  0  0  0  0  0  0  0  0  0  0  0
   55.9560   26.9620   45.8430 N   0  0  0  0  0  0  0  0  0  0  0  0
   56.3390   28.1980   45.2260 C   0  0  0  0  0  0  0  0  0  0  0  0
   55.5270   29.1610   45.2420 O   0  0  0  0  0  0  0  0  0  0  0  0
   57.6930   28.3880   44.6010 C   0  0  0  0  0  0  0  0  0  0  0  0
   58.4540   29.3860   45.3430 N   0  0  0  0  0  0  0  0  0  0  0  0
   59.5270   29.1200   46.0670 N   0  0  0  0  0  0  0  0  0  0  0  0
   60.0010   30.2530   46.5590 N   0  0  0  0  0  0  0  0  0  0  0  0
   59.1730   31.2120   46.0920 C   0  0  0  0  0  0  0  0  0  0  0  0
   59.3160   32.6540   46.3810 C   0  0  0  0  0  0  0  0  0  0  0  0
   59.2000   33.6020   45.3480 C   0  0  0  0  0  0  0  0  0  0  0  0
   59.3350   34.9670   45.6240 C   0  0  0  0  0  0  0  0  0  0  0  0
   59.5880   35.3960   46.9280 C   0  0  0  0  0  0  0  0  0  0  0  0
   59.7060   34.4630   47.9620 C   0  0  0  0  0  0  0  0  0  0  0  0
   59.9500   34.8810   49.2280 F   0  0  0  0  0  0  0  0  0  0  0  0
   59.5700   33.0970   47.6910 C   0  0  0  0  0  0  0  0  0  0  0  0
   58.2010   30.6830   45.3220 N   0  0  0  0  0  0  0  0  0  0  0  0
   57.6150   25.3150   45.0190 C   0  0  0  0  0  0  0  0  0  0  0  0
   57.9150   24.0270   44.5630 C   0  0  0  0  0  0  0  0  0  0  0  0
   58.3770   20.3280   45.5520 H   0  0  0  0  0  0  0  0  0  0  0  0
   57.1290   19.4120   44.9080 H   0  0  0  0  0  0  0  0  0  0  0  0
   54.7954   22.6390   44.7497 H   0  0  0  0  0  0  0  0  0  0  0  0
   54.2557   24.9416   45.5391 H   0  0  0  0  0  0  0  0  0  0  0  0
   58.2370   27.4320   44.6147 H   0  0  0  0  0  0  0  0  0  0  0  0
   57.5648   28.7320   43.5641 H   0  0  0  0  0  0  0  0  0  0  0  0
   59.0023   33.2685   44.3186 H   0  0  0  0  0  0  0  0  0  0  0  0
   59.2416   35.7033   44.8121 H   0  0  0  0  0  0  0  0  0  0  0  0
   59.6946   36.4697   47.1421 H   0  0  0  0  0  0  0  0  0  0  0  0
   59.6623   32.3656   48.5074 H   0  0  0  0  0  0  0  0  0  0  0  0
   58.4091   26.0738   45.0797 H   0  0  0  0  0  0  0  0  0  0  0  0
   58.9477   23.7712   44.2836 H   0  0  0  0  0  0  0  0  0  0  0  0
  1  2  1  0
  2  3  2  0
  2  4  2  0
  2  5  1  0
  5  6  2  0
  6  7  1  0
  7  8  2  0
  8  9  1  0
  9 10  1  0
 10 11  2  0
 10 12  1  0
 12 13  1  0
 13 14  1  0
 14 15  2  0
 15 16  1  0
 16 17  1  0
 17 18  2  0
 18 19  1  0
 19 20  2  0
 20 21  1  0
 21 22  1  0
 21 23  2  0
 16 24  2  0
  8 25  1  0
 25 26  2  0
 26  5  1  0
 24 13  1  0
 23 17  1  0
  1 27  1  0
  1 28  1  0
  6 29  1  0
  7 30  1  0
 12 31  1  0
 12 32  1  0
 18 33  1  0
 19 34  1  0
 20 35  1  0
 23 36  1  0
 25 37  1  0
 26 38  1  0
M  CHG  1   9  -1
M  END
>  <UniqueID>  (21) 
19

>  <SMILES>  (21) 
NS(=O)(=O)c1ccc([N-]C(=O)Cn2nnc(-c3cccc(F)c3)n2)cc1

>  <Energy>  (21) 
81.33824064289922

>  <Genealogy>  (21) 
NS(=O)(=O)c1ccc([N-]C(=O)Cn2nnc(-c3cccc(F)c3)n2)cc1 (protonated)
NS(=O)(=O)c1ccc([N-]C(=O)Cn2nnc(-c3cccc(F)c3)n2)cc1 (3D coordinates assigned)
NS(=O)(=O)c1ccc([N-]C(=O)Cn2nnc(-c3cccc(F)c3)n2)cc1 (optimized conformer: 81.33824064289922 kcal/mol)

>  <smiles>  (21) 
NS(=O)(=O)c1ccc(NC(=O)Cn2nnc(-c3cccc(F)c3)n2)cc1

>  <score_type>  (21) 
oracle

>  <origin>  (21) 
adg

>  <m_score__min__energy>  (21) 
-10.98

>  <m_primary>  (21) 
energy

$$$$
21:0
     RDKit          3D

 44 47  0  0  0  0  0  0  0  0999 V2000
   56.2410   30.4060   43.0730 C   0  0  0  0  0  0  0  0  0  0  0  0
   56.3350   30.5340   44.4880 O   0  0  0  0  0  0  0  0  0  0  0  0
   57.3960   31.1580   45.1620 C   0  0  0  0  0  0  0  0  0  0  0  0
   57.4930   32.5590   45.2680 C   0  0  0  0  0  0  0  0  0  0  0  0
   58.5760   33.1440   45.9300 C   0  0  0  0  0  0  0  0  0  0  0  0
   59.5700   32.3420   46.4910 C   0  0  0  0  0  0  0  0  0  0  0  0
   59.4850   30.9510   46.3940 C   0  0  0  0  0  0  0  0  0  0  0  0
   58.3990   30.3520   45.7380 C   0  0  0  0  0  0  0  0  0  0  0  0
   58.3230   28.9200   45.6450 N   0  0  0  0  0  0  0  0  0  0  0  0
   58.4920   28.0950   46.8460 C   0  0  0  0  0  0  0  0  0  0  0  0
   57.4060   27.0170   46.8940 C   0  0  0  0  0  0  0  0  0  0  0  0
   57.2500   26.3620   45.5900 N   0  0  0  0  0  0  0  0  0  0  0  0
   56.3410   25.2620   45.4700 C   0  0  0  0  0  0  0  0  0  0  0  0
   55.0200   25.4670   45.7120 N   0  0  0  0  0  0  0  0  0  0  0  0
   54.1160   24.4590   45.6100 C   0  0  0  0  0  0  0  0  0  0  0  0
   54.5220   23.2120   45.2560 N   0  0  0  0  0  0  0  0  0  0  0  0
   55.8290   22.9470   45.0030 C   0  0  0  0  0  0  0  0  0  0  0  0
   56.2250   21.6530   44.6450 C   0  0  0  0  0  0  0  0  0  0  0  0
   57.5720   21.3800   44.3890 C   0  0  0  0  0  0  0  0  0  0  0  0
   58.5260   22.3950   44.4890 C   0  0  0  0  0  0  0  0  0  0  0  0
   58.1420   23.6910   44.8460 C   0  0  0  0  0  0  0  0  0  0  0  0
   56.7890   23.9780   45.1040 C   0  0  0  0  0  0  0  0  0  0  0  0
   58.0580   26.7660   44.4350 C   0  0  0  0  0  0  0  0  0  0  0  0
   58.1040   28.2940   44.3320 C   0  0  0  0  0  0  0  0  0  0  0  0
   55.6068   29.5423   42.8243 H   0  0  0  0  0  0  0  0  0  0  0  0
   55.7979   31.3200   42.6508 H   0  0  0  0  0  0  0  0  0  0  0  0
   57.2457   30.2568   42.6508 H   0  0  0  0  0  0  0  0  0  0  0  0
   56.7122   33.1963   44.8274 H   0  0  0  0  0  0  0  0  0  0  0  0
   58.6447   34.2390   46.0088 H   0  0  0  0  0  0  0  0  0  0  0  0
   60.4218   32.8054   47.0104 H   0  0  0  0  0  0  0  0  0  0  0  0
   60.2732   30.3224   46.8340 H   0  0  0  0  0  0  0  0  0  0  0  0
   59.4816   27.6152   46.8227 H   0  0  0  0  0  0  0  0  0  0  0  0
   58.4092   28.7328   47.7384 H   0  0  0  0  0  0  0  0  0  0  0  0
   57.6832   26.2616   47.6440 H   0  0  0  0  0  0  0  0  0  0  0  0
   56.4518   27.4956   47.1596 H   0  0  0  0  0  0  0  0  0  0  0  0
   53.0527   24.6526   45.8145 H   0  0  0  0  0  0  0  0  0  0  0  0
   55.4764   20.8510   44.5651 H   0  0  0  0  0  0  0  0  0  0  0  0
   57.8814   20.3625   44.1079 H   0  0  0  0  0  0  0  0  0  0  0  0
   59.5842   22.1738   44.2860 H   0  0  0  0  0  0  0  0  0  0  0  0
   58.8977   24.4864   44.9252 H   0  0  0  0  0  0  0  0  0  0  0  0
   59.0807   26.3785   44.5532 H   0  0  0  0  0  0  0  0  0  0  0  0
   57.6060   26.3573   43.5192 H   0  0  0  0  0  0  0  0  0  0  0  0
   58.9246   28.5816   43.6583 H   0  0  0  0  0  0  0  0  0  0  0  0
   57.1355   28.6414   43.9430 H   0  0  0  0  0  0  0  0  0  0  0  0
  1  2  1  0
  2  3  1  0
  3  4  2  0
  4  5  1  0
  5  6  2  0
  6  7  1  0
  7  8  2  0
  8  9  1  0
  9 10  1  0
 10 11  1  0
 11 12  1  0
 12 13  1  0
 13 14  2  0
 14 15  1  0
 15 16  2  0
 16 17  1  0
 17 18  2  0
 18 19  1  0
 19 20  2  0
 20 21  1  0
 21 22  2  0
 12 23  1  0
 23 24  1  0
  8  3  1  0
 24  9  1  0
 22 13  1  0
 22 17  1  0
  1 25  1  0
  1 26  1  0
  1 27  1  0
  4 28  1  0
  5 29  1  0
  6 30  1  0
  7 31  1  0
 10 32  1  0
 10 33  1  0
 11 34  1  0
 11 35  1  0
 15 36  1  0
 18 37  1  0
 19 38  1  0
 20 39  1  0
 21 40  1  0
 23 41  1  0
 23 42  1  0
 24 43  1  0
 24 44  1  0
M  END
>  <UniqueID>  (22) 
20

>  <SMILES>  (22) 
COc1ccccc1N1CCN(c2ncnc3ccccc23)CC1

>  <Energy>  (22) 
62.01170750159861

>  <Genealogy>  (22) 
COc1ccccc1N1CCN(c2ncnc3ccccc23)CC1 (3D coordinates assigned)
COc1ccccc1N1CCN(c2ncnc3ccccc23)CC1 (nonaromatic ring conformer: 62.01170750159861 kcal/mol)

>  <smiles>  (22) 
COc1ccccc1N1CCN(c2ncnc3ccccc23)CC1

>  <score_type>  (22) 
oracle

>  <origin>  (22) 
adg

>  <m_score__min__energy>  (22) 
-7.4100000000000001

>  <m_primary>  (22) 
energy

$$$$
22:0
     RDKit          3D

 41 42  0  0  0  0  0  0  0  0999 V2000
   62.6490   33.6700   46.7410 C   0  0  0  0  0  0  0  0  0  0  0  0
   63.3560   32.5040   47.4270 C   0  0  0  0  0  0  0  0  0  0  0  0
   62.6990   31.2870   47.1260 O   0  0  0  0  0  0  0  0  0  0  0  0
   61.5550   31.1270   47.9370 C   0  0  0  0  0  0  0  0  0  0  0  0
   60.4780   30.4600   47.1350 C   0  0  0  0  0  0  0  0  0  0  0  0
   60.7940   29.7220   45.9860 C   0  0  0  0  0  0  0  0  0  0  0  0
   59.7780   29.1240   45.2380 C   0  0  0  0  0  0  0  0  0  0  0  0
   58.4450   29.2890   45.6320 C   0  0  0  0  0  0  0  0  0  0  0  0
   57.3310   28.6310   44.8620 C   0  0  0  0  0  0  0  0  0  0  0  0
   56.0700   29.3810   44.9700 N   0  0  0  0  0  0  0  0  0  0  0  0
   55.7320   30.0670   43.7120 C   0  0  0  0  0  0  0  0  0  0  0  0
   56.9610   30.7820   43.1440 C   0  0  0  0  0  0  0  0  0  0  0  0
   57.3860   31.9240   44.0250 C   0  0  0  0  0  0  0  0  0  0  0  0
   58.4250   32.7840   43.6370 C   0  0  0  0  0  0  0  0  0  0  0  0
   58.8150   33.8160   44.4930 C   0  0  0  0  0  0  0  0  0  0  0  0
   58.1760   33.9780   45.7250 C   0  0  0  0  0  0  0  0  0  0  0  0
   57.1500   33.1000   46.0830 C   0  0  0  0  0  0  0  0  0  0  0  0
   56.7840   32.1000   45.2350 N   0  0  0  0  0  0  0  0  0  0  0  0
   58.1580   30.0220   46.7420 N   0  0  0  0  0  0  0  0  0  0  0  0
   59.1300   30.6080   47.4890 C   0  0  0  0  0  0  0  0  0  0  0  0
   62.2375   34.3486   47.5027 H   0  0  0  0  0  0  0  0  0  0  0  0
   63.3680   34.2165   46.1130 H   0  0  0  0  0  0  0  0  0  0  0  0
   61.8320   33.2851   46.1130 H   0  0  0  0  0  0  0  0  0  0  0  0
   64.3965   32.4519   47.0740 H   0  0  0  0  0  0  0  0  0  0  0  0
   63.3354   32.6627   48.5153 H   0  0  0  0  0  0  0  0  0  0  0  0
   61.8050   30.5044   48.8087 H   0  0  0  0  0  0  0  0  0  0  0  0
   61.2050   32.1103   48.2843 H   0  0  0  0  0  0  0  0  0  0  0  0
   61.8431   29.6139   45.6734 H   0  0  0  0  0  0  0  0  0  0  0  0
   60.0230   28.5281   44.3464 H   0  0  0  0  0  0  0  0  0  0  0  0
   57.6190   28.5707   43.8021 H   0  0  0  0  0  0  0  0  0  0  0  0
   57.1688   27.6296   45.2872 H   0  0  0  0  0  0  0  0  0  0  0  0
   56.1550   30.0920   45.7360 H   0  0  0  0  0  0  0  0  0  0  0  0
   55.3738   29.3271   42.9811 H   0  0  0  0  0  0  0  0  0  0  0  0
   54.9481   30.8121   43.9127 H   0  0  0  0  0  0  0  0  0  0  0  0
   57.7895   30.0626   43.0657 H   0  0  0  0  0  0  0  0  0  0  0  0
   56.7006   31.1859   42.1545 H   0  0  0  0  0  0  0  0  0  0  0  0
   58.9272   32.6464   42.6681 H   0  0  0  0  0  0  0  0  0  0  0  0
   59.6240   34.5004   44.1979 H   0  0  0  0  0  0  0  0  0  0  0  0
   58.4775   34.7879   46.4055 H   0  0  0  0  0  0  0  0  0  0  0  0
   56.6382   33.2167   47.0496 H   0  0  0  0  0  0  0  0  0  0  0  0
   58.8579   31.2007   48.3748 H   0  0  0  0  0  0  0  0  0  0  0  0
  1  2  1  0
  2  3  1  0
  3  4  1  0
  4  5  1  0
  5  6  2  0
  6  7  1  0
  7  8  2  0
  8  9  1  0
  9 10  1  0
 10 11  1  0
 11 12  1  0
 12 13  1  0
 13 14  2  0
 14 15  1  0
 15 16  2  0
 16 17  1  0
 17 18  2  0
  8 19  1  0
 19 20  2  0
 20  5  1  0
 18 13  1  0
  1 21  1  0
  1 22  1  0
  1 23  1  0
  2 24  1  0
  2 25  1  0
  4 26  1  0
  4 27  1  0
  6 28  1  0
  7 29  1  0
  9 30  1  0
  9 31  1  0
 10 32  1  0
 11 33  1  0
 11 34  1  0
 12 35  1  0
 12 36  1  0
 14 37  1  0
 15 38  1  0
 16 39  1  0
 17 40  1  0
 20 41  1  0
M  END
>  <UniqueID>  (23) 
21

>  <SMILES>  (23) 
CCOCc1ccc(CNCCc2ccccn2)nc1

>  <Energy>  (23) 
37.67391955907983

>  <Genealogy>  (23) 
CCOCc1ccc(CNCCc2ccccn2)nc1 (3D coordinates assigned)
CCOCc1ccc(CNCCc2ccccn2)nc1 (optimized conformer: 37.67391955907983 kcal/mol)

>  <smiles>  (23) 
CCOCc1ccc(CNCCc2ccccn2)nc1

>  <score_type>  (23) 
oracle

>  <origin>  (23) 
adg

>  <m_score__min__energy>  (23) 
-7.1200000000000001

>  <m_primary>  (23) 
energy

$$$$
23:0
     RDKit          3D

 46 49  0  0  0  0  0  0  0  0999 V2000
   58.8430   29.0410   46.8510 O   0  0  0  0  0  0  0  0  0  0  0  0
   59.1180   30.2450   47.1020 C   0  0  0  0  0  0  0  0  0  0  0  0
   60.0680   30.9920   46.2190 C   0  0  0  0  0  0  0  0  0  0  0  0
   59.5890   32.3650   45.9930 N   0  0  0  0  0  0  0  0  0  0  0  0
   60.0560   33.5020   46.5660 C   0  0  0  0  0  0  0  0  0  0  0  0
   61.1790   33.5930   47.5210 C   0  0  0  0  0  0  0  0  0  0  0  0
   62.4270   33.0400   47.1900 C   0  0  0  0  0  0  0  0  0  0  0  0
   63.4880   33.0980   48.1000 C   0  0  0  0  0  0  0  0  0  0  0  0
   63.3060   33.6960   49.3500 C   0  0  0  0  0  0  0  0  0  0  0  0
   62.0620   34.2300   49.6950 C   0  0  0  0  0  0  0  0  0  0  0  0
   60.9980   34.1730   48.7880 C   0  0  0  0  0  0  0  0  0  0  0  0
   59.3340   34.5950   46.1220 C   0  0  0  0  0  0  0  0  0  0  0  0
   58.4030   34.1160   45.2280 C   0  0  0  0  0  0  0  0  0  0  0  0
   58.5700   32.7450   45.1800 C   0  0  0  0  0  0  0  0  0  0  0  0
   57.7810   31.8460   44.3160 C   0  0  0  0  0  0  0  0  0  0  0  0
   57.7400   32.0690   42.9300 C   0  0  0  0  0  0  0  0  0  0  0  0
   57.0210   31.2030   42.1000 C   0  0  0  0  0  0  0  0  0  0  0  0
   56.3280   30.1200   42.6480 C   0  0  0  0  0  0  0  0  0  0  0  0
   56.3440   29.9090   44.0300 C   0  0  0  0  0  0  0  0  0  0  0  0
   57.0610   30.7720   44.8640 C   0  0  0  0  0  0  0  0  0  0  0  0
   58.5380   30.9080   48.2300 N   0  0  0  0  0  0  0  0  0  0  0  0
   59.2200   31.3300   49.4200 C   0  0  0  0  0  0  0  0  0  0  0  0
   60.4090   30.7160   49.8570 C   0  0  0  0  0  0  0  0  0  0  0  0
   61.0050   31.1150   51.0570 C   0  0  0  0  0  0  0  0  0  0  0  0
   60.4190   32.1180   51.8330 C   0  0  0  0  0  0  0  0  0  0  0  0
   59.2280   32.7190   51.4140 C   0  0  0  0  0  0  0  0  0  0  0  0
   58.4790   33.9630   52.4000 Cl  0  0  0  0  0  0  0  0  0  0  0  0
   58.6290   32.3210   50.2150 C   0  0  0  0  0  0  0  0  0  0  0  0
   61.0569   31.0279   46.6994 H   0  0  0  0  0  0  0  0  0  0  0  0
   60.1359   30.4746   45.2507 H   0  0  0  0  0  0  0  0  0  0  0  0
   62.5707   32.5593   46.2111 H   0  0  0  0  0  0  0  0  0  0  0  0
   64.4662   32.6726   47.8315 H   0  0  0  0  0  0  0  0  0  0  0  0
   64.1426   33.7462   50.0625 H   0  0  0  0  0  0  0  0  0  0  0  0
   61.9187   34.6959   50.6811 H   0  0  0  0  0  0  0  0  0  0  0  0
   60.0166   34.5836   49.0678 H   0  0  0  0  0  0  0  0  0  0  0  0
   59.4760   35.6431   46.4244 H   0  0  0  0  0  0  0  0  0  0  0  0
   57.6693   34.7089   44.6622 H   0  0  0  0  0  0  0  0  0  0  0  0
   58.2747   32.9269   42.4962 H   0  0  0  0  0  0  0  0  0  0  0  0
   57.0008   31.3745   41.0136 H   0  0  0  0  0  0  0  0  0  0  0  0
   55.7706   29.4345   41.9927 H   0  0  0  0  0  0  0  0  0  0  0  0
   55.7911   29.0619   44.4621 H   0  0  0  0  0  0  0  0  0  0  0  0
   57.0612   30.6094   45.9519 H   0  0  0  0  0  0  0  0  0  0  0  0
   60.8701   29.9206   49.2530 H   0  0  0  0  0  0  0  0  0  0  0  0
   61.9381   30.6378   51.3911 H   0  0  0  0  0  0  0  0  0  0  0  0
   60.8942   32.4348   52.7731 H   0  0  0  0  0  0  0  0  0  0  0  0
   57.6870   32.7892   49.8935 H   0  0  0  0  0  0  0  0  0  0  0  0
  1  2  2  0
  2  3  1  0
  3  4  1  0
  4  5  1  0
  5  6  1  0
  6  7  2  0
  7  8  1  0
  8  9  2  0
  9 10  1  0
 10 11  2  0
  5 12  2  0
 12 13  1  0
 13 14  2  0
 14 15  1  0
 15 16  2  0
 16 17  1  0
 17 18  2  0
 18 19  1  0
 19 20  2  0
  2 21  1  0
 21 22  1  0
 22 23  2  0
 23 24  1  0
 24 25  2  0
 25 26  1  0
 26 27  1  0
 26 28  2  0
 14  4  1  0
 20 15  1  0
 28 22  1  0
 11  6  1  0
  3 29  1  0
  3 30  1  0
  7 31  1  0
  8 32  1  0
  9 33  1  0
 10 34  1  0
 11 35  1  0
 12 36  1  0
 13 37  1  0
 16 38  1  0
 17 39  1  0
 18 40  1  0
 19 41  1  0
 20 42  1  0
 23 43  1  0
 24 44  1  0
 25 45  1  0
 28 46  1  0
M  CHG  1  21  -1
M  END
>  <UniqueID>  (24) 
22

>  <SMILES>  (24) 
O=C(Cn1c(-c2ccccc2)ccc1-c1ccccc1)[N-]c1cccc(Cl)c1

>  <Energy>  (24) 
87.88848427648469

>  <Genealogy>  (24) 
O=C(Cn1c(-c2ccccc2)ccc1-c1ccccc1)[N-]c1cccc(Cl)c1 (protonated)
O=C(Cn1c(-c2ccccc2)ccc1-c1ccccc1)[N-]c1cccc(Cl)c1 (3D coordinates assigned)
O=C(Cn1c(-c2ccccc2)ccc1-c1ccccc1)[N-]c1cccc(Cl)c1 (optimized conformer: 87.88848427648469 kcal/mol)

>  <smiles>  (24) 
O=C(Cn1c(-c2ccccc2)ccc1-c1ccccc1)Nc1cccc(Cl)c1

>  <score_type>  (24) 
oracle

>  <origin>  (24) 
adg

>  <m_score__min__energy>  (24) 
-10.33

>  <m_primary>  (24) 
energy

$$$$
24:0
     RDKit          3D

 32 34  0  0  0  0  0  0  0  0999 V2000
   58.0442   34.1668   47.5359 H   0  0  0  0  0  0  0  0  0  0  0  0
   58.0560   33.7700   46.5100 C   0  0  0  0  0  0  0  0  0  0  0  0
   57.2030   32.7190   46.1570 C   0  0  0  0  0  0  0  0  0  0  0  0
   56.5322   32.2816   46.9111 H   0  0  0  0  0  0  0  0  0  0  0  0
   57.1990   32.2210   44.8480 C   0  0  0  0  0  0  0  0  0  0  0  0
   56.2880   31.1670   44.5100 N   0  0  0  0  0  0  0  0  0  0  0  0
   56.5050   29.7630   44.7220 C   0  0  0  0  0  0  0  0  0  0  0  0
   55.5130   29.0120   44.9010 O   0  0  0  0  0  0  0  0  0  0  0  0
   57.8240   29.2000   44.7810 N   0  0  0  0  0  0  0  0  0  0  0  0
   58.5260   28.7960   45.8100 C   0  0  0  0  0  0  0  0  0  0  0  0
   58.3030   27.4830   46.2370 C   0  0  0  0  0  0  0  0  0  0  0  0
   57.7294   26.7919   45.6019 H   0  0  0  0  0  0  0  0  0  0  0  0
   58.8020   27.0450   47.4600 C   0  0  0  0  0  0  0  0  0  0  0  0
   58.6042   26.0159   47.7945 H   0  0  0  0  0  0  0  0  0  0  0  0
   59.5310   27.8800   48.2420 N   0  0  0  0  0  0  0  0  0  0  0  0
   59.8650   27.5230   49.1670 H   0  0  0  0  0  0  0  0  0  0  0  0
   59.8710   29.1320   47.8260 C   0  0  0  0  0  0  0  0  0  0  0  0
   60.6920   29.9340   48.6340 C   0  0  0  0  0  0  0  0  0  0  0  0
   60.9846   29.5831   49.6346 H   0  0  0  0  0  0  0  0  0  0  0  0
   61.1390   31.1730   48.1760 C   0  0  0  0  0  0  0  0  0  0  0  0
   62.1720   32.1640   49.1910 Cl  0  0  0  0  0  0  0  0  0  0  0  0
   60.8050   31.6020   46.8930 C   0  0  0  0  0  0  0  0  0  0  0  0
   61.1926   32.5608   46.5183 H   0  0  0  0  0  0  0  0  0  0  0  0
   59.9810   30.8210   46.0810 C   0  0  0  0  0  0  0  0  0  0  0  0
   59.7599   31.1498   45.0548 H   0  0  0  0  0  0  0  0  0  0  0  0
   59.4270   29.6120   46.5620 C   0  0  0  0  0  0  0  0  0  0  0  0
   58.0950   32.7530   43.9040 C   0  0  0  0  0  0  0  0  0  0  0  0
   58.1257   32.3422   42.8841 H   0  0  0  0  0  0  0  0  0  0  0  0
   58.9470   33.8030   44.2590 C   0  0  0  0  0  0  0  0  0  0  0  0
   59.6371   34.2262   43.5143 H   0  0  0  0  0  0  0  0  0  0  0  0
   58.9230   34.3160   45.5600 C   0  0  0  0  0  0  0  0  0  0  0  0
   59.9870   35.6390   46.0010 Cl  0  0  0  0  0  0  0  0  0  0  0  0
  1  2  1  0
  2  3  2  0
  3  4  1  0
  3  5  1  0
  5  6  1  0
  6  7  1  0
  7  8  2  0
  7  9  1  0
  9 10  2  0
 10 11  1  0
 11 12  1  0
 11 13  2  0
 13 14  1  0
 13 15  1  0
 15 16  1  0
 15 17  1  0
 17 18  2  0
 18 19  1  0
 18 20  1  0
 20 21  1  0
 20 22  2  0
 22 23  1  0
 22 24  1  0
 24 25  1  0
 24 26  2  0
  5 27  2  0
 27 28  1  0
 27 29  1  0
 29 30  1  0
 29 31  2  0
 31 32  1  0
 31  2  1  0
 26 10  1  0
 26 17  1  0
M  CHG  1   6  -1
M  END
>  <UniqueID>  (25) 
23

>  <SMILES>  (25) 
O=C(/N=c1/cc[nH]c2cc(Cl)ccc12)[N-]c1ccc(Cl)cc1

>  <Energy>  (25) 
58.673456010112076

>  <Genealogy>  (25) 
O=C(N=c1cc[nH]c2cc(Cl)ccc12)[N-]c1ccc(Cl)cc1 (protonated)
O=C(/N=c1/cc[nH]c2cc(Cl)ccc12)[N-]c1ccc(Cl)cc1 (cis-trans isomerization)
O=C(/N=c1/cc[nH]c2cc(Cl)ccc12)[N-]c1ccc(Cl)cc1 (3D coordinates assigned)
O=C(/N=c1/cc[nH]c2cc(Cl)ccc12)[N-]c1ccc(Cl)cc1 (optimized conformer: 58.673456010112076 kcal/mol)

>  <smiles>  (25) 
O=C(N=c1cc[nH]c2cc(Cl)ccc12)Nc1ccc(Cl)cc1

>  <score_type>  (25) 
oracle

>  <origin>  (25) 
adg

>  <m_score__min__energy>  (25) 
-8.8499999999999996

>  <m_primary>  (25) 
energy

$$$$
25:0
     RDKit          3D

 56 58  0  0  0  0  0  0  0  0999 V2000
   57.7510   33.2000   44.4670 C   0  0  0  0  0  0  0  0  0  0  0  0
   58.1760   32.0660   45.3450 C   0  0  0  0  0  0  0  0  0  0  0  0
   58.4860   32.2900   46.6900 C   0  0  0  0  0  0  0  0  0  0  0  0
   58.9490   31.2300   47.4850 C   0  0  0  0  0  0  0  0  0  0  0  0
   59.2910   31.4800   48.9300 C   0  0  0  0  0  0  0  0  0  0  0  0
   59.1100   29.9540   46.9040 C   0  0  0  0  0  0  0  0  0  0  0  0
   59.6190   28.8490   47.6860 C   0  0  0  0  0  0  0  0  0  0  0  0
   60.0280   27.9640   48.3100 N   0  0  0  0  0  0  0  0  0  0  0  0
   58.7710   29.7700   45.5500 C   0  0  0  0  0  0  0  0  0  0  0  0
   58.9830   28.1810   44.7280 S   0  0  0  0  0  0  0  0  0  0  0  0
   57.3750   27.4850   45.2570 C   0  0  0  0  0  0  0  0  0  0  0  0
   57.5150   26.2990   46.1740 C   0  0  0  0  0  0  0  0  0  0  0  0
   58.6360   25.9600   46.8410 N   0  0  0  0  0  0  0  0  0  0  0  0
   58.4140   24.8500   47.4800 O   0  0  0  0  0  0  0  0  0  0  0  0
   57.1950   24.4180   47.2520 C   0  0  0  0  0  0  0  0  0  0  0  0
   56.6750   23.1580   47.8060 C   0  0  0  0  0  0  0  0  0  0  0  0
   55.6170   23.1900   48.4850 O   0  0  0  0  0  0  0  0  0  0  0  0
   57.3600   21.9050   47.6520 N   0  0  0  0  0  0  0  0  0  0  0  0
   56.7530   20.6120   47.3290 C   0  0  0  0  0  0  0  0  0  0  0  0
   56.6400   20.3980   45.8130 C   0  0  0  0  0  0  0  0  0  0  0  0
   55.8570   21.5180   45.1180 C   0  0  0  0  0  0  0  0  0  0  0  0
   56.2810   21.6420   43.7050 N   0  0  0  0  0  0  0  0  0  0  0  0
   57.7160   21.3440   43.5330 C   0  0  0  0  0  0  0  0  0  0  0  0
   58.6040   22.4350   44.1760 C   0  0  0  0  0  0  0  0  0  0  0  0
   57.8940   23.6240   44.4700 O   0  0  0  0  0  0  0  0  0  0  0  0
   57.0970   23.9980   43.3670 C   0  0  0  0  0  0  0  0  0  0  0  0
   55.9610   22.9760   43.1410 C   0  0  0  0  0  0  0  0  0  0  0  0
   56.5530   25.3240   46.4160 C   0  0  0  0  0  0  0  0  0  0  0  0
   55.1470   25.2950   45.9640 C   0  0  0  0  0  0  0  0  0  0  0  0
   54.4460   26.3400   45.9840 O   0  0  0  0  0  0  0  0  0  0  0  0
   54.5810   24.1100   45.5120 O   0  0  0  0  0  0  0  0  0  0  0  0
   58.3300   30.8250   44.8160 N   0  0  0  0  0  0  0  0  0  0  0  0
   57.4332   34.0480   45.0914 H   0  0  0  0  0  0  0  0  0  0  0  0
   58.5947   33.5082   43.8320 H   0  0  0  0  0  0  0  0  0  0  0  0
   56.9126   32.8778   43.8320 H   0  0  0  0  0  0  0  0  0  0  0  0
   58.3674   33.2939   47.1237 H   0  0  0  0  0  0  0  0  0  0  0  0
   58.5708   30.9536   49.5736 H   0  0  0  0  0  0  0  0  0  0  0  0
   60.3060   31.1095   49.1360 H   0  0  0  0  0  0  0  0  0  0  0  0
   59.2460   32.5596   49.1360 H   0  0  0  0  0  0  0  0  0  0  0  0
   56.8108   28.2691   45.7832 H   0  0  0  0  0  0  0  0  0  0  0  0
   56.8549   27.1387   44.3517 H   0  0  0  0  0  0  0  0  0  0  0  0
   59.5430   26.4740   46.8630 H   0  0  0  0  0  0  0  0  0  0  0  0
   57.3736   19.8106   47.7564 H   0  0  0  0  0  0  0  0  0  0  0  0
   55.7382   20.5952   47.7532 H   0  0  0  0  0  0  0  0  0  0  0  0
   57.6530   20.3585   45.3860 H   0  0  0  0  0  0  0  0  0  0  0  0
   56.0943   19.4572   45.6483 H   0  0  0  0  0  0  0  0  0  0  0  0
   54.7823   21.2863   45.1552 H   0  0  0  0  0  0  0  0  0  0  0  0
   56.0563   22.4679   45.6357 H   0  0  0  0  0  0  0  0  0  0  0  0
   57.9392   20.3767   44.0068 H   0  0  0  0  0  0  0  0  0  0  0  0
   57.9346   21.3127   42.4554 H   0  0  0  0  0  0  0  0  0  0  0  0
   59.0251   22.0379   45.1114 H   0  0  0  0  0  0  0  0  0  0  0  0
   59.3884   22.6915   43.4488 H   0  0  0  0  0  0  0  0  0  0  0  0
   56.6585   24.9886   43.5580 H   0  0  0  0  0  0  0  0  0  0  0  0
   57.7299   24.0270   42.4678 H   0  0  0  0  0  0  0  0  0  0  0  0
   55.0460   23.3526   43.6216 H   0  0  0  0  0  0  0  0  0  0  0  0
   55.8265   22.8581   42.0556 H   0  0  0  0  0  0  0  0  0  0  0  0
  1  2  1  0
  2  3  2  0
  3  4  1  0
  4  5  1  0
  4  6  2  0
  6  7  1  0
  7  8  3  0
  6  9  1  0
  9 10  1  0
 10 11  1  0
 11 12  1  0
 12 13  2  0
 13 14  1  0
 14 15  1  0
 15 16  1  0
 16 17  2  0
 16 18  1  0
 18 19  1  0
 19 20  1  0
 20 21  1  0
 21 22  1  0
 22 23  1  0
 23 24  1  0
 24 25  1  0
 25 26  1  0
 26 27  1  0
 15 28  2  0
 28 29  1  0
 29 30  2  0
 29 31  1  0
  9 32  2  0
 32  2  1  0
 28 12  1  0
 27 22  1  0
  1 33  1  0
  1 34  1  0
  1 35  1  0
  3 36  1  0
  5 37  1  0
  5 38  1  0
  5 39  1  0
 11 40  1  0
 11 41  1  0
 13 42  1  0
 19 43  1  0
 19 44  1  0
 20 45  1  0
 20 46  1  0
 21 47  1  0
 21 48  1  0
 23 49  1  0
 23 50  1  0
 24 51  1  0
 24 52  1  0
 26 53  1  0
 26 54  1  0
 27 55  1  0
 27 56  1  0
M  CHG  3  13   1  18  -1  31  -1
M  END
>  <UniqueID>  (26) 
24

>  <SMILES>  (26) 
Cc1cc(C)c(C#N)c(SCc2[nH+]oc(C(=O)[N-]CCCN3CCOCC3)c2C(=O)[O-])n1

>  <Energy>  (26) 
97.73730022560142

>  <Genealogy>  (26) 
Cc1cc(C)c(C#N)c(SCc2[nH+]oc(C(=O)[N-]CCCN3CCOCC3)c2C(=O)[O-])n1 (protonated)
Cc1cc(C)c(C#N)c(SCc2[nH+]oc(C(=O)[N-]CCCN3CCOCC3)c2C(=O)[O-])n1 (3D coordinates assigned)
Cc1cc(C)c(C#N)c(SCc2[nH+]oc(C(=O)[N-]CCCN3CCOCC3)c2C(=O)[O-])n1 (nonaromatic ring conformer: 97.73730022560142 kcal/mol)

>  <smiles>  (26) 
Cc1cc(C)c(C#N)c(SCc2noc(C(=O)NCCCN3CCOCC3)c2C(=O)O)n1

>  <score_type>  (26) 
oracle

>  <origin>  (26) 
adg

>  <m_score__min__energy>  (26) 
-11.16

>  <m_primary>  (26) 
energy

$$$$
26:0
     RDKit          3D

 37 39  0  0  0  0  0  0  0  0999 V2000
   55.6850   30.2420   44.8300 O   0  0  0  0  0  0  0  0  0  0  0  0
   57.1590   29.9500   44.8350 S   0  0  0  0  0  0  0  0  0  0  0  0
   57.8190   30.5800   43.6410 O   0  0  0  0  0  0  0  0  0  0  0  0
   57.8830   30.5540   46.2930 N   0  0  0  0  0  0  0  0  0  0  0  0
   59.0040   31.2120   46.3770 C   0  0  0  0  0  0  0  0  0  0  0  0
   60.2140   30.5170   46.7240 N   0  0  0  0  0  0  0  0  0  0  0  0
   60.2570   29.1810   47.2550 C   0  0  0  0  0  0  0  0  0  0  0  0
   60.3140   28.9440   48.6420 C   0  0  0  0  0  0  0  0  0  0  0  0
   60.3700   27.6360   49.1310 C   0  0  0  0  0  0  0  0  0  0  0  0
   60.4190   27.4140   50.4690 F   0  0  0  0  0  0  0  0  0  0  0  0
   60.3870   26.5560   48.2450 C   0  0  0  0  0  0  0  0  0  0  0  0
   60.3570   26.7820   46.8660 C   0  0  0  0  0  0  0  0  0  0  0  0
   60.3830   25.7350   46.0060 F   0  0  0  0  0  0  0  0  0  0  0  0
   60.2990   28.0910   46.3730 C   0  0  0  0  0  0  0  0  0  0  0  0
   59.0900   32.6430   46.0280 C   0  0  0  0  0  0  0  0  0  0  0  0
   58.0950   33.2320   45.2340 C   0  0  0  0  0  0  0  0  0  0  0  0
   58.1800   34.5840   44.8900 C   0  0  0  0  0  0  0  0  0  0  0  0
   59.2640   35.3510   45.3270 C   0  0  0  0  0  0  0  0  0  0  0  0
   60.2680   34.7650   46.1030 C   0  0  0  0  0  0  0  0  0  0  0  0
   60.1850   33.4120   46.4490 C   0  0  0  0  0  0  0  0  0  0  0  0
   57.4020   28.2160   44.7700 C   0  0  0  0  0  0  0  0  0  0  0  0
   58.0540   27.5270   43.7620 C   0  0  0  0  0  0  0  0  0  0  0  0
   58.0840   26.1440   43.9780 C   0  0  0  0  0  0  0  0  0  0  0  0
   57.4550   25.7500   45.1530 C   0  0  0  0  0  0  0  0  0  0  0  0
   56.8590   27.1220   45.9240 S   0  0  0  0  0  0  0  0  0  0  0  0
   61.1240   30.9810   46.5000 H   0  0  0  0  0  0  0  0  0  0  0  0
   60.3144   29.7916   49.3431 H   0  0  0  0  0  0  0  0  0  0  0  0
   60.4240   25.5273   48.6328 H   0  0  0  0  0  0  0  0  0  0  0  0
   60.2863   28.2659   45.2871 H   0  0  0  0  0  0  0  0  0  0  0  0
   57.2458   32.6284   44.8812 H   0  0  0  0  0  0  0  0  0  0  0  0
   57.3932   35.0450   44.2748 H   0  0  0  0  0  0  0  0  0  0  0  0
   59.3268   36.4163   45.0600 H   0  0  0  0  0  0  0  0  0  0  0  0
   61.1236   35.3677   46.4417 H   0  0  0  0  0  0  0  0  0  0  0  0
   60.9802   32.9502   47.0526 H   0  0  0  0  0  0  0  0  0  0  0  0
   58.5016   28.0148   42.8835 H   0  0  0  0  0  0  0  0  0  0  0  0
   58.5603   25.4363   43.2835 H   0  0  0  0  0  0  0  0  0  0  0  0
   57.3624   24.7162   45.5174 H   0  0  0  0  0  0  0  0  0  0  0  0
  1  2  2  0
  2  3  2  0
  2  4  1  0
  4  5  2  3
  5  6  1  0
  6  7  1  0
  7  8  2  0
  8  9  1  0
  9 10  1  0
  9 11  2  0
 11 12  1  0
 12 13  1  0
 12 14  2  0
  5 15  1  0
 15 16  2  0
 16 17  1  0
 17 18  2  0
 18 19  1  0
 19 20  2  0
  2 21  1  0
 21 22  2  0
 22 23  1  0
 23 24  2  0
 24 25  1  0
 14  7  1  0
 20 15  1  0
 25 21  1  0
  6 26  1  0
  8 27  1  0
 11 28  1  0
 14 29  1  0
 16 30  1  0
 17 31  1  0
 18 32  1  0
 19 33  1  0
 20 34  1  0
 22 35  1  0
 23 36  1  0
 24 37  1  0
M  END
>  <UniqueID>  (27) 
25

>  <SMILES>  (27) 
O=S(=O)(N=C(Nc1cc(F)cc(F)c1)c1ccccc1)c1cccs1

>  <Energy>  (27) 
79.52416929586843

>  <Genealogy>  (27) 
O=S(=O)(N=C(Nc1cc(F)cc(F)c1)c1ccccc1)c1cccs1 (3D coordinates assigned)
O=S(=O)(N=C(Nc1cc(F)cc(F)c1)c1ccccc1)c1cccs1 (optimized conformer: 79.52416929586843 kcal/mol)

>  <smiles>  (27) 
O=S(=O)(N=C(Nc1cc(F)cc(F)c1)c1ccccc1)c1cccs1

>  <score_type>  (27) 
oracle

>  <origin>  (27) 
adg

>  <m_score__min__energy>  (27) 
-7.5

>  <m_primary>  (27) 
energy

$$$$
27:0
     RDKit          3D

 47 51  0  0  0  0  0  0  0  0999 V2000
   56.7740   30.5340   42.7660 C   0  0  0  0  0  0  0  0  0  0  0  0
   56.5970   30.5930   44.1510 C   0  0  0  0  0  0  0  0  0  0  0  0
   57.0420   31.7080   44.8680 C   0  0  0  0  0  0  0  0  0  0  0  0
   57.6790   32.7690   44.2010 C   0  0  0  0  0  0  0  0  0  0  0  0
   58.1210   33.9880   44.9640 C   0  0  0  0  0  0  0  0  0  0  0  0
   59.1250   33.6000   46.0050 C   0  0  0  0  0  0  0  0  0  0  0  0
   58.7260   32.8470   47.0760 N   0  0  0  0  0  0  0  0  0  0  0  0
   59.6050   32.4280   48.0300 C   0  0  0  0  0  0  0  0  0  0  0  0
   59.1310   31.6380   49.1240 N   0  0  0  0  0  0  0  0  0  0  0  0
   58.5270   32.3360   50.2670 C   0  0  0  0  0  0  0  0  0  0  0  0
   58.1700   31.3850   51.4120 C   0  0  0  0  0  0  0  0  0  0  0  0
   57.7720   30.1240   50.9190 O   0  0  0  0  0  0  0  0  0  0  0  0
   58.8950   29.4820   50.3560 C   0  0  0  0  0  0  0  0  0  0  0  0
   59.3490   30.1860   49.0740 C   0  0  0  0  0  0  0  0  0  0  0  0
   60.9530   32.7770   47.8940 C   0  0  0  0  0  0  0  0  0  0  0  0
   62.0540   32.4770   48.7030 C   0  0  0  0  0  0  0  0  0  0  0  0
   63.2160   32.9850   48.2350 C   0  0  0  0  0  0  0  0  0  0  0  0
   63.0020   33.8380   46.7950 S   0  0  0  0  0  0  0  0  0  0  0  0
   61.3340   33.5320   46.7920 C   0  0  0  0  0  0  0  0  0  0  0  0
   60.4410   33.9370   45.8560 N   0  0  0  0  0  0  0  0  0  0  0  0
   64.3900   32.6760   49.0640 C   0  0  0  0  0  0  0  0  0  0  0  0
   63.7760   31.8380   50.2130 C   0  0  0  0  0  0  0  0  0  0  0  0
   62.2500   31.7220   49.9610 C   0  0  0  0  0  0  0  0  0  0  0  0
   57.8400   32.7080   42.8070 C   0  0  0  0  0  0  0  0  0  0  0  0
   57.3940   31.5920   42.0940 C   0  0  0  0  0  0  0  0  0  0  0  0
   56.4254   29.6549   42.2042 H   0  0  0  0  0  0  0  0  0  0  0  0
   56.1069   29.7611   44.6779 H   0  0  0  0  0  0  0  0  0  0  0  0
   56.8932   31.7551   45.9569 H   0  0  0  0  0  0  0  0  0  0  0  0
   58.5762   34.7086   44.2686 H   0  0  0  0  0  0  0  0  0  0  0  0
   57.2487   34.4451   45.4540 H   0  0  0  0  0  0  0  0  0  0  0  0
   59.2407   33.0852   50.6401 H   0  0  0  0  0  0  0  0  0  0  0  0
   57.5948   32.8043   49.9182 H   0  0  0  0  0  0  0  0  0  0  0  0
   59.0497   31.2563   52.0598 H   0  0  0  0  0  0  0  0  0  0  0  0
   57.3330   31.8189   51.9788 H   0  0  0  0  0  0  0  0  0  0  0  0
   59.7192   29.4960   51.0844 H   0  0  0  0  0  0  0  0  0  0  0  0
   58.6165   28.4476   50.1060 H   0  0  0  0  0  0  0  0  0  0  0  0
   60.4223   29.9950   48.9274 H   0  0  0  0  0  0  0  0  0  0  0  0
   58.7506   29.7859   48.2422 H   0  0  0  0  0  0  0  0  0  0  0  0
   60.7630   34.4950   45.0330 H   0  0  0  0  0  0  0  0  0  0  0  0
   65.1331   32.0933   48.4998 H   0  0  0  0  0  0  0  0  0  0  0  0
   64.9293   33.5694   49.4118 H   0  0  0  0  0  0  0  0  0  0  0  0
   64.2290   30.8357   50.2270 H   0  0  0  0  0  0  0  0  0  0  0  0
   63.9670   32.3218   51.1823 H   0  0  0  0  0  0  0  0  0  0  0  0
   61.9493   30.6708   49.8405 H   0  0  0  0  0  0  0  0  0  0  0  0
   61.6455   32.1097   50.7942 H   0  0  0  0  0  0  0  0  0  0  0  0
   58.3193   33.5425   42.2742 H   0  0  0  0  0  0  0  0  0  0  0  0
   57.5307   31.5458   41.0035 H   0  0  0  0  0  0  0  0  0  0  0  0
  1  2  2  0
  2  3  1  0
  3  4  2  0
  4  5  1  0
  5  6  1  0
  6  7  2  0
  7  8  1  0
  8  9  1  0
  9 10  1  0
 10 11  1  0
 11 12  1  0
 12 13  1  0
 13 14  1  0
  8 15  2  0
 15 16  1  0
 16 17  2  0
 17 18  1  0
 18 19  1  0
 19 20  2  0
 17 21  1  0
 21 22  1  0
 22 23  1  0
  4 24  1  0
 24 25  2  0
 25  1  1  0
 20  6  1  0
 14  9  1  0
 19 15  1  0
 23 16  1  0
  1 26  1  0
  2 27  1  0
  3 28  1  0
  5 29  1  0
  5 30  1  0
 10 31  1  0
 10 32  1  0
 11 33  1  0
 11 34  1  0
 13 35  1  0
 13 36  1  0
 14 37  1  0
 14 38  1  0
 20 39  1  0
 21 40  1  0
 21 41  1  0
 22 42  1  0
 22 43  1  0
 23 44  1  0
 23 45  1  0
 24 46  1  0
 25 47  1  0
M  CHG  1  20   1
M  END
>  <UniqueID>  (28) 
26

>  <SMILES>  (28) 
c1ccc(Cc2nc(N3CCOCC3)c3c4c(sc3[nH+]2)CCC4)cc1

>  <Energy>  (28) 
107.10047045067124

>  <Genealogy>  (28) 
c1ccc(Cc2nc(N3CCOCC3)c3c4c(sc3[nH+]2)CCC4)cc1 (protonated)
c1ccc(Cc2nc(N3CCOCC3)c3c4c(sc3[nH+]2)CCC4)cc1 (3D coordinates assigned)
c1ccc(Cc2nc(N3CCOCC3)c3c4c(sc3[nH+]2)CCC4)cc1 (nonaromatic ring conformer: 107.10047045067124 kcal/mol)

>  <smiles>  (28) 
c1ccc(Cc2nc(N3CCOCC3)c3c4c(sc3n2)CCC4)cc1

>  <score_type>  (28) 
oracle

>  <origin>  (28) 
adg

>  <m_score__min__energy>  (28) 
-7.1299999999999999

>  <m_primary>  (28) 
energy

$$$$
28:0
     RDKit          3D

 51 53  0  0  1  0  0  0  0  0999 V2000
   60.9560   26.5380   46.3680 C   0  0  0  0  0  0  0  0  0  0  0  0
   59.4680   26.6230   46.2440 C   0  0  0  0  0  0  0  0  0  0  0  0
   58.8980   27.5260   45.4010 N   0  0  0  0  0  0  0  0  0  0  0  0
   57.5730   27.6070   45.2790 N   0  0  0  0  0  0  0  0  0  0  0  0
   57.0320   28.5900   44.3240 C   0  0  0  0  0  0  0  0  0  0  0  0
   57.3260   29.9660   44.7750 C   0  0  0  0  0  0  0  0  0  0  0  0
   56.3340   30.7740   44.8150 O   0  0  0  0  0  0  0  0  0  0  0  0
   58.5910   30.4400   45.1560 N   0  0  0  0  0  0  0  0  0  0  0  0
   58.6960   31.8020   45.5680 C   0  0  0  0  0  0  0  0  0  0  0  0
   58.3610   32.7560   44.6240 C   0  0  0  0  0  0  0  0  0  0  0  0
   58.4130   34.1190   44.9250 C   0  0  0  0  0  0  0  0  0  0  0  0
   58.8090   34.4530   46.1890 C   0  0  0  0  0  0  0  0  0  0  0  0
   59.1450   33.4890   47.1350 C   0  0  0  0  0  0  0  0  0  0  0  0
   59.5590   33.9640   48.4840 C   0  0  0  0  0  0  0  0  0  0  0  0
   59.0970   32.1380   46.8410 C   0  0  0  0  0  0  0  0  0  0  0  0
   59.4470   31.0810   47.8190 C   0  0  0  0  0  0  0  0  0  0  0  0
   56.7600   26.8070   45.9760 C   0  0  0  0  0  0  0  0  0  0  0  0
   55.5240   26.8860   45.8560 O   0  0  0  0  0  0  0  0  0  0  0  0
   57.3380   25.9000   46.8230 C   0  0  0  0  0  0  0  0  0  0  0  0
   56.6180   25.1340   47.5210 N   0  0  0  0  0  0  0  0  0  0  0  0
   55.7240   24.0950   47.1640 C   0  0  0  0  0  0  0  0  0  0  0  0
   56.1610   23.7150   45.7440 C   0  0  0  0  0  0  0  0  0  0  0  0
   55.3900   24.0450   44.6580 C   0  0  0  0  0  0  0  0  0  0  0  0
   55.8200   23.6830   43.3760 C   0  0  0  0  0  0  0  0  0  0  0  0
   57.0190   22.9950   43.2270 C   0  0  0  0  0  0  0  0  0  0  0  0
   57.7890   22.6660   44.3280 C   0  0  0  0  0  0  0  0  0  0  0  0
   57.3470   23.0340   45.5850 C   0  0  0  0  0  0  0  0  0  0  0  0
   58.0690   22.7340   46.6980 F   0  0  0  0  0  0  0  0  0  0  0  0
   58.6810   25.7960   46.9670 N   0  0  0  0  0  0  0  0  0  0  0  0
   61.2350   26.5221   47.4319 H   0  0  0  0  0  0  0  0  0  0  0  0
   61.3125   25.6180   45.8816 H   0  0  0  0  0  0  0  0  0  0  0  0
   61.4150   27.4114   45.8816 H   0  0  0  0  0  0  0  0  0  0  0  0
   57.4906   28.4266   43.3376 H   0  0  0  0  0  0  0  0  0  0  0  0
   55.9413   28.4617   44.2611 H   0  0  0  0  0  0  0  0  0  0  0  0
   59.4050   29.7970   45.1280 H   0  0  0  0  0  0  0  0  0  0  0  0
   58.0483   32.4358   43.6192 H   0  0  0  0  0  0  0  0  0  0  0  0
   58.1483   34.8851   44.1814 H   0  0  0  0  0  0  0  0  0  0  0  0
   58.8640   35.5157   46.4675 H   0  0  0  0  0  0  0  0  0  0  0  0
   59.0436   33.3726   49.2551 H   0  0  0  0  0  0  0  0  0  0  0  0
   60.6467   33.8450   48.5968 H   0  0  0  0  0  0  0  0  0  0  0  0
   59.2926   35.0253   48.5968 H   0  0  0  0  0  0  0  0  0  0  0  0
   59.3185   31.4692   48.8402 H   0  0  0  0  0  0  0  0  0  0  0  0
   58.7885   30.2123   47.6714 H   0  0  0  0  0  0  0  0  0  0  0  0
   60.4938   30.7769   47.6714 H   0  0  0  0  0  0  0  0  0  0  0  0
   55.8235   23.2391   47.8478 H   0  0  0  0  0  0  0  0  0  0  0  0
   54.6690   24.4014   47.2188 H   0  0  0  0  0  0  0  0  0  0  0  0
   54.4434   24.5886   44.7935 H   0  0  0  0  0  0  0  0  0  0  0  0
   55.2147   23.9405   42.4943 H   0  0  0  0  0  0  0  0  0  0  0  0
   57.3595   22.7087   42.2210 H   0  0  0  0  0  0  0  0  0  0  0  0
   58.7366   22.1210   44.2054 H   0  0  0  0  0  0  0  0  0  0  0  0
   59.0770   25.0930   47.6210 H   0  0  0  0  0  0  0  0  0  0  0  0
  1  2  1  0
  2  3  2  0
  3  4  1  0
  4  5  1  0
  5  6  1  0
  6  7  2  0
  6  8  1  0
  8  9  1  0
  9 10  2  0
 10 11  1  0
 11 12  2  0
 12 13  1  0
 13 14  1  0
 13 15  2  0
 15 16  1  0
  4 17  1  0
 17 18  2  0
 17 19  1  0
 19 20  2  0
 20 21  1  0
 21 22  1  0
 22 23  2  0
 23 24  1  0
 24 25  2  0
 25 26  1  0
 26 27  2  0
 27 28  1  0
 19 29  1  0
 29  2  1  0
 15  9  1  0
 27 22  1  0
  1 30  1  0
  1 31  1  0
  1 32  1  0
  5 33  1  0
  5 34  1  0
  8 35  1  0
 10 36  1  0
 11 37  1  0
 12 38  1  0
 14 39  1  0
 14 40  1  0
 14 41  1  0
 16 42  1  0
 16 43  1  0
 16 44  1  0
 21 45  1  0
 21 46  1  0
 23 47  1  0
 24 48  1  0
 25 49  1  0
 26 50  1  0
 29 51  1  0
M  END
>  <smiles>  (29) 
Cc1nn(CC(=O)Nc2cccc(C)c2C)c(=O)c(=NCc2ccccc2F)[nH]1

>  <score_type>  (29) 
oracle

>  <origin>  (29) 
adg

>  <m_score__min__energy>  (29) 
-9

>  <m_primary>  (29) 
energy

$$$$
29:0
     RDKit          3D

 31 33  0  0  1  0  0  0  0  0999 V2000
   59.4940   33.2590   50.1310 C   0  0  0  0  0  0  0  0  0  0  0  0
   60.8430   32.6460   50.0230 C   0  0  0  0  0  0  0  0  0  0  0  0
   61.3530   31.7660   50.9250 N   0  0  0  0  0  0  0  0  0  0  0  0
   62.5710   31.4160   50.5230 N   0  0  0  0  0  0  0  0  0  0  0  0
   62.8520   32.0660   49.3640 C   0  0  0  0  0  0  0  0  0  0  0  0
   63.9390   32.0590   48.5510 N   0  0  0  0  0  0  0  0  0  0  0  0
   63.9840   32.7850   47.4470 N   0  0  0  0  0  0  0  0  0  0  0  0
   62.9380   33.5550   47.1080 C   0  0  0  0  0  0  0  0  0  0  0  0
   63.0350   34.2200   46.0530 O   0  0  0  0  0  0  0  0  0  0  0  0
   61.7800   33.6430   47.8580 C   0  0  0  0  0  0  0  0  0  0  0  0
   60.6730   34.4270   47.5450 N   0  0  0  0  0  0  0  0  0  0  0  0
   60.3440   34.5830   46.3460 N   0  0  0  0  0  0  0  0  0  0  0  0
   59.4470   33.6460   45.7890 C   0  0  0  0  0  0  0  0  0  0  0  0
   58.4010   34.0690   44.9530 C   0  0  0  0  0  0  0  0  0  0  0  0
   57.5160   33.1750   44.3910 C   0  0  0  0  0  0  0  0  0  0  0  0
   57.6080   31.8280   44.6170 C   0  0  0  0  0  0  0  0  0  0  0  0
   56.6960   30.9180   44.0380 N   0  0  0  0  0  0  0  0  0  0  0  0
   56.6160   30.8480   42.7860 O   0  0  0  0  0  0  0  0  0  0  0  0
   55.9170   30.1280   44.8650 O   0  0  0  0  0  0  0  0  0  0  0  0
   58.6260   31.3880   45.4340 C   0  0  0  0  0  0  0  0  0  0  0  0
   59.5140   32.2850   45.9980 C   0  0  0  0  0  0  0  0  0  0  0  0
   61.7640   32.8610   49.0200 C   0  0  0  0  0  0  0  0  0  0  0  0
   59.2297   33.3791   51.1920 H   0  0  0  0  0  0  0  0  0  0  0  0
   59.4983   34.2436   49.6405 H   0  0  0  0  0  0  0  0  0  0  0  0
   58.7552   32.6082   49.6405 H   0  0  0  0  0  0  0  0  0  0  0  0
   63.1950   30.7410   51.0400 H   0  0  0  0  0  0  0  0  0  0  0  0
   64.8560   32.7340   46.8630 H   0  0  0  0  0  0  0  0  0  0  0  0
   58.2852   35.1422   44.7413 H   0  0  0  0  0  0  0  0  0  0  0  0
   56.7127   33.5544   43.7423 H   0  0  0  0  0  0  0  0  0  0  0  0
   58.7334   30.3127   45.6396 H   0  0  0  0  0  0  0  0  0  0  0  0
   60.3129   31.8937   46.6450 H   0  0  0  0  0  0  0  0  0  0  0  0
  1  2  1  0
  2  3  2  0
  3  4  1  0
  4  5  1  0
  5  6  2  0
  6  7  1  0
  7  8  1  0
  8  9  2  0
  8 10  1  0
 10 11  1  0
 11 12  2  0
 12 13  1  0
 13 14  2  0
 14 15  1  0
 15 16  2  0
 16 17  1  0
 17 18  2  0
 17 19  1  0
 16 20  1  0
 20 21  2  0
 10 22  2  0
 22  2  1  0
 22  5  1  0
 21 13  1  0
  1 23  1  0
  1 24  1  0
  1 25  1  0
  4 26  1  0
  7 27  1  0
 14 28  1  0
 15 29  1  0
 20 30  1  0
 21 31  1  0
M  CHG  2  17   1  19  -1
M  END
>  <smiles>  (30) 
Cc1n[nH]c2n[nH]c(=O)c(N=Nc3ccc([N+](=O)[O-])cc3)c12

>  <score_type>  (30) 
oracle

>  <origin>  (30) 
adg

>  <m_score__min__energy>  (30) 
-7.4100000000000001

>  <m_primary>  (30) 
energy

$$$$
30:0
     RDKit          3D

 38 40  0  0  0  0  0  0  0  0999 V2000
   63.7520   32.3490   48.5740 C   0  0  0  0  0  0  0  0  0  0  0  0
   62.7190   33.2350   48.0170 N   0  0  0  0  0  0  0  0  0  0  0  0
   63.1430   33.8390   46.7450 C   0  0  0  0  0  0  0  0  0  0  0  0
   62.1760   34.2070   48.9940 C   0  0  0  0  0  0  0  0  0  0  0  0
   60.6330   34.2330   49.1320 C   0  0  0  0  0  0  0  0  0  0  0  0
   59.9460   33.4470   48.0870 N   0  0  0  0  0  0  0  0  0  0  0  0
   59.6660   32.1350   48.3330 C   0  0  0  0  0  0  0  0  0  0  0  0
   59.0320   31.3680   47.4090 N   0  0  0  0  0  0  0  0  0  0  0  0
   58.6310   31.8750   46.2040 C   0  0  0  0  0  0  0  0  0  0  0  0
   58.8740   33.2460   45.9390 C   0  0  0  0  0  0  0  0  0  0  0  0
   58.4630   33.8130   44.7230 C   0  0  0  0  0  0  0  0  0  0  0  0
   57.8170   33.0420   43.7640 C   0  0  0  0  0  0  0  0  0  0  0  0
   57.5690   31.6860   43.9940 C   0  0  0  0  0  0  0  0  0  0  0  0
   56.9170   30.9310   43.0060 C   0  0  0  0  0  0  0  0  0  0  0  0
   56.6630   29.5760   43.2080 C   0  0  0  0  0  0  0  0  0  0  0  0
   57.0540   28.9630   44.3940 C   0  0  0  0  0  0  0  0  0  0  0  0
   57.7030   29.6970   45.3900 C   0  0  0  0  0  0  0  0  0  0  0  0
   57.9730   31.0770   45.2160 C   0  0  0  0  0  0  0  0  0  0  0  0
   59.5320   34.0210   46.9140 C   0  0  0  0  0  0  0  0  0  0  0  0
   59.7450   35.2480   46.6970 O   0  0  0  0  0  0  0  0  0  0  0  0
   63.7114   32.3838   49.6727 H   0  0  0  0  0  0  0  0  0  0  0  0
   63.5739   31.3185   48.2330 H   0  0  0  0  0  0  0  0  0  0  0  0
   64.7434   32.6819   48.2330 H   0  0  0  0  0  0  0  0  0  0  0  0
   63.7641   34.7238   46.9483 H   0  0  0  0  0  0  0  0  0  0  0  0
   63.7261   33.1065   46.1676 H   0  0  0  0  0  0  0  0  0  0  0  0
   62.2559   34.1385   46.1676 H   0  0  0  0  0  0  0  0  0  0  0  0
   62.5992   33.9664   49.9804 H   0  0  0  0  0  0  0  0  0  0  0  0
   62.4592   35.2005   48.6163 H   0  0  0  0  0  0  0  0  0  0  0  0
   60.3622   33.8209   50.1153 H   0  0  0  0  0  0  0  0  0  0  0  0
   60.3107   35.2789   49.0218 H   0  0  0  0  0  0  0  0  0  0  0  0
   59.9586   31.6908   49.2958 H   0  0  0  0  0  0  0  0  0  0  0  0
   58.8650   30.3780   47.6840 H   0  0  0  0  0  0  0  0  0  0  0  0
   58.6540   34.8784   44.5269 H   0  0  0  0  0  0  0  0  0  0  0  0
   57.4986   33.5024   42.8171 H   0  0  0  0  0  0  0  0  0  0  0  0
   56.6050   31.4119   42.0672 H   0  0  0  0  0  0  0  0  0  0  0  0
   56.1528   28.9904   42.4290 H   0  0  0  0  0  0  0  0  0  0  0  0
   56.8508   27.8931   44.5487 H   0  0  0  0  0  0  0  0  0  0  0  0
   58.0082   29.1972   46.3211 H   0  0  0  0  0  0  0  0  0  0  0  0
  1  2  1  0
  2  3  1  0
  2  4  1  0
  4  5  1  0
  5  6  1  0
  6  7  1  0
  7  8  2  0
  8  9  1  0
  9 10  2  0
 10 11  1  0
 11 12  2  0
 12 13  1  0
 13 14  2  0
 14 15  1  0
 15 16  2  0
 16 17  1  0
 17 18  2  0
 10 19  1  0
 19 20  2  0
 19  6  1  0
 18  9  1  0
 18 13  1  0
  1 21  1  0
  1 22  1  0
  1 23  1  0
  3 24  1  0
  3 25  1  0
  3 26  1  0
  4 27  1  0
  4 28  1  0
  5 29  1  0
  5 30  1  0
  7 31  1  0
  8 32  1  0
 11 33  1  0
 12 34  1  0
 14 35  1  0
 15 36  1  0
 16 37  1  0
 17 38  1  0
M  CHG  1   8   1
M  END
>  <UniqueID>  (31) 
27

>  <SMILES>  (31) 
CN(C)CCn1c[nH+]c2c(ccc3ccccc32)c1=O

>  <Energy>  (31) 
58.30708961302269

>  <Genealogy>  (31) 
CN(C)CCn1c[nH+]c2c(ccc3ccccc32)c1=O (protonated)
CN(C)CCn1c[nH+]c2c(ccc3ccccc32)c1=O (3D coordinates assigned)
CN(C)CCn1c[nH+]c2c(ccc3ccccc32)c1=O (optimized conformer: 58.30708961302269 kcal/mol)

>  <smiles>  (31) 
CN(C)CCn1cnc2c(ccc3ccccc32)c1=O

>  <score_type>  (31) 
oracle

>  <origin>  (31) 
adg

>  <m_score__min__energy>  (31) 
-5.54

>  <m_primary>  (31) 
energy

$$$$
31:0
     RDKit          3D

 59 62  0  0  0  0  0  0  0  0999 V2000
   58.5290   34.1620   52.6110 C   0  0  0  0  0  0  0  0  0  0  0  0
   59.3950   33.1900   52.9080 C   0  0  0  0  0  0  0  0  0  0  0  0
   59.5600   31.9820   52.0270 C   0  0  0  0  0  0  0  0  0  0  0  0
   60.1860   32.3560   50.7400 N   0  0  0  0  0  0  0  0  0  0  0  0
   61.5550   32.3570   50.5700 C   0  0  0  0  0  0  0  0  0  0  0  0
   62.6890   31.7600   51.8460 S   0  0  0  0  0  0  0  0  0  0  0  0
   63.0290   33.4090   52.5580 C   0  0  0  0  0  0  0  0  0  0  0  0
   63.5550   34.5790   51.2640 S   0  0  0  0  0  0  0  0  0  0  0  0
   65.0700   33.7040   50.8640 C   0  0  0  0  0  0  0  0  0  0  0  0
   65.0880   32.5530   50.1610 N   0  0  0  0  0  0  0  0  0  0  0  0
   66.3870   32.1910   50.1540 C   0  0  0  0  0  0  0  0  0  0  0  0
   67.1260   33.1090   50.8650 C   0  0  0  0  0  0  0  0  0  0  0  0
   66.2930   34.0720   51.2950 N   0  0  0  0  0  0  0  0  0  0  0  0
   66.6220   35.1640   52.2060 C   0  0  0  0  0  0  0  0  0  0  0  0
   62.1030   32.8110   49.4080 N   0  0  0  0  0  0  0  0  0  0  0  0
   61.3250   33.2360   48.3730 C   0  0  0  0  0  0  0  0  0  0  0  0
   61.8650   33.7350   47.1640 C   0  0  0  0  0  0  0  0  0  0  0  0
   63.3470   33.9140   46.9680 C   0  0  0  0  0  0  0  0  0  0  0  0
   64.0580   32.8870   47.6270 O   0  0  0  0  0  0  0  0  0  0  0  0
   63.6790   31.6390   47.0930 C   0  0  0  0  0  0  0  0  0  0  0  0
   61.0200   34.0580   46.1470 N   0  0  0  0  0  0  0  0  0  0  0  0
   59.6750   33.9410   46.2770 C   0  0  0  0  0  0  0  0  0  0  0  0
   58.6060   34.2420   44.8730 S   0  0  0  0  0  0  0  0  0  0  0  0
   57.2380   33.1970   45.5000 C   0  0  0  0  0  0  0  0  0  0  0  0
   57.4270   31.7490   45.1250 C   0  0  0  0  0  0  0  0  0  0  0  0
   58.4390   30.9890   45.7320 C   0  0  0  0  0  0  0  0  0  0  0  0
   58.6620   29.6670   45.3330 C   0  0  0  0  0  0  0  0  0  0  0  0
   57.8800   29.0990   44.3240 C   0  0  0  0  0  0  0  0  0  0  0  0
   56.8700   29.8490   43.7150 C   0  0  0  0  0  0  0  0  0  0  0  0
   56.6410   31.1680   44.1140 C   0  0  0  0  0  0  0  0  0  0  0  0
   59.1390   33.5210   47.4490 N   0  0  0  0  0  0  0  0  0  0  0  0
   59.9310   33.1740   48.4950 C   0  0  0  0  0  0  0  0  0  0  0  0
   59.3760   32.7410   49.7000 C   0  0  0  0  0  0  0  0  0  0  0  0
   58.1190   32.7130   49.8200 O   0  0  0  0  0  0  0  0  0  0  0  0
   58.4310   35.0333   53.2753 H   0  0  0  0  0  0  0  0  0  0  0  0
   57.9135   34.0915   51.7020 H   0  0  0  0  0  0  0  0  0  0  0  0
   60.0034   33.2748   53.8205 H   0  0  0  0  0  0  0  0  0  0  0  0
   60.1978   31.2462   52.5386 H   0  0  0  0  0  0  0  0  0  0  0  0
   58.5676   31.5521   51.8262 H   0  0  0  0  0  0  0  0  0  0  0  0
   62.1153   33.7895   53.0380 H   0  0  0  0  0  0  0  0  0  0  0  0
   63.8390   33.3133   53.2961 H   0  0  0  0  0  0  0  0  0  0  0  0
   66.7938   31.2985   49.6561 H   0  0  0  0  0  0  0  0  0  0  0  0
   68.2095   33.0626   51.0492 H   0  0  0  0  0  0  0  0  0  0  0  0
   66.5179   34.8186   53.2452 H   0  0  0  0  0  0  0  0  0  0  0  0
   67.6580   35.4891   52.0297 H   0  0  0  0  0  0  0  0  0  0  0  0
   65.9380   36.0073   52.0297 H   0  0  0  0  0  0  0  0  0  0  0  0
   63.1420   32.8260   49.3300 H   0  0  0  0  0  0  0  0  0  0  0  0
   63.5770   33.8818   45.8928 H   0  0  0  0  0  0  0  0  0  0  0  0
   63.6483   34.8842   47.3899 H   0  0  0  0  0  0  0  0  0  0  0  0
   63.4662   30.9383   47.9138 H   0  0  0  0  0  0  0  0  0  0  0  0
   62.7781   31.7633   46.4742 H   0  0  0  0  0  0  0  0  0  0  0  0
   64.4969   31.2413   46.4742 H   0  0  0  0  0  0  0  0  0  0  0  0
   57.1997   33.2795   46.5962 H   0  0  0  0  0  0  0  0  0  0  0  0
   56.3004   33.5498   45.0457 H   0  0  0  0  0  0  0  0  0  0  0  0
   59.0588   31.4345   46.5241 H   0  0  0  0  0  0  0  0  0  0  0  0
   59.4538   29.0740   45.8141 H   0  0  0  0  0  0  0  0  0  0  0  0
   58.0594   28.0606   44.0086 H   0  0  0  0  0  0  0  0  0  0  0  0
   56.2550   29.4003   42.9210 H   0  0  0  0  0  0  0  0  0  0  0  0
   55.8428   31.7544   43.6355 H   0  0  0  0  0  0  0  0  0  0  0  0
  1  2  2  0
  2  3  1  0
  3  4  1  0
  4  5  1  0
  5  6  1  0
  6  7  1  0
  7  8  1  0
  8  9  1  0
  9 10  2  0
 10 11  1  0
 11 12  2  0
 12 13  1  0
 13 14  1  0
  5 15  2  0
 15 16  1  0
 16 17  2  0
 17 18  1  0
 18 19  1  0
 19 20  1  0
 17 21  1  0
 21 22  2  0
 22 23  1  0
 23 24  1  0
 24 25  1  0
 25 26  2  0
 26 27  1  0
 27 28  2  0
 28 29  1  0
 29 30  2  0
 22 31  1  0
 31 32  2  0
 32 33  1  0
 33 34  2  0
 33  4  1  0
 13  9  1  0
 32 16  1  0
 30 25  1  0
  1 35  1  0
  1 36  1  0
  2 37  1  0
  3 38  1  0
  3 39  1  0
  7 40  1  0
  7 41  1  0
 11 42  1  0
 12 43  1  0
 14 44  1  0
 14 45  1  0
 14 46  1  0
 15 47  1  0
 18 48  1  0
 18 49  1  0
 20 50  1  0
 20 51  1  0
 20 52  1  0
 24 53  1  0
 24 54  1  0
 26 55  1  0
 27 56  1  0
 28 57  1  0
 29 58  1  0
 30 59  1  0
M  CHG  1  15   1
M  END
>  <UniqueID>  (32) 
28

>  <SMILES>  (32) 
C=CCn1c(SCSc2nccn2C)[nH+]c2c(COC)nc(SCc3ccccc3)nc2c1=O

>  <Energy>  (32) 
85.53695169622137

>  <Genealogy>  (32) 
C=CCn1c(SCSc2nccn2C)[nH+]c2c(COC)nc(SCc3ccccc3)nc2c1=O (protonated)
C=CCn1c(SCSc2nccn2C)[nH+]c2c(COC)nc(SCc3ccccc3)nc2c1=O (3D coordinates assigned)
C=CCn1c(SCSc2nccn2C)[nH+]c2c(COC)nc(SCc3ccccc3)nc2c1=O (optimized conformer: 85.53695169622137 kcal/mol)

>  <smiles>  (32) 
C=CCn1c(SCSc2nccn2C)nc2c(COC)nc(SCc3ccccc3)nc2c1=O

>  <score_type>  (32) 
oracle

>  <origin>  (32) 
adg

>  <m_score__min__energy>  (32) 
-6.9199999999999999

>  <m_primary>  (32) 
energy

$$$$
32:0
     RDKit          3D

 24 26  0  0  0  0  0  0  0  0999 V2000
   58.5250   29.1020   44.3710 C   0  0  0  0  0  0  0  0  0  0  0  0
   58.2410   29.2370   45.7330 C   0  0  0  0  0  0  0  0  0  0  0  0
   57.8020   28.1340   46.4720 C   0  0  0  0  0  0  0  0  0  0  0  0
   57.6450   26.8910   45.8490 C   0  0  0  0  0  0  0  0  0  0  0  0
   57.2190   25.8170   46.5630 N   0  0  0  0  0  0  0  0  0  0  0  0
   57.0550   24.5940   45.9930 C   0  0  0  0  0  0  0  0  0  0  0  0
   57.3250   24.3980   44.6260 C   0  0  0  0  0  0  0  0  0  0  0  0
   57.1470   23.0640   43.9990 C   0  0  0  0  0  0  0  0  0  0  0  0
   57.9160   21.9270   44.1870 C   0  0  0  0  0  0  0  0  0  0  0  0
   57.4070   20.9440   43.4260 N   0  0  0  0  0  0  0  0  0  0  0  0
   56.3750   21.4100   42.7870 O   0  0  0  0  0  0  0  0  0  0  0  0
   56.1730   22.6710   43.0900 C   0  0  0  0  0  0  0  0  0  0  0  0
   57.7670   25.4990   43.8700 C   0  0  0  0  0  0  0  0  0  0  0  0
   57.9300   26.7520   44.4740 C   0  0  0  0  0  0  0  0  0  0  0  0
   58.3710   27.8630   43.7390 C   0  0  0  0  0  0  0  0  0  0  0  0
   58.8707   29.9725   43.7941 H   0  0  0  0  0  0  0  0  0  0  0  0
   58.3632   30.2134   46.2247 H   0  0  0  0  0  0  0  0  0  0  0  0
   57.5799   28.2436   47.5438 H   0  0  0  0  0  0  0  0  0  0  0  0
   56.7079   23.7493   46.6062 H   0  0  0  0  0  0  0  0  0  0  0  0
   58.7927   21.8436   44.8461 H   0  0  0  0  0  0  0  0  0  0  0  0
   57.7670   19.9670   43.3480 H   0  0  0  0  0  0  0  0  0  0  0  0
   55.3694   23.3080   42.6919 H   0  0  0  0  0  0  0  0  0  0  0  0
   57.9857   25.3751   42.7991 H   0  0  0  0  0  0  0  0  0  0  0  0
   58.5954   27.7601   42.6671 H   0  0  0  0  0  0  0  0  0  0  0  0
  1  2  2  0
  2  3  1  0
  3  4  2  0
  4  5  1  0
  5  6  2  0
  6  7  1  0
  7  8  1  0
  8  9  1  0
  9 10  2  0
 10 11  1  0
 11 12  1  0
  7 13  2  0
 13 14  1  0
 14 15  2  0
 15  1  1  0
 14  4  1  0
 12  8  2  0
  1 16  1  0
  2 17  1  0
  3 18  1  0
  6 19  1  0
  9 20  1  0
 10 21  1  0
 12 22  1  0
 13 23  1  0
 15 24  1  0
M  CHG  1  10   1
M  END
>  <UniqueID>  (33) 
29

>  <SMILES>  (33) 
c1ccc2ncc(-c3c[nH+]oc3)cc2c1

>  <Energy>  (33) 
62.95324390525385

>  <Genealogy>  (33) 
c1ccc2ncc(-c3c[nH+]oc3)cc2c1 (protonated)
c1ccc2ncc(-c3c[nH+]oc3)cc2c1 (3D coordinates assigned)
c1ccc2ncc(-c3c[nH+]oc3)cc2c1 (optimized conformer: 62.95324390525385 kcal/mol)

>  <smiles>  (33) 
c1ccc2ncc(-c3cnoc3)cc2c1

>  <score_type>  (33) 
oracle

>  <origin>  (33) 
adg

>  <m_score__min__energy>  (33) 
-5.5199999999999996

>  <m_primary>  (33) 
energy

$$$$
33:0
     RDKit          3D

 45 48  0  0  0  0  0  0  0  0999 V2000
   57.8440   26.3540   42.6800 O   0  0  0  0  0  0  0  0  0  0  0  0
   57.7650   27.1270   43.6750 C   0  0  0  0  0  0  0  0  0  0  0  0
   57.4150   26.5240   44.9810 C   0  0  0  0  0  0  0  0  0  0  0  0
   58.2390   25.6900   45.7160 C   0  0  0  0  0  0  0  0  0  0  0  0
   57.5320   25.3620   46.8510 C   0  0  0  0  0  0  0  0  0  0  0  0
   56.3220   26.0140   46.7440 C   0  0  0  0  0  0  0  0  0  0  0  0
   56.2850   26.6940   45.6220 O   0  0  0  0  0  0  0  0  0  0  0  0
   58.0020   28.5500   43.4770 N   0  0  0  0  0  0  0  0  0  0  0  0
   56.7980   29.2820   43.0120 C   0  0  0  0  0  0  0  0  0  0  0  0
   56.0180   29.9840   44.1310 C   0  0  0  0  0  0  0  0  0  0  0  0
   56.8880   30.8090   44.9830 N   0  0  0  0  0  0  0  0  0  0  0  0
   57.4080   32.0030   44.2800 C   0  0  0  0  0  0  0  0  0  0  0  0
   58.1190   32.9050   45.2400 C   0  0  0  0  0  0  0  0  0  0  0  0
   57.7750   34.2030   45.5380 C   0  0  0  0  0  0  0  0  0  0  0  0
   58.6140   34.6280   46.4490 O   0  0  0  0  0  0  0  0  0  0  0  0
   59.4440   33.6400   46.7130 C   0  0  0  0  0  0  0  0  0  0  0  0
   60.5420   33.7380   47.7010 C   0  0  0  0  0  0  0  0  0  0  0  0
   60.2350   33.7880   49.0730 C   0  0  0  0  0  0  0  0  0  0  0  0
   61.2560   33.8800   50.0250 C   0  0  0  0  0  0  0  0  0  0  0  0
   62.5900   33.9210   49.6190 C   0  0  0  0  0  0  0  0  0  0  0  0
   62.9090   33.8720   48.2590 C   0  0  0  0  0  0  0  0  0  0  0  0
   61.8940   33.7800   47.3000 C   0  0  0  0  0  0  0  0  0  0  0  0
   62.2400   33.7330   45.9890 F   0  0  0  0  0  0  0  0  0  0  0  0
   59.1760   32.5330   45.9850 N   0  0  0  0  0  0  0  0  0  0  0  0
   57.9440   29.9850   45.5960 C   0  0  0  0  0  0  0  0  0  0  0  0
   58.7790   29.1900   44.5720 C   0  0  0  0  0  0  0  0  0  0  0  0
   59.2525   25.3569   45.4480 H   0  0  0  0  0  0  0  0  0  0  0  0
   57.8645   24.7128   47.6744 H   0  0  0  0  0  0  0  0  0  0  0  0
   55.5111   25.9709   47.4860 H   0  0  0  0  0  0  0  0  0  0  0  0
   58.6530   28.5890   42.6530 H   0  0  0  0  0  0  0  0  0  0  0  0
   57.1164   30.0425   42.2838 H   0  0  0  0  0  0  0  0  0  0  0  0
   56.1208   28.5325   42.5766 H   0  0  0  0  0  0  0  0  0  0  0  0
   55.2517   30.6296   43.6772 H   0  0  0  0  0  0  0  0  0  0  0  0
   55.5642   29.2074   44.7642 H   0  0  0  0  0  0  0  0  0  0  0  0
   58.1093   31.6845   43.4946 H   0  0  0  0  0  0  0  0  0  0  0  0
   56.5644   32.5502   43.8340 H   0  0  0  0  0  0  0  0  0  0  0  0
   56.9487   34.7772   45.0936 H   0  0  0  0  0  0  0  0  0  0  0  0
   59.1851   33.7545   49.3994 H   0  0  0  0  0  0  0  0  0  0  0  0
   61.0065   33.9201   51.0956 H   0  0  0  0  0  0  0  0  0  0  0  0
   63.3911   33.9919   50.3694 H   0  0  0  0  0  0  0  0  0  0  0  0
   63.9616   33.9059   47.9414 H   0  0  0  0  0  0  0  0  0  0  0  0
   58.6200   30.6470   46.1570 H   0  0  0  0  0  0  0  0  0  0  0  0
   57.4443   29.2505   46.2447 H   0  0  0  0  0  0  0  0  0  0  0  0
   59.5038   29.8802   44.1157 H   0  0  0  0  0  0  0  0  0  0  0  0
   59.2462   28.3677   45.1338 H   0  0  0  0  0  0  0  0  0  0  0  0
  1  2  2  0
  2  3  1  0
  3  4  2  0
  4  5  1  0
  5  6  2  0
  6  7  1  0
  2  8  1  0
  8  9  1  0
  9 10  1  0
 10 11  1  0
 11 12  1  0
 12 13  1  0
 13 14  2  0
 14 15  1  0
 15 16  1  0
 16 17  1  0
 17 18  2  0
 18 19  1  0
 19 20  2  0
 20 21  1  0
 21 22  2  0
 22 23  1  0
 16 24  2  0
 11 25  1  0
 25 26  1  0
  7  3  1  0
 26  8  1  0
 24 13  1  0
 22 17  1  0
  4 27  1  0
  5 28  1  0
  6 29  1  0
  8 30  1  0
  9 31  1  0
  9 32  1  0
 10 33  1  0
 10 34  1  0
 12 35  1  0
 12 36  1  0
 14 37  1  0
 18 38  1  0
 19 39  1  0
 20 40  1  0
 21 41  1  0
 25 42  1  0
 25 43  1  0
 26 44  1  0
 26 45  1  0
M  CHG  1   8   1
M  END
>  <UniqueID>  (34) 
30

>  <SMILES>  (34) 
O=C(c1ccco1)[NH+]1CCN(Cc2coc(-c3ccccc3F)n2)CC1

>  <Energy>  (34) 
121.51238692297221

>  <Genealogy>  (34) 
O=C(c1ccco1)[NH+]1CCN(Cc2coc(-c3ccccc3F)n2)CC1 (protonated)
O=C(c1ccco1)[NH+]1CCN(Cc2coc(-c3ccccc3F)n2)CC1 (3D coordinates assigned)
O=C(c1ccco1)[NH+]1CCN(Cc2coc(-c3ccccc3F)n2)CC1 (nonaromatic ring conformer: 121.51238692297221 kcal/mol)

>  <smiles>  (34) 
O=C(c1ccco1)N1CCN(Cc2coc(-c3ccccc3F)n2)CC1

>  <score_type>  (34) 
oracle

>  <origin>  (34) 
adg

>  <m_score__min__energy>  (34) 
-6.9299999999999997

>  <m_primary>  (34) 
energy

$$$$
34:0
     RDKit          3D

 46 48  0  0  0  0  0  0  0  0999 V2000
   55.1570   26.7070   45.9650 O   0  0  0  0  0  0  0  0  0  0  0  0
   56.1050   25.8890   46.0830 C   0  0  0  0  0  0  0  0  0  0  0  0
   55.8850   24.6680   46.8040 N   0  0  0  0  0  0  0  0  0  0  0  0
   54.8350   23.7230   46.5580 C   0  0  0  0  0  0  0  0  0  0  0  0
   54.9660   22.4190   47.0560 C   0  0  0  0  0  0  0  0  0  0  0  0
   53.9530   21.4780   46.8470 C   0  0  0  0  0  0  0  0  0  0  0  0
   52.8090   21.8310   46.1260 C   0  0  0  0  0  0  0  0  0  0  0  0
   52.6830   23.1200   45.6010 C   0  0  0  0  0  0  0  0  0  0  0  0
   53.6960   24.0630   45.8080 C   0  0  0  0  0  0  0  0  0  0  0  0
   57.3740   26.2040   45.4910 N   0  0  0  0  0  0  0  0  0  0  0  0
   58.1780   27.3540   45.7870 C   0  0  0  0  0  0  0  0  0  0  0  0
   59.1860   27.7240   44.8910 C   0  0  0  0  0  0  0  0  0  0  0  0
   59.9750   28.8500   45.1410 C   0  0  0  0  0  0  0  0  0  0  0  0
   59.7850   29.6060   46.3100 C   0  0  0  0  0  0  0  0  0  0  0  0
   60.5960   30.8150   46.5620 C   0  0  0  0  0  0  0  0  0  0  0  0
   61.6510   30.7190   47.2430 O   0  0  0  0  0  0  0  0  0  0  0  0
   60.1980   32.1060   46.0860 N   0  0  0  0  0  0  0  0  0  0  0  0
   58.9310   32.7520   46.4210 C   0  0  0  0  0  0  0  0  0  0  0  0
   58.2830   33.3250   45.1610 C   0  0  0  0  0  0  0  0  0  0  0  0
   57.6600   32.2310   44.3310 C   0  0  0  0  0  0  0  0  0  0  0  0
   57.7320   32.2800   42.9290 C   0  0  0  0  0  0  0  0  0  0  0  0
   57.2060   31.2390   42.1600 C   0  0  0  0  0  0  0  0  0  0  0  0
   56.6080   30.1400   42.7830 C   0  0  0  0  0  0  0  0  0  0  0  0
   56.5380   30.0780   44.1820 C   0  0  0  0  0  0  0  0  0  0  0  0
   55.9460   28.9860   44.8140 O   0  0  0  0  0  0  0  0  0  0  0  0
   57.0660   31.1200   44.9520 C   0  0  0  0  0  0  0  0  0  0  0  0
   58.7790   29.2300   47.2130 C   0  0  0  0  0  0  0  0  0  0  0  0
   57.9920   28.1020   46.9620 C   0  0  0  0  0  0  0  0  0  0  0  0
   55.8703   22.1347   47.6140 H   0  0  0  0  0  0  0  0  0  0  0  0
   54.0566   20.4598   47.2501 H   0  0  0  0  0  0  0  0  0  0  0  0
   52.0073   21.0938   45.9717 H   0  0  0  0  0  0  0  0  0  0  0  0
   51.7869   23.3935   45.0246 H   0  0  0  0  0  0  0  0  0  0  0  0
   53.6006   25.0729   45.3826 H   0  0  0  0  0  0  0  0  0  0  0  0
   59.3588   27.1254   43.9844 H   0  0  0  0  0  0  0  0  0  0  0  0
   60.7495   29.1463   44.4182 H   0  0  0  0  0  0  0  0  0  0  0  0
   58.2543   32.0124   46.8737 H   0  0  0  0  0  0  0  0  0  0  0  0
   59.1213   33.5701   47.1313 H   0  0  0  0  0  0  0  0  0  0  0  0
   57.5034   34.0443   45.4522 H   0  0  0  0  0  0  0  0  0  0  0  0
   59.0598   33.8220   44.5613 H   0  0  0  0  0  0  0  0  0  0  0  0
   58.2045   33.1416   42.4346 H   0  0  0  0  0  0  0  0  0  0  0  0
   57.2626   31.2843   41.0624 H   0  0  0  0  0  0  0  0  0  0  0  0
   56.1919   29.3230   42.1752 H   0  0  0  0  0  0  0  0  0  0  0  0
   56.3110   28.0480   44.7010 H   0  0  0  0  0  0  0  0  0  0  0  0
   57.0157   31.0689   46.0497 H   0  0  0  0  0  0  0  0  0  0  0  0
   58.6088   29.8252   48.1222 H   0  0  0  0  0  0  0  0  0  0  0  0
   57.2233   27.7985   47.6880 H   0  0  0  0  0  0  0  0  0  0  0  0
  1  2  2  0
  2  3  1  0
  3  4  1  0
  4  5  2  0
  5  6  1  0
  6  7  2  0
  7  8  1  0
  8  9  2  0
  2 10  1  0
 10 11  1  0
 11 12  2  0
 12 13  1  0
 13 14  2  0
 14 15  1  0
 15 16  2  0
 15 17  1  0
 17 18  1  0
 18 19  1  0
 19 20  1  0
 20 21  2  0
 21 22  1  0
 22 23  2  0
 23 24  1  0
 24 25  1  0
 24 26  2  0
 14 27  1  0
 27 28  2  0
  9  4  1  0
 28 11  1  0
 26 20  1  0
  5 29  1  0
  6 30  1  0
  7 31  1  0
  8 32  1  0
  9 33  1  0
 12 34  1  0
 13 35  1  0
 18 36  1  0
 18 37  1  0
 19 38  1  0
 19 39  1  0
 21 40  1  0
 22 41  1  0
 23 42  1  0
 25 43  1  0
 26 44  1  0
 27 45  1  0
 28 46  1  0
M  CHG  3   3  -1  10  -1  17  -1
M  END
>  <UniqueID>  (35) 
31

>  <SMILES>  (35) 
O=C([N-]c1ccccc1)[N-]c1ccc(C(=O)[N-]CCc2cccc(O)c2)cc1

>  <Energy>  (35) 
56.89896885709215

>  <Genealogy>  (35) 
O=C([N-]c1ccccc1)[N-]c1ccc(C(=O)[N-]CCc2cccc(O)c2)cc1 (protonated)
O=C([N-]c1ccccc1)[N-]c1ccc(C(=O)[N-]CCc2cccc(O)c2)cc1 (3D coordinates assigned)
O=C([N-]c1ccccc1)[N-]c1ccc(C(=O)[N-]CCc2cccc(O)c2)cc1 (optimized conformer: 56.89896885709215 kcal/mol)

>  <smiles>  (35) 
O=C(Nc1ccccc1)Nc1ccc(C(=O)NCCc2cccc(O)c2)cc1

>  <score_type>  (35) 
oracle

>  <origin>  (35) 
adg

>  <m_score__min__energy>  (35) 
-12.59

>  <m_primary>  (35) 
energy

$$$$
35:0
     RDKit          3D

 39 41  0  0  1  0  0  0  0  0999 V2000
   56.6480   30.2550   43.2960 C   0  0  0  0  0  0  0  0  0  0  0  0
   56.3970   30.7550   44.6040 O   0  0  0  0  0  0  0  0  0  0  0  0
   57.3990   31.5180   45.1870 C   0  0  0  0  0  0  0  0  0  0  0  0
   58.1590   30.9840   46.2060 C   0  0  0  0  0  0  0  0  0  0  0  0
   59.1570   31.7190   46.7990 C   0  0  0  0  0  0  0  0  0  0  0  0
   59.4250   33.0440   46.3750 C   0  0  0  0  0  0  0  0  0  0  0  0
   60.3320   33.7830   47.0400 N   0  0  0  0  0  0  0  0  0  0  0  0
   61.5070   33.6080   47.3680 C   0  0  0  0  0  0  0  0  0  0  0  0
   62.4200   33.4720   46.3730 N   0  0  0  0  0  0  0  0  0  0  0  0
   63.7010   33.2830   46.6760 C   0  0  0  0  0  0  0  0  0  0  0  0
   64.1410   33.2190   47.9380 N   0  0  0  0  0  0  0  0  0  0  0  0
   63.2320   33.3540   48.9190 C   0  0  0  0  0  0  0  0  0  0  0  0
   63.7010   33.2850   50.2080 C   0  0  0  0  0  0  0  0  0  0  0  0
   62.7810   33.4220   51.2150 C   0  0  0  0  0  0  0  0  0  0  0  0
   61.4460   33.6210   51.0450 C   0  0  0  0  0  0  0  0  0  0  0  0
   60.5770   33.7500   52.1190 O   0  0  0  0  0  0  0  0  0  0  0  0
   59.1840   33.7790   51.9900 C   0  0  0  0  0  0  0  0  0  0  0  0
   60.9940   33.6860   49.7160 C   0  0  0  0  0  0  0  0  0  0  0  0
   61.8790   33.5550   48.6840 C   0  0  0  0  0  0  0  0  0  0  0  0
   58.6440   33.5920   45.3280 C   0  0  0  0  0  0  0  0  0  0  0  0
   58.9150   34.9860   44.8710 C   0  0  0  0  0  0  0  0  0  0  0  0
   57.6570   32.8030   44.7730 C   0  0  0  0  0  0  0  0  0  0  0  0
   57.1405   29.2740   43.3667 H   0  0  0  0  0  0  0  0  0  0  0  0
   55.6961   30.1493   42.7550 H   0  0  0  0  0  0  0  0  0  0  0  0
   57.3015   30.9552   42.7550 H   0  0  0  0  0  0  0  0  0  0  0  0
   57.9640   29.9570   46.5484 H   0  0  0  0  0  0  0  0  0  0  0  0
   59.7530   31.2749   47.6099 H   0  0  0  0  0  0  0  0  0  0  0  0
   64.4274   33.1750   45.8570 H   0  0  0  0  0  0  0  0  0  0  0  0
   65.1540   33.0690   48.1530 H   0  0  0  0  0  0  0  0  0  0  0  0
   64.7681   33.1267   50.4229 H   0  0  0  0  0  0  0  0  0  0  0  0
   63.1539   33.3663   52.2484 H   0  0  0  0  0  0  0  0  0  0  0  0
   58.7234   33.7886   52.9889 H   0  0  0  0  0  0  0  0  0  0  0  0
   58.8855   34.6836   51.4399 H   0  0  0  0  0  0  0  0  0  0  0  0
   58.8481   32.8877   51.4399 H   0  0  0  0  0  0  0  0  0  0  0  0
   59.9256   33.8427   49.5065 H   0  0  0  0  0  0  0  0  0  0  0  0
   59.0422   35.6405   45.7459 H   0  0  0  0  0  0  0  0  0  0  0  0
   59.8329   35.0013   44.2651 H   0  0  0  0  0  0  0  0  0  0  0  0
   58.0697   35.3441   44.2651 H   0  0  0  0  0  0  0  0  0  0  0  0
   57.0471   33.2230   43.9596 H   0  0  0  0  0  0  0  0  0  0  0  0
  1  2  1  0
  2  3  1  0
  3  4  2  0
  4  5  1  0
  5  6  2  0
  6  7  1  0
  7  8  2  0
  8  9  1  0
  9 10  2  0
 10 11  1  0
 11 12  1  0
 12 13  2  0
 13 14  1  0
 14 15  2  0
 15 16  1  0
 16 17  1  0
 15 18  1  0
 18 19  2  0
  6 20  1  0
 20 21  1  0
 20 22  2  0
 22  3  1  0
 19  8  1  0
 19 12  1  0
  1 23  1  0
  1 24  1  0
  1 25  1  0
  4 26  1  0
  5 27  1  0
 10 28  1  0
 11 29  1  0
 13 30  1  0
 14 31  1  0
 17 32  1  0
 17 33  1  0
 17 34  1  0
 18 35  1  0
 21 36  1  0
 21 37  1  0
 21 38  1  0
 22 39  1  0
M  END
>  <smiles>  (36) 
COc1ccc(N=c2nc[nH]c3ccc(OC)cc23)c(C)c1

>  <score_type>  (36) 
oracle

>  <origin>  (36) 
adg

>  <m_score__min__energy>  (36) 
-7.0999999999999996

>  <m_primary>  (36) 
energy

$$$$
36:0
     RDKit          3D

 26 27  0  0  0  0  0  0  0  0999 V2000
   60.5540   33.8420   49.4280 C   0  0  0  0  0  0  0  0  0  0  0  0
   59.2660   33.1670   48.9650 C   0  0  0  0  0  0  0  0  0  0  0  0
   59.0490   33.4810   47.5270 C   0  0  0  0  0  0  0  0  0  0  0  0
   59.4860   34.7100   47.0440 C   0  0  0  0  0  0  0  0  0  0  0  0
   59.2570   34.9470   45.7010 C   0  0  0  0  0  0  0  0  0  0  0  0
   59.6550   36.0690   45.2560 O   0  0  0  0  0  0  0  0  0  0  0  0
   58.6520   34.0610   44.8910 N   0  0  0  0  0  0  0  0  0  0  0  0
   58.2410   32.8810   45.3910 C   0  0  0  0  0  0  0  0  0  0  0  0
   57.5860   31.9210   44.5120 C   0  0  0  0  0  0  0  0  0  0  0  0
   57.6210   32.0850   43.1420 C   0  0  0  0  0  0  0  0  0  0  0  0
   57.0180   31.2090   42.2610 C   0  0  0  0  0  0  0  0  0  0  0  0
   56.3570   30.1290   42.8090 C   0  0  0  0  0  0  0  0  0  0  0  0
   56.3190   29.9600   44.1960 C   0  0  0  0  0  0  0  0  0  0  0  0
   56.9340   30.8590   45.0150 N   0  0  0  0  0  0  0  0  0  0  0  0
   58.4450   32.6220   46.6750 N   0  0  0  0  0  0  0  0  0  0  0  0
   60.5848   33.8581   50.5275 H   0  0  0  0  0  0  0  0  0  0  0  0
   61.4197   33.2817   49.0451 H   0  0  0  0  0  0  0  0  0  0  0  0
   60.5859   34.8727   49.0451 H   0  0  0  0  0  0  0  0  0  0  0  0
   59.3514   32.0783   49.0967 H   0  0  0  0  0  0  0  0  0  0  0  0
   58.4170   33.5351   49.5597 H   0  0  0  0  0  0  0  0  0  0  0  0
   59.9832   35.4480   47.6906 H   0  0  0  0  0  0  0  0  0  0  0  0
   58.1548   32.9552   42.7323 H   0  0  0  0  0  0  0  0  0  0  0  0
   57.0626   31.3650   41.1730 H   0  0  0  0  0  0  0  0  0  0  0  0
   55.8590   29.3997   42.1532 H   0  0  0  0  0  0  0  0  0  0  0  0
   55.7904   29.0976   44.6283 H   0  0  0  0  0  0  0  0  0  0  0  0
   58.1290   31.7030   47.0770 H   0  0  0  0  0  0  0  0  0  0  0  0
  1  2  1  0
  2  3  1  0
  3  4  2  0
  4  5  1  0
  5  6  2  0
  5  7  1  0
  7  8  2  0
  8  9  1  0
  9 10  2  0
 10 11  1  0
 11 12  2  0
 12 13  1  0
 13 14  2  0
  8 15  1  0
 15  3  1  0
 14  9  1  0
  1 16  1  0
  1 17  1  0
  1 18  1  0
  2 19  1  0
  2 20  1  0
  4 21  1  0
 10 22  1  0
 11 23  1  0
 12 24  1  0
 13 25  1  0
 15 26  1  0
M  END
>  <smiles>  (37) 
CCc1cc(=O)nc(-c2ccccn2)[nH]1

>  <score_type>  (37) 
oracle

>  <origin>  (37) 
adg

>  <m_score__min__energy>  (37) 
-6.4400000000000004

>  <m_primary>  (37) 
energy

$$$$
37:0
     RDKit          3D

 31 33  0  0  0  0  0  0  0  0999 V2000
   59.7426   30.5129   44.4529 H   0  0  0  0  0  0  0  0  0  0  0  0
   58.7630   30.7510   44.8930 C   0  0  0  0  0  0  0  0  0  0  0  0
   57.9360   29.7300   45.1610 C   0  0  0  0  0  0  0  0  0  0  0  0
   58.5380   28.2420   45.9660 S   0  0  0  0  0  0  0  0  0  0  0  0
   56.8900   27.5570   45.7740 C   0  0  0  0  0  0  0  0  0  0  0  0
   56.6180   26.3710   46.0910 O   0  0  0  0  0  0  0  0  0  0  0  0
   55.8990   28.4250   45.2390 N   0  0  0  0  0  0  0  0  0  0  0  0
   56.4910   29.6690   44.9070 C   0  0  0  0  0  0  0  0  0  0  0  0
   55.7980   30.6360   44.4940 O   0  0  0  0  0  0  0  0  0  0  0  0
   58.4530   32.1690   45.1460 C   0  0  0  0  0  0  0  0  0  0  0  0
   57.8070   33.0200   44.2670 C   0  0  0  0  0  0  0  0  0  0  0  0
   57.3969   32.7602   43.2799 H   0  0  0  0  0  0  0  0  0  0  0  0
   57.7790   34.2600   44.8740 C   0  0  0  0  0  0  0  0  0  0  0  0
   57.3317   35.1795   44.4686 H   0  0  0  0  0  0  0  0  0  0  0  0
   58.4210   34.1220   46.0880 C   0  0  0  0  0  0  0  0  0  0  0  0
   58.5632   34.9290   46.8218 H   0  0  0  0  0  0  0  0  0  0  0  0
   58.8480   32.8530   46.2420 N   0  0  0  0  0  0  0  0  0  0  0  0
   59.4870   32.3100   47.4410 C   0  0  0  0  0  0  0  0  0  0  0  0
   59.0975   32.8297   48.3288 H   0  0  0  0  0  0  0  0  0  0  0  0
   59.2669   31.2346   47.5126 H   0  0  0  0  0  0  0  0  0  0  0  0
   60.9770   32.5060   47.3620 C   0  0  0  0  0  0  0  0  0  0  0  0
   61.8420   31.4370   47.6500 C   0  0  0  0  0  0  0  0  0  0  0  0
   61.4305   30.4737   47.9858 H   0  0  0  0  0  0  0  0  0  0  0  0
   63.2250   31.5940   47.5110 C   0  0  0  0  0  0  0  0  0  0  0  0
   63.8988   30.7580   47.7500 H   0  0  0  0  0  0  0  0  0  0  0  0
   63.7530   32.8110   47.0690 C   0  0  0  0  0  0  0  0  0  0  0  0
   64.8405   32.9295   46.9535 H   0  0  0  0  0  0  0  0  0  0  0  0
   62.8980   33.8770   46.7740 C   0  0  0  0  0  0  0  0  0  0  0  0
   63.3137   34.8352   46.4289 H   0  0  0  0  0  0  0  0  0  0  0  0
   61.5150   33.7270   46.9170 C   0  0  0  0  0  0  0  0  0  0  0  0
   60.8454   34.5671   46.6806 H   0  0  0  0  0  0  0  0  0  0  0  0
  1  2  1  0
  2  3  2  0
  3  4  1  0
  4  5  1  0
  5  6  2  0
  5  7  1  0
  7  8  1  0
  8  9  2  0
  2 10  1  0
 10 11  2  0
 11 12  1  0
 11 13  1  0
 13 14  1  0
 13 15  2  0
 15 16  1  0
 15 17  1  0
 17 18  1  0
 18 19  1  0
 18 20  1  0
 18 21  1  0
 21 22  2  0
 22 23  1  0
 22 24  1  0
 24 25  1  0
 24 26  2  0
 26 27  1  0
 26 28  1  0
 28 29  1  0
 28 30  2  0
 30 31  1  0
  8  3  1  0
 17 10  1  0
 30 21  1  0
M  CHG  1   7  -1
M  END
>  <UniqueID>  (38) 
32

>  <SMILES>  (38) 
O=C1[N-]C(=O)/C(=C\c2cccn2Cc2ccccc2)S1

>  <Energy>  (38) 
82.30860465505914

>  <Genealogy>  (38) 
O=C1[N-]C(=O)C(=Cc2cccn2Cc2ccccc2)S1 (protonated)
O=C1[N-]C(=O)/C(=C\c2cccn2Cc2ccccc2)S1 (cis-trans isomerization)
O=C1[N-]C(=O)/C(=C\c2cccn2Cc2ccccc2)S1 (3D coordinates assigned)
O=C1[N-]C(=O)/C(=C\c2cccn2Cc2ccccc2)S1 (nonaromatic ring conformer: 82.30860465505914 kcal/mol)

>  <smiles>  (38) 
O=C1NC(=O)C(=Cc2cccn2Cc2ccccc2)S1

>  <score_type>  (38) 
oracle

>  <origin>  (38) 
adg

>  <m_score__min__energy>  (38) 
-10

>  <m_primary>  (38) 
energy

$$$$
38:0
     RDKit          3D

 51 54  0  0  1  0  0  0  0  0999 V2000
   57.4180   33.1890   46.6160 C   0  0  0  0  0  0  0  0  0  0  0  0
   57.8160   32.0170   45.9040 O   0  0  0  0  0  0  0  0  0  0  0  0
   57.6820   31.9300   44.5250 C   0  0  0  0  0  0  0  0  0  0  0  0
   58.3680   32.7850   43.6960 C   0  0  0  0  0  0  0  0  0  0  0  0
   58.2090   32.6680   42.3390 C   0  0  0  0  0  0  0  0  0  0  0  0
   57.3690   31.7000   41.8260 C   0  0  0  0  0  0  0  0  0  0  0  0
   60.6150   29.1940   48.6930 C   0  0  0  0  0  0  0  0  0  0  0  0
   60.4270   29.1040   47.3300 C   0  0  0  0  0  0  0  0  0  0  0  0
   59.7870   27.9370   46.8250 N   0  0  0  0  0  0  0  0  0  0  0  0
   58.5920   27.9520   46.3260 C   0  0  0  0  0  0  0  0  0  0  0  0
   56.1030   27.8850   45.3030 N   0  0  0  0  0  0  0  0  0  0  0  0
   56.6460   26.7320   45.7370 C   0  0  0  0  0  0  0  0  0  0  0  0
   57.9240   26.7420   46.2650 C   0  0  0  0  0  0  0  0  0  0  0  0
   56.7510   29.0690   45.3600 C   0  0  0  0  0  0  0  0  0  0  0  0
   56.1500   30.0960   44.9240 N   0  0  0  0  0  0  0  0  0  0  0  0
   56.8300   30.9490   44.0050 C   0  0  0  0  0  0  0  0  0  0  0  0
   60.8590   30.1280   46.5520 C   0  0  0  0  0  0  0  0  0  0  0  0
   61.2360   30.3150   49.2490 C   0  0  0  0  0  0  0  0  0  0  0  0
   61.6820   31.3660   48.4740 C   0  0  0  0  0  0  0  0  0  0  0  0
   62.3120   32.5230   49.0150 N   0  0  0  0  0  0  0  0  0  0  0  0
   63.7660   32.6930   48.9410 C   0  0  0  0  0  0  0  0  0  0  0  0
   64.3380   33.4680   50.0800 C   0  0  0  0  0  0  0  0  0  0  0  0
   63.5070   34.3650   50.6900 O   0  0  0  0  0  0  0  0  0  0  0  0
   62.2550   33.8370   51.0000 C   0  0  0  0  0  0  0  0  0  0  0  0
   61.5830   33.6000   49.6540 C   0  0  0  0  0  0  0  0  0  0  0  0
   61.4820   31.2520   47.1130 C   0  0  0  0  0  0  0  0  0  0  0  0
   56.6640   30.8240   42.6280 C   0  0  0  0  0  0  0  0  0  0  0  0
   57.9990   29.0710   45.8770 N   0  0  0  0  0  0  0  0  0  0  0  0
   57.4821   33.0003   47.6978 H   0  0  0  0  0  0  0  0  0  0  0  0
   58.0831   34.0236   46.3494 H   0  0  0  0  0  0  0  0  0  0  0  0
   56.3822   33.4460   46.3494 H   0  0  0  0  0  0  0  0  0  0  0  0
   59.0353   33.5525   44.1152 H   0  0  0  0  0  0  0  0  0  0  0  0
   58.7498   33.3442   41.6605 H   0  0  0  0  0  0  0  0  0  0  0  0
   57.2566   31.6233   40.7344 H   0  0  0  0  0  0  0  0  0  0  0  0
   60.2738   28.3778   49.3468 H   0  0  0  0  0  0  0  0  0  0  0  0
   55.1350   27.8410   44.9090 H   0  0  0  0  0  0  0  0  0  0  0  0
   56.0789   25.7917   45.6722 H   0  0  0  0  0  0  0  0  0  0  0  0
   58.3953   25.8158   46.6256 H   0  0  0  0  0  0  0  0  0  0  0  0
   60.7181   30.0756   45.4623 H   0  0  0  0  0  0  0  0  0  0  0  0
   61.3739   30.3614   50.3393 H   0  0  0  0  0  0  0  0  0  0  0  0
   64.2320   31.6966   48.9302 H   0  0  0  0  0  0  0  0  0  0  0  0
   63.9765   33.2649   48.0252 H   0  0  0  0  0  0  0  0  0  0  0  0
   64.6671   32.7465   50.8423 H   0  0  0  0  0  0  0  0  0  0  0  0
   65.1453   34.0731   49.6418 H   0  0  0  0  0  0  0  0  0  0  0  0
   62.3601   32.8911   51.5516 H   0  0  0  0  0  0  0  0  0  0  0  0
   61.6691   34.5120   51.6412 H   0  0  0  0  0  0  0  0  0  0  0  0
   60.5311   33.3131   49.7996 H   0  0  0  0  0  0  0  0  0  0  0  0
   61.5958   34.5105   49.0368 H   0  0  0  0  0  0  0  0  0  0  0  0
   61.8199   32.0635   46.4517 H   0  0  0  0  0  0  0  0  0  0  0  0
   55.9998   30.0602   42.1974 H   0  0  0  0  0  0  0  0  0  0  0  0
   58.4980   29.9670   45.9230 H   0  0  0  0  0  0  0  0  0  0  0  0
  1  2  1  0
  2  3  1  0
  3  4  2  0
  4  5  1  0
  5  6  2  0
  6  7  1  0
  7  8  2  0
  8  9  1  0
  9 10  2  0
 10 11  1  0
 11 12  1  0
 12 13  2  0
 13 14  1  0
 14 15  2  0
 15 16  1  0
 16 17  2  0
 17 18  1  0
 18 19  2  0
 19 20  1  0
 20 21  1  0
 21 22  1  0
 22 23  1  0
 23 24  1  0
 24 25  1  0
 19 26  1  0
 26 27  2  0
 14 28  1  0
  8  3  1  0
 28 10  1  0
 27 16  1  0
 25 20  1  0
  1 29  1  0
  1 30  1  0
  1 31  1  0
  4 32  1  0
  5 33  1  0
  6 34  1  0
  7 35  1  0
 11 36  1  0
 12 37  1  0
 13 38  1  0
 17 39  1  0
 18 40  1  0
 21 41  1  0
 21 42  1  0
 22 43  1  0
 22 44  1  0
 24 45  1  0
 24 46  1  0
 25 47  1  0
 25 48  1  0
 26 49  1  0
 27 50  1  0
 28 51  1  0
M  END
>  <smiles>  (39) 
COc1ccccc1N=c1[nH]ccc(=Nc2ccc(N3CCOCC3)cc2)[nH]1

>  <score_type>  (39) 
oracle

>  <origin>  (39) 
adg

>  <m_score__min__energy>  (39) 
-9.0399999999999991

>  <m_primary>  (39) 
energy

$$$$
39:0
     RDKit          3D

 40 43  0  0  0  0  0  0  0  0999 V2000
   65.2060   33.1220   49.8300 C   0  0  0  0  0  0  0  0  0  0  0  0
   63.9280   33.2370   49.0380 C   0  0  0  0  0  0  0  0  0  0  0  0
   63.9750   33.1080   47.6830 N   0  0  0  0  0  0  0  0  0  0  0  0
   62.8810   33.2150   46.9310 N   0  0  0  0  0  0  0  0  0  0  0  0
   61.6510   33.4490   47.4590 C   0  0  0  0  0  0  0  0  0  0  0  0
   60.5400   33.6100   46.5630 N   0  0  0  0  0  0  0  0  0  0  0  0
   59.8450   32.6060   45.9960 C   0  0  0  0  0  0  0  0  0  0  0  0
   58.9300   33.1540   45.1150 C   0  0  0  0  0  0  0  0  0  0  0  0
   57.9450   32.4450   44.2620 C   0  0  0  0  0  0  0  0  0  0  0  0
   58.1310   32.3360   42.9370 C   0  0  0  0  0  0  0  0  0  0  0  0
   57.0990   31.6470   42.0930 C   0  0  0  0  0  0  0  0  0  0  0  0
   56.6690   30.3410   42.7680 C   0  0  0  0  0  0  0  0  0  0  0  0
   56.2660   30.5350   44.2510 C   0  0  0  0  0  0  0  0  0  0  0  0
   56.6640   31.9010   44.8560 C   0  0  0  0  0  0  0  0  0  0  0  0
   59.1500   34.5210   45.1870 C   0  0  0  0  0  0  0  0  0  0  0  0
   60.1420   34.7700   46.0620 N   0  0  0  0  0  0  0  0  0  0  0  0
   61.5170   33.5460   48.8610 C   0  0  0  0  0  0  0  0  0  0  0  0
   60.2650   33.6900   49.4910 C   0  0  0  0  0  0  0  0  0  0  0  0
   60.1950   33.7910   50.8790 C   0  0  0  0  0  0  0  0  0  0  0  0
   61.3250   33.7330   51.6260 N   0  0  0  0  0  0  0  0  0  0  0  0
   62.5490   33.5670   51.0620 C   0  0  0  0  0  0  0  0  0  0  0  0
   62.6800   33.4540   49.6630 C   0  0  0  0  0  0  0  0  0  0  0  0
   64.9742   33.1429   50.9051 H   0  0  0  0  0  0  0  0  0  0  0  0
   65.7075   32.1751   49.5813 H   0  0  0  0  0  0  0  0  0  0  0  0
   65.8685   33.9642   49.5813 H   0  0  0  0  0  0  0  0  0  0  0  0
   64.8850   32.9310   47.2030 H   0  0  0  0  0  0  0  0  0  0  0  0
   59.9814   31.5335   46.1986 H   0  0  0  0  0  0  0  0  0  0  0  0
   59.0372   32.7505   42.4713 H   0  0  0  0  0  0  0  0  0  0  0  0
   56.2242   32.3036   41.9762 H   0  0  0  0  0  0  0  0  0  0  0  0
   57.5268   31.4229   41.1047 H   0  0  0  0  0  0  0  0  0  0  0  0
   55.8079   29.9298   42.2209 H   0  0  0  0  0  0  0  0  0  0  0  0
   57.5310   29.6580   42.7461 H   0  0  0  0  0  0  0  0  0  0  0  0
   55.1733   30.4329   44.3251 H   0  0  0  0  0  0  0  0  0  0  0  0
   56.8123   29.7710   44.8236 H   0  0  0  0  0  0  0  0  0  0  0  0
   55.8537   32.6205   44.6668 H   0  0  0  0  0  0  0  0  0  0  0  0
   56.8303   31.7544   45.9334 H   0  0  0  0  0  0  0  0  0  0  0  0
   58.5992   35.2839   44.6173 H   0  0  0  0  0  0  0  0  0  0  0  0
   59.3451   33.7226   48.8887 H   0  0  0  0  0  0  0  0  0  0  0  0
   59.2192   33.9183   51.3706 H   0  0  0  0  0  0  0  0  0  0  0  0
   63.4435   33.5204   51.7005 H   0  0  0  0  0  0  0  0  0  0  0  0
  1  2  1  0
  2  3  2  0
  3  4  1  0
  4  5  2  0
  5  6  1  0
  6  7  1  0
  7  8  2  0
  8  9  1  0
  9 10  2  0
 10 11  1  0
 11 12  1  0
 12 13  1  0
 13 14  1  0
  8 15  1  0
 15 16  2  0
  5 17  1  0
 17 18  2  0
 18 19  1  0
 19 20  2  0
 20 21  1  0
 21 22  2  0
 22  2  1  0
 16  6  1  0
 22 17  1  0
 14  9  1  0
  1 23  1  0
  1 24  1  0
  1 25  1  0
  3 26  1  0
  7 27  1  0
 10 28  1  0
 11 29  1  0
 11 30  1  0
 12 31  1  0
 12 32  1  0
 13 33  1  0
 13 34  1  0
 14 35  1  0
 14 36  1  0
 15 37  1  0
 18 38  1  0
 19 39  1  0
 21 40  1  0
M  CHG  1   3   1
M  END
>  <UniqueID>  (40) 
33

>  <SMILES>  (40) 
Cc1[nH+]nc(-n2cc(C3=CCCCC3)cn2)c2ccncc12

>  <Energy>  (40) 
89.4396522562269

>  <Genealogy>  (40) 
Cc1[nH+]nc(-n2cc(C3=CCCCC3)cn2)c2ccncc12 (protonated)
Cc1[nH+]nc(-n2cc(C3=CCCCC3)cn2)c2ccncc12 (3D coordinates assigned)
Cc1[nH+]nc(-n2cc(C3=CCCCC3)cn2)c2ccncc12 (nonaromatic ring conformer: 89.4396522562269 kcal/mol)

>  <smiles>  (40) 
Cc1nnc(-n2cc(C3=CCCCC3)cn2)c2ccncc12

>  <score_type>  (40) 
oracle

>  <origin>  (40) 
adg

>  <m_score__min__energy>  (40) 
-7.1500000000000004

>  <m_primary>  (40) 
energy

$$$$
40:0
     RDKit          3D

 58 60  0  0  0  0  0  0  0  0999 V2000
   57.8990   26.5440   46.1280 C   0  0  0  0  0  0  0  0  0  0  0  0
   56.4520   26.9010   45.9740 C   0  0  0  0  0  0  0  0  0  0  0  0
   55.5820   26.1760   46.5220 O   0  0  0  0  0  0  0  0  0  0  0  0
   56.0310   28.0640   45.2480 N   0  0  0  0  0  0  0  0  0  0  0  0
   56.6650   29.3500   45.2670 C   0  0  0  0  0  0  0  0  0  0  0  0
   56.2470   30.3270   44.3560 C   0  0  0  0  0  0  0  0  0  0  0  0
   56.8590   31.5830   44.3360 C   0  0  0  0  0  0  0  0  0  0  0  0
   57.8960   31.8820   45.2310 C   0  0  0  0  0  0  0  0  0  0  0  0
   58.6660   33.4760   45.2070 S   0  0  0  0  0  0  0  0  0  0  0  0
   59.2340   33.7420   43.8410 O   0  0  0  0  0  0  0  0  0  0  0  0
   57.6030   34.5070   45.4690 O   0  0  0  0  0  0  0  0  0  0  0  0
   59.9410   33.6590   46.4030 N   0  0  2  0  0  0  0  0  0  0  0  0
   60.6280   32.3850   46.7470 C   0  0  0  0  0  0  0  0  0  0  0  0
   61.9170   32.5230   47.5360 C   0  0  0  0  0  0  0  0  0  0  0  0
   62.9250   33.4160   47.1320 C   0  0  0  0  0  0  0  0  0  0  0  0
   64.1270   33.4980   47.8440 C   0  0  0  0  0  0  0  0  0  0  0  0
   64.3470   32.6670   48.9440 C   0  0  0  0  0  0  0  0  0  0  0  0
   63.3700   31.7490   49.3320 C   0  0  0  0  0  0  0  0  0  0  0  0
   62.1630   31.6730   48.6300 C   0  0  0  0  0  0  0  0  0  0  0  0
   59.4630   34.4310   47.5730 C   0  0  0  0  0  0  0  0  0  0  0  0
   59.2940   33.5660   48.8040 C   0  0  0  0  0  0  0  0  0  0  0  0
   60.0300   33.8400   49.9640 C   0  0  0  0  0  0  0  0  0  0  0  0
   59.8860   33.0440   51.1030 C   0  0  0  0  0  0  0  0  0  0  0  0
   58.9940   31.9480   51.1150 C   0  0  0  0  0  0  0  0  0  0  0  0
   58.8450   31.1140   52.2990 N   0  0  0  0  0  0  0  0  0  0  0  0
   57.5110   30.7250   52.7800 C   0  0  0  0  0  0  0  0  0  0  0  0
   60.0260   30.6390   53.0350 C   0  0  0  0  0  0  0  0  0  0  0  0
   58.2490   31.6900   49.9440 C   0  0  0  0  0  0  0  0  0  0  0  0
   58.3940   32.4920   48.8090 C   0  0  0  0  0  0  0  0  0  0  0  0
   58.3670   30.8760   46.0880 C   0  0  0  0  0  0  0  0  0  0  0  0
   57.7510   29.6220   46.1130 C   0  0  0  0  0  0  0  0  0  0  0  0
   58.1496   26.4822   47.1973 H   0  0  0  0  0  0  0  0  0  0  0  0
   58.0897   25.5719   45.6499 H   0  0  0  0  0  0  0  0  0  0  0  0
   58.5200   27.3159   45.6499 H   0  0  0  0  0  0  0  0  0  0  0  0
   55.4319   30.1047   43.6516 H   0  0  0  0  0  0  0  0  0  0  0  0
   56.5250   32.3421   43.6134 H   0  0  0  0  0  0  0  0  0  0  0  0
   60.6570   34.2510   45.9220 H   0  0  0  0  0  0  0  0  0  0  0  0
   59.9316   31.7757   47.3418 H   0  0  0  0  0  0  0  0  0  0  0  0
   60.9122   31.9296   45.7869 H   0  0  0  0  0  0  0  0  0  0  0  0
   62.7678   34.0546   46.2502 H   0  0  0  0  0  0  0  0  0  0  0  0
   64.8995   34.2182   47.5365 H   0  0  0  0  0  0  0  0  0  0  0  0
   65.2906   32.7358   49.5051 H   0  0  0  0  0  0  0  0  0  0  0  0
   63.5495   31.0850   50.1904 H   0  0  0  0  0  0  0  0  0  0  0  0
   61.3994   30.9426   48.9356 H   0  0  0  0  0  0  0  0  0  0  0  0
   60.1925   35.2236   47.7954 H   0  0  0  0  0  0  0  0  0  0  0  0
   58.4781   34.8501   47.3192 H   0  0  0  0  0  0  0  0  0  0  0  0
   60.7280   34.6901   49.9782 H   0  0  0  0  0  0  0  0  0  0  0  0
   60.4752   33.2736   52.0031 H   0  0  0  0  0  0  0  0  0  0  0  0
   57.5040   30.7230   53.8800 H   0  0  0  0  0  0  0  0  0  0  0  0
   56.7641   31.4427   52.4099 H   0  0  0  0  0  0  0  0  0  0  0  0
   57.2670   29.7183   52.4099 H   0  0  0  0  0  0  0  0  0  0  0  0
   59.8389   30.7143   54.1164 H   0  0  0  0  0  0  0  0  0  0  0  0
   60.2262   29.5904   52.7696 H   0  0  0  0  0  0  0  0  0  0  0  0
   60.8965   31.2570   52.7696 H   0  0  0  0  0  0  0  0  0  0  0  0
   57.5443   30.8456   49.9248 H   0  0  0  0  0  0  0  0  0  0  0  0
   57.7960   32.2782   47.9109 H   0  0  0  0  0  0  0  0  0  0  0  0
   59.2267   31.0757   46.7445 H   0  0  0  0  0  0  0  0  0  0  0  0
   58.1190   28.8447   46.7988 H   0  0  0  0  0  0  0  0  0  0  0  0
  1  2  1  0
  2  3  2  0
  2  4  1  0
  4  5  1  0
  5  6  2  0
  6  7  1  0
  7  8  2  0
  8  9  1  0
  9 10  2  0
  9 11  2  0
  9 12  1  0
 12 13  1  0
 13 14  1  0
 14 15  2  0
 15 16  1  0
 16 17  2  0
 17 18  1  0
 18 19  2  0
 12 20  1  0
 20 21  1  0
 21 22  2  0
 22 23  1  0
 23 24  2  0
 24 25  1  0
 25 26  1  0
 25 27  1  0
 24 28  1  0
 28 29  2  0
  8 30  1  0
 30 31  2  0
 31  5  1  0
 19 14  1  0
 29 21  1  0
  1 32  1  0
  1 33  1  0
  1 34  1  0
  6 35  1  0
  7 36  1  0
 12 37  1  6
 13 38  1  0
 13 39  1  0
 15 40  1  0
 16 41  1  0
 17 42  1  0
 18 43  1  0
 19 44  1  0
 20 45  1  0
 20 46  1  0
 22 47  1  0
 23 48  1  0
 26 49  1  0
 26 50  1  0
 26 51  1  0
 27 52  1  0
 27 53  1  0
 27 54  1  0
 28 55  1  0
 29 56  1  0
 30 57  1  0
 31 58  1  0
M  CHG  2   4  -1  12   1
M  END
>  <UniqueID>  (41) 
34

>  <SMILES>  (41) 
CC(=O)[N-]c1ccc(S(=O)(=O)[N@H+](Cc2ccccc2)Cc2ccc(N(C)C)cc2)cc1

>  <Energy>  (41) 
67.91377655781692

>  <Genealogy>  (41) 
CC(=O)[N-]c1ccc(S(=O)(=O)[NH+](Cc2ccccc2)Cc2ccc(N(C)C)cc2)cc1 (protonated)
CC(=O)[N-]c1ccc(S(=O)(=O)[N@H+](Cc2ccccc2)Cc2ccc(N(C)C)cc2)cc1 (chirality)
CC(=O)[N-]c1ccc(S(=O)(=O)[N@H+](Cc2ccccc2)Cc2ccc(N(C)C)cc2)cc1 (3D coordinates assigned)
CC(=O)[N-]c1ccc(S(=O)(=O)[N@H+](Cc2ccccc2)Cc2ccc(N(C)C)cc2)cc1 (optimized conformer: 67.91377655781692 kcal/mol)

>  <smiles>  (41) 
CC(=O)Nc1ccc(S(=O)(=O)N(Cc2ccccc2)Cc2ccc(N(C)C)cc2)cc1

>  <score_type>  (41) 
oracle

>  <origin>  (41) 
adg

>  <m_score__min__energy>  (41) 
-9.3399999999999999

>  <m_primary>  (41) 
energy

$$$$
41:0
     RDKit          3D

 51 53  0  0  0  0  0  0  0  0999 V2000
   65.1890   32.8350   50.5840 C   0  0  0  0  0  0  0  0  0  0  0  0
   63.6890   33.1170   50.5490 C   0  0  0  0  0  0  0  0  0  0  0  0
   63.2090   33.2870   49.1260 C   0  0  0  0  0  0  0  0  0  0  0  0
   64.1230   33.0950   48.0750 C   0  0  0  0  0  0  0  0  0  0  0  0
   63.7280   33.2790   46.7460 C   0  0  0  0  0  0  0  0  0  0  0  0
   62.4220   33.6700   46.4530 C   0  0  0  0  0  0  0  0  0  0  0  0
   61.5080   33.8780   47.4870 C   0  0  0  0  0  0  0  0  0  0  0  0
   61.8860   33.6880   48.8230 C   0  0  0  0  0  0  0  0  0  0  0  0
   60.6570   33.9720   50.1050 S   0  0  0  0  0  0  0  0  0  0  0  0
   60.2410   32.2060   50.2710 C   0  0  0  0  0  0  0  0  0  0  0  0
   59.2310   31.8340   49.2380 C   0  0  0  0  0  0  0  0  0  0  0  0
   58.9980   30.6170   49.0090 O   0  0  0  0  0  0  0  0  0  0  0  0
   58.4750   32.8640   48.5880 N   0  0  0  0  0  0  0  0  0  0  0  0
   58.2470   33.0040   47.1790 C   0  0  0  0  0  0  0  0  0  0  0  0
   58.5240   34.2390   46.5790 C   0  0  0  0  0  0  0  0  0  0  0  0
   58.3460   34.4140   45.2040 C   0  0  0  0  0  0  0  0  0  0  0  0
   57.9060   33.3520   44.4150 C   0  0  0  0  0  0  0  0  0  0  0  0
   57.6510   32.1010   44.9940 C   0  0  0  0  0  0  0  0  0  0  0  0
   57.1400   30.7460   43.9840 S   0  0  0  0  0  0  0  0  0  0  0  0
   55.8300   30.2150   44.4960 O   0  0  0  0  0  0  0  0  0  0  0  0
   56.9230   31.2380   42.5800 O   0  0  0  0  0  0  0  0  0  0  0  0
   58.3250   29.4550   43.9680 N   0  0  0  0  0  0  0  0  0  0  0  0
   57.7290   28.1650   44.3370 C   0  0  0  0  0  0  0  0  0  0  0  0
   58.0180   27.9140   45.8110 C   0  0  0  0  0  0  0  0  0  0  0  0
   59.0720   28.9310   46.2070 C   0  0  0  0  0  0  0  0  0  0  0  0
   59.4010   29.7030   44.9360 C   0  0  0  0  0  0  0  0  0  0  0  0
   57.8220   31.9290   46.3770 C   0  0  0  0  0  0  0  0  0  0  0  0
   65.5259   32.7717   51.6292 H   0  0  0  0  0  0  0  0  0  0  0  0
   65.3950   31.8824   50.0740 H   0  0  0  0  0  0  0  0  0  0  0  0
   65.7269   33.6478   50.0740 H   0  0  0  0  0  0  0  0  0  0  0  0
   63.1528   32.2758   51.0126 H   0  0  0  0  0  0  0  0  0  0  0  0
   63.4917   34.0474   51.1017 H   0  0  0  0  0  0  0  0  0  0  0  0
   65.1578   32.7975   48.3000 H   0  0  0  0  0  0  0  0  0  0  0  0
   64.4484   33.1151   45.9310 H   0  0  0  0  0  0  0  0  0  0  0  0
   62.1123   33.8144   45.4074 H   0  0  0  0  0  0  0  0  0  0  0  0
   60.4811   34.1941   47.2510 H   0  0  0  0  0  0  0  0  0  0  0  0
   61.1488   31.6007   50.1310 H   0  0  0  0  0  0  0  0  0  0  0  0
   59.8268   32.0194   51.2728 H   0  0  0  0  0  0  0  0  0  0  0  0
   58.8841   35.0767   47.1942 H   0  0  0  0  0  0  0  0  0  0  0  0
   58.5534   35.3912   44.7434 H   0  0  0  0  0  0  0  0  0  0  0  0
   57.7584   33.4962   43.3345 H   0  0  0  0  0  0  0  0  0  0  0  0
   58.7240   29.4020   43.0000 H   0  0  0  0  0  0  0  0  0  0  0  0
   56.6422   28.1952   44.1701 H   0  0  0  0  0  0  0  0  0  0  0  0
   58.1558   27.3586   43.7225 H   0  0  0  0  0  0  0  0  0  0  0  0
   57.1058   28.0555   46.4093 H   0  0  0  0  0  0  0  0  0  0  0  0
   58.3644   26.8846   45.9851 H   0  0  0  0  0  0  0  0  0  0  0  0
   58.6784   29.6107   46.9771 H   0  0  0  0  0  0  0  0  0  0  0  0
   59.9646   28.4460   46.6289 H   0  0  0  0  0  0  0  0  0  0  0  0
   59.4643   30.7786   45.1575 H   0  0  0  0  0  0  0  0  0  0  0  0
   60.3682   29.3752   44.5272 H   0  0  0  0  0  0  0  0  0  0  0  0
   57.6227   30.9492   46.8356 H   0  0  0  0  0  0  0  0  0  0  0  0
  1  2  1  0
  2  3  1  0
  3  4  2  0
  4  5  1  0
  5  6  2  0
  6  7  1  0
  7  8  2  0
  8  9  1  0
  9 10  1  0
 10 11  1  0
 11 12  2  0
 11 13  1  0
 13 14  1  0
 14 15  2  0
 15 16  1  0
 16 17  2  0
 17 18  1  0
 18 19  1  0
 19 20  2  0
 19 21  2  0
 19 22  1  0
 22 23  1  0
 23 24  1  0
 24 25  1  0
 25 26  1  0
 18 27  2  0
  8  3  1  0
 27 14  1  0
 26 22  1  0
  1 28  1  0
  1 29  1  0
  1 30  1  0
  2 31  1  0
  2 32  1  0
  4 33  1  0
  5 34  1  0
  6 35  1  0
  7 36  1  0
 10 37  1  0
 10 38  1  0
 15 39  1  0
 16 40  1  0
 17 41  1  0
 22 42  1  0
 23 43  1  0
 23 44  1  0
 24 45  1  0
 24 46  1  0
 25 47  1  0
 25 48  1  0
 26 49  1  0
 26 50  1  0
 27 51  1  0
M  CHG  2  13  -1  22   1
M  END
>  <UniqueID>  (42) 
35

>  <SMILES>  (42) 
CCc1ccccc1SCC(=O)[N-]c1cccc(S(=O)(=O)[NH+]2CCCC2)c1

>  <Energy>  (42) 
48.02996657529495

>  <Genealogy>  (42) 
CCc1ccccc1SCC(=O)[N-]c1cccc(S(=O)(=O)[NH+]2CCCC2)c1 (protonated)
CCc1ccccc1SCC(=O)[N-]c1cccc(S(=O)(=O)[NH+]2CCCC2)c1 (3D coordinates assigned)
CCc1ccccc1SCC(=O)[N-]c1cccc(S(=O)(=O)[NH+]2CCCC2)c1 (nonaromatic ring conformer: 48.02996657529495 kcal/mol)

>  <smiles>  (42) 
CCc1ccccc1SCC(=O)Nc1cccc(S(=O)(=O)N2CCCC2)c1

>  <score_type>  (42) 
oracle

>  <origin>  (42) 
adg

>  <m_score__min__energy>  (42) 
-9.3100000000000005

>  <m_primary>  (42) 
energy

$$$$
42:0
     RDKit          3D

 30 31  0  0  0  0  0  0  0  0999 V2000
   58.8920   28.3850   47.3940 C   0  0  0  0  0  0  0  0  0  0  0  0
   58.6380   27.5030   46.1660 C   0  0  0  0  0  0  0  0  0  0  0  0
   59.3580   27.9830   44.9580 N   0  0  1  0  0  0  0  0  0  0  0  0
   58.7530   27.5090   43.6930 C   0  0  0  0  0  0  0  0  0  0  0  0
   57.4170   28.0650   43.5140 N   0  0  0  0  0  0  0  0  0  0  0  0
   57.1360   29.3920   43.9610 C   0  0  0  0  0  0  0  0  0  0  0  0
   55.5930   29.9480   43.8630 S   0  0  0  0  0  0  0  0  0  0  0  0
   58.1430   30.1000   44.7130 N   0  0  0  0  0  0  0  0  0  0  0  0
   57.9960   31.4840   45.0710 C   0  0  0  0  0  0  0  0  0  0  0  0
   58.1350   32.4960   44.1070 C   0  0  0  0  0  0  0  0  0  0  0  0
   58.0130   33.8320   44.4930 C   0  0  0  0  0  0  0  0  0  0  0  0
   57.7660   34.1510   45.8290 C   0  0  0  0  0  0  0  0  0  0  0  0
   57.6510   33.1210   46.7650 C   0  0  0  0  0  0  0  0  0  0  0  0
   57.7710   31.8240   46.3710 N   0  0  0  0  0  0  0  0  0  0  0  0
   59.4510   29.4620   44.9450 C   0  0  0  0  0  0  0  0  0  0  0  0
   58.7229   27.7977   48.3086 H   0  0  0  0  0  0  0  0  0  0  0  0
   59.9308   28.7465   47.3773 H   0  0  0  0  0  0  0  0  0  0  0  0
   58.2046   29.2436   47.3773 H   0  0  0  0  0  0  0  0  0  0  0  0
   58.9726   26.4798   46.3920 H   0  0  0  0  0  0  0  0  0  0  0  0
   57.5605   27.5390   45.9475 H   0  0  0  0  0  0  0  0  0  0  0  0
   60.3400   27.6190   44.9960 H   0  0  0  0  0  0  0  0  0  0  0  0
   59.3885   27.8208   42.8510 H   0  0  0  0  0  0  0  0  0  0  0  0
   58.6749   26.4124   43.7304 H   0  0  0  0  0  0  0  0  0  0  0  0
   56.6600   27.4680   43.1110 H   0  0  0  0  0  0  0  0  0  0  0  0
   58.3382   32.2381   43.0571 H   0  0  0  0  0  0  0  0  0  0  0  0
   58.1115   34.6324   43.7449 H   0  0  0  0  0  0  0  0  0  0  0  0
   57.6632   35.2008   46.1409 H   0  0  0  0  0  0  0  0  0  0  0  0
   57.4631   33.3585   47.8225 H   0  0  0  0  0  0  0  0  0  0  0  0
   60.1407   29.7665   44.1440 H   0  0  0  0  0  0  0  0  0  0  0  0
   59.8147   29.7862   45.9312 H   0  0  0  0  0  0  0  0  0  0  0  0
  1  2  1  0
  2  3  1  0
  3  4  1  0
  4  5  1  0
  5  6  1  0
  6  7  2  0
  6  8  1  0
  8  9  1  0
  9 10  2  0
 10 11  1  0
 11 12  2  0
 12 13  1  0
 13 14  2  0
  8 15  1  0
 15  3  1  0
 14  9  1  0
  1 16  1  0
  1 17  1  0
  1 18  1  0
  2 19  1  0
  2 20  1  0
  3 21  1  1
  4 22  1  0
  4 23  1  0
  5 24  1  0
 10 25  1  0
 11 26  1  0
 12 27  1  0
 13 28  1  0
 15 29  1  0
 15 30  1  0
M  CHG  1   3   1
M  END
>  <UniqueID>  (43) 
36

>  <SMILES>  (43) 
CC[N@H+]1CNC(=S)N(c2ccccn2)C1

>  <Energy>  (43) 
39.10910892925886

>  <Genealogy>  (43) 
CC[NH+]1CNC(=S)N(c2ccccn2)C1 (protonated)
CC[N@H+]1CNC(=S)N(c2ccccn2)C1 (chirality)
CC[N@H+]1CNC(=S)N(c2ccccn2)C1 (3D coordinates assigned)
CC[N@H+]1CNC(=S)N(c2ccccn2)C1 (nonaromatic ring conformer: 39.10910892925886 kcal/mol)

>  <smiles>  (43) 
CCN1CNC(=S)N(c2ccccn2)C1

>  <score_type>  (43) 
oracle

>  <origin>  (43) 
adg

>  <m_score__min__energy>  (43) 
-4.4100000000000001

>  <m_primary>  (43) 
energy

$$$$
43:0
     RDKit          3D

 37 39  0  0  0  0  0  0  0  0999 V2000
   57.7980   32.3400   42.6680 C   0  0  0  0  0  0  0  0  0  0  0  0
   58.0750   31.7680   44.0180 C   0  0  0  0  0  0  0  0  0  0  0  0
   58.2400   30.4780   44.2430 O   0  0  0  0  0  0  0  0  0  0  0  0
   58.4600   30.3280   45.5290 C   0  0  0  0  0  0  0  0  0  0  0  0
   58.4450   31.5270   46.1720 C   0  0  0  0  0  0  0  0  0  0  0  0
   58.2060   32.4890   45.2070 C   0  0  0  0  0  0  0  0  0  0  0  0
   58.0140   33.9660   45.4040 C   0  0  0  0  0  0  0  0  0  0  0  0
   59.1620   34.5330   46.1910 C   0  0  0  0  0  0  0  0  0  0  0  0
   58.9240   35.3390   47.1290 O   0  0  0  0  0  0  0  0  0  0  0  0
   60.5070   34.0810   45.9890 N   0  0  0  0  0  0  0  0  0  0  0  0
   61.3830   33.8560   46.9230 C   0  0  0  0  0  0  0  0  0  0  0  0
   61.0880   33.9720   48.2350 N   0  0  0  0  0  0  0  0  0  0  0  0
   62.1650   33.7350   49.0300 C   0  0  0  0  0  0  0  0  0  0  0  0
   63.3400   33.4350   48.3490 C   0  0  0  0  0  0  0  0  0  0  0  0
   63.0100   33.4730   46.6960 S   0  0  0  0  0  0  0  0  0  0  0  0
   58.6590   31.5850   47.5430 C   0  0  0  0  0  0  0  0  0  0  0  0
   58.6710   32.6970   48.1420 O   0  0  0  0  0  0  0  0  0  0  0  0
   58.8730   30.4070   48.2230 N   0  0  0  0  0  0  0  0  0  0  0  0
   59.1530   30.4380   49.6690 C   0  0  0  0  0  0  0  0  0  0  0  0
   58.9110   29.2040   47.5400 C   0  0  0  0  0  0  0  0  0  0  0  0
   59.1610   28.1340   48.1650 O   0  0  0  0  0  0  0  0  0  0  0  0
   58.6840   29.1570   46.1830 N   0  0  0  0  0  0  0  0  0  0  0  0
   58.7270   27.8810   45.4570 C   0  0  0  0  0  0  0  0  0  0  0  0
   57.3210   33.3251   42.7780 H   0  0  0  0  0  0  0  0  0  0  0  0
   58.7428   32.4498   42.1154 H   0  0  0  0  0  0  0  0  0  0  0  0
   57.1261   31.6669   42.1154 H   0  0  0  0  0  0  0  0  0  0  0  0
   57.9651   34.4611   44.4229 H   0  0  0  0  0  0  0  0  0  0  0  0
   57.0780   34.1381   45.9557 H   0  0  0  0  0  0  0  0  0  0  0  0
   60.1420   34.2170   48.6040 H   0  0  0  0  0  0  0  0  0  0  0  0
   62.1113   33.7773   50.1279 H   0  0  0  0  0  0  0  0  0  0  0  0
   64.3142   33.2119   48.8085 H   0  0  0  0  0  0  0  0  0  0  0  0
   58.2109   30.3337   50.2272 H   0  0  0  0  0  0  0  0  0  0  0  0
   59.8274   29.6090   49.9297 H   0  0  0  0  0  0  0  0  0  0  0  0
   59.6297   31.3944   49.9297 H   0  0  0  0  0  0  0  0  0  0  0  0
   58.7550   27.0501   46.1773 H   0  0  0  0  0  0  0  0  0  0  0  0
   57.8315   27.7884   44.8250 H   0  0  0  0  0  0  0  0  0  0  0  0
   59.6267   27.8489   44.8250 H   0  0  0  0  0  0  0  0  0  0  0  0
  1  2  1  0
  2  3  1  0
  3  4  1  0
  4  5  2  0
  5  6  1  0
  6  7  1  0
  7  8  1  0
  8  9  2  0
  8 10  1  0
 10 11  2  3
 11 12  1  0
 12 13  1  0
 13 14  2  0
 14 15  1  0
  5 16  1  0
 16 17  2  0
 16 18  1  0
 18 19  1  0
 18 20  1  0
 20 21  2  0
 20 22  1  0
 22 23  1  0
  6  2  2  0
 15 11  1  0
 22  4  1  0
  1 24  1  0
  1 25  1  0
  1 26  1  0
  7 27  1  0
  7 28  1  0
 12 29  1  0
 13 30  1  0
 14 31  1  0
 19 32  1  0
 19 33  1  0
 19 34  1  0
 23 35  1  0
 23 36  1  0
 23 37  1  0
M  END
>  <UniqueID>  (44) 
37

>  <SMILES>  (44) 
Cc1oc2c(c1CC(=O)N=c1[nH]ccs1)c(=O)n(C)c(=O)n2C

>  <Energy>  (44) 
114.12598545274595

>  <Genealogy>  (44) 
Cc1oc2c(c1CC(=O)N=c1[nH]ccs1)c(=O)n(C)c(=O)n2C (3D coordinates assigned)
Cc1oc2c(c1CC(=O)N=c1[nH]ccs1)c(=O)n(C)c(=O)n2C (optimized conformer: 114.12598545274595 kcal/mol)

>  <smiles>  (44) 
Cc1oc2c(c1CC(=O)N=c1[nH]ccs1)c(=O)n(C)c(=O)n2C

>  <score_type>  (44) 
oracle

>  <origin>  (44) 
adg

>  <m_score__min__energy>  (44) 
-7.0999999999999996

>  <m_primary>  (44) 
energy

$$$$
44:0
     RDKit          3D

 40 42  0  0  0  0  0  0  0  0999 V2000
   58.1330   26.9620   43.2460 Cl  0  0  0  0  0  0  0  0  0  0  0  0
   57.8580   28.6130   43.7700 C   0  0  0  0  0  0  0  0  0  0  0  0
   58.7130   29.2020   44.7060 C   0  0  0  0  0  0  0  0  0  0  0  0
   58.4950   30.5190   45.1230 C   0  0  0  0  0  0  0  0  0  0  0  0
   57.4120   31.2560   44.6130 C   0  0  0  0  0  0  0  0  0  0  0  0
   57.1760   32.6820   45.0670 C   0  0  0  0  0  0  0  0  0  0  0  0
   58.2930   33.2570   45.8490 N   0  0  0  0  0  0  0  0  0  0  0  0
   58.5870   34.6560   45.5260 C   0  0  0  0  0  0  0  0  0  0  0  0
   59.9910   35.0180   46.0390 C   0  0  0  0  0  0  0  0  0  0  0  0
   60.3920   34.2770   47.2690 N   0  0  0  0  0  0  0  0  0  0  0  0
   61.4200   33.2300   47.0320 C   0  0  0  0  0  0  0  0  0  0  0  0
   62.5580   33.2470   48.0140 C   0  0  0  0  0  0  0  0  0  0  0  0
   63.6380   32.3850   48.0160 C   0  0  0  0  0  0  0  0  0  0  0  0
   64.4220   32.7760   49.0800 C   0  0  0  0  0  0  0  0  0  0  0  0
   63.7700   33.8440   49.6640 C   0  0  0  0  0  0  0  0  0  0  0  0
   62.6630   34.1000   49.0080 O   0  0  0  0  0  0  0  0  0  0  0  0
   59.2490   33.8100   48.0950 C   0  0  0  0  0  0  0  0  0  0  0  0
   58.1530   33.0640   47.3020 C   0  0  0  0  0  0  0  0  0  0  0  0
   56.5660   30.6600   43.6630 C   0  0  0  0  0  0  0  0  0  0  0  0
   56.7860   29.3440   43.2470 C   0  0  0  0  0  0  0  0  0  0  0  0
   59.5582   28.6290   45.1150 H   0  0  0  0  0  0  0  0  0  0  0  0
   59.1748   30.9808   45.8542 H   0  0  0  0  0  0  0  0  0  0  0  0
   57.0197   33.3074   44.1757 H   0  0  0  0  0  0  0  0  0  0  0  0
   56.2989   32.6638   45.7306 H   0  0  0  0  0  0  0  0  0  0  0  0
   58.5478   34.7963   44.4357 H   0  0  0  0  0  0  0  0  0  0  0  0
   57.8423   35.3071   46.0072 H   0  0  0  0  0  0  0  0  0  0  0  0
   60.7189   34.7927   45.2456 H   0  0  0  0  0  0  0  0  0  0  0  0
   59.9707   36.0862   46.3009 H   0  0  0  0  0  0  0  0  0  0  0  0
   60.8860   34.9800   47.8700 H   0  0  0  0  0  0  0  0  0  0  0  0
   60.9300   32.2468   47.0895 H   0  0  0  0  0  0  0  0  0  0  0  0
   61.8548   33.4337   46.0423 H   0  0  0  0  0  0  0  0  0  0  0  0
   63.8315   31.5596   47.3151 H   0  0  0  0  0  0  0  0  0  0  0  0
   65.3745   32.3279   49.3994 H   0  0  0  0  0  0  0  0  0  0  0  0
   64.1252   34.3968   50.5462 H   0  0  0  0  0  0  0  0  0  0  0  0
   59.6376   33.1305   48.8678 H   0  0  0  0  0  0  0  0  0  0  0  0
   58.7760   34.7100   48.5148 H   0  0  0  0  0  0  0  0  0  0  0  0
   58.2228   31.9892   47.5255 H   0  0  0  0  0  0  0  0  0  0  0  0
   57.1777   33.4720   47.6057 H   0  0  0  0  0  0  0  0  0  0  0  0
   55.7254   31.2325   43.2440 H   0  0  0  0  0  0  0  0  0  0  0  0
   56.1153   28.8824   42.5073 H   0  0  0  0  0  0  0  0  0  0  0  0
  1  2  1  0
  2  3  2  0
  3  4  1  0
  4  5  2  0
  5  6  1  0
  6  7  1  0
  7  8  1  0
  8  9  1  0
  9 10  1  0
 10 11  1  0
 11 12  1  0
 12 13  2  0
 13 14  1  0
 14 15  2  0
 15 16  1  0
 10 17  1  0
 17 18  1  0
  5 19  1  0
 19 20  2  0
 20  2  1  0
 18  7  1  0
 16 12  1  0
  3 21  1  0
  4 22  1  0
  6 23  1  0
  6 24  1  0
  8 25  1  0
  8 26  1  0
  9 27  1  0
  9 28  1  0
 10 29  1  0
 11 30  1  0
 11 31  1  0
 13 32  1  0
 14 33  1  0
 15 34  1  0
 17 35  1  0
 17 36  1  0
 18 37  1  0
 18 38  1  0
 19 39  1  0
 20 40  1  0
M  CHG  1  10   1
M  END
>  <UniqueID>  (45) 
38

>  <SMILES>  (45) 
Clc1ccc(CN2CC[NH+](Cc3ccco3)CC2)cc1

>  <Energy>  (45) 
83.30083669212124

>  <Genealogy>  (45) 
Clc1ccc(CN2CC[NH+](Cc3ccco3)CC2)cc1 (protonated)
Clc1ccc(CN2CC[NH+](Cc3ccco3)CC2)cc1 (3D coordinates assigned)
Clc1ccc(CN2CC[NH+](Cc3ccco3)CC2)cc1 (nonaromatic ring conformer: 83.30083669212124 kcal/mol)

>  <smiles>  (45) 
Clc1ccc(CN2CCN(Cc3ccco3)CC2)cc1

>  <score_type>  (45) 
oracle

>  <origin>  (45) 
adg

>  <m_score__min__energy>  (45) 
-5.5599999999999996

>  <m_primary>  (45) 
energy

$$$$
45:0
     RDKit          3D

 40 44  0  0  0  0  0  0  0  0999 V2000
   53.2173   32.3139   52.9322 H   0  0  0  0  0  0  0  0  0  0  0  0
   53.3610   31.5020   52.2040 C   0  0  0  0  0  0  0  0  0  0  0  0
   52.3750   31.3960   51.1110 C   0  0  0  0  0  0  0  0  0  0  0  0
   52.4010   30.4880   50.1200 N   0  0  0  0  0  0  0  0  0  0  0  0
   51.3710   30.8560   49.3280 C   0  0  0  0  0  0  0  0  0  0  0  0
   51.0620   30.2270   48.2820 O   0  0  0  0  0  0  0  0  0  0  0  0
   50.7040   31.9530   49.7410 N   0  0  0  0  0  0  0  0  0  0  0  0
   51.3590   32.2870   50.8650 C   0  0  0  0  0  0  0  0  0  0  0  0
   51.0350   33.3880   51.6480 O   0  0  0  0  0  0  0  0  0  0  0  0
   54.4190   30.6940   52.3880 C   0  0  0  0  0  0  0  0  0  0  0  0
   54.3610   29.3010   52.4650 C   0  0  0  0  0  0  0  0  0  0  0  0
   53.4425   28.6989   52.4035 H   0  0  0  0  0  0  0  0  0  0  0  0
   55.6100   28.8070   52.6270 N   0  0  0  0  0  0  0  0  0  0  0  0
   55.8740   27.7990   52.7050 H   0  0  0  0  0  0  0  0  0  0  0  0
   56.4500   29.8270   52.6440 N   0  0  0  0  0  0  0  0  0  0  0  0
   57.8020   29.8030   52.7370 C   0  0  0  0  0  0  0  0  0  0  0  0
   58.4400   28.6800   52.8690 N   0  0  0  0  0  0  0  0  0  0  0  0
   59.8940   28.5710   52.7880 C   0  0  0  0  0  0  0  0  0  0  0  0
   60.1385   29.2375   53.6282 H   0  0  0  0  0  0  0  0  0  0  0  0
   60.3800   27.2100   52.3260 C   0  0  0  0  0  0  0  0  0  0  0  0
   61.3259   26.8030   52.7127 H   0  0  0  0  0  0  0  0  0  0  0  0
   59.9529   26.1965   52.3054 H   0  0  0  0  0  0  0  0  0  0  0  0
   60.3950   28.3920   51.3680 C   0  0  0  0  0  0  0  0  0  0  0  0
   61.3519   28.8398   51.0616 H   0  0  0  0  0  0  0  0  0  0  0  0
   59.9832   28.5877   50.3669 H   0  0  0  0  0  0  0  0  0  0  0  0
   58.4670   30.9930   52.6800 N   0  0  0  0  0  0  0  0  0  0  0  0
   57.7840   32.1680   52.5180 C   0  0  0  0  0  0  0  0  0  0  0  0
   58.4170   33.3020   52.4520 N   0  0  0  0  0  0  0  0  0  0  0  0
   59.2230   33.7420   51.3130 C   0  0  0  0  0  0  0  0  0  0  0  0
   58.7123   34.5766   50.8104 H   0  0  0  0  0  0  0  0  0  0  0  0
   60.2087   34.0630   51.6808 H   0  0  0  0  0  0  0  0  0  0  0  0
   59.4150   32.6250   50.3370 C   0  0  0  0  0  0  0  0  0  0  0  0
   58.4920   32.2710   49.4160 N   0  0  0  0  0  0  0  0  0  0  0  0
   58.9310   31.2570   48.6240 C   0  0  0  0  0  0  0  0  0  0  0  0
   58.3166   30.8298   47.8178 H   0  0  0  0  0  0  0  0  0  0  0  0
   60.2130   30.7990   48.9070 C   0  0  0  0  0  0  0  0  0  0  0  0
   60.7416   29.9895   48.3823 H   0  0  0  0  0  0  0  0  0  0  0  0
   60.8130   31.7020   50.1940 S   0  0  0  0  0  0  0  0  0  0  0  0
   56.4240   32.1590   52.4180 N   0  0  0  0  0  0  0  0  0  0  0  0
   55.7750   30.9720   52.5020 C   0  0  0  0  0  0  0  0  0  0  0  0
  1  2  1  0
  2  3  1  0
  3  4  1  0
  4  5  1  0
  5  6  2  0
  5  7  1  0
  7  8  1  0
  8  9  1  0
  2 10  2  3
 10 11  1  0
 11 12  1  0
 11 13  2  0
 13 14  1  0
 13 15  1  0
 15 16  1  0
 16 17  2  0
 17 18  1  0
 18 19  1  0
 18 20  1  0
 20 21  1  0
 20 22  1  0
 20 23  1  0
 23 24  1  0
 23 25  1  0
 16 26  1  0
 26 27  1  0
 27 28  2  3
 28 29  1  0
 29 30  1  0
 29 31  1  0
 29 32  1  0
 32 33  2  0
 33 34  1  0
 34 35  1  0
 34 36  2  0
 36 37  1  0
 36 38  1  0
 27 39  1  0
 39 40  2  0
  8  3  2  0
 40 10  1  0
 40 15  1  0
 23 18  1  0
 38 32  1  0
M  CHG  5   4  -1   7  -1   9  -1  13   1  26  -1
M  END
>  <UniqueID>  (46) 
39

>  <SMILES>  (46) 
O=c1[n-]c([O-])c(C=c2c[nH+]n3/c(=N/C4CC4)[n-]c(=NCc4nccs4)nc23)[n-]1

>  <Energy>  (46) 
410.4169401089437

>  <Genealogy>  (46) 
O=c1[n-]c([O-])c(C=c2c[nH+]n3c(=NC4CC4)[n-]c(=NCc4nccs4)nc23)[n-]1 (protonated)
O=c1[n-]c([O-])c(C=c2c[nH+]n3/c(=N/C4CC4)[n-]c(=NCc4nccs4)nc23)[n-]1 (cis-trans isomerization)
O=c1[n-]c([O-])c(C=c2c[nH+]n3/c(=N/C4CC4)[n-]c(=NCc4nccs4)nc23)[n-]1 (3D coordinates assigned)
O=c1[n-]c([O-])c(C=c2c[nH+]n3/c(=N/C4CC4)[n-]c(=NCc4nccs4)nc23)[n-]1 (nonaromatic ring conformer: 410.4169401089437 kcal/mol)

>  <smiles>  (46) 
O=c1[nH]c(O)c(C=c2cnn3c(=NC4CC4)[nH]c(=NCc4nccs4)nc23)[nH]1

>  <score_type>  (46) 
oracle

>  <origin>  (46) 
adg

>  <m_score__min__energy>  (46) 
-16.059999999999999

>  <m_primary>  (46) 
energy

$$$$
46:0
     RDKit          3D

 83 88  0  0  0  0  0  0  0  0999 V2000
   66.6850   26.4060   50.9660 C   0  0  0  0  0  0  0  0  0  0  0  0
   65.5500   26.4910   51.9810 C   0  0  0  0  0  0  0  0  0  0  0  0
   64.5120   25.5610   51.6710 O   0  0  0  0  0  0  0  0  0  0  0  0
   63.1750   25.6480   52.0950 C   0  0  0  0  0  0  0  0  0  0  0  0
   62.8810   25.3210   53.4250 C   0  0  0  0  0  0  0  0  0  0  0  0
   61.5660   25.3790   53.8980 C   0  0  0  0  0  0  0  0  0  0  0  0
   60.5230   25.7770   53.0470 C   0  0  0  0  0  0  0  0  0  0  0  0
   59.1050   25.8620   53.5650 C   0  0  0  0  0  0  0  0  0  0  0  0
   58.7380   27.2570   53.9060 N   0  0  0  0  0  0  0  0  0  0  0  0
   59.9640   28.0890   53.9470 C   0  0  0  0  0  0  0  0  0  0  0  0
   57.9660   27.3640   55.1890 C   0  0  0  0  0  0  0  0  0  0  0  0
   57.8950   28.8250   55.7050 C   0  0  0  0  0  0  0  0  0  0  0  0
   57.1920   29.7280   54.6860 C   0  0  0  0  0  0  0  0  0  0  0  0
   55.8950   29.1730   54.2670 N   0  0  0  0  0  0  0  0  0  0  0  0
   54.8770   30.0570   53.7700 C   0  0  0  0  0  0  0  0  0  0  0  0
   53.8400   30.2460   54.4600 O   0  0  0  0  0  0  0  0  0  0  0  0
   54.9600   30.6610   52.3910 C   0  0  0  0  0  0  0  0  0  0  0  0
   56.3290   31.0440   52.0710 N   0  0  0  0  0  0  0  0  0  0  0  0
   56.8880   32.2400   52.3390 C   0  0  0  0  0  0  0  0  0  0  0  0
   58.0900   32.3030   51.6640 C   0  0  0  0  0  0  0  0  0  0  0  0
   58.8400   33.4830   51.3600 N   0  0  0  0  0  0  0  0  0  0  0  0
   60.2100   33.4730   50.9610 C   0  0  0  0  0  0  0  0  0  0  0  0
   61.1110   33.1280   51.7770 O   0  0  0  0  0  0  0  0  0  0  0  0
   60.5730   33.8370   49.5860 C   0  0  0  0  0  0  0  0  0  0  0  0
   59.7930   34.5040   48.6450 C   0  0  0  0  0  0  0  0  0  0  0  0
   60.4520   34.5800   47.4650 N   0  0  0  0  0  0  0  0  0  0  0  0
   61.6170   33.9840   47.6460 N   0  0  0  0  0  0  0  0  0  0  0  0
   62.5910   33.7940   46.7250 C   0  0  0  0  0  0  0  0  0  0  0  0
   63.7390   33.1020   47.1190 C   0  0  0  0  0  0  0  0  0  0  0  0
   63.8330   32.6390   48.4460 C   0  0  0  0  0  0  0  0  0  0  0  0
   62.8150   32.8580   49.3280 N   0  0  0  0  0  0  0  0  0  0  0  0
   61.7220   33.5310   48.8990 C   0  0  0  0  0  0  0  0  0  0  0  0
   58.2090   31.0870   51.0140 C   0  0  0  0  0  0  0  0  0  0  0  0
   59.1510   30.7880   49.9270 C   0  0  0  0  0  0  0  0  0  0  0  0
   58.7900   31.2360   48.6450 C   0  0  0  0  0  0  0  0  0  0  0  0
   59.5780   30.9320   47.5350 C   0  0  0  0  0  0  0  0  0  0  0  0
   59.0890   31.4710   45.9380 Cl  0  0  0  0  0  0  0  0  0  0  0  0
   60.7430   30.1850   47.6950 C   0  0  0  0  0  0  0  0  0  0  0  0
   61.1310   29.7530   48.9620 C   0  0  0  0  0  0  0  0  0  0  0  0
   60.3550   30.0390   50.0970 C   0  0  0  0  0  0  0  0  0  0  0  0
   60.8680   29.5690   51.3240 O   0  0  0  0  0  0  0  0  0  0  0  0
   62.0650   29.9570   51.9880 C   0  0  0  0  0  0  0  0  0  0  0  0
   62.9570   30.4470   51.0550 F   0  0  0  0  0  0  0  0  0  0  0  0
   62.6390   28.8620   52.6050 F   0  0  0  0  0  0  0  0  0  0  0  0
   57.1120   30.3460   51.2600 N   0  0  0  0  0  0  0  0  0  0  0  0
   55.7310   27.7300   54.0210 C   0  0  0  0  0  0  0  0  0  0  0  0
   56.4920   26.9010   55.0580 C   0  0  0  0  0  0  0  0  0  0  0  0
   60.8180   26.1300   51.7220 C   0  0  0  0  0  0  0  0  0  0  0  0
   62.1300   26.0610   51.2450 C   0  0  0  0  0  0  0  0  0  0  0  0
   67.6462   26.3340   51.4960 H   0  0  0  0  0  0  0  0  0  0  0  0
   66.5467   25.5157   50.3349 H   0  0  0  0  0  0  0  0  0  0  0  0
   66.6808   27.3070   50.3349 H   0  0  0  0  0  0  0  0  0  0  0  0
   65.9461   26.2665   52.9824 H   0  0  0  0  0  0  0  0  0  0  0  0
   65.1293   27.5069   51.9502 H   0  0  0  0  0  0  0  0  0  0  0  0
   63.6914   25.0159   54.1033 H   0  0  0  0  0  0  0  0  0  0  0  0
   61.3480   25.1113   54.9424 H   0  0  0  0  0  0  0  0  0  0  0  0
   58.4179   25.4900   52.7907 H   0  0  0  0  0  0  0  0  0  0  0  0
   59.0317   25.2513   54.4770 H   0  0  0  0  0  0  0  0  0  0  0  0
   60.2435   28.2787   54.9938 H   0  0  0  0  0  0  0  0  0  0  0  0
   60.7835   27.5597   53.4388 H   0  0  0  0  0  0  0  0  0  0  0  0
   59.7748   29.0460   53.4388 H   0  0  0  0  0  0  0  0  0  0  0  0
   58.5167   26.7106   55.8817 H   0  0  0  0  0  0  0  0  0  0  0  0
   57.3358   28.8463   56.6520 H   0  0  0  0  0  0  0  0  0  0  0  0
   58.9195   29.1956   55.8571 H   0  0  0  0  0  0  0  0  0  0  0  0
   57.0264   30.7160   55.1404 H   0  0  0  0  0  0  0  0  0  0  0  0
   57.8345   29.8045   53.7965 H   0  0  0  0  0  0  0  0  0  0  0  0
   54.6109   29.9233   51.6534 H   0  0  0  0  0  0  0  0  0  0  0  0
   54.3284   31.5612   52.3637 H   0  0  0  0  0  0  0  0  0  0  0  0
   56.4626   33.0256   52.9808 H   0  0  0  0  0  0  0  0  0  0  0  0
   58.7881   34.9099   48.8330 H   0  0  0  0  0  0  0  0  0  0  0  0
   62.4819   34.1728   45.6981 H   0  0  0  0  0  0  0  0  0  0  0  0
   64.5559   32.9217   46.4047 H   0  0  0  0  0  0  0  0  0  0  0  0
   64.7327   32.0974   48.7734 H   0  0  0  0  0  0  0  0  0  0  0  0
   57.8754   31.8333   48.5153 H   0  0  0  0  0  0  0  0  0  0  0  0
   61.3587   29.9353   46.8184 H   0  0  0  0  0  0  0  0  0  0  0  0
   62.0617   29.1777   49.0750 H   0  0  0  0  0  0  0  0  0  0  0  0
   61.8272   30.7242   52.7396 H   0  0  0  0  0  0  0  0  0  0  0  0
   54.6619   27.4764   54.0736 H   0  0  0  0  0  0  0  0  0  0  0  0
   56.1364   27.4985   53.0250 H   0  0  0  0  0  0  0  0  0  0  0  0
   55.9962   27.0079   56.0341 H   0  0  0  0  0  0  0  0  0  0  0  0
   56.4891   25.8515   54.7287 H   0  0  0  0  0  0  0  0  0  0  0  0
   60.0108   26.4636   51.0533 H   0  0  0  0  0  0  0  0  0  0  0  0
   62.3477   26.3304   50.2010 H   0  0  0  0  0  0  0  0  0  0  0  0
  1  2  1  0
  2  3  1  0
  3  4  1  0
  4  5  2  0
  5  6  1  0
  6  7  2  0
  7  8  1  0
  8  9  1  0
  9 10  1  0
  9 11  1  0
 11 12  1  0
 12 13  1  0
 13 14  1  0
 14 15  1  0
 15 16  2  0
 15 17  1  0
 17 18  1  0
 18 19  1  0
 19 20  2  0
 20 21  1  0
 21 22  1  0
 22 23  2  0
 22 24  1  0
 24 25  1  0
 25 26  2  0
 26 27  1  0
 27 28  1  0
 28 29  2  0
 29 30  1  0
 30 31  2  0
 31 32  1  0
 20 33  1  0
 33 34  1  0
 34 35  2  0
 35 36  1  0
 36 37  1  0
 36 38  2  0
 38 39  1  0
 39 40  2  0
 40 41  1  0
 41 42  1  0
 42 43  1  0
 42 44  1  0
 33 45  2  0
 14 46  1  0
 46 47  1  0
  7 48  1  0
 48 49  2  0
 49  4  1  0
 47 11  1  0
 45 18  1  0
 32 24  2  0
 40 34  1  0
 32 27  1  0
  1 50  1  0
  1 51  1  0
  1 52  1  0
  2 53  1  0
  2 54  1  0
  5 55  1  0
  6 56  1  0
  8 57  1  0
  8 58  1  0
 10 59  1  0
 10 60  1  0
 10 61  1  0
 11 62  1  0
 12 63  1  0
 12 64  1  0
 13 65  1  0
 13 66  1  0
 17 67  1  0
 17 68  1  0
 19 69  1  0
 25 70  1  0
 28 71  1  0
 29 72  1  0
 30 73  1  0
 35 74  1  0
 38 75  1  0
 39 76  1  0
 42 77  1  0
 46 78  1  0
 46 79  1  0
 47 80  1  0
 47 81  1  0
 48 82  1  0
 49 83  1  0
M  CHG  1  21  -1
M  END
>  <UniqueID>  (47) 
40

>  <SMILES>  (47) 
CCOc1ccc(CN(C)C2CCN(C(=O)Cn3cc([N-]C(=O)c4cnn5cccnc45)c(-c4cc(Cl)ccc4OC(F)F)n3)CC2)cc1

>  <Energy>  (47) 
172.5471598307743

>  <Genealogy>  (47) 
CCOc1ccc(CN(C)C2CCN(C(=O)Cn3cc([N-]C(=O)c4cnn5cccnc45)c(-c4cc(Cl)ccc4OC(F)F)n3)CC2)cc1 (protonated)
CCOc1ccc(CN(C)C2CCN(C(=O)Cn3cc([N-]C(=O)c4cnn5cccnc45)c(-c4cc(Cl)ccc4OC(F)F)n3)CC2)cc1 (3D coordinates assigned)
CCOc1ccc(CN(C)C2CCN(C(=O)Cn3cc([N-]C(=O)c4cnn5cccnc45)c(-c4cc(Cl)ccc4OC(F)F)n3)CC2)cc1 (nonaromatic ring conformer: 172.5471598307743 kcal/mol)

>  <smiles>  (47) 
CCOc1ccc(CN(C)C2CCN(C(=O)Cn3cc(NC(=O)c4cnn5cccnc45)c(-c4cc(Cl)ccc4OC(F)F)n3)CC2)cc1

>  <score_type>  (47) 
oracle

>  <origin>  (47) 
adg

>  <m_score__min__energy>  (47) 
-10.91

>  <m_primary>  (47) 
energy

$$$$
47:0
     RDKit          3D

 41 43  0  0  0  0  0  0  0  0999 V2000
   63.1040   33.8600   46.0100 O   0  0  0  0  0  0  0  0  0  0  0  0
   62.5930   33.6720   47.1470 C   0  0  0  0  0  0  0  0  0  0  0  0
   63.4170   33.0350   48.2170 C   0  0  0  0  0  0  0  0  0  0  0  0
   62.8840   33.4360   49.5930 C   0  0  0  0  0  0  0  0  0  0  0  0
   61.4510   33.0890   49.7370 N   0  0  1  0  0  0  0  0  0  0  0  0
   60.9670   33.4260   51.1000 C   0  0  0  0  0  0  0  0  0  0  0  0
   59.6200   32.8090   51.4030 C   0  0  0  0  0  0  0  0  0  0  0  0
   59.3150   31.5100   50.9620 C   0  0  0  0  0  0  0  0  0  0  0  0
   58.0620   30.9510   51.2310 C   0  0  0  0  0  0  0  0  0  0  0  0
   57.1050   31.6830   51.9390 C   0  0  0  0  0  0  0  0  0  0  0  0
   57.4000   32.9760   52.3800 C   0  0  0  0  0  0  0  0  0  0  0  0
   58.6520   33.5390   52.1120 C   0  0  0  0  0  0  0  0  0  0  0  0
   60.6650   33.7680   48.7170 C   0  0  0  0  0  0  0  0  0  0  0  0
   59.4540   34.0560   48.9370 O   0  0  0  0  0  0  0  0  0  0  0  0
   61.2210   34.0240   47.4080 N   0  0  0  0  0  0  0  0  0  0  0  0
   60.3760   34.5870   46.3420 C   0  0  0  0  0  0  0  0  0  0  0  0
   59.4600   33.5280   45.7820 C   0  0  0  0  0  0  0  0  0  0  0  0
   59.6310   32.1860   46.1640 C   0  0  0  0  0  0  0  0  0  0  0  0
   58.7770   31.1950   45.6720 C   0  0  0  0  0  0  0  0  0  0  0  0
   57.7440   31.5320   44.7940 C   0  0  0  0  0  0  0  0  0  0  0  0
   56.5790   30.1750   44.1230 Br  0  0  0  0  0  0  0  0  0  0  0  0
   57.5660   32.8630   44.4050 C   0  0  0  0  0  0  0  0  0  0  0  0
   58.4170   33.8600   44.8940 C   0  0  0  0  0  0  0  0  0  0  0  0
   58.2230   35.1420   44.4960 F   0  0  0  0  0  0  0  0  0  0  0  0
   63.3687   31.9411   48.1118 H   0  0  0  0  0  0  0  0  0  0  0  0
   64.4595   33.3724   48.1202 H   0  0  0  0  0  0  0  0  0  0  0  0
   63.4600   32.9090   50.3679 H   0  0  0  0  0  0  0  0  0  0  0  0
   62.9902   34.5254   49.7026 H   0  0  0  0  0  0  0  0  0  0  0  0
   61.3320   32.0590   49.5830 H   0  0  0  0  0  0  0  0  0  0  0  0
   61.6976   33.0577   51.8353 H   0  0  0  0  0  0  0  0  0  0  0  0
   60.8551   34.5189   51.1552 H   0  0  0  0  0  0  0  0  0  0  0  0
   60.0648   30.9309   50.4031 H   0  0  0  0  0  0  0  0  0  0  0  0
   57.8291   29.9332   50.8847 H   0  0  0  0  0  0  0  0  0  0  0  0
   56.1196   31.2416   52.1492 H   0  0  0  0  0  0  0  0  0  0  0  0
   56.6469   33.5514   52.9383 H   0  0  0  0  0  0  0  0  0  0  0  0
   58.8795   34.5581   52.4581 H   0  0  0  0  0  0  0  0  0  0  0  0
   59.7712   35.4079   46.7546 H   0  0  0  0  0  0  0  0  0  0  0  0
   61.0227   34.9621   45.5351 H   0  0  0  0  0  0  0  0  0  0  0  0
   60.4426   31.9139   46.8549 H   0  0  0  0  0  0  0  0  0  0  0  0
   58.9186   30.1476   45.9767 H   0  0  0  0  0  0  0  0  0  0  0  0
   56.7538   33.1273   43.7118 H   0  0  0  0  0  0  0  0  0  0  0  0
  1  2  2  0
  2  3  1  0
  3  4  1  0
  4  5  1  0
  5  6  1  0
  6  7  1  0
  7  8  2  0
  8  9  1  0
  9 10  2  0
 10 11  1  0
 11 12  2  0
  5 13  1  0
 13 14  2  0
 13 15  1  0
 15 16  1  0
 16 17  1  0
 17 18  2  0
 18 19  1  0
 19 20  2  0
 20 21  1  0
 20 22  1  0
 22 23  2  0
 23 24  1  0
 15  2  1  0
 23 17  1  0
 12  7  1  0
  3 25  1  0
  3 26  1  0
  4 27  1  0
  4 28  1  0
  5 29  1  6
  6 30  1  0
  6 31  1  0
  8 32  1  0
  9 33  1  0
 10 34  1  0
 11 35  1  0
 12 36  1  0
 16 37  1  0
 16 38  1  0
 18 39  1  0
 19 40  1  0
 22 41  1  0
M  CHG  1   5   1
M  END
>  <UniqueID>  (48) 
41

>  <SMILES>  (48) 
O=C1CC[N@@H+](Cc2ccccc2)C(=O)N1Cc1ccc(Br)cc1F

>  <Energy>  (48) 
47.45562196665291

>  <Genealogy>  (48) 
O=C1CC[NH+](Cc2ccccc2)C(=O)N1Cc1ccc(Br)cc1F (protonated)
O=C1CC[N@@H+](Cc2ccccc2)C(=O)N1Cc1ccc(Br)cc1F (chirality)
O=C1CC[N@@H+](Cc2ccccc2)C(=O)N1Cc1ccc(Br)cc1F (3D coordinates assigned)
O=C1CC[N@@H+](Cc2ccccc2)C(=O)N1Cc1ccc(Br)cc1F (nonaromatic ring conformer: 47.45562196665291 kcal/mol)

>  <smiles>  (48) 
O=C1CCN(Cc2ccccc2)C(=O)N1Cc1ccc(Br)cc1F

>  <score_type>  (48) 
oracle

>  <origin>  (48) 
adg

>  <m_score__min__energy>  (48) 
-6.4100000000000001

>  <m_primary>  (48) 
energy

$$$$
48:0
     RDKit          3D

 55 58  0  0  0  0  0  0  0  0999 V2000
   58.3450   31.4100   45.7720 O   0  0  0  0  0  0  0  0  0  0  0  0
   57.7320   30.3410   45.5180 C   0  0  0  0  0  0  0  0  0  0  0  0
   56.4820   30.3430   44.8690 N   0  0  0  0  0  0  0  0  0  0  0  0
   56.0560   28.9680   44.7350 C   0  0  0  0  0  0  0  0  0  0  0  0
   57.1260   28.1270   45.2950 N   0  0  0  0  0  0  0  0  0  0  0  0
   56.9890   26.6740   45.3420 C   0  0  0  0  0  0  0  0  0  0  0  0
   57.7200   25.8570   44.4460 C   0  0  0  0  0  0  0  0  0  0  0  0
   57.6040   24.4650   44.4780 C   0  0  0  0  0  0  0  0  0  0  0  0
   56.7610   23.8530   45.4030 C   0  0  0  0  0  0  0  0  0  0  0  0
   56.0380   24.6340   46.3020 C   0  0  0  0  0  0  0  0  0  0  0  0
   56.1520   26.0280   46.2740 C   0  0  0  0  0  0  0  0  0  0  0  0
   58.2340   28.9630   45.8270 C   0  0  0  0  0  0  0  0  0  0  0  0
   58.3790   28.7910   47.3570 C   0  0  0  0  0  0  0  0  0  0  0  0
   59.5830   29.5790   47.9140 C   0  0  0  0  0  0  0  0  0  0  0  0
   60.8480   29.4020   47.1470 N   0  0  0  0  0  0  0  0  0  0  0  0
   61.4910   30.6780   46.7680 C   0  0  0  0  0  0  0  0  0  0  0  0
   61.8290   31.5050   48.0200 C   0  0  0  0  0  0  0  0  0  0  0  0
   62.3060   32.9250   47.6830 C   0  0  0  0  0  0  0  0  0  0  0  0
   61.3570   34.0090   48.2130 C   0  0  0  0  0  0  0  0  0  0  0  0
   60.1340   34.1110   47.3410 C   0  0  0  0  0  0  0  0  0  0  0  0
   60.2480   34.5250   46.0030 C   0  0  0  0  0  0  0  0  0  0  0  0
   59.1140   34.5870   45.1870 C   0  0  0  0  0  0  0  0  0  0  0  0
   57.8630   34.2290   45.6960 C   0  0  0  0  0  0  0  0  0  0  0  0
   57.7450   33.8020   47.0220 C   0  0  0  0  0  0  0  0  0  0  0  0
   58.8750   33.7380   47.8420 C   0  0  0  0  0  0  0  0  0  0  0  0
   60.7690   28.4460   46.0220 C   0  0  0  0  0  0  0  0  0  0  0  0
   59.5780   28.7150   45.0770 C   0  0  0  0  0  0  0  0  0  0  0  0
   55.1201   28.8071   45.2901 H   0  0  0  0  0  0  0  0  0  0  0  0
   55.8717   28.7162   43.6802 H   0  0  0  0  0  0  0  0  0  0  0  0
   58.3911   26.3265   43.7117 H   0  0  0  0  0  0  0  0  0  0  0  0
   58.1801   23.8504   43.7706 H   0  0  0  0  0  0  0  0  0  0  0  0
   56.6666   22.7573   45.4235 H   0  0  0  0  0  0  0  0  0  0  0  0
   55.3752   24.1529   47.0363 H   0  0  0  0  0  0  0  0  0  0  0  0
   55.5778   26.6311   46.9927 H   0  0  0  0  0  0  0  0  0  0  0  0
   57.4614   29.1528   47.8439 H   0  0  0  0  0  0  0  0  0  0  0  0
   58.5447   27.7237   47.5655 H   0  0  0  0  0  0  0  0  0  0  0  0
   59.3253   30.6484   47.9088 H   0  0  0  0  0  0  0  0  0  0  0  0
   59.7728   29.1860   48.9237 H   0  0  0  0  0  0  0  0  0  0  0  0
   62.4171   30.4658   46.2137 H   0  0  0  0  0  0  0  0  0  0  0  0
   60.7955   31.2533   46.1393 H   0  0  0  0  0  0  0  0  0  0  0  0
   60.9287   31.5762   48.6480 H   0  0  0  0  0  0  0  0  0  0  0  0
   62.6512   30.9943   48.5428 H   0  0  0  0  0  0  0  0  0  0  0  0
   63.2996   33.0779   48.1295 H   0  0  0  0  0  0  0  0  0  0  0  0
   62.3349   33.0150   46.5871 H   0  0  0  0  0  0  0  0  0  0  0  0
   61.0506   33.7524   49.2378 H   0  0  0  0  0  0  0  0  0  0  0  0
   61.8814   34.9759   48.2050 H   0  0  0  0  0  0  0  0  0  0  0  0
   61.2321   34.8011   45.5963 H   0  0  0  0  0  0  0  0  0  0  0  0
   59.2071   34.9183   44.1422 H   0  0  0  0  0  0  0  0  0  0  0  0
   56.9715   34.2831   45.0538 H   0  0  0  0  0  0  0  0  0  0  0  0
   56.7606   33.5158   47.4208 H   0  0  0  0  0  0  0  0  0  0  0  0
   58.7787   33.3947   48.8826 H   0  0  0  0  0  0  0  0  0  0  0  0
   61.6996   28.5141   45.4395 H   0  0  0  0  0  0  0  0  0  0  0  0
   60.6237   27.4448   46.4538 H   0  0  0  0  0  0  0  0  0  0  0  0
   59.8079   29.6038   44.4711 H   0  0  0  0  0  0  0  0  0  0  0  0
   59.4435   27.8139   44.4606 H   0  0  0  0  0  0  0  0  0  0  0  0
  1  2  2  0
  2  3  1  0
  3  4  1  0
  4  5  1  0
  5  6  1  0
  6  7  2  0
  7  8  1  0
  8  9  2  0
  9 10  1  0
 10 11  2  0
  5 12  1  0
 12 13  1  0
 13 14  1  0
 14 15  1  0
 15 16  1  0
 16 17  1  0
 17 18  1  0
 18 19  1  0
 19 20  1  0
 20 21  2  0
 21 22  1  0
 22 23  2  0
 23 24  1  0
 24 25  2  0
 15 26  1  0
 26 27  1  0
 12  2  1  0
 25 20  1  0
 11  6  1  0
 27 12  1  0
  4 28  1  0
  4 29  1  0
  7 30  1  0
  8 31  1  0
  9 32  1  0
 10 33  1  0
 11 34  1  0
 13 35  1  0
 13 36  1  0
 14 37  1  0
 14 38  1  0
 16 39  1  0
 16 40  1  0
 17 41  1  0
 17 42  1  0
 18 43  1  0
 18 44  1  0
 19 45  1  0
 19 46  1  0
 21 47  1  0
 22 48  1  0
 23 49  1  0
 24 50  1  0
 25 51  1  0
 26 52  1  0
 26 53  1  0
 27 54  1  0
 27 55  1  0
M  CHG  1   3  -1
M  END
>  <UniqueID>  (49) 
42

>  <SMILES>  (49) 
O=C1[N-]CN(c2ccccc2)C12CCN(CCCCc1ccccc1)CC2

>  <Energy>  (49) 
81.89704752357584

>  <Genealogy>  (49) 
O=C1[N-]CN(c2ccccc2)C12CCN(CCCCc1ccccc1)CC2 (protonated)
O=C1[N-]CN(c2ccccc2)C12CCN(CCCCc1ccccc1)CC2 (3D coordinates assigned)
O=C1[N-]CN(c2ccccc2)C12CCN(CCCCc1ccccc1)CC2 (nonaromatic ring conformer: 81.89704752357584 kcal/mol)

>  <smiles>  (49) 
O=C1NCN(c2ccccc2)C12CCN(CCCCc1ccccc1)CC2

>  <score_type>  (49) 
oracle

>  <origin>  (49) 
adg

>  <m_score__min__energy>  (49) 
-10.16

>  <m_primary>  (49) 
energy

$$$$
49:0
     RDKit          3D

 40 42  0  0  0  0  0  0  0  0999 V2000
   59.1340   35.3040   47.1370 N   0  0  0  0  0  0  0  0  0  0  0  0
   58.9920   34.5360   45.9420 C   0  0  0  0  0  0  0  0  0  0  0  0
   59.5590   34.9240   44.8840 O   0  0  0  0  0  0  0  0  0  0  0  0
   58.1890   33.2590   45.9420 C   0  0  0  0  0  0  0  0  0  0  0  0
   59.0760   32.0390   46.3150 C   0  0  0  0  0  0  0  0  0  0  0  0
   58.8550   30.8100   45.4180 C   0  0  0  0  0  0  0  0  0  0  0  0
   57.4300   30.6370   45.0960 N   0  0  0  0  0  0  0  0  0  0  0  0
   56.8200   29.3310   45.1090 C   0  0  0  0  0  0  0  0  0  0  0  0
   55.5890   29.2100   44.8620 O   0  0  0  0  0  0  0  0  0  0  0  0
   57.6030   28.1660   45.3950 N   0  0  0  0  0  0  0  0  0  0  0  0
   57.3340   27.2690   46.5130 C   0  0  0  0  0  0  0  0  0  0  0  0
   56.3480   26.2200   46.1060 C   0  0  0  0  0  0  0  0  0  0  0  0
   55.0060   26.3470   46.2220 N   0  0  0  0  0  0  0  0  0  0  0  0
   54.4310   25.3130   45.6130 N   0  0  0  0  0  0  0  0  0  0  0  0
   55.4220   24.5150   45.1750 C   0  0  0  0  0  0  0  0  0  0  0  0
   56.6160   25.0420   45.4510 C   0  0  0  0  0  0  0  0  0  0  0  0
   57.6830   24.5860   44.5420 C   0  0  0  0  0  0  0  0  0  0  0  0
   56.9570   23.5010   43.7020 C   0  0  0  0  0  0  0  0  0  0  0  0
   55.4430   23.5830   44.0340 C   0  0  0  0  0  0  0  0  0  0  0  0
   56.6440   31.7830   44.6100 C   0  0  0  0  0  0  0  0  0  0  0  0
   57.4710   33.0740   44.5940 C   0  0  0  0  0  0  0  0  0  0  0  0
   58.6870   34.9990   48.0290 H   0  0  0  0  0  0  0  0  0  0  0  0
   59.6930   36.1860   47.1310 H   0  0  0  0  0  0  0  0  0  0  0  0
   57.4126   33.3308   46.7180 H   0  0  0  0  0  0  0  0  0  0  0  0
   60.1308   32.3406   46.2354 H   0  0  0  0  0  0  0  0  0  0  0  0
   58.7973   31.7424   47.3369 H   0  0  0  0  0  0  0  0  0  0  0  0
   59.4208   30.9410   44.4838 H   0  0  0  0  0  0  0  0  0  0  0  0
   59.2013   29.9168   45.9586 H   0  0  0  0  0  0  0  0  0  0  0  0
   58.2715   26.7854   46.8249 H   0  0  0  0  0  0  0  0  0  0  0  0
   56.9163   27.8505   47.3481 H   0  0  0  0  0  0  0  0  0  0  0  0
   58.0433   25.4079   43.9059 H   0  0  0  0  0  0  0  0  0  0  0  0
   58.5782   24.2154   45.0628 H   0  0  0  0  0  0  0  0  0  0  0  0
   57.1163   23.6883   42.6298 H   0  0  0  0  0  0  0  0  0  0  0  0
   57.3504   22.5017   43.9401 H   0  0  0  0  0  0  0  0  0  0  0  0
   54.8697   23.9811   43.1838 H   0  0  0  0  0  0  0  0  0  0  0  0
   54.9868   22.6066   44.2543 H   0  0  0  0  0  0  0  0  0  0  0  0
   56.2973   31.5694   43.5882 H   0  0  0  0  0  0  0  0  0  0  0  0
   55.7942   31.9294   45.2930 H   0  0  0  0  0  0  0  0  0  0  0  0
   58.2181   33.0174   43.7886 H   0  0  0  0  0  0  0  0  0  0  0  0
   56.8003   33.9290   44.4232 H   0  0  0  0  0  0  0  0  0  0  0  0
  1  2  1  0
  2  3  2  0
  2  4  1  0
  4  5  1  0
  5  6  1  0
  6  7  1  0
  7  8  1  0
  8  9  2  0
  8 10  1  0
 10 11  1  0
 11 12  1  0
 12 13  1  0
 13 14  1  0
 14 15  2  0
 15 16  1  0
 16 17  1  0
 17 18  1  0
 18 19  1  0
  7 20  1  0
 20 21  1  0
 21  4  1  0
 16 12  2  0
 19 15  1  0
  1 22  1  0
  1 23  1  0
  4 24  1  0
  5 25  1  0
  5 26  1  0
  6 27  1  0
  6 28  1  0
 11 29  1  0
 11 30  1  0
 17 31  1  0
 17 32  1  0
 18 33  1  0
 18 34  1  0
 19 35  1  0
 19 36  1  0
 20 37  1  0
 20 38  1  0
 21 39  1  0
 21 40  1  0
M  CHG  2  10  -1  13  -1
M  END
>  <UniqueID>  (50) 
43

>  <SMILES>  (50) 
NC(=O)C1CCN(C(=O)[N-]Cc2[n-]nc3c2CCC3)CC1

>  <Energy>  (50) 
90.20900644541119

>  <Genealogy>  (50) 
NC(=O)C1CCN(C(=O)[N-]Cc2[n-]nc3c2CCC3)CC1 (protonated)
NC(=O)C1CCN(C(=O)[N-]Cc2[n-]nc3c2CCC3)CC1 (3D coordinates assigned)
NC(=O)C1CCN(C(=O)[N-]Cc2[n-]nc3c2CCC3)CC1 (nonaromatic ring conformer: 90.20900644541119 kcal/mol)

>  <smiles>  (50) 
NC(=O)C1CCN(C(=O)NCc2[nH]nc3c2CCC3)CC1

>  <score_type>  (50) 
oracle

>  <origin>  (50) 
adg

>  <m_score__min__energy>  (50) 
-12.390000000000001

>  <m_primary>  (50) 
energy

$$$$
50:0
     RDKit          3D

 30 31  0  0  0  0  0  0  0  0999 V2000
   52.7190   23.9300   45.4930 O   0  0  0  0  0  0  0  0  0  0  0  0
   53.8660   24.4470   45.5460 C   0  0  0  0  0  0  0  0  0  0  0  0
   53.9750   25.8290   45.6610 O   0  0  0  0  0  0  0  0  0  0  0  0
   55.0870   23.6100   45.4400 C   0  0  0  0  0  0  0  0  0  0  0  0
   54.9430   22.2110   45.4290 C   0  0  0  0  0  0  0  0  0  0  0  0
   56.0630   21.3780   45.3910 C   0  0  0  0  0  0  0  0  0  0  0  0
   57.3430   21.9290   45.3570 C   0  0  0  0  0  0  0  0  0  0  0  0
   57.5080   23.3140   45.3520 C   0  0  0  0  0  0  0  0  0  0  0  0
   56.3920   24.1690   45.3910 C   0  0  0  0  0  0  0  0  0  0  0  0
   56.5890   25.5890   45.2870 N   0  0  0  0  0  0  0  0  0  0  0  0
   57.6830   26.2720   45.9230 C   0  0  0  0  0  0  0  0  0  0  0  0
   58.3200   25.7040   46.8510 O   0  0  0  0  0  0  0  0  0  0  0  0
   58.0330   27.6610   45.5440 C   0  0  0  0  0  0  0  0  0  0  0  0
   59.3860   28.0230   45.4540 C   0  0  0  0  0  0  0  0  0  0  0  0
   59.7480   29.3230   45.1080 C   0  0  0  0  0  0  0  0  0  0  0  0
   58.7670   30.2790   44.8440 C   0  0  0  0  0  0  0  0  0  0  0  0
   57.4020   29.9440   44.9110 C   0  0  0  0  0  0  0  0  0  0  0  0
   56.4050   30.9490   44.6280 N   0  0  0  0  0  0  0  0  0  0  0  0
   55.3080   30.6260   44.1250 O   0  0  0  0  0  0  0  0  0  0  0  0
   56.6550   32.2830   44.8520 O   0  0  0  0  0  0  0  0  0  0  0  0
   57.0380   28.6190   45.2480 C   0  0  0  0  0  0  0  0  0  0  0  0
   55.6980   28.2420   45.2470 O   0  0  0  0  0  0  0  0  0  0  0  0
   53.9364   21.7679   45.4506 H   0  0  0  0  0  0  0  0  0  0  0  0
   55.9351   20.2855   45.3879 H   0  0  0  0  0  0  0  0  0  0  0  0
   58.2240   21.2707   45.3341 H   0  0  0  0  0  0  0  0  0  0  0  0
   58.5208   23.7417   45.3172 H   0  0  0  0  0  0  0  0  0  0  0  0
   55.8870   26.1540   44.7590 H   0  0  0  0  0  0  0  0  0  0  0  0
   60.1662   27.2749   45.6581 H   0  0  0  0  0  0  0  0  0  0  0  0
   60.8114   29.5967   45.0427 H   0  0  0  0  0  0  0  0  0  0  0  0
   59.0635   31.3051   44.5808 H   0  0  0  0  0  0  0  0  0  0  0  0
  1  2  2  0
  2  3  1  0
  2  4  1  0
  4  5  2  0
  5  6  1  0
  6  7  2  0
  7  8  1  0
  8  9  2  0
  9 10  1  0
 10 11  1  0
 11 12  2  0
 11 13  1  0
 13 14  2  0
 14 15  1  0
 15 16  2  0
 16 17  1  0
 17 18  1  0
 18 19  2  0
 18 20  1  0
 17 21  2  0
 21 22  1  0
  9  4  1  0
 21 13  1  0
  5 23  1  0
  6 24  1  0
  7 25  1  0
  8 26  1  0
 10 27  1  0
 14 28  1  0
 15 29  1  0
 16 30  1  0
M  CHG  4   3  -1  18   1  20  -1  22  -1
M  END
>  <UniqueID>  (51) 
44

>  <SMILES>  (51) 
O=C([O-])c1ccccc1NC(=O)c1cccc([N+](=O)[O-])c1[O-]

>  <Energy>  (51) 
46.44868585054746

>  <Genealogy>  (51) 
O=C([O-])c1ccccc1NC(=O)c1cccc([N+](=O)[O-])c1[O-] (protonated)
O=C([O-])c1ccccc1NC(=O)c1cccc([N+](=O)[O-])c1[O-] (3D coordinates assigned)
O=C([O-])c1ccccc1NC(=O)c1cccc([N+](=O)[O-])c1[O-] (optimized conformer: 46.44868585054746 kcal/mol)

>  <smiles>  (51) 
O=C(O)c1ccccc1NC(=O)c1cccc([N+](=O)[O-])c1O

>  <score_type>  (51) 
oracle

>  <origin>  (51) 
adg

>  <m_score__min__energy>  (51) 
-12.960000000000001

>  <m_primary>  (51) 
energy

$$$$
51:0
     RDKit          3D

 39 41  0  0  0  0  0  0  0  0999 V2000
   57.8800   32.0430   41.9240 C   0  0  0  0  0  0  0  0  0  0  0  0
   57.1730   31.1880   42.9270 C   0  0  0  0  0  0  0  0  0  0  0  0
   56.2700   30.1820   42.6420 C   0  0  0  0  0  0  0  0  0  0  0  0
   55.8810   29.6570   43.8580 C   0  0  0  0  0  0  0  0  0  0  0  0
   56.5040   30.2980   44.8640 N   0  0  0  0  0  0  0  0  0  0  0  0
   57.2920   31.2400   44.3080 C   0  0  0  0  0  0  0  0  0  0  0  0
   58.1890   32.1660   45.0950 C   0  0  2  0  0  0  0  0  0  0  0  0
   59.1140   31.3670   46.0360 C   0  0  0  0  0  0  0  0  0  0  0  0
   59.6150   32.2080   47.2300 C   0  0  0  0  0  0  0  0  0  0  0  0
   59.6490   33.6520   46.9010 N   0  0  2  0  0  0  0  0  0  0  0  0
   60.2970   34.4320   47.9810 C   0  0  0  0  0  0  0  0  0  0  0  0
   61.7000   33.9640   48.2540 C   0  0  0  0  0  0  0  0  0  0  0  0
   62.3070   33.8980   49.5010 C   0  0  0  0  0  0  0  0  0  0  0  0
   63.6290   33.4400   49.4450 C   0  0  0  0  0  0  0  0  0  0  0  0
   64.0630   33.1440   48.1580 C   0  0  0  0  0  0  0  0  0  0  0  0
   62.8020   33.4560   47.0900 S   0  0  0  0  0  0  0  0  0  0  0  0
   58.2780   34.1750   46.6600 C   0  0  0  0  0  0  0  0  0  0  0  0
   57.3670   33.1910   45.8880 C   0  0  0  0  0  0  0  0  0  0  0  0
   58.4965   32.7886   42.4474 H   0  0  0  0  0  0  0  0  0  0  0  0
   58.5239   31.4123   41.2934 H   0  0  0  0  0  0  0  0  0  0  0  0
   57.1396   32.5570   41.2934 H   0  0  0  0  0  0  0  0  0  0  0  0
   55.9293   29.8633   41.6458 H   0  0  0  0  0  0  0  0  0  0  0  0
   55.1642   28.8325   43.9863 H   0  0  0  0  0  0  0  0  0  0  0  0
   56.3970   30.0900   45.8820 H   0  0  0  0  0  0  0  0  0  0  0  0
   58.8167   32.7147   44.3774 H   0  0  0  0  0  0  0  0  0  0  0  0
   58.5586   30.5003   46.4238 H   0  0  0  0  0  0  0  0  0  0  0  0
   59.9943   31.0569   45.4539 H   0  0  0  0  0  0  0  0  0  0  0  0
   58.9407   32.0520   48.0850 H   0  0  0  0  0  0  0  0  0  0  0  0
   60.6380   31.8856   47.4740 H   0  0  0  0  0  0  0  0  0  0  0  0
   60.2080   33.7860   46.0230 H   0  0  0  0  0  0  0  0  0  0  0  0
   60.3278   35.4908   47.6842 H   0  0  0  0  0  0  0  0  0  0  0  0
   59.7086   34.2917   48.8997 H   0  0  0  0  0  0  0  0  0  0  0  0
   61.8011   34.1770   50.4371 H   0  0  0  0  0  0  0  0  0  0  0  0
   64.2643   33.3252   50.3356 H   0  0  0  0  0  0  0  0  0  0  0  0
   65.0607   32.7697   47.8849 H   0  0  0  0  0  0  0  0  0  0  0  0
   57.8119   34.3903   47.6328 H   0  0  0  0  0  0  0  0  0  0  0  0
   58.3810   35.0758   46.0372 H   0  0  0  0  0  0  0  0  0  0  0  0
   56.7278   32.6572   46.6067 H   0  0  0  0  0  0  0  0  0  0  0  0
   56.7591   33.7697   45.1769 H   0  0  0  0  0  0  0  0  0  0  0  0
  1  2  1  0
  2  3  1  0
  3  4  2  0
  4  5  1  0
  5  6  1  0
  6  7  1  0
  7  8  1  0
  8  9  1  0
  9 10  1  0
 10 11  1  0
 11 12  1  0
 12 13  2  0
 13 14  1  0
 14 15  2  0
 15 16  1  0
 10 17  1  0
 17 18  1  0
  6  2  2  0
 18  7  1  0
 16 12  1  0
  1 19  1  0
  1 20  1  0
  1 21  1  0
  3 22  1  0
  4 23  1  0
  5 24  1  0
  7 25  1  6
  8 26  1  0
  8 27  1  0
  9 28  1  0
  9 29  1  0
 10 30  1  6
 11 31  1  0
 11 32  1  0
 13 33  1  0
 14 34  1  0
 15 35  1  0
 17 36  1  0
 17 37  1  0
 18 38  1  0
 18 39  1  0
M  CHG  1  10   1
M  END
>  <UniqueID>  (52) 
45

>  <SMILES>  (52) 
Cc1cc[nH]c1C1CC[NH+](Cc2cccs2)CC1

>  <Energy>  (52) 
95.76130722629689

>  <Genealogy>  (52) 
Cc1cc[nH]c1C1CC[NH+](Cc2cccs2)CC1 (protonated)
Cc1cc[nH]c1C1CC[NH+](Cc2cccs2)CC1 (3D coordinates assigned)
Cc1cc[nH]c1C1CC[NH+](Cc2cccs2)CC1 (nonaromatic ring conformer: 95.76130722629689 kcal/mol)

>  <smiles>  (52) 
Cc1cc[nH]c1C1CCN(Cc2cccs2)CC1

>  <score_type>  (52) 
oracle

>  <origin>  (52) 
adg

>  <m_score__min__energy>  (52) 
-5.96

>  <m_primary>  (52) 
energy

$$$$
52:0
     RDKit          3D

 30 32  0  0  0  0  0  0  0  0999 V2000
   58.1270   32.6010   42.1460 O   0  0  0  0  0  0  0  0  0  0  0  0
   58.0240   31.9950   43.2470 C   0  0  0  0  0  0  0  0  0  0  0  0
   57.6570   30.6830   43.2570 N   0  0  0  0  0  0  0  0  0  0  0  0
   57.5430   29.9690   44.4130 C   0  0  0  0  0  0  0  0  0  0  0  0
   57.1260   28.5940   44.3540 N   0  0  0  0  0  0  0  0  0  0  0  0
   57.6700   27.5420   45.1710 C   0  0  0  0  0  0  0  0  0  0  0  0
   56.8370   26.7230   45.9570 C   0  0  0  0  0  0  0  0  0  0  0  0
   57.3910   25.7240   46.7640 C   0  0  0  0  0  0  0  0  0  0  0  0
   58.7750   25.5440   46.8050 C   0  0  0  0  0  0  0  0  0  0  0  0
   59.6100   26.3670   46.0440 C   0  0  0  0  0  0  0  0  0  0  0  0
   59.0600   27.3670   45.2360 C   0  0  0  0  0  0  0  0  0  0  0  0
   57.7690   30.6030   45.6440 C   0  0  0  0  0  0  0  0  0  0  0  0
   58.1490   31.9500   45.6730 C   0  0  0  0  0  0  0  0  0  0  0  0
   58.3920   32.5960   46.8940 C   0  0  0  0  0  0  0  0  0  0  0  0
   58.7720   33.9410   46.9140 C   0  0  0  0  0  0  0  0  0  0  0  0
   58.9100   34.6480   45.7170 C   0  0  0  0  0  0  0  0  0  0  0  0
   58.6680   34.0170   44.4940 C   0  0  0  0  0  0  0  0  0  0  0  0
   58.2860   32.6620   44.4600 C   0  0  0  0  0  0  0  0  0  0  0  0
   57.4660   30.2060   42.3460 H   0  0  0  0  0  0  0  0  0  0  0  0
   56.3820   28.3420   43.6640 H   0  0  0  0  0  0  0  0  0  0  0  0
   55.7470   26.8693   45.9363 H   0  0  0  0  0  0  0  0  0  0  0  0
   56.7353   25.0790   47.3674 H   0  0  0  0  0  0  0  0  0  0  0  0
   59.2083   24.7543   47.4364 H   0  0  0  0  0  0  0  0  0  0  0  0
   60.7006   26.2279   46.0807 H   0  0  0  0  0  0  0  0  0  0  0  0
   59.7214   28.0202   44.6479 H   0  0  0  0  0  0  0  0  0  0  0  0
   57.6480   30.0435   46.5833 H   0  0  0  0  0  0  0  0  0  0  0  0
   58.2832   32.0427   47.8385 H   0  0  0  0  0  0  0  0  0  0  0  0
   58.9627   34.4436   47.8737 H   0  0  0  0  0  0  0  0  0  0  0  0
   59.2105   35.7060   45.7374 H   0  0  0  0  0  0  0  0  0  0  0  0
   58.7762   34.5802   43.5553 H   0  0  0  0  0  0  0  0  0  0  0  0
  1  2  2  0
  2  3  1  0
  3  4  1  0
  4  5  1  0
  5  6  1  0
  6  7  2  0
  7  8  1  0
  8  9  2  0
  9 10  1  0
 10 11  2  0
  4 12  2  0
 12 13  1  0
 13 14  2  0
 14 15  1  0
 15 16  2  0
 16 17  1  0
 17 18  2  0
 18  2  1  0
 11  6  1  0
 18 13  1  0
  3 19  1  0
  5 20  1  0
  7 21  1  0
  8 22  1  0
  9 23  1  0
 10 24  1  0
 11 25  1  0
 12 26  1  0
 14 27  1  0
 15 28  1  0
 16 29  1  0
 17 30  1  0
M  END
>  <UniqueID>  (53) 
46

>  <SMILES>  (53) 
O=c1[nH]c(Nc2ccccc2)cc2ccccc12

>  <Energy>  (53) 
42.79409368501608

>  <Genealogy>  (53) 
O=c1[nH]c(Nc2ccccc2)cc2ccccc12 (3D coordinates assigned)
O=c1[nH]c(Nc2ccccc2)cc2ccccc12 (optimized conformer: 42.79409368501608 kcal/mol)

>  <smiles>  (53) 
O=c1[nH]c(Nc2ccccc2)cc2ccccc12

>  <score_type>  (53) 
oracle

>  <origin>  (53) 
adg

>  <m_score__min__energy>  (53) 
-6.7599999999999998

>  <m_primary>  (53) 
energy

$$$$
53:0
     RDKit          3D

 37 39  0  0  0  0  0  0  0  0999 V2000
   54.7900   29.7130   43.5660 O   0  0  0  0  0  0  0  0  0  0  0  0
   55.8790   30.0180   44.1200 C   0  0  0  0  0  0  0  0  0  0  0  0
   56.7270   31.1040   43.5190 C   0  0  0  0  0  0  0  0  0  0  0  0
   57.3530   31.9150   44.5590 N   0  0  0  0  0  0  0  0  0  0  0  0
   58.5600   31.6950   45.0500 N   0  0  0  0  0  0  0  0  0  0  0  0
   58.7320   32.6870   45.9510 C   0  0  0  0  0  0  0  0  0  0  0  0
   59.9410   32.8510   46.7840 C   0  0  0  0  0  0  0  0  0  0  0  0
   60.1270   34.0180   47.5440 C   0  0  0  0  0  0  0  0  0  0  0  0
   61.2720   34.1770   48.3300 C   0  0  0  0  0  0  0  0  0  0  0  0
   62.2630   33.1800   48.3550 C   0  0  0  0  0  0  0  0  0  0  0  0
   63.4740   33.3300   49.2420 C   0  0  0  0  0  0  0  0  0  0  0  0
   63.5970   32.2080   50.0380 F   0  0  0  0  0  0  0  0  0  0  0  0
   64.6220   33.4720   48.4800 F   0  0  0  0  0  0  0  0  0  0  0  0
   63.3520   34.4470   50.0500 F   0  0  0  0  0  0  0  0  0  0  0  0
   62.0630   32.0030   47.6160 C   0  0  0  0  0  0  0  0  0  0  0  0
   60.9180   31.8440   46.8300 C   0  0  0  0  0  0  0  0  0  0  0  0
   57.6540   33.5010   45.9980 N   0  0  0  0  0  0  0  0  0  0  0  0
   56.8180   32.9880   45.1120 N   0  0  0  0  0  0  0  0  0  0  0  0
   56.3160   29.2560   45.2540 N   0  0  0  0  0  0  0  0  0  0  0  0
   57.6720   28.9010   45.5430 C   0  0  0  0  0  0  0  0  0  0  0  0
   58.5640   28.5490   44.5170 C   0  0  0  0  0  0  0  0  0  0  0  0
   59.8900   28.2230   44.8190 C   0  0  0  0  0  0  0  0  0  0  0  0
   60.3370   28.2660   46.1420 C   0  0  0  0  0  0  0  0  0  0  0  0
   59.4620   28.6490   47.1630 C   0  0  0  0  0  0  0  0  0  0  0  0
   59.9010   28.7060   48.4450 F   0  0  0  0  0  0  0  0  0  0  0  0
   58.1360   28.9750   46.8630 C   0  0  0  0  0  0  0  0  0  0  0  0
   57.5117   30.6460   42.8989 H   0  0  0  0  0  0  0  0  0  0  0  0
   56.0831   31.7537   42.9080 H   0  0  0  0  0  0  0  0  0  0  0  0
   59.3662   34.8122   47.5203 H   0  0  0  0  0  0  0  0  0  0  0  0
   61.3985   35.0883   48.9330 H   0  0  0  0  0  0  0  0  0  0  0  0
   62.8133   31.1996   47.6559 H   0  0  0  0  0  0  0  0  0  0  0  0
   60.7816   30.9235   46.2435 H   0  0  0  0  0  0  0  0  0  0  0  0
   55.8780   33.3840   44.8840 H   0  0  0  0  0  0  0  0  0  0  0  0
   58.2187   28.5297   43.4728 H   0  0  0  0  0  0  0  0  0  0  0  0
   60.5815   27.9325   44.0144 H   0  0  0  0  0  0  0  0  0  0  0  0
   61.3771   27.9986   46.3803 H   0  0  0  0  0  0  0  0  0  0  0  0
   57.4543   29.2908   47.6664 H   0  0  0  0  0  0  0  0  0  0  0  0
  1  2  2  0
  2  3  1  0
  3  4  1  0
  4  5  1  0
  5  6  2  0
  6  7  1  0
  7  8  2  0
  8  9  1  0
  9 10  2  0
 10 11  1  0
 11 12  1  0
 11 13  1  0
 11 14  1  0
 10 15  1  0
 15 16  2  0
  6 17  1  0
 17 18  2  0
  2 19  1  0
 19 20  1  0
 20 21  2  0
 21 22  1  0
 22 23  2  0
 23 24  1  0
 24 25  1  0
 24 26  2  0
 18  4  1  0
 26 20  1  0
 16  7  1  0
  3 27  1  0
  3 28  1  0
  8 29  1  0
  9 30  1  0
 15 31  1  0
 16 32  1  0
 18 33  1  0
 21 34  1  0
 22 35  1  0
 23 36  1  0
 26 37  1  0
M  CHG  2  18   1  19  -1
M  END
>  <UniqueID>  (54) 
47

>  <SMILES>  (54) 
O=C(Cn1nc(-c2ccc(C(F)(F)F)cc2)n[nH+]1)[N-]c1cccc(F)c1

>  <Energy>  (54) 
82.80841655538723

>  <Genealogy>  (54) 
O=C(Cn1nc(-c2ccc(C(F)(F)F)cc2)n[nH+]1)[N-]c1cccc(F)c1 (protonated)
O=C(Cn1nc(-c2ccc(C(F)(F)F)cc2)n[nH+]1)[N-]c1cccc(F)c1 (3D coordinates assigned)
O=C(Cn1nc(-c2ccc(C(F)(F)F)cc2)n[nH+]1)[N-]c1cccc(F)c1 (optimized conformer: 82.80841655538723 kcal/mol)

>  <smiles>  (54) 
O=C(Cn1nnc(-c2ccc(C(F)(F)F)cc2)n1)Nc1cccc(F)c1

>  <score_type>  (54) 
oracle

>  <origin>  (54) 
adg

>  <m_score__min__energy>  (54) 
-7.96

>  <m_primary>  (54) 
energy

$$$$
54:0
     RDKit          3D

 36 36  0  0  0  0  0  0  0  0999 V2000
   63.4950   33.5100   46.7700 C   0  0  0  0  0  0  0  0  0  0  0  0
   62.1450   33.2040   47.2980 N   0  0  0  0  0  0  0  0  0  0  0  0
   62.0050   31.7390   47.4900 C   0  0  0  0  0  0  0  0  0  0  0  0
   62.0200   33.8410   48.6340 C   0  0  0  0  0  0  0  0  0  0  0  0
   61.0510   33.7470   46.4230 C   0  0  0  0  0  0  0  0  0  0  0  0
   59.8000   34.3450   47.1210 C   0  0  0  0  0  0  0  0  0  0  0  0
   58.4690   34.0950   46.3900 C   0  0  0  0  0  0  0  0  0  0  0  0
   58.6340   34.0910   44.8620 C   0  0  0  0  0  0  0  0  0  0  0  0
   58.0180   32.8660   44.2350 C   0  0  0  0  0  0  0  0  0  0  0  0
   57.3960   31.8920   45.0360 C   0  0  0  0  0  0  0  0  0  0  0  0
   56.7980   30.7730   44.4470 C   0  0  0  0  0  0  0  0  0  0  0  0
   56.8130   30.6200   43.0580 C   0  0  0  0  0  0  0  0  0  0  0  0
   57.4240   31.5870   42.2550 C   0  0  0  0  0  0  0  0  0  0  0  0
   58.0220   32.7080   42.8390 C   0  0  0  0  0  0  0  0  0  0  0  0
   64.1896   33.6674   47.6083 H   0  0  0  0  0  0  0  0  0  0  0  0
   63.8474   32.6690   46.1548 H   0  0  0  0  0  0  0  0  0  0  0  0
   63.4503   34.4208   46.1548 H   0  0  0  0  0  0  0  0  0  0  0  0
   61.9832   31.5106   48.5658 H   0  0  0  0  0  0  0  0  0  0  0  0
   61.0700   31.3957   47.0232 H   0  0  0  0  0  0  0  0  0  0  0  0
   62.8581   31.2248   47.0232 H   0  0  0  0  0  0  0  0  0  0  0  0
   62.1688   33.0829   49.4170 H   0  0  0  0  0  0  0  0  0  0  0  0
   62.7807   34.6289   48.7372 H   0  0  0  0  0  0  0  0  0  0  0  0
   61.0180   34.2830   48.7372 H   0  0  0  0  0  0  0  0  0  0  0  0
   61.4909   34.5403   45.8008 H   0  0  0  0  0  0  0  0  0  0  0  0
   60.6724   32.8716   45.8750 H   0  0  0  0  0  0  0  0  0  0  0  0
   59.7260   33.9042   48.1261 H   0  0  0  0  0  0  0  0  0  0  0  0
   59.9452   35.4353   47.1336 H   0  0  0  0  0  0  0  0  0  0  0  0
   58.0702   33.1195   46.7052 H   0  0  0  0  0  0  0  0  0  0  0  0
   57.7825   34.9136   46.6520 H   0  0  0  0  0  0  0  0  0  0  0  0
   58.1458   34.9860   44.4489 H   0  0  0  0  0  0  0  0  0  0  0  0
   59.7102   34.0868   44.6346 H   0  0  0  0  0  0  0  0  0  0  0  0
   57.3796   32.0104   46.1295 H   0  0  0  0  0  0  0  0  0  0  0  0
   56.3152   30.0123   45.0781 H   0  0  0  0  0  0  0  0  0  0  0  0
   56.3439   29.7385   42.5967 H   0  0  0  0  0  0  0  0  0  0  0  0
   57.4345   31.4661   41.1617 H   0  0  0  0  0  0  0  0  0  0  0  0
   58.4974   33.4691   42.2029 H   0  0  0  0  0  0  0  0  0  0  0  0
  1  2  1  0
  2  3  1  0
  2  4  1  0
  2  5  1  0
  5  6  1  0
  6  7  1  0
  7  8  1  0
  8  9  1  0
  9 10  2  0
 10 11  1  0
 11 12  2  0
 12 13  1  0
 13 14  2  0
 14  9  1  0
  1 15  1  0
  1 16  1  0
  1 17  1  0
  3 18  1  0
  3 19  1  0
  3 20  1  0
  4 21  1  0
  4 22  1  0
  4 23  1  0
  5 24  1  0
  5 25  1  0
  6 26  1  0
  6 27  1  0
  7 28  1  0
  7 29  1  0
  8 30  1  0
  8 31  1  0
 10 32  1  0
 11 33  1  0
 12 34  1  0
 13 35  1  0
 14 36  1  0
M  CHG  1   2   1
M  END
>  <UniqueID>  (55) 
48

>  <SMILES>  (55) 
C[N+](C)(C)CCCCc1ccccc1

>  <Energy>  (55) 
39.64717368625322

>  <Genealogy>  (55) 
C[N+](C)(C)CCCCc1ccccc1 (3D coordinates assigned)
C[N+](C)(C)CCCCc1ccccc1 (optimized conformer: 39.64717368625322 kcal/mol)

>  <smiles>  (55) 
C[N+](C)(C)CCCCc1ccccc1

>  <score_type>  (55) 
oracle

>  <origin>  (55) 
adg

>  <m_score__min__energy>  (55) 
-3.8399999999999999

>  <m_primary>  (55) 
energy

$$$$
55:0
     RDKit          3D

 24 24  0  0  0  0  0  0  0  0999 V2000
   59.4500   30.2990   47.4880 C   0  0  0  0  0  0  0  0  0  0  0  0
   58.1730   29.7910   47.1220 O   0  0  0  0  0  0  0  0  0  0  0  0
   57.7490   29.6930   45.7920 C   0  0  0  0  0  0  0  0  0  0  0  0
   57.0710   30.7200   45.2050 N   0  0  0  0  0  0  0  0  0  0  0  0
   56.6490   30.6600   43.9160 C   0  0  0  0  0  0  0  0  0  0  0  0
   56.9140   29.5290   43.1450 C   0  0  0  0  0  0  0  0  0  0  0  0
   57.6090   28.4550   43.7130 C   0  0  0  0  0  0  0  0  0  0  0  0
   57.9010   27.3010   42.8990 C   0  0  0  0  0  0  0  0  0  0  0  0
   58.1350   26.3740   42.2470 N   0  0  0  0  0  0  0  0  0  0  0  0
   58.0220   28.5270   45.0570 C   0  0  0  0  0  0  0  0  0  0  0  0
   58.9280   27.1710   45.8320 S   0  0  0  0  0  0  0  0  0  0  0  0
   57.4780   26.4420   46.6740 C   0  0  0  0  0  0  0  0  0  0  0  0
   56.4580   25.9110   45.6700 C   0  0  0  0  0  0  0  0  0  0  0  0
   55.1720   26.3530   46.0060 O   0  0  0  0  0  0  0  0  0  0  0  0
   59.5312   30.3313   48.5845 H   0  0  0  0  0  0  0  0  0  0  0  0
   60.2352   29.6448   47.0813 H   0  0  0  0  0  0  0  0  0  0  0  0
   59.5712   31.3138   47.0813 H   0  0  0  0  0  0  0  0  0  0  0  0
   56.0970   31.5052   43.4791 H   0  0  0  0  0  0  0  0  0  0  0  0
   56.5794   29.4811   42.0982 H   0  0  0  0  0  0  0  0  0  0  0  0
   57.8152   25.6131   47.3136 H   0  0  0  0  0  0  0  0  0  0  0  0
   56.9956   27.2276   47.2741 H   0  0  0  0  0  0  0  0  0  0  0  0
   56.7156   26.2741   44.6641 H   0  0  0  0  0  0  0  0  0  0  0  0
   56.4755   24.8113   45.6887 H   0  0  0  0  0  0  0  0  0  0  0  0
   55.1160   26.3400   46.9970 H   0  0  0  0  0  0  0  0  0  0  0  0
  1  2  1  0
  2  3  1  0
  3  4  2  0
  4  5  1  0
  5  6  2  0
  6  7  1  0
  7  8  1  0
  8  9  3  0
  7 10  2  0
 10 11  1  0
 11 12  1  0
 12 13  1  0
 13 14  1  0
 10  3  1  0
  1 15  1  0
  1 16  1  0
  1 17  1  0
  5 18  1  0
  6 19  1  0
 12 20  1  0
 12 21  1  0
 13 22  1  0
 13 23  1  0
 14 24  1  0
M  END
>  <UniqueID>  (56) 
49

>  <SMILES>  (56) 
COc1nccc(C#N)c1SCCO

>  <Energy>  (56) 
15.473272325689921

>  <Genealogy>  (56) 
COc1nccc(C#N)c1SCCO (3D coordinates assigned)
COc1nccc(C#N)c1SCCO (optimized conformer: 15.473272325689921 kcal/mol)

>  <smiles>  (56) 
COc1nccc(C#N)c1SCCO

>  <score_type>  (56) 
oracle

>  <origin>  (56) 
adg

>  <m_score__min__energy>  (56) 
-5.2800000000000002

>  <m_primary>  (56) 
energy

$$$$
56:0
     RDKit          3D

 38 40  0  0  0  0  0  0  0  0999 V2000
   59.2153   34.0873   44.0254 H   0  0  0  0  0  0  0  0  0  0  0  0
   59.2780   33.6070   45.0130 C   0  0  0  0  0  0  0  0  0  0  0  0
   59.9480   34.2760   45.9780 C   0  0  0  0  0  0  0  0  0  0  0  0
   61.0400   33.5850   46.7130 C   0  0  0  0  0  0  0  0  0  0  0  0
   60.7360   32.6800   47.7470 C   0  0  0  0  0  0  0  0  0  0  0  0
   59.6864   32.4862   48.0130 H   0  0  0  0  0  0  0  0  0  0  0  0
   61.7600   32.0260   48.4380 C   0  0  0  0  0  0  0  0  0  0  0  0
   61.5139   31.3209   49.2457 H   0  0  0  0  0  0  0  0  0  0  0  0
   63.0950   32.2660   48.1050 C   0  0  0  0  0  0  0  0  0  0  0  0
   64.0870   31.6300   48.7770 F   0  0  0  0  0  0  0  0  0  0  0  0
   63.4090   33.1600   47.0790 C   0  0  0  0  0  0  0  0  0  0  0  0
   64.4607   33.3468   46.8164 H   0  0  0  0  0  0  0  0  0  0  0  0
   62.3890   33.8180   46.3850 C   0  0  0  0  0  0  0  0  0  0  0  0
   62.6421   34.5216   45.5782 H   0  0  0  0  0  0  0  0  0  0  0  0
   59.6440   35.7100   46.3290 C   0  0  0  0  0  0  0  0  0  0  0  0
   59.6201   35.8226   47.4230 H   0  0  0  0  0  0  0  0  0  0  0  0
   60.4236   36.3632   45.9101 H   0  0  0  0  0  0  0  0  0  0  0  0
   58.6664   35.9907   45.9101 H   0  0  0  0  0  0  0  0  0  0  0  0
   58.6190   32.2850   45.1610 C   0  0  0  0  0  0  0  0  0  0  0  0
   59.2560   31.2580   45.7170 O   0  0  0  0  0  0  0  0  0  0  0  0
   58.7050   30.0590   45.8790 C   0  0  0  0  0  0  0  0  0  0  0  0
   59.4550   29.0380   46.4710 C   0  0  0  0  0  0  0  0  0  0  0  0
   60.4875   29.2359   46.7949 H   0  0  0  0  0  0  0  0  0  0  0  0
   58.8980   27.7600   46.6550 C   0  0  0  0  0  0  0  0  0  0  0  0
   59.6120   26.7060   47.2440 O   0  0  0  0  0  0  0  0  0  0  0  0
   60.3810   26.8220   48.4360 C   0  0  0  0  0  0  0  0  0  0  0  0
   59.7203   26.7223   49.3098 H   0  0  0  0  0  0  0  0  0  0  0  0
   61.1425   26.0286   48.4597 H   0  0  0  0  0  0  0  0  0  0  0  0
   60.8746   27.8048   48.4597 H   0  0  0  0  0  0  0  0  0  0  0  0
   57.5840   27.5210   46.2380 C   0  0  0  0  0  0  0  0  0  0  0  0
   57.1437   26.5229   46.3795 H   0  0  0  0  0  0  0  0  0  0  0  0
   56.8220   28.5320   45.6440 C   0  0  0  0  0  0  0  0  0  0  0  0
   55.5200   28.2410   45.2480 O   0  0  0  0  0  0  0  0  0  0  0  0
   57.3770   29.8180   45.4580 C   0  0  0  0  0  0  0  0  0  0  0  0
   56.6720   30.8850   44.8700 C   0  0  0  0  0  0  0  0  0  0  0  0
   55.4840   30.7490   44.4700 O   0  0  0  0  0  0  0  0  0  0  0  0
   57.2990   32.1240   44.7240 C   0  0  0  0  0  0  0  0  0  0  0  0
   56.7595   32.9676   44.2688 H   0  0  0  0  0  0  0  0  0  0  0  0
  1  2  1  0
  2  3  2  0
  3  4  1  0
  4  5  2  0
  5  6  1  0
  5  7  1  0
  7  8  1  0
  7  9  2  0
  9 10  1  0
  9 11  1  0
 11 12  1  0
 11 13  2  0
 13 14  1  0
  3 15  1  0
 15 16  1  0
 15 17  1  0
 15 18  1  0
  2 19  1  0
 19 20  1  0
 20 21  1  0
 21 22  2  0
 22 23  1  0
 22 24  1  0
 24 25  1  0
 25 26  1  0
 26 27  1  0
 26 28  1  0
 26 29  1  0
 24 30  2  0
 30 31  1  0
 30 32  1  0
 32 33  1  0
 32 34  2  0
 34 35  1  0
 35 36  2  0
 35 37  1  0
 37 38  1  0
 13  4  1  0
 37 19  2  0
 34 21  1  0
M  CHG  1  33  -1
M  END
>  <UniqueID>  (57) 
50

>  <SMILES>  (57) 
COc1cc([O-])c2c(=O)cc(/C=C(\C)c3ccc(F)cc3)oc2c1

>  <Energy>  (57) 
53.73533440678344

>  <Genealogy>  (57) 
COc1cc([O-])c2c(=O)cc(C=C(C)c3ccc(F)cc3)oc2c1 (protonated)
COc1cc([O-])c2c(=O)cc(/C=C(\C)c3ccc(F)cc3)oc2c1 (cis-trans isomerization)
COc1cc([O-])c2c(=O)cc(/C=C(\C)c3ccc(F)cc3)oc2c1 (3D coordinates assigned)
COc1cc([O-])c2c(=O)cc(/C=C(\C)c3ccc(F)cc3)oc2c1 (optimized conformer: 53.73533440678344 kcal/mol)

>  <smiles>  (57) 
COc1cc(O)c2c(=O)cc(C=C(C)c3ccc(F)cc3)oc2c1

>  <score_type>  (57) 
oracle

>  <origin>  (57) 
adg

>  <m_score__min__energy>  (57) 
-11.23

>  <m_primary>  (57) 
energy

$$$$
57:0
     RDKit          3D

 39 41  0  0  0  0  0  0  0  0999 V2000
   57.9030   29.6030   46.7310 O   0  0  0  0  0  0  0  0  0  0  0  0
   57.2870   29.6250   45.6310 C   0  0  0  0  0  0  0  0  0  0  0  0
   57.2060   30.8370   44.8700 N   0  0  0  0  0  0  0  0  0  0  0  0
   57.8800   32.0720   45.1510 C   0  0  0  0  0  0  0  0  0  0  0  0
   57.3630   33.2570   44.6140 C   0  0  0  0  0  0  0  0  0  0  0  0
   57.9790   34.4830   44.8790 C   0  0  0  0  0  0  0  0  0  0  0  0
   59.1100   34.5380   45.6990 C   0  0  0  0  0  0  0  0  0  0  0  0
   59.6980   35.7330   45.9520 F   0  0  0  0  0  0  0  0  0  0  0  0
   59.6200   33.3620   46.2630 C   0  0  0  0  0  0  0  0  0  0  0  0
   61.0220   33.4230   47.3180 Cl  0  0  0  0  0  0  0  0  0  0  0  0
   59.0040   32.1340   45.9970 C   0  0  0  0  0  0  0  0  0  0  0  0
   56.6660   28.4380   45.1190 N   0  0  0  0  0  0  0  0  0  0  0  0
   56.8390   27.1270   45.6840 C   0  0  0  0  0  0  0  0  0  0  0  0
   55.7380   26.3180   46.0140 C   0  0  0  0  0  0  0  0  0  0  0  0
   55.9340   25.0570   46.5850 C   0  0  0  0  0  0  0  0  0  0  0  0
   57.2260   24.5960   46.8620 C   0  0  0  0  0  0  0  0  0  0  0  0
   57.3800   23.2850   47.4290 N   0  0  0  0  0  0  0  0  0  0  0  0
   57.3130   22.0350   46.7280 C   0  0  0  0  0  0  0  0  0  0  0  0
   57.4210   20.9490   47.3610 O   0  0  0  0  0  0  0  0  0  0  0  0
   57.0630   22.0160   45.2690 C   0  0  0  0  0  0  0  0  0  0  0  0
   58.0110   21.4780   44.3810 C   0  0  0  0  0  0  0  0  0  0  0  0
   57.7590   21.4660   43.0080 C   0  0  0  0  0  0  0  0  0  0  0  0
   56.5600   21.9920   42.5270 C   0  0  0  0  0  0  0  0  0  0  0  0
   55.6490   22.5100   43.3930 N   0  0  0  0  0  0  0  0  0  0  0  0
   55.8700   22.5350   44.7350 C   0  0  0  0  0  0  0  0  0  0  0  0
   58.3290   25.4010   46.5310 C   0  0  0  0  0  0  0  0  0  0  0  0
   58.1330   26.6620   45.9610 C   0  0  0  0  0  0  0  0  0  0  0  0
   56.4655   33.2228   43.9789 H   0  0  0  0  0  0  0  0  0  0  0  0
   57.5731   35.4070   44.4414 H   0  0  0  0  0  0  0  0  0  0  0  0
   59.3995   31.2132   46.4507 H   0  0  0  0  0  0  0  0  0  0  0  0
   55.9730   28.5550   44.3470 H   0  0  0  0  0  0  0  0  0  0  0  0
   54.7168   26.6789   45.8220 H   0  0  0  0  0  0  0  0  0  0  0  0
   55.0663   24.4225   46.8183 H   0  0  0  0  0  0  0  0  0  0  0  0
   58.9539   21.0654   44.7692 H   0  0  0  0  0  0  0  0  0  0  0  0
   58.4994   21.0455   42.3116 H   0  0  0  0  0  0  0  0  0  0  0  0
   56.3516   21.9877   41.4469 H   0  0  0  0  0  0  0  0  0  0  0  0
   55.1113   22.9636   45.4063 H   0  0  0  0  0  0  0  0  0  0  0  0
   59.3497   25.0377   46.7210 H   0  0  0  0  0  0  0  0  0  0  0  0
   59.0014   27.2955   45.7275 H   0  0  0  0  0  0  0  0  0  0  0  0
  1  2  2  0
  2  3  1  0
  3  4  1  0
  4  5  2  0
  5  6  1  0
  6  7  2  0
  7  8  1  0
  7  9  1  0
  9 10  1  0
  9 11  2  0
  2 12  1  0
 12 13  1  0
 13 14  2  0
 14 15  1  0
 15 16  2  0
 16 17  1  0
 17 18  1  0
 18 19  2  0
 18 20  1  0
 20 21  2  0
 21 22  1  0
 22 23  2  0
 23 24  1  0
 24 25  2  0
 16 26  1  0
 26 27  2  0
 11  4  1  0
 27 13  1  0
 25 20  1  0
  5 28  1  0
  6 29  1  0
 11 30  1  0
 12 31  1  0
 14 32  1  0
 15 33  1  0
 21 34  1  0
 22 35  1  0
 23 36  1  0
 25 37  1  0
 26 38  1  0
 27 39  1  0
M  CHG  2   3  -1  17  -1
M  END
>  <UniqueID>  (58) 
51

>  <SMILES>  (58) 
O=C([N-]c1ccc(F)c(Cl)c1)Nc1ccc([N-]C(=O)c2cccnc2)cc1

>  <Energy>  (58) 
54.17833505355763

>  <Genealogy>  (58) 
O=C([N-]c1ccc(F)c(Cl)c1)Nc1ccc([N-]C(=O)c2cccnc2)cc1 (protonated)
O=C([N-]c1ccc(F)c(Cl)c1)Nc1ccc([N-]C(=O)c2cccnc2)cc1 (3D coordinates assigned)
O=C([N-]c1ccc(F)c(Cl)c1)Nc1ccc([N-]C(=O)c2cccnc2)cc1 (optimized conformer: 54.17833505355763 kcal/mol)

>  <smiles>  (58) 
O=C(Nc1ccc(NC(=O)c2cccnc2)cc1)Nc1ccc(F)c(Cl)c1

>  <score_type>  (58) 
oracle

>  <origin>  (58) 
adg

>  <m_score__min__energy>  (58) 
-11.65

>  <m_primary>  (58) 
energy

$$$$
58:0
     RDKit          3D

 47 50  0  0  0  0  0  0  0  0999 V2000
   56.7440   23.6310   46.9490 C   0  0  0  0  0  0  0  0  0  0  0  0
   57.2400   25.0010   46.5950 C   0  0  0  0  0  0  0  0  0  0  0  0
   56.9450   25.5570   45.3460 C   0  0  0  0  0  0  0  0  0  0  0  0
   57.4320   26.8180   44.9940 C   0  0  0  0  0  0  0  0  0  0  0  0
   58.2420   27.5600   45.8870 C   0  0  0  0  0  0  0  0  0  0  0  0
   58.5660   26.9640   47.1400 C   0  0  0  0  0  0  0  0  0  0  0  0
   58.0650   25.7020   47.4800 C   0  0  0  0  0  0  0  0  0  0  0  0
   59.3770   27.6020   48.0190 N   0  0  0  0  0  0  0  0  0  0  0  0
   59.9020   28.8130   47.7300 C   0  0  0  0  0  0  0  0  0  0  0  0
   60.7580   29.4780   48.6060 C   0  0  0  0  0  0  0  0  0  0  0  0
   61.0300   28.9510   49.7220 O   0  0  0  0  0  0  0  0  0  0  0  0
   61.2980   30.6910   48.2540 N   0  0  0  0  0  0  0  0  0  0  0  0
   62.1840   31.3980   49.1930 C   0  0  0  0  0  0  0  0  0  0  0  0
   60.9580   31.2800   47.0570 C   0  0  0  0  0  0  0  0  0  0  0  0
   61.4170   32.4140   46.7480 O   0  0  0  0  0  0  0  0  0  0  0  0
   60.1220   30.6610   46.1840 N   0  0  0  0  0  0  0  0  0  0  0  0
   59.5730   29.4490   46.4530 C   0  0  0  0  0  0  0  0  0  0  0  0
   58.7290   28.8190   45.5710 N   0  0  0  0  0  0  0  0  0  0  0  0
   58.3960   29.4820   44.2900 C   0  0  0  0  0  0  0  0  0  0  0  0
   56.9860   29.9860   44.3140 C   0  0  0  0  0  0  0  0  0  0  0  0
   56.0910   29.3690   43.6780 O   0  0  0  0  0  0  0  0  0  0  0  0
   56.6580   31.1210   45.1250 N   0  0  0  0  0  0  0  0  0  0  0  0
   57.4740   32.2830   45.3300 C   0  0  0  0  0  0  0  0  0  0  0  0
   58.0290   33.0010   44.2560 C   0  0  0  0  0  0  0  0  0  0  0  0
   58.8420   34.1120   44.4970 C   0  0  0  0  0  0  0  0  0  0  0  0
   59.1150   34.5200   45.8110 C   0  0  0  0  0  0  0  0  0  0  0  0
   60.0150   35.6940   46.0680 C   0  0  0  0  0  0  0  0  0  0  0  0
   58.5920   33.7790   46.8850 C   0  0  0  0  0  0  0  0  0  0  0  0
   58.8730   34.1280   48.1650 F   0  0  0  0  0  0  0  0  0  0  0  0
   57.7800   32.6680   46.6400 C   0  0  0  0  0  0  0  0  0  0  0  0
   56.7061   23.5262   48.0433 H   0  0  0  0  0  0  0  0  0  0  0  0
   55.7365   23.4866   46.5317 H   0  0  0  0  0  0  0  0  0  0  0  0
   57.4255   22.8751   46.5317 H   0  0  0  0  0  0  0  0  0  0  0  0
   56.3230   24.9954   44.6334 H   0  0  0  0  0  0  0  0  0  0  0  0
   57.1827   27.2403   44.0094 H   0  0  0  0  0  0  0  0  0  0  0  0
   58.3227   25.2575   48.4526 H   0  0  0  0  0  0  0  0  0  0  0  0
   61.8876   31.1615   50.2256 H   0  0  0  0  0  0  0  0  0  0  0  0
   63.2235   31.0784   49.0276 H   0  0  0  0  0  0  0  0  0  0  0  0
   62.1031   32.4825   49.0276 H   0  0  0  0  0  0  0  0  0  0  0  0
   59.0807   30.3281   44.1311 H   0  0  0  0  0  0  0  0  0  0  0  0
   58.5004   28.7527   43.4731 H   0  0  0  0  0  0  0  0  0  0  0  0
   57.8225   32.6871   43.2222 H   0  0  0  0  0  0  0  0  0  0  0  0
   59.2703   34.6698   43.6512 H   0  0  0  0  0  0  0  0  0  0  0  0
   60.1268   35.8398   47.1525 H   0  0  0  0  0  0  0  0  0  0  0  0
   61.0016   35.5047   45.6199 H   0  0  0  0  0  0  0  0  0  0  0  0
   59.5760   36.5976   45.6199 H   0  0  0  0  0  0  0  0  0  0  0  0
   57.3775   32.0906   47.4854 H   0  0  0  0  0  0  0  0  0  0  0  0
  1  2  1  0
  2  3  2  0
  3  4  1  0
  4  5  2  0
  5  6  1  0
  6  7  2  0
  6  8  1  0
  8  9  2  0
  9 10  1  0
 10 11  2  0
 10 12  1  0
 12 13  1  0
 12 14  1  0
 14 15  2  0
 14 16  1  0
 16 17  2  0
 17 18  1  0
 18 19  1  0
 19 20  1  0
 20 21  2  0
 20 22  1  0
 22 23  1  0
 23 24  2  0
 24 25  1  0
 25 26  2  0
 26 27  1  0
 26 28  1  0
 28 29  1  0
 28 30  2  0
  7  2  1  0
 17  9  1  0
 30 23  1  0
 18  5  1  0
  1 31  1  0
  1 32  1  0
  1 33  1  0
  3 34  1  0
  4 35  1  0
  7 36  1  0
 13 37  1  0
 13 38  1  0
 13 39  1  0
 19 40  1  0
 19 41  1  0
 24 42  1  0
 25 43  1  0
 27 44  1  0
 27 45  1  0
 27 46  1  0
 30 47  1  0
M  CHG  1  22  -1
M  END
>  <UniqueID>  (59) 
52

>  <SMILES>  (59) 
Cc1ccc2c(c1)nc1c(=O)n(C)c(=O)nc-1n2CC(=O)[N-]c1ccc(C)c(F)c1

>  <Energy>  (59) 
68.05111100321695

>  <Genealogy>  (59) 
Cc1ccc2c(c1)nc1c(=O)n(C)c(=O)nc-1n2CC(=O)[N-]c1ccc(C)c(F)c1 (protonated)
Cc1ccc2c(c1)nc1c(=O)n(C)c(=O)nc-1n2CC(=O)[N-]c1ccc(C)c(F)c1 (3D coordinates assigned)
Cc1ccc2c(c1)nc1c(=O)n(C)c(=O)nc-1n2CC(=O)[N-]c1ccc(C)c(F)c1 (optimized conformer: 68.05111100321695 kcal/mol)

>  <smiles>  (59) 
Cc1ccc2c(c1)nc1c(=O)n(C)c(=O)nc-1n2CC(=O)Nc1ccc(C)c(F)c1

>  <score_type>  (59) 
oracle

>  <origin>  (59) 
adg

>  <m_score__min__energy>  (59) 
-9.8699999999999992

>  <m_primary>  (59) 
energy

$$$$
59:0
     RDKit          3D

 27 28  0  0  0  0  0  0  0  0999 V2000
   58.9160   31.5000   47.9840 C   0  0  0  0  0  0  0  0  0  0  0  0
   58.7580   32.4170   46.8010 C   0  0  0  0  0  0  0  0  0  0  0  0
   58.3460   31.8740   45.5720 C   0  0  0  0  0  0  0  0  0  0  0  0
   58.2010   32.6930   44.4460 C   0  0  0  0  0  0  0  0  0  0  0  0
   57.7710   32.1270   43.1940 C   0  0  0  0  0  0  0  0  0  0  0  0
   57.4250   31.6730   42.1870 N   0  0  0  0  0  0  0  0  0  0  0  0
   58.4730   34.0600   44.5390 C   0  0  0  0  0  0  0  0  0  0  0  0
   58.9010   34.6080   45.7500 C   0  0  0  0  0  0  0  0  0  0  0  0
   59.0650   33.7960   46.8800 C   0  0  0  0  0  0  0  0  0  0  0  0
   59.6410   34.5650   48.4030 S   0  0  0  0  0  0  0  0  0  0  0  0
   61.3270   33.9900   48.1910 C   0  0  0  0  0  0  0  0  0  0  0  0
   61.8630   33.8450   46.9040 C   0  0  0  0  0  0  0  0  0  0  0  0
   63.1780   33.3970   46.7380 C   0  0  0  0  0  0  0  0  0  0  0  0
   63.9630   33.1020   47.8570 C   0  0  0  0  0  0  0  0  0  0  0  0
   63.4360   33.2590   49.1420 C   0  0  0  0  0  0  0  0  0  0  0  0
   62.1220   33.7080   49.3090 C   0  0  0  0  0  0  0  0  0  0  0  0
   58.8161   32.0799   48.9134 H   0  0  0  0  0  0  0  0  0  0  0  0
   58.1386   30.7224   47.9516 H   0  0  0  0  0  0  0  0  0  0  0  0
   59.9088   31.0275   47.9516 H   0  0  0  0  0  0  0  0  0  0  0  0
   58.1358   30.7971   45.4942 H   0  0  0  0  0  0  0  0  0  0  0  0
   58.3499   34.7057   43.6570 H   0  0  0  0  0  0  0  0  0  0  0  0
   59.1111   35.6857   45.8173 H   0  0  0  0  0  0  0  0  0  0  0  0
   61.2489   34.0838   46.0232 H   0  0  0  0  0  0  0  0  0  0  0  0
   63.5945   33.2768   45.7270 H   0  0  0  0  0  0  0  0  0  0  0  0
   64.9956   32.7463   47.7259 H   0  0  0  0  0  0  0  0  0  0  0  0
   64.0548   33.0294   50.0220 H   0  0  0  0  0  0  0  0  0  0  0  0
   61.7119   33.8400   50.3211 H   0  0  0  0  0  0  0  0  0  0  0  0
  1  2  1  0
  2  3  2  0
  3  4  1  0
  4  5  1  0
  5  6  3  0
  4  7  2  0
  7  8  1  0
  8  9  2  0
  9 10  1  0
 10 11  1  0
 11 12  2  0
 12 13  1  0
 13 14  2  0
 14 15  1  0
 15 16  2  0
  9  2  1  0
 16 11  1  0
  1 17  1  0
  1 18  1  0
  1 19  1  0
  3 20  1  0
  7 21  1  0
  8 22  1  0
 12 23  1  0
 13 24  1  0
 14 25  1  0
 15 26  1  0
 16 27  1  0
M  END
>  <UniqueID>  (60) 
53

>  <SMILES>  (60) 
Cc1cc(C#N)ccc1Sc1ccccc1

>  <Energy>  (60) 
23.018700096745395

>  <Genealogy>  (60) 
Cc1cc(C#N)ccc1Sc1ccccc1 (3D coordinates assigned)
Cc1cc(C#N)ccc1Sc1ccccc1 (optimized conformer: 23.018700096745395 kcal/mol)

>  <smiles>  (60) 
Cc1cc(C#N)ccc1Sc1ccccc1

>  <score_type>  (60) 
oracle

>  <origin>  (60) 
adg

>  <m_score__min__energy>  (60) 
-6.4100000000000001

>  <m_primary>  (60) 
energy

$$$$
60:0
     RDKit          3D

 47 50  0  0  0  0  0  0  0  0999 V2000
   54.5290   22.5520   48.2690 C   0  0  0  0  0  0  0  0  0  0  0  0
   55.9250   22.9360   48.4840 N   0  0  0  0  0  0  0  0  0  0  0  0
   56.7840   22.1730   49.3940 C   0  0  0  0  0  0  0  0  0  0  0  0
   56.4630   24.0730   47.7890 C   0  0  0  0  0  0  0  0  0  0  0  0
   57.7410   24.5090   47.9490 N   0  0  0  0  0  0  0  0  0  0  0  0
   57.7600   25.5670   47.1180 C   0  0  0  0  0  0  0  0  0  0  0  0
   58.8380   26.4090   46.8660 C   0  0  0  0  0  0  0  0  0  0  0  0
   58.6400   27.4600   45.9550 C   0  0  0  0  0  0  0  0  0  0  0  0
   57.3850   27.6500   45.3370 C   0  0  0  0  0  0  0  0  0  0  0  0
   57.2200   28.7280   44.4060 N   0  0  0  0  0  0  0  0  0  0  0  0
   56.7150   30.0360   44.7080 C   0  0  0  0  0  0  0  0  0  0  0  0
   55.4910   30.2690   44.5190 O   0  0  0  0  0  0  0  0  0  0  0  0
   57.5960   31.1280   45.1860 C   0  0  0  0  0  0  0  0  0  0  0  0
   58.7220   30.8330   45.9710 C   0  0  0  0  0  0  0  0  0  0  0  0
   59.5660   31.8560   46.4120 C   0  0  0  0  0  0  0  0  0  0  0  0
   59.2990   33.1940   46.0770 C   0  0  0  0  0  0  0  0  0  0  0  0
   60.1840   34.2880   46.5460 C   0  0  0  0  0  0  0  0  0  0  0  0
   59.8660   35.4810   46.2850 O   0  0  0  0  0  0  0  0  0  0  0  0
   61.4320   34.0290   47.3050 C   0  0  0  0  0  0  0  0  0  0  0  0
   61.4780   34.1920   48.7020 C   0  0  0  0  0  0  0  0  0  0  0  0
   62.6560   33.9260   49.4060 C   0  0  0  0  0  0  0  0  0  0  0  0
   63.7940   33.4860   48.7290 C   0  0  0  0  0  0  0  0  0  0  0  0
   63.7550   33.3050   47.3440 C   0  0  0  0  0  0  0  0  0  0  0  0
   62.5800   33.5690   46.6340 C   0  0  0  0  0  0  0  0  0  0  0  0
   58.1510   33.4920   45.3260 C   0  0  0  0  0  0  0  0  0  0  0  0
   57.3070   32.4700   44.8840 C   0  0  0  0  0  0  0  0  0  0  0  0
   56.3410   26.7440   45.6210 C   0  0  0  0  0  0  0  0  0  0  0  0
   56.5840   25.7480   46.5090 N   0  0  0  0  0  0  0  0  0  0  0  0
   55.7440   24.8180   46.9130 N   0  0  0  0  0  0  0  0  0  0  0  0
   54.0324   22.4154   49.2410 H   0  0  0  0  0  0  0  0  0  0  0  0
   54.0145   23.3420   47.7022 H   0  0  0  0  0  0  0  0  0  0  0  0
   54.4909   21.6100   47.7022 H   0  0  0  0  0  0  0  0  0  0  0  0
   56.5175   22.4097   50.4346 H   0  0  0  0  0  0  0  0  0  0  0  0
   56.6432   21.0968   49.2152 H   0  0  0  0  0  0  0  0  0  0  0  0
   57.8361   22.4398   49.2152 H   0  0  0  0  0  0  0  0  0  0  0  0
   59.8086   26.2578   47.3611 H   0  0  0  0  0  0  0  0  0  0  0  0
   59.4710   28.1416   45.7209 H   0  0  0  0  0  0  0  0  0  0  0  0
   58.9415   29.7894   46.2408 H   0  0  0  0  0  0  0  0  0  0  0  0
   60.4456   31.6118   47.0258 H   0  0  0  0  0  0  0  0  0  0  0  0
   60.5821   34.5306   49.2430 H   0  0  0  0  0  0  0  0  0  0  0  0
   62.6859   34.0640   50.4969 H   0  0  0  0  0  0  0  0  0  0  0  0
   64.7209   33.2818   49.2850 H   0  0  0  0  0  0  0  0  0  0  0  0
   64.6510   32.9540   46.8111 H   0  0  0  0  0  0  0  0  0  0  0  0
   62.5528   33.4163   45.5450 H   0  0  0  0  0  0  0  0  0  0  0  0
   57.9140   34.5385   45.0836 H   0  0  0  0  0  0  0  0  0  0  0  0
   56.4108   32.7172   44.2960 H   0  0  0  0  0  0  0  0  0  0  0  0
   55.3585   26.8427   45.1362 H   0  0  0  0  0  0  0  0  0  0  0  0
  1  2  1  0
  2  3  1  0
  2  4  1  0
  4  5  1  0
  5  6  2  0
  6  7  1  0
  7  8  2  0
  8  9  1  0
  9 10  1  0
 10 11  1  0
 11 12  2  0
 11 13  1  0
 13 14  2  0
 14 15  1  0
 15 16  2  0
 16 17  1  0
 17 18  2  0
 17 19  1  0
 19 20  2  0
 20 21  1  0
 21 22  2  0
 22 23  1  0
 23 24  2  0
 16 25  1  0
 25 26  2  0
  9 27  2  0
 27 28  1  0
 28 29  1  0
 29  4  2  0
 28  6  1  0
 26 13  1  0
 24 19  1  0
  1 30  1  0
  1 31  1  0
  1 32  1  0
  3 33  1  0
  3 34  1  0
  3 35  1  0
  7 36  1  0
  8 37  1  0
 14 38  1  0
 15 39  1  0
 20 40  1  0
 21 41  1  0
 22 42  1  0
 23 43  1  0
 24 44  1  0
 25 45  1  0
 26 46  1  0
 27 47  1  0
M  CHG  1  10  -1
M  END
>  <UniqueID>  (61) 
54

>  <SMILES>  (61) 
CN(C)c1nc2ccc([N-]C(=O)c3ccc(C(=O)c4ccccc4)cc3)cn2n1

>  <Energy>  (61) 
99.26937248843439

>  <Genealogy>  (61) 
CN(C)c1nc2ccc([N-]C(=O)c3ccc(C(=O)c4ccccc4)cc3)cn2n1 (protonated)
CN(C)c1nc2ccc([N-]C(=O)c3ccc(C(=O)c4ccccc4)cc3)cn2n1 (3D coordinates assigned)
CN(C)c1nc2ccc([N-]C(=O)c3ccc(C(=O)c4ccccc4)cc3)cn2n1 (optimized conformer: 99.26937248843439 kcal/mol)

>  <smiles>  (61) 
CN(C)c1nc2ccc(NC(=O)c3ccc(C(=O)c4ccccc4)cc3)cn2n1

>  <score_type>  (61) 
oracle

>  <origin>  (61) 
adg

>  <m_score__min__energy>  (61) 
-10.380000000000001

>  <m_primary>  (61) 
energy

$$$$
61:0
     RDKit          3D

 26 27  0  0  0  0  0  0  0  0999 V2000
   56.0120   30.2830   43.9010 N   0  0  0  0  0  0  0  0  0  0  0  0
   56.6860   31.0130   44.4960 C   0  0  0  0  0  0  0  0  0  0  0  0
   57.5240   31.9180   45.2370 C   0  0  0  0  0  0  0  0  0  0  0  0
   57.4840   33.2920   44.9680 C   0  0  0  0  0  0  0  0  0  0  0  0
   58.2970   34.1720   45.6880 C   0  0  0  0  0  0  0  0  0  0  0  0
   59.1640   33.6860   46.6810 C   0  0  0  0  0  0  0  0  0  0  0  0
   60.0150   34.6340   47.4840 C   0  0  0  0  0  0  0  0  0  0  0  0
   61.3860   34.1110   47.6050 N   0  0  0  0  0  0  0  0  0  0  0  0
   62.1020   33.8530   46.4680 C   0  0  0  0  0  0  0  0  0  0  0  0
   63.3930   33.3290   46.5580 C   0  0  0  0  0  0  0  0  0  0  0  0
   63.9300   33.0720   47.7780 N   0  0  0  0  0  0  0  0  0  0  0  0
   63.2280   33.3140   48.9140 C   0  0  0  0  0  0  0  0  0  0  0  0
   61.9340   33.8390   48.8330 C   0  0  0  0  0  0  0  0  0  0  0  0
   61.2880   34.0540   49.8940 O   0  0  0  0  0  0  0  0  0  0  0  0
   59.1940   32.3080   46.9530 C   0  0  0  0  0  0  0  0  0  0  0  0
   58.3800   31.4280   46.2320 C   0  0  0  0  0  0  0  0  0  0  0  0
   56.8114   33.6793   44.1885 H   0  0  0  0  0  0  0  0  0  0  0  0
   58.2578   35.2507   45.4761 H   0  0  0  0  0  0  0  0  0  0  0  0
   60.0425   35.6119   46.9811 H   0  0  0  0  0  0  0  0  0  0  0  0
   59.5820   34.7400   48.4896 H   0  0  0  0  0  0  0  0  0  0  0  0
   61.6600   34.0586   45.4819 H   0  0  0  0  0  0  0  0  0  0  0  0
   63.9720   33.1255   45.6451 H   0  0  0  0  0  0  0  0  0  0  0  0
   64.8960   32.6790   47.8430 H   0  0  0  0  0  0  0  0  0  0  0  0
   63.6753   33.0979   49.8955 H   0  0  0  0  0  0  0  0  0  0  0  0
   59.8608   31.9192   47.7367 H   0  0  0  0  0  0  0  0  0  0  0  0
   58.4120   30.3496   46.4466 H   0  0  0  0  0  0  0  0  0  0  0  0
  1  2  3  0
  2  3  1  0
  3  4  2  0
  4  5  1  0
  5  6  2  0
  6  7  1  0
  7  8  1  0
  8  9  1  0
  9 10  2  0
 10 11  1  0
 11 12  2  0
 12 13  1  0
 13 14  2  0
  6 15  1  0
 15 16  2  0
 16  3  1  0
 13  8  1  0
  4 17  1  0
  5 18  1  0
  7 19  1  0
  7 20  1  0
  9 21  1  0
 10 22  1  0
 11 23  1  0
 12 24  1  0
 15 25  1  0
 16 26  1  0
M  CHG  1  11   1
M  END
>  <UniqueID>  (62) 
55

>  <SMILES>  (62) 
N#Cc1ccc(Cn2cc[nH+]cc2=O)cc1

>  <Energy>  (62) 
27.654605799876258

>  <Genealogy>  (62) 
N#Cc1ccc(Cn2cc[nH+]cc2=O)cc1 (protonated)
N#Cc1ccc(Cn2cc[nH+]cc2=O)cc1 (3D coordinates assigned)
N#Cc1ccc(Cn2cc[nH+]cc2=O)cc1 (optimized conformer: 27.654605799876258 kcal/mol)

>  <smiles>  (62) 
N#Cc1ccc(Cn2ccncc2=O)cc1

>  <score_type>  (62) 
oracle

>  <origin>  (62) 
adg

>  <m_score__min__energy>  (62) 
-4.6900000000000004

>  <m_primary>  (62) 
energy

$$$$
62:0
     RDKit          3D

 36 37  0  0  0  0  0  0  0  0999 V2000
   55.0050   26.0840   45.9840 O   0  0  0  0  0  0  0  0  0  0  0  0
   55.4470   24.9590   45.6310 C   0  0  0  0  0  0  0  0  0  0  0  0
   56.8590   24.7370   45.4380 N   0  0  0  0  0  0  0  0  0  0  0  0
   57.8350   25.6950   46.0010 C   0  0  0  0  0  0  0  0  0  0  0  0
   57.7020   27.0640   45.3730 C   0  0  0  0  0  0  0  0  0  0  0  0
   57.7900   27.2320   43.9800 C   0  0  0  0  0  0  0  0  0  0  0  0
   57.6720   28.5030   43.4100 C   0  0  0  0  0  0  0  0  0  0  0  0
   57.4720   29.6200   44.2250 C   0  0  0  0  0  0  0  0  0  0  0  0
   57.3980   29.4690   45.6110 C   0  0  0  0  0  0  0  0  0  0  0  0
   57.5180   28.2000   46.1850 C   0  0  0  0  0  0  0  0  0  0  0  0
   57.2610   23.6940   44.4670 C   0  0  1  0  0  0  0  0  0  0  0  0
   58.5920   23.0430   44.8960 C   0  0  0  0  0  0  0  0  0  0  0  0
   58.8500   21.7660   44.0880 C   0  0  0  0  0  0  0  0  0  0  0  0
   57.7900   20.7450   44.2610 N   0  0  0  0  0  0  0  0  0  0  0  0
   56.5010   21.2530   44.7770 C   0  0  0  0  0  0  0  0  0  0  0  0
   56.1350   22.6440   44.2170 C   0  0  2  0  0  0  0  0  0  0  0  0
   55.8110   22.5540   42.8500 O   0  0  0  0  0  0  0  0  0  0  0  0
   54.7430   24.1299   45.4667 H   0  0  0  0  0  0  0  0  0  0  0  0
   57.6649   25.7818   47.0843 H   0  0  0  0  0  0  0  0  0  0  0  0
   58.8464   25.3178   45.7894 H   0  0  0  0  0  0  0  0  0  0  0  0
   57.9529   26.3569   43.3338 H   0  0  0  0  0  0  0  0  0  0  0  0
   57.7367   28.6238   42.3186 H   0  0  0  0  0  0  0  0  0  0  0  0
   57.3728   30.6186   43.7746 H   0  0  0  0  0  0  0  0  0  0  0  0
   57.2451   30.3497   46.2521 H   0  0  0  0  0  0  0  0  0  0  0  0
   57.4684   28.0879   47.2782 H   0  0  0  0  0  0  0  0  0  0  0  0
   57.4248   24.1844   43.4961 H   0  0  0  0  0  0  0  0  0  0  0  0
   59.4144   23.7529   44.7235 H   0  0  0  0  0  0  0  0  0  0  0  0
   58.5332   22.7830   45.9632 H   0  0  0  0  0  0  0  0  0  0  0  0
   58.9094   22.0320   43.0223 H   0  0  0  0  0  0  0  0  0  0  0  0
   59.7899   21.3289   44.4562 H   0  0  0  0  0  0  0  0  0  0  0  0
   58.1350   20.0090   44.9220 H   0  0  0  0  0  0  0  0  0  0  0  0
   57.6240   20.2720   43.3420 H   0  0  0  0  0  0  0  0  0  0  0  0
   55.7078   20.5433   44.4994 H   0  0  0  0  0  0  0  0  0  0  0  0
   56.5987   21.3522   45.8682 H   0  0  0  0  0  0  0  0  0  0  0  0
   55.2481   22.9993   44.7621 H   0  0  0  0  0  0  0  0  0  0  0  0
   56.2900   23.2770   42.3700 H   0  0  0  0  0  0  0  0  0  0  0  0
  1  2  2  0
  2  3  1  0
  3  4  1  0
  4  5  1  0
  5  6  2  0
  6  7  1  0
  7  8  2  0
  8  9  1  0
  9 10  2  0
  3 11  1  0
 11 12  1  0
 12 13  1  0
 13 14  1  0
 14 15  1  0
 15 16  1  0
 16 17  1  0
 10  5  1  0
 16 11  1  0
  2 18  1  0
  4 19  1  0
  4 20  1  0
  6 21  1  0
  7 22  1  0
  8 23  1  0
  9 24  1  0
 10 25  1  0
 11 26  1  6
 12 27  1  0
 12 28  1  0
 13 29  1  0
 13 30  1  0
 14 31  1  0
 14 32  1  0
 15 33  1  0
 15 34  1  0
 16 35  1  1
 17 36  1  0
M  CHG  1  14   1
M  END
>  <UniqueID>  (63) 
56

>  <SMILES>  (63) 
O=CN(Cc1ccccc1)[C@H]1CC[NH2+]C[C@@H]1O

>  <Energy>  (63) 
45.04150828490299

>  <Genealogy>  (63) 
O=CN(Cc1ccccc1)C1CC[NH2+]CC1O (protonated)
O=CN(Cc1ccccc1)[C@H]1CC[NH2+]C[C@@H]1O (chirality)
O=CN(Cc1ccccc1)[C@H]1CC[NH2+]C[C@@H]1O (3D coordinates assigned)
O=CN(Cc1ccccc1)[C@H]1CC[NH2+]C[C@@H]1O (nonaromatic ring conformer: 45.04150828490299 kcal/mol)

>  <smiles>  (63) 
O=CN(Cc1ccccc1)C1CCNCC1O

>  <score_type>  (63) 
oracle

>  <origin>  (63) 
adg

>  <m_score__min__energy>  (63) 
-5.54

>  <m_primary>  (63) 
energy

$$$$
63:0
     RDKit          3D

 63 68  0  0  0  0  0  0  0  0999 V2000
   57.1130   32.4630   52.1230 C   0  0  0  0  0  0  0  0  0  0  0  0
   57.9450   33.6060   52.2850 O   0  0  0  0  0  0  0  0  0  0  0  0
   59.3460   33.5650   52.2610 C   0  0  0  0  0  0  0  0  0  0  0  0
   60.1550   33.7490   53.4210 C   0  0  0  0  0  0  0  0  0  0  0  0
   61.5750   33.7430   53.3300 C   0  0  0  0  0  0  0  0  0  0  0  0
   62.2000   33.5030   52.0920 C   0  0  0  0  0  0  0  0  0  0  0  0
   61.3680   33.2910   51.0170 C   0  0  0  0  0  0  0  0  0  0  0  0
   60.0060   33.3550   51.0500 C   0  0  0  0  0  0  0  0  0  0  0  0
   59.4920   33.2800   49.7450 O   0  0  0  0  0  0  0  0  0  0  0  0
   60.6220   33.5290   48.8950 C   0  0  2  0  0  0  0  0  0  0  0  0
   60.6690   33.1340   47.4120 C   0  0  2  0  0  0  0  0  0  0  0  0
   60.2530   31.7460   47.1780 N   0  0  0  0  0  0  0  0  0  0  0  0
   58.9030   31.3020   47.3930 C   0  0  0  0  0  0  0  0  0  0  0  0
   58.0890   32.0510   47.9980 O   0  0  0  0  0  0  0  0  0  0  0  0
   58.4600   29.9640   46.9320 C   0  0  0  0  0  0  0  0  0  0  0  0
   57.8180   29.8200   45.6890 C   0  0  0  0  0  0  0  0  0  0  0  0
   57.3960   28.5620   45.2460 C   0  0  0  0  0  0  0  0  0  0  0  0
   57.6000   27.4250   46.0440 C   0  0  0  0  0  0  0  0  0  0  0  0
   57.2020   26.1150   45.6160 N   0  0  0  0  0  0  0  0  0  0  0  0
   55.9070   25.5260   45.7760 C   0  0  0  0  0  0  0  0  0  0  0  0
   54.7600   26.3320   46.0370 N   0  0  0  0  0  0  0  0  0  0  0  0
   55.7910   24.2730   45.7410 O   0  0  0  0  0  0  0  0  0  0  0  0
   58.2750   27.5580   47.2620 C   0  0  0  0  0  0  0  0  0  0  0  0
   58.6960   28.8150   47.7080 C   0  0  0  0  0  0  0  0  0  0  0  0
   62.1160   33.4590   46.8500 C   0  0  0  0  0  0  0  0  0  0  0  0
   63.3710   33.2930   47.8000 C   0  0  0  0  0  0  0  0  0  0  0  0
   63.1000   33.6700   49.3030 C   0  0  2  0  0  0  0  0  0  0  0  0
   62.9830   35.0740   49.4720 O   0  0  0  0  0  0  0  0  0  0  0  0
   64.1490   33.1730   50.3540 C   0  0  1  0  0  0  0  0  0  0  0  0
   63.7060   33.5740   51.8360 C   0  0  0  0  0  0  0  0  0  0  0  0
   64.3640   31.7130   50.1820 N   0  0  0  0  0  0  0  0  0  0  0  0
   65.5340   31.2070   50.9160 C   0  0  0  0  0  0  0  0  0  0  0  0
   63.1600   30.9130   50.4740 C   0  0  0  0  0  0  0  0  0  0  0  0
   61.9680   31.3950   49.6320 C   0  0  0  0  0  0  0  0  0  0  0  0
   61.8070   32.9580   49.6770 C   0  0  1  0  0  0  0  0  0  0  0  0
   56.8291   32.0730   53.1116 H   0  0  0  0  0  0  0  0  0  0  0  0
   56.2072   32.7448   51.5661 H   0  0  0  0  0  0  0  0  0  0  0  0
   57.6595   31.6876   51.5661 H   0  0  0  0  0  0  0  0  0  0  0  0
   59.6747   33.8976   54.3994 H   0  0  0  0  0  0  0  0  0  0  0  0
   62.1843   33.9260   54.2273 H   0  0  0  0  0  0  0  0  0  0  0  0
   60.5978   34.6131   48.7100 H   0  0  0  0  0  0  0  0  0  0  0  0
   59.9313   33.7300   46.8547 H   0  0  0  0  0  0  0  0  0  0  0  0
   60.9870   31.0150   47.0570 H   0  0  0  0  0  0  0  0  0  0  0  0
   57.6460   30.7052   45.0590 H   0  0  0  0  0  0  0  0  0  0  0  0
   56.9021   28.4632   44.2681 H   0  0  0  0  0  0  0  0  0  0  0  0
   53.9280   26.3030   45.4070 H   0  0  0  0  0  0  0  0  0  0  0  0
   58.4764   26.6665   47.8741 H   0  0  0  0  0  0  0  0  0  0  0  0
   59.2157   28.9057   48.6732 H   0  0  0  0  0  0  0  0  0  0  0  0
   62.2795   32.8004   45.9843 H   0  0  0  0  0  0  0  0  0  0  0  0
   62.0813   34.5402   46.6506 H   0  0  0  0  0  0  0  0  0  0  0  0
   63.6956   32.2427   47.7615 H   0  0  0  0  0  0  0  0  0  0  0  0
   64.1378   33.9914   47.4336 H   0  0  0  0  0  0  0  0  0  0  0  0
   63.0460   35.3140   50.4330 H   0  0  0  0  0  0  0  0  0  0  0  0
   65.1148   33.6717   50.1849 H   0  0  0  0  0  0  0  0  0  0  0  0
   64.2061   32.8923   52.5398 H   0  0  0  0  0  0  0  0  0  0  0  0
   63.9962   34.6260   51.9740 H   0  0  0  0  0  0  0  0  0  0  0  0
   65.3507   31.2863   51.9977 H   0  0  0  0  0  0  0  0  0  0  0  0
   65.7066   30.1538   50.6496 H   0  0  0  0  0  0  0  0  0  0  0  0
   66.4197   31.8025   50.6496 H   0  0  0  0  0  0  0  0  0  0  0  0
   63.3630   29.8573   50.2408 H   0  0  0  0  0  0  0  0  0  0  0  0
   62.9094   31.0282   51.5389 H   0  0  0  0  0  0  0  0  0  0  0  0
   62.1220   31.0840   48.5882 H   0  0  0  0  0  0  0  0  0  0  0  0
   61.0543   30.9478   50.0505 H   0  0  0  0  0  0  0  0  0  0  0  0
  1  2  1  0
  2  3  1  0
  3  4  2  0
  4  5  1  0
  5  6  2  0
  6  7  1  0
  7  8  2  0
  8  9  1  0
  9 10  1  0
 10 11  1  0
 11 12  1  0
 12 13  1  0
 13 14  2  0
 13 15  1  0
 15 16  2  0
 16 17  1  0
 17 18  2  0
 18 19  1  0
 19 20  1  0
 20 21  1  0
 20 22  2  0
 18 23  1  0
 23 24  2  0
 11 25  1  0
 25 26  1  0
 26 27  1  0
 27 28  1  6
 27 29  1  0
 29 30  1  0
 29 31  1  0
 31 32  1  0
 31 33  1  0
 33 34  1  0
 35 34  1  1
  8  3  1  0
 35 10  1  0
 30  6  1  0
 35  7  1  0
 24 15  1  0
 35 27  1  0
  1 36  1  0
  1 37  1  0
  1 38  1  0
  4 39  1  0
  5 40  1  0
 10 41  1  6
 11 42  1  6
 12 43  1  0
 16 44  1  0
 17 45  1  0
 21 46  1  0
 23 47  1  0
 24 48  1  0
 25 49  1  0
 25 50  1  0
 26 51  1  0
 26 52  1  0
 28 53  1  0
 29 54  1  6
 30 55  1  0
 30 56  1  0
 32 57  1  0
 32 58  1  0
 32 59  1  0
 33 60  1  0
 33 61  1  0
 34 62  1  0
 34 63  1  0
M  CHG  2  19  -1  21  -1
M  END
>  <UniqueID>  (64) 
57

>  <SMILES>  (64) 
COc1ccc2c3c1O[C@@H]1[C@H](NC(=O)c4ccc([N-]C([NH-])=O)cc4)CCC4(O)C(C2)N(C)CCC314

>  <Energy>  (64) 
145.6285037359464

>  <Genealogy>  (64) 
COc1ccc2c3c1OC1C(NC(=O)c4ccc([N-]C([NH-])=O)cc4)CCC4(O)C(C2)N(C)CCC314 (protonated)
COc1ccc2c3c1O[C@@H]1[C@H](NC(=O)c4ccc([N-]C([NH-])=O)cc4)CCC4(O)C(C2)N(C)CCC314 (chirality)
COc1ccc2c3c1O[C@@H]1[C@H](NC(=O)c4ccc([N-]C([NH-])=O)cc4)CCC4(O)C(C2)N(C)CCC314 (3D coordinates assigned)
COc1ccc2c3c1O[C@@H]1[C@H](NC(=O)c4ccc([N-]C([NH-])=O)cc4)CCC4(O)C(C2)N(C)CCC314 (nonaromatic ring conformer: 145.6285037359464 kcal/mol)

>  <smiles>  (64) 
COc1ccc2c3c1OC1C(NC(=O)c4ccc(NC(N)=O)cc4)CCC4(O)C(C2)N(C)CCC314

>  <score_type>  (64) 
oracle

>  <origin>  (64) 
adg

>  <m_score__min__energy>  (64) 
-13.619999999999999

>  <m_primary>  (64) 
energy

$$$$
64:0
     RDKit          3D

 60 62  0  0  0  0  0  0  0  0999 V2000
   55.2230   22.5880   48.5490 C   0  0  0  0  0  0  0  0  0  0  0  0
   56.4700   23.3990   48.2110 C   0  0  0  0  0  0  0  0  0  0  0  0
   56.2640   24.1830   47.0350 O   0  0  0  0  0  0  0  0  0  0  0  0
   56.8340   25.4380   46.7670 C   0  0  0  0  0  0  0  0  0  0  0  0
   58.1630   25.7460   47.1190 C   0  0  0  0  0  0  0  0  0  0  0  0
   58.7310   26.9840   46.7790 C   0  0  0  0  0  0  0  0  0  0  0  0
   60.1360   27.2920   47.1410 C   0  0  0  0  0  0  0  0  0  0  0  0
   61.0770   26.8900   46.4030 O   0  0  0  0  0  0  0  0  0  0  0  0
   60.4240   28.0040   48.3530 N   0  0  0  0  0  0  0  0  0  0  0  0
   60.3450   29.4220   48.5680 C   0  0  0  0  0  0  0  0  0  0  0  0
   61.1490   30.2620   47.7870 C   0  0  0  0  0  0  0  0  0  0  0  0
   61.1240   31.6460   47.9790 C   0  0  0  0  0  0  0  0  0  0  0  0
   60.3040   32.2060   48.9650 C   0  0  0  0  0  0  0  0  0  0  0  0
   60.3020   33.9500   49.2090 S   0  0  0  0  0  0  0  0  0  0  0  0
   59.8250   34.2430   50.6040 O   0  0  0  0  0  0  0  0  0  0  0  0
   61.6840   34.5210   49.0440 O   0  0  0  0  0  0  0  0  0  0  0  0
   59.2280   34.7050   48.0700 N   0  0  0  0  0  0  0  0  0  0  0  0
   58.8400   34.2150   46.9250 C   0  0  0  0  0  0  0  0  0  0  0  0
   57.8060   33.2600   46.8240 C   0  0  0  0  0  0  0  0  0  0  0  0
   57.4360   32.7770   45.5680 C   0  0  0  0  0  0  0  0  0  0  0  0
   58.0840   33.2410   44.4250 C   0  0  0  0  0  0  0  0  0  0  0  0
   59.1030   34.1850   44.5540 C   0  0  0  0  0  0  0  0  0  0  0  0
   59.4580   34.6450   45.7860 N   0  0  0  0  0  0  0  0  0  0  0  0
   59.5120   31.3700   49.7640 C   0  0  0  0  0  0  0  0  0  0  0  0
   59.5380   29.9850   49.5750 C   0  0  0  0  0  0  0  0  0  0  0  0
   57.9540   27.9220   46.0800 C   0  0  0  0  0  0  0  0  0  0  0  0
   56.6190   27.6390   45.7380 C   0  0  0  0  0  0  0  0  0  0  0  0
   55.8060   28.5570   45.0510 O   0  0  0  0  0  0  0  0  0  0  0  0
   56.2240   29.8190   44.5300 C   0  0  0  0  0  0  0  0  0  0  0  0
   56.2990   29.7800   43.0070 C   0  0  0  0  0  0  0  0  0  0  0  0
   56.0560   26.4090   46.1050 C   0  0  0  0  0  0  0  0  0  0  0  0
   54.7160   26.1690   45.7680 O   0  0  0  0  0  0  0  0  0  0  0  0
   54.1520   24.8660   45.6130 C   0  0  0  0  0  0  0  0  0  0  0  0
   54.8630   24.1000   44.5030 C   0  0  0  0  0  0  0  0  0  0  0  0
   55.1159   22.5183   49.6416 H   0  0  0  0  0  0  0  0  0  0  0  0
   54.3373   23.0833   48.1246 H   0  0  0  0  0  0  0  0  0  0  0  0
   55.3166   21.5775   48.1246 H   0  0  0  0  0  0  0  0  0  0  0  0
   56.7045   24.0670   49.0529 H   0  0  0  0  0  0  0  0  0  0  0  0
   57.3030   22.7040   48.0290 H   0  0  0  0  0  0  0  0  0  0  0  0
   58.7640   25.0061   47.6679 H   0  0  0  0  0  0  0  0  0  0  0  0
   61.8047   29.8292   47.0171 H   0  0  0  0  0  0  0  0  0  0  0  0
   61.7512   32.2975   47.3528 H   0  0  0  0  0  0  0  0  0  0  0  0
   57.2952   32.8988   47.7288 H   0  0  0  0  0  0  0  0  0  0  0  0
   56.6331   32.0302   45.4804 H   0  0  0  0  0  0  0  0  0  0  0  0
   57.7952   32.8670   43.4317 H   0  0  0  0  0  0  0  0  0  0  0  0
   59.6211   34.5588   43.6586 H   0  0  0  0  0  0  0  0  0  0  0  0
   60.2260   35.3520   45.8490 H   0  0  0  0  0  0  0  0  0  0  0  0
   58.8679   31.8051   50.5423 H   0  0  0  0  0  0  0  0  0  0  0  0
   58.9258   29.3329   50.2153 H   0  0  0  0  0  0  0  0  0  0  0  0
   58.3944   28.8893   45.7966 H   0  0  0  0  0  0  0  0  0  0  0  0
   55.5031   30.5916   44.8356 H   0  0  0  0  0  0  0  0  0  0  0  0
   57.2241   30.0493   44.9258 H   0  0  0  0  0  0  0  0  0  0  0  0
   57.2357   29.2929   42.6984 H   0  0  0  0  0  0  0  0  0  0  0  0
   55.4433   29.2126   42.6122 H   0  0  0  0  0  0  0  0  0  0  0  0
   56.2720   30.8063   42.6122 H   0  0  0  0  0  0  0  0  0  0  0  0
   54.2564   24.3125   46.5579 H   0  0  0  0  0  0  0  0  0  0  0  0
   53.0897   24.9696   45.3470 H   0  0  0  0  0  0  0  0  0  0  0  0
   55.5477   23.3624   44.9470 H   0  0  0  0  0  0  0  0  0  0  0  0
   54.1189   23.5815   43.8806 H   0  0  0  0  0  0  0  0  0  0  0  0
   55.4354   24.8035   43.8806 H   0  0  0  0  0  0  0  0  0  0  0  0
  1  2  1  0
  2  3  1  0
  3  4  1  0
  4  5  2  0
  5  6  1  0
  6  7  1  0
  7  8  2  0
  7  9  1  0
  9 10  1  0
 10 11  2  0
 11 12  1  0
 12 13  2  0
 13 14  1  0
 14 15  2  0
 14 16  2  0
 14 17  1  0
 17 18  2  3
 18 19  1  0
 19 20  2  0
 20 21  1  0
 21 22  2  0
 22 23  1  0
 13 24  1  0
 24 25  2  0
  6 26  2  0
 26 27  1  0
 27 28  1  0
 28 29  1  0
 29 30  1  0
 27 31  2  0
 31 32  1  0
 32 33  1  0
 33 34  1  0
 31  4  1  0
 25 10  1  0
 23 18  1  0
  1 35  1  0
  1 36  1  0
  1 37  1  0
  2 38  1  0
  2 39  1  0
  5 40  1  0
 11 41  1  0
 12 42  1  0
 19 43  1  0
 20 44  1  0
 21 45  1  0
 22 46  1  0
 23 47  1  0
 24 48  1  0
 25 49  1  0
 26 50  1  0
 29 51  1  0
 29 52  1  0
 30 53  1  0
 30 54  1  0
 30 55  1  0
 33 56  1  0
 33 57  1  0
 34 58  1  0
 34 59  1  0
 34 60  1  0
M  CHG  1   9  -1
M  END
>  <UniqueID>  (65) 
58

>  <SMILES>  (65) 
CCOc1cc(C(=O)[N-]c2ccc(S(=O)(=O)N=c3cccc[nH]3)cc2)cc(OCC)c1OCC

>  <Energy>  (65) 
70.95917311403008

>  <Genealogy>  (65) 
CCOc1cc(C(=O)[N-]c2ccc(S(=O)(=O)N=c3cccc[nH]3)cc2)cc(OCC)c1OCC (protonated)
CCOc1cc(C(=O)[N-]c2ccc(S(=O)(=O)N=c3cccc[nH]3)cc2)cc(OCC)c1OCC (3D coordinates assigned)
CCOc1cc(C(=O)[N-]c2ccc(S(=O)(=O)N=c3cccc[nH]3)cc2)cc(OCC)c1OCC (optimized conformer: 70.95917311403008 kcal/mol)

>  <smiles>  (65) 
CCOc1cc(C(=O)Nc2ccc(S(=O)(=O)N=c3cccc[nH]3)cc2)cc(OCC)c1OCC

>  <score_type>  (65) 
oracle

>  <origin>  (65) 
adg

>  <m_score__min__energy>  (65) 
-9.3800000000000008

>  <m_primary>  (65) 
energy

$$$$
65:0
     RDKit          3D

 34 36  0  0  0  0  0  0  0  0999 V2000
   55.9260   26.1030   46.6970 O   0  0  0  0  0  0  0  0  0  0  0  0
   56.5630   27.0530   46.1710 C   0  0  0  0  0  0  0  0  0  0  0  0
   58.0270   27.2250   46.4590 C   0  0  0  0  0  0  0  0  0  0  0  0
   58.4710   28.6070   46.2130 N   0  0  0  0  0  0  0  0  0  0  0  0
   59.5220   29.1640   47.0290 C   0  0  0  0  0  0  0  0  0  0  0  0
   60.7030   28.7440   46.8960 O   0  0  0  0  0  0  0  0  0  0  0  0
   59.2310   30.1990   48.0760 C   0  0  0  0  0  0  0  0  0  0  0  0
   60.4580   31.5480   47.9780 S   0  0  0  0  0  0  0  0  0  0  0  0
   59.4460   32.6170   46.9490 C   0  0  0  0  0  0  0  0  0  0  0  0
   58.0510   32.6050   47.0750 C   0  0  0  0  0  0  0  0  0  0  0  0
   57.2670   33.4360   46.2680 C   0  0  0  0  0  0  0  0  0  0  0  0
   57.8740   34.2750   45.3290 C   0  0  0  0  0  0  0  0  0  0  0  0
   59.2660   34.2810   45.1940 C   0  0  0  0  0  0  0  0  0  0  0  0
   60.0520   33.4520   46.0000 C   0  0  0  0  0  0  0  0  0  0  0  0
   57.8690   29.3830   45.1480 C   0  0  0  0  0  0  0  0  0  0  0  0
   58.5400   30.4680   44.5500 C   0  0  0  0  0  0  0  0  0  0  0  0
   57.9250   31.2080   43.5360 C   0  0  0  0  0  0  0  0  0  0  0  0
   56.6410   30.8730   43.1030 C   0  0  0  0  0  0  0  0  0  0  0  0
   55.9720   29.7870   43.6750 C   0  0  0  0  0  0  0  0  0  0  0  0
   56.5860   29.0370   44.6830 C   0  0  0  0  0  0  0  0  0  0  0  0
   55.9040   27.9190   45.2480 N   0  0  0  0  0  0  0  0  0  0  0  0
   58.2152   26.9722   47.5129 H   0  0  0  0  0  0  0  0  0  0  0  0
   58.5894   26.5592   45.7878 H   0  0  0  0  0  0  0  0  0  0  0  0
   58.2239   30.6099   47.9121 H   0  0  0  0  0  0  0  0  0  0  0  0
   59.2860   29.7322   49.0705 H   0  0  0  0  0  0  0  0  0  0  0  0
   57.5715   31.9412   47.8095 H   0  0  0  0  0  0  0  0  0  0  0  0
   56.1720   33.4293   46.3723 H   0  0  0  0  0  0  0  0  0  0  0  0
   57.2570   34.9302   44.6965 H   0  0  0  0  0  0  0  0  0  0  0  0
   59.7431   34.9389   44.4527 H   0  0  0  0  0  0  0  0  0  0  0  0
   61.1464   33.4550   45.8894 H   0  0  0  0  0  0  0  0  0  0  0  0
   59.5540   30.7344   44.8831 H   0  0  0  0  0  0  0  0  0  0  0  0
   58.4543   32.0566   43.0781 H   0  0  0  0  0  0  0  0  0  0  0  0
   56.1557   31.4634   42.3119 H   0  0  0  0  0  0  0  0  0  0  0  0
   54.9611   29.5220   43.3317 H   0  0  0  0  0  0  0  0  0  0  0  0
  1  2  2  0
  2  3  1  0
  3  4  1  0
  4  5  1  0
  5  6  2  0
  5  7  1  0
  7  8  1  0
  8  9  1  0
  9 10  2  0
 10 11  1  0
 11 12  2  0
 12 13  1  0
 13 14  2  0
  4 15  1  0
 15 16  2  0
 16 17  1  0
 17 18  2  0
 18 19  1  0
 19 20  2  0
 20 21  1  0
 21  2  1  0
 14  9  1  0
 20 15  1  0
  3 22  1  0
  3 23  1  0
  7 24  1  0
  7 25  1  0
 10 26  1  0
 11 27  1  0
 12 28  1  0
 13 29  1  0
 14 30  1  0
 16 31  1  0
 17 32  1  0
 18 33  1  0
 19 34  1  0
M  CHG  1  21  -1
M  END
>  <UniqueID>  (66) 
59

>  <SMILES>  (66) 
O=C1CN(C(=O)CSc2ccccc2)c2ccccc2[N-]1

>  <Energy>  (66) 
38.905249934606644

>  <Genealogy>  (66) 
O=C1CN(C(=O)CSc2ccccc2)c2ccccc2[N-]1 (protonated)
O=C1CN(C(=O)CSc2ccccc2)c2ccccc2[N-]1 (3D coordinates assigned)
O=C1CN(C(=O)CSc2ccccc2)c2ccccc2[N-]1 (nonaromatic ring conformer: 38.905249934606644 kcal/mol)

>  <smiles>  (66) 
O=C1CN(C(=O)CSc2ccccc2)c2ccccc2N1

>  <score_type>  (66) 
oracle

>  <origin>  (66) 
adg

>  <m_score__min__energy>  (66) 
-9.6999999999999993

>  <m_primary>  (66) 
energy

$$$$
66:0
     RDKit          3D

 45 47  0  0  0  0  0  0  0  0999 V2000
   65.5000   32.5420   50.0830 C   0  0  0  0  0  0  0  0  0  0  0  0
   64.9210   33.4160   49.1180 O   0  0  0  0  0  0  0  0  0  0  0  0
   63.5890   33.3430   48.6830 C   0  0  0  0  0  0  0  0  0  0  0  0
   63.2880   32.5270   47.5840 C   0  0  0  0  0  0  0  0  0  0  0  0
   61.9740   32.4160   47.1200 C   0  0  0  0  0  0  0  0  0  0  0  0
   60.9360   33.1110   47.7530 C   0  0  0  0  0  0  0  0  0  0  0  0
   59.5970   32.9400   47.2670 N   0  0  0  0  0  0  0  0  0  0  0  0
   58.9130   33.7510   45.8910 S   0  0  0  0  0  0  0  0  0  0  0  0
   59.9880   34.5380   45.1900 O   0  0  0  0  0  0  0  0  0  0  0  0
   57.8590   34.7040   46.3810 O   0  0  0  0  0  0  0  0  0  0  0  0
   58.1730   32.6110   44.7690 C   0  0  0  0  0  0  0  0  0  0  0  0
   58.2070   32.8320   43.3850 C   0  0  0  0  0  0  0  0  0  0  0  0
   57.6040   31.9200   42.5150 C   0  0  0  0  0  0  0  0  0  0  0  0
   56.9750   30.7770   43.0170 C   0  0  0  0  0  0  0  0  0  0  0  0
   56.9430   30.5320   44.4020 C   0  0  0  0  0  0  0  0  0  0  0  0
   56.2870   29.3150   44.9360 C   0  0  0  0  0  0  0  0  0  0  0  0
   55.1490   28.9690   44.5080 O   0  0  0  0  0  0  0  0  0  0  0  0
   56.9410   28.5200   45.9290 N   0  0  0  0  0  0  0  0  0  0  0  0
   57.4830   27.1970   45.6510 C   0  0  0  0  0  0  0  0  0  0  0  0
   56.3820   26.1880   45.6250 C   0  0  0  0  0  0  0  0  0  0  0  0
   56.5050   24.8660   45.2540 C   0  0  0  0  0  0  0  0  0  0  0  0
   55.2330   24.3680   45.4270 C   0  0  0  0  0  0  0  0  0  0  0  0
   54.8120   22.9490   45.2290 C   0  0  0  0  0  0  0  0  0  0  0  0
   54.4210   25.3350   45.8980 N   0  0  0  0  0  0  0  0  0  0  0  0
   55.1430   26.4120   46.0020 O   0  0  0  0  0  0  0  0  0  0  0  0
   57.5470   31.4620   45.2720 C   0  0  0  0  0  0  0  0  0  0  0  0
   61.2360   33.9430   48.8470 C   0  0  0  0  0  0  0  0  0  0  0  0
   62.5510   34.0630   49.3050 C   0  0  0  0  0  0  0  0  0  0  0  0
   65.2611   32.9026   51.0944 H   0  0  0  0  0  0  0  0  0  0  0  0
   65.0942   31.5283   49.9498 H   0  0  0  0  0  0  0  0  0  0  0  0
   66.5917   32.5204   49.9498 H   0  0  0  0  0  0  0  0  0  0  0  0
   64.0925   31.9692   47.0823 H   0  0  0  0  0  0  0  0  0  0  0  0
   61.7538   31.7781   46.2513 H   0  0  0  0  0  0  0  0  0  0  0  0
   58.7091   33.7246   42.9835 H   0  0  0  0  0  0  0  0  0  0  0  0
   57.6243   32.1022   41.4304 H   0  0  0  0  0  0  0  0  0  0  0  0
   56.5021   30.0647   42.3248 H   0  0  0  0  0  0  0  0  0  0  0  0
   57.9892   27.2087   44.6745 H   0  0  0  0  0  0  0  0  0  0  0  0
   58.2003   26.9279   46.4404 H   0  0  0  0  0  0  0  0  0  0  0  0
   57.4033   24.3364   44.9039 H   0  0  0  0  0  0  0  0  0  0  0  0
   54.6695   22.4688   46.2083 H   0  0  0  0  0  0  0  0  0  0  0  0
   53.8671   22.9220   44.6664 H   0  0  0  0  0  0  0  0  0  0  0  0
   55.5892   22.4110   44.6664 H   0  0  0  0  0  0  0  0  0  0  0  0
   57.5269   31.2843   46.3574 H   0  0  0  0  0  0  0  0  0  0  0  0
   60.4306   34.5026   49.3451 H   0  0  0  0  0  0  0  0  0  0  0  0
   62.7762   34.7232   50.1556 H   0  0  0  0  0  0  0  0  0  0  0  0
  1  2  1  0
  2  3  1  0
  3  4  2  0
  4  5  1  0
  5  6  2  0
  6  7  1  0
  7  8  1  0
  8  9  2  0
  8 10  2  0
  8 11  1  0
 11 12  2  0
 12 13  1  0
 13 14  2  0
 14 15  1  0
 15 16  1  0
 16 17  2  0
 16 18  1  0
 18 19  1  0
 19 20  1  0
 20 21  2  0
 21 22  1  0
 22 23  1  0
 22 24  2  0
 24 25  1  0
 15 26  2  0
  6 27  1  0
 27 28  2  0
 28  3  1  0
 26 11  1  0
 25 20  1  0
  1 29  1  0
  1 30  1  0
  1 31  1  0
  4 32  1  0
  5 33  1  0
 12 34  1  0
 13 35  1  0
 14 36  1  0
 19 37  1  0
 19 38  1  0
 21 39  1  0
 23 40  1  0
 23 41  1  0
 23 42  1  0
 26 43  1  0
 27 44  1  0
 28 45  1  0
M  CHG  2   7  -1  18  -1
M  END
>  <UniqueID>  (67) 
60

>  <SMILES>  (67) 
COc1ccc([N-]S(=O)(=O)c2cccc(C(=O)[N-]Cc3cc(C)no3)c2)cc1

>  <Energy>  (67) 
77.18244794614492

>  <Genealogy>  (67) 
COc1ccc([N-]S(=O)(=O)c2cccc(C(=O)[N-]Cc3cc(C)no3)c2)cc1 (protonated)
COc1ccc([N-]S(=O)(=O)c2cccc(C(=O)[N-]Cc3cc(C)no3)c2)cc1 (3D coordinates assigned)
COc1ccc([N-]S(=O)(=O)c2cccc(C(=O)[N-]Cc3cc(C)no3)c2)cc1 (optimized conformer: 77.18244794614492 kcal/mol)

>  <smiles>  (67) 
COc1ccc(NS(=O)(=O)c2cccc(C(=O)NCc3cc(C)no3)c2)cc1

>  <score_type>  (67) 
oracle

>  <origin>  (67) 
adg

>  <m_score__min__energy>  (67) 
-12.65

>  <m_primary>  (67) 
energy

$$$$
67:0
     RDKit          3D

 41 43  0  0  0  0  0  0  0  0999 V2000
   60.2160   27.2050   46.0110 C   0  0  0  0  0  0  0  0  0  0  0  0
   59.6040   27.9910   44.9960 O   0  0  0  0  0  0  0  0  0  0  0  0
   59.1580   29.3090   45.1740 C   0  0  0  0  0  0  0  0  0  0  0  0
   59.2240   29.9540   46.4160 C   0  0  0  0  0  0  0  0  0  0  0  0
   58.7650   31.2620   46.5410 C   0  0  0  0  0  0  0  0  0  0  0  0
   58.2500   31.9420   45.4310 C   0  0  0  0  0  0  0  0  0  0  0  0
   57.7450   33.3530   45.6150 C   0  0  0  0  0  0  0  0  0  0  0  0
   57.7990   33.7120   47.0430 N   0  0  0  0  0  0  0  0  0  0  0  0
   58.9410   34.5630   47.4320 C   0  0  0  0  0  0  0  0  0  0  0  0
   59.6310   34.0450   48.7190 C   0  0  0  0  0  0  0  0  0  0  0  0
   60.9990   33.6990   48.2680 C   0  0  0  0  0  0  0  0  0  0  0  0
   62.0020   33.0940   49.0330 C   0  0  0  0  0  0  0  0  0  0  0  0
   63.2470   32.8410   48.4360 C   0  0  0  0  0  0  0  0  0  0  0  0
   63.4730   33.1960   47.0940 C   0  0  0  0  0  0  0  0  0  0  0  0
   62.4540   33.8070   46.3460 C   0  0  0  0  0  0  0  0  0  0  0  0
   61.2210   34.0460   46.9580 C   0  0  0  0  0  0  0  0  0  0  0  0
   60.0330   34.6800   46.3350 C   0  0  0  0  0  0  0  0  0  0  0  0
   58.1850   31.2600   44.1920 C   0  0  0  0  0  0  0  0  0  0  0  0
   57.6410   31.9280   42.9580 C   0  0  0  0  0  0  0  0  0  0  0  0
   58.6420   29.9740   44.1060 N   0  0  0  0  0  0  0  0  0  0  0  0
   59.9191   27.5864   46.9991 H   0  0  0  0  0  0  0  0  0  0  0  0
   59.8925   26.1586   45.9095 H   0  0  0  0  0  0  0  0  0  0  0  0
   61.3098   27.2621   45.9095 H   0  0  0  0  0  0  0  0  0  0  0  0
   59.6372   29.4284   47.2895 H   0  0  0  0  0  0  0  0  0  0  0  0
   58.8072   31.7648   47.5185 H   0  0  0  0  0  0  0  0  0  0  0  0
   58.3754   34.0461   45.0386 H   0  0  0  0  0  0  0  0  0  0  0  0
   56.7063   33.4198   45.2593 H   0  0  0  0  0  0  0  0  0  0  0  0
   56.9200   34.2190   47.2940 H   0  0  0  0  0  0  0  0  0  0  0  0
   58.4954   35.5549   47.5977 H   0  0  0  0  0  0  0  0  0  0  0  0
   59.6587   34.8276   49.4916 H   0  0  0  0  0  0  0  0  0  0  0  0
   59.1032   33.1933   49.1728 H   0  0  0  0  0  0  0  0  0  0  0  0
   61.8184   32.8216   50.0828 H   0  0  0  0  0  0  0  0  0  0  0  0
   64.0481   32.3637   49.0194 H   0  0  0  0  0  0  0  0  0  0  0  0
   64.4497   32.9946   46.6297 H   0  0  0  0  0  0  0  0  0  0  0  0
   62.6233   34.0923   45.2972 H   0  0  0  0  0  0  0  0  0  0  0  0
   60.2329   35.7336   46.0903 H   0  0  0  0  0  0  0  0  0  0  0  0
   59.7408   34.2031   45.3878 H   0  0  0  0  0  0  0  0  0  0  0  0
   56.9715   32.7501   43.2510 H   0  0  0  0  0  0  0  0  0  0  0  0
   58.4734   32.3282   42.3605 H   0  0  0  0  0  0  0  0  0  0  0  0
   57.0805   31.1939   42.3605 H   0  0  0  0  0  0  0  0  0  0  0  0
   58.6010   29.4720   43.1950 H   0  0  0  0  0  0  0  0  0  0  0  0
  1  2  1  0
  2  3  1  0
  3  4  2  0
  4  5  1  0
  5  6  2  0
  6  7  1  0
  7  8  1  0
  8  9  1  0
  9 10  1  0
 10 11  1  0
 11 12  2  0
 12 13  1  0
 13 14  2  0
 14 15  1  0
 15 16  2  0
 16 17  1  0
  6 18  1  0
 18 19  1  0
 18 20  2  0
 20  3  1  0
 17  9  1  0
 16 11  1  0
  1 21  1  0
  1 22  1  0
  1 23  1  0
  4 24  1  0
  5 25  1  0
  7 26  1  0
  7 27  1  0
  8 28  1  0
  9 29  1  0
 10 30  1  0
 10 31  1  0
 12 32  1  0
 13 33  1  0
 14 34  1  0
 15 35  1  0
 17 36  1  0
 17 37  1  0
 19 38  1  0
 19 39  1  0
 19 40  1  0
 20 41  1  0
M  CHG  1  20   1
M  END
>  <UniqueID>  (68) 
61

>  <SMILES>  (68) 
COc1ccc(CNC2Cc3ccccc3C2)c(C)[nH+]1

>  <Energy>  (68) 
54.42822911528752

>  <Genealogy>  (68) 
COc1ccc(CNC2Cc3ccccc3C2)c(C)[nH+]1 (protonated)
COc1ccc(CNC2Cc3ccccc3C2)c(C)[nH+]1 (3D coordinates assigned)
COc1ccc(CNC2Cc3ccccc3C2)c(C)[nH+]1 (nonaromatic ring conformer: 54.42822911528752 kcal/mol)

>  <smiles>  (68) 
COc1ccc(CNC2Cc3ccccc3C2)c(C)n1

>  <score_type>  (68) 
oracle

>  <origin>  (68) 
adg

>  <m_score__min__energy>  (68) 
-6.2400000000000002

>  <m_primary>  (68) 
energy

$$$$
68:0
     RDKit          3D

 35 37  0  0  0  0  0  0  0  0999 V2000
   65.1620   33.4000   49.3760 F   0  0  0  0  0  0  0  0  0  0  0  0
   63.9330   33.4790   48.8100 C   0  0  0  0  0  0  0  0  0  0  0  0
   63.7530   33.1020   47.4780 C   0  0  0  0  0  0  0  0  0  0  0  0
   62.4870   33.1830   46.8900 C   0  0  0  0  0  0  0  0  0  0  0  0
   61.3850   33.6390   47.6350 C   0  0  0  0  0  0  0  0  0  0  0  0
   60.0840   33.7360   47.0260 N   0  0  0  0  0  0  0  0  0  0  0  0
   58.8900   33.2360   47.7230 C   0  0  0  0  0  0  0  0  0  0  0  0
   58.1440   32.2410   46.8260 C   0  0  0  0  0  0  0  0  0  0  0  0
   58.0690   32.7200   45.4360 N   0  0  0  0  0  0  0  0  0  0  0  0
   57.4520   31.8770   44.4440 C   0  0  0  0  0  0  0  0  0  0  0  0
   57.6780   32.0790   43.0750 C   0  0  0  0  0  0  0  0  0  0  0  0
   57.0700   31.2180   42.1620 C   0  0  0  0  0  0  0  0  0  0  0  0
   56.2830   30.2020   42.6030 N   0  0  0  0  0  0  0  0  0  0  0  0
   56.0850   30.0060   43.9340 C   0  0  0  0  0  0  0  0  0  0  0  0
   56.6700   30.8340   44.8380 N   0  0  0  0  0  0  0  0  0  0  0  0
   58.5410   34.0740   45.1090 C   0  0  0  0  0  0  0  0  0  0  0  0
   59.9560   34.2770   45.6630 C   0  0  0  0  0  0  0  0  0  0  0  0
   61.5770   34.0240   48.9740 C   0  0  0  0  0  0  0  0  0  0  0  0
   62.8440   33.9410   49.5590 C   0  0  0  0  0  0  0  0  0  0  0  0
   63.0160   34.3070   50.8530 F   0  0  0  0  0  0  0  0  0  0  0  0
   64.6092   32.7404   46.8896 H   0  0  0  0  0  0  0  0  0  0  0  0
   62.3523   32.8884   45.8388 H   0  0  0  0  0  0  0  0  0  0  0  0
   59.1937   32.7329   48.6528 H   0  0  0  0  0  0  0  0  0  0  0  0
   58.2264   34.0810   47.9588 H   0  0  0  0  0  0  0  0  0  0  0  0
   58.6734   31.2769   46.8439 H   0  0  0  0  0  0  0  0  0  0  0  0
   57.1188   32.1316   47.2095 H   0  0  0  0  0  0  0  0  0  0  0  0
   58.3222   32.9004   42.7281 H   0  0  0  0  0  0  0  0  0  0  0  0
   57.2278   31.3616   41.0829 H   0  0  0  0  0  0  0  0  0  0  0  0
   55.8310   29.5600   41.9140 H   0  0  0  0  0  0  0  0  0  0  0  0
   55.4505   29.1762   44.2789 H   0  0  0  0  0  0  0  0  0  0  0  0
   58.5543   34.2025   44.0166 H   0  0  0  0  0  0  0  0  0  0  0  0
   57.8639   34.8142   45.5603 H   0  0  0  0  0  0  0  0  0  0  0  0
   60.6741   33.7645   45.0060 H   0  0  0  0  0  0  0  0  0  0  0  0
   60.1609   35.3571   45.6995 H   0  0  0  0  0  0  0  0  0  0  0  0
   60.7252   34.3926   49.5644 H   0  0  0  0  0  0  0  0  0  0  0  0
  1  2  1  0
  2  3  2  0
  3  4  1  0
  4  5  2  0
  5  6  1  0
  6  7  1  0
  7  8  1  0
  8  9  1  0
  9 10  1  0
 10 11  2  0
 11 12  1  0
 12 13  2  0
 13 14  1  0
 14 15  2  0
  9 16  1  0
 16 17  1  0
  5 18  1  0
 18 19  2  0
 19 20  1  0
 19  2  1  0
 17  6  1  0
 15 10  1  0
  3 21  1  0
  4 22  1  0
  7 23  1  0
  7 24  1  0
  8 25  1  0
  8 26  1  0
 11 27  1  0
 12 28  1  0
 13 29  1  0
 14 30  1  0
 16 31  1  0
 16 32  1  0
 17 33  1  0
 17 34  1  0
 18 35  1  0
M  CHG  1  13   1
M  END
>  <UniqueID>  (69) 
62

>  <SMILES>  (69) 
Fc1ccc(N2CCN(c3cc[nH+]cn3)CC2)cc1F

>  <Energy>  (69) 
45.21055549819884

>  <Genealogy>  (69) 
Fc1ccc(N2CCN(c3cc[nH+]cn3)CC2)cc1F (protonated)
Fc1ccc(N2CCN(c3cc[nH+]cn3)CC2)cc1F (3D coordinates assigned)
Fc1ccc(N2CCN(c3cc[nH+]cn3)CC2)cc1F (nonaromatic ring conformer: 45.21055549819884 kcal/mol)

>  <smiles>  (69) 
Fc1ccc(N2CCN(c3ccncn3)CC2)cc1F

>  <score_type>  (69) 
oracle

>  <origin>  (69) 
adg

>  <m_score__min__energy>  (69) 
-5.7800000000000002

>  <m_primary>  (69) 
energy

$$$$
69:0
     RDKit          3D

 19 20  0  0  0  0  0  0  0  0999 V2000
   57.3370   23.8590   47.6840 N   0  0  0  0  0  0  0  0  0  0  0  0
   57.5840   24.8840   47.2040 C   0  0  0  0  0  0  0  0  0  0  0  0
   57.8900   26.1610   46.6060 C   0  0  0  0  0  0  0  0  0  0  0  0
   59.2160   26.6070   46.6260 C   0  0  0  0  0  0  0  0  0  0  0  0
   59.5580   27.8330   46.0600 C   0  0  0  0  0  0  0  0  0  0  0  0
   58.5780   28.6350   45.4630 C   0  0  0  0  0  0  0  0  0  0  0  0
   58.9310   29.8690   44.8950 C   0  0  0  0  0  0  0  0  0  0  0  0
   57.9600   30.6730   44.2990 C   0  0  0  0  0  0  0  0  0  0  0  0
   56.6290   30.2540   44.2630 C   0  0  0  0  0  0  0  0  0  0  0  0
   56.2600   29.0290   44.8240 C   0  0  0  0  0  0  0  0  0  0  0  0
   57.2260   28.1990   45.4320 C   0  0  0  0  0  0  0  0  0  0  0  0
   56.8840   26.9500   46.0100 C   0  0  0  0  0  0  0  0  0  0  0  0
   55.1680   26.3440   45.9990 S   0  0  0  0  0  0  0  0  0  0  0  0
   59.9942   25.9849   47.0922 H   0  0  0  0  0  0  0  0  0  0  0  0
   60.6039   28.1729   46.0822 H   0  0  0  0  0  0  0  0  0  0  0  0
   59.9786   30.2035   44.9201 H   0  0  0  0  0  0  0  0  0  0  0  0
   58.2435   31.6393   43.8564 H   0  0  0  0  0  0  0  0  0  0  0  0
   55.8671   30.8914   43.7906 H   0  0  0  0  0  0  0  0  0  0  0  0
   55.2081   28.7088   44.7916 H   0  0  0  0  0  0  0  0  0  0  0  0
  1  2  3  0
  2  3  1  0
  3  4  2  0
  4  5  1  0
  5  6  2  0
  6  7  1  0
  7  8  2  0
  8  9  1  0
  9 10  2  0
 10 11  1  0
 11 12  2  0
 12 13  1  0
 12  3  1  0
 11  6  1  0
  4 14  1  0
  5 15  1  0
  7 16  1  0
  8 17  1  0
  9 18  1  0
 10 19  1  0
M  CHG  1  13  -1
M  END
>  <UniqueID>  (70) 
63

>  <SMILES>  (70) 
N#Cc1ccc2ccccc2c1[S-]

>  <Energy>  (70) 
25.823330602612437

>  <Genealogy>  (70) 
N#Cc1ccc2ccccc2c1[S-] (protonated)
N#Cc1ccc2ccccc2c1[S-] (3D coordinates assigned)
N#Cc1ccc2ccccc2c1[S-] (optimized conformer: 25.823330602612437 kcal/mol)

>  <smiles>  (70) 
N#Cc1ccc2ccccc2c1S

>  <score_type>  (70) 
oracle

>  <origin>  (70) 
adg

>  <m_score__min__energy>  (70) 
-7.2800000000000002

>  <m_primary>  (70) 
energy

$$$$
70:0
     RDKit          3D

 38 39  0  0  0  0  0  0  0  0999 V2000
   54.2830   24.8410   45.5880 C   0  0  0  0  0  0  0  0  0  0  0  0
   54.7690   26.1610   45.8170 O   0  0  0  0  0  0  0  0  0  0  0  0
   56.1200   26.4880   46.0080 C   0  0  0  0  0  0  0  0  0  0  0  0
   57.0370   25.5810   46.5740 C   0  0  0  0  0  0  0  0  0  0  0  0
   58.3730   25.9430   46.7490 C   0  0  0  0  0  0  0  0  0  0  0  0
   58.8200   27.2120   46.3590 C   0  0  0  0  0  0  0  0  0  0  0  0
   60.2570   27.6020   46.5770 C   0  0  0  0  0  0  0  0  0  0  0  0
   60.3710   28.4910   47.7280 N   0  0  0  0  0  0  0  0  0  0  0  0
   59.9140   29.8470   47.7290 C   0  0  0  0  0  0  0  0  0  0  0  0
   59.4210   30.3490   48.7760 O   0  0  0  0  0  0  0  0  0  0  0  0
   60.0550   30.6360   46.5400 N   0  0  0  0  0  0  0  0  0  0  0  0
   59.5240   31.9630   46.4010 C   0  0  0  0  0  0  0  0  0  0  0  0
   60.3630   33.0640   46.6270 C   0  0  0  0  0  0  0  0  0  0  0  0
   59.8750   34.3670   46.4860 C   0  0  0  0  0  0  0  0  0  0  0  0
   58.5480   34.5790   46.1010 C   0  0  0  0  0  0  0  0  0  0  0  0
   57.7120   33.4890   45.8460 C   0  0  0  0  0  0  0  0  0  0  0  0
   58.1950   32.1830   45.9870 C   0  0  0  0  0  0  0  0  0  0  0  0
   57.3820   31.1430   45.6720 F   0  0  0  0  0  0  0  0  0  0  0  0
   57.9100   28.1210   45.7990 C   0  0  0  0  0  0  0  0  0  0  0  0
   56.5590   27.7650   45.6210 C   0  0  0  0  0  0  0  0  0  0  0  0
   55.6220   28.6500   45.0650 O   0  0  0  0  0  0  0  0  0  0  0  0
   55.9080   29.5800   44.0250 C   0  0  0  0  0  0  0  0  0  0  0  0
   54.1004   24.3450   46.5527 H   0  0  0  0  0  0  0  0  0  0  0  0
   53.3439   24.8899   45.0173 H   0  0  0  0  0  0  0  0  0  0  0  0
   55.0296   24.2693   45.0173 H   0  0  0  0  0  0  0  0  0  0  0  0
   56.6975   24.5805   46.8801 H   0  0  0  0  0  0  0  0  0  0  0  0
   59.0794   25.2278   47.1958 H   0  0  0  0  0  0  0  0  0  0  0  0
   60.8555   26.6968   46.7569 H   0  0  0  0  0  0  0  0  0  0  0  0
   60.6255   28.1255   45.6825 H   0  0  0  0  0  0  0  0  0  0  0  0
   60.6960   30.2790   45.7970 H   0  0  0  0  0  0  0  0  0  0  0  0
   61.4116   32.9016   46.9170 H   0  0  0  0  0  0  0  0  0  0  0  0
   60.5356   35.2253   46.6781 H   0  0  0  0  0  0  0  0  0  0  0  0
   58.1620   35.6040   45.9988 H   0  0  0  0  0  0  0  0  0  0  0  0
   56.6709   33.6578   45.5334 H   0  0  0  0  0  0  0  0  0  0  0  0
   58.2547   29.1208   45.4962 H   0  0  0  0  0  0  0  0  0  0  0  0
   56.2042   30.5433   44.4658 H   0  0  0  0  0  0  0  0  0  0  0  0
   56.7288   29.1935   43.4030 H   0  0  0  0  0  0  0  0  0  0  0  0
   55.0119   29.7215   43.4030 H   0  0  0  0  0  0  0  0  0  0  0  0
  1  2  1  0
  2  3  1  0
  3  4  2  0
  4  5  1  0
  5  6  2  0
  6  7  1  0
  7  8  1  0
  8  9  1  0
  9 10  2  0
  9 11  1  0
 11 12  1  0
 12 13  2  0
 13 14  1  0
 14 15  2  0
 15 16  1  0
 16 17  2  0
 17 18  1  0
  6 19  1  0
 19 20  2  0
 20 21  1  0
 21 22  1  0
 20  3  1  0
 17 12  1  0
  1 23  1  0
  1 24  1  0
  1 25  1  0
  4 26  1  0
  5 27  1  0
  7 28  1  0
  7 29  1  0
 11 30  1  0
 13 31  1  0
 14 32  1  0
 15 33  1  0
 16 34  1  0
 19 35  1  0
 22 36  1  0
 22 37  1  0
 22 38  1  0
M  CHG  1   8  -1
M  END
>  <UniqueID>  (71) 
64

>  <SMILES>  (71) 
COc1ccc(C[N-]C(=O)Nc2ccccc2F)cc1OC

>  <Energy>  (71) 
39.123541871891376

>  <Genealogy>  (71) 
COc1ccc(C[N-]C(=O)Nc2ccccc2F)cc1OC (protonated)
COc1ccc(C[N-]C(=O)Nc2ccccc2F)cc1OC (3D coordinates assigned)
COc1ccc(C[N-]C(=O)Nc2ccccc2F)cc1OC (optimized conformer: 39.123541871891376 kcal/mol)

>  <smiles>  (71) 
COc1ccc(CNC(=O)Nc2ccccc2F)cc1OC

>  <score_type>  (71) 
oracle

>  <origin>  (71) 
adg

>  <m_score__min__energy>  (71) 
-8.3200000000000003

>  <m_primary>  (71) 
energy

$$$$
71:0
     RDKit          3D

 55 57  0  0  0  0  0  0  0  0999 V2000
   59.4120   28.2880   47.5580 C   0  0  0  0  0  0  0  0  0  0  0  0
   59.0220   29.6470   46.9770 C   0  0  0  0  0  0  0  0  0  0  0  0
   59.5180   29.8400   45.5270 C   0  0  0  0  0  0  0  0  0  0  0  0
   58.4000   30.0700   44.4860 C   0  0  2  0  0  0  0  0  0  0  0  0
   57.5800   31.2300   44.8600 N   0  0  0  0  0  0  0  0  0  0  0  0
   57.8920   32.5520   44.3940 C   0  0  0  0  0  0  0  0  0  0  0  0
   58.5090   32.6920   43.3040 O   0  0  0  0  0  0  0  0  0  0  0  0
   57.4100   33.7710   45.1650 C   0  0  1  0  0  0  0  0  0  0  0  0
   57.2060   33.4830   46.6620 C   0  0  0  0  0  0  0  0  0  0  0  0
   58.5200   33.3330   47.3720 C   0  0  0  0  0  0  0  0  0  0  0  0
   58.5850   32.6140   48.5760 C   0  0  0  0  0  0  0  0  0  0  0  0
   59.7920   32.5090   49.2700 C   0  0  0  0  0  0  0  0  0  0  0  0
   60.9380   33.1350   48.7770 C   0  0  0  0  0  0  0  0  0  0  0  0
   60.8800   33.8690   47.5900 C   0  0  0  0  0  0  0  0  0  0  0  0
   59.6710   33.9870   46.8850 C   0  0  0  0  0  0  0  0  0  0  0  0
   59.6550   34.7370   45.5730 C   0  0  0  0  0  0  0  0  0  0  0  0
   58.3010   34.9400   45.0230 N   0  0  0  0  0  0  0  0  0  0  0  0
   57.5560   28.8320   44.2650 C   0  0  0  0  0  0  0  0  0  0  0  0
   57.9540   27.9210   43.4890 O   0  0  0  0  0  0  0  0  0  0  0  0
   56.2420   28.6880   44.9160 C   0  0  0  0  0  0  0  0  0  0  0  0
   55.3990   29.6240   44.8620 O   0  0  0  0  0  0  0  0  0  0  0  0
   55.9270   27.4790   45.6150 N   0  0  0  0  0  0  0  0  0  0  0  0
   56.9120   26.4380   45.8710 C   0  0  0  0  0  0  0  0  0  0  0  0
   56.5370   25.1970   45.1140 C   0  0  0  0  0  0  0  0  0  0  0  0
   57.3530   24.7240   44.0730 C   0  0  0  0  0  0  0  0  0  0  0  0
   57.0140   23.5530   43.3880 C   0  0  0  0  0  0  0  0  0  0  0  0
   55.8650   22.8410   43.7460 C   0  0  0  0  0  0  0  0  0  0  0  0
   55.0610   23.2920   44.7960 C   0  0  0  0  0  0  0  0  0  0  0  0
   55.3980   24.4630   45.4830 C   0  0  0  0  0  0  0  0  0  0  0  0
   59.3968   28.3409   48.6566 H   0  0  0  0  0  0  0  0  0  0  0  0
   58.6966   27.5248   47.2177 H   0  0  0  0  0  0  0  0  0  0  0  0
   60.4232   28.0203   47.2177 H   0  0  0  0  0  0  0  0  0  0  0  0
   57.9254   29.7329   46.9882 H   0  0  0  0  0  0  0  0  0  0  0  0
   59.4971   30.4219   47.5965 H   0  0  0  0  0  0  0  0  0  0  0  0
   60.1884   30.7119   45.5077 H   0  0  0  0  0  0  0  0  0  0  0  0
   60.0180   28.9023   45.2430 H   0  0  0  0  0  0  0  0  0  0  0  0
   58.8827   30.2876   43.5218 H   0  0  0  0  0  0  0  0  0  0  0  0
   56.8260   31.1260   45.5750 H   0  0  0  0  0  0  0  0  0  0  0  0
   56.4391   34.0141   44.7087 H   0  0  0  0  0  0  0  0  0  0  0  0
   56.6472   34.3156   47.1143 H   0  0  0  0  0  0  0  0  0  0  0  0
   56.6477   32.5404   46.7615 H   0  0  0  0  0  0  0  0  0  0  0  0
   57.6806   32.1310   48.9746 H   0  0  0  0  0  0  0  0  0  0  0  0
   59.8398   31.9327   50.2057 H   0  0  0  0  0  0  0  0  0  0  0  0
   61.8885   33.0502   49.3242 H   0  0  0  0  0  0  0  0  0  0  0  0
   61.7871   34.3578   47.2049 H   0  0  0  0  0  0  0  0  0  0  0  0
   60.1173   35.7226   45.7306 H   0  0  0  0  0  0  0  0  0  0  0  0
   60.2092   34.1253   44.8459 H   0  0  0  0  0  0  0  0  0  0  0  0
   58.3800   35.1970   44.0110 H   0  0  0  0  0  0  0  0  0  0  0  0
   57.9035   26.7825   45.5421 H   0  0  0  0  0  0  0  0  0  0  0  0
   56.9395   26.2162   46.9481 H   0  0  0  0  0  0  0  0  0  0  0  0
   58.2625   25.2771   43.7955 H   0  0  0  0  0  0  0  0  0  0  0  0
   57.6513   23.1919   42.5674 H   0  0  0  0  0  0  0  0  0  0  0  0
   55.5939   21.9251   43.2005 H   0  0  0  0  0  0  0  0  0  0  0  0
   54.1625   22.7259   45.0826 H   0  0  0  0  0  0  0  0  0  0  0  0
   54.7684   24.8103   46.3155 H   0  0  0  0  0  0  0  0  0  0  0  0
  1  2  1  0
  2  3  1  0
  3  4  1  0
  4  5  1  0
  5  6  1  0
  6  7  2  0
  6  8  1  0
  8  9  1  0
  9 10  1  0
 10 11  2  0
 11 12  1  0
 12 13  2  0
 13 14  1  0
 14 15  2  0
 15 16  1  0
 16 17  1  0
  4 18  1  0
 18 19  2  0
 18 20  1  0
 20 21  2  0
 20 22  1  0
 22 23  1  0
 23 24  1  0
 24 25  2  0
 25 26  1  0
 26 27  2  0
 27 28  1  0
 28 29  2  0
 17  8  1  0
 29 24  1  0
 15 10  1  0
  1 30  1  0
  1 31  1  0
  1 32  1  0
  2 33  1  0
  2 34  1  0
  3 35  1  0
  3 36  1  0
  4 37  1  6
  5 38  1  0
  8 39  1  6
  9 40  1  0
  9 41  1  0
 11 42  1  0
 12 43  1  0
 13 44  1  0
 14 45  1  0
 16 46  1  0
 16 47  1  0
 17 48  1  0
 23 49  1  0
 23 50  1  0
 25 51  1  0
 26 52  1  0
 27 53  1  0
 28 54  1  0
 29 55  1  0
M  CHG  1  22  -1
M  END
>  <UniqueID>  (72) 
65

>  <SMILES>  (72) 
CCC[C@H](NC(=O)[C@H]1Cc2ccccc2CN1)C(=O)C(=O)[N-]Cc1ccccc1

>  <Energy>  (72) 
53.9446961962674

>  <Genealogy>  (72) 
CCCC(NC(=O)C1Cc2ccccc2CN1)C(=O)C(=O)[N-]Cc1ccccc1 (protonated)
CCC[C@H](NC(=O)[C@H]1Cc2ccccc2CN1)C(=O)C(=O)[N-]Cc1ccccc1 (chirality)
CCC[C@H](NC(=O)[C@H]1Cc2ccccc2CN1)C(=O)C(=O)[N-]Cc1ccccc1 (3D coordinates assigned)
CCC[C@H](NC(=O)[C@H]1Cc2ccccc2CN1)C(=O)C(=O)[N-]Cc1ccccc1 (nonaromatic ring conformer: 53.9446961962674 kcal/mol)

>  <smiles>  (72) 
CCCC(NC(=O)C1Cc2ccccc2CN1)C(=O)C(=O)NCc1ccccc1

>  <score_type>  (72) 
oracle

>  <origin>  (72) 
adg

>  <m_score__min__energy>  (72) 
-10.51

>  <m_primary>  (72) 
energy

$$$$
72:0
     RDKit          3D

 40 41  0  0  0  0  0  0  0  0999 V2000
   58.1900   21.4850   43.6600 C   0  0  0  0  0  0  0  0  0  0  0  0
   56.5800   22.2290   43.8240 S   0  0  0  0  0  0  0  0  0  0  0  0
   55.9270   22.3020   42.4720 O   0  0  0  0  0  0  0  0  0  0  0  0
   55.7470   21.3620   44.7270 O   0  0  0  0  0  0  0  0  0  0  0  0
   56.7210   23.8300   44.5150 N   0  0  2  0  0  0  0  0  0  0  0  0
   57.0240   24.8180   43.4480 C   0  0  0  0  0  0  0  0  0  0  0  0
   57.7750   26.0730   43.9520 C   0  0  0  0  0  0  0  0  0  0  0  0
   57.5110   26.3990   45.4340 C   0  0  1  0  0  0  0  0  0  0  0  0
   56.1600   27.0430   45.6300 C   0  0  0  0  0  0  0  0  0  0  0  0
   55.2100   26.3950   46.1450 O   0  0  0  0  0  0  0  0  0  0  0  0
   55.9730   28.4100   45.2490 N   0  0  0  0  0  0  0  0  0  0  0  0
   56.6530   29.0310   44.1180 C   0  0  0  0  0  0  0  0  0  0  0  0
   57.2440   30.3520   44.5310 C   0  0  0  0  0  0  0  0  0  0  0  0
   57.7770   30.5280   45.8190 C   0  0  0  0  0  0  0  0  0  0  0  0
   58.3010   31.7660   46.2020 C   0  0  0  0  0  0  0  0  0  0  0  0
   58.2950   32.8390   45.3030 C   0  0  0  0  0  0  0  0  0  0  0  0
   58.9530   34.3930   45.7870 Cl  0  0  0  0  0  0  0  0  0  0  0  0
   57.7610   32.6730   44.0210 C   0  0  0  0  0  0  0  0  0  0  0  0
   57.2360   31.4350   43.6360 C   0  0  0  0  0  0  0  0  0  0  0  0
   57.7040   25.1660   46.3540 C   0  0  0  0  0  0  0  0  0  0  0  0
   57.7380   23.8360   45.5810 C   0  0  0  0  0  0  0  0  0  0  0  0
   58.6081   21.2918   44.6589 H   0  0  0  0  0  0  0  0  0  0  0  0
   58.1013   20.5366   43.1099 H   0  0  0  0  0  0  0  0  0  0  0  0
   58.8549   22.1672   43.1099 H   0  0  0  0  0  0  0  0  0  0  0  0
   55.7890   24.0520   44.9360 H   0  0  0  0  0  0  0  0  0  0  0  0
   57.6453   24.3252   42.6857 H   0  0  0  0  0  0  0  0  0  0  0  0
   56.0590   25.1622   43.0476 H   0  0  0  0  0  0  0  0  0  0  0  0
   58.8545   25.9082   43.8196 H   0  0  0  0  0  0  0  0  0  0  0  0
   57.4055   26.9263   43.3644 H   0  0  0  0  0  0  0  0  0  0  0  0
   58.2706   27.1346   45.7370 H   0  0  0  0  0  0  0  0  0  0  0  0
   57.4566   28.3667   43.7674 H   0  0  0  0  0  0  0  0  0  0  0  0
   55.9264   29.1990   43.3094 H   0  0  0  0  0  0  0  0  0  0  0  0
   57.7820   29.6879   46.5291 H   0  0  0  0  0  0  0  0  0  0  0  0
   58.7186   31.8972   47.2111 H   0  0  0  0  0  0  0  0  0  0  0  0
   57.7539   33.5166   43.3151 H   0  0  0  0  0  0  0  0  0  0  0  0
   56.8149   31.3087   42.6277 H   0  0  0  0  0  0  0  0  0  0  0  0
   58.6537   25.2797   46.8972 H   0  0  0  0  0  0  0  0  0  0  0  0
   56.8418   25.1272   47.0360 H   0  0  0  0  0  0  0  0  0  0  0  0
   58.7334   23.7042   45.1318 H   0  0  0  0  0  0  0  0  0  0  0  0
   57.5242   23.0139   46.2799 H   0  0  0  0  0  0  0  0  0  0  0  0
  1  2  1  0
  2  3  2  0
  2  4  2  0
  2  5  1  0
  5  6  1  0
  6  7  1  0
  7  8  1  0
  8  9  1  0
  9 10  2  0
  9 11  1  0
 11 12  1  0
 12 13  1  0
 13 14  2  0
 14 15  1  0
 15 16  2  0
 16 17  1  0
 16 18  1  0
 18 19  2  0
  8 20  1  0
 20 21  1  0
 21  5  1  0
 19 13  1  0
  1 22  1  0
  1 23  1  0
  1 24  1  0
  5 25  1  1
  6 26  1  0
  6 27  1  0
  7 28  1  0
  7 29  1  0
  8 30  1  1
 12 31  1  0
 12 32  1  0
 14 33  1  0
 15 34  1  0
 18 35  1  0
 19 36  1  0
 20 37  1  0
 20 38  1  0
 21 39  1  0
 21 40  1  0
M  CHG  2   5   1  11  -1
M  END
>  <UniqueID>  (73) 
66

>  <SMILES>  (73) 
CS(=O)(=O)[NH+]1CCC(C(=O)[N-]Cc2ccc(Cl)cc2)CC1

>  <Energy>  (73) 
38.07822912945013

>  <Genealogy>  (73) 
CS(=O)(=O)[NH+]1CCC(C(=O)[N-]Cc2ccc(Cl)cc2)CC1 (protonated)
CS(=O)(=O)[NH+]1CCC(C(=O)[N-]Cc2ccc(Cl)cc2)CC1 (3D coordinates assigned)
CS(=O)(=O)[NH+]1CCC(C(=O)[N-]Cc2ccc(Cl)cc2)CC1 (nonaromatic ring conformer: 38.07822912945013 kcal/mol)

>  <smiles>  (73) 
CS(=O)(=O)N1CCC(C(=O)NCc2ccc(Cl)cc2)CC1

>  <score_type>  (73) 
oracle

>  <origin>  (73) 
adg

>  <m_score__min__energy>  (73) 
-8.8599999999999994

>  <m_primary>  (73) 
energy

$$$$
73:0
     RDKit          3D

 28 29  0  0  0  0  0  0  0  0999 V2000
   59.1240   29.2960   46.5920 C   0  0  0  0  0  0  0  0  0  0  0  0
   58.4760   28.2650   45.7680 N   0  0  0  0  0  0  0  0  0  0  0  0
   59.2640   27.9810   44.5490 C   0  0  0  0  0  0  0  0  0  0  0  0
   58.3810   27.4460   43.4200 C   0  0  0  0  0  0  0  0  0  0  0  0
   57.3910   28.4510   43.0070 N   0  0  0  0  0  0  0  0  0  0  0  0
   56.7830   29.2100   44.1270 C   0  0  2  0  0  0  0  0  0  0  0  0
   57.2020   30.6670   44.1070 C   0  0  0  0  0  0  0  0  0  0  0  0
   57.7580   31.2840   42.9690 C   0  0  0  0  0  0  0  0  0  0  0  0
   58.1370   32.6260   43.0310 C   0  0  0  0  0  0  0  0  0  0  0  0
   57.9620   33.3460   44.2120 C   0  0  0  0  0  0  0  0  0  0  0  0
   57.4050   32.7090   45.3220 C   0  0  0  0  0  0  0  0  0  0  0  0
   57.0420   31.4020   45.2440 N   0  0  0  0  0  0  0  0  0  0  0  0
   57.0470   28.5690   45.5130 C   0  0  0  0  0  0  0  0  0  0  0  0
   58.9763   29.0610   47.6564 H   0  0  0  0  0  0  0  0  0  0  0  0
   60.2007   29.3212   46.3680 H   0  0  0  0  0  0  0  0  0  0  0  0
   58.6798   30.2771   46.3680 H   0  0  0  0  0  0  0  0  0  0  0  0
   59.7494   28.9093   44.2133 H   0  0  0  0  0  0  0  0  0  0  0  0
   60.0124   27.2130   44.7941 H   0  0  0  0  0  0  0  0  0  0  0  0
   59.0145   27.1892   42.5582 H   0  0  0  0  0  0  0  0  0  0  0  0
   57.8471   26.5555   43.7834 H   0  0  0  0  0  0  0  0  0  0  0  0
   56.6360   27.9580   42.4740 H   0  0  0  0  0  0  0  0  0  0  0  0
   55.6956   29.1648   43.9669 H   0  0  0  0  0  0  0  0  0  0  0  0
   57.8924   30.7126   42.0387 H   0  0  0  0  0  0  0  0  0  0  0  0
   58.5738   33.1155   42.1480 H   0  0  0  0  0  0  0  0  0  0  0  0
   58.2594   34.4035   44.2683 H   0  0  0  0  0  0  0  0  0  0  0  0
   57.2599   33.2651   46.2599 H   0  0  0  0  0  0  0  0  0  0  0  0
   56.6962   29.2646   46.2896 H   0  0  0  0  0  0  0  0  0  0  0  0
   56.5067   27.6110   45.5317 H   0  0  0  0  0  0  0  0  0  0  0  0
  1  2  1  0
  2  3  1  0
  3  4  1  0
  4  5  1  0
  5  6  1  0
  6  7  1  0
  7  8  2  0
  8  9  1  0
  9 10  2  0
 10 11  1  0
 11 12  2  0
  6 13  1  0
 13  2  1  0
 12  7  1  0
  1 14  1  0
  1 15  1  0
  1 16  1  0
  3 17  1  0
  3 18  1  0
  4 19  1  0
  4 20  1  0
  5 21  1  0
  6 22  1  6
  8 23  1  0
  9 24  1  0
 10 25  1  0
 11 26  1  0
 13 27  1  0
 13 28  1  0
M  END
>  <UniqueID>  (74) 
67

>  <SMILES>  (74) 
CN1CCN[C@H](c2ccccn2)C1

>  <Energy>  (74) 
40.337043448161666

>  <Genealogy>  (74) 
CN1CCN[C@H](c2ccccn2)C1 (chirality)
CN1CCN[C@H](c2ccccn2)C1 (3D coordinates assigned)
CN1CCN[C@H](c2ccccn2)C1 (nonaromatic ring conformer: 40.337043448161666 kcal/mol)

>  <smiles>  (74) 
CN1CCNC(c2ccccn2)C1

>  <score_type>  (74) 
oracle

>  <origin>  (74) 
adg

>  <m_score__min__energy>  (74) 
-5.5

>  <m_primary>  (74) 
energy

$$$$
74:0
     RDKit          3D

 40 43  0  0  0  0  0  0  0  0999 V2000
   56.2860   31.4290   45.3680 H   0  0  0  0  0  0  0  0  0  0  0  0
   56.2630   30.5860   44.8060 O   0  0  0  0  0  0  0  0  0  0  0  0
   56.6500   29.3650   45.3440 C   0  0  0  0  0  0  0  0  0  0  0  0
   55.9100   28.2350   45.2410 N   0  0  0  0  0  0  0  0  0  0  0  0
   56.6510   27.2980   45.8690 C   0  0  0  0  0  0  0  0  0  0  0  0
   56.3320   25.9490   46.0120 C   0  0  0  0  0  0  0  0  0  0  0  0
   55.3818   25.5484   45.6290 H   0  0  0  0  0  0  0  0  0  0  0  0
   57.2600   25.1150   46.6600 C   0  0  0  0  0  0  0  0  0  0  0  0
   57.0307   24.0484   46.8009 H   0  0  0  0  0  0  0  0  0  0  0  0
   58.4840   25.6370   47.1310 C   0  0  0  0  0  0  0  0  0  0  0  0
   59.2062   24.9719   47.6271 H   0  0  0  0  0  0  0  0  0  0  0  0
   58.7870   27.0000   46.9710 C   0  0  0  0  0  0  0  0  0  0  0  0
   59.7438   27.4150   47.3207 H   0  0  0  0  0  0  0  0  0  0  0  0
   57.8320   27.8090   46.3530 C   0  0  0  0  0  0  0  0  0  0  0  0
   57.8220   29.1510   46.0460 C   0  0  0  0  0  0  0  0  0  0  0  0
   58.8420   30.1280   46.2950 N   0  0  0  0  0  0  0  0  0  0  0  0
   59.0400   30.7280   47.4080 N   0  0  0  0  0  0  0  0  0  0  0  0
   58.6620   32.0800   47.7230 C   0  0  0  0  0  0  0  0  0  0  0  0
   58.2270   32.3260   48.8790 O   0  0  0  0  0  0  0  0  0  0  0  0
   58.8090   33.1990   46.7570 C   0  0  0  0  0  0  0  0  0  0  0  0
   58.1270   33.1350   45.5310 C   0  0  0  0  0  0  0  0  0  0  0  0
   57.4770   32.2753   45.3110 H   0  0  0  0  0  0  0  0  0  0  0  0
   58.2690   34.1540   44.5920 C   0  0  0  0  0  0  0  0  0  0  0  0
   57.7468   34.0956   43.6256 H   0  0  0  0  0  0  0  0  0  0  0  0
   59.0790   35.2480   44.8890 C   0  0  0  0  0  0  0  0  0  0  0  0
   59.2049   36.0555   44.1527 H   0  0  0  0  0  0  0  0  0  0  0  0
   59.7130   35.3170   46.0880 N   0  0  0  0  0  0  0  0  0  0  0  0
   59.6100   34.3330   47.0270 C   0  0  0  0  0  0  0  0  0  0  0  0
   60.1960   34.4560   48.1840 N   0  0  0  0  0  0  0  0  0  0  0  0
   61.5280   34.0430   48.5340 C   0  0  0  0  0  0  0  0  0  0  0  0
   62.3990   33.4550   47.5960 C   0  0  0  0  0  0  0  0  0  0  0  0
   62.0783   33.3344   46.5507 H   0  0  0  0  0  0  0  0  0  0  0  0
   63.6700   33.0240   47.9890 C   0  0  0  0  0  0  0  0  0  0  0  0
   64.3516   32.5787   47.2494 H   0  0  0  0  0  0  0  0  0  0  0  0
   64.0760   33.1580   49.3200 C   0  0  0  0  0  0  0  0  0  0  0  0
   65.6690   32.6110   49.8110 Cl  0  0  0  0  0  0  0  0  0  0  0  0
   63.2040   33.7110   50.2620 C   0  0  0  0  0  0  0  0  0  0  0  0
   63.5183   33.8074   51.3117 H   0  0  0  0  0  0  0  0  0  0  0  0
   61.9320   34.1420   49.8710 C   0  0  0  0  0  0  0  0  0  0  0  0
   61.2439   34.5619   50.6195 H   0  0  0  0  0  0  0  0  0  0  0  0
  1  2  1  0
  2  3  1  0
  3  4  1  0
  4  5  1  0
  5  6  2  0
  6  7  1  0
  6  8  1  0
  8  9  1  0
  8 10  2  0
 10 11  1  0
 10 12  1  0
 12 13  1  0
 12 14  2  0
 14 15  1  0
 15 16  1  0
 16 17  2  3
 17 18  1  0
 18 19  2  0
 18 20  1  0
 20 21  2  0
 21 22  1  0
 21 23  1  0
 23 24  1  0
 23 25  2  0
 25 26  1  0
 25 27  1  0
 27 28  1  0
 28 29  2  0
 29 30  1  0
 30 31  2  0
 31 32  1  0
 31 33  1  0
 33 34  1  0
 33 35  2  0
 35 36  1  0
 35 37  1  0
 37 38  1  0
 37 39  2  0
 39 40  1  0
 15  3  2  0
 28 20  1  0
 39 30  1  0
 14  5  1  0
M  CHG  2   4  -1  27  -1
M  END
>  <UniqueID>  (75) 
68

>  <SMILES>  (75) 
O=C(N=Nc1c(O)[n-]c2ccccc12)c1ccc[n-]/c1=N\c1ccc(Cl)cc1

>  <Energy>  (75) 
98.9763577003265

>  <Genealogy>  (75) 
O=C(N=Nc1c(O)[n-]c2ccccc12)c1ccc[n-]c1=Nc1ccc(Cl)cc1 (protonated)
O=C(N=Nc1c(O)[n-]c2ccccc12)c1ccc[n-]/c1=N\c1ccc(Cl)cc1 (cis-trans isomerization)
O=C(N=Nc1c(O)[n-]c2ccccc12)c1ccc[n-]/c1=N\c1ccc(Cl)cc1 (3D coordinates assigned)
O=C(N=Nc1c(O)[n-]c2ccccc12)c1ccc[n-]/c1=N\c1ccc(Cl)cc1 (optimized conformer: 98.9763577003265 kcal/mol)

>  <smiles>  (75) 
O=C(N=Nc1c(O)[nH]c2ccccc12)c1ccc[nH]c1=Nc1ccc(Cl)cc1

>  <score_type>  (75) 
oracle

>  <origin>  (75) 
adg

>  <m_score__min__energy>  (75) 
-11.82

>  <m_primary>  (75) 
energy

$$$$
75:0
     RDKit          3D

 36 38  0  0  0  0  0  0  0  0999 V2000
   57.8130   32.6800   43.7170 C   0  0  0  0  0  0  0  0  0  0  0  0
   57.4710   31.2010   43.6500 C   0  0  0  0  0  0  0  0  0  0  0  0
   57.1550   30.7260   44.9540 O   0  0  0  0  0  0  0  0  0  0  0  0
   56.6440   29.4480   45.1880 C   0  0  0  0  0  0  0  0  0  0  0  0
   55.4610   29.1670   44.8550 O   0  0  0  0  0  0  0  0  0  0  0  0
   57.4930   28.4210   45.8260 C   0  0  0  0  0  0  0  0  0  0  0  0
   58.8100   28.5660   46.2800 C   0  0  0  0  0  0  0  0  0  0  0  0
   59.7060   29.7320   46.1380 C   0  0  0  0  0  0  0  0  0  0  0  0
   60.6670   29.6550   45.3260 O   0  0  0  0  0  0  0  0  0  0  0  0
   59.4840   30.9960   46.8820 C   0  0  0  0  0  0  0  0  0  0  0  0
   59.7950   32.2300   46.2820 C   0  0  0  0  0  0  0  0  0  0  0  0
   59.5880   33.4260   46.9750 C   0  0  0  0  0  0  0  0  0  0  0  0
   59.0610   33.4050   48.2690 C   0  0  0  0  0  0  0  0  0  0  0  0
   58.7340   32.1870   48.8680 C   0  0  0  0  0  0  0  0  0  0  0  0
   58.9370   30.9880   48.1790 C   0  0  0  0  0  0  0  0  0  0  0  0
   59.1660   27.3750   46.8980 C   0  0  0  0  0  0  0  0  0  0  0  0
   58.1350   26.5170   46.8180 N   0  0  0  0  0  0  0  0  0  0  0  0
   58.0490   25.2490   47.2910 C   0  0  0  0  0  0  0  0  0  0  0  0
   56.8420   24.5610   47.1020 C   0  0  0  0  0  0  0  0  0  0  0  0
   55.8050   25.1830   46.4660 N   0  0  0  0  0  0  0  0  0  0  0  0
   55.9100   26.4600   45.9970 C   0  0  0  0  0  0  0  0  0  0  0  0
   57.1240   27.1300   46.1780 C   0  0  0  0  0  0  0  0  0  0  0  0
   57.8852   32.9923   44.7692 H   0  0  0  0  0  0  0  0  0  0  0  0
   58.7757   32.8568   43.2151 H   0  0  0  0  0  0  0  0  0  0  0  0
   57.0256   33.2615   43.2151 H   0  0  0  0  0  0  0  0  0  0  0  0
   56.6055   31.0548   42.9871 H   0  0  0  0  0  0  0  0  0  0  0  0
   58.3336   30.6434   43.2564 H   0  0  0  0  0  0  0  0  0  0  0  0
   60.2037   32.2537   45.2610 H   0  0  0  0  0  0  0  0  0  0  0  0
   59.8405   34.3859   46.5007 H   0  0  0  0  0  0  0  0  0  0  0  0
   58.9040   34.3469   48.8150 H   0  0  0  0  0  0  0  0  0  0  0  0
   58.3154   32.1710   49.8851 H   0  0  0  0  0  0  0  0  0  0  0  0
   58.6678   30.0326   48.6530 H   0  0  0  0  0  0  0  0  0  0  0  0
   60.1349   27.1674   47.3757 H   0  0  0  0  0  0  0  0  0  0  0  0
   58.8981   24.7758   47.8059 H   0  0  0  0  0  0  0  0  0  0  0  0
   56.7308   23.5280   47.4632 H   0  0  0  0  0  0  0  0  0  0  0  0
   55.0641   26.9484   45.4911 H   0  0  0  0  0  0  0  0  0  0  0  0
  1  2  1  0
  2  3  1  0
  3  4  1  0
  4  5  2  0
  4  6  1  0
  6  7  1  0
  7  8  1  0
  8  9  2  0
  8 10  1  0
 10 11  2  0
 11 12  1  0
 12 13  2  0
 13 14  1  0
 14 15  2  0
  7 16  2  0
 16 17  1  0
 17 18  1  0
 18 19  2  0
 19 20  1  0
 20 21  2  0
 21 22  1  0
 22  6  2  0
 15 10  1  0
 22 17  1  0
  1 23  1  0
  1 24  1  0
  1 25  1  0
  2 26  1  0
  2 27  1  0
 11 28  1  0
 12 29  1  0
 13 30  1  0
 14 31  1  0
 15 32  1  0
 16 33  1  0
 18 34  1  0
 19 35  1  0
 21 36  1  0
M  END
>  <UniqueID>  (76) 
69

>  <SMILES>  (76) 
CCOC(=O)c1c(C(=O)c2ccccc2)cn2ccncc12

>  <Energy>  (76) 
74.79343638637069

>  <Genealogy>  (76) 
CCOC(=O)c1c(C(=O)c2ccccc2)cn2ccncc12 (3D coordinates assigned)
CCOC(=O)c1c(C(=O)c2ccccc2)cn2ccncc12 (optimized conformer: 74.79343638637069 kcal/mol)

>  <smiles>  (76) 
CCOC(=O)c1c(C(=O)c2ccccc2)cn2ccncc12

>  <score_type>  (76) 
oracle

>  <origin>  (76) 
adg

>  <m_score__min__energy>  (76) 
-6.8799999999999999

>  <m_primary>  (76) 
energy

$$$$
76:0
     RDKit          3D

 47 49  0  0  0  0  0  0  0  0999 V2000
   57.4080   34.2180   44.8960 C   0  0  0  0  0  0  0  0  0  0  0  0
   57.1400   33.5020   46.2200 C   0  0  0  0  0  0  0  0  0  0  0  0
   58.1850   32.5080   46.5310 N   0  0  0  0  0  0  0  0  0  0  0  0
   58.2090   31.2330   45.8380 C   0  0  0  0  0  0  0  0  0  0  0  0
   59.3610   30.4210   45.8290 C   0  0  0  0  0  0  0  0  0  0  0  0
   59.3450   29.2030   45.1470 C   0  0  0  0  0  0  0  0  0  0  0  0
   58.1860   28.7840   44.4850 C   0  0  0  0  0  0  0  0  0  0  0  0
   58.1710   27.4960   43.7160 C   0  0  0  0  0  0  0  0  0  0  0  0
   57.0650   29.6210   44.4960 C   0  0  0  0  0  0  0  0  0  0  0  0
   57.1020   30.8030   45.1660 N   0  0  0  0  0  0  0  0  0  0  0  0
   58.9400   32.6770   47.7460 C   0  0  0  0  0  0  0  0  0  0  0  0
   58.5130   31.9960   48.8940 C   0  0  0  0  0  0  0  0  0  0  0  0
   59.1720   32.1640   50.1200 C   0  0  0  0  0  0  0  0  0  0  0  0
   58.6680   31.5230   51.3120 N   0  0  0  0  0  0  0  0  0  0  0  0
   57.3700   32.0880   51.7150 C   0  0  0  0  0  0  0  0  0  0  0  0
   56.3920   31.0140   52.0950 C   0  0  0  0  0  0  0  0  0  0  0  0
   55.0550   31.2030   52.3800 C   0  0  0  0  0  0  0  0  0  0  0  0
   54.5450   29.9450   52.6150 C   0  0  0  0  0  0  0  0  0  0  0  0
   55.6010   29.0690   52.4620 C   0  0  0  0  0  0  0  0  0  0  0  0
   56.6890   29.7370   52.1520 O   0  0  0  0  0  0  0  0  0  0  0  0
   60.2800   33.0180   50.1860 C   0  0  0  0  0  0  0  0  0  0  0  0
   60.7260   33.6890   49.0470 C   0  0  0  0  0  0  0  0  0  0  0  0
   60.0680   33.5370   47.8120 C   0  0  0  0  0  0  0  0  0  0  0  0
   60.5490   34.2720   46.6640 N   0  0  0  0  0  0  0  0  0  0  0  0
   61.5370   33.8860   46.0080 O   0  0  0  0  0  0  0  0  0  0  0  0
   59.9190   35.4320   46.2710 O   0  0  0  0  0  0  0  0  0  0  0  0
   57.7871   35.2308   45.0971 H   0  0  0  0  0  0  0  0  0  0  0  0
   58.1560   33.6543   44.3192 H   0  0  0  0  0  0  0  0  0  0  0  0
   56.4737   34.2840   44.3192 H   0  0  0  0  0  0  0  0  0  0  0  0
   57.1079   34.2483   47.0274 H   0  0  0  0  0  0  0  0  0  0  0  0
   56.1808   32.9709   46.1315 H   0  0  0  0  0  0  0  0  0  0  0  0
   60.2694   30.7458   46.3575 H   0  0  0  0  0  0  0  0  0  0  0  0
   60.2455   28.5715   45.1301 H   0  0  0  0  0  0  0  0  0  0  0  0
   58.1611   26.6496   44.4185 H   0  0  0  0  0  0  0  0  0  0  0  0
   57.2723   27.4574   43.0828 H   0  0  0  0  0  0  0  0  0  0  0  0
   59.0685   27.4365   43.0828 H   0  0  0  0  0  0  0  0  0  0  0  0
   56.1515   29.3218   43.9612 H   0  0  0  0  0  0  0  0  0  0  0  0
   57.6478   31.3195   48.8322 H   0  0  0  0  0  0  0  0  0  0  0  0
   58.5740   30.4900   51.1630 H   0  0  0  0  0  0  0  0  0  0  0  0
   59.3510   31.6610   52.0930 H   0  0  0  0  0  0  0  0  0  0  0  0
   57.5228   32.7528   52.5779 H   0  0  0  0  0  0  0  0  0  0  0  0
   56.9562   32.6422   50.8596 H   0  0  0  0  0  0  0  0  0  0  0  0
   54.5105   32.1582   52.4127 H   0  0  0  0  0  0  0  0  0  0  0  0
   53.5064   29.6901   52.8725 H   0  0  0  0  0  0  0  0  0  0  0  0
   55.5406   27.9772   52.5815 H   0  0  0  0  0  0  0  0  0  0  0  0
   60.8027   33.1608   51.1433 H   0  0  0  0  0  0  0  0  0  0  0  0
   61.6051   34.3467   49.1151 H   0  0  0  0  0  0  0  0  0  0  0  0
  1  2  1  0
  2  3  1  0
  3  4  1  0
  4  5  2  0
  5  6  1  0
  6  7  2  0
  7  8  1  0
  7  9  1  0
  9 10  2  0
  3 11  1  0
 11 12  2  0
 12 13  1  0
 13 14  1  0
 14 15  1  0
 15 16  1  0
 16 17  2  0
 17 18  1  0
 18 19  2  0
 19 20  1  0
 13 21  2  0
 21 22  1  0
 22 23  2  0
 23 24  1  0
 24 25  2  0
 24 26  1  0
 10  4  1  0
 23 11  1  0
 20 16  1  0
  1 27  1  0
  1 28  1  0
  1 29  1  0
  2 30  1  0
  2 31  1  0
  5 32  1  0
  6 33  1  0
  8 34  1  0
  8 35  1  0
  8 36  1  0
  9 37  1  0
 12 38  1  0
 14 39  1  0
 14 40  1  0
 15 41  1  0
 15 42  1  0
 17 43  1  0
 18 44  1  0
 19 45  1  0
 21 46  1  0
 22 47  1  0
M  CHG  3  14   1  24   1  26  -1
M  END
>  <UniqueID>  (77) 
70

>  <SMILES>  (77) 
CCN(c1ccc(C)cn1)c1cc([NH2+]Cc2ccco2)ccc1[N+](=O)[O-]

>  <Energy>  (77) 
83.03821079825394

>  <Genealogy>  (77) 
CCN(c1ccc(C)cn1)c1cc([NH2+]Cc2ccco2)ccc1[N+](=O)[O-] (protonated)
CCN(c1ccc(C)cn1)c1cc([NH2+]Cc2ccco2)ccc1[N+](=O)[O-] (3D coordinates assigned)
CCN(c1ccc(C)cn1)c1cc([NH2+]Cc2ccco2)ccc1[N+](=O)[O-] (optimized conformer: 83.03821079825394 kcal/mol)

>  <smiles>  (77) 
CCN(c1ccc(C)cn1)c1cc(NCc2ccco2)ccc1[N+](=O)[O-]

>  <score_type>  (77) 
oracle

>  <origin>  (77) 
adg

>  <m_score__min__energy>  (77) 
-6.0999999999999996

>  <m_primary>  (77) 
energy

$$$$
77:0
     RDKit          3D

 29 31  0  0  0  0  0  0  0  0999 V2000
   55.5740   29.0650   44.8540 O   0  0  0  0  0  0  0  0  0  0  0  0
   56.6240   29.7600   44.8400 C   0  0  0  0  0  0  0  0  0  0  0  0
   57.9480   29.0770   45.0140 C   0  0  0  0  0  0  0  0  0  0  0  0
   58.0290   28.2900   46.6580 S   0  0  0  0  0  0  0  0  0  0  0  0
   59.2600   29.4330   47.2740 C   0  0  0  0  0  0  0  0  0  0  0  0
   59.3250   29.9340   48.5660 C   0  0  0  0  0  0  0  0  0  0  0  0
   60.3950   30.8160   48.7550 C   0  0  0  0  0  0  0  0  0  0  0  0
   61.1600   30.9980   47.6110 C   0  0  0  0  0  0  0  0  0  0  0  0
   62.6940   32.1190   47.4630 Br  0  0  0  0  0  0  0  0  0  0  0  0
   60.5180   30.0720   46.3620 S   0  0  0  0  0  0  0  0  0  0  0  0
   56.5090   31.1870   44.7410 N   0  0  0  0  0  0  0  0  0  0  0  0
   57.4840   32.1560   45.1480 C   0  0  0  0  0  0  0  0  0  0  0  0
   58.1130   33.0160   44.2100 C   0  0  0  0  0  0  0  0  0  0  0  0
   59.0530   33.9720   44.6360 C   0  0  0  0  0  0  0  0  0  0  0  0
   59.3200   34.0560   45.9990 C   0  0  0  0  0  0  0  0  0  0  0  0
   58.7030   33.2560   46.9030 C   0  0  0  0  0  0  0  0  0  0  0  0
   57.7690   32.2970   46.5220 C   0  0  0  0  0  0  0  0  0  0  0  0
   59.1520   33.5630   48.1720 O   0  0  0  0  0  0  0  0  0  0  0  0
   60.1120   34.6220   48.0580 C   0  0  0  0  0  0  0  0  0  0  0  0
   60.1900   34.9070   46.6540 O   0  0  0  0  0  0  0  0  0  0  0  0
   58.0674   28.3090   44.2356 H   0  0  0  0  0  0  0  0  0  0  0  0
   58.7535   29.8212   44.9285 H   0  0  0  0  0  0  0  0  0  0  0  0
   58.6107   29.6662   49.3585 H   0  0  0  0  0  0  0  0  0  0  0  0
   60.6081   31.3142   49.7123 H   0  0  0  0  0  0  0  0  0  0  0  0
   57.8635   32.9343   43.1418 H   0  0  0  0  0  0  0  0  0  0  0  0
   59.5599   34.6310   43.9158 H   0  0  0  0  0  0  0  0  0  0  0  0
   57.2674   31.6670   47.2713 H   0  0  0  0  0  0  0  0  0  0  0  0
   59.7756   35.5095   48.6140 H   0  0  0  0  0  0  0  0  0  0  0  0
   61.0894   34.3387   48.4757 H   0  0  0  0  0  0  0  0  0  0  0  0
  1  2  2  0
  2  3  1  0
  3  4  1  0
  4  5  1  0
  5  6  2  0
  6  7  1  0
  7  8  2  0
  8  9  1  0
  8 10  1  0
  2 11  1  0
 11 12  1  0
 12 13  2  0
 13 14  1  0
 14 15  2  0
 15 16  1  0
 16 17  2  0
 16 18  1  0
 18 19  1  0
 19 20  1  0
 10  5  1  0
 17 12  1  0
 20 15  1  0
  3 21  1  0
  3 22  1  0
  6 23  1  0
  7 24  1  0
 13 25  1  0
 14 26  1  0
 17 27  1  0
 19 28  1  0
 19 29  1  0
M  CHG  1  11  -1
M  END
>  <UniqueID>  (78) 
71

>  <SMILES>  (78) 
O=C(CSc1ccc(Br)s1)[N-]c1ccc2c(c1)OCO2

>  <Energy>  (78) 
85.01211816715657

>  <Genealogy>  (78) 
O=C(CSc1ccc(Br)s1)[N-]c1ccc2c(c1)OCO2 (protonated)
O=C(CSc1ccc(Br)s1)[N-]c1ccc2c(c1)OCO2 (3D coordinates assigned)
O=C(CSc1ccc(Br)s1)[N-]c1ccc2c(c1)OCO2 (nonaromatic ring conformer: 85.01211816715657 kcal/mol)

>  <smiles>  (78) 
O=C(CSc1ccc(Br)s1)Nc1ccc2c(c1)OCO2

>  <score_type>  (78) 
oracle

>  <origin>  (78) 
adg

>  <m_score__min__energy>  (78) 
-9.1400000000000006

>  <m_primary>  (78) 
energy

$$$$
78:0
     RDKit          3D

 32 33  0  0  0  0  0  0  0  0999 V2000
   58.0129   34.8991   45.3444 H   0  0  0  0  0  0  0  0  0  0  0  0
   58.6960   34.0530   45.1790 C   0  0  0  0  0  0  0  0  0  0  0  0
   59.9750   34.1960   45.5520 C   0  0  0  0  0  0  0  0  0  0  0  0
   60.7393   34.3879   44.7846 H   0  0  0  0  0  0  0  0  0  0  0  0
   60.3850   34.1020   46.9720 C   0  0  0  0  0  0  0  0  0  0  0  0
   59.3820   34.2840   47.9320 C   0  0  0  0  0  0  0  0  0  0  0  0
   58.3594   34.5401   47.6179 H   0  0  0  0  0  0  0  0  0  0  0  0
   59.6790   34.1410   49.2800 C   0  0  0  0  0  0  0  0  0  0  0  0
   58.8958   34.2932   50.0372 H   0  0  0  0  0  0  0  0  0  0  0  0
   60.9690   33.8050   49.6690 C   0  0  0  0  0  0  0  0  0  0  0  0
   61.2045   33.6675   50.7347 H   0  0  0  0  0  0  0  0  0  0  0  0
   61.9720   33.6410   48.7010 C   0  0  0  0  0  0  0  0  0  0  0  0
   63.3580   33.2730   49.1750 C   0  0  0  0  0  0  0  0  0  0  0  0
   63.3799   33.2672   50.2748 H   0  0  0  0  0  0  0  0  0  0  0  0
   63.6213   32.2738   48.7977 H   0  0  0  0  0  0  0  0  0  0  0  0
   64.0823   34.0100   48.7977 H   0  0  0  0  0  0  0  0  0  0  0  0
   61.6870   33.8540   47.3660 N   0  0  0  0  0  0  0  0  0  0  0  0
   62.7780   33.8160   46.3710 C   0  0  0  0  0  0  0  0  0  0  0  0
   63.7470   33.7823   46.8905 H   0  0  0  0  0  0  0  0  0  0  0  0
   62.6685   32.9211   45.7408 H   0  0  0  0  0  0  0  0  0  0  0  0
   62.7310   34.7163   45.7408 H   0  0  0  0  0  0  0  0  0  0  0  0
   58.1440   32.8250   44.5570 C   0  0  0  0  0  0  0  0  0  0  0  0
   57.7900   31.7510   45.3920 C   0  0  0  0  0  0  0  0  0  0  0  0
   57.9322   31.8367   46.4794 H   0  0  0  0  0  0  0  0  0  0  0  0
   57.2590   30.5750   44.8540 C   0  0  0  0  0  0  0  0  0  0  0  0
   56.9921   29.7391   45.5174 H   0  0  0  0  0  0  0  0  0  0  0  0
   57.0670   30.4600   43.4760 C   0  0  0  0  0  0  0  0  0  0  0  0
   56.5510   29.3190   42.9560 F   0  0  0  0  0  0  0  0  0  0  0  0
   57.4010   31.5230   42.6340 C   0  0  0  0  0  0  0  0  0  0  0  0
   57.2462   31.4330   41.5487 H   0  0  0  0  0  0  0  0  0  0  0  0
   57.9320   32.7020   43.1680 C   0  0  0  0  0  0  0  0  0  0  0  0
   58.1858   33.5385   42.5003 H   0  0  0  0  0  0  0  0  0  0  0  0
  1  2  1  0
  2  3  2  0
  3  4  1  0
  3  5  1  0
  5  6  2  0
  6  7  1  0
  6  8  1  0
  8  9  1  0
  8 10  2  0
 10 11  1  0
 10 12  1  0
 12 13  1  0
 13 14  1  0
 13 15  1  0
 13 16  1  0
 12 17  2  0
 17 18  1  0
 18 19  1  0
 18 20  1  0
 18 21  1  0
  2 22  1  0
 22 23  2  0
 23 24  1  0
 23 25  1  0
 25 26  1  0
 25 27  2  0
 27 28  1  0
 27 29  1  0
 29 30  1  0
 29 31  2  0
 31 32  1  0
 17  5  1  0
 31 22  1  0
M  CHG  1  17   1
M  END
>  <UniqueID>  (79) 
72

>  <SMILES>  (79) 
Cc1cccc(/C=C/c2ccc(F)cc2)[n+]1C

>  <Energy>  (79) 
45.79747159806413

>  <Genealogy>  (79) 
Cc1cccc(/C=C/c2ccc(F)cc2)[n+]1C (cis-trans isomerization)
Cc1cccc(/C=C/c2ccc(F)cc2)[n+]1C (3D coordinates assigned)
Cc1cccc(/C=C/c2ccc(F)cc2)[n+]1C (optimized conformer: 45.79747159806413 kcal/mol)

>  <smiles>  (79) 
Cc1cccc(C=Cc2ccc(F)cc2)[n+]1C

>  <score_type>  (79) 
oracle

>  <origin>  (79) 
adg

>  <m_score__min__energy>  (79) 
-4.9299999999999997

>  <m_primary>  (79) 
energy

$$$$
79:0
     RDKit          3D

 34 36  0  0  0  0  0  0  0  0999 V2000
   61.6800   29.5156   47.7678 H   0  0  0  0  0  0  0  0  0  0  0  0
   61.2980   30.1270   46.9370 C   0  0  0  0  0  0  0  0  0  0  0  0
   60.7570   29.4390   45.7450 C   0  0  0  0  0  0  0  0  0  0  0  0
   61.5630   29.0170   44.8740 O   0  0  0  0  0  0  0  0  0  0  0  0
   59.3040   29.2530   45.5190 C   0  0  0  0  0  0  0  0  0  0  0  0
   58.6090   30.2850   44.8760 C   0  0  0  0  0  0  0  0  0  0  0  0
   59.1535   31.1765   44.5314 H   0  0  0  0  0  0  0  0  0  0  0  0
   57.2360   30.1930   44.6690 C   0  0  0  0  0  0  0  0  0  0  0  0
   56.7052   31.0153   44.1670 H   0  0  0  0  0  0  0  0  0  0  0  0
   56.5260   29.0700   45.0910 C   0  0  0  0  0  0  0  0  0  0  0  0
   55.1540   29.0370   44.8650 O   0  0  0  0  0  0  0  0  0  0  0  0
   57.1980   27.9980   45.7230 C   0  0  0  0  0  0  0  0  0  0  0  0
   56.5100   26.8370   46.1510 C   0  0  0  0  0  0  0  0  0  0  0  0
   55.1340   26.7040   45.9870 O   0  0  0  0  0  0  0  0  0  0  0  0
   57.2060   25.7870   46.7510 C   0  0  0  0  0  0  0  0  0  0  0  0
   56.6615   24.8920   47.0865 H   0  0  0  0  0  0  0  0  0  0  0  0
   58.5840   25.8640   46.9280 C   0  0  0  0  0  0  0  0  0  0  0  0
   59.1238   25.0267   47.3944 H   0  0  0  0  0  0  0  0  0  0  0  0
   59.2830   26.9970   46.5170 C   0  0  0  0  0  0  0  0  0  0  0  0
   60.3735   27.0430   46.6539 H   0  0  0  0  0  0  0  0  0  0  0  0
   58.6070   28.0860   45.9270 C   0  0  0  0  0  0  0  0  0  0  0  0
   61.3440   31.4610   47.0510 C   0  0  0  0  0  0  0  0  0  0  0  0
   62.3042   31.9330   47.3064 H   0  0  0  0  0  0  0  0  0  0  0  0
   60.1620   32.3290   46.8490 C   0  0  0  0  0  0  0  0  0  0  0  0
   60.3010   33.4730   46.0460 C   0  0  0  0  0  0  0  0  0  0  0  0
   61.2731   33.7004   45.5841 H   0  0  0  0  0  0  0  0  0  0  0  0
   59.2140   34.3250   45.8290 C   0  0  0  0  0  0  0  0  0  0  0  0
   59.3304   35.2126   45.1898 H   0  0  0  0  0  0  0  0  0  0  0  0
   57.9810   34.0500   46.4230 C   0  0  0  0  0  0  0  0  0  0  0  0
   57.1240   34.7162   46.2446 H   0  0  0  0  0  0  0  0  0  0  0  0
   57.8350   32.9290   47.2440 C   0  0  0  0  0  0  0  0  0  0  0  0
   56.8648   32.7200   47.7183 H   0  0  0  0  0  0  0  0  0  0  0  0
   58.9170   32.0720   47.4650 C   0  0  0  0  0  0  0  0  0  0  0  0
   58.7580   31.0300   48.3210 F   0  0  0  0  0  0  0  0  0  0  0  0
  1  2  1  0
  2  3  1  0
  3  4  2  0
  3  5  1  0
  5  6  2  0
  6  7  1  0
  6  8  1  0
  8  9  1  0
  8 10  2  0
 10 11  1  0
 10 12  1  0
 12 13  2  0
 13 14  1  0
 13 15  1  0
 15 16  1  0
 15 17  2  0
 17 18  1  0
 17 19  1  0
 19 20  1  0
 19 21  2  0
  2 22  2  0
 22 23  1  0
 22 24  1  0
 24 25  2  0
 25 26  1  0
 25 27  1  0
 27 28  1  0
 27 29  2  0
 29 30  1  0
 29 31  1  0
 31 32  1  0
 31 33  2  0
 33 34  1  0
 21  5  1  0
 33 24  1  0
 21 12  1  0
M  CHG  2  11  -1  14  -1
M  END
>  <UniqueID>  (80) 
73

>  <SMILES>  (80) 
O=C(/C=C/c1ccccc1F)c1ccc([O-])c2c([O-])cccc12

>  <Energy>  (80) 
55.15390352218135

>  <Genealogy>  (80) 
O=C(C=Cc1ccccc1F)c1ccc([O-])c2c([O-])cccc12 (protonated)
O=C(/C=C/c1ccccc1F)c1ccc([O-])c2c([O-])cccc12 (cis-trans isomerization)
O=C(/C=C/c1ccccc1F)c1ccc([O-])c2c([O-])cccc12 (3D coordinates assigned)
O=C(/C=C/c1ccccc1F)c1ccc([O-])c2c([O-])cccc12 (optimized conformer: 55.15390352218135 kcal/mol)

>  <smiles>  (80) 
O=C(C=Cc1ccccc1F)c1ccc(O)c2c(O)cccc12

>  <score_type>  (80) 
oracle

>  <origin>  (80) 
adg

>  <m_score__min__energy>  (80) 
-15.57

>  <m_primary>  (80) 
energy

$$$$
80:0
     RDKit          3D

 59 63  0  0  1  0  0  0  0  0999 V2000
   62.4310   33.2320   47.2360 C   0  0  0  0  0  0  0  0  0  0  0  0
   62.0530   33.2400   48.5590 C   0  0  0  0  0  0  0  0  0  0  0  0
   60.8940   33.7750   48.9590 N   0  0  0  0  0  0  0  0  0  0  0  0
   60.0610   34.3260   48.0610 C   0  0  0  0  0  0  0  0  0  0  0  0
   60.3610   34.3640   46.6930 C   0  0  0  0  0  0  0  0  0  0  0  0
   59.3730   35.0210   45.8250 C   0  0  0  0  0  0  0  0  0  0  0  0
   59.2740   34.3530   44.5650 N   0  0  0  0  0  0  0  0  0  0  0  0
   58.5250   33.2250   44.2220 C   0  0  0  0  0  0  0  0  0  0  0  0
   58.3450   32.7170   42.9600 C   0  0  0  0  0  0  0  0  0  0  0  0
   57.6060   31.5810   42.6850 C   0  0  0  0  0  0  0  0  0  0  0  0
   56.9950   30.8840   43.7040 C   0  0  0  0  0  0  0  0  0  0  0  0
   56.2050   29.6710   43.4250 C   0  0  0  0  0  0  0  0  0  0  0  0
   57.0220   28.6440   42.6370 C   0  0  0  0  0  0  0  0  0  0  0  0
   58.1440   28.1510   43.3720 N   0  0  0  0  0  0  0  0  0  0  0  0
   58.0400   27.8870   44.6270 C   0  0  0  0  0  0  0  0  0  0  0  0
   57.2220   26.9400   45.1220 N   0  0  0  0  0  0  0  0  0  0  0  0
   57.1240   26.6760   46.4370 C   0  0  0  0  0  0  0  0  0  0  0  0
   57.8720   27.3820   47.3340 N   0  0  0  0  0  0  0  0  0  0  0  0
   58.7040   28.3390   46.8910 C   0  0  0  0  0  0  0  0  0  0  0  0
   58.8060   28.6110   45.5390 C   0  0  0  0  0  0  0  0  0  0  0  0
   59.7010   29.6060   45.3510 N   0  0  0  0  0  0  0  0  0  0  0  0
   60.1620   29.9620   46.5650 C   0  0  0  0  0  0  0  0  0  0  0  0
   59.5550   29.1920   47.4880 N   0  0  0  0  0  0  0  0  0  0  0  0
   59.8130   29.3000   48.9310 C   0  0  1  0  0  0  0  0  0  0  0  0
   61.0260   30.1910   49.0540 C   0  0  0  0  0  0  0  0  0  0  0  0
   61.1710   30.6670   50.4880 C   0  0  0  0  0  0  0  0  0  0  0  0
   59.8640   31.3930   50.8300 C   0  0  0  0  0  0  0  0  0  0  0  0
   58.7970   30.2960   50.7660 C   0  0  0  0  0  0  0  0  0  0  0  0
   58.6670   29.8210   49.4790 O   0  0  0  0  0  0  0  0  0  0  0  0
   57.1550   31.3680   44.9840 C   0  0  0  0  0  0  0  0  0  0  0  0
   57.8930   32.4990   45.2470 C   0  0  0  0  0  0  0  0  0  0  0  0
   61.5480   33.8120   46.3190 C   0  0  0  0  0  0  0  0  0  0  0  0
   63.3850   32.7893   46.9138 H   0  0  0  0  0  0  0  0  0  0  0  0
   62.7228   32.7939   49.3089 H   0  0  0  0  0  0  0  0  0  0  0  0
   59.1132   34.7612   48.4107 H   0  0  0  0  0  0  0  0  0  0  0  0
   58.3908   35.0029   46.3199 H   0  0  0  0  0  0  0  0  0  0  0  0
   59.6961   36.0575   45.6479 H   0  0  0  0  0  0  0  0  0  0  0  0
   59.8610   34.7870   43.7760 H   0  0  0  0  0  0  0  0  0  0  0  0
   58.8163   33.2445   42.1176 H   0  0  0  0  0  0  0  0  0  0  0  0
   57.5055   31.2320   41.6467 H   0  0  0  0  0  0  0  0  0  0  0  0
   55.8889   29.2222   44.3782 H   0  0  0  0  0  0  0  0  0  0  0  0
   55.3314   29.9570   42.8208 H   0  0  0  0  0  0  0  0  0  0  0  0
   56.3691   27.7965   42.3809 H   0  0  0  0  0  0  0  0  0  0  0  0
   57.4084   29.1460   41.7377 H   0  0  0  0  0  0  0  0  0  0  0  0
   56.6460   26.3950   44.4430 H   0  0  0  0  0  0  0  0  0  0  0  0
   56.4401   25.8901   46.7900 H   0  0  0  0  0  0  0  0  0  0  0  0
   60.9060   30.7464   46.7678 H   0  0  0  0  0  0  0  0  0  0  0  0
   60.0304   28.3589   49.4574 H   0  0  0  0  0  0  0  0  0  0  0  0
   61.9246   29.6267   48.7639 H   0  0  0  0  0  0  0  0  0  0  0  0
   60.9056   31.0617   48.3927 H   0  0  0  0  0  0  0  0  0  0  0  0
   61.3190   29.8100   51.1615 H   0  0  0  0  0  0  0  0  0  0  0  0
   62.0411   31.3297   50.6052 H   0  0  0  0  0  0  0  0  0  0  0  0
   59.9132   31.8310   51.8378 H   0  0  0  0  0  0  0  0  0  0  0  0
   59.6530   32.2265   50.1439 H   0  0  0  0  0  0  0  0  0  0  0  0
   59.0890   29.4684   51.4291 H   0  0  0  0  0  0  0  0  0  0  0  0
   57.8336   30.7188   51.0872 H   0  0  0  0  0  0  0  0  0  0  0  0
   56.6789   30.8347   45.8200 H   0  0  0  0  0  0  0  0  0  0  0  0
   57.9912   32.8445   46.2867 H   0  0  0  0  0  0  0  0  0  0  0  0
   61.8235   33.8225   45.2541 H   0  0  0  0  0  0  0  0  0  0  0  0
  1  2  2  0
  2  3  1  0
  3  4  2  0
  4  5  1  0
  5  6  1  0
  6  7  1  0
  7  8  1  0
  8  9  2  0
  9 10  1  0
 10 11  2  0
 11 12  1  0
 12 13  1  0
 13 14  1  0
 14 15  2  0
 15 16  1  0
 16 17  1  0
 17 18  2  0
 18 19  1  0
 19 20  2  0
 20 21  1  0
 21 22  2  0
 22 23  1  0
 23 24  1  0
 24 25  1  0
 25 26  1  0
 26 27  1  0
 27 28  1  0
 28 29  1  0
 11 30  1  0
 30 31  2  0
  5 32  2  0
 32  1  1  0
 31  8  1  0
 20 15  1  0
 29 24  1  0
 23 19  1  0
  1 33  1  0
  2 34  1  0
  4 35  1  0
  6 36  1  0
  6 37  1  0
  7 38  1  0
  9 39  1  0
 10 40  1  0
 12 41  1  0
 12 42  1  0
 13 43  1  0
 13 44  1  0
 16 45  1  0
 17 46  1  0
 22 47  1  0
 24 48  1  1
 25 49  1  0
 25 50  1  0
 26 51  1  0
 26 52  1  0
 27 53  1  0
 27 54  1  0
 28 55  1  0
 28 56  1  0
 30 57  1  0
 31 58  1  0
 32 59  1  0
M  END
>  <smiles>  (81) 
c1cncc(CNc2ccc(CCN=c3[nH]cnc4c3ncn4C3CCCCO3)cc2)c1

>  <score_type>  (81) 
oracle

>  <origin>  (81) 
adg

>  <m_score__min__energy>  (81) 
-9.2400000000000002

>  <m_primary>  (81) 
energy

$$$$
81:0
     RDKit          3D

 57 59  0  0  0  0  0  0  0  0999 V2000
   54.0830   24.4900   45.6120 C   0  0  0  0  0  0  0  0  0  0  0  0
   55.5450   24.6480   46.0150 C   0  0  0  0  0  0  0  0  0  0  0  0
   55.8320   26.0030   46.3680 O   0  0  0  0  0  0  0  0  0  0  0  0
   57.0450   26.6720   46.1320 C   0  0  0  0  0  0  0  0  0  0  0  0
   57.5420   26.6880   44.8220 C   0  0  0  0  0  0  0  0  0  0  0  0
   58.7370   27.3450   44.5240 C   0  0  0  0  0  0  0  0  0  0  0  0
   59.4500   27.9960   45.5330 C   0  0  0  0  0  0  0  0  0  0  0  0
   58.9720   27.9940   46.8520 C   0  0  0  0  0  0  0  0  0  0  0  0
   59.7270   28.6910   47.9130 C   0  0  0  0  0  0  0  0  0  0  0  0
   60.4890   29.7850   47.6970 N   0  0  0  0  0  0  0  0  0  0  0  0
   60.9810   30.0600   48.9190 C   0  0  0  0  0  0  0  0  0  0  0  0
   61.8650   31.2380   49.2260 C   0  0  0  0  0  0  0  0  0  0  0  0
   61.9570   32.1790   48.0650 N   0  0  1  0  0  0  0  0  0  0  0  0
   60.8830   33.2090   48.1130 C   0  0  0  0  0  0  0  0  0  0  0  0
   60.0160   33.1780   46.8730 C   0  0  0  0  0  0  0  0  0  0  0  0
   60.0130   34.2580   45.9730 C   0  0  0  0  0  0  0  0  0  0  0  0
   59.1820   34.2390   44.8490 C   0  0  0  0  0  0  0  0  0  0  0  0
   58.3420   33.1360   44.6030 C   0  0  0  0  0  0  0  0  0  0  0  0
   57.4920   33.0700   43.4880 O   0  0  0  0  0  0  0  0  0  0  0  0
   57.7510   32.2880   42.3260 C   0  0  0  0  0  0  0  0  0  0  0  0
   58.3500   32.0600   45.4990 C   0  0  0  0  0  0  0  0  0  0  0  0
   59.1780   32.0780   46.6240 C   0  0  0  0  0  0  0  0  0  0  0  0
   63.3060   32.8080   47.9030 C   0  0  0  0  0  0  0  0  0  0  0  0
   63.4030   33.8110   46.7300 C   0  0  0  0  0  0  0  0  0  0  0  0
   63.8010   33.4590   49.2090 C   0  0  0  0  0  0  0  0  0  0  0  0
   60.5000   29.1470   49.8290 C   0  0  0  0  0  0  0  0  0  0  0  0
   59.7320   28.3150   49.1750 O   0  0  0  0  0  0  0  0  0  0  0  0
   57.7670   27.3300   47.1480 C   0  0  0  0  0  0  0  0  0  0  0  0
   53.4589   24.4226   46.5153 H   0  0  0  0  0  0  0  0  0  0  0  0
   53.7712   25.3597   45.0150 H   0  0  0  0  0  0  0  0  0  0  0  0
   53.9642   23.5738   45.0150 H   0  0  0  0  0  0  0  0  0  0  0  0
   55.7530   23.9989   46.8784 H   0  0  0  0  0  0  0  0  0  0  0  0
   56.1780   24.3651   45.1610 H   0  0  0  0  0  0  0  0  0  0  0  0
   56.9857   26.1784   44.0215 H   0  0  0  0  0  0  0  0  0  0  0  0
   59.1179   27.3500   43.4921 H   0  0  0  0  0  0  0  0  0  0  0  0
   60.3908   28.5128   45.2925 H   0  0  0  0  0  0  0  0  0  0  0  0
   61.4517   31.7780   50.0906 H   0  0  0  0  0  0  0  0  0  0  0  0
   62.8754   30.8611   49.4427 H   0  0  0  0  0  0  0  0  0  0  0  0
   61.8020   31.6440   47.1750 H   0  0  0  0  0  0  0  0  0  0  0  0
   60.2508   33.0229   48.9938 H   0  0  0  0  0  0  0  0  0  0  0  0
   61.3612   34.1980   48.1701 H   0  0  0  0  0  0  0  0  0  0  0  0
   60.6682   35.1228   46.1542 H   0  0  0  0  0  0  0  0  0  0  0  0
   59.1843   35.0906   44.1527 H   0  0  0  0  0  0  0  0  0  0  0  0
   58.0837   31.2835   42.6267 H   0  0  0  0  0  0  0  0  0  0  0  0
   56.8321   32.2059   41.7270 H   0  0  0  0  0  0  0  0  0  0  0  0
   58.5373   32.7706   41.7270 H   0  0  0  0  0  0  0  0  0  0  0  0
   57.6985   31.1929   45.3154 H   0  0  0  0  0  0  0  0  0  0  0  0
   59.1739   31.2256   47.3193 H   0  0  0  0  0  0  0  0  0  0  0  0
   63.9717   31.9699   47.6491 H   0  0  0  0  0  0  0  0  0  0  0  0
   63.5017   34.8318   47.1277 H   0  0  0  0  0  0  0  0  0  0  0  0
   64.2821   33.5709   46.1140 H   0  0  0  0  0  0  0  0  0  0  0  0
   62.4942   33.7438   46.1140 H   0  0  0  0  0  0  0  0  0  0  0  0
   63.3868   32.9142   50.0702 H   0  0  0  0  0  0  0  0  0  0  0  0
   64.8997   33.4201   49.2446 H   0  0  0  0  0  0  0  0  0  0  0  0
   63.4699   34.5074   49.2446 H   0  0  0  0  0  0  0  0  0  0  0  0
   60.7205   29.1217   50.9064 H   0  0  0  0  0  0  0  0  0  0  0  0
   57.3858   27.3245   48.1798 H   0  0  0  0  0  0  0  0  0  0  0  0
  1  2  1  0
  2  3  1  0
  3  4  1  0
  4  5  2  0
  5  6  1  0
  6  7  2  0
  7  8  1  0
  8  9  1  0
  9 10  2  0
 10 11  1  0
 11 12  1  0
 12 13  1  0
 13 14  1  0
 14 15  1  0
 15 16  2  0
 16 17  1  0
 17 18  2  0
 18 19  1  0
 19 20  1  0
 18 21  1  0
 21 22  2  0
 13 23  1  0
 23 24  1  0
 23 25  1  0
 11 26  2  0
 26 27  1  0
  8 28  2  0
 28  4  1  0
 27  9  1  0
 22 15  1  0
  1 29  1  0
  1 30  1  0
  1 31  1  0
  2 32  1  0
  2 33  1  0
  5 34  1  0
  6 35  1  0
  7 36  1  0
 12 37  1  0
 12 38  1  0
 13 39  1  6
 14 40  1  0
 14 41  1  0
 16 42  1  0
 17 43  1  0
 20 44  1  0
 20 45  1  0
 20 46  1  0
 21 47  1  0
 22 48  1  0
 23 49  1  0
 24 50  1  0
 24 51  1  0
 24 52  1  0
 25 53  1  0
 25 54  1  0
 25 55  1  0
 26 56  1  0
 28 57  1  0
M  CHG  1  13   1
M  END
>  <UniqueID>  (82) 
74

>  <SMILES>  (82) 
CCOc1cccc(-c2nc(C[N@@H+](Cc3ccc(OC)cc3)C(C)C)co2)c1

>  <Energy>  (82) 
91.2148196588129

>  <Genealogy>  (82) 
CCOc1cccc(-c2nc(C[NH+](Cc3ccc(OC)cc3)C(C)C)co2)c1 (protonated)
CCOc1cccc(-c2nc(C[N@@H+](Cc3ccc(OC)cc3)C(C)C)co2)c1 (chirality)
CCOc1cccc(-c2nc(C[N@@H+](Cc3ccc(OC)cc3)C(C)C)co2)c1 (3D coordinates assigned)
CCOc1cccc(-c2nc(C[N@@H+](Cc3ccc(OC)cc3)C(C)C)co2)c1 (optimized conformer: 91.2148196588129 kcal/mol)

>  <smiles>  (82) 
CCOc1cccc(-c2nc(CN(Cc3ccc(OC)cc3)C(C)C)co2)c1

>  <score_type>  (82) 
oracle

>  <origin>  (82) 
adg

>  <m_score__min__energy>  (82) 
-6.0800000000000001

>  <m_primary>  (82) 
energy

$$$$
82:0
     RDKit          3D

 38 38  0  0  0  0  0  0  0  0999 V2000
   63.4500   33.4720   46.7600 C   0  0  0  0  0  0  0  0  0  0  0  0
   62.6610   33.8140   48.0330 C   0  0  0  0  0  0  0  0  0  0  0  0
   61.1830   33.6580   47.9190 N   0  0  0  0  0  0  0  0  0  0  0  0
   60.4360   34.2160   49.0760 C   0  0  0  0  0  0  0  0  0  0  0  0
   59.5400   33.1840   49.7710 C   0  0  0  0  0  0  0  0  0  0  0  0
   60.6350   34.2180   46.6560 C   0  0  0  0  0  0  0  0  0  0  0  0
   59.4830   33.4020   46.1040 C   0  0  0  0  0  0  0  0  0  0  0  0
   58.4510   34.0440   45.4020 C   0  0  0  0  0  0  0  0  0  0  0  0
   57.3920   33.3090   44.8670 C   0  0  0  0  0  0  0  0  0  0  0  0
   57.3450   31.9150   45.0270 C   0  0  0  0  0  0  0  0  0  0  0  0
   56.3020   31.1340   44.5070 O   0  0  0  0  0  0  0  0  0  0  0  0
   56.4530   30.1880   43.4540 C   0  0  0  0  0  0  0  0  0  0  0  0
   58.3690   31.2710   45.7300 C   0  0  0  0  0  0  0  0  0  0  0  0
   59.4440   32.0020   46.2740 C   0  0  0  0  0  0  0  0  0  0  0  0
   60.4790   31.3740   46.9880 O   0  0  0  0  0  0  0  0  0  0  0  0
   60.7530   29.9780   46.9550 C   0  0  0  0  0  0  0  0  0  0  0  0
   64.4268   33.0486   47.0367 H   0  0  0  0  0  0  0  0  0  0  0  0
   62.8869   32.7372   46.1659 H   0  0  0  0  0  0  0  0  0  0  0  0
   63.6013   34.3853   46.1659 H   0  0  0  0  0  0  0  0  0  0  0  0
   63.0125   33.1542   48.8399 H   0  0  0  0  0  0  0  0  0  0  0  0
   62.8432   34.8807   48.2304 H   0  0  0  0  0  0  0  0  0  0  0  0
   60.9910   32.6280   47.9080 H   0  0  0  0  0  0  0  0  0  0  0  0
   61.1616   34.5989   49.8088 H   0  0  0  0  0  0  0  0  0  0  0  0
   59.7806   35.0104   48.6895 H   0  0  0  0  0  0  0  0  0  0  0  0
   59.6339   33.2922   50.8616 H   0  0  0  0  0  0  0  0  0  0  0  0
   58.4934   33.3485   49.4750 H   0  0  0  0  0  0  0  0  0  0  0  0
   59.8498   32.1709   49.4750 H   0  0  0  0  0  0  0  0  0  0  0  0
   60.2802   35.2410   46.8497 H   0  0  0  0  0  0  0  0  0  0  0  0
   61.4416   34.2011   45.9083 H   0  0  0  0  0  0  0  0  0  0  0  0
   58.4771   35.1360   45.2723 H   0  0  0  0  0  0  0  0  0  0  0  0
   56.5905   33.8243   44.3174 H   0  0  0  0  0  0  0  0  0  0  0  0
   56.6128   29.1868   43.8807 H   0  0  0  0  0  0  0  0  0  0  0  0
   55.5445   30.1815   42.8338 H   0  0  0  0  0  0  0  0  0  0  0  0
   57.3184   30.4647   42.8338 H   0  0  0  0  0  0  0  0  0  0  0  0
   58.3345   30.1792   45.8598 H   0  0  0  0  0  0  0  0  0  0  0  0
   60.8282   29.5947   47.9833 H   0  0  0  0  0  0  0  0  0  0  0  0
   59.9400   29.4571   46.4281 H   0  0  0  0  0  0  0  0  0  0  0  0
   61.7026   29.8031   46.4281 H   0  0  0  0  0  0  0  0  0  0  0  0
  1  2  1  0
  2  3  1  0
  3  4  1  0
  4  5  1  0
  3  6  1  0
  6  7  1  0
  7  8  2  0
  8  9  1  0
  9 10  2  0
 10 11  1  0
 11 12  1  0
 10 13  1  0
 13 14  2  0
 14 15  1  0
 15 16  1  0
 14  7  1  0
  1 17  1  0
  1 18  1  0
  1 19  1  0
  2 20  1  0
  2 21  1  0
  3 22  1  0
  4 23  1  0
  4 24  1  0
  5 25  1  0
  5 26  1  0
  5 27  1  0
  6 28  1  0
  6 29  1  0
  8 30  1  0
  9 31  1  0
 12 32  1  0
 12 33  1  0
 12 34  1  0
 13 35  1  0
 16 36  1  0
 16 37  1  0
 16 38  1  0
M  CHG  1   3   1
M  END
>  <UniqueID>  (83) 
75

>  <SMILES>  (83) 
CC[NH+](CC)Cc1ccc(OC)cc1OC

>  <Energy>  (83) 
37.492998982436966

>  <Genealogy>  (83) 
CC[NH+](CC)Cc1ccc(OC)cc1OC (protonated)
CC[NH+](CC)Cc1ccc(OC)cc1OC (3D coordinates assigned)
CC[NH+](CC)Cc1ccc(OC)cc1OC (optimized conformer: 37.492998982436966 kcal/mol)

>  <smiles>  (83) 
CCN(CC)Cc1ccc(OC)cc1OC

>  <score_type>  (83) 
oracle

>  <origin>  (83) 
adg

>  <m_score__min__energy>  (83) 
-3.2000000000000002

>  <m_primary>  (83) 
energy

$$$$
83:0
     RDKit          3D

 48 51  0  0  0  0  0  0  0  0999 V2000
   57.4710   32.3510   41.8590 N   0  0  0  0  0  0  0  0  0  0  0  0
   57.6370   32.3170   43.0030 C   0  0  0  0  0  0  0  0  0  0  0  0
   57.8440   32.2780   44.4280 C   0  0  0  0  0  0  0  0  0  0  0  0
   57.4220   31.2310   45.2490 C   0  0  0  0  0  0  0  0  0  0  0  0
   56.7160   30.0580   44.8330 N   0  0  0  0  0  0  0  0  0  0  0  0
   57.1790   29.1270   43.8470 C   0  0  0  0  0  0  0  0  0  0  0  0
   56.6610   29.1510   42.6990 O   0  0  0  0  0  0  0  0  0  0  0  0
   58.3500   28.2180   44.1030 C   0  0  0  0  0  0  0  0  0  0  0  0
   58.9940   28.5610   45.4180 C   0  0  0  0  0  0  0  0  0  0  0  0
   60.1570   29.3520   45.4470 C   0  0  0  0  0  0  0  0  0  0  0  0
   60.7430   29.6950   46.6690 C   0  0  0  0  0  0  0  0  0  0  0  0
   60.1680   29.2570   47.8700 C   0  0  0  0  0  0  0  0  0  0  0  0
   60.9670   29.7280   49.5400 Br  0  0  0  0  0  0  0  0  0  0  0  0
   59.0040   28.4790   47.8470 C   0  0  0  0  0  0  0  0  0  0  0  0
   58.4170   28.1340   46.6270 C   0  0  0  0  0  0  0  0  0  0  0  0
   58.0000   31.4670   46.8130 S   0  0  0  0  0  0  0  0  0  0  0  0
   58.7660   32.9250   46.4680 C   0  0  0  0  0  0  0  0  0  0  0  0
   58.5760   33.2490   45.1330 C   0  0  0  0  0  0  0  0  0  0  0  0
   59.2100   34.4700   44.5290 C   0  0  0  0  0  0  0  0  0  0  0  0
   59.6840   35.4500   45.6250 C   0  0  0  0  0  0  0  0  0  0  0  0
   60.3670   34.7740   46.7600 N   0  0  0  0  0  0  0  0  0  0  0  0
   61.6480   34.1350   46.3830 C   0  0  0  0  0  0  0  0  0  0  0  0
   62.3630   33.5980   47.5940 C   0  0  0  0  0  0  0  0  0  0  0  0
   63.1560   32.4430   47.5010 C   0  0  0  0  0  0  0  0  0  0  0  0
   63.8300   31.9600   48.6260 C   0  0  0  0  0  0  0  0  0  0  0  0
   63.7210   32.6260   49.8500 C   0  0  0  0  0  0  0  0  0  0  0  0
   64.6460   31.9680   51.3830 Br  0  0  0  0  0  0  0  0  0  0  0  0
   62.9360   33.7800   49.9470 C   0  0  0  0  0  0  0  0  0  0  0  0
   62.2590   34.2650   48.8240 C   0  0  0  0  0  0  0  0  0  0  0  0
   59.4600   33.8230   47.4460 C   0  0  0  0  0  0  0  0  0  0  0  0
   58.0016   27.1750   44.1298 H   0  0  0  0  0  0  0  0  0  0  0  0
   59.0876   28.3462   43.2971 H   0  0  0  0  0  0  0  0  0  0  0  0
   60.6064   29.7015   44.5058 H   0  0  0  0  0  0  0  0  0  0  0  0
   61.6556   30.3088   46.6881 H   0  0  0  0  0  0  0  0  0  0  0  0
   58.5514   28.1392   48.7902 H   0  0  0  0  0  0  0  0  0  0  0  0
   57.5003   27.5262   46.6123 H   0  0  0  0  0  0  0  0  0  0  0  0
   60.0751   34.1631   43.9228 H   0  0  0  0  0  0  0  0  0  0  0  0
   58.4617   34.9797   43.9043 H   0  0  0  0  0  0  0  0  0  0  0  0
   60.3844   36.1678   45.1730 H   0  0  0  0  0  0  0  0  0  0  0  0
   58.7891   35.9450   46.0301 H   0  0  0  0  0  0  0  0  0  0  0  0
   61.4454   33.3063   45.6886 H   0  0  0  0  0  0  0  0  0  0  0  0
   62.2886   34.8914   45.9060 H   0  0  0  0  0  0  0  0  0  0  0  0
   63.2471   31.9166   46.5395 H   0  0  0  0  0  0  0  0  0  0  0  0
   64.4479   31.0533   48.5480 H   0  0  0  0  0  0  0  0  0  0  0  0
   62.8513   34.3069   50.9089 H   0  0  0  0  0  0  0  0  0  0  0  0
   61.6427   35.1726   48.9050 H   0  0  0  0  0  0  0  0  0  0  0  0
   60.0480   33.2069   48.1422 H   0  0  0  0  0  0  0  0  0  0  0  0
   58.6962   34.4021   47.9856 H   0  0  0  0  0  0  0  0  0  0  0  0
  1  2  3  0
  2  3  1  0
  3  4  2  0
  4  5  1  0
  5  6  1  0
  6  7  2  0
  6  8  1  0
  8  9  1  0
  9 10  2  0
 10 11  1  0
 11 12  2  0
 12 13  1  0
 12 14  1  0
 14 15  2  0
  4 16  1  0
 16 17  1  0
 17 18  2  0
 18 19  1  0
 19 20  1  0
 20 21  1  0
 21 22  1  0
 22 23  1  0
 23 24  2  0
 24 25  1  0
 25 26  2  0
 26 27  1  0
 26 28  1  0
 28 29  2  0
 21 30  1  0
 18  3  1  0
 29 23  1  0
 15  9  1  0
 30 17  1  0
  8 31  1  0
  8 32  1  0
 10 33  1  0
 11 34  1  0
 14 35  1  0
 15 36  1  0
 19 37  1  0
 19 38  1  0
 20 39  1  0
 20 40  1  0
 22 41  1  0
 22 42  1  0
 24 43  1  0
 25 44  1  0
 28 45  1  0
 29 46  1  0
 30 47  1  0
 30 48  1  0
M  CHG  1   5  -1
M  END
>  <UniqueID>  (84) 
76

>  <SMILES>  (84) 
N#Cc1c([N-]C(=O)Cc2ccc(Br)cc2)sc2c1CCN(Cc1ccc(Br)cc1)C2

>  <Energy>  (84) 
87.38752254615382

>  <Genealogy>  (84) 
N#Cc1c([N-]C(=O)Cc2ccc(Br)cc2)sc2c1CCN(Cc1ccc(Br)cc1)C2 (protonated)
N#Cc1c([N-]C(=O)Cc2ccc(Br)cc2)sc2c1CCN(Cc1ccc(Br)cc1)C2 (3D coordinates assigned)
N#Cc1c([N-]C(=O)Cc2ccc(Br)cc2)sc2c1CCN(Cc1ccc(Br)cc1)C2 (nonaromatic ring conformer: 87.38752254615382 kcal/mol)

>  <smiles>  (84) 
N#Cc1c(NC(=O)Cc2ccc(Br)cc2)sc2c1CCN(Cc1ccc(Br)cc1)C2

>  <score_type>  (84) 
oracle

>  <origin>  (84) 
adg

>  <m_score__min__energy>  (84) 
-11.380000000000001

>  <m_primary>  (84) 
energy

$$$$
84:0
     RDKit          3D

 59 63  0  0  0  0  0  0  0  0999 V2000
   63.6990   33.1830   47.4410 C   0  0  0  0  0  0  0  0  0  0  0  0
   62.4340   32.5760   47.2020 O   0  0  0  0  0  0  0  0  0  0  0  0
   61.5580   32.1310   48.2040 C   0  0  0  0  0  0  0  0  0  0  0  0
   61.9330   31.1330   49.1250 C   0  0  0  0  0  0  0  0  0  0  0  0
   61.0420   30.7120   50.1140 C   0  0  0  0  0  0  0  0  0  0  0  0
   59.7690   31.2780   50.1970 C   0  0  0  0  0  0  0  0  0  0  0  0
   58.6520   30.7440   51.4400 Cl  0  0  0  0  0  0  0  0  0  0  0  0
   59.3840   32.2670   49.2880 C   0  0  0  0  0  0  0  0  0  0  0  0
   60.2710   32.6980   48.2890 C   0  0  0  0  0  0  0  0  0  0  0  0
   59.7530   33.9260   47.1270 S   0  0  0  0  0  0  0  0  0  0  0  0
   58.9530   34.9910   47.8210 O   0  0  0  0  0  0  0  0  0  0  0  0
   60.9630   34.5720   46.5160 O   0  0  0  0  0  0  0  0  0  0  0  0
   58.7450   33.1860   45.9190 N   0  0  0  0  0  0  0  0  0  0  0  0
   57.4480   33.7580   45.5590 C   0  0  0  0  0  0  0  0  0  0  0  0
   56.6470   32.6280   44.8740 C   0  0  0  0  0  0  0  0  0  0  0  0
   57.5800   31.4730   44.9190 C   0  0  0  0  0  0  0  0  0  0  0  0
   57.3510   30.1770   44.4560 C   0  0  0  0  0  0  0  0  0  0  0  0
   58.3690   29.2130   44.6000 C   0  0  0  0  0  0  0  0  0  0  0  0
   58.1550   27.8190   44.1440 C   0  0  0  0  0  0  0  0  0  0  0  0
   57.7330   27.6110   42.9740 O   0  0  0  0  0  0  0  0  0  0  0  0
   58.4230   26.6990   45.0100 N   0  0  0  0  0  0  0  0  0  0  0  0
   59.1120   26.9130   46.2600 C   0  0  0  0  0  0  0  0  0  0  0  0
   58.4940   27.6390   47.2960 C   0  0  0  0  0  0  0  0  0  0  0  0
   59.1600   27.8470   48.5080 C   0  0  0  0  0  0  0  0  0  0  0  0
   60.4470   27.3350   48.6980 C   0  0  0  0  0  0  0  0  0  0  0  0
   61.0920   27.5390   49.8720 F   0  0  0  0  0  0  0  0  0  0  0  0
   61.0700   26.6160   47.6750 C   0  0  0  0  0  0  0  0  0  0  0  0
   60.4080   26.4040   46.4620 C   0  0  0  0  0  0  0  0  0  0  0  0
   57.9280   25.3870   44.6640 C   0  0  0  0  0  0  0  0  0  0  0  0
   58.2880   24.2670   45.4330 C   0  0  0  0  0  0  0  0  0  0  0  0
   57.8250   23.0030   45.0670 C   0  0  0  0  0  0  0  0  0  0  0  0
   57.0120   22.8600   43.9440 C   0  0  0  0  0  0  0  0  0  0  0  0
   56.6690   23.9900   43.2010 C   0  0  0  0  0  0  0  0  0  0  0  0
   57.1280   25.2170   43.5670 N   0  0  0  0  0  0  0  0  0  0  0  0
   59.6050   29.5910   45.1740 C   0  0  0  0  0  0  0  0  0  0  0  0
   59.8070   30.9020   45.6330 C   0  0  0  0  0  0  0  0  0  0  0  0
   58.7640   31.8240   45.5080 C   0  0  0  0  0  0  0  0  0  0  0  0
   63.8679   33.2640   48.5249 H   0  0  0  0  0  0  0  0  0  0  0  0
   64.4919   32.5673   46.9914 H   0  0  0  0  0  0  0  0  0  0  0  0
   63.7148   34.1868   46.9914 H   0  0  0  0  0  0  0  0  0  0  0  0
   62.9346   30.6824   49.0645 H   0  0  0  0  0  0  0  0  0  0  0  0
   61.3439   29.9327   50.8292 H   0  0  0  0  0  0  0  0  0  0  0  0
   58.3797   32.7105   49.3557 H   0  0  0  0  0  0  0  0  0  0  0  0
   56.9217   34.1045   46.4606 H   0  0  0  0  0  0  0  0  0  0  0  0
   57.5660   34.6241   44.8912 H   0  0  0  0  0  0  0  0  0  0  0  0
   55.7219   32.4092   45.4275 H   0  0  0  0  0  0  0  0  0  0  0  0
   56.3277   32.8842   43.8530 H   0  0  0  0  0  0  0  0  0  0  0  0
   56.3922   29.9120   43.9865 H   0  0  0  0  0  0  0  0  0  0  0  0
   57.4819   28.0448   47.1513 H   0  0  0  0  0  0  0  0  0  0  0  0
   58.6704   28.4144   49.3132 H   0  0  0  0  0  0  0  0  0  0  0  0
   62.0837   26.2158   47.8242 H   0  0  0  0  0  0  0  0  0  0  0  0
   60.9033   25.8359   45.6608 H   0  0  0  0  0  0  0  0  0  0  0  0
   58.9307   24.3864   46.3177 H   0  0  0  0  0  0  0  0  0  0  0  0
   58.1010   22.1209   45.6635 H   0  0  0  0  0  0  0  0  0  0  0  0
   56.6447   21.8667   43.6466 H   0  0  0  0  0  0  0  0  0  0  0  0
   56.0246   23.8882   42.3154 H   0  0  0  0  0  0  0  0  0  0  0  0
   56.8450   26.0440   42.9950 H   0  0  0  0  0  0  0  0  0  0  0  0
   60.4147   28.8516   45.2615 H   0  0  0  0  0  0  0  0  0  0  0  0
   60.7667   31.1978   46.0820 H   0  0  0  0  0  0  0  0  0  0  0  0
  1  2  1  0
  2  3  1  0
  3  4  2  0
  4  5  1  0
  5  6  2  0
  6  7  1  0
  6  8  1  0
  8  9  2  0
  9 10  1  0
 10 11  2  0
 10 12  2  0
 10 13  1  0
 13 14  1  0
 14 15  1  0
 15 16  1  0
 16 17  2  0
 17 18  1  0
 18 19  1  0
 19 20  2  0
 19 21  1  0
 21 22  1  0
 22 23  2  0
 23 24  1  0
 24 25  2  0
 25 26  1  0
 25 27  1  0
 27 28  2  0
 21 29  1  0
 29 30  2  0
 30 31  1  0
 31 32  2  0
 32 33  1  0
 33 34  2  0
 18 35  2  0
 35 36  1  0
 36 37  2  0
  9  3  1  0
 37 13  1  0
 37 16  1  0
 28 22  1  0
 34 29  1  0
  1 38  1  0
  1 39  1  0
  1 40  1  0
  4 41  1  0
  5 42  1  0
  8 43  1  0
 14 44  1  0
 14 45  1  0
 15 46  1  0
 15 47  1  0
 17 48  1  0
 23 49  1  0
 24 50  1  0
 27 51  1  0
 28 52  1  0
 30 53  1  0
 31 54  1  0
 32 55  1  0
 33 56  1  0
 34 57  1  0
 35 58  1  0
 36 59  1  0
M  CHG  1  34   1
M  END
>  <UniqueID>  (85) 
77

>  <SMILES>  (85) 
COc1ccc(Cl)cc1S(=O)(=O)N1CCc2cc(C(=O)N(c3ccc(F)cc3)c3cccc[nH+]3)ccc21

>  <Energy>  (85) 
92.90173521993287

>  <Genealogy>  (85) 
COc1ccc(Cl)cc1S(=O)(=O)N1CCc2cc(C(=O)N(c3ccc(F)cc3)c3cccc[nH+]3)ccc21 (protonated)
COc1ccc(Cl)cc1S(=O)(=O)N1CCc2cc(C(=O)N(c3ccc(F)cc3)c3cccc[nH+]3)ccc21 (3D coordinates assigned)
COc1ccc(Cl)cc1S(=O)(=O)N1CCc2cc(C(=O)N(c3ccc(F)cc3)c3cccc[nH+]3)ccc21 (nonaromatic ring conformer: 92.90173521993287 kcal/mol)

>  <smiles>  (85) 
COc1ccc(Cl)cc1S(=O)(=O)N1CCc2cc(C(=O)N(c3ccc(F)cc3)c3ccccn3)ccc21

>  <score_type>  (85) 
oracle

>  <origin>  (85) 
adg

>  <m_score__min__energy>  (85) 
-8.7400000000000002

>  <m_primary>  (85) 
energy

$$$$
85:0
     RDKit          3D

 27 29  0  0  0  0  0  0  0  0999 V2000
   56.1610   29.6810   45.0320 N   0  0  0  0  0  0  0  0  0  0  0  0
   56.7030   30.5340   44.2460 C   0  0  0  0  0  0  0  0  0  0  0  0
   56.4710   30.4270   42.9230 N   0  0  0  0  0  0  0  0  0  0  0  0
   56.9940   31.2720   42.0130 C   0  0  0  0  0  0  0  0  0  0  0  0
   57.7960   32.2900   42.4280 N   0  0  0  0  0  0  0  0  0  0  0  0
   58.0700   32.4540   43.7470 C   0  0  0  0  0  0  0  0  0  0  0  0
   58.8880   33.4990   44.1230 C   0  0  0  0  0  0  0  0  0  0  0  0
   59.1510   33.6460   45.4710 C   0  0  0  0  0  0  0  0  0  0  0  0
   58.6050   32.7630   46.4070 C   0  0  0  0  0  0  0  0  0  0  0  0
   58.9410   32.9990   47.8080 C   0  0  0  0  0  0  0  0  0  0  0  0
   58.5410   32.1650   48.8310 C   0  0  0  0  0  0  0  0  0  0  0  0
   58.8530   32.3790   50.1560 C   0  0  0  0  0  0  0  0  0  0  0  0
   59.5980   33.4800   50.4440 N   0  0  0  0  0  0  0  0  0  0  0  0
   59.9880   34.2900   49.4690 C   0  0  0  0  0  0  0  0  0  0  0  0
   59.7010   34.1170   48.1320 C   0  0  0  0  0  0  0  0  0  0  0  0
   57.7900   31.7290   45.9910 C   0  0  0  0  0  0  0  0  0  0  0  0
   57.5170   31.5690   44.6520 C   0  0  0  0  0  0  0  0  0  0  0  0
   55.9000   29.7660   46.0090 H   0  0  0  0  0  0  0  0  0  0  0  0
   55.8460   29.6350   42.5890 H   0  0  0  0  0  0  0  0  0  0  0  0
   56.7744   31.1400   40.9433 H   0  0  0  0  0  0  0  0  0  0  0  0
   59.3140   34.1880   43.3788 H   0  0  0  0  0  0  0  0  0  0  0  0
   59.7979   34.4678   45.8120 H   0  0  0  0  0  0  0  0  0  0  0  0
   57.9397   31.2801   48.5751 H   0  0  0  0  0  0  0  0  0  0  0  0
   58.5150   31.6909   50.9448 H   0  0  0  0  0  0  0  0  0  0  0  0
   60.5875   35.1687   49.7492 H   0  0  0  0  0  0  0  0  0  0  0  0
   60.0531   34.8230   47.3655 H   0  0  0  0  0  0  0  0  0  0  0  0
   57.3601   31.0349   46.7282 H   0  0  0  0  0  0  0  0  0  0  0  0
  1  2  2  3
  2  3  1  0
  3  4  1  0
  4  5  2  0
  5  6  1  0
  6  7  2  0
  7  8  1  0
  8  9  2  0
  9 10  1  0
 10 11  2  0
 11 12  1  0
 12 13  2  0
 13 14  1  0
 14 15  2  0
  9 16  1  0
 16 17  2  0
 17  2  1  0
 17  6  1  0
 15 10  1  0
  1 18  1  0
  3 19  1  0
  4 20  1  0
  7 21  1  0
  8 22  1  0
 11 23  1  0
 12 24  1  0
 14 25  1  0
 15 26  1  0
 16 27  1  0
M  END
>  <smiles>  (86) 
N=c1[nH]cnc2ccc(-c3ccncc3)cc12

>  <score_type>  (86) 
oracle

>  <origin>  (86) 
adg

>  <m_score__min__energy>  (86) 
-6.4699999999999998

>  <m_primary>  (86) 
energy

$$$$
86:0
     RDKit          3D

 43 45  0  0  0  0  0  0  0  0999 V2000
   60.0480   35.3790   46.2450 O   0  0  0  0  0  0  0  0  0  0  0  0
   59.9240   34.3310   47.3160 S   0  0  0  0  0  0  0  0  0  0  0  0
   59.2790   34.9590   48.5210 O   0  0  0  0  0  0  0  0  0  0  0  0
   61.5230   33.7190   47.7150 C   0  0  0  0  0  0  0  0  0  0  0  0
   61.8480   33.4450   49.0510 C   0  0  0  0  0  0  0  0  0  0  0  0
   63.1240   32.9790   49.3830 C   0  0  0  0  0  0  0  0  0  0  0  0
   64.0820   32.7900   48.3820 C   0  0  0  0  0  0  0  0  0  0  0  0
   63.7650   33.0690   47.0500 C   0  0  0  0  0  0  0  0  0  0  0  0
   62.4900   33.5350   46.7150 C   0  0  0  0  0  0  0  0  0  0  0  0
   58.9410   33.0160   46.7550 N   0  0  0  0  0  0  0  0  0  0  0  0
   57.6570   33.2890   46.1090 C   0  0  0  0  0  0  0  0  0  0  0  0
   57.5650   32.5320   44.8140 C   0  0  0  0  0  0  0  0  0  0  0  0
   56.8310   31.3360   44.7470 C   0  0  0  0  0  0  0  0  0  0  0  0
   56.6930   30.6620   43.5300 C   0  0  0  0  0  0  0  0  0  0  0  0
   57.2770   31.1820   42.3720 C   0  0  0  0  0  0  0  0  0  0  0  0
   57.9970   32.3780   42.4280 C   0  0  0  0  0  0  0  0  0  0  0  0
   58.1380   33.0550   43.6430 C   0  0  0  0  0  0  0  0  0  0  0  0
   59.2860   31.6750   47.1240 C   0  0  0  0  0  0  0  0  0  0  0  0
   59.8380   30.8430   46.1980 N   0  0  0  0  0  0  0  0  0  0  0  0
   60.1890   29.5640   46.5050 C   0  0  0  0  0  0  0  0  0  0  0  0
   60.0100   29.0700   47.8050 C   0  0  0  0  0  0  0  0  0  0  0  0
   60.3510   27.6400   48.1410 C   0  0  0  0  0  0  0  0  0  0  0  0
   59.1830   26.9160   48.2860 F   0  0  0  0  0  0  0  0  0  0  0  0
   61.1120   27.0710   47.1340 F   0  0  0  0  0  0  0  0  0  0  0  0
   61.0730   27.5730   49.3190 F   0  0  0  0  0  0  0  0  0  0  0  0
   59.4220   29.9090   48.7650 C   0  0  0  0  0  0  0  0  0  0  0  0
   59.0660   31.2170   48.4310 C   0  0  0  0  0  0  0  0  0  0  0  0
   58.3740   32.2640   49.6630 Cl  0  0  0  0  0  0  0  0  0  0  0  0
   61.0971   33.5970   49.8403 H   0  0  0  0  0  0  0  0  0  0  0  0
   63.3742   32.7611   50.4318 H   0  0  0  0  0  0  0  0  0  0  0  0
   65.0851   32.4217   48.6431 H   0  0  0  0  0  0  0  0  0  0  0  0
   64.5199   32.9218   46.2636 H   0  0  0  0  0  0  0  0  0  0  0  0
   62.2447   33.7577   45.6661 H   0  0  0  0  0  0  0  0  0  0  0  0
   56.8396   32.9742   46.7744 H   0  0  0  0  0  0  0  0  0  0  0  0
   57.5760   34.3669   45.9050 H   0  0  0  0  0  0  0  0  0  0  0  0
   56.3632   30.9284   45.6553 H   0  0  0  0  0  0  0  0  0  0  0  0
   56.1242   29.7216   43.4840 H   0  0  0  0  0  0  0  0  0  0  0  0
   57.1698   30.6493   41.4156 H   0  0  0  0  0  0  0  0  0  0  0  0
   58.4536   32.7875   41.5148 H   0  0  0  0  0  0  0  0  0  0  0  0
   58.6994   34.0002   43.6821 H   0  0  0  0  0  0  0  0  0  0  0  0
   59.9880   31.1850   45.2220 H   0  0  0  0  0  0  0  0  0  0  0  0
   60.6161   28.9134   45.7276 H   0  0  0  0  0  0  0  0  0  0  0  0
   59.2413   29.5346   49.7834 H   0  0  0  0  0  0  0  0  0  0  0  0
  1  2  2  0
  2  3  2  0
  2  4  1  0
  4  5  2  0
  5  6  1  0
  6  7  2  0
  7  8  1  0
  8  9  2  0
  2 10  1  0
 10 11  1  0
 11 12  1  0
 12 13  2  0
 13 14  1  0
 14 15  2  0
 15 16  1  0
 16 17  2  0
 10 18  1  0
 18 19  2  0
 19 20  1  0
 20 21  2  0
 21 22  1  0
 22 23  1  0
 22 24  1  0
 22 25  1  0
 21 26  1  0
 26 27  2  0
 27 28  1  0
  9  4  1  0
 17 12  1  0
 27 18  1  0
  5 29  1  0
  6 30  1  0
  7 31  1  0
  8 32  1  0
  9 33  1  0
 11 34  1  0
 11 35  1  0
 13 36  1  0
 14 37  1  0
 15 38  1  0
 16 39  1  0
 17 40  1  0
 19 41  1  0
 20 42  1  0
 26 43  1  0
M  CHG  1  19   1
M  END
>  <UniqueID>  (87) 
78

>  <SMILES>  (87) 
O=S(=O)(c1ccccc1)N(Cc1ccccc1)c1[nH+]cc(C(F)(F)F)cc1Cl

>  <Energy>  (87) 
49.73921916487748

>  <Genealogy>  (87) 
O=S(=O)(c1ccccc1)N(Cc1ccccc1)c1[nH+]cc(C(F)(F)F)cc1Cl (protonated)
O=S(=O)(c1ccccc1)N(Cc1ccccc1)c1[nH+]cc(C(F)(F)F)cc1Cl (3D coordinates assigned)
O=S(=O)(c1ccccc1)N(Cc1ccccc1)c1[nH+]cc(C(F)(F)F)cc1Cl (optimized conformer: 49.73921916487748 kcal/mol)

>  <smiles>  (87) 
O=S(=O)(c1ccccc1)N(Cc1ccccc1)c1ncc(C(F)(F)F)cc1Cl

>  <score_type>  (87) 
oracle

>  <origin>  (87) 
adg

>  <m_score__min__energy>  (87) 
-6.4900000000000002

>  <m_primary>  (87) 
energy

$$$$
87:0
     RDKit          3D

 43 46  0  0  1  0  0  0  0  0999 V2000
   63.9110   31.7080   49.6690 C   0  0  0  0  0  0  0  0  0  0  0  0
   63.3070   32.4180   48.5250 C   0  0  0  0  0  0  0  0  0  0  0  0
   63.9950   33.4820   47.9490 C   0  0  0  0  0  0  0  0  0  0  0  0
   63.4070   34.1340   46.8740 C   0  0  0  0  0  0  0  0  0  0  0  0
   62.1780   33.7550   46.3740 C   0  0  0  0  0  0  0  0  0  0  0  0
   57.7190   32.7610   46.6680 C   0  0  0  0  0  0  0  0  0  0  0  0
   57.5710   32.2150   45.3810 C   0  0  0  0  0  0  0  0  0  0  0  0
   61.4390   30.9320   48.6780 N   0  0  0  0  0  0  0  0  0  0  0  0
   60.3730   30.3710   48.2130 C   0  0  0  0  0  0  0  0  0  0  0  0
   59.4020   29.8890   48.9790 N   0  0  0  0  0  0  0  0  0  0  0  0
   58.5010   29.4050   48.1720 N   0  0  0  0  0  0  0  0  0  0  0  0
   58.8280   29.5440   46.8950 C   0  0  0  0  0  0  0  0  0  0  0  0
   58.2960   29.2240   45.6020 C   0  0  0  0  0  0  0  0  0  0  0  0
   58.8140   28.0690   44.9840 C   0  0  0  0  0  0  0  0  0  0  0  0
   58.3840   27.6320   43.7560 C   0  0  0  0  0  0  0  0  0  0  0  0
   57.4090   28.3320   43.0810 C   0  0  0  0  0  0  0  0  0  0  0  0
   56.9200   29.4230   43.6550 N   0  0  0  0  0  0  0  0  0  0  0  0
   57.3460   29.8720   44.8850 C   0  0  0  0  0  0  0  0  0  0  0  0
   56.9340   31.0010   45.2230 N   0  0  0  0  0  0  0  0  0  0  0  0
   62.0690   32.0280   48.0290 C   0  0  0  0  0  0  0  0  0  0  0  0
   61.5110   32.6960   46.9610 C   0  0  0  0  0  0  0  0  0  0  0  0
   58.8760   34.0200   44.5050 C   0  0  0  0  0  0  0  0  0  0  0  0
   59.0060   34.5380   45.7900 C   0  0  0  0  0  0  0  0  0  0  0  0
   59.7020   35.6760   46.0290 F   0  0  0  0  0  0  0  0  0  0  0  0
   58.4260   33.9070   46.8740 C   0  0  0  0  0  0  0  0  0  0  0  0
   58.1560   32.8460   44.2700 C   0  0  0  0  0  0  0  0  0  0  0  0
   60.0270   30.1640   46.9830 O   0  0  0  0  0  0  0  0  0  0  0  0
   63.5401   32.1440   50.6084 H   0  0  0  0  0  0  0  0  0  0  0  0
   63.6375   30.6434   49.6257 H   0  0  0  0  0  0  0  0  0  0  0  0
   65.0056   31.8074   49.6257 H   0  0  0  0  0  0  0  0  0  0  0  0
   64.9760   33.7969   48.3344 H   0  0  0  0  0  0  0  0  0  0  0  0
   63.9363   34.9776   46.4069 H   0  0  0  0  0  0  0  0  0  0  0  0
   61.7351   34.2883   45.5200 H   0  0  0  0  0  0  0  0  0  0  0  0
   57.2546   32.2526   47.5258 H   0  0  0  0  0  0  0  0  0  0  0  0
   59.3170   29.8690   50.0220 H   0  0  0  0  0  0  0  0  0  0  0  0
   59.5936   27.4948   45.5060 H   0  0  0  0  0  0  0  0  0  0  0  0
   58.8176   26.7239   43.3117 H   0  0  0  0  0  0  0  0  0  0  0  0
   57.0475   27.9971   42.0976 H   0  0  0  0  0  0  0  0  0  0  0  0
   56.1770   29.9470   43.1310 H   0  0  0  0  0  0  0  0  0  0  0  0
   60.5296   32.3850   46.5734 H   0  0  0  0  0  0  0  0  0  0  0  0
   59.3479   34.5435   43.6604 H   0  0  0  0  0  0  0  0  0  0  0  0
   58.5334   34.3233   47.8865 H   0  0  0  0  0  0  0  0  0  0  0  0
   58.0513   32.4323   43.2562 H   0  0  0  0  0  0  0  0  0  0  0  0
  1  2  1  0
  2  3  2  0
  3  4  1  0
  4  5  2  0
  5  6  1  0
  6  7  2  0
  7  8  1  0
  8  9  2  0
  9 10  1  0
 10 11  1  0
 11 12  2  0
 12 13  1  0
 13 14  2  0
 14 15  1  0
 15 16  2  0
 16 17  1  0
 17 18  1  0
 18 19  2  0
 19 20  1  0
 20 21  2  0
 21 22  1  0
 22 23  2  0
 23 24  1  0
 23 25  1  0
 25 26  2  0
 12 27  1  0
  7  2  1  0
 27  9  1  0
 18 13  1  0
 26 20  1  0
  1 28  1  0
  1 29  1  0
  1 30  1  0
  3 31  1  0
  4 32  1  0
  5 33  1  0
  6 34  1  0
 10 35  1  0
 14 36  1  0
 15 37  1  0
 16 38  1  0
 17 39  1  0
 21 40  1  0
 22 41  1  0
 25 42  1  0
 26 43  1  0
M  END
>  <smiles>  (88) 
Cc1ccccc1N=c1[nH]nc(-c2ccc[nH]c2=Nc2ccc(F)cc2)o1

>  <score_type>  (88) 
oracle

>  <origin>  (88) 
adg

>  <m_score__min__energy>  (88) 
-8.3200000000000003

>  <m_primary>  (88) 
energy

$$$$
88:0
     RDKit          3D

 30 32  0  0  0  0  0  0  0  0999 V2000
   56.0780   26.9150   45.8900 O   0  0  0  0  0  0  0  0  0  0  0  0
   57.0160   27.6720   45.5230 C   0  0  0  0  0  0  0  0  0  0  0  0
   58.3870   27.3030   45.7200 N   0  0  0  0  0  0  0  0  0  0  0  0
   59.4660   28.0330   45.0310 C   0  0  0  0  0  0  0  0  0  0  0  0
   59.2030   29.5590   44.9770 C   0  0  0  0  0  0  0  0  0  0  0  0
   57.7680   29.8340   44.6220 C   0  0  0  0  0  0  0  0  0  0  0  0
   56.7560   28.9700   44.9170 C   0  0  0  0  0  0  0  0  0  0  0  0
   55.5880   29.6210   44.5860 C   0  0  0  0  0  0  0  0  0  0  0  0
   55.9050   30.8500   44.1200 N   0  0  0  0  0  0  0  0  0  0  0  0
   57.2250   30.9790   44.1600 N   0  0  0  0  0  0  0  0  0  0  0  0
   57.9360   32.1810   43.7270 C   0  0  0  0  0  0  0  0  0  0  0  0
   58.2900   33.0310   44.9170 C   0  0  0  0  0  0  0  0  0  0  0  0
   59.1370   34.1410   44.7600 C   0  0  0  0  0  0  0  0  0  0  0  0
   59.4830   34.9260   45.8650 C   0  0  0  0  0  0  0  0  0  0  0  0
   58.9850   34.6080   47.1320 C   0  0  0  0  0  0  0  0  0  0  0  0
   58.1410   33.5070   47.2960 C   0  0  0  0  0  0  0  0  0  0  0  0
   57.7920   32.7200   46.1940 C   0  0  0  0  0  0  0  0  0  0  0  0
   58.6170   26.4340   46.2540 H   0  0  0  0  0  0  0  0  0  0  0  0
   60.4106   27.8557   45.5660 H   0  0  0  0  0  0  0  0  0  0  0  0
   59.5146   27.6633   43.9961 H   0  0  0  0  0  0  0  0  0  0  0  0
   59.4233   29.9993   45.9607 H   0  0  0  0  0  0  0  0  0  0  0  0
   59.8513   30.0047   44.2082 H   0  0  0  0  0  0  0  0  0  0  0  0
   54.5719   29.2113   44.6840 H   0  0  0  0  0  0  0  0  0  0  0  0
   58.8574   31.8890   43.2018 H   0  0  0  0  0  0  0  0  0  0  0  0
   57.2871   32.7591   43.0527 H   0  0  0  0  0  0  0  0  0  0  0  0
   59.5297   34.3938   43.7641 H   0  0  0  0  0  0  0  0  0  0  0  0
   60.1470   35.7936   45.7370 H   0  0  0  0  0  0  0  0  0  0  0  0
   59.2580   35.2253   48.0006 H   0  0  0  0  0  0  0  0  0  0  0  0
   57.7502   33.2586   48.2938 H   0  0  0  0  0  0  0  0  0  0  0  0
   57.1257   31.8549   46.3270 H   0  0  0  0  0  0  0  0  0  0  0  0
  1  2  2  0
  2  3  1  0
  3  4  1  0
  4  5  1  0
  5  6  1  0
  6  7  2  0
  7  8  1  0
  8  9  2  0
  9 10  1  0
 10 11  1  0
 11 12  1  0
 12 13  2  0
 13 14  1  0
 14 15  2  0
 15 16  1  0
 16 17  2  0
  7  2  1  0
 17 12  1  0
 10  6  1  0
  3 18  1  0
  4 19  1  0
  4 20  1  0
  5 21  1  0
  5 22  1  0
  8 23  1  0
 11 24  1  0
 11 25  1  0
 13 26  1  0
 14 27  1  0
 15 28  1  0
 16 29  1  0
 17 30  1  0
M  END
>  <UniqueID>  (89) 
79

>  <SMILES>  (89) 
O=C1NCCc2c1cnn2Cc1ccccc1

>  <Energy>  (89) 
64.14611820335135

>  <Genealogy>  (89) 
O=C1NCCc2c1cnn2Cc1ccccc1 (3D coordinates assigned)
O=C1NCCc2c1cnn2Cc1ccccc1 (nonaromatic ring conformer: 64.14611820335135 kcal/mol)

>  <smiles>  (89) 
O=C1NCCc2c1cnn2Cc1ccccc1

>  <score_type>  (89) 
oracle

>  <origin>  (89) 
adg

>  <m_score__min__energy>  (89) 
-6.6699999999999999

>  <m_primary>  (89) 
energy

$$$$
89:0
     RDKit          3D

 41 43  0  0  0  0  0  0  0  0999 V2000
   56.2470   34.8760   45.6350 H   0  0  0  0  0  0  0  0  0  0  0  0
   57.0730   34.3180   45.3240 N   0  0  0  0  0  0  0  0  0  0  0  0
   58.0730   34.0620   46.1060 C   0  0  0  0  0  0  0  0  0  0  0  0
   57.9870   33.0390   46.9960 N   0  0  0  0  0  0  0  0  0  0  0  0
   59.0160   32.7390   47.8320 C   0  0  0  0  0  0  0  0  0  0  0  0
   58.8660   31.3770   48.9820 S   0  0  0  0  0  0  0  0  0  0  0  0
   59.4360   30.1800   47.7760 C   0  0  0  0  0  0  0  0  0  0  0  0
   60.3200   30.5730   46.7640 C   0  0  0  0  0  0  0  0  0  0  0  0
   60.6659   31.6158   46.7101 H   0  0  0  0  0  0  0  0  0  0  0  0
   60.7630   29.6400   45.8220 C   0  0  0  0  0  0  0  0  0  0  0  0
   61.4540   29.9510   45.0246 H   0  0  0  0  0  0  0  0  0  0  0  0
   60.3300   28.3130   45.8910 C   0  0  0  0  0  0  0  0  0  0  0  0
   60.6760   27.5837   45.1437 H   0  0  0  0  0  0  0  0  0  0  0  0
   59.4550   27.9080   46.9110 C   0  0  0  0  0  0  0  0  0  0  0  0
   58.9620   26.4920   46.9750 C   0  0  0  0  0  0  0  0  0  0  0  0
   59.2431   25.9631   46.0524 H   0  0  0  0  0  0  0  0  0  0  0  0
   59.4140   25.9835   47.8394 H   0  0  0  0  0  0  0  0  0  0  0  0
   57.5120   26.4920   47.1130 N   0  0  0  0  0  0  0  0  0  0  0  0
   56.6100   26.9890   46.1170 C   0  0  0  0  0  0  0  0  0  0  0  0
   55.4750   26.4590   46.0020 O   0  0  0  0  0  0  0  0  0  0  0  0
   56.9620   28.1160   45.2410 C   0  0  0  0  0  0  0  0  0  0  0  0
   56.6180   29.3600   45.4780 O   0  0  0  0  0  0  0  0  0  0  0  0
   57.0810   30.0840   44.4810 C   0  0  0  0  0  0  0  0  0  0  0  0
   56.8810   31.5570   44.3610 C   0  0  0  0  0  0  0  0  0  0  0  0
   56.8206   32.0018   45.3652 H   0  0  0  0  0  0  0  0  0  0  0  0
   57.7274   31.9987   43.8146 H   0  0  0  0  0  0  0  0  0  0  0  0
   55.9475   31.7570   43.8146 H   0  0  0  0  0  0  0  0  0  0  0  0
   57.7210   29.3350   43.5630 N   0  0  0  0  0  0  0  0  0  0  0  0
   58.1460   29.6530   42.6630 H   0  0  0  0  0  0  0  0  0  0  0  0
   57.6470   28.0790   44.0370 C   0  0  0  0  0  0  0  0  0  0  0  0
   58.1180   26.8750   43.2810 C   0  0  0  0  0  0  0  0  0  0  0  0
   58.4240   26.0927   43.9912 H   0  0  0  0  0  0  0  0  0  0  0  0
   57.3015   26.4968   42.6483 H   0  0  0  0  0  0  0  0  0  0  0  0
   58.9744   27.1512   42.6483 H   0  0  0  0  0  0  0  0  0  0  0  0
   58.9970   28.8530   47.8430 C   0  0  0  0  0  0  0  0  0  0  0  0
   58.2902   28.5489   48.6291 H   0  0  0  0  0  0  0  0  0  0  0  0
   60.1870   33.5010   47.7780 C   0  0  0  0  0  0  0  0  0  0  0  0
   61.0276   33.2744   48.4503 H   0  0  0  0  0  0  0  0  0  0  0  0
   60.2780   34.5240   46.8880 N   0  0  0  0  0  0  0  0  0  0  0  0
   59.2500   34.8230   46.0510 C   0  0  0  0  0  0  0  0  0  0  0  0
   59.3401   35.6546   45.3366 H   0  0  0  0  0  0  0  0  0  0  0  0
  1  2  1  0
  2  3  2  0
  3  4  1  0
  4  5  1  0
  5  6  1  0
  6  7  1  0
  7  8  2  0
  8  9  1  0
  8 10  1  0
 10 11  1  0
 10 12  2  0
 12 13  1  0
 12 14  1  0
 14 15  1  0
 15 16  1  0
 15 17  1  0
 15 18  1  0
 18 19  1  0
 19 20  2  0
 19 21  1  0
 21 22  1  0
 22 23  1  0
 23 24  1  0
 24 25  1  0
 24 26  1  0
 24 27  1  0
 23 28  2  0
 28 29  1  0
 28 30  1  0
 30 31  1  0
 31 32  1  0
 31 33  1  0
 31 34  1  0
 14 35  2  0
 35 36  1  0
  5 37  2  0
 37 38  1  0
 37 39  1  0
 39 40  2  0
 40 41  1  0
 40  3  1  0
 35  7  1  0
 30 21  2  0
M  CHG  3   4  -1  18  -1  28   1
M  END
>  <UniqueID>  (90) 
80

>  <SMILES>  (90) 
[H]/N=c1\cncc(Sc2cccc(C[N-]C(=O)c3oc(C)[nH+]c3C)c2)[n-]1

>  <Energy>  (90) 
72.87754186741886

>  <Genealogy>  (90) 
Cc1[nH+]c(C)c(C(=O)[N-]Cc2cccc(Sc3cncc(=N)[n-]3)c2)o1 (protonated)
[H]/N=c1\cncc(Sc2cccc(C[N-]C(=O)c3oc(C)[nH+]c3C)c2)[n-]1 (cis-trans isomerization)
[H]/N=c1\cncc(Sc2cccc(C[N-]C(=O)c3oc(C)[nH+]c3C)c2)[n-]1 (3D coordinates assigned)
[H]/N=c1\cncc(Sc2cccc(C[N-]C(=O)c3oc(C)[nH+]c3C)c2)[n-]1 (optimized conformer: 72.87754186741886 kcal/mol)

>  <smiles>  (90) 
Cc1nc(C)c(C(=O)NCc2cccc(Sc3cncc(=N)[nH]3)c2)o1

>  <score_type>  (90) 
oracle

>  <origin>  (90) 
adg

>  <m_score__min__energy>  (90) 
-9.8399999999999999

>  <m_primary>  (90) 
energy

$$$$
90:0
     RDKit          3D

 56 60  0  0  0  0  0  0  0  0999 V2000
   57.6039   24.3617   47.3757 H   0  0  0  0  0  0  0  0  0  0  0  0
   56.9550   25.0940   46.8730 C   0  0  0  0  0  0  0  0  0  0  0  0
   55.6620   24.9610   46.6700 O   0  0  0  0  0  0  0  0  0  0  0  0
   55.1680   25.9940   46.0500 N   0  0  0  0  0  0  0  0  0  0  0  0
   56.2000   26.8330   45.8440 C   0  0  0  0  0  0  0  0  0  0  0  0
   56.1070   27.9830   45.2520 N   0  0  0  0  0  0  0  0  0  0  0  0
   57.3330   28.6020   44.1940 S   0  0  0  0  0  0  0  0  0  0  0  0
   58.3260   27.5140   43.8950 O   0  0  0  0  0  0  0  0  0  0  0  0
   56.7000   29.0450   42.9050 O   0  0  0  0  0  0  0  0  0  0  0  0
   58.1700   29.9400   44.9780 C   0  0  0  0  0  0  0  0  0  0  0  0
   59.3440   29.6930   45.6950 C   0  0  0  0  0  0  0  0  0  0  0  0
   59.7463   28.6706   45.7485 H   0  0  0  0  0  0  0  0  0  0  0  0
   60.0100   30.7350   46.3440 C   0  0  0  0  0  0  0  0  0  0  0  0
   60.9358   30.5261   46.9001 H   0  0  0  0  0  0  0  0  0  0  0  0
   59.5070   32.0560   46.2940 C   0  0  0  0  0  0  0  0  0  0  0  0
   58.3190   32.2970   45.5580 C   0  0  0  0  0  0  0  0  0  0  0  0
   57.6590   31.2420   44.9090 C   0  0  0  0  0  0  0  0  0  0  0  0
   56.7362   31.4387   44.3436 H   0  0  0  0  0  0  0  0  0  0  0  0
   57.8110   33.5950   45.4850 C   0  0  0  0  0  0  0  0  0  0  0  0
   56.8899   33.7943   44.9177 H   0  0  0  0  0  0  0  0  0  0  0  0
   58.4690   34.6350   46.1290 C   0  0  0  0  0  0  0  0  0  0  0  0
   58.0735   35.6596   46.0683 H   0  0  0  0  0  0  0  0  0  0  0  0
   59.6330   34.3760   46.8530 C   0  0  0  0  0  0  0  0  0  0  0  0
   60.2100   35.3350   47.4380 O   0  0  0  0  0  0  0  0  0  0  0  0
   60.1390   33.1030   46.9320 N   0  0  0  0  0  0  0  0  0  0  0  0
   61.3350   32.8860   47.7090 C   0  0  0  0  0  0  0  0  0  0  0  0
   62.5900   33.0210   47.1030 C   0  0  0  0  0  0  0  0  0  0  0  0
   62.6574   33.2940   46.0396 H   0  0  0  0  0  0  0  0  0  0  0  0
   63.7560   32.8110   47.8410 C   0  0  0  0  0  0  0  0  0  0  0  0
   64.7371   32.9157   47.3548 H   0  0  0  0  0  0  0  0  0  0  0  0
   63.6840   32.4670   49.2000 C   0  0  0  0  0  0  0  0  0  0  0  0
   64.9250   32.2360   49.9780 C   0  0  0  0  0  0  0  0  0  0  0  0
   66.0540   33.0460   49.7540 C   0  0  0  0  0  0  0  0  0  0  0  0
   66.0080   33.8501   49.0048 H   0  0  0  0  0  0  0  0  0  0  0  0
   67.2430   32.8360   50.4810 C   0  0  0  0  0  0  0  0  0  0  0  0
   68.3920   33.6170   50.2860 O   0  0  0  0  0  0  0  0  0  0  0  0
   68.6180   34.8850   50.8960 C   0  0  0  0  0  0  0  0  0  0  0  0
   68.5983   34.7742   51.9902 H   0  0  0  0  0  0  0  0  0  0  0  0
   69.5993   35.2722   50.5843 H   0  0  0  0  0  0  0  0  0  0  0  0
   67.8309   35.5873   50.5843 H   0  0  0  0  0  0  0  0  0  0  0  0
   67.2900   31.8140   51.4340 C   0  0  0  0  0  0  0  0  0  0  0  0
   68.2143   31.6423   52.0052 H   0  0  0  0  0  0  0  0  0  0  0  0
   66.1730   31.0100   51.6660 C   0  0  0  0  0  0  0  0  0  0  0  0
   66.2216   30.2095   52.4188 H   0  0  0  0  0  0  0  0  0  0  0  0
   64.9940   31.2170   50.9470 C   0  0  0  0  0  0  0  0  0  0  0  0
   63.9120   30.4440   51.2210 F   0  0  0  0  0  0  0  0  0  0  0  0
   62.4240   32.3280   49.8070 C   0  0  0  0  0  0  0  0  0  0  0  0
   62.3592   32.0517   50.8698 H   0  0  0  0  0  0  0  0  0  0  0  0
   61.2430   32.5390   49.0680 C   0  0  0  0  0  0  0  0  0  0  0  0
   59.9680   32.4100   49.6420 O   0  0  0  0  0  0  0  0  0  0  0  0
   59.2820   31.1760   49.8140 C   0  0  0  0  0  0  0  0  0  0  0  0
   59.1661   30.9675   50.8878 H   0  0  0  0  0  0  0  0  0  0  0  0
   58.2897   31.2395   49.3436 H   0  0  0  0  0  0  0  0  0  0  0  0
   59.8597   30.3667   49.3436 H   0  0  0  0  0  0  0  0  0  0  0  0
   57.3620   26.3040   46.3510 C   0  0  0  0  0  0  0  0  0  0  0  0
   58.3720   26.7397   46.3427 H   0  0  0  0  0  0  0  0  0  0  0  0
  1  2  1  0
  2  3  1  0
  3  4  1  0
  4  5  1  0
  5  6  2  0
  6  7  1  0
  7  8  2  0
  7  9  2  0
  7 10  1  0
 10 11  2  0
 11 12  1  0
 11 13  1  0
 13 14  1  0
 13 15  2  0
 15 16  1  0
 16 17  2  0
 17 18  1  0
 16 19  1  0
 19 20  1  0
 19 21  2  0
 21 22  1  0
 21 23  1  0
 23 24  2  0
 23 25  1  0
 25 26  1  0
 26 27  2  0
 27 28  1  0
 27 29  1  0
 29 30  1  0
 29 31  2  0
 31 32  1  0
 32 33  2  0
 33 34  1  0
 33 35  1  0
 35 36  1  0
 36 37  1  0
 37 38  1  0
 37 39  1  0
 37 40  1  0
 35 41  2  0
 41 42  1  0
 41 43  1  0
 43 44  1  0
 43 45  2  0
 45 46  1  0
 31 47  1  0
 47 48  1  0
 47 49  2  0
 49 50  1  0
 50 51  1  0
 51 52  1  0
 51 53  1  0
 51 54  1  0
  5 55  1  0
 55 56  1  0
 55  2  2  0
 17 10  1  0
 49 26  1  0
 25 15  1  0
 45 32  1  0
M  CHG  1   4  -1
M  END
>  <UniqueID>  (91) 
81

>  <SMILES>  (91) 
COc1ccc(F)c(-c2ccc(-n3c(=O)ccc4cc(S(=O)(=O)/N=c5/cco[n-]5)ccc43)c(OC)c2)c1

>  <Energy>  (91) 
116.1923621207608

>  <Genealogy>  (91) 
COc1ccc(F)c(-c2ccc(-n3c(=O)ccc4cc(S(=O)(=O)N=c5cco[n-]5)ccc43)c(OC)c2)c1 (protonated)
COc1ccc(F)c(-c2ccc(-n3c(=O)ccc4cc(S(=O)(=O)/N=c5/cco[n-]5)ccc43)c(OC)c2)c1 (cis-trans isomerization)
COc1ccc(F)c(-c2ccc(-n3c(=O)ccc4cc(S(=O)(=O)/N=c5/cco[n-]5)ccc43)c(OC)c2)c1 (3D coordinates assigned)
COc1ccc(F)c(-c2ccc(-n3c(=O)ccc4cc(S(=O)(=O)/N=c5/cco[n-]5)ccc43)c(OC)c2)c1 (optimized conformer: 116.1923621207608 kcal/mol)

>  <smiles>  (91) 
COc1ccc(F)c(-c2ccc(-n3c(=O)ccc4cc(S(=O)(=O)N=c5cco[nH]5)ccc43)c(OC)c2)c1

>  <score_type>  (91) 
oracle

>  <origin>  (91) 
adg

>  <m_score__min__energy>  (91) 
-13.119999999999999

>  <m_primary>  (91) 
energy

$$$$
91:0
     RDKit          3D

 34 36  0  0  0  0  0  0  0  0999 V2000
   66.0920   31.9690   50.2120 C   0  0  0  0  0  0  0  0  0  0  0  0
   65.6000   33.1980   50.2760 C   0  0  0  0  0  0  0  0  0  0  0  0
   64.2280   33.4400   49.8450 C   0  0  0  0  0  0  0  0  0  0  0  0
   63.5090   32.7210   48.9110 C   0  0  0  0  0  0  0  0  0  0  0  0
   62.2510   33.2720   48.7880 C   0  0  0  0  0  0  0  0  0  0  0  0
   61.2200   32.7690   47.8900 C   0  0  0  0  0  0  0  0  0  0  0  0
   61.3120   31.4890   47.3320 C   0  0  0  0  0  0  0  0  0  0  0  0
   60.3500   30.9910   46.4820 C   0  0  0  0  0  0  0  0  0  0  0  0
   59.2500   31.7380   46.1420 C   0  0  0  0  0  0  0  0  0  0  0  0
   58.2220   31.2290   45.2420 C   0  0  0  0  0  0  0  0  0  0  0  0
   57.3920   30.1680   45.5890 C   0  0  0  0  0  0  0  0  0  0  0  0
   56.4530   29.7620   44.6710 C   0  0  0  0  0  0  0  0  0  0  0  0
   55.6210   28.7010   45.0140 O   0  0  0  0  0  0  0  0  0  0  0  0
   56.2910   30.3460   43.4310 C   0  0  0  0  0  0  0  0  0  0  0  0
   57.1190   31.3990   43.0940 C   0  0  0  0  0  0  0  0  0  0  0  0
   58.0680   31.8200   44.0070 C   0  0  0  0  0  0  0  0  0  0  0  0
   58.8730   32.8450   43.6760 F   0  0  0  0  0  0  0  0  0  0  0  0
   59.1320   32.9900   46.6700 C   0  0  0  0  0  0  0  0  0  0  0  0
   60.1050   33.4930   47.5300 C   0  0  0  0  0  0  0  0  0  0  0  0
   59.9190   34.7260   48.0050 F   0  0  0  0  0  0  0  0  0  0  0  0
   62.2300   34.3060   49.6430 N   0  0  0  0  0  0  0  0  0  0  0  0
   63.4000   34.4060   50.2700 N   0  0  0  0  0  0  0  0  0  0  0  0
   67.1254   31.7728   50.5340 H   0  0  0  0  0  0  0  0  0  0  0  0
   65.4670   31.1452   49.8369 H   0  0  0  0  0  0  0  0  0  0  0  0
   66.2197   34.0263   50.6501 H   0  0  0  0  0  0  0  0  0  0  0  0
   63.8804   31.8481   48.3540 H   0  0  0  0  0  0  0  0  0  0  0  0
   62.1802   30.8609   47.5803 H   0  0  0  0  0  0  0  0  0  0  0  0
   60.4650   29.9781   46.0688 H   0  0  0  0  0  0  0  0  0  0  0  0
   57.4841   29.6704   46.5657 H   0  0  0  0  0  0  0  0  0  0  0  0
   54.7550   28.5330   44.5050 H   0  0  0  0  0  0  0  0  0  0  0  0
   55.5241   29.9831   42.7308 H   0  0  0  0  0  0  0  0  0  0  0  0
   57.0250   31.8940   42.1162 H   0  0  0  0  0  0  0  0  0  0  0  0
   58.2593   33.6088   46.4139 H   0  0  0  0  0  0  0  0  0  0  0  0
   61.4370   34.9410   49.8080 H   0  0  0  0  0  0  0  0  0  0  0  0
  1  2  2  0
  2  3  1  0
  3  4  1  0
  4  5  2  0
  5  6  1  0
  6  7  2  0
  7  8  1  0
  8  9  2  0
  9 10  1  0
 10 11  2  0
 11 12  1  0
 12 13  1  0
 12 14  2  0
 14 15  1  0
 15 16  2  0
 16 17  1  0
  9 18  1  0
 18 19  2  0
 19 20  1  0
  5 21  1  0
 21 22  1  0
 22  3  2  0
 19  6  1  0
 16 10  1  0
  1 23  1  0
  1 24  1  0
  2 25  1  0
  4 26  1  0
  7 27  1  0
  8 28  1  0
 11 29  1  0
 13 30  1  0
 14 31  1  0
 15 32  1  0
 18 33  1  0
 21 34  1  0
M  END
>  <smiles>  (92) 
C=Cc1cc(-c2ccc(-c3cc(O)ccc3F)cc2F)[nH]n1

>  <score_type>  (92) 
oracle

>  <origin>  (92) 
adg

>  <m_score__min__energy>  (92) 
-7.6900000000000004

>  <m_primary>  (92) 
energy

$$$$
