0:0
     RDKit          3D

 60 64  0  0  0  0  0  0  0  0999 V2000
   55.6550   28.6050   44.8630 N   0  0  0  0  0  0  0  0  0  0  0  0
   56.3610   29.6820   44.7500 C   0  0  0  0  0  0  0  0  0  0  0  0
   57.0330   30.2290   45.7900 N   0  0  0  0  0  0  0  0  0  0  0  0
   57.6990   31.3520   45.4010 C   0  0  0  0  0  0  0  0  0  0  0  0
   57.5370   31.6910   44.0660 C   0  0  0  0  0  0  0  0  0  0  0  0
   56.5550   30.5480   43.3120 S   0  0  0  0  0  0  0  0  0  0  0  0
   58.2150   32.8490   43.4230 C   0  0  0  0  0  0  0  0  0  0  0  0
   58.4960   33.9290   44.4760 C   0  0  0  0  0  0  0  0  0  0  0  0
   59.1350   33.3540   45.6820 N   0  0  0  0  0  0  0  0  0  0  0  0
   60.1910   34.0730   46.3740 C   0  0  0  0  0  0  0  0  0  0  0  0
   60.3920   35.2970   46.1270 O   0  0  0  0  0  0  0  0  0  0  0  0
   61.0130   33.4190   47.4080 C   0  0  0  0  0  0  0  0  0  0  0  0
   62.0460   32.5450   47.0430 C   0  0  0  0  0  0  0  0  0  0  0  0
   62.7180   31.8040   48.0190 C   0  0  0  0  0  0  0  0  0  0  0  0
   62.3610   31.9270   49.3710 C   0  0  0  0  0  0  0  0  0  0  0  0
   62.8840   30.9440   50.3830 C   0  0  0  0  0  0  0  0  0  0  0  0
   61.7550   30.2250   50.9660 N   0  0  0  0  0  0  0  0  0  0  0  0
   61.1820   29.0670   50.3500 C   0  0  0  0  0  0  0  0  0  0  0  0
   61.5670   27.9130   50.6850 O   0  0  0  0  0  0  0  0  0  0  0  0
   60.1890   29.2190   49.2810 C   0  0  0  0  0  0  0  0  0  0  0  0
   59.7540   30.3660   48.9810 O   0  0  0  0  0  0  0  0  0  0  0  0
   59.7840   28.0670   48.5310 N   0  0  0  0  0  0  0  0  0  0  0  0
   59.5840   28.0430   47.1130 C   0  0  0  0  0  0  0  0  0  0  0  0
   60.3470   28.9120   46.3210 C   0  0  0  0  0  0  0  0  0  0  0  0
   60.1980   28.9200   44.9320 C   0  0  0  0  0  0  0  0  0  0  0  0
   59.2980   28.0430   44.3210 C   0  0  0  0  0  0  0  0  0  0  0  0
   58.5540   27.1500   45.0980 C   0  0  0  0  0  0  0  0  0  0  0  0
   58.6960   27.1340   46.4940 C   0  0  0  0  0  0  0  0  0  0  0  0
   57.7800   25.9040   47.4340 S   0  0  0  0  0  0  0  0  0  0  0  0
   57.5340   24.8400   46.0110 C   0  0  0  0  0  0  0  0  0  0  0  0
   56.3550   24.9360   45.2540 C   0  0  0  0  0  0  0  0  0  0  0  0
   56.1720   24.1170   44.1380 C   0  0  0  0  0  0  0  0  0  0  0  0
   57.1670   23.2060   43.7670 C   0  0  0  0  0  0  0  0  0  0  0  0
   58.3500   23.1140   44.5150 C   0  0  0  0  0  0  0  0  0  0  0  0
   58.5360   23.9340   45.6330 C   0  0  0  0  0  0  0  0  0  0  0  0
   61.3660   32.8480   49.7390 C   0  0  0  0  0  0  0  0  0  0  0  0
   60.7060   33.5990   48.7630 C   0  0  0  0  0  0  0  0  0  0  0  0
   58.5570   32.1600   46.3390 C   0  0  0  0  0  0  0  0  0  0  0  0
   56.0790   27.6610   44.7130 H   0  0  0  0  0  0  0  0  0  0  0  0
   59.1640   32.5165   42.9771 H   0  0  0  0  0  0  0  0  0  0  0  0
   57.5653   33.2636   42.6381 H   0  0  0  0  0  0  0  0  0  0  0  0
   59.1660   34.6860   44.0424 H   0  0  0  0  0  0  0  0  0  0  0  0
   57.5380   34.3803   44.7734 H   0  0  0  0  0  0  0  0  0  0  0  0
   62.3288   32.4419   45.9850 H   0  0  0  0  0  0  0  0  0  0  0  0
   63.5298   31.1218   47.7266 H   0  0  0  0  0  0  0  0  0  0  0  0
   63.5618   30.2313   49.8904 H   0  0  0  0  0  0  0  0  0  0  0  0
   63.4359   31.4766   51.1715 H   0  0  0  0  0  0  0  0  0  0  0  0
   61.0684   29.5927   46.7966 H   0  0  0  0  0  0  0  0  0  0  0  0
   60.7891   29.6166   44.3194 H   0  0  0  0  0  0  0  0  0  0  0  0
   59.1748   28.0552   43.2280 H   0  0  0  0  0  0  0  0  0  0  0  0
   57.8529   26.4556   44.6120 H   0  0  0  0  0  0  0  0  0  0  0  0
   55.5751   25.6569   45.5405 H   0  0  0  0  0  0  0  0  0  0  0  0
   55.2450   24.1881   43.5501 H   0  0  0  0  0  0  0  0  0  0  0  0
   57.0214   22.5612   42.8878 H   0  0  0  0  0  0  0  0  0  0  0  0
   59.1314   22.3971   44.2225 H   0  0  0  0  0  0  0  0  0  0  0  0
   59.4670   23.8684   46.2151 H   0  0  0  0  0  0  0  0  0  0  0  0
   61.1055   32.9784   50.7997 H   0  0  0  0  0  0  0  0  0  0  0  0
   59.9430   34.3338   49.0594 H   0  0  0  0  0  0  0  0  0  0  0  0
   59.3775   31.5248   46.7040 H   0  0  0  0  0  0  0  0  0  0  0  0
   57.9192   32.5058   47.1658 H   0  0  0  0  0  0  0  0  0  0  0  0
  1  2  2  3
  2  3  1  0
  3  4  1  0
  4  5  2  0
  5  6  1  0
  5  7  1  0
  7  8  1  0
  8  9  1  0
  9 10  1  0
 10 11  2  0
 10 12  1  0
 12 13  2  0
 13 14  1  0
 14 15  2  0
 15 16  1  0
 16 17  1  0
 17 18  1  0
 18 19  2  0
 18 20  1  0
 20 21  2  0
 20 22  1  0
 22 23  1  0
 23 24  2  0
 24 25  1  0
 25 26  2  0
 26 27  1  0
 27 28  2  0
 28 29  1  0
 29 30  1  0
 30 31  2  0
 31 32  1  0
 32 33  2  0
 33 34  1  0
 34 35  2  0
 15 36  1  0
 36 37  2  0
  9 38  1  0
  6  2  1  0
 37 12  1  0
 38  4  1  0
 28 23  1  0
 35 30  1  0
  1 39  1  0
  7 40  1  0
  7 41  1  0
  8 42  1  0
  8 43  1  0
 13 44  1  0
 14 45  1  0
 16 46  1  0
 16 47  1  0
 24 48  1  0
 25 49  1  0
 26 50  1  0
 27 51  1  0
 31 52  1  0
 32 53  1  0
 33 54  1  0
 34 55  1  0
 35 56  1  0
 36 57  1  0
 37 58  1  0
 38 59  1  0
 38 60  1  0
M  CHG  3   3  -1  17  -1  22  -1
M  END
>  <UniqueID>  (1) 
1

>  <SMILES>  (1) 
N=c1[n-]c2c(s1)CCN(C(=O)c1ccc(C[N-]C(=O)C(=O)[N-]c3ccccc3Sc3ccccc3)cc1)C2

>  <Energy>  (1) 
105.09844914553173

>  <Genealogy>  (1) 
N=c1[n-]c2c(s1)CCN(C(=O)c1ccc(C[N-]C(=O)C(=O)[N-]c3ccccc3Sc3ccccc3)cc1)C2 (protonated)
N=c1[n-]c2c(s1)CCN(C(=O)c1ccc(C[N-]C(=O)C(=O)[N-]c3ccccc3Sc3ccccc3)cc1)C2 (3D coordinates assigned)
N=c1[n-]c2c(s1)CCN(C(=O)c1ccc(C[N-]C(=O)C(=O)[N-]c3ccccc3Sc3ccccc3)cc1)C2 (nonaromatic ring conformer: 105.09844914553173 kcal/mol)

>  <smiles>  (1) 
N=c1[nH]c2c(s1)CCN(C(=O)c1ccc(CNC(=O)C(=O)Nc3ccccc3Sc3ccccc3)cc1)C2

>  <score_type>  (1) 
oracle

>  <origin>  (1) 
adg

>  <m_score__min__energy>  (1) 
-14.630000000000001

>  <m_primary>  (1) 
energy

$$$$
1:0
     RDKit          3D

 56 60  0  0  0  0  0  0  0  0999 V2000
   65.6010   32.4180   50.1100 C   0  0  0  0  0  0  0  0  0  0  0  0
   64.4690   33.2510   49.8900 O   0  0  0  0  0  0  0  0  0  0  0  0
   63.4260   32.9510   49.0000 C   0  0  0  0  0  0  0  0  0  0  0  0
   63.6400   31.9600   48.0400 C   0  0  0  0  0  0  0  0  0  0  0  0
   62.6330   31.6010   47.1420 C   0  0  0  0  0  0  0  0  0  0  0  0
   61.3520   32.1910   47.2170 C   0  0  0  0  0  0  0  0  0  0  0  0
   60.2510   31.8160   46.3710 C   0  0  0  0  0  0  0  0  0  0  0  0
   60.1500   30.6920   45.7090 N   0  0  0  0  0  0  0  0  0  0  0  0
   59.5060   29.4580   46.0570 C   0  0  0  0  0  0  0  0  0  0  0  0
   59.3420   28.4870   45.0660 C   0  0  0  0  0  0  0  0  0  0  0  0
   58.6950   27.2830   45.3500 C   0  0  0  0  0  0  0  0  0  0  0  0
   58.1880   27.0400   46.6370 C   0  0  0  0  0  0  0  0  0  0  0  0
   57.5330   25.8110   46.9790 N   0  0  0  0  0  0  0  0  0  0  0  0
   56.1080   25.1960   46.2040 S   0  0  0  0  0  0  0  0  0  0  0  0
   56.5630   24.4880   44.6370 C   0  0  0  0  0  0  0  0  0  0  0  0
   55.1270   26.3100   45.9750 O   0  0  0  0  0  0  0  0  0  0  0  0
   55.4840   24.1300   47.0610 O   0  0  0  0  0  0  0  0  0  0  0  0
   58.3110   28.0290   47.6210 C   0  0  0  0  0  0  0  0  0  0  0  0
   58.9450   29.2550   47.3350 C   0  0  0  0  0  0  0  0  0  0  0  0
   59.0400   30.2830   48.2870 O   0  0  0  0  0  0  0  0  0  0  0  0
   59.2940   30.0780   49.6750 C   0  0  0  0  0  0  0  0  0  0  0  0
   59.1590   32.6960   46.3410 C   0  0  0  0  0  0  0  0  0  0  0  0
   57.9620   32.6980   45.6350 C   0  0  0  0  0  0  0  0  0  0  0  0
   57.5380   31.8310   44.5180 C   0  0  0  0  0  0  0  0  0  0  0  0
   56.8660   30.6260   44.7790 C   0  0  0  0  0  0  0  0  0  0  0  0
   56.4430   29.8110   43.7240 C   0  0  0  0  0  0  0  0  0  0  0  0
   56.6780   30.1970   42.4030 C   0  0  0  0  0  0  0  0  0  0  0  0
   57.3270   31.4030   42.1330 C   0  0  0  0  0  0  0  0  0  0  0  0
   57.7470   32.2230   43.1840 C   0  0  0  0  0  0  0  0  0  0  0  0
   57.2220   33.7500   46.1700 C   0  0  0  0  0  0  0  0  0  0  0  0
   57.9070   34.3470   47.1250 O   0  0  0  0  0  0  0  0  0  0  0  0
   59.0550   33.7260   47.2320 C   0  0  0  0  0  0  0  0  0  0  0  0
   60.0250   34.0140   48.1270 N   0  0  0  0  0  0  0  0  0  0  0  0
   61.1760   33.2800   48.1310 C   0  0  0  0  0  0  0  0  0  0  0  0
   62.1920   33.6240   49.0280 C   0  0  0  0  0  0  0  0  0  0  0  0
   65.7636   32.2984   51.1913 H   0  0  0  0  0  0  0  0  0  0  0  0
   65.4250   31.4324   49.6544 H   0  0  0  0  0  0  0  0  0  0  0  0
   66.4897   32.8792   49.6544 H   0  0  0  0  0  0  0  0  0  0  0  0
   64.6159   31.4549   47.9905 H   0  0  0  0  0  0  0  0  0  0  0  0
   62.8400   30.8491   46.3662 H   0  0  0  0  0  0  0  0  0  0  0  0
   59.7264   28.6729   44.0522 H   0  0  0  0  0  0  0  0  0  0  0  0
   58.5820   26.5224   44.5634 H   0  0  0  0  0  0  0  0  0  0  0  0
   57.1508   23.5734   44.8047 H   0  0  0  0  0  0  0  0  0  0  0  0
   55.6542   24.2408   44.0686 H   0  0  0  0  0  0  0  0  0  0  0  0
   57.1654   25.2119   44.0686 H   0  0  0  0  0  0  0  0  0  0  0  0
   57.9083   27.8470   48.6283 H   0  0  0  0  0  0  0  0  0  0  0  0
   58.5737   30.6593   50.2693 H   0  0  0  0  0  0  0  0  0  0  0  0
   59.1880   29.0093   49.9132 H   0  0  0  0  0  0  0  0  0  0  0  0
   60.3162   30.4072   49.9132 H   0  0  0  0  0  0  0  0  0  0  0  0
   56.6714   30.3216   45.8180 H   0  0  0  0  0  0  0  0  0  0  0  0
   55.9243   28.8643   43.9354 H   0  0  0  0  0  0  0  0  0  0  0  0
   56.3517   29.5507   41.5749 H   0  0  0  0  0  0  0  0  0  0  0  0
   57.5081   31.7083   41.0919 H   0  0  0  0  0  0  0  0  0  0  0  0
   58.2437   33.1801   42.9664 H   0  0  0  0  0  0  0  0  0  0  0  0
   56.2127   34.0404   45.8430 H   0  0  0  0  0  0  0  0  0  0  0  0
   62.0245   34.4270   49.7609 H   0  0  0  0  0  0  0  0  0  0  0  0
  1  2  1  0
  2  3  1  0
  3  4  2  0
  4  5  1  0
  5  6  2  0
  6  7  1  0
  7  8  2  3
  8  9  1  0
  9 10  2  0
 10 11  1  0
 11 12  2  0
 12 13  1  0
 13 14  1  0
 14 15  1  0
 14 16  2  0
 14 17  2  0
 12 18  1  0
 18 19  2  0
 19 20  1  0
 20 21  1  0
  7 22  1  0
 22 23  1  0
 23 24  1  0
 24 25  2  0
 25 26  1  0
 26 27  2  0
 27 28  1  0
 28 29  2  0
 23 30  2  0
 30 31  1  0
 31 32  1  0
 32 33  1  0
 33 34  1  0
 34 35  2  0
 35  3  1  0
 34  6  1  0
 19  9  1  0
 32 22  2  0
 29 24  1  0
  1 36  1  0
  1 37  1  0
  1 38  1  0
  4 39  1  0
  5 40  1  0
 10 41  1  0
 11 42  1  0
 15 43  1  0
 15 44  1  0
 15 45  1  0
 18 46  1  0
 21 47  1  0
 21 48  1  0
 21 49  1  0
 25 50  1  0
 26 51  1  0
 27 52  1  0
 28 53  1  0
 29 54  1  0
 30 55  1  0
 35 56  1  0
M  CHG  2  13  -1  33  -1
M  END
>  <UniqueID>  (2) 
2

>  <SMILES>  (2) 
COc1ccc2c(=Nc3ccc([N-]S(C)(=O)=O)cc3OC)c3c(-c4ccccc4)coc3[n-]c2c1

>  <Energy>  (2) 
122.99032867112628

>  <Genealogy>  (2) 
COc1ccc2c(=Nc3ccc([N-]S(C)(=O)=O)cc3OC)c3c(-c4ccccc4)coc3[n-]c2c1 (protonated)
COc1ccc2c(=Nc3ccc([N-]S(C)(=O)=O)cc3OC)c3c(-c4ccccc4)coc3[n-]c2c1 (3D coordinates assigned)
COc1ccc2c(=Nc3ccc([N-]S(C)(=O)=O)cc3OC)c3c(-c4ccccc4)coc3[n-]c2c1 (optimized conformer: 122.99032867112628 kcal/mol)

>  <smiles>  (2) 
COc1ccc2c(=Nc3ccc(NS(C)(=O)=O)cc3OC)c3c(-c4ccccc4)coc3[nH]c2c1

>  <score_type>  (2) 
oracle

>  <origin>  (2) 
adg

>  <m_score__min__energy>  (2) 
-12.029999999999999

>  <m_primary>  (2) 
energy

$$$$
2:0
     RDKit          3D

 36 38  0  0  0  0  0  0  0  0999 V2000
   55.2290   29.3790   44.9180 N   0  0  0  0  0  0  0  0  0  0  0  0
   56.5720   29.5570   44.4700 C   0  0  0  0  0  0  0  0  0  0  0  0
   56.9260   29.0310   43.3810 O   0  0  0  0  0  0  0  0  0  0  0  0
   57.5410   30.3510   45.2760 C   0  0  0  0  0  0  0  0  0  0  0  0
   58.6480   29.7320   45.9050 C   0  0  0  0  0  0  0  0  0  0  0  0
   58.8390   28.3150   45.8000 N   0  0  0  0  0  0  0  0  0  0  0  0
   59.1320   27.4340   46.8900 C   0  0  0  0  0  0  0  0  0  0  0  0
   59.2920   27.8800   48.0590 O   0  0  0  0  0  0  0  0  0  0  0  0
   59.2950   25.9720   46.6260 C   0  0  0  0  0  0  0  0  0  0  0  0
   57.9790   25.3740   46.2130 C   0  0  0  0  0  0  0  0  0  0  0  0
   57.9050   24.0270   45.8170 C   0  0  0  0  0  0  0  0  0  0  0  0
   56.6750   23.4610   45.4690 C   0  0  0  0  0  0  0  0  0  0  0  0
   55.5100   24.2310   45.5210 C   0  0  0  0  0  0  0  0  0  0  0  0
   55.5720   25.5680   45.9270 C   0  0  0  0  0  0  0  0  0  0  0  0
   54.4120   26.3300   45.9860 O   0  0  0  0  0  0  0  0  0  0  0  0
   56.8020   26.1370   46.2770 C   0  0  0  0  0  0  0  0  0  0  0  0
   59.5090   30.4580   46.6130 O   0  0  0  0  0  0  0  0  0  0  0  0
   59.3940   31.7680   46.7790 C   0  0  0  0  0  0  0  0  0  0  0  0
   60.3460   32.4540   47.5420 C   0  0  0  0  0  0  0  0  0  0  0  0
   60.2360   33.8360   47.7250 C   0  0  0  0  0  0  0  0  0  0  0  0
   61.1840   34.5130   48.4820 O   0  0  0  0  0  0  0  0  0  0  0  0
   59.1740   34.5370   47.1470 C   0  0  0  0  0  0  0  0  0  0  0  0
   58.2180   33.8600   46.3830 C   0  0  0  0  0  0  0  0  0  0  0  0
   58.3200   32.4690   46.1930 C   0  0  0  0  0  0  0  0  0  0  0  0
   57.3880   31.7460   45.4310 C   0  0  0  0  0  0  0  0  0  0  0  0
   56.4300   32.3490   44.8730 O   0  0  0  0  0  0  0  0  0  0  0  0
   54.7160   30.1520   45.3960 H   0  0  0  0  0  0  0  0  0  0  0  0
   60.0298   25.8271   45.8203 H   0  0  0  0  0  0  0  0  0  0  0  0
   59.6447   25.4763   47.5436 H   0  0  0  0  0  0  0  0  0  0  0  0
   58.8189   23.4158   45.7808 H   0  0  0  0  0  0  0  0  0  0  0  0
   56.6242   22.4083   45.1539 H   0  0  0  0  0  0  0  0  0  0  0  0
   54.5437   23.7854   45.2425 H   0  0  0  0  0  0  0  0  0  0  0  0
   56.8468   27.1864   46.6036 H   0  0  0  0  0  0  0  0  0  0  0  0
   61.1826   31.9048   47.9987 H   0  0  0  0  0  0  0  0  0  0  0  0
   59.0899   35.6240   47.2934 H   0  0  0  0  0  0  0  0  0  0  0  0
   57.3842   34.4160   45.9294 H   0  0  0  0  0  0  0  0  0  0  0  0
  1  2  1  0
  2  3  2  0
  2  4  1  0
  4  5  2  0
  5  6  1  0
  6  7  1  0
  7  8  2  0
  7  9  1  0
  9 10  1  0
 10 11  2  0
 11 12  1  0
 12 13  2  0
 13 14  1  0
 14 15  1  0
 14 16  2  0
  5 17  1  0
 17 18  1  0
 18 19  2  0
 19 20  1  0
 20 21  1  0
 20 22  2  0
 22 23  1  0
 23 24  2  0
 24 25  1  0
 25 26  2  0
 25  4  1  0
 16 10  1  0
 24 18  1  0
  1 27  1  0
  9 28  1  0
  9 29  1  0
 11 30  1  0
 12 31  1  0
 13 32  1  0
 16 33  1  0
 19 34  1  0
 22 35  1  0
 23 36  1  0
M  CHG  4   1  -1   6  -1  15  -1  21  -1
M  END
>  <UniqueID>  (3) 
3

>  <SMILES>  (3) 
[NH-]C(=O)c1c([N-]C(=O)Cc2cccc([O-])c2)oc2cc([O-])ccc2c1=O

>  <Energy>  (3) 
46.49859843155771

>  <Genealogy>  (3) 
[NH-]C(=O)c1c([N-]C(=O)Cc2cccc([O-])c2)oc2cc([O-])ccc2c1=O (protonated)
[NH-]C(=O)c1c([N-]C(=O)Cc2cccc([O-])c2)oc2cc([O-])ccc2c1=O (3D coordinates assigned)
[NH-]C(=O)c1c([N-]C(=O)Cc2cccc([O-])c2)oc2cc([O-])ccc2c1=O (optimized conformer: 46.49859843155771 kcal/mol)

>  <smiles>  (3) 
NC(=O)c1c(NC(=O)Cc2cccc(O)c2)oc2cc(O)ccc2c1=O

>  <score_type>  (3) 
oracle

>  <origin>  (3) 
adg

>  <m_score__min__energy>  (3) 
-16.530000000000001

>  <m_primary>  (3) 
energy

$$$$
3:0
     RDKit          3D

 92 98  0  0  0  0  0  0  0  0999 V2000
   66.7590   32.3960   50.1330 C   0  0  0  0  0  0  0  0  0  0  0  0
   65.5100   31.6420   50.5440 C   0  0  0  0  0  0  0  0  0  0  0  0
   65.5000   30.9260   51.7680 C   0  0  0  0  0  0  0  0  0  0  0  0
   66.6710   30.8730   52.5950 N   0  0  0  0  0  0  0  0  0  0  0  0
   67.6300   29.8110   52.5490 C   0  0  0  0  0  0  0  0  0  0  0  0
   68.7310   29.9640   53.1390 O   0  0  0  0  0  0  0  0  0  0  0  0
   67.3440   28.5350   51.8510 C   0  0  0  0  0  0  0  0  0  0  0  0
   66.4130   27.6310   52.3900 C   0  0  0  0  0  0  0  0  0  0  0  0
   66.1190   26.4370   51.7250 C   0  0  0  0  0  0  0  0  0  0  0  0
   66.7520   26.1340   50.5160 C   0  0  0  0  0  0  0  0  0  0  0  0
   67.6660   27.0340   49.9630 C   0  0  0  0  0  0  0  0  0  0  0  0
   67.9550   28.2360   50.6200 C   0  0  0  0  0  0  0  0  0  0  0  0
   64.3260   30.2890   52.2000 C   0  0  0  0  0  0  0  0  0  0  0  0
   63.1690   30.3470   51.4320 C   0  0  0  0  0  0  0  0  0  0  0  0
   63.1650   31.0470   50.2270 C   0  0  0  0  0  0  0  0  0  0  0  0
   64.3180   31.6930   49.7640 C   0  0  0  0  0  0  0  0  0  0  0  0
   64.1630   32.5290   48.6010 N   0  0  0  0  0  0  0  0  0  0  0  0
   63.0350   33.3220   48.2270 C   0  0  0  0  0  0  0  0  0  0  0  0
   63.1360   34.5780   48.1790 O   0  0  0  0  0  0  0  0  0  0  0  0
   61.7790   32.6630   47.8320 C   0  0  0  0  0  0  0  0  0  0  0  0
   61.6600   31.3570   47.4000 C   0  0  0  0  0  0  0  0  0  0  0  0
   60.3080   31.1400   47.1980 C   0  0  0  0  0  0  0  0  0  0  0  0
   59.6990   29.8350   46.8610 C   0  0  0  0  0  0  0  0  0  0  0  0
   59.1380   29.6640   45.5840 C   0  0  0  0  0  0  0  0  0  0  0  0
   58.5240   28.4570   45.2350 C   0  0  0  0  0  0  0  0  0  0  0  0
   57.9950   28.2940   43.9920 F   0  0  0  0  0  0  0  0  0  0  0  0
   58.4430   27.4210   46.1640 C   0  0  0  0  0  0  0  0  0  0  0  0
   58.9830   27.5800   47.4450 C   0  0  0  0  0  0  0  0  0  0  0  0
   59.6370   28.7740   47.8030 C   0  0  0  0  0  0  0  0  0  0  0  0
   60.1360   28.9330   49.1930 C   0  0  0  0  0  0  0  0  0  0  0  0
   61.1540   28.2660   49.5410 O   0  0  0  0  0  0  0  0  0  0  0  0
   59.5330   29.8460   50.1380 N   0  0  0  0  0  0  0  0  0  0  0  0
   60.1690   31.1660   50.3050 C   0  0  0  0  0  0  0  0  0  0  0  0
   59.3750   32.1170   51.1710 C   0  0  0  0  0  0  0  0  0  0  0  0
   59.9370   33.3550   51.5160 C   0  0  0  0  0  0  0  0  0  0  0  0
   59.2300   34.2660   52.3010 C   0  0  0  0  0  0  0  0  0  0  0  0
   57.9470   33.9460   52.7530 C   0  0  0  0  0  0  0  0  0  0  0  0
   57.3730   32.7150   52.4170 C   0  0  0  0  0  0  0  0  0  0  0  0
   58.0830   31.7930   51.6300 C   0  0  0  0  0  0  0  0  0  0  0  0
   57.4450   30.5000   51.2190 C   0  0  0  0  0  0  0  0  0  0  0  0
   58.4980   29.3910   51.0900 C   0  0  2  0  0  0  0  0  0  0  0  0
   59.1710   28.9810   52.4340 C   0  0  0  0  0  0  0  0  0  0  0  0
   60.4800   28.2860   52.3380 N   0  0  0  0  0  0  0  0  0  0  0  0
   60.4340   26.8510   52.0070 C   0  0  0  0  0  0  0  0  0  0  0  0
   61.8590   26.3280   51.6970 C   0  0  0  0  0  0  0  0  0  0  0  0
   62.8850   27.2080   52.1340 O   0  0  0  0  0  0  0  0  0  0  0  0
   62.6130   27.6590   53.4450 C   0  0  0  0  0  0  0  0  0  0  0  0
   61.4140   28.6150   53.4320 C   0  0  0  0  0  0  0  0  0  0  0  0
   59.6030   32.2570   47.4890 N   0  0  0  0  0  0  0  0  0  0  0  0
   58.1460   32.4100   47.4190 C   0  0  0  0  0  0  0  0  0  0  0  0
   60.4950   33.2040   47.8530 C   0  0  0  0  0  0  0  0  0  0  0  0
   60.1220   34.5980   48.2750 C   0  0  0  0  0  0  0  0  0  0  0  0
   67.3019   32.7237   51.0318 H   0  0  0  0  0  0  0  0  0  0  0  0
   67.4049   31.7368   49.5345 H   0  0  0  0  0  0  0  0  0  0  0  0
   66.4766   33.2746   49.5345 H   0  0  0  0  0  0  0  0  0  0  0  0
   65.9123   27.8643   53.3413 H   0  0  0  0  0  0  0  0  0  0  0  0
   65.3886   25.7350   52.1536 H   0  0  0  0  0  0  0  0  0  0  0  0
   66.5305   25.1878   50.0006 H   0  0  0  0  0  0  0  0  0  0  0  0
   68.1599   26.7977   49.0089 H   0  0  0  0  0  0  0  0  0  0  0  0
   68.6625   28.9492   50.1718 H   0  0  0  0  0  0  0  0  0  0  0  0
   64.3217   29.7400   53.1532 H   0  0  0  0  0  0  0  0  0  0  0  0
   62.2554   29.8398   51.7757 H   0  0  0  0  0  0  0  0  0  0  0  0
   62.2420   31.0928   49.6304 H   0  0  0  0  0  0  0  0  0  0  0  0
   62.4753   30.6346   47.2472 H   0  0  0  0  0  0  0  0  0  0  0  0
   59.1821   30.4854   44.8537 H   0  0  0  0  0  0  0  0  0  0  0  0
   57.9529   26.4753   45.8892 H   0  0  0  0  0  0  0  0  0  0  0  0
   58.8957   26.7650   48.1786 H   0  0  0  0  0  0  0  0  0  0  0  0
   61.1573   31.0197   50.7653 H   0  0  0  0  0  0  0  0  0  0  0  0
   60.2352   31.6201   49.3053 H   0  0  0  0  0  0  0  0  0  0  0  0
   60.9471   33.6105   51.1634 H   0  0  0  0  0  0  0  0  0  0  0  0
   59.6814   35.2341   52.5636 H   0  0  0  0  0  0  0  0  0  0  0  0
   57.3881   34.6622   53.3732 H   0  0  0  0  0  0  0  0  0  0  0  0
   56.3611   32.4680   52.7707 H   0  0  0  0  0  0  0  0  0  0  0  0
   56.7031   30.2069   51.9764 H   0  0  0  0  0  0  0  0  0  0  0  0
   56.9590   30.6408   50.2423 H   0  0  0  0  0  0  0  0  0  0  0  0
   57.9747   28.4909   50.7350 H   0  0  0  0  0  0  0  0  0  0  0  0
   59.3220   29.8967   53.0245 H   0  0  0  0  0  0  0  0  0  0  0  0
   58.4872   28.2494   52.8891 H   0  0  0  0  0  0  0  0  0  0  0  0
   60.0202   26.2942   52.8607 H   0  0  0  0  0  0  0  0  0  0  0  0
   59.7980   26.7070   51.1212 H   0  0  0  0  0  0  0  0  0  0  0  0
   61.9926   25.3584   52.1991 H   0  0  0  0  0  0  0  0  0  0  0  0
   61.9453   26.2423   50.6037 H   0  0  0  0  0  0  0  0  0  0  0  0
   62.3838   26.7958   54.0871 H   0  0  0  0  0  0  0  0  0  0  0  0
   63.4942   28.1898   53.8346 H   0  0  0  0  0  0  0  0  0  0  0  0
   60.8831   28.5375   54.3923 H   0  0  0  0  0  0  0  0  0  0  0  0
   61.7864   29.6382   53.2757 H   0  0  0  0  0  0  0  0  0  0  0  0
   57.7325   32.4534   48.4374 H   0  0  0  0  0  0  0  0  0  0  0  0
   57.9002   33.3389   46.8835 H   0  0  0  0  0  0  0  0  0  0  0  0
   57.7126   31.5524   46.8835 H   0  0  0  0  0  0  0  0  0  0  0  0
   60.1063   34.6568   49.3733 H   0  0  0  0  0  0  0  0  0  0  0  0
   60.8610   35.3107   47.8802 H   0  0  0  0  0  0  0  0  0  0  0  0
   59.1258   34.8464   47.8802 H   0  0  0  0  0  0  0  0  0  0  0  0
  1  2  1  0
  2  3  2  0
  3  4  1  0
  4  5  1  0
  5  6  2  0
  5  7  1  0
  7  8  2  0
  8  9  1  0
  9 10  2  0
 10 11  1  0
 11 12  2  0
  3 13  1  0
 13 14  2  0
 14 15  1  0
 15 16  2  0
 16 17  1  0
 17 18  1  0
 18 19  2  0
 18 20  1  0
 20 21  1  0
 21 22  2  0
 22 23  1  0
 23 24  2  0
 24 25  1  0
 25 26  1  0
 25 27  2  0
 27 28  1  0
 28 29  2  0
 29 30  1  0
 30 31  2  0
 30 32  1  0
 32 33  1  0
 33 34  1  0
 34 35  2  0
 35 36  1  0
 36 37  2  0
 37 38  1  0
 38 39  2  0
 39 40  1  0
 40 41  1  0
 41 42  1  0
 42 43  1  0
 43 44  1  0
 44 45  1  0
 45 46  1  0
 46 47  1  0
 47 48  1  0
 22 49  1  0
 49 50  1  0
 49 51  1  0
 51 52  1  0
 16  2  1  0
 51 20  2  0
 12  7  1  0
 29 23  1  0
 41 32  1  0
 48 43  1  0
 39 34  1  0
  1 53  1  0
  1 54  1  0
  1 55  1  0
  8 56  1  0
  9 57  1  0
 10 58  1  0
 11 59  1  0
 12 60  1  0
 13 61  1  0
 14 62  1  0
 15 63  1  0
 21 64  1  0
 24 65  1  0
 27 66  1  0
 28 67  1  0
 33 68  1  0
 33 69  1  0
 35 70  1  0
 36 71  1  0
 37 72  1  0
 38 73  1  0
 40 74  1  0
 40 75  1  0
 41 76  1  6
 42 77  1  0
 42 78  1  0
 44 79  1  0
 44 80  1  0
 45 81  1  0
 45 82  1  0
 47 83  1  0
 47 84  1  0
 48 85  1  0
 48 86  1  0
 50 87  1  0
 50 88  1  0
 50 89  1  0
 52 90  1  0
 52 91  1  0
 52 92  1  0
M  CHG  2   4  -1  17  -1
M  END
>  <UniqueID>  (4) 
4

>  <SMILES>  (4) 
Cc1c([N-]C(=O)c2ccccc2)cccc1[N-]C(=O)c1cc(-c2cc(F)ccc2C(=O)N2Cc3ccccc3C[C@@H]2CN2CCOCC2)n(C)c1C

>  <Energy>  (4) 
177.8366293399457

>  <Genealogy>  (4) 
Cc1c([N-]C(=O)c2ccccc2)cccc1[N-]C(=O)c1cc(-c2cc(F)ccc2C(=O)N2Cc3ccccc3CC2CN2CCOCC2)n(C)c1C (protonated)
Cc1c([N-]C(=O)c2ccccc2)cccc1[N-]C(=O)c1cc(-c2cc(F)ccc2C(=O)N2Cc3ccccc3C[C@@H]2CN2CCOCC2)n(C)c1C (chirality)
Cc1c([N-]C(=O)c2ccccc2)cccc1[N-]C(=O)c1cc(-c2cc(F)ccc2C(=O)N2Cc3ccccc3C[C@@H]2CN2CCOCC2)n(C)c1C (3D coordinates assigned)
Cc1c([N-]C(=O)c2ccccc2)cccc1[N-]C(=O)c1cc(-c2cc(F)ccc2C(=O)N2Cc3ccccc3C[C@@H]2CN2CCOCC2)n(C)c1C (nonaromatic ring conformer: 177.8366293399457 kcal/mol)

>  <smiles>  (4) 
Cc1c(NC(=O)c2ccccc2)cccc1NC(=O)c1cc(-c2cc(F)ccc2C(=O)N2Cc3ccccc3CC2CN2CCOCC2)n(C)c1C

>  <score_type>  (4) 
oracle

>  <origin>  (4) 
adg

>  <m_score__min__energy>  (4) 
-13.99

>  <m_primary>  (4) 
energy

$$$$
4:0
     RDKit          3D

 60 63  0  0  0  0  0  0  0  0999 V2000
   57.9660   25.8970   47.4940 C   0  0  0  0  0  0  0  0  0  0  0  0
   57.9930   26.5250   46.3080 C   0  0  0  0  0  0  0  0  0  0  0  0
   57.6580   25.9960   45.0490 C   0  0  0  0  0  0  0  0  0  0  0  0
   57.0990   24.8180   44.7050 C   0  0  0  0  0  0  0  0  0  0  0  0
   55.6610   24.5000   44.7850 C   0  0  0  0  0  0  0  0  0  0  0  0
   54.7910   25.2710   45.5800 C   0  0  0  0  0  0  0  0  0  0  0  0
   55.2350   26.3910   46.2830 O   0  0  0  0  0  0  0  0  0  0  0  0
   53.4780   24.9280   45.6610 N   0  0  0  0  0  0  0  0  0  0  0  0
   52.9870   23.8480   45.0010 C   0  0  0  0  0  0  0  0  0  0  0  0
   51.7670   23.5580   45.0930 O   0  0  0  0  0  0  0  0  0  0  0  0
   53.8110   23.0800   44.2480 N   0  0  0  0  0  0  0  0  0  0  0  0
   55.1320   23.3740   44.1300 C   0  0  0  0  0  0  0  0  0  0  0  0
   55.8720   22.6270   43.4340 O   0  0  0  0  0  0  0  0  0  0  0  0
   58.0060   26.9610   44.1170 C   0  0  0  0  0  0  0  0  0  0  0  0
   58.4830   28.0460   44.8220 C   0  0  0  0  0  0  0  0  0  0  0  0
   58.9940   29.3110   44.2030 C   0  0  0  0  0  0  0  0  0  0  0  0
   58.4740   27.7840   46.1460 N   0  0  0  0  0  0  0  0  0  0  0  0
   58.9650   28.6620   47.1740 C   0  0  0  0  0  0  0  0  0  0  0  0
   58.4000   29.9360   47.3250 C   0  0  0  0  0  0  0  0  0  0  0  0
   58.9010   30.8270   48.2800 C   0  0  0  0  0  0  0  0  0  0  0  0
   58.3420   32.1450   48.3570 N   0  0  0  0  0  0  0  0  0  0  0  0
   58.4860   33.3310   47.1000 S   0  0  0  0  0  0  0  0  0  0  0  0
   59.1790   32.7140   45.9190 O   0  0  0  0  0  0  0  0  0  0  0  0
   57.1210   33.8020   46.6810 O   0  0  0  0  0  0  0  0  0  0  0  0
   59.4600   34.7070   47.6960 C   0  0  0  0  0  0  0  0  0  0  0  0
   60.4600   34.2440   48.7660 C   0  0  0  0  0  0  0  0  0  0  0  0
   61.8500   34.1220   48.2770 N   0  0  0  0  0  0  0  0  0  0  0  0
   62.8920   33.9050   49.2990 C   0  0  0  0  0  0  0  0  0  0  0  0
   63.3030   32.4310   49.4120 C   0  0  0  0  0  0  0  0  0  0  0  0
   63.6590   31.8770   48.1030 N   0  0  0  0  0  0  0  0  0  0  0  0
   62.5190   31.9510   47.1870 C   0  0  0  0  0  0  0  0  0  0  0  0
   62.0370   33.3990   47.0010 C   0  0  0  0  0  0  0  0  0  0  0  0
   59.9500   30.4190   49.1210 C   0  0  0  0  0  0  0  0  0  0  0  0
   60.5030   29.1430   48.9890 C   0  0  0  0  0  0  0  0  0  0  0  0
   60.0190   28.2640   48.0150 C   0  0  0  0  0  0  0  0  0  0  0  0
   60.7290   26.6600   47.8850 Cl  0  0  0  0  0  0  0  0  0  0  0  0
   58.2562   26.4355   48.4082 H   0  0  0  0  0  0  0  0  0  0  0  0
   57.6537   24.8439   47.5517 H   0  0  0  0  0  0  0  0  0  0  0  0
   57.7706   24.0296   44.3343 H   0  0  0  0  0  0  0  0  0  0  0  0
   54.7680   26.7380   47.1120 H   0  0  0  0  0  0  0  0  0  0  0  0
   57.9184   26.8774   43.0237 H   0  0  0  0  0  0  0  0  0  0  0  0
   59.2796   30.0179   44.9959 H   0  0  0  0  0  0  0  0  0  0  0  0
   59.8716   29.0856   43.5793 H   0  0  0  0  0  0  0  0  0  0  0  0
   58.2061   29.7583   43.5793 H   0  0  0  0  0  0  0  0  0  0  0  0
   57.5559   30.2375   46.6874 H   0  0  0  0  0  0  0  0  0  0  0  0
   60.0121   35.1497   46.8538 H   0  0  0  0  0  0  0  0  0  0  0  0
   58.7837   35.4503   48.1433 H   0  0  0  0  0  0  0  0  0  0  0  0
   60.4460   34.9718   49.5906 H   0  0  0  0  0  0  0  0  0  0  0  0
   60.1446   33.2390   49.0829 H   0  0  0  0  0  0  0  0  0  0  0  0
   63.7782   34.4993   49.0316 H   0  0  0  0  0  0  0  0  0  0  0  0
   62.4780   34.2130   50.2705 H   0  0  0  0  0  0  0  0  0  0  0  0
   64.1708   32.3512   50.0832 H   0  0  0  0  0  0  0  0  0  0  0  0
   62.4502   31.8617   49.8103 H   0  0  0  0  0  0  0  0  0  0  0  0
   64.4540   32.4300   47.7030 H   0  0  0  0  0  0  0  0  0  0  0  0
   62.8195   31.5462   46.2093 H   0  0  0  0  0  0  0  0  0  0  0  0
   61.6930   31.3654   47.6169 H   0  0  0  0  0  0  0  0  0  0  0  0
   62.7818   33.9402   46.3990 H   0  0  0  0  0  0  0  0  0  0  0  0
   61.0561   33.3545   46.5052 H   0  0  0  0  0  0  0  0  0  0  0  0
   60.3374   31.1073   49.8866 H   0  0  0  0  0  0  0  0  0  0  0  0
   61.3216   28.8287   49.6532 H   0  0  0  0  0  0  0  0  0  0  0  0
  1  2  2  0
  2  3  1  0
  3  4  2  3
  4  5  1  0
  5  6  2  0
  6  7  1  0
  6  8  1  0
  8  9  1  0
  9 10  2  0
  9 11  1  0
 11 12  1  0
 12 13  2  0
  3 14  1  0
 14 15  2  0
 15 16  1  0
 15 17  1  0
 17 18  1  0
 18 19  2  0
 19 20  1  0
 20 21  1  0
 21 22  1  0
 22 23  2  0
 22 24  2  0
 22 25  1  0
 25 26  1  0
 26 27  1  0
 27 28  1  0
 28 29  1  0
 29 30  1  0
 30 31  1  0
 31 32  1  0
 20 33  2  0
 33 34  1  0
 34 35  2  0
 35 36  1  0
 17  2  1  0
 35 18  1  0
 12  5  1  0
 32 27  1  0
  1 37  1  0
  1 38  1  0
  4 39  1  0
  7 40  1  0
 14 41  1  0
 16 42  1  0
 16 43  1  0
 16 44  1  0
 19 45  1  0
 25 46  1  0
 25 47  1  0
 26 48  1  0
 26 49  1  0
 28 50  1  0
 28 51  1  0
 29 52  1  0
 29 53  1  0
 30 54  1  0
 31 55  1  0
 31 56  1  0
 32 57  1  0
 32 58  1  0
 33 59  1  0
 34 60  1  0
M  CHG  3   8  -1  11  -1  21  -1
M  END
>  <UniqueID>  (5) 
5

>  <SMILES>  (5) 
C=c1c(=Cc2c(O)[n-]c(=O)[n-]c2=O)cc(C)n1-c1cc([N-]S(=O)(=O)CCN2CCNCC2)ccc1Cl

>  <Energy>  (5) 
117.90662577325213

>  <Genealogy>  (5) 
C=c1c(=Cc2c(O)[n-]c(=O)[n-]c2=O)cc(C)n1-c1cc([N-]S(=O)(=O)CCN2CCNCC2)ccc1Cl (protonated)
C=c1c(=Cc2c(O)[n-]c(=O)[n-]c2=O)cc(C)n1-c1cc([N-]S(=O)(=O)CCN2CCNCC2)ccc1Cl (3D coordinates assigned)
C=c1c(=Cc2c(O)[n-]c(=O)[n-]c2=O)cc(C)n1-c1cc([N-]S(=O)(=O)CCN2CCNCC2)ccc1Cl (nonaromatic ring conformer: 117.90662577325213 kcal/mol)

>  <smiles>  (5) 
C=c1c(=Cc2c(O)[nH]c(=O)[nH]c2=O)cc(C)n1-c1cc(NS(=O)(=O)CCN2CCNCC2)ccc1Cl

>  <score_type>  (5) 
oracle

>  <origin>  (5) 
adg

>  <m_score__min__energy>  (5) 
-16.109999999999999

>  <m_primary>  (5) 
energy

$$$$
5:0
     RDKit          3D

 45 48  0  0  0  0  0  0  0  0999 V2000
   58.5050   32.3100   43.7230 O   0  0  0  0  0  0  0  0  0  0  0  0
   57.6210   32.4160   44.6160 C   0  0  0  0  0  0  0  0  0  0  0  0
   57.6100   33.6590   45.4670 C   0  0  0  0  0  0  0  0  0  0  0  0
   58.7480   33.6420   46.4390 C   0  0  0  0  0  0  0  0  0  0  0  0
   58.5000   33.5590   47.7750 N   0  0  0  0  0  0  0  0  0  0  0  0
   59.5080   33.5550   48.6850 C   0  0  0  0  0  0  0  0  0  0  0  0
   59.2310   33.4780   49.9120 O   0  0  0  0  0  0  0  0  0  0  0  0
   60.8400   33.6380   48.2470 C   0  0  0  0  0  0  0  0  0  0  0  0
   61.9290   33.6410   49.1380 C   0  0  0  0  0  0  0  0  0  0  0  0
   63.2350   33.7290   48.6440 C   0  0  0  0  0  0  0  0  0  0  0  0
   63.4640   33.8120   47.2670 C   0  0  0  0  0  0  0  0  0  0  0  0
   62.3870   33.8080   46.3750 C   0  0  0  0  0  0  0  0  0  0  0  0
   61.0770   33.7200   46.8580 C   0  0  0  0  0  0  0  0  0  0  0  0
   60.0290   33.7190   45.9930 N   0  0  0  0  0  0  0  0  0  0  0  0
   56.7290   31.3060   44.8250 N   0  0  0  0  0  0  0  0  0  0  0  0
   57.0240   30.0420   44.9050 C   0  0  0  0  0  0  0  0  0  0  0  0
   56.3120   29.1280   45.5950 N   0  0  0  0  0  0  0  0  0  0  0  0
   56.8360   27.8790   45.4720 C   0  0  0  0  0  0  0  0  0  0  0  0
   56.2380   26.7330   46.1820 C   0  0  0  0  0  0  0  0  0  0  0  0
   56.9360   26.1230   47.0330 O   0  0  0  0  0  0  0  0  0  0  0  0
   54.8810   26.3150   45.9850 N   0  0  0  0  0  0  0  0  0  0  0  0
   54.4580   25.0250   45.4540 C   0  0  0  0  0  0  0  0  0  0  0  0
   55.6090   24.0640   45.5150 C   0  0  0  0  0  0  0  0  0  0  0  0
   55.8850   23.3700   46.7050 C   0  0  0  0  0  0  0  0  0  0  0  0
   56.9780   22.5000   46.7760 C   0  0  0  0  0  0  0  0  0  0  0  0
   57.8130   22.3260   45.6630 C   0  0  0  0  0  0  0  0  0  0  0  0
   58.9040   21.4620   45.7230 O   0  0  0  0  0  0  0  0  0  0  0  0
   57.5500   23.0280   44.4820 C   0  0  0  0  0  0  0  0  0  0  0  0
   56.4580   23.8980   44.4080 C   0  0  0  0  0  0  0  0  0  0  0  0
   57.9910   27.8060   44.6890 C   0  0  0  0  0  0  0  0  0  0  0  0
   58.3330   29.3510   44.1180 S   0  0  0  0  0  0  0  0  0  0  0  0
   57.7021   34.5423   44.8179 H   0  0  0  0  0  0  0  0  0  0  0  0
   56.6647   33.6962   46.0283 H   0  0  0  0  0  0  0  0  0  0  0  0
   61.7537   33.5742   50.2219 H   0  0  0  0  0  0  0  0  0  0  0  0
   64.0853   33.7329   49.3418 H   0  0  0  0  0  0  0  0  0  0  0  0
   64.4932   33.8806   46.8848 H   0  0  0  0  0  0  0  0  0  0  0  0
   62.5701   33.8741   45.2924 H   0  0  0  0  0  0  0  0  0  0  0  0
   53.6222   24.6364   46.0543 H   0  0  0  0  0  0  0  0  0  0  0  0
   54.1316   25.1444   44.4104 H   0  0  0  0  0  0  0  0  0  0  0  0
   55.2391   23.5113   47.5841 H   0  0  0  0  0  0  0  0  0  0  0  0
   57.1830   21.9511   47.7070 H   0  0  0  0  0  0  0  0  0  0  0  0
   58.8920   20.5620   45.2570 H   0  0  0  0  0  0  0  0  0  0  0  0
   58.2048   22.8951   43.6082 H   0  0  0  0  0  0  0  0  0  0  0  0
   56.2629   24.4546   43.4795 H   0  0  0  0  0  0  0  0  0  0  0  0
   58.5748   26.8969   44.4821 H   0  0  0  0  0  0  0  0  0  0  0  0
  1  2  2  0
  2  3  1  0
  3  4  1  0
  4  5  2  0
  5  6  1  0
  6  7  2  0
  6  8  1  0
  8  9  2  0
  9 10  1  0
 10 11  2  0
 11 12  1  0
 12 13  2  0
 13 14  1  0
  2 15  1  0
 15 16  2  3
 16 17  1  0
 17 18  1  0
 18 19  1  0
 19 20  2  0
 19 21  1  0
 21 22  1  0
 22 23  1  0
 23 24  2  0
 24 25  1  0
 25 26  2  0
 26 27  1  0
 26 28  1  0
 28 29  2  0
 18 30  2  0
 30 31  1  0
 14  4  1  0
 31 16  1  0
 13  8  1  0
 29 23  1  0
  3 32  1  0
  3 33  1  0
  9 34  1  0
 10 35  1  0
 11 36  1  0
 12 37  1  0
 22 38  1  0
 22 39  1  0
 24 40  1  0
 25 41  1  0
 27 42  1  0
 28 43  1  0
 29 44  1  0
 30 45  1  0
M  CHG  3  14  -1  17  -1  21  -1
M  END
>  <UniqueID>  (6) 
6

>  <SMILES>  (6) 
O=C(Cc1nc(=O)c2ccccc2[n-]1)N=c1[n-]c(C(=O)[N-]Cc2ccc(O)cc2)cs1

>  <Energy>  (6) 
87.25450981996082

>  <Genealogy>  (6) 
O=C(Cc1nc(=O)c2ccccc2[n-]1)N=c1[n-]c(C(=O)[N-]Cc2ccc(O)cc2)cs1 (protonated)
O=C(Cc1nc(=O)c2ccccc2[n-]1)N=c1[n-]c(C(=O)[N-]Cc2ccc(O)cc2)cs1 (3D coordinates assigned)
O=C(Cc1nc(=O)c2ccccc2[n-]1)N=c1[n-]c(C(=O)[N-]Cc2ccc(O)cc2)cs1 (optimized conformer: 87.25450981996082 kcal/mol)

>  <smiles>  (6) 
O=C(Cc1nc(=O)c2ccccc2[nH]1)N=c1[nH]c(C(=O)NCc2ccc(O)cc2)cs1

>  <score_type>  (6) 
oracle

>  <origin>  (6) 
adg

>  <m_score__min__energy>  (6) 
-14.58

>  <m_primary>  (6) 
energy

$$$$
6:0
     RDKit          3D

 49 52  0  0  0  0  0  0  0  0999 V2000
   56.0270   23.2450   43.0960 C   0  0  0  0  0  0  0  0  0  0  0  0
   57.0620   22.8500   44.0470 N   0  0  0  0  0  0  0  0  0  0  0  0
   58.0900   22.0230   43.8030 C   0  0  0  0  0  0  0  0  0  0  0  0
   58.7860   21.8470   44.9790 C   0  0  0  0  0  0  0  0  0  0  0  0
   58.1930   22.5480   45.9670 N   0  0  0  0  0  0  0  0  0  0  0  0
   57.1410   23.1390   45.3640 C   0  0  0  0  0  0  0  0  0  0  0  0
   55.9830   24.1900   46.2420 S   0  0  0  0  0  0  0  0  0  0  0  0
   56.9030   25.6780   45.8540 C   0  0  0  0  0  0  0  0  0  0  0  0
   58.2550   25.5840   45.4460 C   0  0  0  0  0  0  0  0  0  0  0  0
   58.9930   26.7440   45.1450 C   0  0  0  0  0  0  0  0  0  0  0  0
   58.3450   27.9720   45.2540 C   0  0  0  0  0  0  0  0  0  0  0  0
   58.8130   29.2510   45.0530 C   0  0  0  0  0  0  0  0  0  0  0  0
   57.7240   30.0780   45.3250 C   0  0  0  0  0  0  0  0  0  0  0  0
   57.7640   31.5520   45.3040 C   0  0  0  0  0  0  0  0  0  0  0  0
   56.8930   32.1750   44.6370 O   0  0  0  0  0  0  0  0  0  0  0  0
   58.7760   32.2880   46.0150 N   0  0  0  0  0  0  0  0  0  0  0  0
   59.2100   33.5950   45.5110 C   0  0  0  0  0  0  0  0  0  0  0  0
   60.5960   33.9260   46.0740 C   0  0  0  0  0  0  0  0  0  0  0  0
   60.6140   33.9440   47.5560 N   0  0  0  0  0  0  0  0  0  0  0  0
   62.2300   33.6030   48.1410 S   0  0  0  0  0  0  0  0  0  0  0  0
   63.3950   33.6270   46.7940 C   0  0  0  0  0  0  0  0  0  0  0  0
   62.2670   32.2540   48.8070 O   0  0  0  0  0  0  0  0  0  0  0  0
   62.6400   34.6530   49.1370 O   0  0  0  0  0  0  0  0  0  0  0  0
   59.6160   33.0560   48.2040 C   0  0  0  0  0  0  0  0  0  0  0  0
   59.2350   31.8440   47.3390 C   0  0  0  0  0  0  0  0  0  0  0  0
   56.6400   29.3510   45.6900 N   0  0  0  0  0  0  0  0  0  0  0  0
   57.0330   28.0670   45.6410 C   0  0  0  0  0  0  0  0  0  0  0  0
   56.2760   26.9380   45.9520 C   0  0  0  0  0  0  0  0  0  0  0  0
   55.1360   23.5851   43.6441 H   0  0  0  0  0  0  0  0  0  0  0  0
   56.4029   24.0629   42.4637 H   0  0  0  0  0  0  0  0  0  0  0  0
   55.7624   22.3847   42.4637 H   0  0  0  0  0  0  0  0  0  0  0  0
   58.3345   21.5653   42.8331 H   0  0  0  0  0  0  0  0  0  0  0  0
   59.6884   21.2286   45.0946 H   0  0  0  0  0  0  0  0  0  0  0  0
   58.7327   24.5966   45.3635 H   0  0  0  0  0  0  0  0  0  0  0  0
   60.0464   26.6828   44.8341 H   0  0  0  0  0  0  0  0  0  0  0  0
   59.8246   29.5541   44.7452 H   0  0  0  0  0  0  0  0  0  0  0  0
   59.2579   33.5667   44.4124 H   0  0  0  0  0  0  0  0  0  0  0  0
   58.4924   34.3663   45.8275 H   0  0  0  0  0  0  0  0  0  0  0  0
   61.3109   33.1681   45.7212 H   0  0  0  0  0  0  0  0  0  0  0  0
   60.8693   34.9320   45.7229 H   0  0  0  0  0  0  0  0  0  0  0  0
   64.4190   33.6481   47.1952 H   0  0  0  0  0  0  0  0  0  0  0  0
   63.2613   32.7259   46.1774 H   0  0  0  0  0  0  0  0  0  0  0  0
   63.2243   34.5218   46.1774 H   0  0  0  0  0  0  0  0  0  0  0  0
   60.0363   32.6907   49.1526 H   0  0  0  0  0  0  0  0  0  0  0  0
   58.7021   33.6482   48.3591 H   0  0  0  0  0  0  0  0  0  0  0  0
   60.1134   31.1928   47.2193 H   0  0  0  0  0  0  0  0  0  0  0  0
   58.4222   31.2920   47.8336 H   0  0  0  0  0  0  0  0  0  0  0  0
   55.7100   29.7040   46.0080 H   0  0  0  0  0  0  0  0  0  0  0  0
   55.2248   27.0269   46.2634 H   0  0  0  0  0  0  0  0  0  0  0  0
  1  2  1  0
  2  3  1  0
  3  4  2  0
  4  5  1  0
  5  6  2  0
  6  7  1  0
  7  8  1  0
  8  9  2  0
  9 10  1  0
 10 11  2  0
 11 12  1  0
 12 13  2  0
 13 14  1  0
 14 15  2  0
 14 16  1  0
 16 17  1  0
 17 18  1  0
 18 19  1  0
 19 20  1  0
 20 21  1  0
 20 22  2  0
 20 23  2  0
 19 24  1  0
 24 25  1  0
 13 26  1  0
 26 27  1  0
 27 28  2  0
  6  2  1  0
 28  8  1  0
 27 11  1  0
 25 16  1  0
  1 29  1  0
  1 30  1  0
  1 31  1  0
  3 32  1  0
  4 33  1  0
  9 34  1  0
 10 35  1  0
 12 36  1  0
 17 37  1  0
 17 38  1  0
 18 39  1  0
 18 40  1  0
 21 41  1  0
 21 42  1  0
 21 43  1  0
 24 44  1  0
 24 45  1  0
 25 46  1  0
 25 47  1  0
 26 48  1  0
 28 49  1  0
M  END
>  <UniqueID>  (7) 
7

>  <SMILES>  (7) 
Cn1ccnc1Sc1ccc2cc(C(=O)N3CCN(S(C)(=O)=O)CC3)[nH]c2c1

>  <Energy>  (7) 
112.35879991503839

>  <Genealogy>  (7) 
Cn1ccnc1Sc1ccc2cc(C(=O)N3CCN(S(C)(=O)=O)CC3)[nH]c2c1 (3D coordinates assigned)
Cn1ccnc1Sc1ccc2cc(C(=O)N3CCN(S(C)(=O)=O)CC3)[nH]c2c1 (nonaromatic ring conformer: 112.35879991503839 kcal/mol)

>  <smiles>  (7) 
Cn1ccnc1Sc1ccc2cc(C(=O)N3CCN(S(C)(=O)=O)CC3)[nH]c2c1

>  <score_type>  (7) 
oracle

>  <origin>  (7) 
adg

>  <m_score__min__energy>  (7) 
-8.75

>  <m_primary>  (7) 
energy

$$$$
7:0
     RDKit          3D

 50 53  0  0  0  0  0  0  0  0999 V2000
   57.0770   24.4120   47.2000 C   0  0  0  0  0  0  0  0  0  0  0  0
   56.5160   25.4490   46.3190 N   0  0  0  0  0  0  0  0  0  0  0  0
   56.7640   25.1320   44.8890 C   0  0  0  0  0  0  0  0  0  0  0  0
   57.9530   25.9180   44.3210 C   0  0  0  0  0  0  0  0  0  0  0  0
   57.7120   27.3760   44.4060 N   0  0  0  0  0  0  0  0  0  0  0  0
   58.9230   28.1950   44.1630 C   0  0  0  0  0  0  0  0  0  0  0  0
   58.8230   29.6110   44.7000 C   0  0  0  0  0  0  0  0  0  0  0  0
   58.1130   30.5900   43.9850 C   0  0  0  0  0  0  0  0  0  0  0  0
   57.9540   31.8760   44.5080 C   0  0  0  0  0  0  0  0  0  0  0  0
   58.5090   32.2130   45.7520 C   0  0  0  0  0  0  0  0  0  0  0  0
   58.2600   33.5530   46.3340 C   0  0  0  0  0  0  0  0  0  0  0  0
   57.1040   33.8430   46.7480 O   0  0  0  0  0  0  0  0  0  0  0  0
   59.3550   34.5760   46.4730 C   0  0  0  0  0  0  0  0  0  0  0  0
   60.2480   34.2430   47.5870 N   0  0  0  0  0  0  0  0  0  0  0  0
   59.9450   34.2670   48.9090 C   0  0  0  0  0  0  0  0  0  0  0  0
   60.9840   33.9040   49.7060 N   0  0  0  0  0  0  0  0  0  0  0  0
   61.9630   33.6420   48.8190 C   0  0  0  0  0  0  0  0  0  0  0  0
   63.2650   33.2280   49.0760 C   0  0  0  0  0  0  0  0  0  0  0  0
   64.0990   33.0290   48.0110 N   0  0  0  0  0  0  0  0  0  0  0  0
   63.6790   33.2180   46.7180 C   0  0  0  0  0  0  0  0  0  0  0  0
   62.3600   33.6310   46.4480 C   0  0  0  0  0  0  0  0  0  0  0  0
   61.5280   33.8380   47.5460 C   0  0  0  0  0  0  0  0  0  0  0  0
   59.2770   31.2550   46.4360 C   0  0  0  0  0  0  0  0  0  0  0  0
   59.4410   29.9690   45.9120 C   0  0  0  0  0  0  0  0  0  0  0  0
   60.1930   29.0720   46.5980 F   0  0  0  0  0  0  0  0  0  0  0  0
   56.9070   27.7970   45.5760 C   0  0  0  0  0  0  0  0  0  0  0  0
   57.0030   26.7870   46.7290 C   0  0  0  0  0  0  0  0  0  0  0  0
   56.9214   24.6997   48.2503 H   0  0  0  0  0  0  0  0  0  0  0  0
   56.5745   23.4533   47.0041 H   0  0  0  0  0  0  0  0  0  0  0  0
   58.1544   24.3080   47.0041 H   0  0  0  0  0  0  0  0  0  0  0  0
   56.9729   24.0561   44.7953 H   0  0  0  0  0  0  0  0  0  0  0  0
   55.8671   25.4158   44.3188 H   0  0  0  0  0  0  0  0  0  0  0  0
   58.8571   25.6684   44.8957 H   0  0  0  0  0  0  0  0  0  0  0  0
   58.0819   25.6444   43.2634 H   0  0  0  0  0  0  0  0  0  0  0  0
   59.7787   27.7006   44.6461 H   0  0  0  0  0  0  0  0  0  0  0  0
   59.0428   28.2738   43.0724 H   0  0  0  0  0  0  0  0  0  0  0  0
   57.6786   30.3421   43.0053 H   0  0  0  0  0  0  0  0  0  0  0  0
   57.3893   32.6301   43.9401 H   0  0  0  0  0  0  0  0  0  0  0  0
   59.9387   34.6068   45.5411 H   0  0  0  0  0  0  0  0  0  0  0  0
   58.8958   35.5553   46.6732 H   0  0  0  0  0  0  0  0  0  0  0  0
   58.9561   34.5521   49.2974 H   0  0  0  0  0  0  0  0  0  0  0  0
   63.6141   33.0652   50.1063 H   0  0  0  0  0  0  0  0  0  0  0  0
   65.0820   32.7240   48.1870 H   0  0  0  0  0  0  0  0  0  0  0  0
   64.3780   33.0456   45.8863 H   0  0  0  0  0  0  0  0  0  0  0  0
   62.0035   33.7830   45.4185 H   0  0  0  0  0  0  0  0  0  0  0  0
   59.7532   31.5192   47.3918 H   0  0  0  0  0  0  0  0  0  0  0  0
   57.2727   28.7733   45.9268 H   0  0  0  0  0  0  0  0  0  0  0  0
   55.8545   27.8579   45.2622 H   0  0  0  0  0  0  0  0  0  0  0  0
   58.0533   26.7039   47.0452 H   0  0  0  0  0  0  0  0  0  0  0  0
   56.3729   27.1457   47.5562 H   0  0  0  0  0  0  0  0  0  0  0  0
  1  2  1  0
  2  3  1  0
  3  4  1  0
  4  5  1  0
  5  6  1  0
  6  7  1  0
  7  8  2  0
  8  9  1  0
  9 10  2  0
 10 11  1  0
 11 12  2  0
 11 13  1  0
 13 14  1  0
 14 15  1  0
 15 16  2  0
 16 17  1  0
 17 18  2  0
 18 19  1  0
 19 20  2  0
 20 21  1  0
 21 22  2  0
 10 23  1  0
 23 24  2  0
 24 25  1  0
  5 26  1  0
 26 27  1  0
 27  2  1  0
 24  7  1  0
 22 14  1  0
 22 17  1  0
  1 28  1  0
  1 29  1  0
  1 30  1  0
  3 31  1  0
  3 32  1  0
  4 33  1  0
  4 34  1  0
  6 35  1  0
  6 36  1  0
  8 37  1  0
  9 38  1  0
 13 39  1  0
 13 40  1  0
 15 41  1  0
 18 42  1  0
 19 43  1  0
 20 44  1  0
 21 45  1  0
 23 46  1  0
 26 47  1  0
 26 48  1  0
 27 49  1  0
 27 50  1  0
M  CHG  1  19   1
M  END
>  <UniqueID>  (8) 
8

>  <SMILES>  (8) 
CN1CCN(Cc2ccc(C(=O)Cn3cnc4c[nH+]ccc43)cc2F)CC1

>  <Energy>  (8) 
104.71379330621377

>  <Genealogy>  (8) 
CN1CCN(Cc2ccc(C(=O)Cn3cnc4c[nH+]ccc43)cc2F)CC1 (protonated)
CN1CCN(Cc2ccc(C(=O)Cn3cnc4c[nH+]ccc43)cc2F)CC1 (3D coordinates assigned)
CN1CCN(Cc2ccc(C(=O)Cn3cnc4c[nH+]ccc43)cc2F)CC1 (nonaromatic ring conformer: 104.71379330621377 kcal/mol)

>  <smiles>  (8) 
CN1CCN(Cc2ccc(C(=O)Cn3cnc4cnccc43)cc2F)CC1

>  <score_type>  (8) 
oracle

>  <origin>  (8) 
adg

>  <m_score__min__energy>  (8) 
-7.5499999999999998

>  <m_primary>  (8) 
energy

$$$$
8:0
     RDKit          3D

 49 52  0  0  1  0  0  0  0  0999 V2000
   59.7350   27.6130   47.0210 O   0  0  0  0  0  0  0  0  0  0  0  0
   58.7020   27.6790   46.3130 C   0  0  0  0  0  0  0  0  0  0  0  0
   58.4980   26.5750   45.3210 C   0  0  0  0  0  0  0  0  0  0  0  0
   57.7250   25.4820   45.9790 C   0  0  0  0  0  0  0  0  0  0  0  0
   58.1390   24.2450   46.3880 C   0  0  0  0  0  0  0  0  0  0  0  0
   57.0260   23.6210   46.9390 C   0  0  0  0  0  0  0  0  0  0  0  0
   56.9700   22.3450   47.4870 O   0  0  0  0  0  0  0  0  0  0  0  0
   55.9680   24.4750   46.8590 N   0  0  0  0  0  0  0  0  0  0  0  0
   56.3840   25.6110   46.2750 C   0  0  0  0  0  0  0  0  0  0  0  0
   55.5610   26.7240   46.0240 O   0  0  0  0  0  0  0  0  0  0  0  0
   57.7820   28.7510   46.4590 N   0  0  0  0  0  0  0  0  0  0  0  0
   57.4550   29.5180   45.4560 C   0  0  0  0  0  0  0  0  0  0  0  0
   56.7220   28.9910   44.4470 N   0  0  0  0  0  0  0  0  0  0  0  0
   56.3610   29.7340   43.4010 C   0  0  0  0  0  0  0  0  0  0  0  0
   56.7210   31.0660   43.3090 C   0  0  0  0  0  0  0  0  0  0  0  0
   57.4690   31.5960   44.3450 C   0  0  0  0  0  0  0  0  0  0  0  0
   57.7970   32.8350   44.2490 N   0  0  0  0  0  0  0  0  0  0  0  0
   57.2610   33.8010   45.1880 C   0  0  0  0  0  0  0  0  0  0  0  0
   58.4840   34.4310   45.8720 C   0  0  0  0  0  0  0  0  0  0  0  0
   58.5580   33.9510   47.3070 C   0  0  0  0  0  0  0  0  0  0  0  0
   59.9940   33.8990   47.5960 C   0  0  0  0  0  0  0  0  0  0  0  0
   60.6650   33.8730   48.8020 C   0  0  0  0  0  0  0  0  0  0  0  0
   62.0330   33.8250   48.8220 C   0  0  0  0  0  0  0  0  0  0  0  0
   62.7610   33.8030   47.6270 C   0  0  0  0  0  0  0  0  0  0  0  0
   62.1040   33.8300   46.4030 C   0  0  0  0  0  0  0  0  0  0  0  0
   60.7240   33.8770   46.4260 C   0  0  0  0  0  0  0  0  0  0  0  0
   59.7720   33.9130   45.2870 C   0  0  0  0  0  0  0  0  0  0  0  0
   57.8190   30.8130   45.3930 N   0  0  0  0  0  0  0  0  0  0  0  0
   57.9382   26.9547   44.4536 H   0  0  0  0  0  0  0  0  0  0  0  0
   59.4708   26.1935   44.9774 H   0  0  0  0  0  0  0  0  0  0  0  0
   59.1523   23.8264   46.2987 H   0  0  0  0  0  0  0  0  0  0  0  0
   57.7710   21.7570   47.4890 H   0  0  0  0  0  0  0  0  0  0  0  0
   54.9810   24.3050   47.1870 H   0  0  0  0  0  0  0  0  0  0  0  0
   55.9420   27.6140   46.3550 H   0  0  0  0  0  0  0  0  0  0  0  0
   56.4130   27.9840   44.4500 H   0  0  0  0  0  0  0  0  0  0  0  0
   55.7655   29.2791   42.5958 H   0  0  0  0  0  0  0  0  0  0  0  0
   56.4242   31.6800   42.4459 H   0  0  0  0  0  0  0  0  0  0  0  0
   56.6784   34.5693   44.6586 H   0  0  0  0  0  0  0  0  0  0  0  0
   56.5839   33.3302   45.9159 H   0  0  0  0  0  0  0  0  0  0  0  0
   58.3744   35.5194   45.7564 H   0  0  0  0  0  0  0  0  0  0  0  0
   58.0499   34.6565   47.9809 H   0  0  0  0  0  0  0  0  0  0  0  0
   58.0639   32.9789   47.4518 H   0  0  0  0  0  0  0  0  0  0  0  0
   60.1010   33.8908   49.7462 H   0  0  0  0  0  0  0  0  0  0  0  0
   62.5642   33.8036   49.7850 H   0  0  0  0  0  0  0  0  0  0  0  0
   63.8599   33.7641   47.6569 H   0  0  0  0  0  0  0  0  0  0  0  0
   62.6604   33.8146   45.4542 H   0  0  0  0  0  0  0  0  0  0  0  0
   60.1375   34.5875   44.4987 H   0  0  0  0  0  0  0  0  0  0  0  0
   59.6464   32.9241   44.8219 H   0  0  0  0  0  0  0  0  0  0  0  0
   58.3920   31.2330   46.1790 H   0  0  0  0  0  0  0  0  0  0  0  0
  1  2  2  0
  2  3  1  0
  3  4  1  0
  4  5  1  0
  5  6  2  0
  6  7  1  0
  6  8  1  0
  8  9  1  0
  9 10  1  0
  2 11  1  0
 11 12  2  0
 12 13  1  0
 13 14  1  0
 14 15  2  0
 15 16  1  0
 16 17  2  0
 17 18  1  0
 18 19  1  0
 19 20  1  0
 20 21  1  0
 21 22  2  0
 22 23  1  0
 23 24  2  0
 24 25  1  0
 25 26  2  0
 26 27  1  0
 16 28  1  0
  9  4  2  0
 28 12  1  0
 27 19  1  0
 26 21  1  0
  3 29  1  0
  3 30  1  0
  5 31  1  0
  7 32  1  0
  8 33  1  0
 10 34  1  0
 13 35  1  0
 14 36  1  0
 15 37  1  0
 18 38  1  0
 18 39  1  0
 19 40  1  0
 20 41  1  0
 20 42  1  0
 22 43  1  0
 23 44  1  0
 24 45  1  0
 25 46  1  0
 27 47  1  0
 27 48  1  0
 28 49  1  0
M  END
>  <smiles>  (9) 
O=C(Cc1cc(O)[nH]c1O)N=c1[nH]ccc(=NCC2Cc3ccccc3C2)[nH]1

>  <score_type>  (9) 
oracle

>  <origin>  (9) 
adg

>  <m_score__min__energy>  (9) 
-11.6

>  <m_primary>  (9) 
energy

$$$$
9:0
     RDKit          3D

 48 51  0  0  0  0  0  0  0  0999 V2000
   57.3519   28.4187   45.2288 H   0  0  0  0  0  0  0  0  0  0  0  0
   57.8270   27.7280   45.9410 C   0  0  0  0  0  0  0  0  0  0  0  0
   55.3770   30.4710   51.6830 N   0  0  0  0  0  0  0  0  0  0  0  0
   58.5210   29.5600   47.4160 C   0  0  0  0  0  0  0  0  0  0  0  0
   58.8220   29.7440   48.7720 C   0  0  0  0  0  0  0  0  0  0  0  0
   59.0768   28.8744   49.3956 H   0  0  0  0  0  0  0  0  0  0  0  0
   58.8020   31.0230   49.3420 C   0  0  0  0  0  0  0  0  0  0  0  0
   59.0890   31.1570   50.7410 N   0  0  0  0  0  0  0  0  0  0  0  0
   58.1240   31.3250   51.7900 C   0  0  0  0  0  0  0  0  0  0  0  0
   57.7760   32.4840   52.1440 O   0  0  0  0  0  0  0  0  0  0  0  0
   57.5720   30.1290   52.4820 C   0  0  0  0  0  0  0  0  0  0  0  0
   58.4240   29.3380   53.2730 C   0  0  0  0  0  0  0  0  0  0  0  0
   59.4831   29.6155   53.3793 H   0  0  0  0  0  0  0  0  0  0  0  0
   57.9380   28.2060   53.9230 C   0  0  0  0  0  0  0  0  0  0  0  0
   58.6091   27.5855   54.5351 H   0  0  0  0  0  0  0  0  0  0  0  0
   56.5940   27.8680   53.7900 C   0  0  0  0  0  0  0  0  0  0  0  0
   56.1987   26.9766   54.2991 H   0  0  0  0  0  0  0  0  0  0  0  0
   55.7710   28.6370   53.0330 N   0  0  0  0  0  0  0  0  0  0  0  0
   56.2120   29.7440   52.3700 C   0  0  0  0  0  0  0  0  0  0  0  0
   58.5950   28.2360   46.8640 N   0  0  0  0  0  0  0  0  0  0  0  0
   54.0320   30.8190   52.0520 C   0  0  0  0  0  0  0  0  0  0  0  0
   53.5630   30.4480   53.3200 C   0  0  0  0  0  0  0  0  0  0  0  0
   54.2125   29.8737   53.9969 H   0  0  0  0  0  0  0  0  0  0  0  0
   52.2740   30.8040   53.7290 C   0  0  0  0  0  0  0  0  0  0  0  0
   51.9066   30.4952   54.7188 H   0  0  0  0  0  0  0  0  0  0  0  0
   51.4520   31.5520   52.8810 C   0  0  0  0  0  0  0  0  0  0  0  0
   50.4375   31.8300   53.2027 H   0  0  0  0  0  0  0  0  0  0  0  0
   51.9200   31.9470   51.6230 C   0  0  0  0  0  0  0  0  0  0  0  0
   51.1090   32.7050   50.7890 O   0  0  0  0  0  0  0  0  0  0  0  0
   53.2080   31.5870   51.2070 C   0  0  0  0  0  0  0  0  0  0  0  0
   53.5759   31.9042   50.2201 H   0  0  0  0  0  0  0  0  0  0  0  0
   58.4520   32.1260   48.5460 C   0  0  0  0  0  0  0  0  0  0  0  0
   58.3950   33.1292   48.9937 H   0  0  0  0  0  0  0  0  0  0  0  0
   58.1760   31.9530   47.1870 C   0  0  0  0  0  0  0  0  0  0  0  0
   57.9165   32.8232   46.5661 H   0  0  0  0  0  0  0  0  0  0  0  0
   58.2280   30.6800   46.6130 C   0  0  0  0  0  0  0  0  0  0  0  0
   58.0020   30.5390   45.2490 O   0  0  0  0  0  0  0  0  0  0  0  0
   57.5530   26.2780   45.7900 C   0  0  0  0  0  0  0  0  0  0  0  0
   58.5990   25.3580   45.5790 C   0  0  0  0  0  0  0  0  0  0  0  0
   59.6395   25.7127   45.5384 H   0  0  0  0  0  0  0  0  0  0  0  0
   58.3220   23.9970   45.4210 C   0  0  0  0  0  0  0  0  0  0  0  0
   59.1452   23.2836   45.2679 H   0  0  0  0  0  0  0  0  0  0  0  0
   57.0030   23.5410   45.4570 C   0  0  0  0  0  0  0  0  0  0  0  0
   56.7878   22.4681   45.3448 H   0  0  0  0  0  0  0  0  0  0  0  0
   55.9550   24.4510   45.6360 C   0  0  0  0  0  0  0  0  0  0  0  0
   54.9152   24.0925   45.6518 H   0  0  0  0  0  0  0  0  0  0  0  0
   56.2240   25.8150   45.7950 C   0  0  0  0  0  0  0  0  0  0  0  0
   55.1660   26.7020   45.9720 O   0  0  0  0  0  0  0  0  0  0  0  0
  1  2  1  0
  2  3  2  0
  3  4  1  0
  4  5  2  0
  5  6  1  0
  5  7  1  0
  7  8  1  0
  8  9  1  0
  9 10  2  0
  9 11  1  0
 11 12  2  0
 12 13  1  0
 12 14  1  0
 14 15  1  0
 14 16  2  0
 16 17  1  0
 16 18  1  0
 18 19  1  0
 19 20  2  0
 20 21  1  0
 21 22  2  0
 22 23  1  0
 22 24  1  0
 24 25  1  0
 24 26  2  0
 26 27  1  0
 26 28  1  0
 28 29  1  0
 28 30  2  0
 30 31  1  0
  7 32  2  0
 32 33  1  0
 32 34  1  0
 34 35  1  0
 34 36  2  0
 36 37  1  0
  2 38  1  0
 38 39  2  0
 39 40  1  0
 39 41  1  0
 41 42  1  0
 41 43  2  0
 43 44  1  0
 43 45  1  0
 45 46  1  0
 45 47  2  0
 47 48  1  0
 36  4  1  0
 47 38  1  0
 19 11  1  0
 30 21  1  0
M  CHG  5   8  -1  18  -1  29  -1  37  -1  48  -1
M  END
>  <UniqueID>  (10) 
9

>  <SMILES>  (10) 
O=C([N-]c1ccc([O-])c(/N=C\c2ccccc2[O-])c1)c1ccc[n-]/c1=N\c1cccc([O-])c1

>  <Energy>  (10) 
80.9135255045417

>  <Genealogy>  (10) 
O=C([N-]c1ccc([O-])c(N=Cc2ccccc2[O-])c1)c1ccc[n-]c1=Nc1cccc([O-])c1 (protonated)
O=C([N-]c1ccc([O-])c(/N=C\c2ccccc2[O-])c1)c1ccc[n-]/c1=N\c1cccc([O-])c1 (cis-trans isomerization)
O=C([N-]c1ccc([O-])c(/N=C\c2ccccc2[O-])c1)c1ccc[n-]/c1=N\c1cccc([O-])c1 (3D coordinates assigned)
O=C([N-]c1ccc([O-])c(/N=C\c2ccccc2[O-])c1)c1ccc[n-]/c1=N\c1cccc([O-])c1 (optimized conformer: 80.9135255045417 kcal/mol)

>  <smiles>  (10) 
O=C(Nc1ccc(O)c(N=Cc2ccccc2O)c1)c1ccc[nH]c1=Nc1cccc(O)c1

>  <score_type>  (10) 
oracle

>  <origin>  (10) 
adg

>  <m_score__min__energy>  (10) 
-19.039999999999999

>  <m_primary>  (10) 
energy

$$$$
10:0
     RDKit          3D

 61 64  0  0  0  0  0  0  0  0999 V2000
   58.9260   27.2690   46.8930 O   0  0  0  0  0  0  0  0  0  0  0  0
   57.8470   27.6680   46.3760 C   0  0  0  0  0  0  0  0  0  0  0  0
   56.6750   26.8460   46.4570 N   0  0  0  0  0  0  0  0  0  0  0  0
   56.7310   25.4520   46.8960 C   0  0  0  0  0  0  0  0  0  0  0  0
   55.9310   24.5640   45.9810 C   0  0  0  0  0  0  0  0  0  0  0  0
   54.6720   24.6500   45.9870 O   0  0  0  0  0  0  0  0  0  0  0  0
   56.5750   23.6430   45.0780 N   0  0  0  0  0  0  0  0  0  0  0  0
   55.8190   22.4830   44.5880 C   0  0  0  0  0  0  0  0  0  0  0  0
   56.7120   21.5670   43.7410 C   0  0  0  0  0  0  0  0  0  0  0  0
   58.0210   21.3950   44.3820 N   0  0  0  0  0  0  0  0  0  0  0  0
   58.7760   22.6600   44.4940 C   0  0  0  0  0  0  0  0  0  0  0  0
   57.8940   23.9250   44.4960 C   0  0  0  0  0  0  0  0  0  0  0  0
   57.8050   28.9950   45.7160 C   0  0  0  0  0  0  0  0  0  0  0  0
   58.9830   29.7500   45.5980 C   0  0  0  0  0  0  0  0  0  0  0  0
   58.9640   30.9940   44.9670 C   0  0  0  0  0  0  0  0  0  0  0  0
   57.7640   31.4790   44.4370 C   0  0  0  0  0  0  0  0  0  0  0  0
   57.7130   32.8150   43.7470 C   0  0  0  0  0  0  0  0  0  0  0  0
   57.7630   33.9850   44.7450 C   0  0  0  0  0  0  0  0  0  0  0  0
   57.7150   33.5660   46.2000 C   0  0  0  0  0  0  0  0  0  0  0  0
   56.5960   33.4650   46.7750 O   0  0  0  0  0  0  0  0  0  0  0  0
   58.9230   33.3060   46.9560 N   0  0  0  0  0  0  0  0  0  0  0  0
   58.8920   32.6440   48.2690 C   0  0  0  0  0  0  0  0  0  0  0  0
   60.0180   31.6210   48.3620 C   0  0  0  0  0  0  0  0  0  0  0  0
   61.3420   32.2400   48.0090 C   0  0  0  0  0  0  0  0  0  0  0  0
   62.5270   31.6680   48.5040 C   0  0  0  0  0  0  0  0  0  0  0  0
   63.7690   32.1870   48.1320 C   0  0  0  0  0  0  0  0  0  0  0  0
   63.8400   33.2750   47.2620 C   0  0  0  0  0  0  0  0  0  0  0  0
   62.6680   33.8460   46.7570 C   0  0  0  0  0  0  0  0  0  0  0  0
   61.4130   33.3290   47.1150 C   0  0  0  0  0  0  0  0  0  0  0  0
   60.1720   33.9670   46.5350 C   0  0  0  0  0  0  0  0  0  0  0  0
   56.6330   30.7340   44.5500 N   0  0  0  0  0  0  0  0  0  0  0  0
   56.6170   29.5200   45.1620 C   0  0  0  0  0  0  0  0  0  0  0  0
   55.5400   28.8690   45.2010 O   0  0  0  0  0  0  0  0  0  0  0  0
   55.7400   27.3050   46.3820 H   0  0  0  0  0  0  0  0  0  0  0  0
   57.7788   25.1171   46.8962 H   0  0  0  0  0  0  0  0  0  0  0  0
   56.3044   25.3866   47.9078 H   0  0  0  0  0  0  0  0  0  0  0  0
   55.4328   21.9154   45.4475 H   0  0  0  0  0  0  0  0  0  0  0  0
   54.9893   22.8427   43.9617 H   0  0  0  0  0  0  0  0  0  0  0  0
   56.2279   20.5849   43.6359 H   0  0  0  0  0  0  0  0  0  0  0  0
   56.8563   22.0246   42.7512 H   0  0  0  0  0  0  0  0  0  0  0  0
   57.8700   21.0040   45.3410 H   0  0  0  0  0  0  0  0  0  0  0  0
   59.3491   22.6377   45.4326 H   0  0  0  0  0  0  0  0  0  0  0  0
   59.4186   22.7243   43.6035 H   0  0  0  0  0  0  0  0  0  0  0  0
   58.3891   24.7084   45.0885 H   0  0  0  0  0  0  0  0  0  0  0  0
   57.7558   24.2589   43.4571 H   0  0  0  0  0  0  0  0  0  0  0  0
   59.9266   29.3582   46.0056 H   0  0  0  0  0  0  0  0  0  0  0  0
   59.8858   31.5889   44.8869 H   0  0  0  0  0  0  0  0  0  0  0  0
   58.5718   32.8944   43.0642 H   0  0  0  0  0  0  0  0  0  0  0  0
   56.7607   32.8772   43.2000 H   0  0  0  0  0  0  0  0  0  0  0  0
   58.6971   34.5411   44.5773 H   0  0  0  0  0  0  0  0  0  0  0  0
   56.8647   34.5931   44.5626 H   0  0  0  0  0  0  0  0  0  0  0  0
   59.0179   33.3976   49.0603 H   0  0  0  0  0  0  0  0  0  0  0  0
   57.9266   32.1316   48.3931 H   0  0  0  0  0  0  0  0  0  0  0  0
   60.0659   31.2319   49.3898 H   0  0  0  0  0  0  0  0  0  0  0  0
   59.8114   30.8082   47.6502 H   0  0  0  0  0  0  0  0  0  0  0  0
   62.4757   30.8077   49.1875 H   0  0  0  0  0  0  0  0  0  0  0  0
   64.6925   31.7372   48.5256 H   0  0  0  0  0  0  0  0  0  0  0  0
   64.8193   33.6842   46.9729 H   0  0  0  0  0  0  0  0  0  0  0  0
   62.7298   34.7064   46.0744 H   0  0  0  0  0  0  0  0  0  0  0  0
   60.1365   35.0179   46.8581 H   0  0  0  0  0  0  0  0  0  0  0  0
   60.2380   33.8706   45.4412 H   0  0  0  0  0  0  0  0  0  0  0  0
  1  2  2  0
  2  3  1  0
  3  4  1  0
  4  5  1  0
  5  6  2  0
  5  7  1  0
  7  8  1  0
  8  9  1  0
  9 10  1  0
 10 11  1  0
 11 12  1  0
  2 13  1  0
 13 14  2  0
 14 15  1  0
 15 16  2  0
 16 17  1  0
 17 18  1  0
 18 19  1  0
 19 20  2  0
 19 21  1  0
 21 22  1  0
 22 23  1  0
 23 24  1  0
 24 25  2  0
 25 26  1  0
 26 27  2  0
 27 28  1  0
 28 29  2  0
 29 30  1  0
 16 31  1  0
 31 32  1  0
 32 33  2  0
 12  7  1  0
 32 13  1  0
 30 21  1  0
 29 24  1  0
  3 34  1  0
  4 35  1  0
  4 36  1  0
  8 37  1  0
  8 38  1  0
  9 39  1  0
  9 40  1  0
 10 41  1  0
 11 42  1  0
 11 43  1  0
 12 44  1  0
 12 45  1  0
 14 46  1  0
 15 47  1  0
 17 48  1  0
 17 49  1  0
 18 50  1  0
 18 51  1  0
 22 52  1  0
 22 53  1  0
 23 54  1  0
 23 55  1  0
 25 56  1  0
 26 57  1  0
 27 58  1  0
 28 59  1  0
 30 60  1  0
 30 61  1  0
M  CHG  1  31  -1
M  END
>  <UniqueID>  (11) 
10

>  <SMILES>  (11) 
O=C(NCC(=O)N1CCNCC1)c1ccc(CCC(=O)N2CCc3ccccc3C2)[n-]c1=O

>  <Energy>  (11) 
75.38315812166307

>  <Genealogy>  (11) 
O=C(NCC(=O)N1CCNCC1)c1ccc(CCC(=O)N2CCc3ccccc3C2)[n-]c1=O (protonated)
O=C(NCC(=O)N1CCNCC1)c1ccc(CCC(=O)N2CCc3ccccc3C2)[n-]c1=O (3D coordinates assigned)
O=C(NCC(=O)N1CCNCC1)c1ccc(CCC(=O)N2CCc3ccccc3C2)[n-]c1=O (nonaromatic ring conformer: 75.38315812166307 kcal/mol)

>  <smiles>  (11) 
O=C(NCC(=O)N1CCNCC1)c1ccc(CCC(=O)N2CCc3ccccc3C2)[nH]c1=O

>  <score_type>  (11) 
oracle

>  <origin>  (11) 
adg

>  <m_score__min__energy>  (11) 
-12.220000000000001

>  <m_primary>  (11) 
energy

$$$$
11:0
     RDKit          3D

 50 53  0  0  0  0  0  0  0  0999 V2000
   60.2220   34.7680   46.6870 O   0  0  0  0  0  0  0  0  0  0  0  0
   60.2510   33.5430   46.9880 C   0  0  0  0  0  0  0  0  0  0  0  0
   59.2940   32.6280   46.3280 C   0  0  0  0  0  0  0  0  0  0  0  0
   59.0180   31.3760   46.9000 C   0  0  0  0  0  0  0  0  0  0  0  0
   58.1280   30.4970   46.2800 C   0  0  0  0  0  0  0  0  0  0  0  0
   57.5190   30.8470   45.0670 C   0  0  0  0  0  0  0  0  0  0  0  0
   56.4040   29.7310   44.2820 S   0  0  0  0  0  0  0  0  0  0  0  0
   57.0250   29.2550   42.9970 O   0  0  0  0  0  0  0  0  0  0  0  0
   55.1180   30.4340   43.9460 O   0  0  0  0  0  0  0  0  0  0  0  0
   56.0540   28.3520   45.2770 N   0  0  0  0  0  0  0  0  0  0  0  0
   56.9670   27.2680   45.4770 C   0  0  0  0  0  0  0  0  0  0  0  0
   56.4590   25.9730   45.6740 C   0  0  0  0  0  0  0  0  0  0  0  0
   57.3300   24.8910   45.8580 C   0  0  0  0  0  0  0  0  0  0  0  0
   58.7190   25.0940   45.8160 C   0  0  0  0  0  0  0  0  0  0  0  0
   59.5990   24.0280   45.9970 O   0  0  0  0  0  0  0  0  0  0  0  0
   59.2280   26.3810   45.5810 C   0  0  0  0  0  0  0  0  0  0  0  0
   58.3580   27.4620   45.4010 C   0  0  0  0  0  0  0  0  0  0  0  0
   57.8010   32.0890   44.4850 C   0  0  0  0  0  0  0  0  0  0  0  0
   58.6810   32.9760   45.1120 C   0  0  0  0  0  0  0  0  0  0  0  0
   61.2120   33.0740   47.9560 N   0  0  0  0  0  0  0  0  0  0  0  0
   61.7820   31.7210   47.8730 C   0  0  0  0  0  0  0  0  0  0  0  0
   63.3060   31.8000   48.0000 C   0  0  0  0  0  0  0  0  0  0  0  0
   63.7720   32.5070   49.3060 C   0  0  0  0  0  0  0  0  0  0  0  0
   62.6340   33.3190   49.9760 C   0  0  0  0  0  0  0  0  0  0  0  0
   61.7390   34.0230   48.9490 C   0  0  0  0  0  0  0  0  0  0  0  0
   64.2060   31.5230   50.2240 O   0  0  0  0  0  0  0  0  0  0  0  0
   65.5620   31.7610   50.4410 C   0  0  0  0  0  0  0  0  0  0  0  0
   65.8500   33.1190   49.8820 C   0  0  0  0  0  0  0  0  0  0  0  0
   64.8240   33.3940   48.9820 O   0  0  0  0  0  0  0  0  0  0  0  0
   59.5059   31.0859   47.8422 H   0  0  0  0  0  0  0  0  0  0  0  0
   57.9038   29.5258   46.7453 H   0  0  0  0  0  0  0  0  0  0  0  0
   55.3715   25.8076   45.6838 H   0  0  0  0  0  0  0  0  0  0  0  0
   56.9261   23.8833   46.0352 H   0  0  0  0  0  0  0  0  0  0  0  0
   60.2200   23.7220   45.2580 H   0  0  0  0  0  0  0  0  0  0  0  0
   60.3156   26.5403   45.5382 H   0  0  0  0  0  0  0  0  0  0  0  0
   58.7625   28.4649   45.1998 H   0  0  0  0  0  0  0  0  0  0  0  0
   57.3286   32.3676   43.5315 H   0  0  0  0  0  0  0  0  0  0  0  0
   58.8949   33.9517   44.6512 H   0  0  0  0  0  0  0  0  0  0  0  0
   61.3778   31.1023   48.6878 H   0  0  0  0  0  0  0  0  0  0  0  0
   61.5178   31.2708   46.9048 H   0  0  0  0  0  0  0  0  0  0  0  0
   63.7119   30.7777   47.9909 H   0  0  0  0  0  0  0  0  0  0  0  0
   63.6761   32.3965   47.1531 H   0  0  0  0  0  0  0  0  0  0  0  0
   62.0151   32.6337   50.5738 H   0  0  0  0  0  0  0  0  0  0  0  0
   63.0981   34.0932   50.6047 H   0  0  0  0  0  0  0  0  0  0  0  0
   60.8962   34.4966   49.4738 H   0  0  0  0  0  0  0  0  0  0  0  0
   62.3433   34.7758   48.4216 H   0  0  0  0  0  0  0  0  0  0  0  0
   65.7841   31.7385   51.5181 H   0  0  0  0  0  0  0  0  0  0  0  0
   66.1830   30.9922   49.9580 H   0  0  0  0  0  0  0  0  0  0  0  0
   65.8619   33.8682   50.6873 H   0  0  0  0  0  0  0  0  0  0  0  0
   66.8335   33.1498   49.3904 H   0  0  0  0  0  0  0  0  0  0  0  0
  1  2  2  0
  2  3  1  0
  3  4  2  0
  4  5  1  0
  5  6  2  0
  6  7  1  0
  7  8  2  0
  7  9  2  0
  7 10  1  0
 10 11  1  0
 11 12  2  0
 12 13  1  0
 13 14  2  0
 14 15  1  0
 14 16  1  0
 16 17  2  0
  6 18  1  0
 18 19  2  0
  2 20  1  0
 20 21  1  0
 21 22  1  0
 22 23  1  0
 23 24  1  0
 24 25  1  0
 23 26  1  0
 26 27  1  0
 27 28  1  0
 28 29  1  0
 19  3  1  0
 25 20  1  0
 17 11  1  0
 29 23  1  0
  4 30  1  0
  5 31  1  0
 12 32  1  0
 13 33  1  0
 15 34  1  0
 16 35  1  0
 17 36  1  0
 18 37  1  0
 19 38  1  0
 21 39  1  0
 21 40  1  0
 22 41  1  0
 22 42  1  0
 24 43  1  0
 24 44  1  0
 25 45  1  0
 25 46  1  0
 27 47  1  0
 27 48  1  0
 28 49  1  0
 28 50  1  0
M  CHG  1  10  -1
M  END
>  <UniqueID>  (12) 
11

>  <SMILES>  (12) 
O=C(c1ccc(S(=O)(=O)[N-]c2ccc(O)cc2)cc1)N1CCC2(CC1)OCCO2

>  <Energy>  (12) 
63.64959983887486

>  <Genealogy>  (12) 
O=C(c1ccc(S(=O)(=O)[N-]c2ccc(O)cc2)cc1)N1CCC2(CC1)OCCO2 (protonated)
O=C(c1ccc(S(=O)(=O)[N-]c2ccc(O)cc2)cc1)N1CCC2(CC1)OCCO2 (3D coordinates assigned)
O=C(c1ccc(S(=O)(=O)[N-]c2ccc(O)cc2)cc1)N1CCC2(CC1)OCCO2 (nonaromatic ring conformer: 63.64959983887486 kcal/mol)

>  <smiles>  (12) 
O=C(c1ccc(S(=O)(=O)Nc2ccc(O)cc2)cc1)N1CCC2(CC1)OCCO2

>  <score_type>  (12) 
oracle

>  <origin>  (12) 
adg

>  <m_score__min__energy>  (12) 
-10.06

>  <m_primary>  (12) 
energy

$$$$
12:0
     RDKit          3D

 71 74  0  0  0  0  0  0  0  0999 V2000
   58.2410   29.9530   46.9060 C   0  0  0  0  0  0  0  0  0  0  0  0
   57.7300   29.9200   45.4820 C   0  0  0  0  0  0  0  0  0  0  0  0
   57.5570   28.6710   44.8370 C   0  0  0  0  0  0  0  0  0  0  0  0
   57.9240   27.4650   45.5300 N   0  0  0  0  0  0  0  0  0  0  0  0
   56.8630   26.1620   45.9620 S   0  0  0  0  0  0  0  0  0  0  0  0
   56.9390   24.8750   44.7360 C   0  0  0  0  0  0  0  0  0  0  0  0
   55.4580   26.6880   46.0250 O   0  0  0  0  0  0  0  0  0  0  0  0
   57.2350   25.6170   47.3140 O   0  0  0  0  0  0  0  0  0  0  0  0
   57.0310   28.6290   43.5350 C   0  0  0  0  0  0  0  0  0  0  0  0
   56.6860   29.8060   42.8730 C   0  0  0  0  0  0  0  0  0  0  0  0
   56.8820   31.0400   43.4870 C   0  0  0  0  0  0  0  0  0  0  0  0
   57.4240   31.1160   44.7790 C   0  0  0  0  0  0  0  0  0  0  0  0
   57.6440   32.4610   45.3580 C   0  0  0  0  0  0  0  0  0  0  0  0
   56.6550   33.2220   45.5350 O   0  0  0  0  0  0  0  0  0  0  0  0
   58.9690   32.9150   45.6740 N   0  0  0  0  0  0  0  0  0  0  0  0
   59.2340   34.2360   46.2410 C   0  0  0  0  0  0  0  0  0  0  0  0
   60.3930   34.1600   47.1950 C   0  0  0  0  0  0  0  0  0  0  0  0
   61.6170   33.6090   46.7810 C   0  0  0  0  0  0  0  0  0  0  0  0
   62.6820   33.5020   47.6790 C   0  0  0  0  0  0  0  0  0  0  0  0
   62.5380   33.9480   49.0000 C   0  0  0  0  0  0  0  0  0  0  0  0
   63.6380   33.8380   49.9130 N   0  0  0  0  0  0  0  0  0  0  0  0
   63.5600   34.4490   51.2430 C   0  0  0  0  0  0  0  0  0  0  0  0
   63.1020   33.4380   52.3020 C   0  0  0  0  0  0  0  0  0  0  0  0
   63.9640   32.1670   52.3290 C   0  0  0  0  0  0  0  0  0  0  0  0
   63.7830   31.3900   51.0960 N   0  0  0  0  0  0  0  0  0  0  0  0
   62.7240   30.4220   51.0550 C   0  0  0  0  0  0  0  0  0  0  0  0
   62.8970   29.2890   51.5740 O   0  0  0  0  0  0  0  0  0  0  0  0
   61.5090   30.7010   50.3440 N   0  0  0  0  0  0  0  0  0  0  0  0
   60.9870   29.7360   49.3760 C   0  0  0  0  0  0  0  0  0  0  0  0
   59.6600   29.1770   49.9020 C   0  0  0  0  0  0  0  0  0  0  0  0
   58.7550   30.2270   50.1970 O   0  0  0  0  0  0  0  0  0  0  0  0
   59.2680   31.0380   51.2410 C   0  0  0  0  0  0  0  0  0  0  0  0
   60.5750   31.7230   50.8170 C   0  0  0  0  0  0  0  0  0  0  0  0
   64.6330   31.5810   49.9090 C   0  0  0  0  0  0  0  0  0  0  0  0
   64.8190   33.0580   49.5360 C   0  0  0  0  0  0  0  0  0  0  0  0
   61.3170   34.4940   49.4180 C   0  0  0  0  0  0  0  0  0  0  0  0
   60.2460   34.5900   48.5240 C   0  0  0  0  0  0  0  0  0  0  0  0
   57.3909   29.8981   47.6020 H   0  0  0  0  0  0  0  0  0  0  0  0
   58.9096   29.0962   47.0756 H   0  0  0  0  0  0  0  0  0  0  0  0
   58.7939   30.8887   47.0756 H   0  0  0  0  0  0  0  0  0  0  0  0
   56.9968   23.8963   45.2349 H   0  0  0  0  0  0  0  0  0  0  0  0
   56.0370   24.9135   44.1076 H   0  0  0  0  0  0  0  0  0  0  0  0
   57.8302   25.0194   44.1076 H   0  0  0  0  0  0  0  0  0  0  0  0
   56.8903   27.6598   43.0342 H   0  0  0  0  0  0  0  0  0  0  0  0
   56.2571   29.7597   41.8611 H   0  0  0  0  0  0  0  0  0  0  0  0
   56.6096   31.9633   42.9547 H   0  0  0  0  0  0  0  0  0  0  0  0
   59.7880   32.3440   45.3650 H   0  0  0  0  0  0  0  0  0  0  0  0
   59.4745   34.9394   45.4302 H   0  0  0  0  0  0  0  0  0  0  0  0
   58.3416   34.5835   46.7822 H   0  0  0  0  0  0  0  0  0  0  0  0
   61.7376   33.2601   45.7448 H   0  0  0  0  0  0  0  0  0  0  0  0
   63.6364   33.0664   47.3483 H   0  0  0  0  0  0  0  0  0  0  0  0
   64.5540   34.8304   51.5197 H   0  0  0  0  0  0  0  0  0  0  0  0
   62.8233   35.2650   51.2045 H   0  0  0  0  0  0  0  0  0  0  0  0
   63.1535   33.9178   53.2905 H   0  0  0  0  0  0  0  0  0  0  0  0
   62.0759   33.1350   52.0464 H   0  0  0  0  0  0  0  0  0  0  0  0
   65.0225   32.4507   52.4248 H   0  0  0  0  0  0  0  0  0  0  0  0
   63.6553   31.5487   53.1848 H   0  0  0  0  0  0  0  0  0  0  0  0
   60.8210   30.2346   48.4097 H   0  0  0  0  0  0  0  0  0  0  0  0
   61.7088   28.9175   49.2379 H   0  0  0  0  0  0  0  0  0  0  0  0
   59.2161   28.5219   49.1379 H   0  0  0  0  0  0  0  0  0  0  0  0
   59.8561   28.6102   50.8241 H   0  0  0  0  0  0  0  0  0  0  0  0
   58.5250   31.8081   51.4959 H   0  0  0  0  0  0  0  0  0  0  0  0
   59.4752   30.3978   52.1112 H   0  0  0  0  0  0  0  0  0  0  0  0
   60.3713   32.4407   50.0086 H   0  0  0  0  0  0  0  0  0  0  0  0
   61.0102   32.2612   51.6720 H   0  0  0  0  0  0  0  0  0  0  0  0
   65.6217   31.1435   50.1118 H   0  0  0  0  0  0  0  0  0  0  0  0
   64.1318   31.0885   49.0627 H   0  0  0  0  0  0  0  0  0  0  0  0
   65.6985   33.4560   50.0634 H   0  0  0  0  0  0  0  0  0  0  0  0
   64.9611   33.1336   48.4478 H   0  0  0  0  0  0  0  0  0  0  0  0
   61.2006   34.8483   50.4529 H   0  0  0  0  0  0  0  0  0  0  0  0
   59.2848   35.0038   48.8629 H   0  0  0  0  0  0  0  0  0  0  0  0
  1  2  1  0
  2  3  2  0
  3  4  1  0
  4  5  1  0
  5  6  1  0
  5  7  2  0
  5  8  2  0
  3  9  1  0
  9 10  2  0
 10 11  1  0
 11 12  2  0
 12 13  1  0
 13 14  2  0
 13 15  1  0
 15 16  1  0
 16 17  1  0
 17 18  2  0
 18 19  1  0
 19 20  2  0
 20 21  1  0
 21 22  1  0
 22 23  1  0
 23 24  1  0
 24 25  1  0
 25 26  1  0
 26 27  2  0
 26 28  1  0
 28 29  1  0
 29 30  1  0
 30 31  1  0
 31 32  1  0
 32 33  1  0
 25 34  1  0
 34 35  1  0
 20 36  1  0
 36 37  2  0
 12  2  1  0
 37 17  1  0
 35 21  1  0
 33 28  1  0
  1 38  1  0
  1 39  1  0
  1 40  1  0
  6 41  1  0
  6 42  1  0
  6 43  1  0
  9 44  1  0
 10 45  1  0
 11 46  1  0
 15 47  1  0
 16 48  1  0
 16 49  1  0
 18 50  1  0
 19 51  1  0
 22 52  1  0
 22 53  1  0
 23 54  1  0
 23 55  1  0
 24 56  1  0
 24 57  1  0
 29 58  1  0
 29 59  1  0
 30 60  1  0
 30 61  1  0
 32 62  1  0
 32 63  1  0
 33 64  1  0
 33 65  1  0
 34 66  1  0
 34 67  1  0
 35 68  1  0
 35 69  1  0
 36 70  1  0
 37 71  1  0
M  CHG  1   4  -1
M  END
>  <UniqueID>  (13) 
12

>  <SMILES>  (13) 
Cc1c([N-]S(C)(=O)=O)cccc1C(=O)NCc1ccc(N2CCCN(C(=O)N3CCOCC3)CC2)cc1

>  <Energy>  (13) 
94.24348781082156

>  <Genealogy>  (13) 
Cc1c([N-]S(C)(=O)=O)cccc1C(=O)NCc1ccc(N2CCCN(C(=O)N3CCOCC3)CC2)cc1 (protonated)
Cc1c([N-]S(C)(=O)=O)cccc1C(=O)NCc1ccc(N2CCCN(C(=O)N3CCOCC3)CC2)cc1 (3D coordinates assigned)
Cc1c([N-]S(C)(=O)=O)cccc1C(=O)NCc1ccc(N2CCCN(C(=O)N3CCOCC3)CC2)cc1 (nonaromatic ring conformer: 94.24348781082156 kcal/mol)

>  <smiles>  (13) 
Cc1c(NS(C)(=O)=O)cccc1C(=O)NCc1ccc(N2CCCN(C(=O)N3CCOCC3)CC2)cc1

>  <score_type>  (13) 
oracle

>  <origin>  (13) 
adg

>  <m_score__min__energy>  (13) 
-8.6600000000000001

>  <m_primary>  (13) 
energy

$$$$
13:0
     RDKit          3D

 59 62  0  0  0  0  0  0  0  0999 V2000
   66.8950   32.7780   50.1030 C   0  0  0  0  0  0  0  0  0  0  0  0
   65.4550   33.1210   50.3490 C   0  0  0  0  0  0  0  0  0  0  0  0
   64.4650   32.7260   49.4400 C   0  0  0  0  0  0  0  0  0  0  0  0
   63.1210   33.0000   49.7040 C   0  0  0  0  0  0  0  0  0  0  0  0
   62.7720   33.6670   50.8830 C   0  0  0  0  0  0  0  0  0  0  0  0
   61.5150   33.8660   51.1560 N   0  0  0  0  0  0  0  0  0  0  0  0
   60.4240   33.0360   50.7260 C   0  0  0  0  0  0  0  0  0  0  0  0
   60.0110   32.0970   51.4630 O   0  0  0  0  0  0  0  0  0  0  0  0
   59.7830   33.2760   49.4120 C   0  0  0  0  0  0  0  0  0  0  0  0
   60.1220   34.4100   48.6490 C   0  0  0  0  0  0  0  0  0  0  0  0
   59.5930   34.5870   47.3670 C   0  0  0  0  0  0  0  0  0  0  0  0
   58.7180   33.6350   46.8290 C   0  0  0  0  0  0  0  0  0  0  0  0
   58.1130   33.8070   45.1850 S   0  0  0  0  0  0  0  0  0  0  0  0
   56.6440   34.1290   45.2030 O   0  0  0  0  0  0  0  0  0  0  0  0
   58.8650   34.9210   44.5060 O   0  0  0  0  0  0  0  0  0  0  0  0
   58.3820   32.3180   44.3400 N   0  0  0  0  0  0  0  0  0  0  0  0
   57.7730   31.0710   44.6860 C   0  0  0  0  0  0  0  0  0  0  0  0
   58.5340   29.9930   45.1660 C   0  0  0  0  0  0  0  0  0  0  0  0
   57.9150   28.7760   45.4680 C   0  0  0  0  0  0  0  0  0  0  0  0
   56.5320   28.6200   45.2860 C   0  0  0  0  0  0  0  0  0  0  0  0
   55.8650   27.3930   45.6080 N   0  0  0  0  0  0  0  0  0  0  0  0
   56.4420   26.3120   46.3500 C   0  0  0  0  0  0  0  0  0  0  0  0
   55.7050   25.3710   46.7470 O   0  0  0  0  0  0  0  0  0  0  0  0
   57.8520   26.2650   46.5800 N   0  0  0  0  0  0  0  0  0  0  0  0
   58.7670   25.4720   45.7720 C   0  0  0  0  0  0  0  0  0  0  0  0
   57.9850   24.4180   45.0450 C   0  0  0  0  0  0  0  0  0  0  0  0
   57.2320   24.7520   43.9070 C   0  0  0  0  0  0  0  0  0  0  0  0
   56.5430   23.7610   43.2000 C   0  0  0  0  0  0  0  0  0  0  0  0
   56.6030   22.4280   43.6210 C   0  0  0  0  0  0  0  0  0  0  0  0
   55.8950   21.4530   42.9220 O   0  0  0  0  0  0  0  0  0  0  0  0
   57.3690   22.0790   44.7410 C   0  0  0  0  0  0  0  0  0  0  0  0
   57.4280   20.7460   45.1510 O   0  0  0  0  0  0  0  0  0  0  0  0
   58.0670   23.0730   45.4450 C   0  0  0  0  0  0  0  0  0  0  0  0
   55.7760   29.6990   44.8110 C   0  0  0  0  0  0  0  0  0  0  0  0
   56.3970   30.9090   44.4900 C   0  0  0  0  0  0  0  0  0  0  0  0
   58.3480   32.5260   47.5980 C   0  0  0  0  0  0  0  0  0  0  0  0
   58.8780   32.3430   48.8790 C   0  0  0  0  0  0  0  0  0  0  0  0
   63.7500   34.0430   51.7570 N   0  0  0  0  0  0  0  0  0  0  0  0
   65.0670   33.7850   51.5210 C   0  0  0  0  0  0  0  0  0  0  0  0
   67.4122   32.6548   51.0660 H   0  0  0  0  0  0  0  0  0  0  0  0
   66.9561   31.8402   49.5314 H   0  0  0  0  0  0  0  0  0  0  0  0
   67.3723   33.5876   49.5314 H   0  0  0  0  0  0  0  0  0  0  0  0
   64.7466   32.1990   48.5164 H   0  0  0  0  0  0  0  0  0  0  0  0
   62.3426   32.6934   48.9898 H   0  0  0  0  0  0  0  0  0  0  0  0
   60.8083   35.1624   49.0649 H   0  0  0  0  0  0  0  0  0  0  0  0
   59.8648   35.4763   46.7794 H   0  0  0  0  0  0  0  0  0  0  0  0
   59.6193   30.1061   45.3048 H   0  0  0  0  0  0  0  0  0  0  0  0
   58.5149   27.9368   45.8501 H   0  0  0  0  0  0  0  0  0  0  0  0
   59.2754   26.1220   45.0447 H   0  0  0  0  0  0  0  0  0  0  0  0
   59.5198   24.9977   46.4187 H   0  0  0  0  0  0  0  0  0  0  0  0
   57.1840   25.7981   43.5702 H   0  0  0  0  0  0  0  0  0  0  0  0
   55.9530   24.0301   42.3115 H   0  0  0  0  0  0  0  0  0  0  0  0
   57.3870   19.9870   44.4840 H   0  0  0  0  0  0  0  0  0  0  0  0
   58.6817   22.7977   46.3147 H   0  0  0  0  0  0  0  0  0  0  0  0
   54.6878   29.5935   44.6900 H   0  0  0  0  0  0  0  0  0  0  0  0
   55.8011   31.7383   44.0812 H   0  0  0  0  0  0  0  0  0  0  0  0
   57.6353   31.7931   47.1920 H   0  0  0  0  0  0  0  0  0  0  0  0
   58.5849   31.4643   49.4722 H   0  0  0  0  0  0  0  0  0  0  0  0
   65.8272   34.0984   52.2516 H   0  0  0  0  0  0  0  0  0  0  0  0
  1  2  1  0
  2  3  1  0
  3  4  2  0
  4  5  1  0
  5  6  2  3
  6  7  1  0
  7  8  2  0
  7  9  1  0
  9 10  2  0
 10 11  1  0
 11 12  2  0
 12 13  1  0
 13 14  2  0
 13 15  2  0
 13 16  1  0
 16 17  1  0
 17 18  2  0
 18 19  1  0
 19 20  2  0
 20 21  1  0
 21 22  1  0
 22 23  2  0
 22 24  1  0
 24 25  1  0
 25 26  1  0
 26 27  2  0
 27 28  1  0
 28 29  2  0
 29 30  1  0
 29 31  1  0
 31 32  1  0
 31 33  2  0
 20 34  1  0
 34 35  2  0
 12 36  1  0
 36 37  2  0
  5 38  1  0
 38 39  1  0
 39  2  2  0
 37  9  1  0
 35 17  1  0
 33 26  1  0
  1 40  1  0
  1 41  1  0
  1 42  1  0
  3 43  1  0
  4 44  1  0
 10 45  1  0
 11 46  1  0
 18 47  1  0
 19 48  1  0
 25 49  1  0
 25 50  1  0
 27 51  1  0
 28 52  1  0
 32 53  1  0
 33 54  1  0
 34 55  1  0
 35 56  1  0
 36 57  1  0
 37 58  1  0
 39 59  1  0
M  CHG  5  16  -1  21  -1  24  -1  30  -1  38  -1
M  END
>  <UniqueID>  (14) 
13

>  <SMILES>  (14) 
Cc1ccc(=NC(=O)c2ccc(S(=O)(=O)[N-]c3ccc([N-]C(=O)[N-]Cc4ccc([O-])c(O)c4)cc3)cc2)[n-]c1

>  <Energy>  (14) 
76.36266505039629

>  <Genealogy>  (14) 
Cc1ccc(=NC(=O)c2ccc(S(=O)(=O)[N-]c3ccc([N-]C(=O)[N-]Cc4ccc([O-])c(O)c4)cc3)cc2)[n-]c1 (protonated)
Cc1ccc(=NC(=O)c2ccc(S(=O)(=O)[N-]c3ccc([N-]C(=O)[N-]Cc4ccc([O-])c(O)c4)cc3)cc2)[n-]c1 (3D coordinates assigned)
Cc1ccc(=NC(=O)c2ccc(S(=O)(=O)[N-]c3ccc([N-]C(=O)[N-]Cc4ccc([O-])c(O)c4)cc3)cc2)[n-]c1 (optimized conformer: 76.36266505039629 kcal/mol)

>  <smiles>  (14) 
Cc1ccc(=NC(=O)c2ccc(S(=O)(=O)Nc3ccc(NC(=O)NCc4ccc(O)c(O)c4)cc3)cc2)[nH]c1

>  <score_type>  (14) 
oracle

>  <origin>  (14) 
adg

>  <m_score__min__energy>  (14) 
-19.879999999999999

>  <m_primary>  (14) 
energy

$$$$
14:0
     RDKit          3D

 55 58  0  0  0  0  0  0  0  0999 V2000
   54.7770   28.5890   44.4990 H   0  0  0  0  0  0  0  0  0  0  0  0
   55.6150   28.8750   44.9910 O   0  0  0  0  0  0  0  0  0  0  0  0
   56.5180   27.9330   45.4780 C   0  0  0  0  0  0  0  0  0  0  0  0
   56.0540   26.8040   46.0760 N   0  0  0  0  0  0  0  0  0  0  0  0
   56.9060   25.8550   46.5400 C   0  0  0  0  0  0  0  0  0  0  0  0
   56.3180   24.5120   47.2560 S   0  0  0  0  0  0  0  0  0  0  0  0
   58.2460   26.0170   46.4010 N   0  0  0  0  0  0  0  0  0  0  0  0
   58.7620   27.1280   45.8130 C   0  0  0  0  0  0  0  0  0  0  0  0
   60.0110   27.2420   45.6940 O   0  0  0  0  0  0  0  0  0  0  0  0
   57.9030   28.1370   45.3510 C   0  0  0  0  0  0  0  0  0  0  0  0
   58.4420   29.3290   44.6660 C   0  0  0  0  0  0  0  0  0  0  0  0
   58.7639   29.2050   43.6215 H   0  0  0  0  0  0  0  0  0  0  0  0
   58.5740   30.5560   45.2090 C   0  0  0  0  0  0  0  0  0  0  0  0
   58.0100   31.6840   44.6400 C   0  0  0  0  0  0  0  0  0  0  0  0
   57.4660   31.7333   43.6852 H   0  0  0  0  0  0  0  0  0  0  0  0
   58.2590   32.7330   45.4960 C   0  0  0  0  0  0  0  0  0  0  0  0
   57.7290   34.1220   45.2960 C   0  0  0  0  0  0  0  0  0  0  0  0
   57.5502   34.5907   46.2749 H   0  0  0  0  0  0  0  0  0  0  0  0
   58.4632   34.7171   44.7332 H   0  0  0  0  0  0  0  0  0  0  0  0
   56.7850   34.0767   44.7332 H   0  0  0  0  0  0  0  0  0  0  0  0
   58.9780   32.3160   46.5670 N   0  0  0  0  0  0  0  0  0  0  0  0
   59.3540   33.1580   47.7160 C   0  0  0  0  0  0  0  0  0  0  0  0
   58.8037   34.1090   47.6635 H   0  0  0  0  0  0  0  0  0  0  0  0
   59.1025   32.6254   48.6450 H   0  0  0  0  0  0  0  0  0  0  0  0
   60.8340   33.4400   47.7010 C   0  0  0  0  0  0  0  0  0  0  0  0
   61.5270   33.5210   46.4830 C   0  0  0  0  0  0  0  0  0  0  0  0
   60.9816   33.4090   45.5343 H   0  0  0  0  0  0  0  0  0  0  0  0
   62.9050   33.7430   46.4700 C   0  0  0  0  0  0  0  0  0  0  0  0
   63.4422   33.8000   45.5118 H   0  0  0  0  0  0  0  0  0  0  0  0
   63.6040   33.8930   47.6700 C   0  0  0  0  0  0  0  0  0  0  0  0
   64.6917   34.0565   47.6534 H   0  0  0  0  0  0  0  0  0  0  0  0
   62.9240   33.8360   48.8980 C   0  0  0  0  0  0  0  0  0  0  0  0
   63.6700   33.9790   50.1680 C   0  0  0  0  0  0  0  0  0  0  0  0
   63.2250   34.7570   51.0550 O   0  0  0  0  0  0  0  0  0  0  0  0
   64.8790   33.2370   50.4160 N   0  0  0  0  0  0  0  0  0  0  0  0
   65.9610   33.8250   51.2130 C   0  0  0  0  0  0  0  0  0  0  0  0
   66.8666   33.8996   50.5930 H   0  0  0  0  0  0  0  0  0  0  0  0
   65.6476   34.8232   51.5528 H   0  0  0  0  0  0  0  0  0  0  0  0
   66.2640   32.9530   52.4490 C   0  0  0  0  0  0  0  0  0  0  0  0
   67.3336   33.0498   52.6870 H   0  0  0  0  0  0  0  0  0  0  0  0
   65.6156   33.3145   53.2607 H   0  0  0  0  0  0  0  0  0  0  0  0
   65.9570   31.5190   52.2620 N   0  0  0  0  0  0  0  0  0  0  0  0
   64.9840   31.3330   52.6050 H   0  0  0  0  0  0  0  0  0  0  0  0
   66.0400   31.1000   50.8570 C   0  0  0  0  0  0  0  0  0  0  0  0
   67.0390   31.3418   50.4651 H   0  0  0  0  0  0  0  0  0  0  0  0
   65.8624   30.0161   50.7969 H   0  0  0  0  0  0  0  0  0  0  0  0
   64.9780   31.8260   50.0180 C   0  0  0  0  0  0  0  0  0  0  0  0
   65.2560   31.7690   48.9552 H   0  0  0  0  0  0  0  0  0  0  0  0
   64.0041   31.3421   50.1835 H   0  0  0  0  0  0  0  0  0  0  0  0
   61.5400   33.5940   48.9050 C   0  0  0  0  0  0  0  0  0  0  0  0
   61.0042   33.5245   49.8632 H   0  0  0  0  0  0  0  0  0  0  0  0
   59.2040   30.9840   46.3910 C   0  0  0  0  0  0  0  0  0  0  0  0
   59.9950   30.2450   47.1880 C   0  0  0  0  0  0  0  0  0  0  0  0
   60.4349   30.6907   48.0924 H   0  0  0  0  0  0  0  0  0  0  0  0
   60.2024   29.1946   46.9358 H   0  0  0  0  0  0  0  0  0  0  0  0
  1  2  1  0
  2  3  1  0
  3  4  1  0
  4  5  1  0
  5  6  2  0
  5  7  1  0
  7  8  1  0
  8  9  2  0
  8 10  1  0
 10 11  1  0
 11 12  1  0
 11 13  2  0
 13 14  1  0
 14 15  1  0
 14 16  2  0
 16 17  1  0
 17 18  1  0
 17 19  1  0
 17 20  1  0
 16 21  1  0
 21 22  1  0
 22 23  1  0
 22 24  1  0
 22 25  1  0
 25 26  2  0
 26 27  1  0
 26 28  1  0
 28 29  1  0
 28 30  2  0
 30 31  1  0
 30 32  1  0
 32 33  1  0
 33 34  2  0
 33 35  1  0
 35 36  1  0
 36 37  1  0
 36 38  1  0
 36 39  1  0
 39 40  1  0
 39 41  1  0
 39 42  1  0
 42 43  1  0
 42 44  1  0
 44 45  1  0
 44 46  1  0
 44 47  1  0
 47 48  1  0
 47 49  1  0
 32 50  2  0
 50 51  1  0
 21 52  1  0
 52 53  2  0
 53 54  1  0
 53 55  1  0
 10  3  2  0
 52 13  1  0
 50 25  1  0
 47 35  1  0
M  CHG  2   4  -1   7  -1
M  END
>  <UniqueID>  (15) 
14

>  <SMILES>  (15) 
C=c1/c(=C\c2c(O)[n-]c(=S)[n-]c2=O)cc(C)n1Cc1cccc(C(=O)N2CCNCC2)c1

>  <Energy>  (15) 
109.16238407892256

>  <Genealogy>  (15) 
C=c1c(=Cc2c(O)[n-]c(=S)[n-]c2=O)cc(C)n1Cc1cccc(C(=O)N2CCNCC2)c1 (protonated)
C=c1/c(=C\c2c(O)[n-]c(=S)[n-]c2=O)cc(C)n1Cc1cccc(C(=O)N2CCNCC2)c1 (cis-trans isomerization)
C=c1/c(=C\c2c(O)[n-]c(=S)[n-]c2=O)cc(C)n1Cc1cccc(C(=O)N2CCNCC2)c1 (3D coordinates assigned)
C=c1/c(=C\c2c(O)[n-]c(=S)[n-]c2=O)cc(C)n1Cc1cccc(C(=O)N2CCNCC2)c1 (nonaromatic ring conformer: 109.16238407892256 kcal/mol)

>  <smiles>  (15) 
C=c1c(=Cc2c(O)[nH]c(=S)[nH]c2=O)cc(C)n1Cc1cccc(C(=O)N2CCNCC2)c1

>  <score_type>  (15) 
oracle

>  <origin>  (15) 
adg

>  <m_score__min__energy>  (15) 
-13.619999999999999

>  <m_primary>  (15) 
energy

$$$$
15:0
     RDKit          3D

 18 18  0  0  0  0  0  0  0  0999 V2000
   55.1480   28.7640   53.2460 C   0  0  0  0  0  0  0  0  0  0  0  0
   54.1660   29.5560   52.7890 C   0  0  0  0  0  0  0  0  0  0  0  0
   54.4100   30.3800   51.7320 N   0  0  0  0  0  0  0  0  0  0  0  0
   53.4630   31.2160   51.2360 C   0  0  0  0  0  0  0  0  0  0  0  0
   52.1800   31.2680   51.7970 C   0  0  0  0  0  0  0  0  0  0  0  0
   51.2370   32.2710   51.2450 C   0  0  0  0  0  0  0  0  0  0  0  0
   50.6850   33.1210   51.9940 O   0  0  0  0  0  0  0  0  0  0  0  0
   51.0120   32.3330   49.8750 O   0  0  0  0  0  0  0  0  0  0  0  0
   51.8650   30.3900   52.8710 C   0  0  0  0  0  0  0  0  0  0  0  0
   50.6180   30.3120   53.3780 C   0  0  0  0  0  0  0  0  0  0  0  0
   52.8820   29.5440   53.3790 C   0  0  0  0  0  0  0  0  0  0  0  0
   52.6430   28.7720   54.3520 O   0  0  0  0  0  0  0  0  0  0  0  0
   54.9626   28.0945   54.0989 H   0  0  0  0  0  0  0  0  0  0  0  0
   56.1384   28.7842   52.7678 H   0  0  0  0  0  0  0  0  0  0  0  0
   55.3530   30.3950   51.2790 H   0  0  0  0  0  0  0  0  0  0  0  0
   53.7064   31.8629   50.3802 H   0  0  0  0  0  0  0  0  0  0  0  0
   50.4042   29.6236   54.2089 H   0  0  0  0  0  0  0  0  0  0  0  0
   49.8145   30.9368   52.9607 H   0  0  0  0  0  0  0  0  0  0  0  0
  1  2  2  0
  2  3  1  0
  3  4  1  0
  4  5  2  0
  5  6  1  0
  6  7  2  0
  6  8  1  0
  5  9  1  0
  9 10  2  0
  9 11  1  0
 11 12  2  0
 11  2  1  0
  1 13  1  0
  1 14  1  0
  3 15  1  0
  4 16  1  0
 10 17  1  0
 10 18  1  0
M  CHG  1   8  -1
M  END
>  <UniqueID>  (16) 
15

>  <SMILES>  (16) 
C=c1[nH]cc(C(=O)[O-])c(=C)c1=O

>  <Energy>  (16) 
29.492175421166337

>  <Genealogy>  (16) 
C=c1[nH]cc(C(=O)[O-])c(=C)c1=O (protonated)
C=c1[nH]cc(C(=O)[O-])c(=C)c1=O (3D coordinates assigned)
C=c1[nH]cc(C(=O)[O-])c(=C)c1=O (optimized conformer: 29.492175421166337 kcal/mol)

>  <smiles>  (16) 
C=c1[nH]cc(C(=O)O)c(=C)c1=O

>  <score_type>  (16) 
oracle

>  <origin>  (16) 
adg

>  <m_score__min__energy>  (16) 
-8.5399999999999991

>  <m_primary>  (16) 
energy

$$$$
16:0
     RDKit          3D

 63 67  0  0  0  0  0  0  0  0999 V2000
   61.6140   34.2740   49.5100 C   0  0  0  0  0  0  0  0  0  0  0  0
   60.3240   33.7370   48.9570 C   0  0  0  0  0  0  0  0  0  0  0  0
   59.5040   32.8840   49.7250 C   0  0  0  0  0  0  0  0  0  0  0  0
   58.3050   32.3690   49.1890 C   0  0  0  0  0  0  0  0  0  0  0  0
   57.8960   32.7110   47.8900 C   0  0  0  0  0  0  0  0  0  0  0  0
   58.7040   33.5840   47.1560 C   0  0  0  0  0  0  0  0  0  0  0  0
   58.5950   34.0720   45.8640 C   0  0  0  0  0  0  0  0  0  0  0  0
   57.5400   33.8140   44.8630 C   0  0  0  0  0  0  0  0  0  0  0  0
   56.7330   34.7400   44.5780 O   0  0  0  0  0  0  0  0  0  0  0  0
   57.3680   32.5010   44.2210 C   0  0  0  0  0  0  0  0  0  0  0  0
   58.0500   32.1990   43.2030 O   0  0  0  0  0  0  0  0  0  0  0  0
   56.4440   31.5610   44.7810 N   0  0  0  0  0  0  0  0  0  0  0  0
   56.4020   29.8880   44.3270 S   0  0  0  0  0  0  0  0  0  0  0  0
   56.3910   29.7570   42.8300 O   0  0  0  0  0  0  0  0  0  0  0  0
   55.1440   29.2590   44.8610 O   0  0  0  0  0  0  0  0  0  0  0  0
   57.8050   29.0680   45.0060 C   0  0  0  0  0  0  0  0  0  0  0  0
   58.0710   27.7290   44.6990 C   0  0  0  0  0  0  0  0  0  0  0  0
   59.1610   27.1120   45.2260 N   0  0  0  0  0  0  0  0  0  0  0  0
   60.0240   27.7620   46.0490 C   0  0  0  0  0  0  0  0  0  0  0  0
   59.8120   29.1130   46.3800 C   0  0  0  0  0  0  0  0  0  0  0  0
   60.7430   29.8340   47.2880 C   0  0  0  0  0  0  0  0  0  0  0  0
   61.6130   30.8150   46.7830 C   0  0  0  0  0  0  0  0  0  0  0  0
   62.4880   31.4960   47.6350 C   0  0  0  0  0  0  0  0  0  0  0  0
   62.5130   31.2140   49.0120 C   0  0  0  0  0  0  0  0  0  0  0  0
   63.4140   31.9200   49.8950 N   0  0  0  0  0  0  0  0  0  0  0  0
   64.5120   32.7340   49.3500 C   0  0  0  0  0  0  0  0  0  0  0  0
   65.6740   32.7930   50.3520 C   0  0  0  0  0  0  0  0  0  0  0  0
   65.2660   33.2640   51.7060 N   0  0  0  0  0  0  0  0  0  0  0  0
   65.7170   34.6510   51.9540 C   0  0  0  0  0  0  0  0  0  0  0  0
   63.8190   33.1330   51.9950 C   0  0  0  0  0  0  0  0  0  0  0  0
   63.2210   31.8800   51.3490 C   0  0  0  0  0  0  0  0  0  0  0  0
   61.6420   30.2320   49.5160 C   0  0  0  0  0  0  0  0  0  0  0  0
   60.7700   29.5480   48.6650 C   0  0  0  0  0  0  0  0  0  0  0  0
   58.6870   29.7610   45.8430 C   0  0  0  0  0  0  0  0  0  0  0  0
   59.7460   34.8220   45.6510 C   0  0  0  0  0  0  0  0  0  0  0  0
   60.5230   34.8270   46.7570 N   0  0  0  0  0  0  0  0  0  0  0  0
   59.8870   34.0660   47.6660 C   0  0  0  0  0  0  0  0  0  0  0  0
   61.5764   34.2584   50.6092 H   0  0  0  0  0  0  0  0  0  0  0  0
   62.4501   33.6492   49.1628 H   0  0  0  0  0  0  0  0  0  0  0  0
   61.7598   35.3075   49.1628 H   0  0  0  0  0  0  0  0  0  0  0  0
   59.8019   32.6183   50.7500 H   0  0  0  0  0  0  0  0  0  0  0  0
   57.6842   31.6926   49.7949 H   0  0  0  0  0  0  0  0  0  0  0  0
   56.9676   32.3041   47.4628 H   0  0  0  0  0  0  0  0  0  0  0  0
   57.3965   27.1748   44.0298 H   0  0  0  0  0  0  0  0  0  0  0  0
   60.8942   27.2288   46.4594 H   0  0  0  0  0  0  0  0  0  0  0  0
   61.6057   31.0493   45.7083 H   0  0  0  0  0  0  0  0  0  0  0  0
   63.1637   32.2603   47.2235 H   0  0  0  0  0  0  0  0  0  0  0  0
   64.8651   32.2855   48.4097 H   0  0  0  0  0  0  0  0  0  0  0  0
   64.1453   33.7543   49.1641 H   0  0  0  0  0  0  0  0  0  0  0  0
   66.1026   31.7845   50.4483 H   0  0  0  0  0  0  0  0  0  0  0  0
   66.4022   33.5193   49.9618 H   0  0  0  0  0  0  0  0  0  0  0  0
   65.7750   34.8294   53.0379 H   0  0  0  0  0  0  0  0  0  0  0  0
   66.7098   34.7997   51.5043 H   0  0  0  0  0  0  0  0  0  0  0  0
   65.0015   35.3552   51.5043 H   0  0  0  0  0  0  0  0  0  0  0  0
   63.6774   33.0741   53.0843 H   0  0  0  0  0  0  0  0  0  0  0  0
   63.3059   34.0114   51.5764 H   0  0  0  0  0  0  0  0  0  0  0  0
   63.7182   30.9878   51.7574 H   0  0  0  0  0  0  0  0  0  0  0  0
   62.1437   31.8419   51.5678 H   0  0  0  0  0  0  0  0  0  0  0  0
   61.6471   29.9998   50.5912 H   0  0  0  0  0  0  0  0  0  0  0  0
   60.0988   28.7792   49.0754 H   0  0  0  0  0  0  0  0  0  0  0  0
   58.4985   30.8181   46.0816 H   0  0  0  0  0  0  0  0  0  0  0  0
   59.9907   35.3399   44.7119 H   0  0  0  0  0  0  0  0  0  0  0  0
   61.4390   35.3130   46.8690 H   0  0  0  0  0  0  0  0  0  0  0  0
  1  2  1  0
  2  3  2  0
  3  4  1  0
  4  5  2  0
  5  6  1  0
  6  7  1  0
  7  8  1  0
  8  9  2  0
  8 10  1  0
 10 11  2  0
 10 12  1  0
 12 13  1  0
 13 14  2  0
 13 15  2  0
 13 16  1  0
 16 17  2  0
 17 18  1  0
 18 19  2  0
 19 20  1  0
 20 21  1  0
 21 22  2  0
 22 23  1  0
 23 24  2  0
 24 25  1  0
 25 26  1  0
 26 27  1  0
 27 28  1  0
 28 29  1  0
 28 30  1  0
 30 31  1  0
 24 32  1  0
 32 33  2  0
 20 34  2  0
  7 35  2  0
 35 36  1  0
 36 37  1  0
 37  2  1  0
 37  6  2  0
 34 16  1  0
 33 21  1  0
 31 25  1  0
  1 38  1  0
  1 39  1  0
  1 40  1  0
  3 41  1  0
  4 42  1  0
  5 43  1  0
 17 44  1  0
 19 45  1  0
 22 46  1  0
 23 47  1  0
 26 48  1  0
 26 49  1  0
 27 50  1  0
 27 51  1  0
 29 52  1  0
 29 53  1  0
 29 54  1  0
 30 55  1  0
 30 56  1  0
 31 57  1  0
 31 58  1  0
 32 59  1  0
 33 60  1  0
 34 61  1  0
 35 62  1  0
 36 63  1  0
M  CHG  1  12  -1
M  END
>  <UniqueID>  (17) 
16

>  <SMILES>  (17) 
Cc1cccc2c(C(=O)C(=O)[N-]S(=O)(=O)c3cncc(-c4ccc(N5CCN(C)CC5)cc4)c3)c[nH]c12

>  <Energy>  (17) 
122.66341172889209

>  <Genealogy>  (17) 
Cc1cccc2c(C(=O)C(=O)[N-]S(=O)(=O)c3cncc(-c4ccc(N5CCN(C)CC5)cc4)c3)c[nH]c12 (protonated)
Cc1cccc2c(C(=O)C(=O)[N-]S(=O)(=O)c3cncc(-c4ccc(N5CCN(C)CC5)cc4)c3)c[nH]c12 (3D coordinates assigned)
Cc1cccc2c(C(=O)C(=O)[N-]S(=O)(=O)c3cncc(-c4ccc(N5CCN(C)CC5)cc4)c3)c[nH]c12 (nonaromatic ring conformer: 122.66341172889209 kcal/mol)

>  <smiles>  (17) 
Cc1cccc2c(C(=O)C(=O)NS(=O)(=O)c3cncc(-c4ccc(N5CCN(C)CC5)cc4)c3)c[nH]c12

>  <score_type>  (17) 
oracle

>  <origin>  (17) 
adg

>  <m_score__min__energy>  (17) 
-11.619999999999999

>  <m_primary>  (17) 
energy

$$$$
17:0
     RDKit          3D

 52 55  0  0  0  0  0  0  0  0999 V2000
   57.7780   24.9240   47.5620 C   0  0  0  0  0  0  0  0  0  0  0  0
   57.9960   25.4530   46.3480 C   0  0  0  0  0  0  0  0  0  0  0  0
   57.3360   25.1070   45.1570 C   0  0  0  0  0  0  0  0  0  0  0  0
   56.5160   24.0780   44.8670 C   0  0  0  0  0  0  0  0  0  0  0  0
   55.0480   24.1040   44.9440 C   0  0  0  0  0  0  0  0  0  0  0  0
   54.2690   23.0440   44.6670 N   0  0  0  0  0  0  0  0  0  0  0  0
   53.0290   23.4760   44.9840 C   0  0  0  0  0  0  0  0  0  0  0  0
   52.0050   22.7570   44.8430 O   0  0  0  0  0  0  0  0  0  0  0  0
   52.9730   24.7330   45.4740 N   0  0  0  0  0  0  0  0  0  0  0  0
   54.2610   25.1120   45.4580 C   0  0  0  0  0  0  0  0  0  0  0  0
   54.7140   26.3420   45.9240 O   0  0  0  0  0  0  0  0  0  0  0  0
   57.7180   26.0430   44.2140 C   0  0  0  0  0  0  0  0  0  0  0  0
   58.6360   26.8730   44.8220 C   0  0  0  0  0  0  0  0  0  0  0  0
   59.3710   27.9730   44.1180 C   0  0  0  0  0  0  0  0  0  0  0  0
   58.8150   26.5180   46.1180 N   0  0  0  0  0  0  0  0  0  0  0  0
   59.7790   27.1400   47.0410 C   0  0  0  0  0  0  0  0  0  0  0  0
   59.6780   28.6430   46.9710 C   0  0  0  0  0  0  0  0  0  0  0  0
   58.4840   29.2910   47.3220 C   0  0  0  0  0  0  0  0  0  0  0  0
   58.3970   30.6850   47.2860 C   0  0  0  0  0  0  0  0  0  0  0  0
   59.5020   31.4540   46.8790 C   0  0  0  0  0  0  0  0  0  0  0  0
   59.4660   32.8880   46.8580 N   0  0  0  0  0  0  0  0  0  0  0  0
   58.4980   33.7070   46.1910 C   0  0  0  0  0  0  0  0  0  0  0  0
   58.7990   34.8600   45.7800 O   0  0  0  0  0  0  0  0  0  0  0  0
   57.1100   33.1880   45.9900 C   0  0  0  0  0  0  0  0  0  0  0  0
   57.0760   32.2660   44.8060 C   0  0  0  0  0  0  0  0  0  0  0  0
   56.2960   31.1510   44.8540 N   0  0  0  0  0  0  0  0  0  0  0  0
   56.1980   30.2950   43.8000 C   0  0  0  0  0  0  0  0  0  0  0  0
   56.9020   30.5550   42.6230 C   0  0  0  0  0  0  0  0  0  0  0  0
   57.6990   31.6970   42.5410 C   0  0  0  0  0  0  0  0  0  0  0  0
   57.7890   32.5640   43.6320 C   0  0  0  0  0  0  0  0  0  0  0  0
   58.5560   33.6790   43.5450 F   0  0  0  0  0  0  0  0  0  0  0  0
   60.6990   30.8070   46.5460 C   0  0  0  0  0  0  0  0  0  0  0  0
   60.7850   29.4130   46.5820 C   0  0  0  0  0  0  0  0  0  0  0  0
   58.3588   25.2756   48.4275 H   0  0  0  0  0  0  0  0  0  0  0  0
   57.0185   24.1389   47.6915 H   0  0  0  0  0  0  0  0  0  0  0  0
   56.9855   23.1369   44.5447 H   0  0  0  0  0  0  0  0  0  0  0  0
   54.3690   26.7230   46.7960 H   0  0  0  0  0  0  0  0  0  0  0  0
   57.3583   26.1124   43.1768 H   0  0  0  0  0  0  0  0  0  0  0  0
   59.8215   28.6472   44.8613 H   0  0  0  0  0  0  0  0  0  0  0  0
   60.1623   27.5406   43.4880 H   0  0  0  0  0  0  0  0  0  0  0  0
   58.6687   28.5386   43.4880 H   0  0  0  0  0  0  0  0  0  0  0  0
   59.5630   26.8095   48.0677 H   0  0  0  0  0  0  0  0  0  0  0  0
   60.7963   26.8366   46.7528 H   0  0  0  0  0  0  0  0  0  0  0  0
   57.6100   28.6971   47.6278 H   0  0  0  0  0  0  0  0  0  0  0  0
   57.4604   31.1831   47.5772 H   0  0  0  0  0  0  0  0  0  0  0  0
   56.7920   32.6394   46.8888 H   0  0  0  0  0  0  0  0  0  0  0  0
   56.4296   34.0335   45.8104 H   0  0  0  0  0  0  0  0  0  0  0  0
   55.5644   29.3990   43.8758 H   0  0  0  0  0  0  0  0  0  0  0  0
   56.8290   29.8661   41.7685 H   0  0  0  0  0  0  0  0  0  0  0  0
   58.2561   31.9144   41.6177 H   0  0  0  0  0  0  0  0  0  0  0  0
   61.5777   31.4008   46.2540 H   0  0  0  0  0  0  0  0  0  0  0  0
   61.7260   28.9160   46.3038 H   0  0  0  0  0  0  0  0  0  0  0  0
  1  2  2  0
  2  3  1  0
  3  4  2  3
  4  5  1  0
  5  6  1  0
  6  7  1  0
  7  8  2  0
  7  9  1  0
  9 10  1  0
 10 11  1  0
  3 12  1  0
 12 13  2  0
 13 14  1  0
 13 15  1  0
 15 16  1  0
 16 17  1  0
 17 18  2  0
 18 19  1  0
 19 20  2  0
 20 21  1  0
 21 22  1  0
 22 23  2  0
 22 24  1  0
 24 25  1  0
 25 26  2  0
 26 27  1  0
 27 28  2  0
 28 29  1  0
 29 30  2  0
 30 31  1  0
 20 32  1  0
 32 33  2  0
 15  2  1  0
 33 17  1  0
 10  5  2  0
 30 25  1  0
  1 34  1  0
  1 35  1  0
  4 36  1  0
 11 37  1  0
 12 38  1  0
 14 39  1  0
 14 40  1  0
 14 41  1  0
 16 42  1  0
 16 43  1  0
 18 44  1  0
 19 45  1  0
 24 46  1  0
 24 47  1  0
 27 48  1  0
 28 49  1  0
 29 50  1  0
 32 51  1  0
 33 52  1  0
M  CHG  3   6  -1   9  -1  21  -1
M  END
>  <UniqueID>  (18) 
17

>  <SMILES>  (18) 
C=c1c(=Cc2[n-]c(=O)[n-]c2O)cc(C)n1Cc1ccc([N-]C(=O)Cc2ncccc2F)cc1

>  <Energy>  (18) 
126.5987156192748

>  <Genealogy>  (18) 
C=c1c(=Cc2[n-]c(=O)[n-]c2O)cc(C)n1Cc1ccc([N-]C(=O)Cc2ncccc2F)cc1 (protonated)
C=c1c(=Cc2[n-]c(=O)[n-]c2O)cc(C)n1Cc1ccc([N-]C(=O)Cc2ncccc2F)cc1 (3D coordinates assigned)
C=c1c(=Cc2[n-]c(=O)[n-]c2O)cc(C)n1Cc1ccc([N-]C(=O)Cc2ncccc2F)cc1 (optimized conformer: 126.5987156192748 kcal/mol)

>  <smiles>  (18) 
C=c1c(=Cc2[nH]c(=O)[nH]c2O)cc(C)n1Cc1ccc(NC(=O)Cc2ncccc2F)cc1

>  <score_type>  (18) 
oracle

>  <origin>  (18) 
adg

>  <m_score__min__energy>  (18) 
-14.710000000000001

>  <m_primary>  (18) 
energy

$$$$
18:0
     RDKit          3D

 52 55  0  0  0  0  0  0  0  0999 V2000
   59.1260   28.6930   44.5450 C   0  0  0  0  0  0  0  0  0  0  0  0
   59.0230   28.6240   45.8850 C   0  0  0  0  0  0  0  0  0  0  0  0
   58.5400   27.5250   46.6140 C   0  0  0  0  0  0  0  0  0  0  0  0
   58.1330   26.3350   46.1140 C   0  0  0  0  0  0  0  0  0  0  0  0
   56.7620   25.7780   46.2040 C   0  0  0  0  0  0  0  0  0  0  0  0
   56.4410   24.4930   46.4460 N   0  0  0  0  0  0  0  0  0  0  0  0
   55.1010   24.4650   46.2870 C   0  0  0  0  0  0  0  0  0  0  0  0
   54.4310   23.4040   46.3820 O   0  0  0  0  0  0  0  0  0  0  0  0
   54.5450   25.6490   45.9540 N   0  0  0  0  0  0  0  0  0  0  0  0
   55.6090   26.4690   45.9090 C   0  0  0  0  0  0  0  0  0  0  0  0
   55.5290   27.8250   45.6140 O   0  0  0  0  0  0  0  0  0  0  0  0
   58.5890   27.8980   47.9500 C   0  0  0  0  0  0  0  0  0  0  0  0
   59.0970   29.1770   47.9900 C   0  0  0  0  0  0  0  0  0  0  0  0
   59.4130   29.9020   49.2650 C   0  0  0  0  0  0  0  0  0  0  0  0
   59.3820   29.6240   46.7400 N   0  0  0  0  0  0  0  0  0  0  0  0
   60.0980   30.8780   46.4250 C   0  0  0  0  0  0  0  0  0  0  0  0
   59.1390   32.0110   46.1110 C   0  0  0  0  0  0  0  0  0  0  0  0
   58.3200   31.9150   44.9680 C   0  0  0  0  0  0  0  0  0  0  0  0
   57.4280   32.9380   44.6410 C   0  0  0  0  0  0  0  0  0  0  0  0
   57.3770   34.0970   45.4130 C   0  0  0  0  0  0  0  0  0  0  0  0
   58.2180   34.2350   46.5190 C   0  0  0  0  0  0  0  0  0  0  0  0
   59.0970   33.2020   46.8840 C   0  0  0  0  0  0  0  0  0  0  0  0
   59.9530   33.4250   48.0700 C   0  0  0  0  0  0  0  0  0  0  0  0
   59.3990   33.8090   49.1400 O   0  0  0  0  0  0  0  0  0  0  0  0
   61.3840   33.1590   48.0100 N   0  0  0  0  0  0  0  0  0  0  0  0
   61.9960   33.6040   46.7360 C   0  0  0  0  0  0  0  0  0  0  0  0
   63.5370   33.5180   46.7920 C   0  0  0  0  0  0  0  0  0  0  0  0
   63.9720   32.7990   47.9280 O   0  0  0  0  0  0  0  0  0  0  0  0
   63.5980   33.4930   49.1060 C   0  0  0  0  0  0  0  0  0  0  0  0
   62.0810   33.7960   49.1480 C   0  0  0  0  0  0  0  0  0  0  0  0
   59.5191   29.6039   44.0698 H   0  0  0  0  0  0  0  0  0  0  0  0
   58.8171   27.8385   43.9249 H   0  0  0  0  0  0  0  0  0  0  0  0
   58.8874   25.7263   45.5940 H   0  0  0  0  0  0  0  0  0  0  0  0
   58.2808   27.2883   48.8121 H   0  0  0  0  0  0  0  0  0  0  0  0
   59.1381   29.2713   50.1233 H   0  0  0  0  0  0  0  0  0  0  0  0
   60.4896   30.1243   49.3033 H   0  0  0  0  0  0  0  0  0  0  0  0
   58.8430   30.8420   49.3033 H   0  0  0  0  0  0  0  0  0  0  0  0
   60.7146   31.1629   47.2903 H   0  0  0  0  0  0  0  0  0  0  0  0
   60.7215   30.7016   45.5361 H   0  0  0  0  0  0  0  0  0  0  0  0
   58.3843   31.0239   44.3263 H   0  0  0  0  0  0  0  0  0  0  0  0
   56.7634   32.8288   43.7713 H   0  0  0  0  0  0  0  0  0  0  0  0
   56.6749   34.9024   45.1513 H   0  0  0  0  0  0  0  0  0  0  0  0
   58.1919   35.1621   47.1105 H   0  0  0  0  0  0  0  0  0  0  0  0
   61.5150   32.1250   48.0840 H   0  0  0  0  0  0  0  0  0  0  0  0
   61.6310   32.9627   45.9202 H   0  0  0  0  0  0  0  0  0  0  0  0
   61.7134   34.6530   46.5635 H   0  0  0  0  0  0  0  0  0  0  0  0
   63.9003   33.0103   45.8863 H   0  0  0  0  0  0  0  0  0  0  0  0
   63.9389   34.5401   46.8542 H   0  0  0  0  0  0  0  0  0  0  0  0
   63.8607   32.8771   49.9787 H   0  0  0  0  0  0  0  0  0  0  0  0
   64.1350   34.4529   49.1178 H   0  0  0  0  0  0  0  0  0  0  0  0
   61.6624   33.4093   50.0888 H   0  0  0  0  0  0  0  0  0  0  0  0
   61.9381   34.8847   49.0828 H   0  0  0  0  0  0  0  0  0  0  0  0
  1  2  2  0
  2  3  1  0
  3  4  2  3
  4  5  1  0
  5  6  1  0
  6  7  1  0
  7  8  2  0
  7  9  1  0
  9 10  1  0
 10 11  1  0
  3 12  1  0
 12 13  2  0
 13 14  1  0
 13 15  1  0
 15 16  1  0
 16 17  1  0
 17 18  2  0
 18 19  1  0
 19 20  2  0
 20 21  1  0
 21 22  2  0
 22 23  1  0
 23 24  2  0
 23 25  1  0
 25 26  1  0
 26 27  1  0
 27 28  1  0
 28 29  1  0
 29 30  1  0
 15  2  1  0
 22 17  1  0
 30 25  1  0
 10  5  2  0
  1 31  1  0
  1 32  1  0
  4 33  1  0
 12 34  1  0
 14 35  1  0
 14 36  1  0
 14 37  1  0
 16 38  1  0
 16 39  1  0
 18 40  1  0
 19 41  1  0
 20 42  1  0
 21 43  1  0
 25 44  1  0
 26 45  1  0
 26 46  1  0
 27 47  1  0
 27 48  1  0
 29 49  1  0
 29 50  1  0
 30 51  1  0
 30 52  1  0
M  CHG  4   6  -1   9  -1  11  -1  25   1
M  END
>  <UniqueID>  (19) 
18

>  <SMILES>  (19) 
C=c1c(=Cc2[n-]c(=O)[n-]c2[O-])cc(C)n1Cc1ccccc1C(=O)[NH+]1CCOCC1

>  <Energy>  (19) 
141.03089260799956

>  <Genealogy>  (19) 
C=c1c(=Cc2[n-]c(=O)[n-]c2[O-])cc(C)n1Cc1ccccc1C(=O)[NH+]1CCOCC1 (protonated)
C=c1c(=Cc2[n-]c(=O)[n-]c2[O-])cc(C)n1Cc1ccccc1C(=O)[NH+]1CCOCC1 (3D coordinates assigned)
C=c1c(=Cc2[n-]c(=O)[n-]c2[O-])cc(C)n1Cc1ccccc1C(=O)[NH+]1CCOCC1 (nonaromatic ring conformer: 141.03089260799956 kcal/mol)

>  <smiles>  (19) 
C=c1c(=Cc2[nH]c(=O)[nH]c2O)cc(C)n1Cc1ccccc1C(=O)N1CCOCC1

>  <score_type>  (19) 
oracle

>  <origin>  (19) 
adg

>  <m_score__min__energy>  (19) 
-14.93

>  <m_primary>  (19) 
energy

$$$$
19:0
     RDKit          3D

 46 48  0  0  0  0  0  0  0  0999 V2000
   59.7640   26.0360   46.3870 C   0  0  0  0  0  0  0  0  0  0  0  0
   58.3380   26.0410   46.8480 C   0  0  0  0  0  0  0  0  0  0  0  0
   58.0340   26.7700   47.8290 O   0  0  0  0  0  0  0  0  0  0  0  0
   57.3040   25.1760   46.2050 C   0  0  0  0  0  0  0  0  0  0  0  0
   57.5680   23.8060   45.9960 C   0  0  0  0  0  0  0  0  0  0  0  0
   56.6140   22.9730   45.4110 C   0  0  0  0  0  0  0  0  0  0  0  0
   55.3750   23.4860   45.0350 C   0  0  0  0  0  0  0  0  0  0  0  0
   55.0920   24.8380   45.2290 C   0  0  0  0  0  0  0  0  0  0  0  0
   56.0530   25.6990   45.7860 C   0  0  0  0  0  0  0  0  0  0  0  0
   55.7430   27.0870   45.9830 N   0  0  0  0  0  0  0  0  0  0  0  0
   56.2680   28.1990   45.2430 C   0  0  0  0  0  0  0  0  0  0  0  0
   55.5100   29.1730   45.0010 O   0  0  0  0  0  0  0  0  0  0  0  0
   57.7160   28.2830   44.8490 C   0  0  0  0  0  0  0  0  0  0  0  0
   58.6920   29.1990   46.0950 S   0  0  0  0  0  0  0  0  0  0  0  0
   58.4900   30.8010   45.3210 C   0  0  0  0  0  0  0  0  0  0  0  0
   58.8050   31.9310   46.0050 N   0  0  0  0  0  0  0  0  0  0  0  0
   58.6610   33.1590   45.4410 C   0  0  0  0  0  0  0  0  0  0  0  0
   58.9880   34.3850   46.2400 C   0  0  0  0  0  0  0  0  0  0  0  0
   60.2310   34.1540   47.0560 C   0  0  0  0  0  0  0  0  0  0  0  0
   60.2150   34.3670   48.4440 C   0  0  0  0  0  0  0  0  0  0  0  0
   61.3780   34.1870   49.1970 C   0  0  0  0  0  0  0  0  0  0  0  0
   62.5670   33.8020   48.5710 C   0  0  0  0  0  0  0  0  0  0  0  0
   62.5980   33.5990   47.1870 C   0  0  0  0  0  0  0  0  0  0  0  0
   63.7900   33.2210   46.5740 O   0  0  0  0  0  0  0  0  0  0  0  0
   61.4310   33.7800   46.4300 C   0  0  0  0  0  0  0  0  0  0  0  0
   58.1530   33.2650   44.1410 C   0  0  0  0  0  0  0  0  0  0  0  0
   57.8270   32.0930   43.4550 C   0  0  0  0  0  0  0  0  0  0  0  0
   57.3690   32.1500   42.2840 O   0  0  0  0  0  0  0  0  0  0  0  0
   57.9990   30.8870   44.0570 N   0  0  0  0  0  0  0  0  0  0  0  0
   60.4319   26.0337   47.2610 H   0  0  0  0  0  0  0  0  0  0  0  0
   59.9502   25.1372   45.7808 H   0  0  0  0  0  0  0  0  0  0  0  0
   59.9565   26.9335   45.7808 H   0  0  0  0  0  0  0  0  0  0  0  0
   58.5398   23.3887   46.2986 H   0  0  0  0  0  0  0  0  0  0  0  0
   56.8407   21.9093   45.2464 H   0  0  0  0  0  0  0  0  0  0  0  0
   54.6196   22.8250   44.5850 H   0  0  0  0  0  0  0  0  0  0  0  0
   54.1065   25.2344   44.9431 H   0  0  0  0  0  0  0  0  0  0  0  0
   58.1212   27.2647   44.7544 H   0  0  0  0  0  0  0  0  0  0  0  0
   57.7845   28.8198   43.8913 H   0  0  0  0  0  0  0  0  0  0  0  0
   59.1533   35.2311   45.5568 H   0  0  0  0  0  0  0  0  0  0  0  0
   58.1497   34.6082   46.9163 H   0  0  0  0  0  0  0  0  0  0  0  0
   59.2834   34.6767   48.9402 H   0  0  0  0  0  0  0  0  0  0  0  0
   61.3579   34.3486   50.2849 H   0  0  0  0  0  0  0  0  0  0  0  0
   63.4800   33.6584   49.1675 H   0  0  0  0  0  0  0  0  0  0  0  0
   64.4910   32.6780   47.0650 H   0  0  0  0  0  0  0  0  0  0  0  0
   61.4560   33.6282   45.3408 H   0  0  0  0  0  0  0  0  0  0  0  0
   58.0137   34.2494   43.6702 H   0  0  0  0  0  0  0  0  0  0  0  0
  1  2  1  0
  2  3  2  0
  2  4  1  0
  4  5  2  0
  5  6  1  0
  6  7  2  0
  7  8  1  0
  8  9  2  0
  9 10  1  0
 10 11  1  0
 11 12  2  0
 11 13  1  0
 13 14  1  0
 14 15  1  0
 15 16  2  0
 16 17  1  0
 17 18  1  0
 18 19  1  0
 19 20  2  0
 20 21  1  0
 21 22  2  0
 22 23  1  0
 23 24  1  0
 23 25  2  0
 17 26  2  0
 26 27  1  0
 27 28  2  0
 27 29  1  0
  9  4  1  0
 29 15  1  0
 25 19  1  0
  1 30  1  0
  1 31  1  0
  1 32  1  0
  5 33  1  0
  6 34  1  0
  7 35  1  0
  8 36  1  0
 13 37  1  0
 13 38  1  0
 18 39  1  0
 18 40  1  0
 20 41  1  0
 21 42  1  0
 22 43  1  0
 24 44  1  0
 25 45  1  0
 26 46  1  0
M  CHG  2  10  -1  29  -1
M  END
>  <UniqueID>  (20) 
19

>  <SMILES>  (20) 
CC(=O)c1ccccc1[N-]C(=O)CSc1nc(Cc2cccc(O)c2)cc(=O)[n-]1

>  <Energy>  (20) 
51.70686234663718

>  <Genealogy>  (20) 
CC(=O)c1ccccc1[N-]C(=O)CSc1nc(Cc2cccc(O)c2)cc(=O)[n-]1 (protonated)
CC(=O)c1ccccc1[N-]C(=O)CSc1nc(Cc2cccc(O)c2)cc(=O)[n-]1 (3D coordinates assigned)
CC(=O)c1ccccc1[N-]C(=O)CSc1nc(Cc2cccc(O)c2)cc(=O)[n-]1 (optimized conformer: 51.70686234663718 kcal/mol)

>  <smiles>  (20) 
CC(=O)c1ccccc1NC(=O)CSc1nc(Cc2cccc(O)c2)cc(=O)[nH]1

>  <score_type>  (20) 
oracle

>  <origin>  (20) 
adg

>  <m_score__min__energy>  (20) 
-11.51

>  <m_primary>  (20) 
energy

$$$$
20:0
     RDKit          3D

 59 63  0  0  1  0  0  0  0  0999 V2000
   65.9950   27.2120   51.8040 C   0  0  0  0  0  0  0  0  0  0  0  0
   65.5070   28.3990   52.3600 O   0  0  0  0  0  0  0  0  0  0  0  0
   65.1770   29.5390   51.6500 C   0  0  0  0  0  0  0  0  0  0  0  0
   63.8300   29.7240   51.3790 C   0  0  0  0  0  0  0  0  0  0  0  0
   63.4790   30.8730   50.6600 C   0  0  0  0  0  0  0  0  0  0  0  0
   64.4310   31.7800   50.2390 C   0  0  0  0  0  0  0  0  0  0  0  0
   63.9660   32.8900   49.4890 N   0  0  0  0  0  0  0  0  0  0  0  0
   63.4480   34.0750   50.1500 C   0  0  0  0  0  0  0  0  0  0  0  0
   62.3230   34.7110   49.3510 C   0  0  0  0  0  0  0  0  0  0  0  0
   61.8400   33.7940   48.3290 N   0  0  0  0  0  0  0  0  0  0  0  0
   60.2920   34.1220   47.7390 S   0  0  0  0  0  0  0  0  0  0  0  0
   59.5170   34.8140   48.8680 O   0  0  0  0  0  0  0  0  0  0  0  0
   60.3570   35.1410   46.6010 O   0  0  0  0  0  0  0  0  0  0  0  0
   59.3950   32.7570   47.1530 C   0  0  0  0  0  0  0  0  0  0  0  0
   58.9180   32.8300   45.8420 C   0  0  0  0  0  0  0  0  0  0  0  0
   58.2140   31.7990   45.2570 C   0  0  0  0  0  0  0  0  0  0  0  0
   57.9550   30.6350   45.9770 C   0  0  0  0  0  0  0  0  0  0  0  0
   57.2150   29.5250   45.3420 C   0  0  0  0  0  0  0  0  0  0  0  0
   56.1260   29.6860   44.7720 O   0  0  0  0  0  0  0  0  0  0  0  0
   57.8210   28.2280   45.4160 N   0  0  0  0  0  0  0  0  0  0  0  0
   57.1280   27.2340   45.6950 C   0  0  0  0  0  0  0  0  0  0  0  0
   55.8430   26.9240   45.6260 N   0  0  0  0  0  0  0  0  0  0  0  0
   55.4560   25.7790   46.0040 N   0  0  0  0  0  0  0  0  0  0  0  0
   56.1560   24.8510   46.4570 C   0  0  0  0  0  0  0  0  0  0  0  0
   56.0300   23.4590   46.9460 C   0  0  0  0  0  0  0  0  0  0  0  0
   54.7910   22.7680   46.4530 C   0  0  0  0  0  0  0  0  0  0  0  0
   56.1410   22.2940   46.0250 C   0  0  0  0  0  0  0  0  0  0  0  0
   57.8680   25.6680   46.3970 S   0  0  0  0  0  0  0  0  0  0  0  0
   58.4250   30.5660   47.2650 C   0  0  0  0  0  0  0  0  0  0  0  0
   59.1410   31.6100   47.8640 C   0  0  0  0  0  0  0  0  0  0  0  0
   62.8560   33.5010   47.3700 C   0  0  0  0  0  0  0  0  0  0  0  0
   64.0470   32.8170   48.0250 C   0  0  0  0  0  0  0  0  0  0  0  0
   65.7730   31.5970   50.5110 C   0  0  0  0  0  0  0  0  0  0  0  0
   66.1090   30.4570   51.2240 C   0  0  0  0  0  0  0  0  0  0  0  0
   66.2797   26.5195   52.6099 H   0  0  0  0  0  0  0  0  0  0  0  0
   65.2139   26.7500   51.1824 H   0  0  0  0  0  0  0  0  0  0  0  0
   66.8752   27.4330   51.1824 H   0  0  0  0  0  0  0  0  0  0  0  0
   63.0715   29.0010   51.7136 H   0  0  0  0  0  0  0  0  0  0  0  0
   62.4203   31.0573   50.4251 H   0  0  0  0  0  0  0  0  0  0  0  0
   63.0665   33.7928   51.1424 H   0  0  0  0  0  0  0  0  0  0  0  0
   64.2651   34.8062   50.2381 H   0  0  0  0  0  0  0  0  0  0  0  0
   61.4955   34.9643   50.0300 H   0  0  0  0  0  0  0  0  0  0  0  0
   62.7045   35.6192   48.8615 H   0  0  0  0  0  0  0  0  0  0  0  0
   59.1107   33.7411   45.2565 H   0  0  0  0  0  0  0  0  0  0  0  0
   57.8567   31.8956   44.2212 H   0  0  0  0  0  0  0  0  0  0  0  0
   55.1460   27.6670   45.2460 H   0  0  0  0  0  0  0  0  0  0  0  0
   56.5274   23.6850   47.9007 H   0  0  0  0  0  0  0  0  0  0  0  0
   54.1871   22.1608   47.1433 H   0  0  0  0  0  0  0  0  0  0  0  0
   53.8750   23.0858   45.9335 H   0  0  0  0  0  0  0  0  0  0  0  0
   56.5294   21.3348   46.3979 H   0  0  0  0  0  0  0  0  0  0  0  0
   56.6286   22.1165   45.0551 H   0  0  0  0  0  0  0  0  0  0  0  0
   58.2316   29.6546   47.8497 H   0  0  0  0  0  0  0  0  0  0  0  0
   59.4984   31.5116   48.8997 H   0  0  0  0  0  0  0  0  0  0  0  0
   62.4403   32.8369   46.5978 H   0  0  0  0  0  0  0  0  0  0  0  0
   63.1981   34.4464   46.9237 H   0  0  0  0  0  0  0  0  0  0  0  0
   64.0659   31.7604   47.7195 H   0  0  0  0  0  0  0  0  0  0  0  0
   64.9637   33.3322   47.7021 H   0  0  0  0  0  0  0  0  0  0  0  0
   66.5347   32.3180   50.1792 H   0  0  0  0  0  0  0  0  0  0  0  0
   67.1684   30.2781   51.4599 H   0  0  0  0  0  0  0  0  0  0  0  0
  1  2  1  0
  2  3  1  0
  3  4  2  0
  4  5  1  0
  5  6  2  0
  6  7  1  0
  7  8  1  0
  8  9  1  0
  9 10  1  0
 10 11  1  0
 11 12  2  0
 11 13  2  0
 11 14  1  0
 14 15  2  0
 15 16  1  0
 16 17  2  0
 17 18  1  0
 18 19  2  0
 18 20  1  0
 20 21  2  0
 21 22  1  0
 22 23  1  0
 23 24  2  0
 24 25  1  0
 25 26  1  0
 26 27  1  0
 24 28  1  0
 17 29  1  0
 29 30  2  0
 10 31  1  0
 31 32  1  0
  6 33  1  0
 33 34  2  0
 34  3  1  0
 32  7  1  0
 30 14  1  0
 28 21  1  0
 27 25  1  0
  1 35  1  0
  1 36  1  0
  1 37  1  0
  4 38  1  0
  5 39  1  0
  8 40  1  0
  8 41  1  0
  9 42  1  0
  9 43  1  0
 15 44  1  0
 16 45  1  0
 22 46  1  0
 25 47  1  0
 26 48  1  0
 26 49  1  0
 27 50  1  0
 27 51  1  0
 29 52  1  0
 30 53  1  0
 31 54  1  0
 31 55  1  0
 32 56  1  0
 32 57  1  0
 33 58  1  0
 34 59  1  0
M  END
>  <smiles>  (21) 
COc1ccc(N2CCN(S(=O)(=O)c3ccc(C(=O)N=c4[nH]nc(C5CC5)s4)cc3)CC2)cc1

>  <score_type>  (21) 
oracle

>  <origin>  (21) 
adg

>  <m_score__min__energy>  (21) 
-10.06

>  <m_primary>  (21) 
energy

$$$$
21:0
     RDKit          3D

 42 44  0  0  0  0  0  0  0  0999 V2000
   60.3720   29.3230   46.1700 C   0  0  0  0  0  0  0  0  0  0  0  0
   59.9270   30.1630   47.7240 S   0  0  0  0  0  0  0  0  0  0  0  0
   60.9270   31.6180   47.3780 C   0  0  0  0  0  0  0  0  0  0  0  0
   62.3200   31.5080   47.4940 C   0  0  0  0  0  0  0  0  0  0  0  0
   63.1420   32.6040   47.2300 C   0  0  0  0  0  0  0  0  0  0  0  0
   62.5800   33.8240   46.8600 C   0  0  0  0  0  0  0  0  0  0  0  0
   61.1930   33.9550   46.7580 C   0  0  0  0  0  0  0  0  0  0  0  0
   60.3480   32.8610   47.0190 C   0  0  0  0  0  0  0  0  0  0  0  0
   58.8490   33.0540   46.9360 C   0  0  0  0  0  0  0  0  0  0  0  0
   58.3080   32.4950   45.6910 N   0  0  0  0  0  0  0  0  0  0  0  0
   57.8250   31.2490   45.7160 N   0  0  0  0  0  0  0  0  0  0  0  0
   57.3180   30.6380   44.6120 C   0  0  0  0  0  0  0  0  0  0  0  0
   56.8280   29.2460   44.7050 C   0  0  0  0  0  0  0  0  0  0  0  0
   55.5930   29.0270   44.8480 O   0  0  0  0  0  0  0  0  0  0  0  0
   57.7460   28.1450   44.5890 N   0  0  0  0  0  0  0  0  0  0  0  0
   57.4070   26.7800   44.8880 C   0  0  0  0  0  0  0  0  0  0  0  0
   56.6890   26.4910   46.0590 C   0  0  0  0  0  0  0  0  0  0  0  0
   56.3290   25.1750   46.3620 C   0  0  0  0  0  0  0  0  0  0  0  0
   56.6690   24.1380   45.4890 C   0  0  0  0  0  0  0  0  0  0  0  0
   57.3630   24.4180   44.3090 C   0  0  0  0  0  0  0  0  0  0  0  0
   57.7260   25.7330   44.0040 C   0  0  0  0  0  0  0  0  0  0  0  0
   57.2860   31.3440   43.4050 C   0  0  0  0  0  0  0  0  0  0  0  0
   57.7720   32.6460   43.3670 C   0  0  0  0  0  0  0  0  0  0  0  0
   58.2870   33.2200   44.5300 C   0  0  0  0  0  0  0  0  0  0  0  0
   58.7190   34.4050   44.4950 O   0  0  0  0  0  0  0  0  0  0  0  0
   60.8757   28.3722   46.3984 H   0  0  0  0  0  0  0  0  0  0  0  0
   59.4608   29.1244   45.5866 H   0  0  0  0  0  0  0  0  0  0  0  0
   61.0481   29.9653   45.5866 H   0  0  0  0  0  0  0  0  0  0  0  0
   62.7684   30.5499   47.7956 H   0  0  0  0  0  0  0  0  0  0  0  0
   64.2343   32.5048   47.3140 H   0  0  0  0  0  0  0  0  0  0  0  0
   63.2298   34.6858   46.6478 H   0  0  0  0  0  0  0  0  0  0  0  0
   60.7572   34.9233   46.4707 H   0  0  0  0  0  0  0  0  0  0  0  0
   58.3748   32.5500   47.7910 H   0  0  0  0  0  0  0  0  0  0  0  0
   58.6361   34.1330   46.9538 H   0  0  0  0  0  0  0  0  0  0  0  0
   58.6840   28.3290   44.1660 H   0  0  0  0  0  0  0  0  0  0  0  0
   56.4078   27.3056   46.7426 H   0  0  0  0  0  0  0  0  0  0  0  0
   55.7777   24.9553   47.2882 H   0  0  0  0  0  0  0  0  0  0  0  0
   56.3904   23.1017   45.7307 H   0  0  0  0  0  0  0  0  0  0  0  0
   57.6241   23.6022   43.6189 H   0  0  0  0  0  0  0  0  0  0  0  0
   58.2633   25.9501   43.0690 H   0  0  0  0  0  0  0  0  0  0  0  0
   56.8810   30.8745   42.4964 H   0  0  0  0  0  0  0  0  0  0  0  0
   57.7507   33.2188   42.4282 H   0  0  0  0  0  0  0  0  0  0  0  0
  1  2  1  0
  2  3  1  0
  3  4  2  0
  4  5  1  0
  5  6  2  0
  6  7  1  0
  7  8  2  0
  8  9  1  0
  9 10  1  0
 10 11  1  0
 11 12  2  0
 12 13  1  0
 13 14  2  0
 13 15  1  0
 15 16  1  0
 16 17  2  0
 17 18  1  0
 18 19  2  0
 19 20  1  0
 20 21  2  0
 12 22  1  0
 22 23  2  0
 23 24  1  0
 24 25  2  0
  8  3  1  0
 24 10  1  0
 21 16  1  0
  1 26  1  0
  1 27  1  0
  1 28  1  0
  4 29  1  0
  5 30  1  0
  6 31  1  0
  7 32  1  0
  9 33  1  0
  9 34  1  0
 15 35  1  0
 17 36  1  0
 18 37  1  0
 19 38  1  0
 20 39  1  0
 21 40  1  0
 22 41  1  0
 23 42  1  0
M  END
>  <UniqueID>  (22) 
20

>  <SMILES>  (22) 
CSc1ccccc1Cn1nc(C(=O)Nc2ccccc2)ccc1=O

>  <Energy>  (22) 
45.22357872261988

>  <Genealogy>  (22) 
CSc1ccccc1Cn1nc(C(=O)Nc2ccccc2)ccc1=O (3D coordinates assigned)
CSc1ccccc1Cn1nc(C(=O)Nc2ccccc2)ccc1=O (optimized conformer: 45.22357872261988 kcal/mol)

>  <smiles>  (22) 
CSc1ccccc1Cn1nc(C(=O)Nc2ccccc2)ccc1=O

>  <score_type>  (22) 
oracle

>  <origin>  (22) 
adg

>  <m_score__min__energy>  (22) 
-8.25

>  <m_primary>  (22) 
energy

$$$$
22:0
     RDKit          3D

 39 41  0  0  0  0  0  0  0  0999 V2000
   60.1660   31.7640   51.7100 N   0  0  0  0  0  0  0  0  0  0  0  0
   61.5490   31.3620   50.7530 S   0  0  0  0  0  0  0  0  0  0  0  0
   62.3130   30.2520   51.4210 O   0  0  0  0  0  0  0  0  0  0  0  0
   62.4260   32.5780   50.6380 O   0  0  0  0  0  0  0  0  0  0  0  0
   61.0440   30.8420   49.1490 C   0  0  0  0  0  0  0  0  0  0  0  0
   61.7780   31.2350   48.0220 C   0  0  0  0  0  0  0  0  0  0  0  0
   61.3900   30.8160   46.7450 C   0  0  0  0  0  0  0  0  0  0  0  0
   60.2690   29.9870   46.5840 C   0  0  0  0  0  0  0  0  0  0  0  0
   59.8260   29.5590   45.2110 C   0  0  0  0  0  0  0  0  0  0  0  0
   58.3670   29.8500   45.0210 C   0  0  0  0  0  0  0  0  0  0  0  0
   57.4210   28.8930   45.0250 N   0  0  0  0  0  0  0  0  0  0  0  0
   56.2740   29.5850   44.8710 C   0  0  0  0  0  0  0  0  0  0  0  0
   55.1460   29.0290   44.8190 O   0  0  0  0  0  0  0  0  0  0  0  0
   56.4310   30.9210   44.7770 N   0  0  0  0  0  0  0  0  0  0  0  0
   57.7620   31.0880   44.8880 C   0  0  0  0  0  0  0  0  0  0  0  0
   58.4310   32.4280   44.7870 C   0  0  0  0  0  0  0  0  0  0  0  0
   58.8420   32.9150   46.1510 C   0  0  0  0  0  0  0  0  0  0  0  0
   58.1300   32.5210   47.2960 C   0  0  0  0  0  0  0  0  0  0  0  0
   58.5330   32.9580   48.5620 C   0  0  0  0  0  0  0  0  0  0  0  0
   59.6520   33.7920   48.6970 C   0  0  0  0  0  0  0  0  0  0  0  0
   60.0610   34.2340   49.9520 O   0  0  0  0  0  0  0  0  0  0  0  0
   60.3650   34.1850   47.5590 C   0  0  0  0  0  0  0  0  0  0  0  0
   59.9640   33.7500   46.2930 C   0  0  0  0  0  0  0  0  0  0  0  0
   59.5360   29.5950   47.7150 C   0  0  0  0  0  0  0  0  0  0  0  0
   59.9250   30.0150   48.9900 C   0  0  0  0  0  0  0  0  0  0  0  0
   59.6420   32.5060   51.1940 H   0  0  0  0  0  0  0  0  0  0  0  0
   62.6637   31.8762   48.1420 H   0  0  0  0  0  0  0  0  0  0  0  0
   61.9653   31.1373   45.8642 H   0  0  0  0  0  0  0  0  0  0  0  0
   60.4070   30.1073   44.4548 H   0  0  0  0  0  0  0  0  0  0  0  0
   59.9924   28.4771   45.1022 H   0  0  0  0  0  0  0  0  0  0  0  0
   59.3233   32.3403   44.1497 H   0  0  0  0  0  0  0  0  0  0  0  0
   57.7230   33.1476   44.3502 H   0  0  0  0  0  0  0  0  0  0  0  0
   57.2519   31.8661   47.1965 H   0  0  0  0  0  0  0  0  0  0  0  0
   57.9704   32.6465   49.4544 H   0  0  0  0  0  0  0  0  0  0  0  0
   60.5130   33.6110   50.6120 H   0  0  0  0  0  0  0  0  0  0  0  0
   61.2440   34.8384   47.6612 H   0  0  0  0  0  0  0  0  0  0  0  0
   60.5294   34.0626   45.4027 H   0  0  0  0  0  0  0  0  0  0  0  0
   58.6502   28.9535   47.5972 H   0  0  0  0  0  0  0  0  0  0  0  0
   59.3503   29.6949   49.8716 H   0  0  0  0  0  0  0  0  0  0  0  0
  1  2  1  0
  2  3  2  0
  2  4  2  0
  2  5  1  0
  5  6  2  0
  6  7  1  0
  7  8  2  0
  8  9  1  0
  9 10  1  0
 10 11  1  0
 11 12  1  0
 12 13  2  0
 12 14  1  0
 14 15  1  0
 15 16  1  0
 16 17  1  0
 17 18  2  0
 18 19  1  0
 19 20  2  0
 20 21  1  0
 20 22  1  0
 22 23  2  0
  8 24  1  0
 24 25  2  0
 25  5  1  0
 15 10  2  0
 23 17  1  0
  1 26  1  0
  6 27  1  0
  7 28  1  0
  9 29  1  0
  9 30  1  0
 16 31  1  0
 16 32  1  0
 18 33  1  0
 19 34  1  0
 21 35  1  0
 22 36  1  0
 23 37  1  0
 24 38  1  0
 25 39  1  0
M  CHG  3   1  -1  11  -1  14  -1
M  END
>  <UniqueID>  (23) 
21

>  <SMILES>  (23) 
[NH-]S(=O)(=O)c1ccc(Cc2[n-]c(=O)[n-]c2Cc2ccc(O)cc2)cc1

>  <Energy>  (23) 
65.80464407675255

>  <Genealogy>  (23) 
[NH-]S(=O)(=O)c1ccc(Cc2[n-]c(=O)[n-]c2Cc2ccc(O)cc2)cc1 (protonated)
[NH-]S(=O)(=O)c1ccc(Cc2[n-]c(=O)[n-]c2Cc2ccc(O)cc2)cc1 (3D coordinates assigned)
[NH-]S(=O)(=O)c1ccc(Cc2[n-]c(=O)[n-]c2Cc2ccc(O)cc2)cc1 (optimized conformer: 65.80464407675255 kcal/mol)

>  <smiles>  (23) 
NS(=O)(=O)c1ccc(Cc2[nH]c(=O)[nH]c2Cc2ccc(O)cc2)cc1

>  <score_type>  (23) 
oracle

>  <origin>  (23) 
adg

>  <m_score__min__energy>  (23) 
-12.58

>  <m_primary>  (23) 
energy

$$$$
23:0
     RDKit          3D

 54 57  0  0  0  0  0  0  0  0999 V2000
   55.4050   26.4710   46.2440 N   0  0  0  0  0  0  0  0  0  0  0  0
   56.7380   26.0030   46.0430 C   0  0  0  0  0  0  0  0  0  0  0  0
   56.9170   24.8620   45.5360 O   0  0  0  0  0  0  0  0  0  0  0  0
   57.8970   26.8410   46.4250 C   0  0  0  0  0  0  0  0  0  0  0  0
   59.1460   26.6520   45.8080 C   0  0  0  0  0  0  0  0  0  0  0  0
   60.2450   27.4290   46.1790 C   0  0  0  0  0  0  0  0  0  0  0  0
   60.1120   28.4060   47.1680 C   0  0  0  0  0  0  0  0  0  0  0  0
   58.8750   28.6130   47.7960 C   0  0  0  0  0  0  0  0  0  0  0  0
   58.7290   29.6890   48.8430 C   0  0  0  0  0  0  0  0  0  0  0  0
   59.6350   30.8210   48.5510 N   0  0  0  0  0  0  0  0  0  0  0  0
   60.9790   30.7060   48.7830 C   0  0  0  0  0  0  0  0  0  0  0  0
   61.4450   29.6540   49.3090 O   0  0  0  0  0  0  0  0  0  0  0  0
   61.8490   31.7440   48.4300 C   0  0  0  0  0  0  0  0  0  0  0  0
   63.2410   31.6250   48.6250 C   0  0  0  0  0  0  0  0  0  0  0  0
   64.1000   32.6470   48.2300 C   0  0  0  0  0  0  0  0  0  0  0  0
   63.5880   33.7920   47.6280 C   0  0  0  0  0  0  0  0  0  0  0  0
   62.2130   33.9310   47.4320 C   0  0  0  0  0  0  0  0  0  0  0  0
   61.3110   32.9180   47.8510 C   0  0  0  0  0  0  0  0  0  0  0  0
   59.9450   33.0370   47.6980 N   0  0  0  0  0  0  0  0  0  0  0  0
   59.3200   34.2780   47.1830 C   0  0  0  0  0  0  0  0  0  0  0  0
   58.9480   34.1370   45.7330 C   0  0  0  0  0  0  0  0  0  0  0  0
   59.4290   34.9300   44.8790 O   0  0  0  0  0  0  0  0  0  0  0  0
   58.0080   33.1300   45.3340 N   0  0  0  0  0  0  0  0  0  0  0  0
   57.7140   32.8440   43.9320 C   0  0  0  0  0  0  0  0  0  0  0  0
   57.6030   31.3590   43.7210 C   0  0  0  0  0  0  0  0  0  0  0  0
   56.6110   30.8440   42.8680 C   0  0  0  0  0  0  0  0  0  0  0  0
   56.4940   29.4630   42.6810 C   0  0  0  0  0  0  0  0  0  0  0  0
   57.3580   28.5900   43.3460 C   0  0  0  0  0  0  0  0  0  0  0  0
   58.3300   29.0930   44.2130 C   0  0  0  0  0  0  0  0  0  0  0  0
   58.4530   30.4740   44.4030 C   0  0  0  0  0  0  0  0  0  0  0  0
   59.1280   31.9720   48.0030 C   0  0  0  0  0  0  0  0  0  0  0  0
   57.8850   32.0530   47.7740 O   0  0  0  0  0  0  0  0  0  0  0  0
   57.7690   27.8320   47.4180 C   0  0  0  0  0  0  0  0  0  0  0  0
   55.1480   27.4620   46.0390 H   0  0  0  0  0  0  0  0  0  0  0  0
   59.2583   25.8858   45.0267 H   0  0  0  0  0  0  0  0  0  0  0  0
   61.2182   27.2712   45.6911 H   0  0  0  0  0  0  0  0  0  0  0  0
   60.9811   29.0158   47.4557 H   0  0  0  0  0  0  0  0  0  0  0  0
   57.6897   30.0493   48.8495 H   0  0  0  0  0  0  0  0  0  0  0  0
   58.9901   29.2680   49.8251 H   0  0  0  0  0  0  0  0  0  0  0  0
   63.6510   30.7177   49.0928 H   0  0  0  0  0  0  0  0  0  0  0  0
   65.1833   32.5492   48.3939 H   0  0  0  0  0  0  0  0  0  0  0  0
   64.2703   34.5920   47.3048 H   0  0  0  0  0  0  0  0  0  0  0  0
   61.8231   34.8377   46.9463 H   0  0  0  0  0  0  0  0  0  0  0  0
   58.4129   34.4922   47.7671 H   0  0  0  0  0  0  0  0  0  0  0  0
   60.0453   35.0994   47.2787 H   0  0  0  0  0  0  0  0  0  0  0  0
   57.5390   32.5510   46.0670 H   0  0  0  0  0  0  0  0  0  0  0  0
   56.7636   33.3232   43.6542 H   0  0  0  0  0  0  0  0  0  0  0  0
   58.5280   33.2374   43.3054 H   0  0  0  0  0  0  0  0  0  0  0  0
   55.9257   31.5286   42.3468 H   0  0  0  0  0  0  0  0  0  0  0  0
   55.7201   29.0636   42.0090 H   0  0  0  0  0  0  0  0  0  0  0  0
   57.2726   27.5050   43.1865 H   0  0  0  0  0  0  0  0  0  0  0  0
   58.9998   28.4031   44.7472 H   0  0  0  0  0  0  0  0  0  0  0  0
   59.2179   30.8672   45.0887 H   0  0  0  0  0  0  0  0  0  0  0  0
   56.7949   27.9961   47.9019 H   0  0  0  0  0  0  0  0  0  0  0  0
  1  2  1  0
  2  3  2  0
  2  4  1  0
  4  5  2  0
  5  6  1  0
  6  7  2  0
  7  8  1  0
  8  9  1  0
  9 10  1  0
 10 11  1  0
 11 12  2  0
 11 13  1  0
 13 14  2  0
 14 15  1  0
 15 16  2  0
 16 17  1  0
 17 18  2  0
 18 19  1  0
 19 20  1  0
 20 21  1  0
 21 22  2  0
 21 23  1  0
 23 24  1  0
 24 25  1  0
 25 26  2  0
 26 27  1  0
 27 28  2  0
 28 29  1  0
 29 30  2  0
 19 31  1  0
 31 32  2  0
  8 33  2  0
 33  4  1  0
 31 10  1  0
 18 13  1  0
 30 25  1  0
  1 34  1  0
  5 35  1  0
  6 36  1  0
  7 37  1  0
  9 38  1  0
  9 39  1  0
 14 40  1  0
 15 41  1  0
 16 42  1  0
 17 43  1  0
 20 44  1  0
 20 45  1  0
 23 46  1  0
 24 47  1  0
 24 48  1  0
 26 49  1  0
 27 50  1  0
 28 51  1  0
 29 52  1  0
 30 53  1  0
 33 54  1  0
M  CHG  1   1  -1
M  END
>  <UniqueID>  (24) 
22

>  <SMILES>  (24) 
[NH-]C(=O)c1cccc(Cn2c(=O)c3ccccc3n(CC(=O)NCc3ccccc3)c2=O)c1

>  <Energy>  (24) 
68.51413490495699

>  <Genealogy>  (24) 
[NH-]C(=O)c1cccc(Cn2c(=O)c3ccccc3n(CC(=O)NCc3ccccc3)c2=O)c1 (protonated)
[NH-]C(=O)c1cccc(Cn2c(=O)c3ccccc3n(CC(=O)NCc3ccccc3)c2=O)c1 (3D coordinates assigned)
[NH-]C(=O)c1cccc(Cn2c(=O)c3ccccc3n(CC(=O)NCc3ccccc3)c2=O)c1 (optimized conformer: 68.51413490495699 kcal/mol)

>  <smiles>  (24) 
NC(=O)c1cccc(Cn2c(=O)c3ccccc3n(CC(=O)NCc3ccccc3)c2=O)c1

>  <score_type>  (24) 
oracle

>  <origin>  (24) 
adg

>  <m_score__min__energy>  (24) 
-12.449999999999999

>  <m_primary>  (24) 
energy

$$$$
24:0
     RDKit          3D

 61 63  0  0  1  0  0  0  0  0999 V2000
   59.8250   34.3800   55.2310 C   0  0  0  0  0  0  0  0  0  0  0  0
   58.8700   34.8680   53.7960 S   0  0  0  0  0  0  0  0  0  0  0  0
   58.7280   33.5640   52.5940 C   0  0  0  0  0  0  0  0  0  0  0  0
   59.6050   33.5080   51.5480 C   0  0  0  0  0  0  0  0  0  0  0  0
   59.5300   32.5180   50.5970 C   0  0  0  0  0  0  0  0  0  0  0  0
   58.5580   31.5130   50.6390 C   0  0  0  0  0  0  0  0  0  0  0  0
   58.5490   30.5320   49.5930 C   0  0  0  0  0  0  0  0  0  0  0  0
   58.1910   29.3470   49.8960 O   0  0  0  0  0  0  0  0  0  0  0  0
   58.8970   30.7270   48.2380 N   0  0  0  0  0  0  0  0  0  0  0  0
   58.8190   29.6210   47.3760 C   0  0  0  0  0  0  0  0  0  0  0  0
   59.4460   28.0170   47.9310 S   0  0  0  0  0  0  0  0  0  0  0  0
   59.0010   27.2010   46.3910 C   0  0  0  0  0  0  0  0  0  0  0  0
   59.2430   25.7790   46.0840 C   0  0  0  0  0  0  0  0  0  0  0  0
   60.3890   25.3160   45.9780 O   0  0  0  0  0  0  0  0  0  0  0  0
   58.0980   24.9580   45.9110 N   0  0  0  0  0  0  0  0  0  0  0  0
   58.2400   23.5410   45.5990 C   0  0  0  0  0  0  0  0  0  0  0  0
   56.7410   25.4560   46.0300 C   0  0  0  0  0  0  0  0  0  0  0  0
   58.4280   28.1840   45.6020 C   0  0  0  0  0  0  0  0  0  0  0  0
   57.9330   27.8170   44.2140 C   0  0  0  0  0  0  0  0  0  0  0  0
   58.3440   29.4150   46.1220 C   0  0  0  0  0  0  0  0  0  0  0  0
   57.8130   30.5740   45.3380 C   0  0  0  0  0  0  0  0  0  0  0  0
   56.6590   30.4740   44.8710 O   0  0  0  0  0  0  0  0  0  0  0  0
   58.5210   31.7120   45.1180 O   0  0  0  0  0  0  0  0  0  0  0  0
   58.1300   33.0210   45.4070 C   0  0  0  0  0  0  0  0  0  0  0  0
   58.3550   33.2690   46.8370 C   0  0  0  0  0  0  0  0  0  0  0  0
   57.4140   32.9850   47.6420 O   0  0  0  0  0  0  0  0  0  0  0  0
   59.5330   33.8080   47.3950 N   0  0  0  0  0  0  0  0  0  0  0  0
   60.6820   33.2730   47.4610 C   0  0  0  0  0  0  0  0  0  0  0  0
   61.7220   33.7630   48.2210 C   0  0  0  0  0  0  0  0  0  0  0  0
   62.7690   32.8660   47.9820 C   0  0  0  0  0  0  0  0  0  0  0  0
   64.1090   33.0160   48.6090 C   0  0  0  0  0  0  0  0  0  0  0  0
   62.3140   31.9330   47.1330 N   0  0  0  0  0  0  0  0  0  0  0  0
   61.0470   32.1630   46.8040 N   0  0  0  0  0  0  0  0  0  0  0  0
   57.6860   31.5890   51.7000 C   0  0  0  0  0  0  0  0  0  0  0  0
   56.6890   30.6570   51.8480 O   0  0  0  0  0  0  0  0  0  0  0  0
   57.7560   32.5880   52.6650 C   0  0  0  0  0  0  0  0  0  0  0  0
   59.2807   34.6581   56.1456 H   0  0  0  0  0  0  0  0  0  0  0  0
   59.9817   33.2913   55.2143 H   0  0  0  0  0  0  0  0  0  0  0  0
   60.7990   34.8909   55.2143 H   0  0  0  0  0  0  0  0  0  0  0  0
   60.3903   34.2737   51.4646 H   0  0  0  0  0  0  0  0  0  0  0  0
   60.2600   32.5162   49.7742 H   0  0  0  0  0  0  0  0  0  0  0  0
   59.1980   31.6520   47.9010 H   0  0  0  0  0  0  0  0  0  0  0  0
   58.2978   22.9638   46.5336 H   0  0  0  0  0  0  0  0  0  0  0  0
   57.3710   23.2055   45.0140 H   0  0  0  0  0  0  0  0  0  0  0  0
   59.1583   23.3846   45.0140 H   0  0  0  0  0  0  0  0  0  0  0  0
   56.4778   25.5526   47.0937 H   0  0  0  0  0  0  0  0  0  0  0  0
   56.6674   26.4397   45.5433 H   0  0  0  0  0  0  0  0  0  0  0  0
   56.0486   24.7534   45.5433 H   0  0  0  0  0  0  0  0  0  0  0  0
   57.0521   27.1639   44.2997 H   0  0  0  0  0  0  0  0  0  0  0  0
   57.6593   28.7321   43.6685 H   0  0  0  0  0  0  0  0  0  0  0  0
   58.7291   27.2892   43.6685 H   0  0  0  0  0  0  0  0  0  0  0  0
   58.7258   33.7268   44.8097 H   0  0  0  0  0  0  0  0  0  0  0  0
   57.0664   33.1595   45.1630 H   0  0  0  0  0  0  0  0  0  0  0  0
   61.7277   34.6537   48.8665 H   0  0  0  0  0  0  0  0  0  0  0  0
   64.0048   33.0043   49.7040 H   0  0  0  0  0  0  0  0  0  0  0  0
   64.7566   32.1847   48.2934 H   0  0  0  0  0  0  0  0  0  0  0  0
   64.5568   33.9699   48.2934 H   0  0  0  0  0  0  0  0  0  0  0  0
   62.8860   31.1160   46.7670 H   0  0  0  0  0  0  0  0  0  0  0  0
   60.4180   31.6190   46.1700 H   0  0  0  0  0  0  0  0  0  0  0  0
   56.6820   29.8520   51.2340 H   0  0  0  0  0  0  0  0  0  0  0  0
   57.0303   32.5999   53.4916 H   0  0  0  0  0  0  0  0  0  0  0  0
  1  2  1  0
  2  3  1  0
  3  4  2  0
  4  5  1  0
  5  6  2  0
  6  7  1  0
  7  8  2  0
  7  9  1  0
  9 10  1  0
 10 11  1  0
 11 12  1  0
 12 13  1  0
 13 14  2  0
 13 15  1  0
 15 16  1  0
 15 17  1  0
 12 18  2  0
 18 19  1  0
 18 20  1  0
 20 21  1  0
 21 22  2  0
 21 23  1  0
 23 24  1  0
 24 25  1  0
 25 26  2  0
 25 27  1  0
 27 28  2  0
 28 29  1  0
 29 30  2  0
 30 31  1  0
 30 32  1  0
 32 33  1  0
  6 34  1  0
 34 35  1  0
 34 36  2  0
 36  3  1  0
 20 10  2  0
 33 28  1  0
  1 37  1  0
  1 38  1  0
  1 39  1  0
  4 40  1  0
  5 41  1  0
  9 42  1  0
 16 43  1  0
 16 44  1  0
 16 45  1  0
 17 46  1  0
 17 47  1  0
 17 48  1  0
 19 49  1  0
 19 50  1  0
 19 51  1  0
 24 52  1  0
 24 53  1  0
 29 54  1  0
 31 55  1  0
 31 56  1  0
 31 57  1  0
 32 58  1  0
 33 59  1  0
 35 60  1  0
 36 61  1  0
M  END
>  <smiles>  (25) 
CSc1ccc(C(=O)Nc2sc(C(=O)N(C)C)c(C)c2C(=O)OCC(=O)N=c2cc(C)[nH][nH]2)c(O)c1

>  <score_type>  (25) 
oracle

>  <origin>  (25) 
adg

>  <m_score__min__energy>  (25) 
-9.5899999999999999

>  <m_primary>  (25) 
energy

$$$$
25:0
     RDKit          3D

 63 67  0  0  0  0  0  0  0  0999 V2000
   54.6340   24.8910   44.4680 H   0  0  0  0  0  0  0  0  0  0  0  0
   54.9330   23.9880   44.1160 O   0  0  0  0  0  0  0  0  0  0  0  0
   56.1190   23.3890   44.5410 C   0  0  0  0  0  0  0  0  0  0  0  0
   56.6410   22.3150   43.8100 C   0  0  0  0  0  0  0  0  0  0  0  0
   56.0833   21.9163   42.9498 H   0  0  0  0  0  0  0  0  0  0  0  0
   57.8620   21.7490   44.1660 C   0  0  0  0  0  0  0  0  0  0  0  0
   58.2691   20.9009   43.5959 H   0  0  0  0  0  0  0  0  0  0  0  0
   58.5630   22.2690   45.2530 C   0  0  0  0  0  0  0  0  0  0  0  0
   59.5396   21.8461   45.5312 H   0  0  0  0  0  0  0  0  0  0  0  0
   58.0390   23.2990   45.9690 N   0  0  0  0  0  0  0  0  0  0  0  0
   56.8360   23.8640   45.6730 C   0  0  0  0  0  0  0  0  0  0  0  0
   56.4160   24.8300   46.4450 N   0  0  0  0  0  0  0  0  0  0  0  0
   55.9080   26.1160   46.0650 C   0  0  0  0  0  0  0  0  0  0  0  0
   54.6610   26.2780   45.9860 O   0  0  0  0  0  0  0  0  0  0  0  0
   56.8240   27.2000   45.6380 C   0  0  0  0  0  0  0  0  0  0  0  0
   56.4510   28.4700   45.2500 C   0  0  0  0  0  0  0  0  0  0  0  0
   55.1560   28.9760   45.2140 O   0  0  0  0  0  0  0  0  0  0  0  0
   57.6010   29.1540   44.9150 C   0  0  0  0  0  0  0  0  0  0  0  0
   57.6510   30.4280   44.5050 C   0  0  0  0  0  0  0  0  0  0  0  0
   57.1550   30.6993   43.5614 H   0  0  0  0  0  0  0  0  0  0  0  0
   58.3440   31.4800   45.2680 C   0  0  0  0  0  0  0  0  0  0  0  0
   58.0390   32.8250   45.2020 C   0  0  0  0  0  0  0  0  0  0  0  0
   57.2448   33.2929   44.6017 H   0  0  0  0  0  0  0  0  0  0  0  0
   58.9310   33.4660   46.0410 C   0  0  0  0  0  0  0  0  0  0  0  0
   58.9810   34.9450   46.2740 C   0  0  0  0  0  0  0  0  0  0  0  0
   58.9878   35.1458   47.3555 H   0  0  0  0  0  0  0  0  0  0  0  0
   59.8936   35.3573   45.8188 H   0  0  0  0  0  0  0  0  0  0  0  0
   58.0983   35.4179   45.8188 H   0  0  0  0  0  0  0  0  0  0  0  0
   59.7810   32.5700   46.5920 N   0  0  0  0  0  0  0  0  0  0  0  0
   60.8640   32.8710   47.4850 C   0  0  0  0  0  0  0  0  0  0  0  0
   60.6070   33.2170   48.8180 C   0  0  0  0  0  0  0  0  0  0  0  0
   59.5692   33.2842   49.1763 H   0  0  0  0  0  0  0  0  0  0  0  0
   61.6640   33.4770   49.6940 C   0  0  0  0  0  0  0  0  0  0  0  0
   61.4534   33.7548   50.7373 H   0  0  0  0  0  0  0  0  0  0  0  0
   62.9940   33.3860   49.2510 C   0  0  0  0  0  0  0  0  0  0  0  0
   64.0810   33.6480   50.1580 N   0  0  0  0  0  0  0  0  0  0  0  0
   65.4150   33.0910   49.9000 C   0  0  0  0  0  0  0  0  0  0  0  0
   65.3137   32.1956   49.2691 H   0  0  0  0  0  0  0  0  0  0  0  0
   66.0194   33.8576   49.3930 H   0  0  0  0  0  0  0  0  0  0  0  0
   66.1260   32.7010   51.2190 C   0  0  0  0  0  0  0  0  0  0  0  0
   66.2003   31.6043   51.2614 H   0  0  0  0  0  0  0  0  0  0  0  0
   67.1109   33.1906   51.2080 H   0  0  0  0  0  0  0  0  0  0  0  0
   65.4560   33.1490   52.3870 O   0  0  0  0  0  0  0  0  0  0  0  0
   65.0730   34.4990   52.2430 C   0  0  0  0  0  0  0  0  0  0  0  0
   64.7742   34.9028   53.2216 H   0  0  0  0  0  0  0  0  0  0  0  0
   65.9190   35.0828   51.8513 H   0  0  0  0  0  0  0  0  0  0  0  0
   63.8950   34.5880   51.2720 C   0  0  0  0  0  0  0  0  0  0  0  0
   62.9655   34.3396   51.8052 H   0  0  0  0  0  0  0  0  0  0  0  0
   63.8375   35.6109   50.8716 H   0  0  0  0  0  0  0  0  0  0  0  0
   63.2480   33.0510   47.9090 C   0  0  0  0  0  0  0  0  0  0  0  0
   64.2848   32.9935   47.5459 H   0  0  0  0  0  0  0  0  0  0  0  0
   62.1900   32.7910   47.0350 C   0  0  0  0  0  0  0  0  0  0  0  0
   62.3977   32.5222   45.9888 H   0  0  0  0  0  0  0  0  0  0  0  0
   59.4350   31.3500   46.1200 C   0  0  0  0  0  0  0  0  0  0  0  0
   60.1780   30.0830   46.4400 C   0  0  0  0  0  0  0  0  0  0  0  0
   60.2476   29.9644   47.5314 H   0  0  0  0  0  0  0  0  0  0  0  0
   59.6403   29.2244   46.0114 H   0  0  0  0  0  0  0  0  0  0  0  0
   61.1898   30.1331   46.0114 H   0  0  0  0  0  0  0  0  0  0  0  0
   58.6850   28.3670   45.0840 N   0  0  0  0  0  0  0  0  0  0  0  0
   58.2140   27.1790   45.5230 C   0  0  0  0  0  0  0  0  0  0  0  0
   59.0190   26.1420   45.7590 C   0  0  0  0  0  0  0  0  0  0  0  0
   58.5992   25.1899   46.1159 H   0  0  0  0  0  0  0  0  0  0  0  0
   60.1026   26.2388   45.5967 H   0  0  0  0  0  0  0  0  0  0  0  0
  1  2  1  0
  2  3  1  0
  3  4  2  0
  4  5  1  0
  4  6  1  0
  6  7  1  0
  6  8  2  0
  8  9  1  0
  8 10  1  0
 10 11  1  0
 11 12  2  0
 12 13  1  0
 13 14  2  0
 13 15  1  0
 15 16  2  0
 16 17  1  0
 16 18  1  0
 18 19  2  0
 19 20  1  0
 19 21  1  0
 21 22  1  0
 22 23  1  0
 22 24  2  0
 24 25  1  0
 25 26  1  0
 25 27  1  0
 25 28  1  0
 24 29  1  0
 29 30  1  0
 30 31  2  0
 31 32  1  0
 31 33  1  0
 33 34  1  0
 33 35  2  0
 35 36  1  0
 36 37  1  0
 37 38  1  0
 37 39  1  0
 37 40  1  0
 40 41  1  0
 40 42  1  0
 40 43  1  0
 43 44  1  0
 44 45  1  0
 44 46  1  0
 44 47  1  0
 47 48  1  0
 47 49  1  0
 35 50  1  0
 50 51  1  0
 50 52  2  0
 52 53  1  0
 29 54  1  0
 54 55  1  0
 55 56  1  0
 55 57  1  0
 55 58  1  0
 18 59  1  0
 59 60  1  0
 60 61  2  0
 61 62  1  0
 61 63  1  0
 11  3  1  0
 60 15  1  0
 54 21  2  0
 52 30  1  0
 47 36  1  0
M  CHG  3  10  -1  17  -1  59  -1
M  END
>  <UniqueID>  (26) 
23

>  <SMILES>  (26) 
C=c1[n-]/c(=C\c2cc(C)n(-c3ccc(N4CCOCC4)cc3)c2C)c([O-])c1C(=O)/N=c1/[n-]cccc1O

>  <Energy>  (26) 
158.25296521625626

>  <Genealogy>  (26) 
C=c1[n-]c(=Cc2cc(C)n(-c3ccc(N4CCOCC4)cc3)c2C)c([O-])c1C(=O)N=c1[n-]cccc1O (protonated)
C=c1[n-]/c(=C\c2cc(C)n(-c3ccc(N4CCOCC4)cc3)c2C)c([O-])c1C(=O)/N=c1/[n-]cccc1O (cis-trans isomerization)
C=c1[n-]/c(=C\c2cc(C)n(-c3ccc(N4CCOCC4)cc3)c2C)c([O-])c1C(=O)/N=c1/[n-]cccc1O (3D coordinates assigned)
C=c1[n-]/c(=C\c2cc(C)n(-c3ccc(N4CCOCC4)cc3)c2C)c([O-])c1C(=O)/N=c1/[n-]cccc1O (nonaromatic ring conformer: 158.25296521625626 kcal/mol)

>  <smiles>  (26) 
C=c1[nH]c(=Cc2cc(C)n(-c3ccc(N4CCOCC4)cc3)c2C)c(O)c1C(=O)N=c1[nH]cccc1O

>  <score_type>  (26) 
oracle

>  <origin>  (26) 
adg

>  <m_score__min__energy>  (26) 
-16.449999999999999

>  <m_primary>  (26) 
energy

$$$$
26:0
     RDKit          3D

 67 71  0  0  0  0  0  0  0  0999 V2000
   54.2889   29.5089   44.2573 H   0  0  0  0  0  0  0  0  0  0  0  0
   55.3600   29.6130   44.4850 C   0  0  0  0  0  0  0  0  0  0  0  0
   55.9990   28.6480   45.1960 N   0  0  0  0  0  0  0  0  0  0  0  0
   57.3220   28.7410   45.5090 C   0  0  0  0  0  0  0  0  0  0  0  0
   57.9180   27.8080   46.1930 N   0  0  0  0  0  0  0  0  0  0  0  0
   59.1810   27.9370   46.8660 C   0  0  0  0  0  0  0  0  0  0  0  0
   59.8450   26.8920   47.1010 O   0  0  0  0  0  0  0  0  0  0  0  0
   59.6850   29.2460   47.3500 C   0  0  0  0  0  0  0  0  0  0  0  0
   59.0980   29.8620   48.4680 C   0  0  0  0  0  0  0  0  0  0  0  0
   58.2632   29.3687   48.9873 H   0  0  0  0  0  0  0  0  0  0  0  0
   59.5670   31.0980   48.9260 C   0  0  0  0  0  0  0  0  0  0  0  0
   59.0883   31.5781   49.7922 H   0  0  0  0  0  0  0  0  0  0  0  0
   60.6480   31.7300   48.2840 C   0  0  0  0  0  0  0  0  0  0  0  0
   61.1600   33.0070   48.7060 N   0  0  0  0  0  0  0  0  0  0  0  0
   62.1740   33.2370   49.4870 C   0  0  0  0  0  0  0  0  0  0  0  0
   63.0430   32.2280   49.7520 N   0  0  0  0  0  0  0  0  0  0  0  0
   64.1030   32.3930   50.5880 C   0  0  0  0  0  0  0  0  0  0  0  0
   64.9700   31.2250   50.8530 C   0  0  0  0  0  0  0  0  0  0  0  0
   66.3440   31.2700   50.5690 C   0  0  0  0  0  0  0  0  0  0  0  0
   66.7793   32.1713   50.1127 H   0  0  0  0  0  0  0  0  0  0  0  0
   67.1610   30.1760   50.8630 C   0  0  0  0  0  0  0  0  0  0  0  0
   68.2336   30.2174   50.6227 H   0  0  0  0  0  0  0  0  0  0  0  0
   66.6290   29.0280   51.4600 C   0  0  0  0  0  0  0  0  0  0  0  0
   67.5010   27.9650   51.7440 O   0  0  0  0  0  0  0  0  0  0  0  0
   67.9020   26.9580   50.8160 C   0  0  0  0  0  0  0  0  0  0  0  0
   68.9280   26.1990   51.3480 F   0  0  0  0  0  0  0  0  0  0  0  0
   68.3530   27.5680   49.6630 F   0  0  0  0  0  0  0  0  0  0  0  0
   66.8280   26.1460   50.5010 F   0  0  0  0  0  0  0  0  0  0  0  0
   65.2540   28.9860   51.7580 C   0  0  0  0  0  0  0  0  0  0  0  0
   64.8218   28.0882   52.2241 H   0  0  0  0  0  0  0  0  0  0  0  0
   64.4350   30.0810   51.4640 C   0  0  0  0  0  0  0  0  0  0  0  0
   63.3643   30.0450   51.7135 H   0  0  0  0  0  0  0  0  0  0  0  0
   64.3300   33.6600   51.1720 C   0  0  0  0  0  0  0  0  0  0  0  0
   65.5090   33.9490   52.0630 C   0  0  0  0  0  0  0  0  0  0  0  0
   65.2001   33.8733   53.1160 H   0  0  0  0  0  0  0  0  0  0  0  0
   66.3079   33.2201   51.8619 H   0  0  0  0  0  0  0  0  0  0  0  0
   65.8803   34.9647   51.8619 H   0  0  0  0  0  0  0  0  0  0  0  0
   63.4000   34.6750   50.9130 C   0  0  0  0  0  0  0  0  0  0  0  0
   63.5227   35.6630   51.3808 H   0  0  0  0  0  0  0  0  0  0  0  0
   62.3480   34.4440   50.0870 N   0  0  0  0  0  0  0  0  0  0  0  0
   61.1970   31.1410   47.1390 C   0  0  0  0  0  0  0  0  0  0  0  0
   62.0091   31.6509   46.6001 H   0  0  0  0  0  0  0  0  0  0  0  0
   60.7230   29.9110   46.6740 C   0  0  0  0  0  0  0  0  0  0  0  0
   61.1651   29.4603   45.7732 H   0  0  0  0  0  0  0  0  0  0  0  0
   58.0500   29.8660   45.1030 C   0  0  0  0  0  0  0  0  0  0  0  0
   59.1071   29.9713   45.3886 H   0  0  0  0  0  0  0  0  0  0  0  0
   57.4270   30.8600   44.3300 C   0  0  0  0  0  0  0  0  0  0  0  0
   58.2190   32.0550   43.8360 C   0  0  0  0  0  0  0  0  0  0  0  0
   59.2716   31.7535   43.7304 H   0  0  0  0  0  0  0  0  0  0  0  0
   57.7704   32.3627   42.8799 H   0  0  0  0  0  0  0  0  0  0  0  0
   58.1580   33.2290   44.7380 N   0  0  0  0  0  0  0  0  0  0  0  0
   59.2510   34.2130   44.5470 C   0  0  0  0  0  0  0  0  0  0  0  0
   59.8030   33.9584   43.6302 H   0  0  0  0  0  0  0  0  0  0  0  0
   58.8006   35.2138   44.4726 H   0  0  0  0  0  0  0  0  0  0  0  0
   60.2290   34.2170   45.7310 C   0  0  0  0  0  0  0  0  0  0  0  0
   60.6908   33.2221   45.8147 H   0  0  0  0  0  0  0  0  0  0  0  0
   60.9881   34.9909   45.5447 H   0  0  0  0  0  0  0  0  0  0  0  0
   59.5500   34.5370   47.0020 N   0  0  0  0  0  0  0  0  0  0  0  0
   60.0860   34.0770   47.7770 H   0  0  0  0  0  0  0  0  0  0  0  0
   58.1470   34.0830   47.0670 C   0  0  0  0  0  0  0  0  0  0  0  0
   57.9148   33.7962   48.1032 H   0  0  0  0  0  0  0  0  0  0  0  0
   57.5071   34.9114   46.7290 H   0  0  0  0  0  0  0  0  0  0  0  0
   57.8860   32.8810   46.1510 C   0  0  0  0  0  0  0  0  0  0  0  0
   58.5416   32.0501   46.4505 H   0  0  0  0  0  0  0  0  0  0  0  0
   56.8299   32.5881   46.2453 H   0  0  0  0  0  0  0  0  0  0  0  0
   56.0600   30.7360   44.0430 C   0  0  0  0  0  0  0  0  0  0  0  0
   55.5420   31.5206   43.4720 H   0  0  0  0  0  0  0  0  0  0  0  0
  1  2  1  0
  2  3  1  0
  3  4  1  0
  4  5  2  3
  5  6  1  0
  6  7  2  0
  6  8  1  0
  8  9  2  0
  9 10  1  0
  9 11  1  0
 11 12  1  0
 11 13  2  0
 13 14  1  0
 14 15  2  0
 15 16  1  0
 16 17  2  0
 17 18  1  0
 18 19  2  0
 19 20  1  0
 19 21  1  0
 21 22  1  0
 21 23  2  0
 23 24  1  0
 24 25  1  0
 25 26  1  0
 25 27  1  0
 25 28  1  0
 23 29  1  0
 29 30  1  0
 29 31  2  0
 31 32  1  0
 17 33  1  0
 33 34  1  0
 34 35  1  0
 34 36  1  0
 34 37  1  0
 33 38  2  0
 38 39  1  0
 38 40  1  0
 13 41  1  0
 41 42  1  0
 41 43  2  0
 43 44  1  0
  4 45  1  0
 45 46  1  0
 45 47  2  0
 47 48  1  0
 48 49  1  0
 48 50  1  0
 48 51  1  0
 51 52  1  0
 52 53  1  0
 52 54  1  0
 52 55  1  0
 55 56  1  0
 55 57  1  0
 55 58  1  0
 58 59  1  0
 58 60  1  0
 60 61  1  0
 60 62  1  0
 60 63  1  0
 63 64  1  0
 63 65  1  0
 47 66  1  0
 66 67  1  0
 66  2  2  0
 43  8  1  0
 63 51  1  0
 40 15  1  0
 31 18  1  0
M  CHG  2   3  -1  40  -1
M  END
>  <UniqueID>  (27) 
24

>  <SMILES>  (27) 
Cc1c[n-]/c(=N\c2ccc(C(=O)N=c3cc(CN4CCNCC4)cc[n-]3)cc2)nc1-c1ccc(OC(F)(F)F)cc1

>  <Energy>  (27) 
107.93602423751321

>  <Genealogy>  (27) 
Cc1c[n-]c(=Nc2ccc(C(=O)N=c3cc(CN4CCNCC4)cc[n-]3)cc2)nc1-c1ccc(OC(F)(F)F)cc1 (protonated)
Cc1c[n-]/c(=N\c2ccc(C(=O)N=c3cc(CN4CCNCC4)cc[n-]3)cc2)nc1-c1ccc(OC(F)(F)F)cc1 (cis-trans isomerization)
Cc1c[n-]/c(=N\c2ccc(C(=O)N=c3cc(CN4CCNCC4)cc[n-]3)cc2)nc1-c1ccc(OC(F)(F)F)cc1 (3D coordinates assigned)
Cc1c[n-]/c(=N\c2ccc(C(=O)N=c3cc(CN4CCNCC4)cc[n-]3)cc2)nc1-c1ccc(OC(F)(F)F)cc1 (nonaromatic ring conformer: 107.93602423751321 kcal/mol)

>  <smiles>  (27) 
Cc1c[nH]c(=Nc2ccc(C(=O)N=c3cc(CN4CCNCC4)cc[nH]3)cc2)nc1-c1ccc(OC(F)(F)F)cc1

>  <score_type>  (27) 
oracle

>  <origin>  (27) 
adg

>  <m_score__min__energy>  (27) 
-10.869999999999999

>  <m_primary>  (27) 
energy

$$$$
27:0
     RDKit          3D

 48 51  0  0  0  0  0  0  0  0999 V2000
   62.8390   33.8620   46.4270 C   0  0  0  0  0  0  0  0  0  0  0  0
   62.9940   32.9750   47.6370 C   0  0  0  0  0  0  0  0  0  0  0  0
   64.2100   32.9860   48.3360 C   0  0  0  0  0  0  0  0  0  0  0  0
   64.4000   32.1590   49.4430 C   0  0  0  0  0  0  0  0  0  0  0  0
   65.6130   32.1730   50.1190 O   0  0  0  0  0  0  0  0  0  0  0  0
   63.3760   31.3130   49.8680 C   0  0  0  0  0  0  0  0  0  0  0  0
   62.1380   31.3010   49.2080 C   0  0  0  0  0  0  0  0  0  0  0  0
   61.0630   30.3580   49.6830 C   0  0  0  0  0  0  0  0  0  0  0  0
   61.9380   32.1490   48.0900 C   0  0  0  0  0  0  0  0  0  0  0  0
   60.6260   32.1770   47.4090 C   0  0  0  0  0  0  0  0  0  0  0  0
   60.2170   31.3020   46.4260 C   0  0  0  0  0  0  0  0  0  0  0  0
   58.9040   31.6690   46.1650 C   0  0  0  0  0  0  0  0  0  0  0  0
   57.9670   31.0240   45.2140 C   0  0  0  0  0  0  0  0  0  0  0  0
   57.1780   29.9440   45.6530 C   0  0  0  0  0  0  0  0  0  0  0  0
   56.2890   29.3100   44.7800 C   0  0  0  0  0  0  0  0  0  0  0  0
   55.5220   28.2400   45.2250 O   0  0  0  0  0  0  0  0  0  0  0  0
   56.1730   29.7510   43.4590 C   0  0  0  0  0  0  0  0  0  0  0  0
   56.9400   30.8290   43.0140 C   0  0  0  0  0  0  0  0  0  0  0  0
   57.8320   31.4680   43.8810 C   0  0  0  0  0  0  0  0  0  0  0  0
   58.5230   32.5400   43.4210 F   0  0  0  0  0  0  0  0  0  0  0  0
   58.5560   32.6980   46.9680 N   0  0  0  0  0  0  0  0  0  0  0  0
   59.6070   33.0080   47.7100 N   0  0  0  0  0  0  0  0  0  0  0  0
   59.5740   34.0240   48.7620 C   0  0  0  0  0  0  0  0  0  0  0  0
   59.2660   33.3920   50.0910 C   0  0  0  0  0  0  0  0  0  0  0  0
   59.9350   33.8110   51.2530 C   0  0  0  0  0  0  0  0  0  0  0  0
   59.6810   33.1840   52.4760 C   0  0  0  0  0  0  0  0  0  0  0  0
   58.7550   32.1390   52.5500 C   0  0  0  0  0  0  0  0  0  0  0  0
   58.0820   31.7200   51.3980 C   0  0  0  0  0  0  0  0  0  0  0  0
   58.3370   32.3420   50.1720 C   0  0  0  0  0  0  0  0  0  0  0  0
   62.6581   34.8972   46.7520 H   0  0  0  0  0  0  0  0  0  0  0  0
   63.7577   33.8224   45.8233 H   0  0  0  0  0  0  0  0  0  0  0  0
   61.9882   33.5132   45.8233 H   0  0  0  0  0  0  0  0  0  0  0  0
   65.0211   33.6528   48.0082 H   0  0  0  0  0  0  0  0  0  0  0  0
   63.5406   30.6486   50.7291 H   0  0  0  0  0  0  0  0  0  0  0  0
   61.0472   30.3441   50.7828 H   0  0  0  0  0  0  0  0  0  0  0  0
   60.0862   30.6959   49.3065 H   0  0  0  0  0  0  0  0  0  0  0  0
   61.2708   29.3456   49.3065 H   0  0  0  0  0  0  0  0  0  0  0  0
   60.7988   30.4959   45.9552 H   0  0  0  0  0  0  0  0  0  0  0  0
   57.2618   29.5956   46.6930 H   0  0  0  0  0  0  0  0  0  0  0  0
   55.4776   29.2489   42.7703 H   0  0  0  0  0  0  0  0  0  0  0  0
   56.8422   31.1779   41.9754 H   0  0  0  0  0  0  0  0  0  0  0  0
   60.5533   34.5221   48.8157 H   0  0  0  0  0  0  0  0  0  0  0  0
   58.7894   34.7577   48.5252 H   0  0  0  0  0  0  0  0  0  0  0  0
   60.6613   34.6354   51.2002 H   0  0  0  0  0  0  0  0  0  0  0  0
   60.2106   33.5133   53.3821 H   0  0  0  0  0  0  0  0  0  0  0  0
   58.5561   31.6469   53.5135 H   0  0  0  0  0  0  0  0  0  0  0  0
   57.3511   30.9000   51.4564 H   0  0  0  0  0  0  0  0  0  0  0  0
   57.8079   32.0076   49.2674 H   0  0  0  0  0  0  0  0  0  0  0  0
  1  2  1  0
  2  3  2  0
  3  4  1  0
  4  5  1  0
  4  6  2  0
  6  7  1  0
  7  8  1  0
  7  9  2  0
  9 10  1  0
 10 11  2  0
 11 12  1  0
 12 13  1  0
 13 14  2  0
 14 15  1  0
 15 16  1  0
 15 17  2  0
 17 18  1  0
 18 19  2  0
 19 20  1  0
 12 21  2  0
 21 22  1  0
 22 23  1  0
 23 24  1  0
 24 25  2  0
 25 26  1  0
 26 27  2  0
 27 28  1  0
 28 29  2  0
  9  2  1  0
 22 10  1  0
 29 24  1  0
 19 13  1  0
  1 30  1  0
  1 31  1  0
  1 32  1  0
  3 33  1  0
  6 34  1  0
  8 35  1  0
  8 36  1  0
  8 37  1  0
 11 38  1  0
 14 39  1  0
 17 40  1  0
 18 41  1  0
 23 42  1  0
 23 43  1  0
 25 44  1  0
 26 45  1  0
 27 46  1  0
 28 47  1  0
 29 48  1  0
M  CHG  2   5  -1  16  -1
M  END
>  <UniqueID>  (28) 
25

>  <SMILES>  (28) 
Cc1cc([O-])cc(C)c1-c1cc(-c2cc([O-])ccc2F)nn1Cc1ccccc1

>  <Energy>  (28) 
89.59461422282843

>  <Genealogy>  (28) 
Cc1cc([O-])cc(C)c1-c1cc(-c2cc([O-])ccc2F)nn1Cc1ccccc1 (protonated)
Cc1cc([O-])cc(C)c1-c1cc(-c2cc([O-])ccc2F)nn1Cc1ccccc1 (3D coordinates assigned)
Cc1cc([O-])cc(C)c1-c1cc(-c2cc([O-])ccc2F)nn1Cc1ccccc1 (optimized conformer: 89.59461422282843 kcal/mol)

>  <smiles>  (28) 
Cc1cc(O)cc(C)c1-c1cc(-c2cc(O)ccc2F)nn1Cc1ccccc1

>  <score_type>  (28) 
oracle

>  <origin>  (28) 
adg

>  <m_score__min__energy>  (28) 
-12.32

>  <m_primary>  (28) 
energy

$$$$
28:0
     RDKit          3D

 70 73  0  0  0  0  0  0  0  0999 V2000
   60.1340   28.0050   48.3320 C   0  0  0  0  0  0  0  0  0  0  0  0
   60.7470   26.7280   47.7790 C   0  0  0  0  0  0  0  0  0  0  0  0
   60.1000   26.3800   46.5580 O   0  0  0  0  0  0  0  0  0  0  0  0
   58.7490   26.6360   46.2640 C   0  0  0  0  0  0  0  0  0  0  0  0
   57.7450   25.7090   46.5910 C   0  0  0  0  0  0  0  0  0  0  0  0
   56.4160   26.0030   46.3110 C   0  0  0  0  0  0  0  0  0  0  0  0
   56.0870   27.1920   45.7450 N   0  0  0  0  0  0  0  0  0  0  0  0
   57.0150   28.1350   45.4180 C   0  0  0  0  0  0  0  0  0  0  0  0
   56.5070   29.4190   44.8760 C   0  0  0  0  0  0  0  0  0  0  0  0
   55.2650   29.6320   44.8900 O   0  0  0  0  0  0  0  0  0  0  0  0
   57.4160   30.4470   44.4500 N   0  0  0  0  0  0  0  0  0  0  0  0
   57.7630   31.6770   45.1020 C   0  0  0  0  0  0  0  0  0  0  0  0
   56.7650   32.6520   45.2300 C   0  0  0  0  0  0  0  0  0  0  0  0
   57.0510   33.8890   45.8090 C   0  0  0  0  0  0  0  0  0  0  0  0
   58.3400   34.1700   46.2610 C   0  0  0  0  0  0  0  0  0  0  0  0
   59.3480   33.1980   46.1700 C   0  0  0  0  0  0  0  0  0  0  0  0
   60.7390   33.5010   46.6700 C   0  0  0  0  0  0  0  0  0  0  0  0
   61.0910   32.6530   47.8330 N   0  0  0  0  0  0  0  0  0  0  0  0
   62.2160   31.7430   47.5430 C   0  0  0  0  0  0  0  0  0  0  0  0
   63.5440   32.4910   47.3520 C   0  0  0  0  0  0  0  0  0  0  0  0
   63.8700   33.4820   48.4930 C   0  0  0  0  0  0  0  0  0  0  0  0
   64.7080   32.8600   49.5920 C   0  0  0  0  0  0  0  0  0  0  0  0
   64.1290   32.4510   50.6340 O   0  0  0  0  0  0  0  0  0  0  0  0
   66.1370   32.7480   49.4880 N   0  0  0  0  0  0  0  0  0  0  0  0
   66.9530   32.1820   50.5680 C   0  0  0  0  0  0  0  0  0  0  0  0
   66.5180   30.7350   50.8700 C   0  0  0  0  0  0  0  0  0  0  0  0
   67.0280   30.2640   52.2450 C   0  0  0  0  0  0  0  0  0  0  0  0
   68.0820   31.0850   52.7100 O   0  0  0  0  0  0  0  0  0  0  0  0
   67.5840   32.3730   53.0250 C   0  0  0  0  0  0  0  0  0  0  0  0
   66.8440   33.0370   51.8420 C   0  0  0  0  0  0  0  0  0  0  0  0
   62.6370   34.2470   49.0290 C   0  0  0  0  0  0  0  0  0  0  0  0
   61.3430   33.4140   49.0760 C   0  0  0  0  0  0  0  0  0  0  0  0
   59.0510   31.9420   45.6120 C   0  0  0  0  0  0  0  0  0  0  0  0
   58.3930   27.8560   45.6410 C   0  0  0  0  0  0  0  0  0  0  0  0
   59.4770   28.8260   45.2380 C   0  0  0  0  0  0  0  0  0  0  0  0
   60.1494   27.9729   49.4314 H   0  0  0  0  0  0  0  0  0  0  0  0
   60.7143   28.8716   47.9823 H   0  0  0  0  0  0  0  0  0  0  0  0
   59.0949   28.0942   47.9823 H   0  0  0  0  0  0  0  0  0  0  0  0
   61.8195   26.8868   47.5932 H   0  0  0  0  0  0  0  0  0  0  0  0
   60.6174   25.9140   48.5074 H   0  0  0  0  0  0  0  0  0  0  0  0
   58.0102   24.7535   47.0672 H   0  0  0  0  0  0  0  0  0  0  0  0
   55.6297   25.2713   46.5483 H   0  0  0  0  0  0  0  0  0  0  0  0
   55.7470   32.4405   44.8709 H   0  0  0  0  0  0  0  0  0  0  0  0
   56.2577   34.6444   45.9091 H   0  0  0  0  0  0  0  0  0  0  0  0
   58.5673   35.1569   46.6903 H   0  0  0  0  0  0  0  0  0  0  0  0
   61.4593   33.3145   45.8598 H   0  0  0  0  0  0  0  0  0  0  0  0
   60.7720   34.5541   46.9862 H   0  0  0  0  0  0  0  0  0  0  0  0
   62.3252   31.0389   48.3811 H   0  0  0  0  0  0  0  0  0  0  0  0
   61.9888   31.2202   46.6022 H   0  0  0  0  0  0  0  0  0  0  0  0
   64.3546   31.7497   47.2939 H   0  0  0  0  0  0  0  0  0  0  0  0
   63.4491   33.0831   46.4298 H   0  0  0  0  0  0  0  0  0  0  0  0
   64.5014   34.2547   48.0301 H   0  0  0  0  0  0  0  0  0  0  0  0
   66.6120   33.0440   48.6090 H   0  0  0  0  0  0  0  0  0  0  0  0
   68.0016   32.1791   50.2357 H   0  0  0  0  0  0  0  0  0  0  0  0
   65.4193   30.6833   50.8601 H   0  0  0  0  0  0  0  0  0  0  0  0
   66.9496   30.0786   50.1000 H   0  0  0  0  0  0  0  0  0  0  0  0
   66.1990   30.3016   52.9670 H   0  0  0  0  0  0  0  0  0  0  0  0
   67.4072   29.2366   52.1419 H   0  0  0  0  0  0  0  0  0  0  0  0
   66.8853   32.2823   53.8697 H   0  0  0  0  0  0  0  0  0  0  0  0
   68.4464   33.0088   53.2738 H   0  0  0  0  0  0  0  0  0  0  0  0
   65.7824   33.1565   52.1043 H   0  0  0  0  0  0  0  0  0  0  0  0
   67.3073   34.0152   51.6460 H   0  0  0  0  0  0  0  0  0  0  0  0
   62.8622   34.5908   50.0494 H   0  0  0  0  0  0  0  0  0  0  0  0
   62.4523   35.0749   48.3287 H   0  0  0  0  0  0  0  0  0  0  0  0
   61.4159   32.7028   49.9120 H   0  0  0  0  0  0  0  0  0  0  0  0
   60.5071   34.1179   49.2019 H   0  0  0  0  0  0  0  0  0  0  0  0
   59.8265   31.1628   45.5731 H   0  0  0  0  0  0  0  0  0  0  0  0
   59.9467   29.2463   46.1395 H   0  0  0  0  0  0  0  0  0  0  0  0
   60.2361   28.3000   44.6404 H   0  0  0  0  0  0  0  0  0  0  0  0
   59.0382   29.6386   44.6404 H   0  0  0  0  0  0  0  0  0  0  0  0
  1  2  1  0
  2  3  1  0
  3  4  1  0
  4  5  2  0
  5  6  1  0
  6  7  2  0
  7  8  1  0
  8  9  1  0
  9 10  2  0
  9 11  1  0
 11 12  1  0
 12 13  2  0
 13 14  1  0
 14 15  2  0
 15 16  1  0
 16 17  1  0
 17 18  1  0
 18 19  1  0
 19 20  1  0
 20 21  1  0
 21 22  1  0
 22 23  2  0
 22 24  1  0
 24 25  1  0
 25 26  1  0
 26 27  1  0
 27 28  1  0
 28 29  1  0
 29 30  1  0
 21 31  1  0
 31 32  1  0
 16 33  2  0
  8 34  2  0
 34 35  1  0
 34  4  1  0
 33 12  1  0
 32 18  1  0
 30 25  1  0
  1 36  1  0
  1 37  1  0
  1 38  1  0
  2 39  1  0
  2 40  1  0
  5 41  1  0
  6 42  1  0
 13 43  1  0
 14 44  1  0
 15 45  1  0
 17 46  1  0
 17 47  1  0
 19 48  1  0
 19 49  1  0
 20 50  1  0
 20 51  1  0
 21 52  1  0
 24 53  1  0
 25 54  1  0
 26 55  1  0
 26 56  1  0
 27 57  1  0
 27 58  1  0
 29 59  1  0
 29 60  1  0
 30 61  1  0
 30 62  1  0
 31 63  1  0
 31 64  1  0
 32 65  1  0
 32 66  1  0
 33 67  1  0
 35 68  1  0
 35 69  1  0
 35 70  1  0
M  CHG  1  11  -1
M  END
>  <UniqueID>  (29) 
26

>  <SMILES>  (29) 
CCOc1ccnc(C(=O)[N-]c2cccc(CN3CCC(C(=O)NC4CCOCC4)CC3)c2)c1C

>  <Energy>  (29) 
89.09387486213684

>  <Genealogy>  (29) 
CCOc1ccnc(C(=O)[N-]c2cccc(CN3CCC(C(=O)NC4CCOCC4)CC3)c2)c1C (protonated)
CCOc1ccnc(C(=O)[N-]c2cccc(CN3CCC(C(=O)NC4CCOCC4)CC3)c2)c1C (3D coordinates assigned)
CCOc1ccnc(C(=O)[N-]c2cccc(CN3CCC(C(=O)NC4CCOCC4)CC3)c2)c1C (nonaromatic ring conformer: 89.09387486213684 kcal/mol)

>  <smiles>  (29) 
CCOc1ccnc(C(=O)Nc2cccc(CN3CCC(C(=O)NC4CCOCC4)CC3)c2)c1C

>  <score_type>  (29) 
oracle

>  <origin>  (29) 
adg

>  <m_score__min__energy>  (29) 
-11.19

>  <m_primary>  (29) 
energy

$$$$
29:0
     RDKit          3D

 79 83  0  0  0  0  0  0  0  0999 V2000
   60.7680   28.0450   46.1900 O   0  0  0  0  0  0  0  0  0  0  0  0
   59.8810   27.3840   46.7920 C   0  0  0  0  0  0  0  0  0  0  0  0
   59.4880   26.0390   46.2570 C   0  0  0  0  0  0  0  0  0  0  0  0
   58.4900   25.3990   47.1330 N   0  0  0  0  0  0  0  0  0  0  0  0
   57.1370   25.2500   46.5530 C   0  0  1  0  0  0  0  0  0  0  0  0
   56.4570   26.5690   46.2520 C   0  0  0  0  0  0  0  0  0  0  0  0
   55.2380   26.6090   45.9310 O   0  0  0  0  0  0  0  0  0  0  0  0
   57.2190   27.7790   46.3760 N   0  0  0  0  0  0  0  0  0  0  0  0
   57.2840   28.8630   45.4370 C   0  0  0  0  0  0  0  0  0  0  0  0
   56.9940   28.5980   44.0930 C   0  0  0  0  0  0  0  0  0  0  0  0
   57.0320   29.6240   43.1460 C   0  0  0  0  0  0  0  0  0  0  0  0
   57.3500   30.9260   43.5350 C   0  0  0  0  0  0  0  0  0  0  0  0
   57.6250   31.2120   44.8780 C   0  0  0  0  0  0  0  0  0  0  0  0
   58.0120   32.8630   45.3590 S   0  0  0  0  0  0  0  0  0  0  0  0
   58.8230   33.4990   44.2660 O   0  0  0  0  0  0  0  0  0  0  0  0
   56.7470   33.6530   45.5550 O   0  0  0  0  0  0  0  0  0  0  0  0
   58.9300   32.8590   46.8470 N   0  0  0  0  0  0  0  0  0  0  0  0
   58.8650   34.1890   47.4810 C   0  0  0  0  0  0  0  0  0  0  0  0
   59.9560   34.3270   48.5560 C   0  0  0  0  0  0  0  0  0  0  0  0
   61.2860   34.0980   48.1000 O   0  0  0  0  0  0  0  0  0  0  0  0
   61.3530   33.5190   46.8070 C   0  0  0  0  0  0  0  0  0  0  0  0
   60.3190   32.3970   46.6130 C   0  0  0  0  0  0  0  0  0  0  0  0
   57.5750   30.1840   45.8310 C   0  0  0  0  0  0  0  0  0  0  0  0
   57.1200   24.2900   45.3730 C   0  0  0  0  0  0  0  0  0  0  0  0
   56.0970   24.3970   44.4120 C   0  0  0  0  0  0  0  0  0  0  0  0
   56.0490   23.5170   43.3270 C   0  0  0  0  0  0  0  0  0  0  0  0
   57.0100   22.5110   43.1960 C   0  0  0  0  0  0  0  0  0  0  0  0
   58.0160   22.3780   44.1560 C   0  0  0  0  0  0  0  0  0  0  0  0
   58.0740   23.2590   45.2390 C   0  0  0  0  0  0  0  0  0  0  0  0
   59.1880   27.9500   47.9180 N   0  0  0  0  0  0  0  0  0  0  0  0
   59.6510   29.0790   48.6810 C   0  0  0  0  0  0  0  0  0  0  0  0
   60.9290   29.6330   48.4830 C   0  0  0  0  0  0  0  0  0  0  0  0
   61.3640   30.7050   49.2660 C   0  0  0  0  0  0  0  0  0  0  0  0
   60.5350   31.2310   50.2570 C   0  0  0  0  0  0  0  0  0  0  0  0
   59.2670   30.6790   50.4800 C   0  0  0  0  0  0  0  0  0  0  0  0
   58.2260   31.3280   51.7500 S   0  0  0  0  0  0  0  0  0  0  0  0
   58.9940   31.3800   53.0420 O   0  0  0  0  0  0  0  0  0  0  0  0
   57.8280   32.7330   51.3900 O   0  0  0  0  0  0  0  0  0  0  0  0
   56.7890   30.3610   51.9690 N   0  0  0  0  0  0  0  0  0  0  0  0
   55.6000   31.2220   52.0260 C   0  0  0  0  0  0  0  0  0  0  0  0
   54.3570   30.3580   52.2700 C   0  0  0  0  0  0  0  0  0  0  0  0
   54.4850   29.6280   53.4760 O   0  0  0  0  0  0  0  0  0  0  0  0
   55.6010   28.7630   53.3990 C   0  0  0  0  0  0  0  0  0  0  0  0
   56.8940   29.5630   53.2000 C   0  0  0  0  0  0  0  0  0  0  0  0
   58.8330   29.6020   49.6950 C   0  0  0  0  0  0  0  0  0  0  0  0
   59.0593   26.1620   45.2514 H   0  0  0  0  0  0  0  0  0  0  0  0
   60.3827   25.4004   46.2161 H   0  0  0  0  0  0  0  0  0  0  0  0
   58.4150   25.9470   48.0240 H   0  0  0  0  0  0  0  0  0  0  0  0
   56.5228   24.7892   47.3407 H   0  0  0  0  0  0  0  0  0  0  0  0
   56.7347   27.5755   43.7811 H   0  0  0  0  0  0  0  0  0  0  0  0
   56.8107   29.4052   42.0909 H   0  0  0  0  0  0  0  0  0  0  0  0
   57.3847   31.7297   42.7847 H   0  0  0  0  0  0  0  0  0  0  0  0
   59.0127   34.9634   46.7138 H   0  0  0  0  0  0  0  0  0  0  0  0
   57.8802   34.3089   47.9561 H   0  0  0  0  0  0  0  0  0  0  0  0
   59.9063   35.3478   48.9629 H   0  0  0  0  0  0  0  0  0  0  0  0
   59.7499   33.5469   49.3036 H   0  0  0  0  0  0  0  0  0  0  0  0
   61.1677   34.3035   46.0585 H   0  0  0  0  0  0  0  0  0  0  0  0
   62.3535   33.0774   46.6886 H   0  0  0  0  0  0  0  0  0  0  0  0
   60.3966   32.0200   45.5825 H   0  0  0  0  0  0  0  0  0  0  0  0
   60.5380   31.6095   47.3491 H   0  0  0  0  0  0  0  0  0  0  0  0
   57.7638   30.4102   46.8908 H   0  0  0  0  0  0  0  0  0  0  0  0
   55.3300   25.1786   44.5156 H   0  0  0  0  0  0  0  0  0  0  0  0
   55.2529   23.6166   42.5745 H   0  0  0  0  0  0  0  0  0  0  0  0
   56.9743   21.8243   42.3374 H   0  0  0  0  0  0  0  0  0  0  0  0
   58.7644   21.5777   44.0591 H   0  0  0  0  0  0  0  0  0  0  0  0
   58.8683   23.1481   45.9918 H   0  0  0  0  0  0  0  0  0  0  0  0
   58.2570   27.5440   48.1640 H   0  0  0  0  0  0  0  0  0  0  0  0
   61.5898   29.2195   47.7069 H   0  0  0  0  0  0  0  0  0  0  0  0
   62.3627   31.1354   49.1007 H   0  0  0  0  0  0  0  0  0  0  0  0
   60.8779   32.0813   50.8648 H   0  0  0  0  0  0  0  0  0  0  0  0
   55.7103   31.9463   52.8465 H   0  0  0  0  0  0  0  0  0  0  0  0
   55.4912   31.7618   51.0738 H   0  0  0  0  0  0  0  0  0  0  0  0
   53.4719   31.0081   52.3334 H   0  0  0  0  0  0  0  0  0  0  0  0
   54.2498   29.6484   51.4363 H   0  0  0  0  0  0  0  0  0  0  0  0
   55.6743   28.1843   54.3316 H   0  0  0  0  0  0  0  0  0  0  0  0
   55.4669   28.0882   52.5407 H   0  0  0  0  0  0  0  0  0  0  0  0
   57.0477   30.2322   54.0594 H   0  0  0  0  0  0  0  0  0  0  0  0
   57.7456   28.8715   53.1186 H   0  0  0  0  0  0  0  0  0  0  0  0
   57.8411   29.1620   49.8753 H   0  0  0  0  0  0  0  0  0  0  0  0
  1  2  2  0
  2  3  1  0
  3  4  1  0
  4  5  1  0
  5  6  1  0
  6  7  2  0
  6  8  1  0
  8  9  1  0
  9 10  2  0
 10 11  1  0
 11 12  2  0
 12 13  1  0
 13 14  1  0
 14 15  2  0
 14 16  2  0
 14 17  1  0
 17 18  1  0
 18 19  1  0
 19 20  1  0
 20 21  1  0
 21 22  1  0
 13 23  2  0
  5 24  1  0
 24 25  2  0
 25 26  1  0
 26 27  2  0
 27 28  1  0
 28 29  2  0
  2 30  1  0
 30 31  1  0
 31 32  2  0
 32 33  1  0
 33 34  2  0
 34 35  1  0
 35 36  1  0
 36 37  2  0
 36 38  2  0
 36 39  1  0
 39 40  1  0
 40 41  1  0
 41 42  1  0
 42 43  1  0
 43 44  1  0
 35 45  2  0
 23  9  1  0
 29 24  1  0
 45 31  1  0
 22 17  1  0
 44 39  1  0
  3 46  1  0
  3 47  1  0
  4 48  1  0
  5 49  1  1
 10 50  1  0
 11 51  1  0
 12 52  1  0
 18 53  1  0
 18 54  1  0
 19 55  1  0
 19 56  1  0
 21 57  1  0
 21 58  1  0
 22 59  1  0
 22 60  1  0
 23 61  1  0
 25 62  1  0
 26 63  1  0
 27 64  1  0
 28 65  1  0
 29 66  1  0
 30 67  1  0
 32 68  1  0
 33 69  1  0
 34 70  1  0
 40 71  1  0
 40 72  1  0
 41 73  1  0
 41 74  1  0
 43 75  1  0
 43 76  1  0
 44 77  1  0
 44 78  1  0
 45 79  1  0
M  CHG  1   8  -1
M  END
>  <UniqueID>  (30) 
27

>  <SMILES>  (30) 
O=C(CN[C@@H](C(=O)[N-]c1cccc(S(=O)(=O)N2CCOCC2)c1)c1ccccc1)Nc1cccc(S(=O)(=O)N2CCOCC2)c1

>  <Energy>  (30) 
104.32373193467612

>  <Genealogy>  (30) 
O=C(CNC(C(=O)[N-]c1cccc(S(=O)(=O)N2CCOCC2)c1)c1ccccc1)Nc1cccc(S(=O)(=O)N2CCOCC2)c1 (protonated)
O=C(CN[C@@H](C(=O)[N-]c1cccc(S(=O)(=O)N2CCOCC2)c1)c1ccccc1)Nc1cccc(S(=O)(=O)N2CCOCC2)c1 (chirality)
O=C(CN[C@@H](C(=O)[N-]c1cccc(S(=O)(=O)N2CCOCC2)c1)c1ccccc1)Nc1cccc(S(=O)(=O)N2CCOCC2)c1 (3D coordinates assigned)
O=C(CN[C@@H](C(=O)[N-]c1cccc(S(=O)(=O)N2CCOCC2)c1)c1ccccc1)Nc1cccc(S(=O)(=O)N2CCOCC2)c1 (nonaromatic ring conformer: 104.32373193467612 kcal/mol)

>  <smiles>  (30) 
O=C(CNC(C(=O)Nc1cccc(S(=O)(=O)N2CCOCC2)c1)c1ccccc1)Nc1cccc(S(=O)(=O)N2CCOCC2)c1

>  <score_type>  (30) 
oracle

>  <origin>  (30) 
adg

>  <m_score__min__energy>  (30) 
-13.01

>  <m_primary>  (30) 
energy

$$$$
30:0
     RDKit          3D

 59 62  0  0  0  0  0  0  0  0999 V2000
   56.2700   25.5930   45.8150 C   0  0  0  0  0  0  0  0  0  0  0  0
   56.5220   26.8330   46.4620 O   0  0  0  0  0  0  0  0  0  0  0  0
   57.7690   27.4790   46.4970 C   0  0  0  0  0  0  0  0  0  0  0  0
   58.5450   27.5480   47.6720 C   0  0  0  0  0  0  0  0  0  0  0  0
   59.7870   28.1770   47.6540 C   0  0  0  0  0  0  0  0  0  0  0  0
   60.2670   28.7410   46.4690 C   0  0  0  0  0  0  0  0  0  0  0  0
   59.5030   28.6910   45.3030 C   0  0  0  0  0  0  0  0  0  0  0  0
   58.2440   28.0740   45.3160 C   0  0  0  0  0  0  0  0  0  0  0  0
   57.4000   28.0620   44.1510 N   0  0  0  0  0  0  0  0  0  0  0  0
   56.3660   29.3670   43.6670 S   0  0  0  0  0  0  0  0  0  0  0  0
   55.1480   29.3820   44.5480 O   0  0  0  0  0  0  0  0  0  0  0  0
   55.9320   29.1670   42.2410 O   0  0  0  0  0  0  0  0  0  0  0  0
   57.2280   30.8910   43.8640 C   0  0  0  0  0  0  0  0  0  0  0  0
   57.6520   31.5950   42.7340 C   0  0  0  0  0  0  0  0  0  0  0  0
   58.2800   32.8320   42.8720 C   0  0  0  0  0  0  0  0  0  0  0  0
   58.4680   33.3860   44.1370 C   0  0  0  0  0  0  0  0  0  0  0  0
   58.0220   32.7060   45.2830 C   0  0  0  0  0  0  0  0  0  0  0  0
   58.1670   33.3260   46.6220 C   0  0  0  0  0  0  0  0  0  0  0  0
   57.1550   33.8280   47.1810 O   0  0  0  0  0  0  0  0  0  0  0  0
   59.4300   33.3390   47.3140 N   0  0  0  0  0  0  0  0  0  0  0  0
   60.3010   32.1600   47.3400 C   0  0  0  0  0  0  0  0  0  0  0  0
   60.7460   31.8400   48.7820 C   0  0  0  0  0  0  0  0  0  0  0  0
   61.1600   33.0400   49.5450 N   0  0  0  0  0  0  0  0  0  0  0  0
   62.5820   33.4800   49.4770 C   0  0  0  0  0  0  0  0  0  0  0  0
   63.1600   33.7010   50.8690 C   0  0  0  0  0  0  0  0  0  0  0  0
   64.6780   33.5740   50.7100 C   0  0  0  0  0  0  0  0  0  0  0  0
   64.9270   33.0090   49.3090 C   0  0  0  0  0  0  0  0  0  0  0  0
   63.5730   32.5320   48.8050 C   0  0  0  0  0  0  0  0  0  0  0  0
   60.1700   34.1340   49.4910 C   0  0  0  0  0  0  0  0  0  0  0  0
   59.8610   34.5280   48.0500 C   0  0  0  0  0  0  0  0  0  0  0  0
   57.4320   31.4380   45.1370 C   0  0  0  0  0  0  0  0  0  0  0  0
   56.1110   24.8104   46.5715 H   0  0  0  0  0  0  0  0  0  0  0  0
   55.3718   25.6833   45.1864 H   0  0  0  0  0  0  0  0  0  0  0  0
   57.1322   25.3255   45.1864 H   0  0  0  0  0  0  0  0  0  0  0  0
   58.1683   27.1039   48.6052 H   0  0  0  0  0  0  0  0  0  0  0  0
   60.3902   28.2300   48.5723 H   0  0  0  0  0  0  0  0  0  0  0  0
   61.2535   29.2274   46.4556 H   0  0  0  0  0  0  0  0  0  0  0  0
   59.8882   29.1355   44.3735 H   0  0  0  0  0  0  0  0  0  0  0  0
   57.4897   31.1716   41.7318 H   0  0  0  0  0  0  0  0  0  0  0  0
   58.6283   33.3726   41.9795 H   0  0  0  0  0  0  0  0  0  0  0  0
   58.9680   34.3605   44.2388 H   0  0  0  0  0  0  0  0  0  0  0  0
   59.7533   31.2978   46.9318 H   0  0  0  0  0  0  0  0  0  0  0  0
   61.1945   32.3680   46.7330 H   0  0  0  0  0  0  0  0  0  0  0  0
   59.9066   31.3630   49.3091 H   0  0  0  0  0  0  0  0  0  0  0  0
   61.6216   31.1776   48.7144 H   0  0  0  0  0  0  0  0  0  0  0  0
   62.4947   34.3894   48.8643 H   0  0  0  0  0  0  0  0  0  0  0  0
   62.8953   34.7021   51.2401 H   0  0  0  0  0  0  0  0  0  0  0  0
   62.7646   32.9742   51.5938 H   0  0  0  0  0  0  0  0  0  0  0  0
   65.1538   34.5606   50.8111 H   0  0  0  0  0  0  0  0  0  0  0  0
   65.1036   32.9175   51.4832 H   0  0  0  0  0  0  0  0  0  0  0  0
   65.3280   33.7906   48.6470 H   0  0  0  0  0  0  0  0  0  0  0  0
   65.6619   32.1907   49.3283 H   0  0  0  0  0  0  0  0  0  0  0  0
   63.5116   32.6124   47.7097 H   0  0  0  0  0  0  0  0  0  0  0  0
   63.3787   31.4752   49.0405 H   0  0  0  0  0  0  0  0  0  0  0  0
   59.2417   33.8023   49.9792 H   0  0  0  0  0  0  0  0  0  0  0  0
   60.5894   35.0091   50.0090 H   0  0  0  0  0  0  0  0  0  0  0  0
   59.0590   35.2807   48.0372 H   0  0  0  0  0  0  0  0  0  0  0  0
   60.7604   34.9514   47.5790 H   0  0  0  0  0  0  0  0  0  0  0  0
   57.1283   30.8713   46.0296 H   0  0  0  0  0  0  0  0  0  0  0  0
  1  2  1  0
  2  3  1  0
  3  4  2  0
  4  5  1  0
  5  6  2  0
  6  7  1  0
  7  8  2  0
  8  9  1  0
  9 10  1  0
 10 11  2  0
 10 12  2  0
 10 13  1  0
 13 14  2  0
 14 15  1  0
 15 16  2  0
 16 17  1  0
 17 18  1  0
 18 19  2  0
 18 20  1  0
 20 21  1  0
 21 22  1  0
 22 23  1  0
 23 24  1  0
 24 25  1  0
 25 26  1  0
 26 27  1  0
 27 28  1  0
 23 29  1  0
 29 30  1  0
 17 31  2  0
  8  3  1  0
 31 13  1  0
 30 20  1  0
 28 24  1  0
  1 32  1  0
  1 33  1  0
  1 34  1  0
  4 35  1  0
  5 36  1  0
  6 37  1  0
  7 38  1  0
 14 39  1  0
 15 40  1  0
 16 41  1  0
 21 42  1  0
 21 43  1  0
 22 44  1  0
 22 45  1  0
 24 46  1  0
 25 47  1  0
 25 48  1  0
 26 49  1  0
 26 50  1  0
 27 51  1  0
 27 52  1  0
 28 53  1  0
 28 54  1  0
 29 55  1  0
 29 56  1  0
 30 57  1  0
 30 58  1  0
 31 59  1  0
M  CHG  1   9  -1
M  END
>  <UniqueID>  (31) 
28

>  <SMILES>  (31) 
COc1ccccc1[N-]S(=O)(=O)c1cccc(C(=O)N2CCN(C3CCCC3)CC2)c1

>  <Energy>  (31) 
81.16038510574191

>  <Genealogy>  (31) 
COc1ccccc1[N-]S(=O)(=O)c1cccc(C(=O)N2CCN(C3CCCC3)CC2)c1 (protonated)
COc1ccccc1[N-]S(=O)(=O)c1cccc(C(=O)N2CCN(C3CCCC3)CC2)c1 (3D coordinates assigned)
COc1ccccc1[N-]S(=O)(=O)c1cccc(C(=O)N2CCN(C3CCCC3)CC2)c1 (nonaromatic ring conformer: 81.16038510574191 kcal/mol)

>  <smiles>  (31) 
COc1ccccc1NS(=O)(=O)c1cccc(C(=O)N2CCN(C3CCCC3)CC2)c1

>  <score_type>  (31) 
oracle

>  <origin>  (31) 
adg

>  <m_score__min__energy>  (31) 
-12.140000000000001

>  <m_primary>  (31) 
energy

$$$$
31:0
     RDKit          3D

 50 52  0  0  0  0  0  0  0  0999 V2000
   59.7540   28.7630   44.6970 C   0  0  0  0  0  0  0  0  0  0  0  0
   59.5630   28.3290   45.9550 C   0  0  0  0  0  0  0  0  0  0  0  0
   58.7880   27.2260   46.3300 C   0  0  0  0  0  0  0  0  0  0  0  0
   58.1320   26.3730   45.5180 C   0  0  0  0  0  0  0  0  0  0  0  0
   57.1770   25.3500   45.9890 C   0  0  0  0  0  0  0  0  0  0  0  0
   57.4900   24.1070   46.3920 N   0  0  0  0  0  0  0  0  0  0  0  0
   56.3260   23.5890   46.8320 C   0  0  0  0  0  0  0  0  0  0  0  0
   56.2260   22.4220   47.2960 O   0  0  0  0  0  0  0  0  0  0  0  0
   55.2770   24.4370   46.7470 N   0  0  0  0  0  0  0  0  0  0  0  0
   55.8350   25.5460   46.2260 C   0  0  0  0  0  0  0  0  0  0  0  0
   55.1300   26.7170   45.9750 O   0  0  0  0  0  0  0  0  0  0  0  0
   58.8840   27.1340   47.7110 C   0  0  0  0  0  0  0  0  0  0  0  0
   59.6830   28.1780   48.1240 C   0  0  0  0  0  0  0  0  0  0  0  0
   60.1180   28.3870   49.5430 C   0  0  0  0  0  0  0  0  0  0  0  0
   60.1020   28.9110   47.0630 N   0  0  0  0  0  0  0  0  0  0  0  0
   61.0260   30.0560   47.1310 C   0  0  0  0  0  0  0  0  0  0  0  0
   60.2610   31.3540   47.0970 C   0  0  0  0  0  0  0  0  0  0  0  0
   60.5100   32.3470   48.0570 C   0  0  0  0  0  0  0  0  0  0  0  0
   59.7840   33.5480   48.0440 C   0  0  0  0  0  0  0  0  0  0  0  0
   60.0290   34.5870   49.0980 C   0  0  0  0  0  0  0  0  0  0  0  0
   58.7790   33.7370   47.0860 C   0  0  0  0  0  0  0  0  0  0  0  0
   58.5190   32.7510   46.1250 C   0  0  0  0  0  0  0  0  0  0  0  0
   57.4850   32.9510   45.1440 N   0  0  0  0  0  0  0  0  0  0  0  0
   56.9940   34.3090   44.8970 C   0  0  0  0  0  0  0  0  0  0  0  0
   57.0390   31.8680   44.3020 C   0  0  0  0  0  0  0  0  0  0  0  0
   57.5020   31.7350   42.8810 C   0  0  0  0  0  0  0  0  0  0  0  0
   56.2490   30.9980   44.7610 O   0  0  0  0  0  0  0  0  0  0  0  0
   59.2710   31.5680   46.1260 C   0  0  0  0  0  0  0  0  0  0  0  0
   60.3848   29.6444   44.5091 H   0  0  0  0  0  0  0  0  0  0  0  0
   59.2795   28.2367   43.8556 H   0  0  0  0  0  0  0  0  0  0  0  0
   58.3200   26.4435   44.4365 H   0  0  0  0  0  0  0  0  0  0  0  0
   58.4310   23.6550   46.4260 H   0  0  0  0  0  0  0  0  0  0  0  0
   58.4132   26.3744   48.3524 H   0  0  0  0  0  0  0  0  0  0  0  0
   59.3394   28.0129   50.2241 H   0  0  0  0  0  0  0  0  0  0  0  0
   61.0559   27.8412   49.7232 H   0  0  0  0  0  0  0  0  0  0  0  0
   60.2780   29.4603   49.7232 H   0  0  0  0  0  0  0  0  0  0  0  0
   61.6033   30.0004   48.0657 H   0  0  0  0  0  0  0  0  0  0  0  0
   61.7028   30.0190   46.2647 H   0  0  0  0  0  0  0  0  0  0  0  0
   61.2799   32.1828   48.8253 H   0  0  0  0  0  0  0  0  0  0  0  0
   59.9216   34.1317   50.0936 H   0  0  0  0  0  0  0  0  0  0  0  0
   61.0467   34.9894   48.9866 H   0  0  0  0  0  0  0  0  0  0  0  0
   59.2983   35.4017   48.9866 H   0  0  0  0  0  0  0  0  0  0  0  0
   58.1900   34.6660   47.0884 H   0  0  0  0  0  0  0  0  0  0  0  0
   56.8117   34.8133   45.8574 H   0  0  0  0  0  0  0  0  0  0  0  0
   57.7455   34.8721   44.3241 H   0  0  0  0  0  0  0  0  0  0  0  0
   56.0562   34.2613   44.3241 H   0  0  0  0  0  0  0  0  0  0  0  0
   58.5592   31.4313   42.8667 H   0  0  0  0  0  0  0  0  0  0  0  0
   56.8952   30.9749   42.3673 H   0  0  0  0  0  0  0  0  0  0  0  0
   57.3911   32.7013   42.3673 H   0  0  0  0  0  0  0  0  0  0  0  0
   59.0835   30.8015   45.3596 H   0  0  0  0  0  0  0  0  0  0  0  0
  1  2  2  0
  2  3  1  0
  3  4  2  3
  4  5  1  0
  5  6  1  0
  6  7  1  0
  7  8  2  0
  7  9  1  0
  9 10  1  0
 10 11  1  0
  3 12  1  0
 12 13  2  0
 13 14  1  0
 13 15  1  0
 15 16  1  0
 16 17  1  0
 17 18  2  0
 18 19  1  0
 19 20  1  0
 19 21  2  0
 21 22  1  0
 22 23  1  0
 23 24  1  0
 23 25  1  0
 25 26  1  0
 25 27  2  0
 22 28  2  0
 15  2  1  0
 28 17  1  0
 10  5  2  0
  1 29  1  0
  1 30  1  0
  4 31  1  0
  6 32  1  0
 12 33  1  0
 14 34  1  0
 14 35  1  0
 14 36  1  0
 16 37  1  0
 16 38  1  0
 18 39  1  0
 20 40  1  0
 20 41  1  0
 20 42  1  0
 21 43  1  0
 24 44  1  0
 24 45  1  0
 24 46  1  0
 26 47  1  0
 26 48  1  0
 26 49  1  0
 28 50  1  0
M  CHG  2   9  -1  11  -1
M  END
>  <UniqueID>  (32) 
29

>  <SMILES>  (32) 
C=c1c(=Cc2[nH]c(=O)[n-]c2[O-])cc(C)n1Cc1cc(C)cc(N(C)C(C)=O)c1

>  <Energy>  (32) 
119.04589467938376

>  <Genealogy>  (32) 
C=c1c(=Cc2[nH]c(=O)[n-]c2[O-])cc(C)n1Cc1cc(C)cc(N(C)C(C)=O)c1 (protonated)
C=c1c(=Cc2[nH]c(=O)[n-]c2[O-])cc(C)n1Cc1cc(C)cc(N(C)C(C)=O)c1 (3D coordinates assigned)
C=c1c(=Cc2[nH]c(=O)[n-]c2[O-])cc(C)n1Cc1cc(C)cc(N(C)C(C)=O)c1 (optimized conformer: 119.04589467938376 kcal/mol)

>  <smiles>  (32) 
C=c1c(=Cc2[nH]c(=O)[nH]c2O)cc(C)n1Cc1cc(C)cc(N(C)C(C)=O)c1

>  <score_type>  (32) 
oracle

>  <origin>  (32) 
adg

>  <m_score__min__energy>  (32) 
-14.17

>  <m_primary>  (32) 
energy

$$$$
32:0
     RDKit          3D

 50 52  0  0  0  0  0  0  0  0999 V2000
   59.6250   33.8450   50.7060 C   0  0  0  0  0  0  0  0  0  0  0  0
   59.9670   33.6050   49.2580 C   0  0  0  0  0  0  0  0  0  0  0  0
   58.9540   33.1520   48.3970 C   0  0  0  0  0  0  0  0  0  0  0  0
   59.2020   32.9430   47.0420 C   0  0  0  0  0  0  0  0  0  0  0  0
   58.1570   32.4760   46.2300 O   0  0  0  0  0  0  0  0  0  0  0  0
   58.1210   31.2260   45.5950 C   0  0  0  0  0  0  0  0  0  0  0  0
   59.1990   30.3320   45.6590 C   0  0  0  0  0  0  0  0  0  0  0  0
   59.1190   29.1060   44.9970 C   0  0  0  0  0  0  0  0  0  0  0  0
   57.9700   28.7700   44.2580 C   0  0  0  0  0  0  0  0  0  0  0  0
   57.8360   27.4640   43.5440 C   0  0  0  0  0  0  0  0  0  0  0  0
   57.5070   27.4800   42.3230 O   0  0  0  0  0  0  0  0  0  0  0  0
   58.0240   26.1950   44.2280 N   0  0  2  0  0  0  0  0  0  0  0  0
   57.3210   25.0660   43.5980 C   0  0  0  0  0  0  0  0  0  0  0  0
   57.1970   23.9860   44.6640 C   0  0  0  0  0  0  0  0  0  0  0  0
   57.3280   24.7110   45.9970 C   0  0  0  0  0  0  0  0  0  0  0  0
   57.6140   26.1800   45.6510 C   0  0  2  0  0  0  0  0  0  0  0  0
   56.3950   27.0790   45.9870 C   0  0  0  0  0  0  0  0  0  0  0  0
   55.2050   26.3390   45.9800 O   0  0  0  0  0  0  0  0  0  0  0  0
   56.9240   29.7090   44.2070 C   0  0  0  0  0  0  0  0  0  0  0  0
   57.0270   30.8950   44.8620 N   0  0  0  0  0  0  0  0  0  0  0  0
   60.4900   33.1600   46.5360 C   0  0  0  0  0  0  0  0  0  0  0  0
   61.5240   33.6120   47.3690 C   0  0  0  0  0  0  0  0  0  0  0  0
   62.8860   33.8430   46.7630 C   0  0  0  0  0  0  0  0  0  0  0  0
   61.2810   33.7980   48.7550 C   0  0  0  0  0  0  0  0  0  0  0  0
   62.4000   34.2550   49.6670 C   0  0  0  0  0  0  0  0  0  0  0  0
   60.3574   33.3310   51.3458 H   0  0  0  0  0  0  0  0  0  0  0  0
   59.6499   34.9248   50.9145 H   0  0  0  0  0  0  0  0  0  0  0  0
   58.6181   33.4544   50.9145 H   0  0  0  0  0  0  0  0  0  0  0  0
   57.9484   32.9591   48.7990 H   0  0  0  0  0  0  0  0  0  0  0  0
   60.1029   30.5954   46.2279 H   0  0  0  0  0  0  0  0  0  0  0  0
   59.9592   28.3983   45.0534 H   0  0  0  0  0  0  0  0  0  0  0  0
   59.0420   25.9500   44.1780 H   0  0  0  0  0  0  0  0  0  0  0  0
   56.3234   25.3812   43.2583 H   0  0  0  0  0  0  0  0  0  0  0  0
   57.8690   24.6965   42.7187 H   0  0  0  0  0  0  0  0  0  0  0  0
   56.2196   23.4864   44.5928 H   0  0  0  0  0  0  0  0  0  0  0  0
   57.9650   23.2073   44.5464 H   0  0  0  0  0  0  0  0  0  0  0  0
   56.3934   24.6281   46.5711 H   0  0  0  0  0  0  0  0  0  0  0  0
   58.1286   24.2784   46.6150 H   0  0  0  0  0  0  0  0  0  0  0  0
   58.4258   26.6084   46.2572 H   0  0  0  0  0  0  0  0  0  0  0  0
   56.5380   27.5199   46.9846 H   0  0  0  0  0  0  0  0  0  0  0  0
   56.3209   27.8669   45.2229 H   0  0  0  0  0  0  0  0  0  0  0  0
   55.1570   25.8860   46.8630 H   0  0  0  0  0  0  0  0  0  0  0  0
   56.0145   29.4812   43.6317 H   0  0  0  0  0  0  0  0  0  0  0  0
   60.6933   32.9734   45.4712 H   0  0  0  0  0  0  0  0  0  0  0  0
   63.6278   33.9688   47.5654 H   0  0  0  0  0  0  0  0  0  0  0  0
   63.1619   32.9788   46.1408 H   0  0  0  0  0  0  0  0  0  0  0  0
   62.8615   34.7498   46.1408 H   0  0  0  0  0  0  0  0  0  0  0  0
   62.0927   34.1295   50.7157 H   0  0  0  0  0  0  0  0  0  0  0  0
   63.2997   33.6523   49.4739 H   0  0  0  0  0  0  0  0  0  0  0  0
   62.6205   35.3152   49.4739 H   0  0  0  0  0  0  0  0  0  0  0  0
  1  2  1  0
  2  3  2  0
  3  4  1  0
  4  5  1  0
  5  6  1  0
  6  7  2  0
  7  8  1  0
  8  9  2  0
  9 10  1  0
 10 11  2  0
 10 12  1  0
 12 13  1  0
 13 14  1  0
 14 15  1  0
 15 16  1  0
 16 17  1  0
 17 18  1  0
  9 19  1  0
 19 20  2  0
  4 21  2  0
 21 22  1  0
 22 23  1  0
 22 24  2  0
 24 25  1  0
 24  2  1  0
 20  6  1  0
 16 12  1  0
  1 26  1  0
  1 27  1  0
  1 28  1  0
  3 29  1  0
  7 30  1  0
  8 31  1  0
 12 32  1  1
 13 33  1  0
 13 34  1  0
 14 35  1  0
 14 36  1  0
 15 37  1  0
 15 38  1  0
 16 39  1  1
 17 40  1  0
 17 41  1  0
 18 42  1  0
 19 43  1  0
 21 44  1  0
 23 45  1  0
 23 46  1  0
 23 47  1  0
 25 48  1  0
 25 49  1  0
 25 50  1  0
M  CHG  1  12   1
M  END
>  <UniqueID>  (33) 
30

>  <SMILES>  (33) 
Cc1cc(Oc2ccc(C(=O)[N@@H+]3CCC[C@@H]3CO)cn2)cc(C)c1C

>  <Energy>  (33) 
72.51044518144546

>  <Genealogy>  (33) 
Cc1cc(Oc2ccc(C(=O)[NH+]3CCCC3CO)cn2)cc(C)c1C (protonated)
Cc1cc(Oc2ccc(C(=O)[N@@H+]3CCC[C@@H]3CO)cn2)cc(C)c1C (chirality)
Cc1cc(Oc2ccc(C(=O)[N@@H+]3CCC[C@@H]3CO)cn2)cc(C)c1C (3D coordinates assigned)
Cc1cc(Oc2ccc(C(=O)[N@@H+]3CCC[C@@H]3CO)cn2)cc(C)c1C (nonaromatic ring conformer: 72.51044518144546 kcal/mol)

>  <smiles>  (33) 
Cc1cc(Oc2ccc(C(=O)N3CCCC3CO)cn2)cc(C)c1C

>  <score_type>  (33) 
oracle

>  <origin>  (33) 
adg

>  <m_score__min__energy>  (33) 
-6.71

>  <m_primary>  (33) 
energy

$$$$
33:0
     RDKit          3D

 46 48  0  0  0  0  0  0  0  0999 V2000
   53.5980   26.5930   46.0090 H   0  0  0  0  0  0  0  0  0  0  0  0
   54.3850   25.9510   45.7690 N   0  0  0  0  0  0  0  0  0  0  0  0
   55.7340   26.3100   46.0520 C   0  0  0  0  0  0  0  0  0  0  0  0
   56.4740   25.5100   46.6860 O   0  0  0  0  0  0  0  0  0  0  0  0
   56.2370   27.5760   45.6130 N   0  0  0  0  0  0  0  0  0  0  0  0
   55.5870   28.2330   45.1240 H   0  0  0  0  0  0  0  0  0  0  0  0
   57.6200   27.9960   45.8370 C   0  0  0  0  0  0  0  0  0  0  0  0
   58.2744   27.4843   45.1160 H   0  0  0  0  0  0  0  0  0  0  0  0
   57.9081   27.7333   46.8656 H   0  0  0  0  0  0  0  0  0  0  0  0
   57.7580   29.4920   45.6590 C   0  0  0  0  0  0  0  0  0  0  0  0
   58.5150   30.2880   46.5520 C   0  0  0  0  0  0  0  0  0  0  0  0
   59.2420   29.7050   47.6930 C   0  0  0  0  0  0  0  0  0  0  0  0
   59.9990   28.5430   47.4980 C   0  0  0  0  0  0  0  0  0  0  0  0
   60.0350   28.0744   46.5034 H   0  0  0  0  0  0  0  0  0  0  0  0
   60.7080   27.9760   48.5580 C   0  0  0  0  0  0  0  0  0  0  0  0
   61.3078   27.0687   48.3934 H   0  0  0  0  0  0  0  0  0  0  0  0
   60.6580   28.5610   49.8360 C   0  0  0  0  0  0  0  0  0  0  0  0
   61.3550   28.0300   50.9330 O   0  0  0  0  0  0  0  0  0  0  0  0
   61.3750   26.6490   51.2800 C   0  0  0  0  0  0  0  0  0  0  0  0
   61.3765   26.5461   52.3752 H   0  0  0  0  0  0  0  0  0  0  0  0
   60.4839   26.1541   50.8664 H   0  0  0  0  0  0  0  0  0  0  0  0
   62.2800   26.1801   50.8664 H   0  0  0  0  0  0  0  0  0  0  0  0
   59.8870   29.7120   50.0340 C   0  0  0  0  0  0  0  0  0  0  0  0
   59.8426   30.1710   51.0327 H   0  0  0  0  0  0  0  0  0  0  0  0
   59.1670   30.2900   48.9700 C   0  0  0  0  0  0  0  0  0  0  0  0
   58.3690   31.4320   49.1470 O   0  0  0  0  0  0  0  0  0  0  0  0
   58.2720   32.1710   50.3600 C   0  0  0  0  0  0  0  0  0  0  0  0
   58.3620   31.4852   51.2153 H   0  0  0  0  0  0  0  0  0  0  0  0
   59.0800   32.9163   50.4009 H   0  0  0  0  0  0  0  0  0  0  0  0
   57.2990   32.6825   50.4009 H   0  0  0  0  0  0  0  0  0  0  0  0
   58.5580   31.6370   46.3800 N   0  0  0  0  0  0  0  0  0  0  0  0
   57.9140   32.2680   45.3620 C   0  0  0  0  0  0  0  0  0  0  0  0
   58.0150   33.7350   45.2440 C   0  0  0  0  0  0  0  0  0  0  0  0
   57.0250   34.4070   44.8410 O   0  0  0  0  0  0  0  0  0  0  0  0
   59.2500   34.3820   45.5900 N   0  0  0  0  0  0  0  0  0  0  0  0
   59.9240   34.2130   46.6880 C   0  0  0  0  0  0  0  0  0  0  0  0
   59.4870   34.5720   47.9160 N   0  0  0  0  0  0  0  0  0  0  0  0
   60.4030   34.2740   48.8760 C   0  0  0  0  0  0  0  0  0  0  0  0
   60.2330   34.4892   49.9413 H   0  0  0  0  0  0  0  0  0  0  0  0
   61.5710   33.6770   48.4120 C   0  0  0  0  0  0  0  0  0  0  0  0
   62.4252   33.3634   49.0301 H   0  0  0  0  0  0  0  0  0  0  0  0
   61.4500   33.5180   46.7410 S   0  0  0  0  0  0  0  0  0  0  0  0
   57.1670   31.5120   44.4490 C   0  0  0  0  0  0  0  0  0  0  0  0
   56.6450   32.0065   43.6166 H   0  0  0  0  0  0  0  0  0  0  0  0
   57.0900   30.1290   44.6030 C   0  0  0  0  0  0  0  0  0  0  0  0
   56.5008   29.5325   43.8909 H   0  0  0  0  0  0  0  0  0  0  0  0
  1  2  1  0
  2  3  1  0
  3  4  2  0
  3  5  1  0
  5  6  1  0
  5  7  1  0
  7  8  1  0
  7  9  1  0
  7 10  1  0
 10 11  2  0
 11 12  1  0
 12 13  2  0
 13 14  1  0
 13 15  1  0
 15 16  1  0
 15 17  2  0
 17 18  1  0
 18 19  1  0
 19 20  1  0
 19 21  1  0
 19 22  1  0
 17 23  1  0
 23 24  1  0
 23 25  2  0
 25 26  1  0
 26 27  1  0
 27 28  1  0
 27 29  1  0
 27 30  1  0
 11 31  1  0
 31 32  2  0
 32 33  1  0
 33 34  2  0
 33 35  1  0
 35 36  2  0
 36 37  1  0
 37 38  1  0
 38 39  1  0
 38 40  2  0
 40 41  1  0
 40 42  1  0
 32 43  1  0
 43 44  1  0
 43 45  2  0
 45 46  1  0
 45 10  1  0
 25 12  1  0
 42 36  1  0
M  CHG  2   2  -1  37  -1
M  END
>  <UniqueID>  (34) 
31

>  <SMILES>  (34) 
COc1ccc(-c2nc(C(=O)/N=c3\[n-]ccs3)ccc2CNC([NH-])=O)c(OC)c1

>  <Energy>  (34) 
83.24601201088716

>  <Genealogy>  (34) 
COc1ccc(-c2nc(C(=O)N=c3[n-]ccs3)ccc2CNC([NH-])=O)c(OC)c1 (protonated)
COc1ccc(-c2nc(C(=O)/N=c3\[n-]ccs3)ccc2CNC([NH-])=O)c(OC)c1 (cis-trans isomerization)
COc1ccc(-c2nc(C(=O)/N=c3\[n-]ccs3)ccc2CNC([NH-])=O)c(OC)c1 (3D coordinates assigned)
COc1ccc(-c2nc(C(=O)/N=c3\[n-]ccs3)ccc2CNC([NH-])=O)c(OC)c1 (optimized conformer: 83.24601201088716 kcal/mol)

>  <smiles>  (34) 
COc1ccc(-c2nc(C(=O)N=c3[nH]ccs3)ccc2CNC(N)=O)c(OC)c1

>  <score_type>  (34) 
oracle

>  <origin>  (34) 
adg

>  <m_score__min__energy>  (34) 
-10.84

>  <m_primary>  (34) 
energy

$$$$
34:0
     RDKit          3D

 49 52  0  0  0  0  0  0  0  0999 V2000
   53.1361   23.6814   45.0880 H   0  0  0  0  0  0  0  0  0  0  0  0
   54.1450   24.1150   45.1530 C   0  0  0  0  0  0  0  0  0  0  0  0
   54.3940   25.2860   45.7980 N   0  0  0  0  0  0  0  0  0  0  0  0
   55.7010   25.6170   45.7500 C   0  0  0  0  0  0  0  0  0  0  0  0
   56.1530   26.7120   46.2870 N   0  0  0  0  0  0  0  0  0  0  0  0
   56.5500   27.9170   45.6120 C   0  0  0  0  0  0  0  0  0  0  0  0
   55.6900   28.6570   45.0590 O   0  0  0  0  0  0  0  0  0  0  0  0
   57.9850   28.2710   45.5060 C   0  0  0  0  0  0  0  0  0  0  0  0
   58.9360   27.4030   46.0750 C   0  0  0  0  0  0  0  0  0  0  0  0
   58.6018   26.4809   46.5730 H   0  0  0  0  0  0  0  0  0  0  0  0
   60.2990   27.7000   46.0140 C   0  0  0  0  0  0  0  0  0  0  0  0
   61.0309   27.0134   46.4644 H   0  0  0  0  0  0  0  0  0  0  0  0
   60.7340   28.8640   45.3840 C   0  0  0  0  0  0  0  0  0  0  0  0
   61.8075   29.1011   45.3470 H   0  0  0  0  0  0  0  0  0  0  0  0
   59.8080   29.7290   44.8000 C   0  0  0  0  0  0  0  0  0  0  0  0
   60.1574   30.6450   44.3011 H   0  0  0  0  0  0  0  0  0  0  0  0
   58.4370   29.4420   44.8430 C   0  0  0  0  0  0  0  0  0  0  0  0
   57.3240   30.5670   43.9830 S   0  0  0  0  0  0  0  0  0  0  0  0
   57.9850   32.0140   44.8110 C   0  0  0  0  0  0  0  0  0  0  0  0
   58.4050   33.1200   44.0640 C   0  0  0  0  0  0  0  0  0  0  0  0
   58.3151   33.1085   42.9677 H   0  0  0  0  0  0  0  0  0  0  0  0
   58.9380   34.2380   44.7080 C   0  0  0  0  0  0  0  0  0  0  0  0
   59.2785   35.1012   44.1173 H   0  0  0  0  0  0  0  0  0  0  0  0
   59.0400   34.2630   46.1020 C   0  0  0  0  0  0  0  0  0  0  0  0
   59.4722   35.1413   46.6039 H   0  0  0  0  0  0  0  0  0  0  0  0
   58.5920   33.1690   46.8660 C   0  0  0  0  0  0  0  0  0  0  0  0
   58.7080   33.1570   48.3000 N   0  0  0  0  0  0  0  0  0  0  0  0
   58.9170   34.0610   48.7800 H   0  0  0  0  0  0  0  0  0  0  0  0
   58.7000   31.9570   49.0920 C   0  0  0  0  0  0  0  0  0  0  0  0
   59.0200   30.8570   48.5630 O   0  0  0  0  0  0  0  0  0  0  0  0
   58.3700   32.0020   50.5380 C   0  0  0  0  0  0  0  0  0  0  0  0
   58.8350   33.0630   51.3360 C   0  0  0  0  0  0  0  0  0  0  0  0
   59.4467   33.8584   50.8853 H   0  0  0  0  0  0  0  0  0  0  0  0
   58.5250   33.1130   52.6970 C   0  0  0  0  0  0  0  0  0  0  0  0
   58.8859   33.9519   53.3102 H   0  0  0  0  0  0  0  0  0  0  0  0
   57.7590   32.1030   53.2830 C   0  0  0  0  0  0  0  0  0  0  0  0
   57.5054   32.1561   54.3521 H   0  0  0  0  0  0  0  0  0  0  0  0
   57.3130   31.0220   52.5110 C   0  0  0  0  0  0  0  0  0  0  0  0
   56.4660   29.9500   53.1330 C   0  0  0  0  0  0  0  0  0  0  0  0
   56.5255   30.0253   54.2288 H   0  0  0  0  0  0  0  0  0  0  0  0
   55.4212   30.0764   52.8130 H   0  0  0  0  0  0  0  0  0  0  0  0
   56.8306   28.9628   52.8130 H   0  0  0  0  0  0  0  0  0  0  0  0
   57.6080   30.9810   51.1380 C   0  0  0  0  0  0  0  0  0  0  0  0
   57.2405   30.1439   50.5262 H   0  0  0  0  0  0  0  0  0  0  0  0
   58.0770   32.0410   46.2080 C   0  0  0  0  0  0  0  0  0  0  0  0
   57.7433   31.1720   46.7941 H   0  0  0  0  0  0  0  0  0  0  0  0
   56.5980   24.4700   44.8950 S   0  0  0  0  0  0  0  0  0  0  0  0
   55.2550   23.5050   44.5820 C   0  0  0  0  0  0  0  0  0  0  0  0
   55.2560   22.5575   44.0233 H   0  0  0  0  0  0  0  0  0  0  0  0
  1  2  1  0
  2  3  1  0
  3  4  1  0
  4  5  2  0
  5  6  1  0
  6  7  2  0
  6  8  1  0
  8  9  2  0
  9 10  1  0
  9 11  1  0
 11 12  1  0
 11 13  2  0
 13 14  1  0
 13 15  1  0
 15 16  1  0
 15 17  2  0
 17 18  1  0
 18 19  1  0
 19 20  2  0
 20 21  1  0
 20 22  1  0
 22 23  1  0
 22 24  2  0
 24 25  1  0
 24 26  1  0
 26 27  1  0
 27 28  1  0
 27 29  1  0
 29 30  2  0
 29 31  1  0
 31 32  2  0
 32 33  1  0
 32 34  1  0
 34 35  1  0
 34 36  2  0
 36 37  1  0
 36 38  1  0
 38 39  1  0
 39 40  1  0
 39 41  1  0
 39 42  1  0
 38 43  2  0
 43 44  1  0
 26 45  2  0
 45 46  1  0
  4 47  1  0
 47 48  1  0
 48 49  1  0
 48  2  2  0
 17  8  1  0
 45 19  1  0
 43 31  1  0
M  CHG  1   3  -1
M  END
>  <UniqueID>  (35) 
32

>  <SMILES>  (35) 
Cc1cccc(C(=O)Nc2cccc(Sc3ccccc3C(=O)/N=c3/[n-]ccs3)c2)c1

>  <Energy>  (35) 
91.62774433006085

>  <Genealogy>  (35) 
Cc1cccc(C(=O)Nc2cccc(Sc3ccccc3C(=O)N=c3[n-]ccs3)c2)c1 (protonated)
Cc1cccc(C(=O)Nc2cccc(Sc3ccccc3C(=O)/N=c3/[n-]ccs3)c2)c1 (cis-trans isomerization)
Cc1cccc(C(=O)Nc2cccc(Sc3ccccc3C(=O)/N=c3/[n-]ccs3)c2)c1 (3D coordinates assigned)
Cc1cccc(C(=O)Nc2cccc(Sc3ccccc3C(=O)/N=c3/[n-]ccs3)c2)c1 (optimized conformer: 91.62774433006085 kcal/mol)

>  <smiles>  (35) 
Cc1cccc(C(=O)Nc2cccc(Sc3ccccc3C(=O)N=c3[nH]ccs3)c2)c1

>  <score_type>  (35) 
oracle

>  <origin>  (35) 
adg

>  <m_score__min__energy>  (35) 
-11.279999999999999

>  <m_primary>  (35) 
energy

$$$$
35:0
     RDKit          3D

 45 48  0  0  0  0  0  0  0  0999 V2000
   55.6330   28.5900   45.2250 O   0  0  0  0  0  0  0  0  0  0  0  0
   56.7520   28.1130   45.5540 C   0  0  0  0  0  0  0  0  0  0  0  0
   57.9400   28.8960   45.3740 N   0  0  0  0  0  0  0  0  0  0  0  0
   58.0100   30.2510   44.9030 C   0  0  0  0  0  0  0  0  0  0  0  0
   58.6580   31.2540   45.6490 C   0  0  0  0  0  0  0  0  0  0  0  0
   58.6930   32.5820   45.1900 C   0  0  0  0  0  0  0  0  0  0  0  0
   59.3890   33.6270   45.9790 C   0  0  0  0  0  0  0  0  0  0  0  0
   59.1620   34.8440   45.7350 O   0  0  0  0  0  0  0  0  0  0  0  0
   60.3340   33.2800   47.0090 N   0  0  0  0  0  0  0  0  0  0  0  0
   61.7690   33.3520   46.7110 C   0  0  0  0  0  0  0  0  0  0  0  0
   62.4980   34.0850   47.8360 C   0  0  0  0  0  0  0  0  0  0  0  0
   62.2860   33.3610   49.1680 C   0  0  0  0  0  0  0  0  0  0  0  0
   60.8290   33.0570   49.4260 C   0  0  0  0  0  0  0  0  0  0  0  0
   60.4130   32.7600   50.7320 C   0  0  0  0  0  0  0  0  0  0  0  0
   59.0870   32.4060   50.9890 C   0  0  0  0  0  0  0  0  0  0  0  0
   58.1700   32.3280   49.9410 C   0  0  0  0  0  0  0  0  0  0  0  0
   58.5730   32.6070   48.6330 C   0  0  0  0  0  0  0  0  0  0  0  0
   59.9030   32.9830   48.3580 C   0  0  0  0  0  0  0  0  0  0  0  0
   58.0770   32.8990   43.9710 C   0  0  0  0  0  0  0  0  0  0  0  0
   57.4110   31.9160   43.2390 C   0  0  0  0  0  0  0  0  0  0  0  0
   57.3650   30.5960   43.7000 C   0  0  0  0  0  0  0  0  0  0  0  0
   56.6820   29.6440   42.9430 O   0  0  0  0  0  0  0  0  0  0  0  0
   56.8300   26.7660   46.1850 C   0  0  0  0  0  0  0  0  0  0  0  0
   55.6980   25.9280   46.2720 C   0  0  0  0  0  0  0  0  0  0  0  0
   54.4600   26.3350   45.7890 O   0  0  0  0  0  0  0  0  0  0  0  0
   55.7990   24.7030   46.8500 N   0  0  0  0  0  0  0  0  0  0  0  0
   56.9750   24.2600   47.3580 C   0  0  0  0  0  0  0  0  0  0  0  0
   57.0410   23.1200   47.8880 O   0  0  0  0  0  0  0  0  0  0  0  0
   58.0790   25.0420   47.2950 N   0  0  0  0  0  0  0  0  0  0  0  0
   58.0390   26.2740   46.7260 C   0  0  0  0  0  0  0  0  0  0  0  0
   59.0970   26.9580   46.6820 O   0  0  0  0  0  0  0  0  0  0  0  0
   59.1425   30.9953   46.6021 H   0  0  0  0  0  0  0  0  0  0  0  0
   62.1735   32.3334   46.6173 H   0  0  0  0  0  0  0  0  0  0  0  0
   61.9159   33.8988   45.7679 H   0  0  0  0  0  0  0  0  0  0  0  0
   63.5738   34.1194   47.6091 H   0  0  0  0  0  0  0  0  0  0  0  0
   62.0965   35.1060   47.9163 H   0  0  0  0  0  0  0  0  0  0  0  0
   62.8476   32.4153   49.1506 H   0  0  0  0  0  0  0  0  0  0  0  0
   62.6408   34.0223   49.9723 H   0  0  0  0  0  0  0  0  0  0  0  0
   61.1363   32.8062   51.5595 H   0  0  0  0  0  0  0  0  0  0  0  0
   58.7655   32.1886   52.0183 H   0  0  0  0  0  0  0  0  0  0  0  0
   57.1265   32.0460   50.1451 H   0  0  0  0  0  0  0  0  0  0  0  0
   57.8461   32.5326   47.8107 H   0  0  0  0  0  0  0  0  0  0  0  0
   58.1192   33.9298   43.5894 H   0  0  0  0  0  0  0  0  0  0  0  0
   56.9181   32.1808   42.2919 H   0  0  0  0  0  0  0  0  0  0  0  0
   56.5360   28.6960   43.2670 H   0  0  0  0  0  0  0  0  0  0  0  0
  1  2  2  0
  2  3  1  0
  3  4  1  0
  4  5  2  0
  5  6  1  0
  6  7  1  0
  7  8  2  0
  7  9  1  0
  9 10  1  0
 10 11  1  0
 11 12  1  0
 12 13  1  0
 13 14  2  0
 14 15  1  0
 15 16  2  0
 16 17  1  0
 17 18  2  0
  6 19  2  0
 19 20  1  0
 20 21  2  0
 21 22  1  0
  2 23  1  0
 23 24  2  0
 24 25  1  0
 24 26  1  0
 26 27  1  0
 27 28  2  0
 27 29  1  0
 29 30  1  0
 30 31  2  0
 21  4  1  0
 30 23  1  0
 18  9  1  0
 18 13  1  0
  5 32  1  0
 10 33  1  0
 10 34  1  0
 11 35  1  0
 11 36  1  0
 12 37  1  0
 12 38  1  0
 14 39  1  0
 15 40  1  0
 16 41  1  0
 17 42  1  0
 19 43  1  0
 20 44  1  0
 22 45  1  0
M  CHG  4   3  -1  25  -1  26  -1  29  -1
M  END
>  <UniqueID>  (36) 
33

>  <SMILES>  (36) 
O=C([N-]c1cc(C(=O)N2CCCc3ccccc32)ccc1O)c1c([O-])[n-]c(=O)[n-]c1=O

>  <Energy>  (36) 
67.15314044958734

>  <Genealogy>  (36) 
O=C([N-]c1cc(C(=O)N2CCCc3ccccc32)ccc1O)c1c([O-])[n-]c(=O)[n-]c1=O (protonated)
O=C([N-]c1cc(C(=O)N2CCCc3ccccc32)ccc1O)c1c([O-])[n-]c(=O)[n-]c1=O (3D coordinates assigned)
O=C([N-]c1cc(C(=O)N2CCCc3ccccc32)ccc1O)c1c([O-])[n-]c(=O)[n-]c1=O (nonaromatic ring conformer: 67.15314044958734 kcal/mol)

>  <smiles>  (36) 
O=C(Nc1cc(C(=O)N2CCCc3ccccc32)ccc1O)c1c(O)[nH]c(=O)[nH]c1=O

>  <score_type>  (36) 
oracle

>  <origin>  (36) 
adg

>  <m_score__min__energy>  (36) 
-18.66

>  <m_primary>  (36) 
energy

$$$$
36:0
     RDKit          3D

 40 42  0  0  1  0  0  0  0  0999 V2000
   56.9970   30.4370   53.8920 C   0  0  0  0  0  0  0  0  0  0  0  0
   56.7040   30.4960   52.1080 S   0  0  0  0  0  0  0  0  0  0  0  0
   57.7440   29.5530   51.5890 O   0  0  0  0  0  0  0  0  0  0  0  0
   55.3030   30.0030   51.9940 O   0  0  0  0  0  0  0  0  0  0  0  0
   56.9400   32.1330   51.7220 N   0  0  0  0  0  0  0  0  0  0  0  0
   58.0970   32.6700   51.5280 C   0  0  0  0  0  0  0  0  0  0  0  0
   58.6010   32.6550   50.3060 N   0  0  0  0  0  0  0  0  0  0  0  0
   59.8070   33.2150   49.9950 C   0  0  0  0  0  0  0  0  0  0  0  0
   60.2190   33.1060   48.6620 N   0  0  0  0  0  0  0  0  0  0  0  0
   60.9410   34.2110   48.0660 C   0  0  0  0  0  0  0  0  0  0  0  0
   60.3760   34.6240   46.7410 C   0  0  0  0  0  0  0  0  0  0  0  0
   59.3410   33.7000   46.2570 C   0  0  0  0  0  0  0  0  0  0  0  0
   58.5110   34.1590   45.2360 C   0  0  0  0  0  0  0  0  0  0  0  0
   57.5150   33.3800   44.7020 C   0  0  0  0  0  0  0  0  0  0  0  0
   57.3370   32.1040   45.1970 C   0  0  0  0  0  0  0  0  0  0  0  0
   56.2950   31.3660   44.6040 O   0  0  0  0  0  0  0  0  0  0  0  0
   56.4230   29.9710   44.4940 C   0  0  0  0  0  0  0  0  0  0  0  0
   55.5080   29.1940   44.8700 O   0  0  0  0  0  0  0  0  0  0  0  0
   58.1230   31.5940   46.2050 C   0  0  0  0  0  0  0  0  0  0  0  0
   59.1170   32.4260   46.7090 C   0  0  0  0  0  0  0  0  0  0  0  0
   60.0040   31.9440   47.8130 C   0  0  0  0  0  0  0  0  0  0  0  0
   60.4840   33.7950   50.9890 N   0  0  0  0  0  0  0  0  0  0  0  0
   59.9980   33.8290   52.2640 C   0  0  0  0  0  0  0  0  0  0  0  0
   58.7710   33.2580   52.5750 C   0  0  0  0  0  0  0  0  0  0  0  0
   58.2290   33.2390   53.7890 F   0  0  0  0  0  0  0  0  0  0  0  0
   56.0537   30.6269   54.4250 H   0  0  0  0  0  0  0  0  0  0  0  0
   57.3805   29.4436   54.1679 H   0  0  0  0  0  0  0  0  0  0  0  0
   57.7350   31.2046   54.1679 H   0  0  0  0  0  0  0  0  0  0  0  0
   60.8964   35.0706   48.7509 H   0  0  0  0  0  0  0  0  0  0  0  0
   61.9759   33.8787   47.8967 H   0  0  0  0  0  0  0  0  0  0  0  0
   59.9342   35.6262   46.8430 H   0  0  0  0  0  0  0  0  0  0  0  0
   61.1983   34.6165   46.0104 H   0  0  0  0  0  0  0  0  0  0  0  0
   58.6586   35.1769   44.8460 H   0  0  0  0  0  0  0  0  0  0  0  0
   56.8722   33.7646   43.8965 H   0  0  0  0  0  0  0  0  0  0  0  0
   57.3453   29.5483   44.0690 H   0  0  0  0  0  0  0  0  0  0  0  0
   57.9722   30.5761   46.5938 H   0  0  0  0  0  0  0  0  0  0  0  0
   59.5133   31.1381   48.3785 H   0  0  0  0  0  0  0  0  0  0  0  0
   60.9499   31.5320   47.4314 H   0  0  0  0  0  0  0  0  0  0  0  0
   61.4250   34.2360   50.7610 H   0  0  0  0  0  0  0  0  0  0  0  0
   60.5863   34.3154   53.0560 H   0  0  0  0  0  0  0  0  0  0  0  0
  1  2  1  0
  2  3  2  0
  2  4  2  0
  2  5  1  0
  5  6  2  0
  6  7  1  0
  7  8  2  0
  8  9  1  0
  9 10  1  0
 10 11  1  0
 11 12  1  0
 12 13  2  0
 13 14  1  0
 14 15  2  0
 15 16  1  0
 16 17  1  0
 17 18  2  0
 15 19  1  0
 19 20  2  0
 20 21  1  0
  8 22  1  0
 22 23  1  0
 23 24  2  0
 24 25  1  0
 24  6  1  0
 21  9  1  0
 20 12  1  0
  1 26  1  0
  1 27  1  0
  1 28  1  0
 10 29  1  0
 10 30  1  0
 11 31  1  0
 11 32  1  0
 13 33  1  0
 14 34  1  0
 17 35  1  0
 19 36  1  0
 21 37  1  0
 21 38  1  0
 22 39  1  0
 23 40  1  0
M  END
>  <smiles>  (37) 
CS(=O)(=O)N=c1nc(N2CCc3ccc(OC=O)cc3C2)[nH]cc1F

>  <score_type>  (37) 
oracle

>  <origin>  (37) 
adg

>  <m_score__min__energy>  (37) 
-8.1400000000000006

>  <m_primary>  (37) 
energy

$$$$
37:0
     RDKit          3D

 45 47  0  0  0  0  0  0  0  0999 V2000
   61.1270   33.7180   50.7260 C   0  0  0  0  0  0  0  0  0  0  0  0
   59.6420   33.7090   50.9160 C   0  0  0  0  0  0  0  0  0  0  0  0
   59.1380   34.4200   51.8250 O   0  0  0  0  0  0  0  0  0  0  0  0
   58.7740   32.9370   50.0760 N   0  0  0  0  0  0  0  0  0  0  0  0
   58.4610   31.5840   50.3050 N   0  0  0  0  0  0  0  0  0  0  0  0
   58.8650   30.4900   49.6260 C   0  0  0  0  0  0  0  0  0  0  0  0
   59.7570   30.4840   48.4190 C   0  0  0  0  0  0  0  0  0  0  0  0
   59.0610   31.1180   47.2440 C   0  0  0  0  0  0  0  0  0  0  0  0
   58.1730   30.4460   46.3940 C   0  0  0  0  0  0  0  0  0  0  0  0
   57.7660   29.0780   46.4980 N   0  0  0  0  0  0  0  0  0  0  0  0
   56.9780   28.3640   45.5370 C   0  0  0  0  0  0  0  0  0  0  0  0
   55.8710   28.8530   45.1860 O   0  0  0  0  0  0  0  0  0  0  0  0
   57.3760   27.0010   45.0270 C   0  0  0  0  0  0  0  0  0  0  0  0
   57.2800   25.9360   46.1290 C   0  0  0  0  0  0  0  0  0  0  0  0
   55.8630   25.4930   46.3280 C   0  0  0  0  0  0  0  0  0  0  0  0
   55.6140   24.3390   46.7720 O   0  0  0  0  0  0  0  0  0  0  0  0
   54.8140   26.3420   45.9920 O   0  0  0  0  0  0  0  0  0  0  0  0
   57.7710   31.4330   45.0950 S   0  0  0  0  0  0  0  0  0  0  0  0
   58.6600   32.7560   45.6210 C   0  0  0  0  0  0  0  0  0  0  0  0
   59.3440   32.4220   46.7870 C   0  0  0  0  0  0  0  0  0  0  0  0
   60.2230   33.4190   47.5010 C   0  0  0  0  0  0  0  0  0  0  0  0
   60.6350   34.5800   46.5790 C   0  0  0  0  0  0  0  0  0  0  0  0
   59.4290   35.1250   45.7930 C   0  0  0  0  0  0  0  0  0  0  0  0
   58.8380   34.0430   44.8750 C   0  0  0  0  0  0  0  0  0  0  0  0
   58.3790   29.3650   50.1990 N   0  0  0  0  0  0  0  0  0  0  0  0
   57.6890   29.7350   51.2720 N   0  0  0  0  0  0  0  0  0  0  0  0
   57.7630   31.0790   51.3350 C   0  0  0  0  0  0  0  0  0  0  0  0
   57.0470   31.9740   52.5010 S   0  0  0  0  0  0  0  0  0  0  0  0
   61.6223   33.7210   51.7082 H   0  0  0  0  0  0  0  0  0  0  0  0
   61.4303   32.8217   50.1651 H   0  0  0  0  0  0  0  0  0  0  0  0
   61.4194   34.6179   50.1651 H   0  0  0  0  0  0  0  0  0  0  0  0
   60.6739   31.0485   48.6440 H   0  0  0  0  0  0  0  0  0  0  0  0
   60.0046   29.4426   48.1655 H   0  0  0  0  0  0  0  0  0  0  0  0
   56.7077   26.7201   44.1997 H   0  0  0  0  0  0  0  0  0  0  0  0
   58.4210   27.0520   44.6873 H   0  0  0  0  0  0  0  0  0  0  0  0
   57.8914   25.0673   45.8435 H   0  0  0  0  0  0  0  0  0  0  0  0
   57.6452   26.3728   47.0702 H   0  0  0  0  0  0  0  0  0  0  0  0
   59.6730   33.8261   48.3623 H   0  0  0  0  0  0  0  0  0  0  0  0
   61.1364   32.8991   47.8255 H   0  0  0  0  0  0  0  0  0  0  0  0
   61.0598   35.3898   47.1905 H   0  0  0  0  0  0  0  0  0  0  0  0
   61.3777   34.2051   45.8594 H   0  0  0  0  0  0  0  0  0  0  0  0
   58.6566   35.4564   46.5027 H   0  0  0  0  0  0  0  0  0  0  0  0
   59.7664   35.9674   45.1712 H   0  0  0  0  0  0  0  0  0  0  0  0
   57.8607   34.3815   44.5004 H   0  0  0  0  0  0  0  0  0  0  0  0
   59.5298   33.8735   44.0368 H   0  0  0  0  0  0  0  0  0  0  0  0
  1  2  1  0
  2  3  2  0
  2  4  1  0
  4  5  1  0
  5  6  1  0
  6  7  1  0
  7  8  1  0
  8  9  2  0
  9 10  1  0
 10 11  1  0
 11 12  2  0
 11 13  1  0
 13 14  1  0
 14 15  1  0
 15 16  2  0
 15 17  1  0
  9 18  1  0
 18 19  1  0
 19 20  2  0
 20 21  1  0
 21 22  1  0
 22 23  1  0
 23 24  1  0
  6 25  2  0
 25 26  1  0
 26 27  1  0
 27 28  2  0
 27  5  1  0
 20  8  1  0
 24 19  1  0
  1 29  1  0
  1 30  1  0
  1 31  1  0
  7 32  1  0
  7 33  1  0
 13 34  1  0
 13 35  1  0
 14 36  1  0
 14 37  1  0
 21 38  1  0
 21 39  1  0
 22 40  1  0
 22 41  1  0
 23 42  1  0
 23 43  1  0
 24 44  1  0
 24 45  1  0
M  CHG  4   4  -1  10  -1  17  -1  26  -1
M  END
>  <UniqueID>  (38) 
34

>  <SMILES>  (38) 
CC(=O)[N-]n1c(Cc2c([N-]C(=O)CCC(=O)[O-])sc3c2CCCC3)n[n-]c1=S

>  <Energy>  (38) 
113.88391676667796

>  <Genealogy>  (38) 
CC(=O)[N-]n1c(Cc2c([N-]C(=O)CCC(=O)[O-])sc3c2CCCC3)n[n-]c1=S (protonated)
CC(=O)[N-]n1c(Cc2c([N-]C(=O)CCC(=O)[O-])sc3c2CCCC3)n[n-]c1=S (3D coordinates assigned)
CC(=O)[N-]n1c(Cc2c([N-]C(=O)CCC(=O)[O-])sc3c2CCCC3)n[n-]c1=S (nonaromatic ring conformer: 113.88391676667796 kcal/mol)

>  <smiles>  (38) 
CC(=O)Nn1c(Cc2c(NC(=O)CCC(=O)O)sc3c2CCCC3)n[nH]c1=S

>  <score_type>  (38) 
oracle

>  <origin>  (38) 
adg

>  <m_score__min__energy>  (38) 
-14.779999999999999

>  <m_primary>  (38) 
energy

$$$$
38:0
     RDKit          3D

 63 66  0  0  0  0  0  0  0  0999 V2000
   54.5410   30.8910   52.3840 C   0  0  0  0  0  0  0  0  0  0  0  0
   55.9480   30.6350   51.9580 C   0  0  0  0  0  0  0  0  0  0  0  0
   56.7600   31.5590   51.4140 N   0  0  0  0  0  0  0  0  0  0  0  0
   57.8990   30.8690   51.2240 C   0  0  0  0  0  0  0  0  0  0  0  0
   59.1290   31.4310   50.5750 C   0  0  0  0  0  0  0  0  0  0  0  0
   58.9330   32.8570   50.2410 N   0  0  0  0  0  0  0  0  0  0  0  0
   59.8990   33.7140   50.9660 C   0  0  0  0  0  0  0  0  0  0  0  0
   58.8970   33.0660   48.7670 C   0  0  1  0  0  0  0  0  0  0  0  0
   59.9110   34.1020   48.2880 C   0  0  0  0  0  0  0  0  0  0  0  0
   60.7220   33.3900   47.2120 C   0  0  0  0  0  0  0  0  0  0  0  0
   59.9420   32.2280   46.7500 N   0  0  0  0  0  0  0  0  0  0  0  0
   59.0490   32.5910   45.6250 C   0  0  0  0  0  0  0  0  0  0  0  0
   58.2240   31.4090   45.2090 C   0  0  0  0  0  0  0  0  0  0  0  0
   57.0470   31.4300   44.4900 C   0  0  0  0  0  0  0  0  0  0  0  0
   56.6670   30.1570   44.2780 N   0  0  0  0  0  0  0  0  0  0  0  0
   55.5240   29.7250   43.4880 C   0  0  0  0  0  0  0  0  0  0  0  0
   57.5530   29.3240   44.8030 N   0  0  0  0  0  0  0  0  0  0  0  0
   58.5120   30.0660   45.3910 C   0  0  0  0  0  0  0  0  0  0  0  0
   59.7390   29.5170   46.0580 C   0  0  0  0  0  0  0  0  0  0  0  0
   60.3240   28.0380   45.2480 S   0  0  0  0  0  0  0  0  0  0  0  0
   59.5440   27.8370   43.7730 O   0  0  0  0  0  0  0  0  0  0  0  0
   60.0610   26.6040   46.2720 C   0  0  0  0  0  0  0  0  0  0  0  0
   58.6730   26.0790   46.0540 C   0  0  0  0  0  0  0  0  0  0  0  0
   57.5700   26.7450   46.6130 C   0  0  0  0  0  0  0  0  0  0  0  0
   56.2740   26.2770   46.3810 C   0  0  0  0  0  0  0  0  0  0  0  0
   56.0690   25.1460   45.5830 C   0  0  0  0  0  0  0  0  0  0  0  0
   57.1620   24.4840   45.0130 C   0  0  0  0  0  0  0  0  0  0  0  0
   56.9030   23.0680   44.0080 Cl  0  0  0  0  0  0  0  0  0  0  0  0
   58.4610   24.9530   45.2420 C   0  0  0  0  0  0  0  0  0  0  0  0
   59.1670   31.8100   47.9260 C   0  0  0  0  0  0  0  0  0  0  0  0
   57.7820   29.5870   51.6250 N   0  0  0  0  0  0  0  0  0  0  0  0
   56.5660   29.4840   52.0800 O   0  0  0  0  0  0  0  0  0  0  0  0
   54.4866   30.9009   53.4826 H   0  0  0  0  0  0  0  0  0  0  0  0
   54.2104   31.8640   51.9917 H   0  0  0  0  0  0  0  0  0  0  0  0
   53.8888   30.0968   51.9917 H   0  0  0  0  0  0  0  0  0  0  0  0
   56.5490   32.5560   51.1820 H   0  0  0  0  0  0  0  0  0  0  0  0
   59.9791   31.3348   51.2664 H   0  0  0  0  0  0  0  0  0  0  0  0
   59.3285   30.8730   49.6483 H   0  0  0  0  0  0  0  0  0  0  0  0
   59.7584   33.5892   52.0498 H   0  0  0  0  0  0  0  0  0  0  0  0
   60.9241   33.4228   50.6933 H   0  0  0  0  0  0  0  0  0  0  0  0
   59.7320   34.7665   50.6933 H   0  0  0  0  0  0  0  0  0  0  0  0
   57.8608   33.4015   48.6131 H   0  0  0  0  0  0  0  0  0  0  0  0
   59.3982   34.9800   47.8684 H   0  0  0  0  0  0  0  0  0  0  0  0
   60.5449   34.4703   49.1080 H   0  0  0  0  0  0  0  0  0  0  0  0
   60.9077   34.0737   46.3705 H   0  0  0  0  0  0  0  0  0  0  0  0
   61.6915   33.0638   47.6165 H   0  0  0  0  0  0  0  0  0  0  0  0
   58.3811   33.4059   45.9410 H   0  0  0  0  0  0  0  0  0  0  0  0
   59.6636   32.9148   44.7721 H   0  0  0  0  0  0  0  0  0  0  0  0
   56.5130   32.3295   44.1498 H   0  0  0  0  0  0  0  0  0  0  0  0
   54.7093   29.4171   44.1598 H   0  0  0  0  0  0  0  0  0  0  0  0
   55.1818   30.5558   42.8535 H   0  0  0  0  0  0  0  0  0  0  0  0
   55.8169   28.8755   42.8535 H   0  0  0  0  0  0  0  0  0  0  0  0
   60.5325   30.2782   46.0270 H   0  0  0  0  0  0  0  0  0  0  0  0
   59.4797   29.2603   47.0957 H   0  0  0  0  0  0  0  0  0  0  0  0
   59.2040   28.7400   43.5530 H   0  0  0  0  0  0  0  0  0  0  0  0
   60.7925   25.8261   46.0078 H   0  0  0  0  0  0  0  0  0  0  0  0
   60.1851   26.8817   47.3291 H   0  0  0  0  0  0  0  0  0  0  0  0
   57.7269   27.6382   47.2356 H   0  0  0  0  0  0  0  0  0  0  0  0
   55.4138   26.7983   46.8263 H   0  0  0  0  0  0  0  0  0  0  0  0
   55.0483   24.7772   45.4037 H   0  0  0  0  0  0  0  0  0  0  0  0
   59.3185   24.4378   44.7844 H   0  0  0  0  0  0  0  0  0  0  0  0
   58.2156   31.3583   47.6084 H   0  0  0  0  0  0  0  0  0  0  0  0
   59.7218   31.0620   48.5114 H   0  0  0  0  0  0  0  0  0  0  0  0
  1  2  1  0
  2  3  2  0
  3  4  1  0
  4  5  1  0
  5  6  1  0
  6  7  1  0
  6  8  1  0
  8  9  1  0
  9 10  1  0
 10 11  1  0
 11 12  1  0
 12 13  1  0
 13 14  2  0
 14 15  1  0
 15 16  1  0
 15 17  1  0
 17 18  2  0
 18 19  1  0
 19 20  1  0
 20 21  1  6
 20 22  1  0
 22 23  1  0
 23 24  2  0
 24 25  1  0
 25 26  2  0
 26 27  1  0
 27 28  1  0
 27 29  2  0
 11 30  1  0
  4 31  2  0
 31 32  1  0
 32  2  1  0
 30  8  1  0
 18 13  1  0
 29 23  1  0
  1 33  1  0
  1 34  1  0
  1 35  1  0
  3 36  1  0
  5 37  1  0
  5 38  1  0
  7 39  1  0
  7 40  1  0
  7 41  1  0
  8 42  1  6
  9 43  1  0
  9 44  1  0
 10 45  1  0
 10 46  1  0
 12 47  1  0
 12 48  1  0
 14 49  1  0
 16 50  1  0
 16 51  1  0
 16 52  1  0
 19 53  1  0
 19 54  1  0
 21 55  1  0
 22 56  1  0
 22 57  1  0
 24 58  1  0
 25 59  1  0
 26 60  1  0
 29 61  1  0
 30 62  1  0
 30 63  1  0
M  CHG  2   3   1  20   1
M  END
>  <UniqueID>  (39) 
35

>  <SMILES>  (39) 
Cc1[nH+]c(CN(C)[C@H]2CCN(Cc3cn(C)nc3C[S@+](O)Cc3cccc(Cl)c3)C2)no1

>  <Energy>  (39) 
129.30566551273702

>  <Genealogy>  (39) 
Cc1[nH+]c(CN(C)C2CCN(Cc3cn(C)nc3C[S+](O)Cc3cccc(Cl)c3)C2)no1 (protonated)
Cc1[nH+]c(CN(C)[C@H]2CCN(Cc3cn(C)nc3C[S@+](O)Cc3cccc(Cl)c3)C2)no1 (chirality)
Cc1[nH+]c(CN(C)[C@H]2CCN(Cc3cn(C)nc3C[S@+](O)Cc3cccc(Cl)c3)C2)no1 (3D coordinates assigned)
Cc1[nH+]c(CN(C)[C@H]2CCN(Cc3cn(C)nc3C[S@+](O)Cc3cccc(Cl)c3)C2)no1 (nonaromatic ring conformer: 129.30566551273702 kcal/mol)

>  <smiles>  (39) 
Cc1nc(CN(C)C2CCN(Cc3cn(C)nc3C[S+]([O-])Cc3cccc(Cl)c3)C2)no1

>  <score_type>  (39) 
oracle

>  <origin>  (39) 
adg

>  <m_score__min__energy>  (39) 
-6.4800000000000004

>  <m_primary>  (39) 
energy

$$$$
39:0
     RDKit          3D

 44 46  0  0  0  0  0  0  0  0999 V2000
   57.8300   21.0600   45.1170 N   0  0  0  0  0  0  0  0  0  0  0  0
   58.7930   22.1160   45.2470 C   0  0  0  0  0  0  0  0  0  0  0  0
   60.0610   21.8450   45.1180 N   0  0  0  0  0  0  0  0  0  0  0  0
   58.3360   23.4570   45.5180 N   0  0  0  0  0  0  0  0  0  0  0  0
   59.2250   24.5770   45.8450 C   0  0  0  0  0  0  0  0  0  0  0  0
   58.5160   25.8840   45.6450 C   0  0  0  0  0  0  0  0  0  0  0  0
   59.1320   27.1060   45.4390 C   0  0  0  0  0  0  0  0  0  0  0  0
   58.1230   28.0470   45.3910 C   0  0  0  0  0  0  0  0  0  0  0  0
   58.3350   29.5000   45.1560 C   0  0  0  0  0  0  0  0  0  0  0  0
   59.3730   29.8470   44.5170 O   0  0  0  0  0  0  0  0  0  0  0  0
   57.3790   30.5050   45.6090 N   0  0  1  0  0  0  0  0  0  0  0  0
   57.9430   31.3310   46.7190 C   0  0  0  0  0  0  0  0  0  0  0  0
   58.6970   32.5680   46.2650 C   0  0  0  0  0  0  0  0  0  0  0  0
   59.4450   33.2910   47.2110 C   0  0  0  0  0  0  0  0  0  0  0  0
   60.0770   34.4920   46.8600 C   0  0  0  0  0  0  0  0  0  0  0  0
   59.9700   34.9840   45.5600 C   0  0  0  0  0  0  0  0  0  0  0  0
   59.2130   34.2870   44.6140 C   0  0  0  0  0  0  0  0  0  0  0  0
   58.5520   33.0910   44.9630 C   0  0  0  0  0  0  0  0  0  0  0  0
   57.8170   32.3200   43.9080 C   0  0  0  0  0  0  0  0  0  0  0  0
   56.8000   31.3300   44.5070 C   0  0  1  0  0  0  0  0  0  0  0  0
   56.1990   30.4780   43.3980 C   0  0  0  0  0  0  0  0  0  0  0  0
   55.2470   29.6910   43.6460 O   0  0  0  0  0  0  0  0  0  0  0  0
   56.6910   30.5530   42.0990 O   0  0  0  0  0  0  0  0  0  0  0  0
   56.9400   27.3250   45.5840 C   0  0  0  0  0  0  0  0  0  0  0  0
   55.6530   27.8410   45.6100 O   0  0  0  0  0  0  0  0  0  0  0  0
   57.1810   26.0160   45.7420 N   0  0  0  0  0  0  0  0  0  0  0  0
   58.1290   20.0920   44.8700 H   0  0  0  0  0  0  0  0  0  0  0  0
   56.8250   21.2290   45.3420 H   0  0  0  0  0  0  0  0  0  0  0  0
   60.7440   22.5960   44.8600 H   0  0  0  0  0  0  0  0  0  0  0  0
   60.4480   20.8870   45.2660 H   0  0  0  0  0  0  0  0  0  0  0  0
   57.3010   23.6200   45.5090 H   0  0  0  0  0  0  0  0  0  0  0  0
   59.5417   24.4936   46.8951 H   0  0  0  0  0  0  0  0  0  0  0  0
   60.1017   24.5418   45.1815 H   0  0  0  0  0  0  0  0  0  0  0  0
   60.2113   27.2908   45.3343 H   0  0  0  0  0  0  0  0  0  0  0  0
   56.5650   30.0070   46.0480 H   0  0  0  0  0  0  0  0  0  0  0  0
   57.1119   31.6529   47.3638 H   0  0  0  0  0  0  0  0  0  0  0  0
   58.6726   30.6950   47.2417 H   0  0  0  0  0  0  0  0  0  0  0  0
   59.5353   32.9096   48.2388 H   0  0  0  0  0  0  0  0  0  0  0  0
   60.6581   35.0469   47.6113 H   0  0  0  0  0  0  0  0  0  0  0  0
   60.4796   35.9176   45.2796 H   0  0  0  0  0  0  0  0  0  0  0  0
   59.1321   34.6749   43.5878 H   0  0  0  0  0  0  0  0  0  0  0  0
   57.2805   33.0296   43.2609 H   0  0  0  0  0  0  0  0  0  0  0  0
   58.5577   31.7380   43.3400 H   0  0  0  0  0  0  0  0  0  0  0  0
   55.9923   31.9107   44.9764 H   0  0  0  0  0  0  0  0  0  0  0  0
  1  2  1  0
  2  3  2  0
  2  4  1  0
  4  5  1  0
  5  6  1  0
  6  7  2  0
  7  8  1  0
  8  9  1  0
  9 10  2  0
  9 11  1  0
 11 12  1  0
 12 13  1  0
 13 14  2  0
 14 15  1  0
 15 16  2  0
 16 17  1  0
 17 18  2  0
 18 19  1  0
 19 20  1  0
 20 21  1  0
 21 22  2  0
 21 23  1  0
  8 24  2  0
 24 25  1  0
 24 26  1  0
 26  6  1  0
 20 11  1  0
 18 13  1  0
  1 27  1  0
  1 28  1  0
  3 29  1  0
  3 30  1  0
  4 31  1  0
  5 32  1  0
  5 33  1  0
  7 34  1  0
 11 35  1  1
 12 36  1  0
 12 37  1  0
 14 38  1  0
 15 39  1  0
 16 40  1  0
 17 41  1  0
 19 42  1  0
 19 43  1  0
 20 44  1  1
M  CHG  5   3   1  11   1  23  -1  25  -1  26  -1
M  END
>  <UniqueID>  (40) 
36

>  <SMILES>  (40) 
NC(=[NH2+])NCc1cc(C(=O)[N@H+]2Cc3ccccc3C[C@H]2C(=O)[O-])c([O-])[n-]1

>  <Energy>  (40) 
82.45821247871359

>  <Genealogy>  (40) 
NC(=[NH2+])NCc1cc(C(=O)[NH+]2Cc3ccccc3CC2C(=O)[O-])c([O-])[n-]1 (protonated)
NC(=[NH2+])NCc1cc(C(=O)[N@H+]2Cc3ccccc3C[C@H]2C(=O)[O-])c([O-])[n-]1 (chirality)
NC(=[NH2+])NCc1cc(C(=O)[N@H+]2Cc3ccccc3C[C@H]2C(=O)[O-])c([O-])[n-]1 (3D coordinates assigned)
NC(=[NH2+])NCc1cc(C(=O)[N@H+]2Cc3ccccc3C[C@H]2C(=O)[O-])c([O-])[n-]1 (nonaromatic ring conformer: 82.45821247871359 kcal/mol)

>  <smiles>  (40) 
N=C(N)NCc1cc(C(=O)N2Cc3ccccc3CC2C(=O)O)c(O)[nH]1

>  <score_type>  (40) 
oracle

>  <origin>  (40) 
adg

>  <m_score__min__energy>  (40) 
-11.51

>  <m_primary>  (40) 
energy

$$$$
40:0
     RDKit          3D

 39 41  0  0  0  0  0  0  0  0999 V2000
   53.6500   23.9640   45.7760 C   0  0  0  0  0  0  0  0  0  0  0  0
   54.9350   23.7430   44.9660 C   0  0  2  0  0  0  0  0  0  0  0  0
   55.2570   22.2320   44.8920 C   0  0  0  0  0  0  0  0  0  0  0  0
   56.6780   21.9750   44.3650 C   0  0  0  0  0  0  0  0  0  0  0  0
   57.7220   22.5980   45.3040 C   0  0  0  0  0  0  0  0  0  0  0  0
   57.3490   23.9740   45.6280 N   0  0  0  0  0  0  0  0  0  0  0  0
   56.1060   24.4950   45.5550 C   0  0  0  0  0  0  0  0  0  0  0  0
   56.1780   25.8170   45.9650 C   0  0  0  0  0  0  0  0  0  0  0  0
   55.1310   26.7310   45.9940 O   0  0  0  0  0  0  0  0  0  0  0  0
   57.4460   26.1030   46.3300 N   0  0  0  0  0  0  0  0  0  0  0  0
   57.9440   27.3460   46.9160 C   0  0  0  0  0  0  0  0  0  0  0  0
   58.2570   28.3270   45.8300 C   0  0  0  0  0  0  0  0  0  0  0  0
   59.4140   28.8240   45.7580 O   0  0  0  0  0  0  0  0  0  0  0  0
   57.2420   28.6950   44.8840 N   0  0  0  0  0  0  0  0  0  0  0  0
   57.3240   29.8390   44.0170 C   0  0  0  0  0  0  0  0  0  0  0  0
   58.0230   31.0000   44.3890 C   0  0  0  0  0  0  0  0  0  0  0  0
   58.0550   32.1010   43.5300 C   0  0  0  0  0  0  0  0  0  0  0  0
   57.3750   32.0390   42.3130 C   0  0  0  0  0  0  0  0  0  0  0  0
   56.6840   30.9190   41.9750 N   0  0  0  0  0  0  0  0  0  0  0  0
   56.6380   29.8340   42.7940 C   0  0  0  0  0  0  0  0  0  0  0  0
   58.1280   24.9550   46.1290 C   0  0  0  0  0  0  0  0  0  0  0  0
   59.3540   24.8130   46.3850 O   0  0  0  0  0  0  0  0  0  0  0  0
   53.8824   23.9240   46.8504 H   0  0  0  0  0  0  0  0  0  0  0  0
   53.2256   24.9483   45.5290 H   0  0  0  0  0  0  0  0  0  0  0  0
   52.9211   23.1780   45.5290 H   0  0  0  0  0  0  0  0  0  0  0  0
   54.7648   24.1340   43.9520 H   0  0  0  0  0  0  0  0  0  0  0  0
   55.1674   21.7993   45.8994 H   0  0  0  0  0  0  0  0  0  0  0  0
   54.5450   21.7649   44.1957 H   0  0  0  0  0  0  0  0  0  0  0  0
   56.8498   20.8903   44.3018 H   0  0  0  0  0  0  0  0  0  0  0  0
   56.7764   22.4337   43.3700 H   0  0  0  0  0  0  0  0  0  0  0  0
   57.7759   22.0079   46.2307 H   0  0  0  0  0  0  0  0  0  0  0  0
   58.7014   22.5990   44.8033 H   0  0  0  0  0  0  0  0  0  0  0  0
   57.1770   27.7695   47.5811 H   0  0  0  0  0  0  0  0  0  0  0  0
   58.8578   27.1364   47.4914 H   0  0  0  0  0  0  0  0  0  0  0  0
   56.4190   28.0590   44.7790 H   0  0  0  0  0  0  0  0  0  0  0  0
   58.5448   31.0417   45.3564 H   0  0  0  0  0  0  0  0  0  0  0  0
   58.6108   33.0080   43.8101 H   0  0  0  0  0  0  0  0  0  0  0  0
   57.3984   32.8981   41.6264 H   0  0  0  0  0  0  0  0  0  0  0  0
   56.0593   28.9475   42.4952 H   0  0  0  0  0  0  0  0  0  0  0  0
  1  2  1  0
  2  3  1  0
  3  4  1  0
  4  5  1  0
  5  6  1  0
  6  7  1  0
  7  8  2  0
  8  9  1  0
  8 10  1  0
 10 11  1  0
 11 12  1  0
 12 13  2  0
 12 14  1  0
 14 15  1  0
 15 16  2  0
 16 17  1  0
 17 18  2  0
 18 19  1  0
 19 20  2  0
 10 21  1  0
 21 22  2  0
  7  2  1  0
 20 15  1  0
 21  6  1  0
  1 23  1  0
  1 24  1  0
  1 25  1  0
  2 26  1  6
  3 27  1  0
  3 28  1  0
  4 29  1  0
  4 30  1  0
  5 31  1  0
  5 32  1  0
 11 33  1  0
 11 34  1  0
 14 35  1  0
 16 36  1  0
 17 37  1  0
 18 38  1  0
 20 39  1  0
M  CHG  1   9  -1
M  END
>  <UniqueID>  (41) 
37

>  <SMILES>  (41) 
C[C@@H]1CCCn2c1c([O-])n(CC(=O)Nc1cccnc1)c2=O

>  <Energy>  (41) 
74.81717257098452

>  <Genealogy>  (41) 
CC1CCCn2c1c([O-])n(CC(=O)Nc1cccnc1)c2=O (protonated)
C[C@@H]1CCCn2c1c([O-])n(CC(=O)Nc1cccnc1)c2=O (chirality)
C[C@@H]1CCCn2c1c([O-])n(CC(=O)Nc1cccnc1)c2=O (3D coordinates assigned)
C[C@@H]1CCCn2c1c([O-])n(CC(=O)Nc1cccnc1)c2=O (nonaromatic ring conformer: 74.81717257098452 kcal/mol)

>  <smiles>  (41) 
CC1CCCn2c1c(O)n(CC(=O)Nc1cccnc1)c2=O

>  <score_type>  (41) 
oracle

>  <origin>  (41) 
adg

>  <m_score__min__energy>  (41) 
-10.69

>  <m_primary>  (41) 
energy

$$$$
41:0
     RDKit          3D

 65 69  0  0  0  0  0  0  0  0999 V2000
   55.8770   30.8480   44.4710 O   0  0  0  0  0  0  0  0  0  0  0  0
   57.0990   30.8070   44.7730 C   0  0  0  0  0  0  0  0  0  0  0  0
   58.0880   31.5190   43.9100 C   0  0  0  0  0  0  0  0  0  0  0  0
   57.6600   32.8640   43.7250 O   0  0  0  0  0  0  0  0  0  0  0  0
   57.5620   33.7850   44.7750 C   0  0  0  0  0  0  0  0  0  0  0  0
   56.5800   34.5740   44.8390 O   0  0  0  0  0  0  0  0  0  0  0  0
   58.6190   33.8240   45.8090 C   0  0  0  0  0  0  0  0  0  0  0  0
   59.9740   33.8680   45.4340 C   0  0  0  0  0  0  0  0  0  0  0  0
   60.9780   33.9000   46.4050 C   0  0  0  0  0  0  0  0  0  0  0  0
   60.6470   33.8850   47.7680 C   0  0  0  0  0  0  0  0  0  0  0  0
   61.7300   33.9630   48.8110 C   0  0  0  0  0  0  0  0  0  0  0  0
   61.9590   32.5920   49.4560 C   0  0  0  0  0  0  0  0  0  0  0  0
   60.6960   32.0700   50.0100 N   0  0  0  0  0  0  0  0  0  0  0  0
   60.1550   30.8960   49.5160 C   0  0  0  0  0  0  0  0  0  0  0  0
   60.7380   30.2540   48.6000 O   0  0  0  0  0  0  0  0  0  0  0  0
   58.9770   30.4130   50.0080 N   0  0  0  0  0  0  0  0  0  0  0  0
   58.3220   31.0900   50.9790 C   0  0  0  0  0  0  0  0  0  0  0  0
   57.1150   30.6980   51.5620 C   0  0  0  0  0  0  0  0  0  0  0  0
   56.6790   31.6010   52.5320 C   0  0  0  0  0  0  0  0  0  0  0  0
   57.7950   32.8700   52.6540 S   0  0  0  0  0  0  0  0  0  0  0  0
   58.8280   32.2670   51.4730 C   0  0  0  0  0  0  0  0  0  0  0  0
   60.0240   32.7760   50.9840 C   0  0  0  0  0  0  0  0  0  0  0  0
   60.4730   33.8660   51.4310 O   0  0  0  0  0  0  0  0  0  0  0  0
   59.2950   33.8590   48.1480 C   0  0  0  0  0  0  0  0  0  0  0  0
   58.2890   33.8220   47.1770 C   0  0  0  0  0  0  0  0  0  0  0  0
   57.5500   30.1560   45.9680 N   0  0  0  0  0  0  0  0  0  0  0  0
   58.1950   28.8790   46.1010 C   0  0  0  0  0  0  0  0  0  0  0  0
   59.5790   28.7410   46.3220 C   0  0  0  0  0  0  0  0  0  0  0  0
   60.1490   27.4700   46.4270 C   0  0  0  0  0  0  0  0  0  0  0  0
   59.3490   26.3280   46.3320 C   0  0  0  0  0  0  0  0  0  0  0  0
   57.9670   26.4530   46.1430 C   0  0  0  0  0  0  0  0  0  0  0  0
   56.9490   25.0120   46.0450 S   0  0  0  0  0  0  0  0  0  0  0  0
   57.1910   24.1510   47.2540 O   0  0  0  0  0  0  0  0  0  0  0  0
   55.5040   25.4300   46.0560 O   0  0  0  0  0  0  0  0  0  0  0  0
   57.2710   24.0820   44.5990 N   0  0  0  0  0  0  0  0  0  0  0  0
   56.0640   24.0170   43.7480 C   0  0  0  0  0  0  0  0  0  0  0  0
   56.1520   22.8310   42.7730 C   0  0  0  0  0  0  0  0  0  0  0  0
   56.2700   21.5620   43.4070 O   0  0  0  0  0  0  0  0  0  0  0  0
   56.7900   21.6280   44.7290 C   0  0  0  0  0  0  0  0  0  0  0  0
   57.8290   22.7480   44.9170 C   0  0  0  0  0  0  0  0  0  0  0  0
   57.3960   27.7290   46.0400 C   0  0  0  0  0  0  0  0  0  0  0  0
   59.0749   31.5098   44.3957 H   0  0  0  0  0  0  0  0  0  0  0  0
   58.1601   31.0151   42.9349 H   0  0  0  0  0  0  0  0  0  0  0  0
   60.2452   33.8773   44.3680 H   0  0  0  0  0  0  0  0  0  0  0  0
   62.0339   33.9372   46.0989 H   0  0  0  0  0  0  0  0  0  0  0  0
   62.6639   34.3001   48.3376 H   0  0  0  0  0  0  0  0  0  0  0  0
   61.4199   34.6740   49.5910 H   0  0  0  0  0  0  0  0  0  0  0  0
   62.3388   31.8926   48.6967 H   0  0  0  0  0  0  0  0  0  0  0  0
   62.6907   32.6974   50.2706 H   0  0  0  0  0  0  0  0  0  0  0  0
   56.5706   29.7823   51.2879 H   0  0  0  0  0  0  0  0  0  0  0  0
   55.7568   31.5044   53.1238 H   0  0  0  0  0  0  0  0  0  0  0  0
   59.0261   33.8678   49.2146 H   0  0  0  0  0  0  0  0  0  0  0  0
   57.2333   33.7911   47.4846 H   0  0  0  0  0  0  0  0  0  0  0  0
   60.2124   29.6358   46.4121 H   0  0  0  0  0  0  0  0  0  0  0  0
   61.2327   27.3675   46.5852 H   0  0  0  0  0  0  0  0  0  0  0  0
   59.8053   25.3298   46.4058 H   0  0  0  0  0  0  0  0  0  0  0  0
   55.1772   23.8944   44.3872 H   0  0  0  0  0  0  0  0  0  0  0  0
   55.9890   24.9483   43.1675 H   0  0  0  0  0  0  0  0  0  0  0  0
   55.2422   22.8245   42.1547 H   0  0  0  0  0  0  0  0  0  0  0  0
   57.0682   22.9753   42.1816 H   0  0  0  0  0  0  0  0  0  0  0  0
   55.9561   21.8045   45.4242 H   0  0  0  0  0  0  0  0  0  0  0  0
   57.2990   20.6734   44.9280 H   0  0  0  0  0  0  0  0  0  0  0  0
   58.1685   22.7454   45.9633 H   0  0  0  0  0  0  0  0  0  0  0  0
   58.6639   22.5559   44.2270 H   0  0  0  0  0  0  0  0  0  0  0  0
   56.3083   27.8290   45.9098 H   0  0  0  0  0  0  0  0  0  0  0  0
  1  2  2  0
  2  3  1  0
  3  4  1  0
  4  5  1  0
  5  6  2  0
  5  7  1  0
  7  8  2  0
  8  9  1  0
  9 10  2  0
 10 11  1  0
 11 12  1  0
 12 13  1  0
 13 14  1  0
 14 15  2  0
 14 16  1  0
 16 17  1  0
 17 18  1  0
 18 19  2  0
 19 20  1  0
 20 21  1  0
 21 22  1  0
 22 23  2  0
 10 24  1  0
 24 25  2  0
  2 26  1  0
 26 27  1  0
 27 28  2  0
 28 29  1  0
 29 30  2  0
 30 31  1  0
 31 32  1  0
 32 33  2  0
 32 34  2  0
 32 35  1  0
 35 36  1  0
 36 37  1  0
 37 38  1  0
 38 39  1  0
 39 40  1  0
 31 41  2  0
 25  7  1  0
 41 27  1  0
 22 13  1  0
 40 35  1  0
 21 17  2  0
  3 42  1  0
  3 43  1  0
  8 44  1  0
  9 45  1  0
 11 46  1  0
 11 47  1  0
 12 48  1  0
 12 49  1  0
 18 50  1  0
 19 51  1  0
 24 52  1  0
 25 53  1  0
 28 54  1  0
 29 55  1  0
 30 56  1  0
 36 57  1  0
 36 58  1  0
 37 59  1  0
 37 60  1  0
 39 61  1  0
 39 62  1  0
 40 63  1  0
 40 64  1  0
 41 65  1  0
M  CHG  2  16  -1  26  -1
M  END
>  <UniqueID>  (42) 
38

>  <SMILES>  (42) 
O=C(COC(=O)c1ccc(CCn2c(=O)[n-]c3ccsc3c2=O)cc1)[N-]c1cccc(S(=O)(=O)N2CCOCC2)c1

>  <Energy>  (42) 
117.2554088515745

>  <Genealogy>  (42) 
O=C(COC(=O)c1ccc(CCn2c(=O)[n-]c3ccsc3c2=O)cc1)[N-]c1cccc(S(=O)(=O)N2CCOCC2)c1 (protonated)
O=C(COC(=O)c1ccc(CCn2c(=O)[n-]c3ccsc3c2=O)cc1)[N-]c1cccc(S(=O)(=O)N2CCOCC2)c1 (3D coordinates assigned)
O=C(COC(=O)c1ccc(CCn2c(=O)[n-]c3ccsc3c2=O)cc1)[N-]c1cccc(S(=O)(=O)N2CCOCC2)c1 (nonaromatic ring conformer: 117.2554088515745 kcal/mol)

>  <smiles>  (42) 
O=C(COC(=O)c1ccc(CCn2c(=O)[nH]c3ccsc3c2=O)cc1)Nc1cccc(S(=O)(=O)N2CCOCC2)c1

>  <score_type>  (42) 
oracle

>  <origin>  (42) 
adg

>  <m_score__min__energy>  (42) 
-13.890000000000001

>  <m_primary>  (42) 
energy

$$$$
42:0
     RDKit          3D

 38 40  0  0  0  0  0  0  0  0999 V2000
   59.5950   29.7080   44.6870 C   0  0  0  0  0  0  0  0  0  0  0  0
   59.4550   29.2130   45.9280 C   0  0  0  0  0  0  0  0  0  0  0  0
   58.5580   28.2130   46.3360 C   0  0  0  0  0  0  0  0  0  0  0  0
   57.7840   27.3710   45.6220 C   0  0  0  0  0  0  0  0  0  0  0  0
   57.2200   26.1030   46.1130 C   0  0  0  0  0  0  0  0  0  0  0  0
   57.9450   25.0800   46.6030 N   0  0  0  0  0  0  0  0  0  0  0  0
   57.0050   24.2190   47.0510 C   0  0  0  0  0  0  0  0  0  0  0  0
   57.2950   23.1120   47.5750 O   0  0  0  0  0  0  0  0  0  0  0  0
   55.7310   24.6430   46.9040 N   0  0  0  0  0  0  0  0  0  0  0  0
   55.8880   25.8430   46.3220 C   0  0  0  0  0  0  0  0  0  0  0  0
   54.8330   26.6860   45.9940 O   0  0  0  0  0  0  0  0  0  0  0  0
   58.6210   28.1750   47.7180 C   0  0  0  0  0  0  0  0  0  0  0  0
   59.5910   29.0770   48.0980 C   0  0  0  0  0  0  0  0  0  0  0  0
   60.0260   29.3080   49.5140 C   0  0  0  0  0  0  0  0  0  0  0  0
   60.0940   29.7190   47.0190 N   0  0  0  0  0  0  0  0  0  0  0  0
   61.1660   30.7270   47.0520 C   0  0  0  0  0  0  0  0  0  0  0  0
   60.5880   32.1050   46.8530 C   0  0  0  0  0  0  0  0  0  0  0  0
   59.3230   32.2080   46.3630 N   0  0  0  0  0  0  0  0  0  0  0  0
   58.7340   33.4140   46.1640 C   0  0  0  0  0  0  0  0  0  0  0  0
   57.0710   33.4950   45.5070 S   0  0  0  0  0  0  0  0  0  0  0  0
   57.3770   32.1990   44.2680 C   0  0  0  0  0  0  0  0  0  0  0  0
   59.4040   34.5550   46.4580 N   0  0  0  0  0  0  0  0  0  0  0  0
   60.6660   34.5110   46.9570 C   0  0  0  0  0  0  0  0  0  0  0  0
   61.2950   33.2810   47.1710 C   0  0  0  0  0  0  0  0  0  0  0  0
   62.9280   33.2720   47.8290 Cl  0  0  0  0  0  0  0  0  0  0  0  0
   60.3374   30.4953   44.4894 H   0  0  0  0  0  0  0  0  0  0  0  0
   58.9673   29.3260   43.8684 H   0  0  0  0  0  0  0  0  0  0  0  0
   57.5545   27.6557   44.5846 H   0  0  0  0  0  0  0  0  0  0  0  0
   58.0135   27.5457   48.3850 H   0  0  0  0  0  0  0  0  0  0  0  0
   59.2673   28.9051   50.2010 H   0  0  0  0  0  0  0  0  0  0  0  0
   60.9862   28.8010   49.6900 H   0  0  0  0  0  0  0  0  0  0  0  0
   60.1437   30.3874   49.6900 H   0  0  0  0  0  0  0  0  0  0  0  0
   61.6763   30.6836   48.0255 H   0  0  0  0  0  0  0  0  0  0  0  0
   61.8824   30.5171   46.2441 H   0  0  0  0  0  0  0  0  0  0  0  0
   57.6010   31.2502   44.7775 H   0  0  0  0  0  0  0  0  0  0  0  0
   56.4834   32.0751   43.6386 H   0  0  0  0  0  0  0  0  0  0  0  0
   58.2316   32.4879   43.6386 H   0  0  0  0  0  0  0  0  0  0  0  0
   61.1950   35.4460   47.1936 H   0  0  0  0  0  0  0  0  0  0  0  0
  1  2  2  0
  2  3  1  0
  3  4  2  3
  4  5  1  0
  5  6  1  0
  6  7  1  0
  7  8  2  0
  7  9  1  0
  9 10  1  0
 10 11  1  0
  3 12  1  0
 12 13  2  0
 13 14  1  0
 13 15  1  0
 15 16  1  0
 16 17  1  0
 17 18  2  0
 18 19  1  0
 19 20  1  0
 20 21  1  0
 19 22  2  0
 22 23  1  0
 23 24  2  0
 24 25  1  0
 15  2  1  0
 24 17  1  0
 10  5  2  0
  1 26  1  0
  1 27  1  0
  4 28  1  0
 12 29  1  0
 14 30  1  0
 14 31  1  0
 14 32  1  0
 16 33  1  0
 16 34  1  0
 21 35  1  0
 21 36  1  0
 21 37  1  0
 23 38  1  0
M  CHG  3   6  -1   9  -1  11  -1
M  END
>  <UniqueID>  (43) 
39

>  <SMILES>  (43) 
C=c1c(=Cc2[n-]c(=O)[n-]c2[O-])cc(C)n1Cc1nc(SC)ncc1Cl

>  <Energy>  (43) 
106.11844447416054

>  <Genealogy>  (43) 
C=c1c(=Cc2[n-]c(=O)[n-]c2[O-])cc(C)n1Cc1nc(SC)ncc1Cl (protonated)
C=c1c(=Cc2[n-]c(=O)[n-]c2[O-])cc(C)n1Cc1nc(SC)ncc1Cl (3D coordinates assigned)
C=c1c(=Cc2[n-]c(=O)[n-]c2[O-])cc(C)n1Cc1nc(SC)ncc1Cl (optimized conformer: 106.11844447416054 kcal/mol)

>  <smiles>  (43) 
C=c1c(=Cc2[nH]c(=O)[nH]c2O)cc(C)n1Cc1nc(SC)ncc1Cl

>  <score_type>  (43) 
oracle

>  <origin>  (43) 
adg

>  <m_score__min__energy>  (43) 
-15.640000000000001

>  <m_primary>  (43) 
energy

$$$$
43:0
     RDKit          3D

 55 58  0  0  0  0  0  0  0  0999 V2000
   56.3560   29.2800   44.8460 C   0  0  0  0  0  0  0  0  0  0  0  0
   57.6430   28.9730   45.0740 C   0  0  0  0  0  0  0  0  0  0  0  0
   58.2130   27.6910   45.1690 C   0  0  0  0  0  0  0  0  0  0  0  0
   57.6940   26.4690   44.9380 C   0  0  0  0  0  0  0  0  0  0  0  0
   57.0950   25.5860   45.9470 C   0  0  0  0  0  0  0  0  0  0  0  0
   57.7710   24.6020   46.5650 N   0  0  0  0  0  0  0  0  0  0  0  0
   56.8240   23.9930   47.3120 C   0  0  0  0  0  0  0  0  0  0  0  0
   57.0770   23.0130   48.0580 O   0  0  0  0  0  0  0  0  0  0  0  0
   55.5830   24.5110   47.1850 N   0  0  0  0  0  0  0  0  0  0  0  0
   55.7650   25.5090   46.3060 C   0  0  0  0  0  0  0  0  0  0  0  0
   54.7280   26.3100   45.8330 O   0  0  0  0  0  0  0  0  0  0  0  0
   59.5310   27.8810   45.5560 C   0  0  0  0  0  0  0  0  0  0  0  0
   59.7330   29.2420   45.6370 C   0  0  0  0  0  0  0  0  0  0  0  0
   61.0310   29.8940   46.0070 C   0  0  0  0  0  0  0  0  0  0  0  0
   58.5960   29.9050   45.3340 N   0  0  0  0  0  0  0  0  0  0  0  0
   58.4330   31.3330   45.3760 C   0  0  0  0  0  0  0  0  0  0  0  0
   57.6160   31.9750   44.4360 C   0  0  0  0  0  0  0  0  0  0  0  0
   57.4620   33.3630   44.4720 C   0  0  0  0  0  0  0  0  0  0  0  0
   58.1330   34.1180   45.4380 C   0  0  0  0  0  0  0  0  0  0  0  0
   58.9760   33.4900   46.3720 C   0  0  0  0  0  0  0  0  0  0  0  0
   59.6880   34.2870   47.3950 C   0  0  0  0  0  0  0  0  0  0  0  0
   59.1230   35.2920   47.9070 O   0  0  0  0  0  0  0  0  0  0  0  0
   61.0070   33.9230   47.8280 N   0  0  0  0  0  0  0  0  0  0  0  0
   62.0880   33.8290   46.8340 C   0  0  0  0  0  0  0  0  0  0  0  0
   63.4180   33.4350   47.4880 C   0  0  0  0  0  0  0  0  0  0  0  0
   63.1990   32.2950   48.4900 C   0  0  0  0  0  0  0  0  0  0  0  0
   64.4540   31.9350   49.0420 O   0  0  0  0  0  0  0  0  0  0  0  0
   65.1320   33.0790   49.5170 C   0  0  0  0  0  0  0  0  0  0  0  0
   62.2190   32.7130   49.6190 C   0  0  0  0  0  0  0  0  0  0  0  0
   61.3220   33.9120   49.2610 C   0  0  0  0  0  0  0  0  0  0  0  0
   59.1090   32.0920   46.3410 C   0  0  0  0  0  0  0  0  0  0  0  0
   56.0424   30.3331   44.7955 H   0  0  0  0  0  0  0  0  0  0  0  0
   55.6152   28.4784   44.7097 H   0  0  0  0  0  0  0  0  0  0  0  0
   57.7215   26.1003   43.9020 H   0  0  0  0  0  0  0  0  0  0  0  0
   54.3680   27.0850   46.3760 H   0  0  0  0  0  0  0  0  0  0  0  0
   60.2736   27.0954   45.7595 H   0  0  0  0  0  0  0  0  0  0  0  0
   61.1197   29.9386   47.1025 H   0  0  0  0  0  0  0  0  0  0  0  0
   61.8660   29.3084   45.5950 H   0  0  0  0  0  0  0  0  0  0  0  0
   61.0597   30.9135   45.5950 H   0  0  0  0  0  0  0  0  0  0  0  0
   57.0947   31.3848   43.6680 H   0  0  0  0  0  0  0  0  0  0  0  0
   56.8116   33.8625   43.7389 H   0  0  0  0  0  0  0  0  0  0  0  0
   58.0009   35.2096   45.4678 H   0  0  0  0  0  0  0  0  0  0  0  0
   61.8195   33.0703   46.0841 H   0  0  0  0  0  0  0  0  0  0  0  0
   62.2126   34.8158   46.3642 H   0  0  0  0  0  0  0  0  0  0  0  0
   64.1216   33.1044   46.7097 H   0  0  0  0  0  0  0  0  0  0  0  0
   63.8280   34.3062   48.0199 H   0  0  0  0  0  0  0  0  0  0  0  0
   62.7506   31.4377   47.9665 H   0  0  0  0  0  0  0  0  0  0  0  0
   65.1302   33.0759   50.6170 H   0  0  0  0  0  0  0  0  0  0  0  0
   66.1696   33.0682   49.1520 H   0  0  0  0  0  0  0  0  0  0  0  0
   64.6243   33.9840   49.1520 H   0  0  0  0  0  0  0  0  0  0  0  0
   61.5717   31.8542   49.8500 H   0  0  0  0  0  0  0  0  0  0  0  0
   62.8357   33.0229   50.4756 H   0  0  0  0  0  0  0  0  0  0  0  0
   60.3858   33.8450   49.8347 H   0  0  0  0  0  0  0  0  0  0  0  0
   61.8600   34.8388   49.5089 H   0  0  0  0  0  0  0  0  0  0  0  0
   59.7492   31.5886   47.0804 H   0  0  0  0  0  0  0  0  0  0  0  0
  1  2  2  0
  2  3  1  0
  3  4  2  3
  4  5  1  0
  5  6  1  0
  6  7  1  0
  7  8  2  0
  7  9  1  0
  9 10  1  0
 10 11  1  0
  3 12  1  0
 12 13  2  0
 13 14  1  0
 13 15  1  0
 15 16  1  0
 16 17  2  0
 17 18  1  0
 18 19  2  0
 19 20  1  0
 20 21  1  0
 21 22  2  0
 21 23  1  0
 23 24  1  0
 24 25  1  0
 25 26  1  0
 26 27  1  0
 27 28  1  0
 26 29  1  0
 29 30  1  0
 20 31  2  0
 15  2  1  0
 31 16  1  0
 10  5  2  0
 30 23  1  0
  1 32  1  0
  1 33  1  0
  4 34  1  0
 11 35  1  0
 12 36  1  0
 14 37  1  0
 14 38  1  0
 14 39  1  0
 17 40  1  0
 18 41  1  0
 19 42  1  0
 24 43  1  0
 24 44  1  0
 25 45  1  0
 25 46  1  0
 26 47  1  0
 28 48  1  0
 28 49  1  0
 28 50  1  0
 29 51  1  0
 29 52  1  0
 30 53  1  0
 30 54  1  0
 31 55  1  0
M  CHG  2   6  -1   9  -1
M  END
>  <UniqueID>  (44) 
40

>  <SMILES>  (44) 
C=c1c(=Cc2[n-]c(=O)[n-]c2O)cc(C)n1-c1cccc(C(=O)N2CCC(OC)CC2)c1

>  <Energy>  (44) 
141.26428619560807

>  <Genealogy>  (44) 
C=c1c(=Cc2[n-]c(=O)[n-]c2O)cc(C)n1-c1cccc(C(=O)N2CCC(OC)CC2)c1 (protonated)
C=c1c(=Cc2[n-]c(=O)[n-]c2O)cc(C)n1-c1cccc(C(=O)N2CCC(OC)CC2)c1 (3D coordinates assigned)
C=c1c(=Cc2[n-]c(=O)[n-]c2O)cc(C)n1-c1cccc(C(=O)N2CCC(OC)CC2)c1 (nonaromatic ring conformer: 141.26428619560807 kcal/mol)

>  <smiles>  (44) 
C=c1c(=Cc2[nH]c(=O)[nH]c2O)cc(C)n1-c1cccc(C(=O)N2CCC(OC)CC2)c1

>  <score_type>  (44) 
oracle

>  <origin>  (44) 
adg

>  <m_score__min__energy>  (44) 
-15.19

>  <m_primary>  (44) 
energy

$$$$
44:0
     RDKit          3D

 49 51  0  0  0  0  0  0  0  0999 V2000
   59.3490   34.6550   46.0310 C   0  0  0  0  0  0  0  0  0  0  0  0
   58.6370   33.4210   45.5400 C   0  0  0  0  0  0  0  0  0  0  0  0
   58.1440   33.4150   44.2250 C   0  0  0  0  0  0  0  0  0  0  0  0
   57.5000   32.2890   43.7100 C   0  0  0  0  0  0  0  0  0  0  0  0
   57.3450   31.1460   44.5000 C   0  0  0  0  0  0  0  0  0  0  0  0
   56.4770   29.7390   43.8930 S   0  0  0  0  0  0  0  0  0  0  0  0
   55.9080   30.0560   42.5400 O   0  0  0  0  0  0  0  0  0  0  0  0
   55.3540   29.3580   44.8180 O   0  0  0  0  0  0  0  0  0  0  0  0
   57.5850   28.4160   43.7590 N   0  0  0  0  0  0  0  0  0  0  0  0
   57.8280   27.5150   44.8410 C   0  0  0  0  0  0  0  0  0  0  0  0
   59.0090   27.1940   45.1460 O   0  0  0  0  0  0  0  0  0  0  0  0
   56.7230   26.9630   45.5600 N   0  0  0  0  0  0  0  0  0  0  0  0
   56.9150   26.0210   46.6640 C   0  0  0  0  0  0  0  0  0  0  0  0
   56.7650   24.5700   46.1960 C   0  0  0  0  0  0  0  0  0  0  0  0
   55.3720   24.3000   45.7120 C   0  0  0  0  0  0  0  0  0  0  0  0
   54.8610   23.0790   45.3430 C   0  0  0  0  0  0  0  0  0  0  0  0
   53.5570   23.2240   45.0480 N   0  0  0  0  0  0  0  0  0  0  0  0
   53.3160   24.5360   45.2530 C   0  0  0  0  0  0  0  0  0  0  0  0
   54.4000   25.2270   45.6680 N   0  0  0  0  0  0  0  0  0  0  0  0
   57.8290   31.1390   45.8120 C   0  0  0  0  0  0  0  0  0  0  0  0
   58.4410   32.2800   46.3570 C   0  0  0  0  0  0  0  0  0  0  0  0
   58.8530   32.2420   47.7790 C   0  0  0  0  0  0  0  0  0  0  0  0
   58.0820   32.7150   48.6540 O   0  0  0  0  0  0  0  0  0  0  0  0
   60.0990   31.6660   48.1940 N   0  0  0  0  0  0  0  0  0  0  0  0
   61.3850   32.2980   48.1090 C   0  0  0  0  0  0  0  0  0  0  0  0
   62.4270   31.6140   47.4700 C   0  0  0  0  0  0  0  0  0  0  0  0
   63.6900   32.2010   47.3510 C   0  0  0  0  0  0  0  0  0  0  0  0
   63.9250   33.4700   47.8830 C   0  0  0  0  0  0  0  0  0  0  0  0
   62.9040   34.1450   48.5540 C   0  0  0  0  0  0  0  0  0  0  0  0
   61.6400   33.5550   48.6960 C   0  0  0  0  0  0  0  0  0  0  0  0
   60.6580   34.1970   49.4440 O   0  0  0  0  0  0  0  0  0  0  0  0
   59.3534   34.6626   47.1310 H   0  0  0  0  0  0  0  0  0  0  0  0
   60.3846   34.6527   45.6602 H   0  0  0  0  0  0  0  0  0  0  0  0
   58.8287   35.5505   45.6602 H   0  0  0  0  0  0  0  0  0  0  0  0
   58.2668   34.3076   43.5940 H   0  0  0  0  0  0  0  0  0  0  0  0
   57.1135   32.3009   42.6802 H   0  0  0  0  0  0  0  0  0  0  0  0
   55.7580   27.2300   45.2600 H   0  0  0  0  0  0  0  0  0  0  0  0
   57.9234   26.1597   47.0810 H   0  0  0  0  0  0  0  0  0  0  0  0
   56.1460   26.2196   47.4250 H   0  0  0  0  0  0  0  0  0  0  0  0
   57.4731   24.3822   45.3754 H   0  0  0  0  0  0  0  0  0  0  0  0
   56.9741   23.9051   47.0470 H   0  0  0  0  0  0  0  0  0  0  0  0
   55.4264   22.1366   45.2965 H   0  0  0  0  0  0  0  0  0  0  0  0
   52.3304   24.9988   45.0969 H   0  0  0  0  0  0  0  0  0  0  0  0
   57.7294   30.2303   46.4238 H   0  0  0  0  0  0  0  0  0  0  0  0
   62.2504   30.6089   47.0594 H   0  0  0  0  0  0  0  0  0  0  0  0
   64.4999   31.6622   46.8374 H   0  0  0  0  0  0  0  0  0  0  0  0
   64.9145   33.9379   47.7735 H   0  0  0  0  0  0  0  0  0  0  0  0
   63.0919   35.1444   48.9733 H   0  0  0  0  0  0  0  0  0  0  0  0
   59.7170   33.8280   49.5150 H   0  0  0  0  0  0  0  0  0  0  0  0
  1  2  1  0
  2  3  2  0
  3  4  1  0
  4  5  2  0
  5  6  1  0
  6  7  2  0
  6  8  2  0
  6  9  1  0
  9 10  1  0
 10 11  2  0
 10 12  1  0
 12 13  1  0
 13 14  1  0
 14 15  1  0
 15 16  2  0
 16 17  1  0
 17 18  1  0
 18 19  2  0
  5 20  1  0
 20 21  2  0
 21 22  1  0
 22 23  2  0
 22 24  1  0
 24 25  1  0
 25 26  2  0
 26 27  1  0
 27 28  2  0
 28 29  1  0
 29 30  2  0
 30 31  1  0
 21  2  1  0
 30 25  1  0
 19 15  1  0
  1 32  1  0
  1 33  1  0
  1 34  1  0
  3 35  1  0
  4 36  1  0
 12 37  1  0
 13 38  1  0
 13 39  1  0
 14 40  1  0
 14 41  1  0
 16 42  1  0
 18 43  1  0
 20 44  1  0
 26 45  1  0
 27 46  1  0
 28 47  1  0
 29 48  1  0
 31 49  1  0
M  CHG  3   9  -1  17  -1  24  -1
M  END
>  <UniqueID>  (45) 
41

>  <SMILES>  (45) 
Cc1ccc(S(=O)(=O)[N-]C(=O)NCCc2c[n-]cn2)cc1C(=O)[N-]c1ccccc1O

>  <Energy>  (45) 
82.30014549681752

>  <Genealogy>  (45) 
Cc1ccc(S(=O)(=O)[N-]C(=O)NCCc2c[n-]cn2)cc1C(=O)[N-]c1ccccc1O (protonated)
Cc1ccc(S(=O)(=O)[N-]C(=O)NCCc2c[n-]cn2)cc1C(=O)[N-]c1ccccc1O (3D coordinates assigned)
Cc1ccc(S(=O)(=O)[N-]C(=O)NCCc2c[n-]cn2)cc1C(=O)[N-]c1ccccc1O (optimized conformer: 82.30014549681752 kcal/mol)

>  <smiles>  (45) 
Cc1ccc(S(=O)(=O)NC(=O)NCCc2c[nH]cn2)cc1C(=O)Nc1ccccc1O

>  <score_type>  (45) 
oracle

>  <origin>  (45) 
adg

>  <m_score__min__energy>  (45) 
-15.529999999999999

>  <m_primary>  (45) 
energy

$$$$
45:0
     RDKit          3D

 55 58  0  0  0  0  0  0  0  0999 V2000
   53.0190   25.1570   44.6800 H   0  0  0  0  0  0  0  0  0  0  0  0
   53.4570   25.4690   45.5380 O   0  0  0  0  0  0  0  0  0  0  0  0
   54.8410   25.5730   45.6290 C   0  0  0  0  0  0  0  0  0  0  0  0
   55.4740   26.6740   46.0790 N   0  0  0  0  0  0  0  0  0  0  0  0
   56.7910   26.3840   46.0050 C   0  0  0  0  0  0  0  0  0  0  0  0
   57.8690   27.3250   46.3750 C   0  0  0  0  0  0  0  0  0  0  0  0
   58.6491   26.9685   47.0637 H   0  0  0  0  0  0  0  0  0  0  0  0
   57.9580   28.5920   45.9230 C   0  0  0  0  0  0  0  0  0  0  0  0
   57.5670   29.0570   44.6730 C   0  0  0  0  0  0  0  0  0  0  0  0
   57.0961   28.4688   43.8715 H   0  0  0  0  0  0  0  0  0  0  0  0
   57.8840   30.4000   44.6320 C   0  0  0  0  0  0  0  0  0  0  0  0
   57.6630   31.2890   43.4470 C   0  0  0  0  0  0  0  0  0  0  0  0
   57.4109   32.3029   43.7912 H   0  0  0  0  0  0  0  0  0  0  0  0
   58.5795   31.3252   42.8398 H   0  0  0  0  0  0  0  0  0  0  0  0
   56.8363   30.8918   42.8398 H   0  0  0  0  0  0  0  0  0  0  0  0
   58.4650   30.7840   45.7910 N   0  0  0  0  0  0  0  0  0  0  0  0
   58.9300   32.1100   46.0970 C   0  0  0  0  0  0  0  0  0  0  0  0
   58.0730   33.2090   45.9490 C   0  0  0  0  0  0  0  0  0  0  0  0
   57.0391   33.0555   45.6063 H   0  0  0  0  0  0  0  0  0  0  0  0
   58.5270   34.4980   46.2350 C   0  0  0  0  0  0  0  0  0  0  0  0
   57.8491   35.3566   46.1199 H   0  0  0  0  0  0  0  0  0  0  0  0
   59.8400   34.7000   46.6670 C   0  0  0  0  0  0  0  0  0  0  0  0
   60.1914   35.7181   46.8904 H   0  0  0  0  0  0  0  0  0  0  0  0
   60.7150   33.6100   46.8180 C   0  0  0  0  0  0  0  0  0  0  0  0
   62.1050   33.8260   47.2760 C   0  0  0  0  0  0  0  0  0  0  0  0
   62.3450   34.1420   48.4720 O   0  0  0  0  0  0  0  0  0  0  0  0
   63.1690   33.6860   46.3900 O   0  0  0  0  0  0  0  0  0  0  0  0
   60.2480   32.3140   46.5300 C   0  0  0  0  0  0  0  0  0  0  0  0
   60.9231   31.4532   46.6456 H   0  0  0  0  0  0  0  0  0  0  0  0
   58.5180   29.6890   46.5910 C   0  0  0  0  0  0  0  0  0  0  0  0
   59.0610   29.6840   47.8190 C   0  0  0  0  0  0  0  0  0  0  0  0
   59.4720   30.6123   48.2424 H   0  0  0  0  0  0  0  0  0  0  0  0
   59.0948   28.7516   48.4016 H   0  0  0  0  0  0  0  0  0  0  0  0
   56.9890   25.0880   45.5480 C   0  0  0  0  0  0  0  0  0  0  0  0
   58.3050   24.4420   45.2370 C   0  0  0  0  0  0  0  0  0  0  0  0
   58.8202   24.1891   46.1754 H   0  0  0  0  0  0  0  0  0  0  0  0
   58.1346   23.5251   44.6537 H   0  0  0  0  0  0  0  0  0  0  0  0
   58.9262   25.1376   44.6537 H   0  0  0  0  0  0  0  0  0  0  0  0
   55.7330   24.5840   45.2750 C   0  0  0  0  0  0  0  0  0  0  0  0
   55.4240   23.2950   44.6350 C   0  0  0  0  0  0  0  0  0  0  0  0
   55.5552   23.2033   43.5467 H   0  0  0  0  0  0  0  0  0  0  0  0
   55.0020   22.2580   45.3010 N   0  0  0  0  0  0  0  0  0  0  0  0
   54.0760   22.2730   46.4360 C   0  0  0  0  0  0  0  0  0  0  0  0
   54.0338   21.2660   46.8767 H   0  0  0  0  0  0  0  0  0  0  0  0
   54.4409   23.0058   47.1707 H   0  0  0  0  0  0  0  0  0  0  0  0
   52.6920   22.6790   46.0100 C   0  0  0  0  0  0  0  0  0  0  0  0
   52.4780   23.0990   44.7310 N   0  0  0  0  0  0  0  0  0  0  0  0
   51.2390   23.4350   44.2820 C   0  0  0  0  0  0  0  0  0  0  0  0
   51.1023   23.7689   43.2429 H   0  0  0  0  0  0  0  0  0  0  0  0
   50.1410   23.3560   45.1400 C   0  0  0  0  0  0  0  0  0  0  0  0
   49.1353   23.6196   44.7808 H   0  0  0  0  0  0  0  0  0  0  0  0
   50.3320   22.9390   46.4590 C   0  0  0  0  0  0  0  0  0  0  0  0
   49.4766   22.8791   47.1480 H   0  0  0  0  0  0  0  0  0  0  0  0
   51.6130   22.5980   46.9010 C   0  0  0  0  0  0  0  0  0  0  0  0
   51.7731   22.2691   47.9384 H   0  0  0  0  0  0  0  0  0  0  0  0
  1  2  1  0
  2  3  1  0
  3  4  1  0
  4  5  1  0
  5  6  1  0
  6  7  1  0
  6  8  2  0
  8  9  1  0
  9 10  1  0
  9 11  2  0
 11 12  1  0
 12 13  1  0
 12 14  1  0
 12 15  1  0
 11 16  1  0
 16 17  1  0
 17 18  2  0
 18 19  1  0
 18 20  1  0
 20 21  1  0
 20 22  2  0
 22 23  1  0
 22 24  1  0
 24 25  1  0
 25 26  2  0
 25 27  1  0
 24 28  2  0
 28 29  1  0
 16 30  1  0
 30 31  2  0
 31 32  1  0
 31 33  1  0
  5 34  2  0
 34 35  1  0
 35 36  1  0
 35 37  1  0
 35 38  1  0
 34 39  1  0
 39 40  1  0
 40 41  1  0
 40 42  2  3
 42 43  1  0
 43 44  1  0
 43 45  1  0
 43 46  1  0
 46 47  2  0
 47 48  1  0
 48 49  1  0
 48 50  2  0
 50 51  1  0
 50 52  1  0
 52 53  1  0
 52 54  2  0
 54 55  1  0
 39  3  2  0
 54 46  1  0
 30  8  1  0
 28 17  1  0
M  CHG  2   4  -1  27  -1
M  END
>  <UniqueID>  (46) 
42

>  <SMILES>  (46) 
C=c1/c(=C/c2[n-]c(O)c(C=NCc3ccccn3)c2C)cc(C)n1-c1cccc(C(=O)[O-])c1

>  <Energy>  (46) 
127.1542928941132

>  <Genealogy>  (46) 
C=c1c(=Cc2[n-]c(O)c(C=NCc3ccccn3)c2C)cc(C)n1-c1cccc(C(=O)[O-])c1 (protonated)
C=c1/c(=C/c2[n-]c(O)c(C=NCc3ccccn3)c2C)cc(C)n1-c1cccc(C(=O)[O-])c1 (cis-trans isomerization)
C=c1/c(=C/c2[n-]c(O)c(C=NCc3ccccn3)c2C)cc(C)n1-c1cccc(C(=O)[O-])c1 (3D coordinates assigned)
C=c1/c(=C/c2[n-]c(O)c(C=NCc3ccccn3)c2C)cc(C)n1-c1cccc(C(=O)[O-])c1 (optimized conformer: 127.1542928941132 kcal/mol)

>  <smiles>  (46) 
C=c1c(=Cc2[nH]c(O)c(C=NCc3ccccn3)c2C)cc(C)n1-c1cccc(C(=O)O)c1

>  <score_type>  (46) 
oracle

>  <origin>  (46) 
adg

>  <m_score__min__energy>  (46) 
-13.19

>  <m_primary>  (46) 
energy

$$$$
46:0
     RDKit          3D

 69 74  0  0  0  0  0  0  0  0999 V2000
   58.8910   27.8680   44.6070 O   0  0  0  0  0  0  0  0  0  0  0  0
   57.9530   28.4620   45.2010 C   0  0  0  0  0  0  0  0  0  0  0  0
   56.8180   27.7160   45.6500 N   0  0  0  0  0  0  0  0  0  0  0  0
   56.7320   26.2920   45.5210 C   0  0  0  0  0  0  0  0  0  0  0  0
   57.8990   25.5520   45.2940 C   0  0  0  0  0  0  0  0  0  0  0  0
   57.8430   24.1600   45.1940 C   0  0  0  0  0  0  0  0  0  0  0  0
   56.6270   23.4940   45.3650 C   0  0  0  0  0  0  0  0  0  0  0  0
   55.4590   24.2180   45.6360 C   0  0  0  0  0  0  0  0  0  0  0  0
   53.9490   23.3380   46.0470 S   0  0  0  0  0  0  0  0  0  0  0  0
   54.5120   22.8350   47.6660 C   0  0  0  0  0  0  0  0  0  0  0  0
   53.7080   22.8170   48.7540 N   0  0  0  0  0  0  0  0  0  0  0  0
   54.3530   22.2810   49.8210 C   0  0  0  0  0  0  0  0  0  0  0  0
   53.7940   22.1380   51.0920 C   0  0  0  0  0  0  0  0  0  0  0  0
   54.5740   21.5660   52.1130 C   0  0  0  0  0  0  0  0  0  0  0  0
   55.8930   21.1420   51.8500 C   0  0  0  0  0  0  0  0  0  0  0  0
   56.4450   21.2920   50.5680 C   0  0  0  0  0  0  0  0  0  0  0  0
   55.6550   21.8710   49.5780 C   0  0  0  0  0  0  0  0  0  0  0  0
   56.0430   22.1830   47.9760 S   0  0  0  0  0  0  0  0  0  0  0  0
   55.5070   25.6190   45.7030 C   0  0  0  0  0  0  0  0  0  0  0  0
   54.3500   26.3360   45.9900 O   0  0  0  0  0  0  0  0  0  0  0  0
   58.0120   29.9190   45.4030 C   0  0  0  0  0  0  0  0  0  0  0  0
   58.2070   30.4570   46.6820 C   0  0  0  0  0  0  0  0  0  0  0  0
   58.2500   31.8430   46.8600 C   0  0  0  0  0  0  0  0  0  0  0  0
   58.1270   32.7090   45.7580 C   0  0  0  0  0  0  0  0  0  0  0  0
   58.1770   34.2110   45.9650 C   0  0  0  0  0  0  0  0  0  0  0  0
   59.3580   34.6880   46.7260 N   0  0  0  0  0  0  0  0  0  0  0  0
   60.6770   34.4660   46.0790 C   0  0  0  0  0  0  0  0  0  0  0  0
   61.4720   33.3510   46.7710 C   0  0  0  0  0  0  0  0  0  0  0  0
   61.7690   33.7290   48.2410 C   0  0  0  0  0  0  0  0  0  0  0  0
   62.1460   32.5010   49.1070 C   0  0  0  0  0  0  0  0  0  0  0  0
   61.0440   31.4790   49.2750 C   0  0  0  0  0  0  0  0  0  0  0  0
   59.9290   31.7590   50.0840 C   0  0  0  0  0  0  0  0  0  0  0  0
   58.9170   30.8070   50.2470 C   0  0  0  0  0  0  0  0  0  0  0  0
   59.0180   29.5620   49.6210 C   0  0  0  0  0  0  0  0  0  0  0  0
   60.1310   29.2670   48.8330 C   0  0  0  0  0  0  0  0  0  0  0  0
   61.1400   30.2200   48.6570 C   0  0  0  0  0  0  0  0  0  0  0  0
   60.6450   34.6030   48.8620 C   0  0  0  0  0  0  0  0  0  0  0  0
   59.2970   34.3610   48.1700 C   0  0  0  0  0  0  0  0  0  0  0  0
   57.9760   32.1610   44.4750 C   0  0  0  0  0  0  0  0  0  0  0  0
   57.8920   30.7780   44.3030 C   0  0  0  0  0  0  0  0  0  0  0  0
   58.8645   26.0695   45.1940 H   0  0  0  0  0  0  0  0  0  0  0  0
   58.7576   23.5874   44.9803 H   0  0  0  0  0  0  0  0  0  0  0  0
   56.5866   22.3975   45.2866 H   0  0  0  0  0  0  0  0  0  0  0  0
   52.7632   22.4664   51.2912 H   0  0  0  0  0  0  0  0  0  0  0  0
   54.1528   21.4487   53.1224 H   0  0  0  0  0  0  0  0  0  0  0  0
   56.4929   20.6910   52.6542 H   0  0  0  0  0  0  0  0  0  0  0  0
   57.4717   20.9618   50.3517 H   0  0  0  0  0  0  0  0  0  0  0  0
   58.3264   29.7881   47.5470 H   0  0  0  0  0  0  0  0  0  0  0  0
   58.3810   32.2597   47.8695 H   0  0  0  0  0  0  0  0  0  0  0  0
   58.1871   34.6939   44.9767 H   0  0  0  0  0  0  0  0  0  0  0  0
   57.2921   34.4741   46.5632 H   0  0  0  0  0  0  0  0  0  0  0  0
   60.5150   34.1874   45.0273 H   0  0  0  0  0  0  0  0  0  0  0  0
   61.2567   35.3976   46.1571 H   0  0  0  0  0  0  0  0  0  0  0  0
   60.8856   32.4206   46.7480 H   0  0  0  0  0  0  0  0  0  0  0  0
   62.4253   33.2120   46.2401 H   0  0  0  0  0  0  0  0  0  0  0  0
   62.6677   34.3632   48.2299 H   0  0  0  0  0  0  0  0  0  0  0  0
   63.0062   32.0021   48.6367 H   0  0  0  0  0  0  0  0  0  0  0  0
   62.3645   32.8880   50.1132 H   0  0  0  0  0  0  0  0  0  0  0  0
   59.8518   32.7318   50.5916 H   0  0  0  0  0  0  0  0  0  0  0  0
   58.0401   31.0391   50.8692 H   0  0  0  0  0  0  0  0  0  0  0  0
   58.2208   28.8150   49.7493 H   0  0  0  0  0  0  0  0  0  0  0  0
   60.2153   28.2828   48.3490 H   0  0  0  0  0  0  0  0  0  0  0  0
   62.0133   29.9829   48.0316 H   0  0  0  0  0  0  0  0  0  0  0  0
   60.5483   34.3554   49.9294 H   0  0  0  0  0  0  0  0  0  0  0  0
   60.9166   35.6605   48.7282 H   0  0  0  0  0  0  0  0  0  0  0  0
   59.0219   33.3022   48.2848 H   0  0  0  0  0  0  0  0  0  0  0  0
   58.5473   35.0151   48.6392 H   0  0  0  0  0  0  0  0  0  0  0  0
   57.9235   32.8250   43.5996 H   0  0  0  0  0  0  0  0  0  0  0  0
   57.7307   30.3606   43.2981 H   0  0  0  0  0  0  0  0  0  0  0  0
  1  2  2  0
  2  3  1  0
  3  4  1  0
  4  5  2  0
  5  6  1  0
  6  7  2  0
  7  8  1  0
  8  9  1  0
  9 10  1  0
 10 11  2  0
 11 12  1  0
 12 13  2  0
 13 14  1  0
 14 15  2  0
 15 16  1  0
 16 17  2  0
 17 18  1  0
  8 19  2  0
 19 20  1  0
  2 21  1  0
 21 22  2  0
 22 23  1  0
 23 24  2  0
 24 25  1  0
 25 26  1  0
 26 27  1  0
 27 28  1  0
 28 29  1  0
 29 30  1  0
 30 31  1  0
 31 32  2  0
 32 33  1  0
 33 34  2  0
 34 35  1  0
 35 36  2  0
 29 37  1  0
 37 38  1  0
 24 39  1  0
 39 40  2  0
 19  4  1  0
 40 21  1  0
 18 10  1  0
 38 26  1  0
 17 12  1  0
 36 31  1  0
  5 41  1  0
  6 42  1  0
  7 43  1  0
 13 44  1  0
 14 45  1  0
 15 46  1  0
 16 47  1  0
 22 48  1  0
 23 49  1  0
 25 50  1  0
 25 51  1  0
 27 52  1  0
 27 53  1  0
 28 54  1  0
 28 55  1  0
 29 56  1  0
 30 57  1  0
 30 58  1  0
 32 59  1  0
 33 60  1  0
 34 61  1  0
 35 62  1  0
 36 63  1  0
 37 64  1  0
 37 65  1  0
 38 66  1  0
 38 67  1  0
 39 68  1  0
 40 69  1  0
M  CHG  2   3  -1  20  -1
M  END
>  <UniqueID>  (47) 
43

>  <SMILES>  (47) 
O=C([N-]c1cccc(Sc2nc3ccccc3s2)c1[O-])c1ccc(CN2CCC(Cc3ccccc3)CC2)cc1

>  <Energy>  (47) 
122.09278234931656

>  <Genealogy>  (47) 
O=C([N-]c1cccc(Sc2nc3ccccc3s2)c1[O-])c1ccc(CN2CCC(Cc3ccccc3)CC2)cc1 (protonated)
O=C([N-]c1cccc(Sc2nc3ccccc3s2)c1[O-])c1ccc(CN2CCC(Cc3ccccc3)CC2)cc1 (3D coordinates assigned)
O=C([N-]c1cccc(Sc2nc3ccccc3s2)c1[O-])c1ccc(CN2CCC(Cc3ccccc3)CC2)cc1 (nonaromatic ring conformer: 122.09278234931656 kcal/mol)

>  <smiles>  (47) 
O=C(Nc1cccc(Sc2nc3ccccc3s2)c1O)c1ccc(CN2CCC(Cc3ccccc3)CC2)cc1

>  <score_type>  (47) 
oracle

>  <origin>  (47) 
adg

>  <m_score__min__energy>  (47) 
-16.149999999999999

>  <m_primary>  (47) 
energy

$$$$
47:0
     RDKit          3D

 34 36  0  0  0  0  0  0  0  0999 V2000
   54.7650   26.7110   47.1260 H   0  0  0  0  0  0  0  0  0  0  0  0
   55.1570   26.5870   46.2010 O   0  0  0  0  0  0  0  0  0  0  0  0
   56.5330   26.4960   46.0230 C   0  0  0  0  0  0  0  0  0  0  0  0
   57.2610   25.4090   46.3310 N   0  0  0  0  0  0  0  0  0  0  0  0
   58.5080   25.7740   45.9630 C   0  0  0  0  0  0  0  0  0  0  0  0
   59.5030   25.0130   46.0870 O   0  0  0  0  0  0  0  0  0  0  0  0
   58.6040   27.0170   45.4420 N   0  0  0  0  0  0  0  0  0  0  0  0
   57.3420   27.4800   45.5100 C   0  0  0  0  0  0  0  0  0  0  0  0
   56.8860   28.7590   44.9410 C   0  0  0  0  0  0  0  0  0  0  0  0
   56.0723   28.7190   44.2019 H   0  0  0  0  0  0  0  0  0  0  0  0
   57.3800   29.9740   45.2480 C   0  0  0  0  0  0  0  0  0  0  0  0
   57.0750   31.1130   44.5220 C   0  0  0  0  0  0  0  0  0  0  0  0
   56.3710   31.1836   43.6798 H   0  0  0  0  0  0  0  0  0  0  0  0
   57.8220   32.1420   45.0560 C   0  0  0  0  0  0  0  0  0  0  0  0
   57.8100   33.5520   44.5500 C   0  0  0  0  0  0  0  0  0  0  0  0
   57.8041   34.2474   45.4023 H   0  0  0  0  0  0  0  0  0  0  0  0
   58.7067   33.7296   43.9381 H   0  0  0  0  0  0  0  0  0  0  0  0
   56.9104   33.7143   43.9381 H   0  0  0  0  0  0  0  0  0  0  0  0
   58.5420   31.7000   46.1130 N   0  0  0  0  0  0  0  0  0  0  0  0
   59.4060   32.5050   46.9360 C   0  0  0  0  0  0  0  0  0  0  0  0
   58.8590   33.3980   47.8690 C   0  0  0  0  0  0  0  0  0  0  0  0
   57.7671   33.4864   47.9684 H   0  0  0  0  0  0  0  0  0  0  0  0
   59.6970   34.1760   48.6730 C   0  0  0  0  0  0  0  0  0  0  0  0
   59.2627   34.8751   49.4028 H   0  0  0  0  0  0  0  0  0  0  0  0
   61.0860   34.0680   48.5520 C   0  0  0  0  0  0  0  0  0  0  0  0
   61.9090   34.8470   49.3580 O   0  0  0  0  0  0  0  0  0  0  0  0
   61.6400   33.1790   47.6210 C   0  0  0  0  0  0  0  0  0  0  0  0
   63.5360   33.0150   47.4350 Br  0  0  0  0  0  0  0  0  0  0  0  0
   60.8000   32.4000   46.8150 C   0  0  0  0  0  0  0  0  0  0  0  0
   61.2351   31.7028   46.0839 H   0  0  0  0  0  0  0  0  0  0  0  0
   58.2590   30.3810   46.2650 C   0  0  0  0  0  0  0  0  0  0  0  0
   58.6400   29.6680   47.3370 C   0  0  0  0  0  0  0  0  0  0  0  0
   59.3389   30.1028   48.0667 H   0  0  0  0  0  0  0  0  0  0  0  0
   58.2532   28.6490   47.4856 H   0  0  0  0  0  0  0  0  0  0  0  0
  1  2  1  0
  2  3  1  0
  3  4  1  0
  4  5  1  0
  5  6  2  0
  5  7  1  0
  7  8  1  0
  8  9  1  0
  9 10  1  0
  9 11  2  0
 11 12  1  0
 12 13  1  0
 12 14  2  0
 14 15  1  0
 15 16  1  0
 15 17  1  0
 15 18  1  0
 14 19  1  0
 19 20  1  0
 20 21  2  0
 21 22  1  0
 21 23  1  0
 23 24  1  0
 23 25  2  0
 25 26  1  0
 25 27  1  0
 27 28  1  0
 27 29  2  0
 29 30  1  0
 19 31  1  0
 31 32  2  0
 32 33  1  0
 32 34  1  0
  8  3  2  0
 31 11  1  0
 29 20  1  0
M  CHG  3   4  -1   7  -1  26  -1
M  END
>  <UniqueID>  (48) 
44

>  <SMILES>  (48) 
C=c1/c(=C\c2[n-]c(=O)[n-]c2O)cc(C)n1-c1ccc([O-])c(Br)c1

>  <Energy>  (48) 
110.42710891602354

>  <Genealogy>  (48) 
C=c1c(=Cc2[n-]c(=O)[n-]c2O)cc(C)n1-c1ccc([O-])c(Br)c1 (protonated)
C=c1/c(=C\c2[n-]c(=O)[n-]c2O)cc(C)n1-c1ccc([O-])c(Br)c1 (cis-trans isomerization)
C=c1/c(=C\c2[n-]c(=O)[n-]c2O)cc(C)n1-c1ccc([O-])c(Br)c1 (3D coordinates assigned)
C=c1/c(=C\c2[n-]c(=O)[n-]c2O)cc(C)n1-c1ccc([O-])c(Br)c1 (optimized conformer: 110.42710891602354 kcal/mol)

>  <smiles>  (48) 
C=c1c(=Cc2[nH]c(=O)[nH]c2O)cc(C)n1-c1ccc(O)c(Br)c1

>  <score_type>  (48) 
oracle

>  <origin>  (48) 
adg

>  <m_score__min__energy>  (48) 
-13.43

>  <m_primary>  (48) 
energy

$$$$
48:0
     RDKit          3D

 34 36  0  0  0  0  0  0  0  0999 V2000
   60.7460   27.0060   46.0820 C   0  0  0  0  0  0  0  0  0  0  0  0
   59.9990   28.0140   46.5530 C   0  0  0  0  0  0  0  0  0  0  0  0
   60.6170   28.8920   47.3790 N   0  0  0  0  0  0  0  0  0  0  0  0
   60.0560   30.0630   47.7530 C   0  0  0  0  0  0  0  0  0  0  0  0
   60.6940   30.8170   48.5370 O   0  0  0  0  0  0  0  0  0  0  0  0
   58.8330   30.4310   47.2620 N   0  0  0  0  0  0  0  0  0  0  0  0
   58.2680   31.7570   47.5870 C   0  0  0  0  0  0  0  0  0  0  0  0
   58.6430   32.7630   46.5300 C   0  0  0  0  0  0  0  0  0  0  0  0
   58.2110   32.5920   45.2050 C   0  0  0  0  0  0  0  0  0  0  0  0
   58.5320   33.5420   44.2300 C   0  0  0  0  0  0  0  0  0  0  0  0
   59.2830   34.6700   44.5710 C   0  0  0  0  0  0  0  0  0  0  0  0
   59.7130   34.8500   45.8890 C   0  0  0  0  0  0  0  0  0  0  0  0
   59.3940   33.9030   46.8660 C   0  0  0  0  0  0  0  0  0  0  0  0
   58.1420   29.5680   46.4460 C   0  0  0  0  0  0  0  0  0  0  0  0
   57.0070   29.9090   46.0030 O   0  0  0  0  0  0  0  0  0  0  0  0
   58.6640   28.2850   46.1300 C   0  0  0  0  0  0  0  0  0  0  0  0
   57.8680   27.3990   45.4680 C   0  0  0  0  0  0  0  0  0  0  0  0
   57.3670   26.1180   46.0030 C   0  0  0  0  0  0  0  0  0  0  0  0
   58.3140   24.8490   46.5950 S   0  0  0  0  0  0  0  0  0  0  0  0
   56.9740   23.9910   47.1360 C   0  0  0  0  0  0  0  0  0  0  0  0
   57.0300   22.8680   47.6980 O   0  0  0  0  0  0  0  0  0  0  0  0
   55.8140   24.6430   46.9120 N   0  0  0  0  0  0  0  0  0  0  0  0
   56.0350   25.8350   46.2960 C   0  0  0  0  0  0  0  0  0  0  0  0
   54.9940   26.7000   45.9870 O   0  0  0  0  0  0  0  0  0  0  0  0
   60.3009   26.2605   45.4067 H   0  0  0  0  0  0  0  0  0  0  0  0
   61.8043   26.9242   46.3707 H   0  0  0  0  0  0  0  0  0  0  0  0
   57.1720   31.6802   47.6413 H   0  0  0  0  0  0  0  0  0  0  0  0
   58.6729   32.0892   48.5543 H   0  0  0  0  0  0  0  0  0  0  0  0
   57.6174   31.7069   44.9326 H   0  0  0  0  0  0  0  0  0  0  0  0
   58.1928   33.4010   43.1932 H   0  0  0  0  0  0  0  0  0  0  0  0
   59.5357   35.4158   43.8029 H   0  0  0  0  0  0  0  0  0  0  0  0
   60.3034   35.7385   46.1575 H   0  0  0  0  0  0  0  0  0  0  0  0
   59.7320   34.0502   47.9024 H   0  0  0  0  0  0  0  0  0  0  0  0
   57.5720   27.6624   44.4418 H   0  0  0  0  0  0  0  0  0  0  0  0
  1  2  2  0
  2  3  1  0
  3  4  1  0
  4  5  2  0
  4  6  1  0
  6  7  1  0
  7  8  1  0
  8  9  2  0
  9 10  1  0
 10 11  2  0
 11 12  1  0
 12 13  2  0
  6 14  1  0
 14 15  2  0
 14 16  1  0
 16 17  2  3
 17 18  1  0
 18 19  1  0
 19 20  1  0
 20 21  2  0
 20 22  1  0
 22 23  1  0
 23 24  1  0
 16  2  1  0
 23 18  2  0
 13  8  1  0
  1 25  1  0
  1 26  1  0
  7 27  1  0
  7 28  1  0
  9 29  1  0
 10 30  1  0
 11 31  1  0
 12 32  1  0
 13 33  1  0
 17 34  1  0
M  CHG  3   3  -1  22  -1  24  -1
M  END
>  <UniqueID>  (49) 
45

>  <SMILES>  (49) 
C=c1[n-]c(=O)n(Cc2ccccc2)c(=O)c1=Cc1sc(=O)[n-]c1[O-]

>  <Energy>  (49) 
94.05903674098707

>  <Genealogy>  (49) 
C=c1[n-]c(=O)n(Cc2ccccc2)c(=O)c1=Cc1sc(=O)[n-]c1[O-] (protonated)
C=c1[n-]c(=O)n(Cc2ccccc2)c(=O)c1=Cc1sc(=O)[n-]c1[O-] (3D coordinates assigned)
C=c1[n-]c(=O)n(Cc2ccccc2)c(=O)c1=Cc1sc(=O)[n-]c1[O-] (optimized conformer: 94.05903674098707 kcal/mol)

>  <smiles>  (49) 
C=c1[nH]c(=O)n(Cc2ccccc2)c(=O)c1=Cc1sc(=O)[nH]c1O

>  <score_type>  (49) 
oracle

>  <origin>  (49) 
adg

>  <m_score__min__energy>  (49) 
-15.25

>  <m_primary>  (49) 
energy

$$$$
49:0
     RDKit          3D

 51 54  0  0  1  0  0  0  0  0999 V2000
   53.3800   24.1260   45.2180 C   0  0  0  0  0  0  0  0  0  0  0  0
   54.3120   24.6810   46.1150 N   0  0  0  0  0  0  0  0  0  0  0  0
   55.4500   25.1460   45.9170 C   0  0  0  0  0  0  0  0  0  0  0  0
   55.5910   26.4850   45.8280 N   0  0  0  0  0  0  0  0  0  0  0  0
   56.7740   27.0550   45.5850 C   0  0  0  0  0  0  0  0  0  0  0  0
   56.9820   28.4700   45.4870 N   0  0  0  0  0  0  0  0  0  0  0  0
   57.8490   29.1950   46.3870 C   0  0  0  0  0  0  0  0  0  0  0  0
   58.3530   30.4540   45.7770 C   0  0  0  0  0  0  0  0  0  0  0  0
   57.4340   31.1940   45.0360 N   0  0  0  0  0  0  0  0  0  0  0  0
   57.0960   32.5190   45.3770 C   0  0  0  0  0  0  0  0  0  0  0  0
   58.1890   33.1350   46.1760 C   0  0  0  0  0  0  0  0  0  0  0  0
   59.1860   33.8980   45.5680 C   0  0  0  0  0  0  0  0  0  0  0  0
   60.1750   34.4840   46.3660 C   0  0  0  0  0  0  0  0  0  0  0  0
   60.1310   34.2870   47.7360 C   0  0  0  0  0  0  0  0  0  0  0  0
   61.1130   34.8800   48.4690 F   0  0  0  0  0  0  0  0  0  0  0  0
   59.1310   33.5270   48.3150 C   0  0  0  0  0  0  0  0  0  0  0  0
   58.1470   32.9410   47.5430 C   0  0  0  0  0  0  0  0  0  0  0  0
   56.5330   30.5360   44.1650 C   0  0  0  0  0  0  0  0  0  0  0  0
   56.2230   29.1190   44.4160 C   0  0  0  0  0  0  0  0  0  0  0  0
   57.8600   26.2790   45.4230 N   0  0  0  0  0  0  0  0  0  0  0  0
   57.7330   24.9450   45.5080 C   0  0  0  0  0  0  0  0  0  0  0  0
   58.8840   24.2070   45.3310 C   0  0  0  0  0  0  0  0  0  0  0  0
   58.7320   22.8360   45.4250 C   0  0  0  0  0  0  0  0  0  0  0  0
   57.5650   22.1940   45.6710 C   0  0  0  0  0  0  0  0  0  0  0  0
   57.5430   20.7110   45.7460 C   0  0  0  0  0  0  0  0  0  0  0  0
   56.3930   22.9570   45.8500 C   0  0  0  0  0  0  0  0  0  0  0  0
   56.5230   24.3110   45.7600 C   0  0  0  0  0  0  0  0  0  0  0  0
   52.5694   23.6433   45.7836 H   0  0  0  0  0  0  0  0  0  0  0  0
   52.9616   24.9222   44.5847 H   0  0  0  0  0  0  0  0  0  0  0  0
   53.8807   23.3788   44.5847 H   0  0  0  0  0  0  0  0  0  0  0  0
   54.7680   27.1050   45.9490 H   0  0  0  0  0  0  0  0  0  0  0  0
   57.2873   29.4421   47.3000 H   0  0  0  0  0  0  0  0  0  0  0  0
   58.7149   28.5561   46.6150 H   0  0  0  0  0  0  0  0  0  0  0  0
   58.7215   31.0961   46.5906 H   0  0  0  0  0  0  0  0  0  0  0  0
   59.1249   30.1421   45.0580 H   0  0  0  0  0  0  0  0  0  0  0  0
   56.9431   33.1037   44.4579 H   0  0  0  0  0  0  0  0  0  0  0  0
   56.1723   32.5130   45.9743 H   0  0  0  0  0  0  0  0  0  0  0  0
   59.1947   34.0371   44.4769 H   0  0  0  0  0  0  0  0  0  0  0  0
   60.9732   35.0904   45.9130 H   0  0  0  0  0  0  0  0  0  0  0  0
   59.1192   33.3872   49.4060 H   0  0  0  0  0  0  0  0  0  0  0  0
   57.3519   32.3366   48.0040 H   0  0  0  0  0  0  0  0  0  0  0  0
   55.5824   31.0882   44.2032 H   0  0  0  0  0  0  0  0  0  0  0  0
   57.0511   30.5309   43.1947 H   0  0  0  0  0  0  0  0  0  0  0  0
   55.1554   29.0494   44.6718 H   0  0  0  0  0  0  0  0  0  0  0  0
   56.5038   28.5889   43.4939 H   0  0  0  0  0  0  0  0  0  0  0  0
   59.8576   24.6772   45.1286 H   0  0  0  0  0  0  0  0  0  0  0  0
   59.6310   22.2169   45.2891 H   0  0  0  0  0  0  0  0  0  0  0  0
   57.5383   20.3972   46.8003 H   0  0  0  0  0  0  0  0  0  0  0  0
   56.6391   20.3320   45.2466 H   0  0  0  0  0  0  0  0  0  0  0  0
   58.4352   20.3053   45.2466 H   0  0  0  0  0  0  0  0  0  0  0  0
   55.4213   22.4829   46.0524 H   0  0  0  0  0  0  0  0  0  0  0  0
  1  2  1  0
  2  3  2  0
  3  4  1  0
  4  5  1  0
  5  6  1  0
  6  7  1  0
  7  8  1  0
  8  9  1  0
  9 10  1  0
 10 11  1  0
 11 12  2  0
 12 13  1  0
 13 14  2  0
 14 15  1  0
 14 16  1  0
 16 17  2  0
  9 18  1  0
 18 19  1  0
  5 20  2  0
 20 21  1  0
 21 22  2  0
 22 23  1  0
 23 24  2  0
 24 25  1  0
 24 26  1  0
 26 27  2  0
 27  3  1  0
 19  6  1  0
 27 21  1  0
 17 11  1  0
  1 28  1  0
  1 29  1  0
  1 30  1  0
  4 31  1  0
  7 32  1  0
  7 33  1  0
  8 34  1  0
  8 35  1  0
 10 36  1  0
 10 37  1  0
 12 38  1  0
 13 39  1  0
 16 40  1  0
 17 41  1  0
 18 42  1  0
 18 43  1  0
 19 44  1  0
 19 45  1  0
 22 46  1  0
 23 47  1  0
 25 48  1  0
 25 49  1  0
 25 50  1  0
 26 51  1  0
M  END
>  <smiles>  (50) 
CN=c1[nH]c(N2CCN(Cc3ccc(F)cc3)CC2)nc2ccc(C)cc12

>  <score_type>  (50) 
oracle

>  <origin>  (50) 
adg

>  <m_score__min__energy>  (50) 
-8.3800000000000008

>  <m_primary>  (50) 
energy

$$$$
50:0
     RDKit          3D

 37 38  0  0  0  0  0  0  0  0999 V2000
   54.9781   24.5542   46.5976 H   0  0  0  0  0  0  0  0  0  0  0  0
   55.7400   25.3080   46.3500 C   0  0  0  0  0  0  0  0  0  0  0  0
   55.3610   26.5450   45.9370 N   0  0  0  0  0  0  0  0  0  0  0  0
   56.2820   27.4950   45.6310 C   0  0  0  0  0  0  0  0  0  0  0  0
   55.8850   28.6470   45.1770 N   0  0  0  0  0  0  0  0  0  0  0  0
   56.4740   29.3360   44.0280 C   0  0  0  0  0  0  0  0  0  0  0  0
   57.1778   28.6598   43.5207 H   0  0  0  0  0  0  0  0  0  0  0  0
   55.6710   29.6307   43.3364 H   0  0  0  0  0  0  0  0  0  0  0  0
   57.2090   30.5700   44.4810 C   0  0  0  0  0  0  0  0  0  0  0  0
   57.7960   30.6270   45.7570 C   0  0  0  0  0  0  0  0  0  0  0  0
   57.6781   29.7828   46.4523 H   0  0  0  0  0  0  0  0  0  0  0  0
   58.5290   31.7520   46.1460 C   0  0  0  0  0  0  0  0  0  0  0  0
   58.9869   31.7905   47.1454 H   0  0  0  0  0  0  0  0  0  0  0  0
   58.6810   32.8290   45.2660 C   0  0  0  0  0  0  0  0  0  0  0  0
   59.3980   33.9160   45.6430 F   0  0  0  0  0  0  0  0  0  0  0  0
   58.0980   32.7800   43.9960 C   0  0  0  0  0  0  0  0  0  0  0  0
   58.2173   33.6268   43.3041 H   0  0  0  0  0  0  0  0  0  0  0  0
   57.3640   31.6570   43.6040 C   0  0  0  0  0  0  0  0  0  0  0  0
   56.9056   31.6239   42.6046 H   0  0  0  0  0  0  0  0  0  0  0  0
   57.6080   27.2180   45.7700 N   0  0  0  0  0  0  0  0  0  0  0  0
   58.0350   25.9980   46.1850 C   0  0  0  0  0  0  0  0  0  0  0  0
   59.2710   25.7760   46.2910 O   0  0  0  0  0  0  0  0  0  0  0  0
   57.0980   24.9910   46.4610 C   0  0  0  0  0  0  0  0  0  0  0  0
   57.5250   23.6230   46.8100 C   0  0  0  0  0  0  0  0  0  0  0  0
   57.3600   23.2090   47.9870 O   0  0  0  0  0  0  0  0  0  0  0  0
   58.1580   22.7620   45.8520 N   0  0  0  0  0  0  0  0  0  0  0  0
   57.7210   21.4080   45.5120 C   0  0  0  0  0  0  0  0  0  0  0  0
   57.6006   20.8255   46.4373 H   0  0  0  0  0  0  0  0  0  0  0  0
   58.4800   20.9466   44.8631 H   0  0  0  0  0  0  0  0  0  0  0  0
   56.3900   21.4360   44.7620 C   0  0  0  0  0  0  0  0  0  0  0  0
   55.7179   22.1643   45.2393 H   0  0  0  0  0  0  0  0  0  0  0  0
   55.9363   20.4344   44.7931 H   0  0  0  0  0  0  0  0  0  0  0  0
   56.6650   21.9160   43.0240 S   0  0  0  0  0  0  0  0  0  0  0  0
   56.4380   23.6990   43.3220 C   0  0  0  0  0  0  0  0  0  0  0  0
   56.4137   23.8896   44.4051 H   0  0  0  0  0  0  0  0  0  0  0  0
   57.2726   24.2554   42.8704 H   0  0  0  0  0  0  0  0  0  0  0  0
   55.4906   24.0285   42.8704 H   0  0  0  0  0  0  0  0  0  0  0  0
  1  2  1  0
  2  3  1  0
  3  4  1  0
  4  5  2  0
  5  6  1  0
  6  7  1  0
  6  8  1  0
  6  9  1  0
  9 10  2  0
 10 11  1  0
 10 12  1  0
 12 13  1  0
 12 14  2  0
 14 15  1  0
 14 16  1  0
 16 17  1  0
 16 18  2  0
 18 19  1  0
  4 20  1  0
 20 21  1  0
 21 22  2  0
 21 23  1  0
 23 24  1  0
 24 25  2  0
 24 26  1  0
 26 27  1  0
 27 28  1  0
 27 29  1  0
 27 30  1  0
 30 31  1  0
 30 32  1  0
 30 33  1  0
 33 34  1  0
 34 35  1  0
 34 36  1  0
 34 37  1  0
 23  2  2  0
 18  9  1  0
M  CHG  3   3  -1  20  -1  26  -1
M  END
>  <UniqueID>  (51) 
46

>  <SMILES>  (51) 
CSCC[N-]C(=O)c1c[n-]/c(=N/Cc2ccc(F)cc2)[n-]c1=O

>  <Energy>  (51) 
35.63123243743355

>  <Genealogy>  (51) 
CSCC[N-]C(=O)c1c[n-]c(=NCc2ccc(F)cc2)[n-]c1=O (protonated)
CSCC[N-]C(=O)c1c[n-]/c(=N/Cc2ccc(F)cc2)[n-]c1=O (cis-trans isomerization)
CSCC[N-]C(=O)c1c[n-]/c(=N/Cc2ccc(F)cc2)[n-]c1=O (3D coordinates assigned)
CSCC[N-]C(=O)c1c[n-]/c(=N/Cc2ccc(F)cc2)[n-]c1=O (optimized conformer: 35.63123243743355 kcal/mol)

>  <smiles>  (51) 
CSCCNC(=O)c1c[nH]c(=NCc2ccc(F)cc2)[nH]c1=O

>  <score_type>  (51) 
oracle

>  <origin>  (51) 
adg

>  <m_score__min__energy>  (51) 
-11.68

>  <m_primary>  (51) 
energy

$$$$
51:0
     RDKit          3D

 40 42  0  0  0  0  0  0  0  0999 V2000
   60.7400   29.4440   50.5460 O   0  0  0  0  0  0  0  0  0  0  0  0
   59.7900   30.2600   50.3970 C   0  0  0  0  0  0  0  0  0  0  0  0
   59.3790   30.6730   49.0210 C   0  0  0  0  0  0  0  0  0  0  0  0
   60.3760   31.6510   48.4620 C   0  0  0  0  0  0  0  0  0  0  0  0
   60.1020   33.0280   48.4770 C   0  0  0  0  0  0  0  0  0  0  0  0
   61.0450   33.9390   47.9930 C   0  0  0  0  0  0  0  0  0  0  0  0
   62.2710   33.4830   47.4980 C   0  0  0  0  0  0  0  0  0  0  0  0
   62.5610   32.1150   47.4910 C   0  0  0  0  0  0  0  0  0  0  0  0
   63.7890   31.6750   47.0040 O   0  0  0  0  0  0  0  0  0  0  0  0
   61.6160   31.2000   47.9770 C   0  0  0  0  0  0  0  0  0  0  0  0
   59.1010   30.8020   51.5300 N   0  0  0  0  0  0  0  0  0  0  0  0
   57.7490   30.5200   51.9210 C   0  0  0  0  0  0  0  0  0  0  0  0
   56.7640   31.4850   51.6770 C   0  0  0  0  0  0  0  0  0  0  0  0
   55.4320   31.2400   52.0200 C   0  0  0  0  0  0  0  0  0  0  0  0
   55.0650   30.0200   52.6070 C   0  0  0  0  0  0  0  0  0  0  0  0
   53.6240   29.7390   52.9380 C   0  0  0  0  0  0  0  0  0  0  0  0
   52.7230   30.5190   52.0280 C   0  0  0  0  0  0  0  0  0  0  0  0
   52.4230   30.0520   50.7420 C   0  0  0  0  0  0  0  0  0  0  0  0
   51.5480   30.7980   49.9500 C   0  0  0  0  0  0  0  0  0  0  0  0
   51.2600   30.4100   48.7870 O   0  0  0  0  0  0  0  0  0  0  0  0
   51.0040   31.9430   50.4360 N   0  0  0  0  0  0  0  0  0  0  0  0
   51.2960   32.3780   51.6890 C   0  0  0  0  0  0  0  0  0  0  0  0
   50.7790   33.4400   52.1230 O   0  0  0  0  0  0  0  0  0  0  0  0
   52.1450   31.6660   52.4760 N   0  0  0  0  0  0  0  0  0  0  0  0
   56.0430   29.0370   52.8180 C   0  0  0  0  0  0  0  0  0  0  0  0
   57.3760   29.2820   52.4750 C   0  0  0  0  0  0  0  0  0  0  0  0
   59.3344   29.7861   48.3718 H   0  0  0  0  0  0  0  0  0  0  0  0
   58.3890   31.1503   49.0661 H   0  0  0  0  0  0  0  0  0  0  0  0
   59.1414   33.3912   48.8712 H   0  0  0  0  0  0  0  0  0  0  0  0
   60.8226   35.0162   48.0014 H   0  0  0  0  0  0  0  0  0  0  0  0
   63.0090   34.2022   47.1132 H   0  0  0  0  0  0  0  0  0  0  0  0
   64.6470   32.1790   47.1970 H   0  0  0  0  0  0  0  0  0  0  0  0
   61.8461   30.1243   47.9787 H   0  0  0  0  0  0  0  0  0  0  0  0
   57.0410   32.4426   51.2120 H   0  0  0  0  0  0  0  0  0  0  0  0
   54.6675   32.0074   51.8288 H   0  0  0  0  0  0  0  0  0  0  0  0
   53.4251   28.6644   52.8128 H   0  0  0  0  0  0  0  0  0  0  0  0
   53.4295   30.0377   53.9786 H   0  0  0  0  0  0  0  0  0  0  0  0
   52.8666   29.1188   50.3647 H   0  0  0  0  0  0  0  0  0  0  0  0
   55.7597   28.0684   53.2556 H   0  0  0  0  0  0  0  0  0  0  0  0
   58.1359   28.5038   52.6390 H   0  0  0  0  0  0  0  0  0  0  0  0
  1  2  2  0
  2  3  1  0
  3  4  1  0
  4  5  2  0
  5  6  1  0
  6  7  2  0
  7  8  1  0
  8  9  1  0
  8 10  2  0
  2 11  1  0
 11 12  1  0
 12 13  2  0
 13 14  1  0
 14 15  2  0
 15 16  1  0
 16 17  1  0
 17 18  2  0
 18 19  1  0
 19 20  2  0
 19 21  1  0
 21 22  1  0
 22 23  2  0
 22 24  1  0
 15 25  1  0
 25 26  2  0
 10  4  1  0
 26 12  1  0
 24 17  1  0
  3 27  1  0
  3 28  1  0
  5 29  1  0
  6 30  1  0
  7 31  1  0
  9 32  1  0
 10 33  1  0
 13 34  1  0
 14 35  1  0
 16 36  1  0
 16 37  1  0
 18 38  1  0
 25 39  1  0
 26 40  1  0
M  CHG  3  11  -1  21  -1  24  -1
M  END
>  <UniqueID>  (52) 
47

>  <SMILES>  (52) 
O=C(Cc1cccc(O)c1)[N-]c1ccc(Cc2cc(=O)[n-]c(=O)[n-]2)cc1

>  <Energy>  (52) 
43.19379528338315

>  <Genealogy>  (52) 
O=C(Cc1cccc(O)c1)[N-]c1ccc(Cc2cc(=O)[n-]c(=O)[n-]2)cc1 (protonated)
O=C(Cc1cccc(O)c1)[N-]c1ccc(Cc2cc(=O)[n-]c(=O)[n-]2)cc1 (3D coordinates assigned)
O=C(Cc1cccc(O)c1)[N-]c1ccc(Cc2cc(=O)[n-]c(=O)[n-]2)cc1 (optimized conformer: 43.19379528338315 kcal/mol)

>  <smiles>  (52) 
O=C(Cc1cccc(O)c1)Nc1ccc(Cc2cc(=O)[nH]c(=O)[nH]2)cc1

>  <score_type>  (52) 
oracle

>  <origin>  (52) 
adg

>  <m_score__min__energy>  (52) 
-13.449999999999999

>  <m_primary>  (52) 
energy

$$$$
52:0
     RDKit          3D

 42 45  0  0  0  0  0  0  0  0999 V2000
   58.6400   29.6890   43.3540 H   0  0  0  0  0  0  0  0  0  0  0  0
   59.1160   29.2960   44.1580 O   0  0  0  0  0  0  0  0  0  0  0  0
   58.5390   28.2870   44.9300 C   0  0  0  0  0  0  0  0  0  0  0  0
   59.3510   27.3230   45.5440 C   0  0  0  0  0  0  0  0  0  0  0  0
   60.4426   27.3639   45.4148 H   0  0  0  0  0  0  0  0  0  0  0  0
   58.7800   26.3110   46.3190 C   0  0  0  0  0  0  0  0  0  0  0  0
   59.5910   25.3620   46.9290 O   0  0  0  0  0  0  0  0  0  0  0  0
   57.3930   26.2490   46.4740 C   0  0  0  0  0  0  0  0  0  0  0  0
   56.9449   25.4489   47.0815 H   0  0  0  0  0  0  0  0  0  0  0  0
   56.5720   27.2000   45.8600 C   0  0  0  0  0  0  0  0  0  0  0  0
   55.1920   27.0870   45.9910 O   0  0  0  0  0  0  0  0  0  0  0  0
   57.1430   28.2440   45.1050 C   0  0  0  0  0  0  0  0  0  0  0  0
   56.2960   29.2640   44.4450 C   0  0  0  0  0  0  0  0  0  0  0  0
   55.7388   28.9687   43.5437 H   0  0  0  0  0  0  0  0  0  0  0  0
   56.1710   30.4910   44.8680 N   0  0  0  0  0  0  0  0  0  0  0  0
   57.2270   31.4150   45.1810 C   0  0  0  0  0  0  0  0  0  0  0  0
   57.4280   32.5200   44.3450 C   0  0  0  0  0  0  0  0  0  0  0  0
   56.7707   32.6754   43.4768 H   0  0  0  0  0  0  0  0  0  0  0  0
   58.4590   33.4270   44.6070 C   0  0  0  0  0  0  0  0  0  0  0  0
   58.6030   34.2975   43.9501 H   0  0  0  0  0  0  0  0  0  0  0  0
   59.3120   33.2310   45.7060 C   0  0  0  0  0  0  0  0  0  0  0  0
   60.3650   34.1130   45.9950 O   0  0  0  0  0  0  0  0  0  0  0  0
   61.4430   33.8400   46.8520 C   0  0  0  0  0  0  0  0  0  0  0  0
   62.7540   33.6920   46.3610 C   0  0  0  0  0  0  0  0  0  0  0  0
   62.9463   33.7783   45.2814 H   0  0  0  0  0  0  0  0  0  0  0  0
   63.8130   33.4360   47.2370 C   0  0  0  0  0  0  0  0  0  0  0  0
   64.8321   33.3111   46.8422 H   0  0  0  0  0  0  0  0  0  0  0  0
   63.5830   33.3380   48.6120 C   0  0  0  0  0  0  0  0  0  0  0  0
   64.4189   33.1315   49.2965 H   0  0  0  0  0  0  0  0  0  0  0  0
   62.2870   33.5030   49.1180 C   0  0  0  0  0  0  0  0  0  0  0  0
   62.0290   33.4200   50.4920 C   0  0  0  0  0  0  0  0  0  0  0  0
   62.8501   33.2198   51.1961 H   0  0  0  0  0  0  0  0  0  0  0  0
   60.7270   33.5920   50.9660 C   0  0  0  0  0  0  0  0  0  0  0  0
   60.5167   33.5280   52.0438 H   0  0  0  0  0  0  0  0  0  0  0  0
   59.6930   33.8460   50.0610 C   0  0  0  0  0  0  0  0  0  0  0  0
   58.6647   33.9839   50.4266 H   0  0  0  0  0  0  0  0  0  0  0  0
   59.9560   33.9230   48.7290 N   0  0  0  0  0  0  0  0  0  0  0  0
   61.2130   33.7600   48.2340 C   0  0  0  0  0  0  0  0  0  0  0  0
   59.1460   32.0980   46.5090 C   0  0  0  0  0  0  0  0  0  0  0  0
   59.8309   31.9196   47.3510 H   0  0  0  0  0  0  0  0  0  0  0  0
   58.1150   31.1910   46.2480 C   0  0  0  0  0  0  0  0  0  0  0  0
   57.9978   30.2983   46.8799 H   0  0  0  0  0  0  0  0  0  0  0  0
  1  2  1  0
  2  3  1  0
  3  4  2  0
  4  5  1  0
  4  6  1  0
  6  7  1  0
  6  8  2  0
  8  9  1  0
  8 10  1  0
 10 11  1  0
 10 12  2  0
 12 13  1  0
 13 14  1  0
 13 15  2  0
 15 16  1  0
 16 17  2  0
 17 18  1  0
 17 19  1  0
 19 20  1  0
 19 21  2  0
 21 22  1  0
 22 23  1  0
 23 24  2  0
 24 25  1  0
 24 26  1  0
 26 27  1  0
 26 28  2  0
 28 29  1  0
 28 30  1  0
 30 31  2  0
 31 32  1  0
 31 33  1  0
 33 34  1  0
 33 35  2  0
 35 36  1  0
 35 37  1  0
 37 38  2  0
 21 39  1  0
 39 40  1  0
 39 41  2  0
 41 42  1  0
 12  3  1  0
 41 16  1  0
 38 23  1  0
 38 30  1  0
M  CHG  2   7  -1  11  -1
M  END
>  <UniqueID>  (53) 
48

>  <SMILES>  (53) 
[O-]c1cc([O-])c(/C=N\c2ccc(Oc3cccc4cccnc34)cc2)c(O)c1

>  <Energy>  (53) 
69.84250350630191

>  <Genealogy>  (53) 
[O-]c1cc([O-])c(C=Nc2ccc(Oc3cccc4cccnc34)cc2)c(O)c1 (protonated)
[O-]c1cc([O-])c(/C=N\c2ccc(Oc3cccc4cccnc34)cc2)c(O)c1 (cis-trans isomerization)
[O-]c1cc([O-])c(/C=N\c2ccc(Oc3cccc4cccnc34)cc2)c(O)c1 (3D coordinates assigned)
[O-]c1cc([O-])c(/C=N\c2ccc(Oc3cccc4cccnc34)cc2)c(O)c1 (optimized conformer: 69.84250350630191 kcal/mol)

>  <smiles>  (53) 
Oc1cc(O)c(C=Nc2ccc(Oc3cccc4cccnc34)cc2)c(O)c1

>  <score_type>  (53) 
oracle

>  <origin>  (53) 
adg

>  <m_score__min__energy>  (53) 
-14.19

>  <m_primary>  (53) 
energy

$$$$
53:0
     RDKit          3D

 61 65  0  0  0  0  0  0  0  0999 V2000
   59.2710   33.9040   51.1880 C   0  0  0  0  0  0  0  0  0  0  0  0
   59.6290   32.4310   50.9530 C   0  0  0  0  0  0  0  0  0  0  0  0
   59.9580   31.7100   52.2730 C   0  0  0  0  0  0  0  0  0  0  0  0
   60.4900   30.2940   51.9860 C   0  0  0  0  0  0  0  0  0  0  0  0
   59.8220   29.6890   50.8240 N   0  0  0  0  0  0  0  0  0  0  0  0
   60.3750   28.4880   50.2560 C   0  0  0  0  0  0  0  0  0  0  0  0
   60.5890   27.4920   51.0040 O   0  0  0  0  0  0  0  0  0  0  0  0
   60.9360   28.4620   48.8600 C   0  0  0  0  0  0  0  0  0  0  0  0
   60.2360   29.3900   47.9650 N   0  0  0  0  0  0  0  0  0  0  0  0
   60.6110   30.6630   47.6740 C   0  0  0  0  0  0  0  0  0  0  0  0
   61.8460   31.2710   48.2020 C   0  0  0  0  0  0  0  0  0  0  0  0
   62.8280   31.8900   47.4620 C   0  0  0  0  0  0  0  0  0  0  0  0
   63.7490   32.3460   48.3830 C   0  0  0  0  0  0  0  0  0  0  0  0
   63.3460   32.0520   49.5980 O   0  0  0  0  0  0  0  0  0  0  0  0
   62.2010   31.4110   49.5270 C   0  0  0  0  0  0  0  0  0  0  0  0
   59.7260   31.2430   46.7480 C   0  0  0  0  0  0  0  0  0  0  0  0
   59.7980   32.6000   46.0660 C   0  0  0  0  0  0  0  0  0  0  0  0
   60.2340   33.7190   47.0200 C   0  0  0  0  0  0  0  0  0  0  0  0
   59.2290   34.8540   46.8560 C   0  0  0  0  0  0  0  0  0  0  0  0
   58.4620   34.5660   45.5760 C   0  0  0  0  0  0  0  0  0  0  0  0
   58.4860   33.0540   45.4190 C   0  0  0  0  0  0  0  0  0  0  0  0
   58.8000   30.2440   46.4710 C   0  0  0  0  0  0  0  0  0  0  0  0
   57.7290   30.2160   45.5790 C   0  0  0  0  0  0  0  0  0  0  0  0
   56.9800   29.0340   45.4730 C   0  0  0  0  0  0  0  0  0  0  0  0
   57.3170   27.8880   46.2390 C   0  0  0  0  0  0  0  0  0  0  0  0
   56.5230   26.6470   46.1010 C   0  0  0  0  0  0  0  0  0  0  0  0
   57.0910   25.5210   46.0860 O   0  0  0  0  0  0  0  0  0  0  0  0
   55.1380   26.7020   45.9960 O   0  0  0  0  0  0  0  0  0  0  0  0
   58.4160   27.9460   47.1270 C   0  0  0  0  0  0  0  0  0  0  0  0
   59.1320   29.1420   47.2270 C   0  0  0  0  0  0  0  0  0  0  0  0
   58.4880   30.1690   50.4390 C   0  0  0  0  0  0  0  0  0  0  0  0
   58.4870   31.6960   50.2060 C   0  0  0  0  0  0  0  0  0  0  0  0
   59.2230   34.1017   52.2690 H   0  0  0  0  0  0  0  0  0  0  0  0
   60.0394   34.5454   50.7317 H   0  0  0  0  0  0  0  0  0  0  0  0
   58.2939   34.1212   50.7317 H   0  0  0  0  0  0  0  0  0  0  0  0
   60.5305   32.4099   50.3231 H   0  0  0  0  0  0  0  0  0  0  0  0
   60.7228   32.2820   52.8188 H   0  0  0  0  0  0  0  0  0  0  0  0
   59.0430   31.6341   52.8788 H   0  0  0  0  0  0  0  0  0  0  0  0
   61.5701   30.3523   51.7862 H   0  0  0  0  0  0  0  0  0  0  0  0
   60.2861   29.6655   52.8654 H   0  0  0  0  0  0  0  0  0  0  0  0
   61.9990   28.7421   48.8999 H   0  0  0  0  0  0  0  0  0  0  0  0
   60.8051   27.4449   48.4619 H   0  0  0  0  0  0  0  0  0  0  0  0
   62.8697   31.9982   46.3681 H   0  0  0  0  0  0  0  0  0  0  0  0
   64.6808   32.8761   48.1365 H   0  0  0  0  0  0  0  0  0  0  0  0
   61.6195   31.0451   50.3861 H   0  0  0  0  0  0  0  0  0  0  0  0
   60.5499   32.4380   45.2796 H   0  0  0  0  0  0  0  0  0  0  0  0
   60.2284   33.3552   48.0581 H   0  0  0  0  0  0  0  0  0  0  0  0
   61.2545   34.0589   46.7896 H   0  0  0  0  0  0  0  0  0  0  0  0
   58.5412   34.8801   47.7140 H   0  0  0  0  0  0  0  0  0  0  0  0
   59.7340   35.8300   46.8074 H   0  0  0  0  0  0  0  0  0  0  0  0
   57.4264   34.9274   45.6589 H   0  0  0  0  0  0  0  0  0  0  0  0
   58.9102   35.0733   44.7090 H   0  0  0  0  0  0  0  0  0  0  0  0
   57.6259   32.5998   45.9328 H   0  0  0  0  0  0  0  0  0  0  0  0
   58.4234   32.7507   44.3635 H   0  0  0  0  0  0  0  0  0  0  0  0
   57.4772   31.0988   44.9731 H   0  0  0  0  0  0  0  0  0  0  0  0
   56.1207   28.9954   44.7874 H   0  0  0  0  0  0  0  0  0  0  0  0
   58.7012   27.0687   47.7261 H   0  0  0  0  0  0  0  0  0  0  0  0
   58.1796   29.6647   49.5113 H   0  0  0  0  0  0  0  0  0  0  0  0
   57.7879   29.9419   51.2565 H   0  0  0  0  0  0  0  0  0  0  0  0
   58.5969   31.8847   49.1279 H   0  0  0  0  0  0  0  0  0  0  0  0
   57.5366   32.0851   50.6002 H   0  0  0  0  0  0  0  0  0  0  0  0
  1  2  1  0
  2  3  1  0
  3  4  1  0
  4  5  1  0
  5  6  1  0
  6  7  2  0
  6  8  1  0
  8  9  1  0
  9 10  1  0
 10 11  1  0
 11 12  1  0
 12 13  2  0
 13 14  1  0
 14 15  1  0
 10 16  2  0
 16 17  1  0
 17 18  1  0
 18 19  1  0
 19 20  1  0
 20 21  1  0
 16 22  1  0
 22 23  2  0
 23 24  1  0
 24 25  2  0
 25 26  1  0
 26 27  2  0
 26 28  1  0
 25 29  1  0
 29 30  2  0
  5 31  1  0
 31 32  1  0
 32  2  1  0
 30  9  1  0
 15 11  2  0
 21 17  1  0
 30 22  1  0
  1 33  1  0
  1 34  1  0
  1 35  1  0
  2 36  1  0
  3 37  1  0
  3 38  1  0
  4 39  1  0
  4 40  1  0
  8 41  1  0
  8 42  1  0
 12 43  1  0
 13 44  1  0
 15 45  1  0
 17 46  1  0
 18 47  1  0
 18 48  1  0
 19 49  1  0
 19 50  1  0
 20 51  1  0
 20 52  1  0
 21 53  1  0
 21 54  1  0
 23 55  1  0
 24 56  1  0
 29 57  1  0
 31 58  1  0
 31 59  1  0
 32 60  1  0
 32 61  1  0
M  CHG  1  28  -1
M  END
>  <UniqueID>  (54) 
49

>  <SMILES>  (54) 
CC1CCN(C(=O)Cn2c(-c3ccoc3)c(C3CCCC3)c3ccc(C(=O)[O-])cc32)CC1

>  <Energy>  (54) 
134.67586416803175

>  <Genealogy>  (54) 
CC1CCN(C(=O)Cn2c(-c3ccoc3)c(C3CCCC3)c3ccc(C(=O)[O-])cc32)CC1 (protonated)
CC1CCN(C(=O)Cn2c(-c3ccoc3)c(C3CCCC3)c3ccc(C(=O)[O-])cc32)CC1 (3D coordinates assigned)
CC1CCN(C(=O)Cn2c(-c3ccoc3)c(C3CCCC3)c3ccc(C(=O)[O-])cc32)CC1 (nonaromatic ring conformer: 134.67586416803175 kcal/mol)

>  <smiles>  (54) 
CC1CCN(C(=O)Cn2c(-c3ccoc3)c(C3CCCC3)c3ccc(C(=O)O)cc32)CC1

>  <score_type>  (54) 
oracle

>  <origin>  (54) 
adg

>  <m_score__min__energy>  (54) 
-11.050000000000001

>  <m_primary>  (54) 
energy

$$$$
54:0
     RDKit          3D

 27 28  0  0  0  0  0  0  0  0999 V2000
   56.9770   33.8110   43.6790 H   0  0  0  0  0  0  0  0  0  0  0  0
   57.3560   33.3370   44.5290 N   0  0  0  0  0  0  0  0  0  0  0  0
   57.4300   32.0470   44.6220 C   0  0  0  0  0  0  0  0  0  0  0  0
   58.6430   31.4610   44.7830 N   0  0  0  0  0  0  0  0  0  0  0  0
   58.7650   30.1140   44.8930 C   0  0  0  0  0  0  0  0  0  0  0  0
   59.9070   29.6040   45.0460 O   0  0  0  0  0  0  0  0  0  0  0  0
   57.6260   29.3020   44.8530 C   0  0  0  0  0  0  0  0  0  0  0  0
   57.7650   27.8790   45.0030 N   0  0  0  0  0  0  0  0  0  0  0  0
   57.1370   27.1280   45.8640 C   0  0  0  0  0  0  0  0  0  0  0  0
   56.8981   27.5594   46.8473 H   0  0  0  0  0  0  0  0  0  0  0  0
   56.7250   25.7290   45.6000 C   0  0  0  0  0  0  0  0  0  0  0  0
   57.6700   24.7470   45.2500 C   0  0  0  0  0  0  0  0  0  0  0  0
   58.7344   25.0144   45.1757 H   0  0  0  0  0  0  0  0  0  0  0  0
   57.2640   23.4330   44.9960 C   0  0  0  0  0  0  0  0  0  0  0  0
   58.4550   22.2140   44.5790 Cl  0  0  0  0  0  0  0  0  0  0  0  0
   55.9100   23.0940   45.0640 C   0  0  0  0  0  0  0  0  0  0  0  0
   55.5917   22.0592   44.8694 H   0  0  0  0  0  0  0  0  0  0  0  0
   54.9610   24.0690   45.3790 C   0  0  0  0  0  0  0  0  0  0  0  0
   53.8947   23.8022   45.4212 H   0  0  0  0  0  0  0  0  0  0  0  0
   55.3610   25.3830   45.6410 C   0  0  0  0  0  0  0  0  0  0  0  0
   54.3990   26.3380   45.9550 O   0  0  0  0  0  0  0  0  0  0  0  0
   56.3760   29.9190   44.6390 C   0  0  0  0  0  0  0  0  0  0  0  0
   55.1830   29.1440   44.4750 N   0  0  0  0  0  0  0  0  0  0  0  0
   54.3300   29.5360   44.0200 H   0  0  0  0  0  0  0  0  0  0  0  0
   55.1190   28.1830   44.8790 H   0  0  0  0  0  0  0  0  0  0  0  0
   56.3070   31.2780   44.5490 N   0  0  0  0  0  0  0  0  0  0  0  0
   55.3760   31.7320   44.4010 H   0  0  0  0  0  0  0  0  0  0  0  0
  1  2  1  0
  2  3  2  3
  3  4  1  0
  4  5  1  0
  5  6  2  0
  5  7  1  0
  7  8  1  0
  8  9  2  0
  9 10  1  0
  9 11  1  0
 11 12  2  0
 12 13  1  0
 12 14  1  0
 14 15  1  0
 14 16  2  0
 16 17  1  0
 16 18  1  0
 18 19  1  0
 18 20  2  0
 20 21  1  0
  7 22  2  0
 22 23  1  0
 23 24  1  0
 23 25  1  0
 22 26  1  0
 26 27  1  0
 26  3  1  0
 20 11  1  0
M  CHG  2   4  -1  21  -1
M  END
>  <UniqueID>  (55) 
50

>  <SMILES>  (55) 
N=c1[n-]c(=O)c(/N=C\c2cc(Cl)ccc2[O-])c(N)[nH]1

>  <Energy>  (55) 
41.724996568110456

>  <Genealogy>  (55) 
N=c1[n-]c(=O)c(N=Cc2cc(Cl)ccc2[O-])c(N)[nH]1 (protonated)
N=c1[n-]c(=O)c(/N=C\c2cc(Cl)ccc2[O-])c(N)[nH]1 (cis-trans isomerization)
N=c1[n-]c(=O)c(/N=C\c2cc(Cl)ccc2[O-])c(N)[nH]1 (3D coordinates assigned)
N=c1[n-]c(=O)c(/N=C\c2cc(Cl)ccc2[O-])c(N)[nH]1 (optimized conformer: 41.724996568110456 kcal/mol)

>  <smiles>  (55) 
N=c1[nH]c(N)c(N=Cc2cc(Cl)ccc2O)c(=O)[nH]1

>  <score_type>  (55) 
oracle

>  <origin>  (55) 
adg

>  <m_score__min__energy>  (55) 
-11.039999999999999

>  <m_primary>  (55) 
energy

$$$$
55:0
     RDKit          3D

 45 49  0  0  0  0  0  0  0  0999 V2000
   58.1150   34.5860   44.8780 C   0  0  0  0  0  0  0  0  0  0  0  0
   59.2030   33.8920   45.6350 C   0  0  0  0  0  0  0  0  0  0  0  0
   60.2750   34.5500   46.1250 N   0  0  0  0  0  0  0  0  0  0  0  0
   61.0080   33.6690   46.7920 N   0  0  0  0  0  0  0  0  0  0  0  0
   60.3670   32.4910   46.7020 C   0  0  0  0  0  0  0  0  0  0  0  0
   59.2480   32.5790   45.9670 N   0  0  0  0  0  0  0  0  0  0  0  0
   58.3720   31.4530   45.7440 C   0  0  0  0  0  0  0  0  0  0  0  0
   57.3740   31.4410   44.7530 C   0  0  0  0  0  0  0  0  0  0  0  0
   56.5680   30.3130   44.5760 C   0  0  0  0  0  0  0  0  0  0  0  0
   56.7650   29.1630   45.3620 C   0  0  0  0  0  0  0  0  0  0  0  0
   55.9420   27.9920   45.2440 N   0  0  0  0  0  0  0  0  0  0  0  0
   56.2610   26.6420   45.6130 C   0  0  0  0  0  0  0  0  0  0  0  0
   55.6480   26.0520   46.5440 O   0  0  0  0  0  0  0  0  0  0  0  0
   57.3520   25.9270   44.8800 C   0  0  0  0  0  0  0  0  0  0  0  0
   57.1570   24.4660   44.5640 C   0  0  0  0  0  0  0  0  0  0  0  0
   56.6320   24.0800   43.3170 C   0  0  0  0  0  0  0  0  0  0  0  0
   56.4920   22.7280   42.9970 C   0  0  0  0  0  0  0  0  0  0  0  0
   56.8900   21.7490   43.9120 C   0  0  0  0  0  0  0  0  0  0  0  0
   57.4390   22.1230   45.1430 C   0  0  0  0  0  0  0  0  0  0  0  0
   57.5820   23.4750   45.4700 C   0  0  0  0  0  0  0  0  0  0  0  0
   58.1390   23.8190   46.6610 F   0  0  0  0  0  0  0  0  0  0  0  0
   58.7710   26.3580   45.2390 C   0  0  0  0  0  0  0  0  0  0  0  0
   58.1770   26.7460   43.8930 C   0  0  0  0  0  0  0  0  0  0  0  0
   57.7620   29.1720   46.3440 C   0  0  0  0  0  0  0  0  0  0  0  0
   58.5840   30.2930   46.5240 C   0  0  0  0  0  0  0  0  0  0  0  0
   59.6270   30.3030   47.6290 C   0  0  0  0  0  0  0  0  0  0  0  0
   60.8350   31.2000   47.2940 C   0  0  0  0  0  0  0  0  0  0  0  0
   57.4060   35.0383   45.5870 H   0  0  0  0  0  0  0  0  0  0  0  0
   58.5526   35.3722   44.2452 H   0  0  0  0  0  0  0  0  0  0  0  0
   57.5866   33.8578   44.2452 H   0  0  0  0  0  0  0  0  0  0  0  0
   57.2271   32.3241   44.1138 H   0  0  0  0  0  0  0  0  0  0  0  0
   55.7730   30.3245   43.8158 H   0  0  0  0  0  0  0  0  0  0  0  0
   56.3300   24.8480   42.5897 H   0  0  0  0  0  0  0  0  0  0  0  0
   56.0687   22.4335   42.0254 H   0  0  0  0  0  0  0  0  0  0  0  0
   56.7714   20.6839   43.6638 H   0  0  0  0  0  0  0  0  0  0  0  0
   57.7597   21.3501   45.8570 H   0  0  0  0  0  0  0  0  0  0  0  0
   58.9341   27.1256   46.0099 H   0  0  0  0  0  0  0  0  0  0  0  0
   59.6829   25.8364   45.5651 H   0  0  0  0  0  0  0  0  0  0  0  0
   57.9111   27.7941   43.6911 H   0  0  0  0  0  0  0  0  0  0  0  0
   58.4824   26.6209   42.8437 H   0  0  0  0  0  0  0  0  0  0  0  0
   57.9024   28.2877   46.9830 H   0  0  0  0  0  0  0  0  0  0  0  0
   59.1584   30.6732   48.5528 H   0  0  0  0  0  0  0  0  0  0  0  0
   59.9979   29.2742   47.7472 H   0  0  0  0  0  0  0  0  0  0  0  0
   61.4018   31.4058   48.2140 H   0  0  0  0  0  0  0  0  0  0  0  0
   61.4777   30.6821   46.5668 H   0  0  0  0  0  0  0  0  0  0  0  0
  1  2  1  0
  2  3  2  0
  3  4  1  0
  4  5  2  0
  5  6  1  0
  6  7  1  0
  7  8  2  0
  8  9  1  0
  9 10  2  0
 10 11  1  0
 11 12  1  0
 12 13  2  0
 12 14  1  0
 14 15  1  0
 15 16  2  0
 16 17  1  0
 17 18  2  0
 18 19  1  0
 19 20  2  0
 20 21  1  0
 14 22  1  0
 22 23  1  0
 10 24  1  0
 24 25  2  0
 25 26  1  0
 26 27  1  0
  6  2  1  0
 25  7  1  0
 27  5  1  0
 23 14  1  0
 20 15  1  0
  1 28  1  0
  1 29  1  0
  1 30  1  0
  8 31  1  0
  9 32  1  0
 16 33  1  0
 17 34  1  0
 18 35  1  0
 19 36  1  0
 22 37  1  0
 22 38  1  0
 23 39  1  0
 23 40  1  0
 24 41  1  0
 26 42  1  0
 26 43  1  0
 27 44  1  0
 27 45  1  0
M  CHG  1  11  -1
M  END
>  <UniqueID>  (56) 
51

>  <SMILES>  (56) 
Cc1nnc2n1-c1ccc([N-]C(=O)C3(c4ccccc4F)CC3)cc1CC2

>  <Energy>  (56) 
361.03498019018997

>  <Genealogy>  (56) 
Cc1nnc2n1-c1ccc([N-]C(=O)C3(c4ccccc4F)CC3)cc1CC2 (protonated)
Cc1nnc2n1-c1ccc([N-]C(=O)C3(c4ccccc4F)CC3)cc1CC2 (3D coordinates assigned)
Cc1nnc2n1-c1ccc([N-]C(=O)C3(c4ccccc4F)CC3)cc1CC2 (nonaromatic ring conformer: 361.03498019018997 kcal/mol)

>  <smiles>  (56) 
Cc1nnc2n1-c1ccc(NC(=O)C3(c4ccccc4F)CC3)cc1CC2

>  <score_type>  (56) 
oracle

>  <origin>  (56) 
adg

>  <m_score__min__energy>  (56) 
-10.93

>  <m_primary>  (56) 
energy

$$$$
56:0
     RDKit          3D

 60 63  0  0  0  0  0  0  0  0999 V2000
   59.0600   32.0990   51.9200 C   0  0  0  0  0  0  0  0  0  0  0  0
   58.4680   31.2230   50.4860 S   0  0  0  0  0  0  0  0  0  0  0  0
   57.4560   30.1890   50.9050 O   0  0  0  0  0  0  0  0  0  0  0  0
   57.8170   32.2210   49.5640 O   0  0  0  0  0  0  0  0  0  0  0  0
   59.7940   30.4390   49.6760 N   0  0  0  0  0  0  0  0  0  0  0  0
   61.0120   30.1920   50.3930 C   0  0  0  0  0  0  0  0  0  0  0  0
   61.0040   29.3000   51.4770 C   0  0  0  0  0  0  0  0  0  0  0  0
   62.1730   29.0480   52.1950 C   0  0  0  0  0  0  0  0  0  0  0  0
   63.3570   29.6990   51.8470 C   0  0  0  0  0  0  0  0  0  0  0  0
   63.3770   30.5970   50.7750 C   0  0  0  0  0  0  0  0  0  0  0  0
   62.2110   30.8410   50.0240 C   0  0  0  0  0  0  0  0  0  0  0  0
   62.2570   31.8150   48.9010 C   0  0  0  0  0  0  0  0  0  0  0  0
   63.1010   32.7540   48.9510 O   0  0  0  0  0  0  0  0  0  0  0  0
   61.4010   31.6890   47.7430 N   0  0  0  0  0  0  0  0  0  0  0  0
   61.2340   32.8040   46.8010 C   0  0  0  0  0  0  0  0  0  0  0  0
   59.7920   32.9540   46.3820 C   0  0  0  0  0  0  0  0  0  0  0  0
   59.0530   34.0860   46.7690 C   0  0  0  0  0  0  0  0  0  0  0  0
   57.7280   34.2390   46.3530 C   0  0  0  0  0  0  0  0  0  0  0  0
   57.1260   33.2600   45.5560 C   0  0  0  0  0  0  0  0  0  0  0  0
   57.8460   32.1220   45.1780 C   0  0  0  0  0  0  0  0  0  0  0  0
   57.0840   30.8790   44.1980 Cl  0  0  0  0  0  0  0  0  0  0  0  0
   59.1730   31.9670   45.5940 C   0  0  0  0  0  0  0  0  0  0  0  0
   60.7740   30.4330   47.4480 C   0  0  0  0  0  0  0  0  0  0  0  0
   61.1310   29.7870   46.4240 O   0  0  0  0  0  0  0  0  0  0  0  0
   59.6330   29.9460   48.3030 C   0  0  1  0  0  0  0  0  0  0  0  0
   59.5080   28.4080   48.3210 C   0  0  0  0  0  0  0  0  0  0  0  0
   59.2360   27.8490   46.9520 C   0  0  0  0  0  0  0  0  0  0  0  0
   60.2050   27.5560   46.1980 O   0  0  0  0  0  0  0  0  0  0  0  0
   57.8890   27.6430   46.5080 N   0  0  0  0  0  0  0  0  0  0  0  0
   57.6010   26.9990   45.2270 C   0  0  0  0  0  0  0  0  0  0  0  0
   56.9710   25.6440   45.4490 C   0  0  0  0  0  0  0  0  0  0  0  0
   57.7220   24.4800   45.2080 C   0  0  0  0  0  0  0  0  0  0  0  0
   57.1350   23.2190   45.3520 C   0  0  0  0  0  0  0  0  0  0  0  0
   55.7950   23.1100   45.7330 C   0  0  0  0  0  0  0  0  0  0  0  0
   55.0370   24.2610   45.9660 C   0  0  0  0  0  0  0  0  0  0  0  0
   55.6160   25.5270   45.8170 C   0  0  0  0  0  0  0  0  0  0  0  0
   54.8400   26.6610   46.0310 O   0  0  0  0  0  0  0  0  0  0  0  0
   58.7144   31.5877   52.8306 H   0  0  0  0  0  0  0  0  0  0  0  0
   60.1597   32.1222   51.9074 H   0  0  0  0  0  0  0  0  0  0  0  0
   58.6714   33.1280   51.9074 H   0  0  0  0  0  0  0  0  0  0  0  0
   60.0688   28.7960   51.7623 H   0  0  0  0  0  0  0  0  0  0  0  0
   62.1615   28.3371   53.0343 H   0  0  0  0  0  0  0  0  0  0  0  0
   64.2774   29.5054   52.4174 H   0  0  0  0  0  0  0  0  0  0  0  0
   64.3112   31.1170   50.5164 H   0  0  0  0  0  0  0  0  0  0  0  0
   61.5657   33.7347   47.2844 H   0  0  0  0  0  0  0  0  0  0  0  0
   61.8370   32.5958   45.9048 H   0  0  0  0  0  0  0  0  0  0  0  0
   59.5202   34.8546   47.4022 H   0  0  0  0  0  0  0  0  0  0  0  0
   57.1576   35.1305   46.6527 H   0  0  0  0  0  0  0  0  0  0  0  0
   56.0842   33.3852   45.2258 H   0  0  0  0  0  0  0  0  0  0  0  0
   59.7356   31.0677   45.3029 H   0  0  0  0  0  0  0  0  0  0  0  0
   58.7092   30.3427   47.8567 H   0  0  0  0  0  0  0  0  0  0  0  0
   60.4480   27.9797   48.6992 H   0  0  0  0  0  0  0  0  0  0  0  0
   58.6606   28.1435   48.9705 H   0  0  0  0  0  0  0  0  0  0  0  0
   57.1030   27.9140   47.1410 H   0  0  0  0  0  0  0  0  0  0  0  0
   56.9086   27.6307   44.6512 H   0  0  0  0  0  0  0  0  0  0  0  0
   58.5426   26.8685   44.6734 H   0  0  0  0  0  0  0  0  0  0  0  0
   58.7762   24.5617   44.9048 H   0  0  0  0  0  0  0  0  0  0  0  0
   57.7287   22.3120   45.1652 H   0  0  0  0  0  0  0  0  0  0  0  0
   55.3361   22.1171   45.8497 H   0  0  0  0  0  0  0  0  0  0  0  0
   53.9828   24.1719   46.2672 H   0  0  0  0  0  0  0  0  0  0  0  0
  1  2  1  0
  2  3  2  0
  2  4  2  0
  2  5  1  0
  5  6  1  0
  6  7  2  0
  7  8  1  0
  8  9  2  0
  9 10  1  0
 10 11  2  0
 11 12  1  0
 12 13  2  0
 12 14  1  0
 14 15  1  0
 15 16  1  0
 16 17  2  0
 17 18  1  0
 18 19  2  0
 19 20  1  0
 20 21  1  0
 20 22  2  0
 14 23  1  0
 23 24  2  0
 23 25  1  0
 25 26  1  0
 26 27  1  0
 27 28  2  0
 27 29  1  0
 29 30  1  0
 30 31  1  0
 31 32  2  0
 32 33  1  0
 33 34  2  0
 34 35  1  0
 35 36  2  0
 36 37  1  0
 25  5  1  0
 36 31  1  0
 11  6  1  0
 22 16  1  0
  1 38  1  0
  1 39  1  0
  1 40  1  0
  7 41  1  0
  8 42  1  0
  9 43  1  0
 10 44  1  0
 15 45  1  0
 15 46  1  0
 17 47  1  0
 18 48  1  0
 19 49  1  0
 22 50  1  0
 25 51  1  6
 26 52  1  0
 26 53  1  0
 29 54  1  0
 30 55  1  0
 30 56  1  0
 32 57  1  0
 33 58  1  0
 34 59  1  0
 35 60  1  0
M  CHG  1  37  -1
M  END
>  <UniqueID>  (57) 
52

>  <SMILES>  (57) 
CS(=O)(=O)N1c2ccccc2C(=O)N(Cc2cccc(Cl)c2)C(=O)[C@H]1CC(=O)NCc1ccccc1[O-]

>  <Energy>  (57) 
74.62630734318553

>  <Genealogy>  (57) 
CS(=O)(=O)N1c2ccccc2C(=O)N(Cc2cccc(Cl)c2)C(=O)C1CC(=O)NCc1ccccc1[O-] (protonated)
CS(=O)(=O)N1c2ccccc2C(=O)N(Cc2cccc(Cl)c2)C(=O)[C@H]1CC(=O)NCc1ccccc1[O-] (chirality)
CS(=O)(=O)N1c2ccccc2C(=O)N(Cc2cccc(Cl)c2)C(=O)[C@H]1CC(=O)NCc1ccccc1[O-] (3D coordinates assigned)
CS(=O)(=O)N1c2ccccc2C(=O)N(Cc2cccc(Cl)c2)C(=O)[C@H]1CC(=O)NCc1ccccc1[O-] (nonaromatic ring conformer: 74.62630734318553 kcal/mol)

>  <smiles>  (57) 
CS(=O)(=O)N1c2ccccc2C(=O)N(Cc2cccc(Cl)c2)C(=O)C1CC(=O)NCc1ccccc1O

>  <score_type>  (57) 
oracle

>  <origin>  (57) 
adg

>  <m_score__min__energy>  (57) 
-12.08

>  <m_primary>  (57) 
energy

$$$$
57:0
     RDKit          3D

 48 50  0  0  0  0  0  0  0  0999 V2000
   60.3000   27.6860   45.8640 C   0  0  0  0  0  0  0  0  0  0  0  0
   59.1000   28.5230   45.5370 C   0  0  0  0  0  0  0  0  0  0  0  0
   58.2340   28.3300   44.4750 C   0  0  0  0  0  0  0  0  0  0  0  0
   58.3410   27.0860   43.2350 Cl  0  0  0  0  0  0  0  0  0  0  0  0
   57.2680   29.3180   44.6140 C   0  0  0  0  0  0  0  0  0  0  0  0
   56.1070   29.5630   43.7400 C   0  0  0  0  0  0  0  0  0  0  0  0
   54.7860   29.3510   44.2320 N   0  0  0  0  0  0  0  0  0  0  0  0
   56.2730   29.9600   42.5560 O   0  0  0  0  0  0  0  0  0  0  0  0
   57.5500   30.0470   45.7140 N   0  0  0  0  0  0  0  0  0  0  0  0
   58.6430   29.5570   46.2800 N   0  0  0  0  0  0  0  0  0  0  0  0
   59.2520   30.1110   47.4930 C   0  0  0  0  0  0  0  0  0  0  0  0
   59.2360   31.6200   47.4760 C   0  0  0  0  0  0  0  0  0  0  0  0
   58.1420   32.2230   47.2970 O   0  0  0  0  0  0  0  0  0  0  0  0
   60.4470   32.3800   47.6910 N   0  0  0  0  0  0  0  0  0  0  0  0
   61.7610   31.7180   47.5850 C   0  0  0  0  0  0  0  0  0  0  0  0
   62.9090   32.7200   47.7210 C   0  0  0  0  0  0  0  0  0  0  0  0
   62.6600   33.5960   48.8710 N   0  0  0  0  0  0  0  0  0  0  0  0
   63.6500   33.7500   49.9080 C   0  0  0  0  0  0  0  0  0  0  0  0
   63.3660   34.5120   51.0530 C   0  0  0  0  0  0  0  0  0  0  0  0
   64.3220   34.6560   52.0600 C   0  0  0  0  0  0  0  0  0  0  0  0
   65.5740   34.0530   51.9300 C   0  0  0  0  0  0  0  0  0  0  0  0
   65.8930   33.3170   50.7770 C   0  0  0  0  0  0  0  0  0  0  0  0
   67.2360   32.6410   50.6520 C   0  0  0  0  0  0  0  0  0  0  0  0
   68.0470   33.3860   49.8170 F   0  0  0  0  0  0  0  0  0  0  0  0
   67.0950   31.3680   50.1260 F   0  0  0  0  0  0  0  0  0  0  0  0
   67.8460   32.5280   51.8900 F   0  0  0  0  0  0  0  0  0  0  0  0
   64.9140   33.1500   49.7790 C   0  0  0  0  0  0  0  0  0  0  0  0
   61.3570   34.2640   49.0070 C   0  0  0  0  0  0  0  0  0  0  0  0
   60.3790   33.8350   47.9030 C   0  0  0  0  0  0  0  0  0  0  0  0
   60.4080   27.6107   46.9561 H   0  0  0  0  0  0  0  0  0  0  0  0
   60.1725   26.6799   45.4379 H   0  0  0  0  0  0  0  0  0  0  0  0
   61.2001   28.1532   45.4379 H   0  0  0  0  0  0  0  0  0  0  0  0
   54.5890   29.3510   45.2580 H   0  0  0  0  0  0  0  0  0  0  0  0
   57.0040   30.8590   46.0800 H   0  0  0  0  0  0  0  0  0  0  0  0
   58.6900   29.7568   48.3697 H   0  0  0  0  0  0  0  0  0  0  0  0
   60.2987   29.7759   47.5395 H   0  0  0  0  0  0  0  0  0  0  0  0
   61.8472   30.9659   48.3830 H   0  0  0  0  0  0  0  0  0  0  0  0
   61.8304   31.2479   46.5929 H   0  0  0  0  0  0  0  0  0  0  0  0
   63.8537   32.1770   47.8715 H   0  0  0  0  0  0  0  0  0  0  0  0
   62.9765   33.3266   46.8059 H   0  0  0  0  0  0  0  0  0  0  0  0
   62.3847   34.9981   51.1569 H   0  0  0  0  0  0  0  0  0  0  0  0
   64.0880   35.2462   52.9583 H   0  0  0  0  0  0  0  0  0  0  0  0
   66.3158   34.1548   52.7358 H   0  0  0  0  0  0  0  0  0  0  0  0
   65.1409   32.5439   48.8896 H   0  0  0  0  0  0  0  0  0  0  0  0
   60.9251   34.0065   49.9853 H   0  0  0  0  0  0  0  0  0  0  0  0
   61.5176   35.3487   48.9194 H   0  0  0  0  0  0  0  0  0  0  0  0
   59.3559   34.1103   48.1987 H   0  0  0  0  0  0  0  0  0  0  0  0
   60.6532   34.3441   46.9672 H   0  0  0  0  0  0  0  0  0  0  0  0
  1  2  1  0
  2  3  2  0
  3  4  1  0
  3  5  1  0
  5  6  1  0
  6  7  1  0
  6  8  2  0
  5  9  2  0
  9 10  1  0
 10 11  1  0
 11 12  1  0
 12 13  2  0
 12 14  1  0
 14 15  1  0
 15 16  1  0
 16 17  1  0
 17 18  1  0
 18 19  2  0
 19 20  1  0
 20 21  2  0
 21 22  1  0
 22 23  1  0
 23 24  1  0
 23 25  1  0
 23 26  1  0
 22 27  2  0
 17 28  1  0
 28 29  1  0
 10  2  1  0
 29 14  1  0
 27 18  1  0
  1 30  1  0
  1 31  1  0
  1 32  1  0
  7 33  1  0
  9 34  1  0
 11 35  1  0
 11 36  1  0
 15 37  1  0
 15 38  1  0
 16 39  1  0
 16 40  1  0
 19 41  1  0
 20 42  1  0
 21 43  1  0
 27 44  1  0
 28 45  1  0
 28 46  1  0
 29 47  1  0
 29 48  1  0
M  CHG  2   7  -1   9   1
M  END
>  <UniqueID>  (58) 
53

>  <SMILES>  (58) 
Cc1c(Cl)c(C([NH-])=O)[nH+]n1CC(=O)N1CCN(c2cccc(C(F)(F)F)c2)CC1

>  <Energy>  (58) 
83.91317410068294

>  <Genealogy>  (58) 
Cc1c(Cl)c(C([NH-])=O)[nH+]n1CC(=O)N1CCN(c2cccc(C(F)(F)F)c2)CC1 (protonated)
Cc1c(Cl)c(C([NH-])=O)[nH+]n1CC(=O)N1CCN(c2cccc(C(F)(F)F)c2)CC1 (3D coordinates assigned)
Cc1c(Cl)c(C([NH-])=O)[nH+]n1CC(=O)N1CCN(c2cccc(C(F)(F)F)c2)CC1 (nonaromatic ring conformer: 83.91317410068294 kcal/mol)

>  <smiles>  (58) 
Cc1c(Cl)c(C(N)=O)nn1CC(=O)N1CCN(c2cccc(C(F)(F)F)c2)CC1

>  <score_type>  (58) 
oracle

>  <origin>  (58) 
adg

>  <m_score__min__energy>  (58) 
-11.6

>  <m_primary>  (58) 
energy

$$$$
58:0
     RDKit          3D

 61 63  0  0  0  0  0  0  0  0999 V2000
   59.8730   25.9020   46.1480 C   0  0  0  0  0  0  0  0  0  0  0  0
   58.9190   26.3110   47.2650 C   0  0  0  0  0  0  0  0  0  0  0  0
   57.5420   26.5690   46.7270 C   0  0  0  0  0  0  0  0  0  0  0  0
   56.5540   25.6570   46.7860 N   0  0  0  0  0  0  0  0  0  0  0  0
   55.5430   26.2400   46.1130 C   0  0  0  0  0  0  0  0  0  0  0  0
   54.4260   25.6830   45.9480 O   0  0  0  0  0  0  0  0  0  0  0  0
   55.8270   27.4610   45.6220 N   0  0  0  0  0  0  0  0  0  0  0  0
   57.0930   27.6770   46.0240 C   0  0  0  0  0  0  0  0  0  0  0  0
   57.8390   28.9010   45.6850 C   0  0  0  0  0  0  0  0  0  0  0  0
   59.0850   28.8190   45.5060 O   0  0  0  0  0  0  0  0  0  0  0  0
   57.1610   30.1590   45.5330 N   0  0  0  0  0  0  0  0  0  0  0  0
   57.8280   31.4250   45.4080 C   0  0  0  0  0  0  0  0  0  0  0  0
   57.7150   32.2040   44.2440 C   0  0  0  0  0  0  0  0  0  0  0  0
   58.3570   33.4430   44.1590 C   0  0  0  0  0  0  0  0  0  0  0  0
   59.1110   33.9180   45.2350 C   0  0  0  0  0  0  0  0  0  0  0  0
   59.2210   33.1580   46.4100 C   0  0  0  0  0  0  0  0  0  0  0  0
   60.0220   33.6640   47.5810 C   0  0  0  0  0  0  0  0  0  0  0  0
   61.0050   32.6460   48.0100 N   0  0  0  0  0  0  0  0  0  0  0  0
   62.1990   32.6040   47.1180 C   0  0  0  0  0  0  0  0  0  0  0  0
   63.4480   33.2230   47.7610 C   0  0  0  0  0  0  0  0  0  0  0  0
   63.8190   32.4660   49.0610 C   0  0  0  0  0  0  0  0  0  0  0  0
   64.7410   33.2610   49.9560 C   0  0  0  0  0  0  0  0  0  0  0  0
   64.2460   34.1500   50.7010 O   0  0  0  0  0  0  0  0  0  0  0  0
   66.1640   33.0550   49.9190 N   0  0  0  0  0  0  0  0  0  0  0  0
   67.0100   32.5560   51.0100 C   0  0  0  0  0  0  0  0  0  0  0  0
   67.0810   31.0250   50.8870 C   0  0  0  0  0  0  0  0  0  0  0  0
   68.4320   33.1380   50.8850 C   0  0  0  0  0  0  0  0  0  0  0  0
   66.3950   32.9180   52.3760 C   0  0  0  0  0  0  0  0  0  0  0  0
   62.5640   31.9960   49.8380 C   0  0  0  0  0  0  0  0  0  0  0  0
   61.3240   32.8070   49.4480 C   0  0  0  0  0  0  0  0  0  0  0  0
   58.5610   31.9200   46.4950 C   0  0  0  0  0  0  0  0  0  0  0  0
   60.8007   25.5043   46.5854 H   0  0  0  0  0  0  0  0  0  0  0  0
   59.3994   25.1278   45.5264 H   0  0  0  0  0  0  0  0  0  0  0  0
   60.1072   26.7788   45.5264 H   0  0  0  0  0  0  0  0  0  0  0  0
   58.8690   25.5028   48.0095 H   0  0  0  0  0  0  0  0  0  0  0  0
   59.2947   27.2363   47.7262 H   0  0  0  0  0  0  0  0  0  0  0  0
   56.1210   30.1770   45.6080 H   0  0  0  0  0  0  0  0  0  0  0  0
   57.1186   31.8372   43.3956 H   0  0  0  0  0  0  0  0  0  0  0  0
   58.2683   34.0453   43.2428 H   0  0  0  0  0  0  0  0  0  0  0  0
   59.6199   34.8904   45.1612 H   0  0  0  0  0  0  0  0  0  0  0  0
   60.5541   34.5809   47.2874 H   0  0  0  0  0  0  0  0  0  0  0  0
   59.3387   33.8754   48.4167 H   0  0  0  0  0  0  0  0  0  0  0  0
   62.4154   31.5542   46.8706 H   0  0  0  0  0  0  0  0  0  0  0  0
   61.9619   33.1957   46.2215 H   0  0  0  0  0  0  0  0  0  0  0  0
   64.2881   33.1613   47.0535 H   0  0  0  0  0  0  0  0  0  0  0  0
   63.2379   34.2741   48.0082 H   0  0  0  0  0  0  0  0  0  0  0  0
   64.3720   31.5708   48.7402 H   0  0  0  0  0  0  0  0  0  0  0  0
   67.1018   30.5770   51.8914 H   0  0  0  0  0  0  0  0  0  0  0  0
   66.1988   30.6597   50.3408 H   0  0  0  0  0  0  0  0  0  0  0  0
   67.9932   30.7429   50.3408 H   0  0  0  0  0  0  0  0  0  0  0  0
   68.8480   33.3083   51.8889 H   0  0  0  0  0  0  0  0  0  0  0  0
   69.0715   32.4293   50.3384 H   0  0  0  0  0  0  0  0  0  0  0  0
   68.3911   34.0917   50.3384 H   0  0  0  0  0  0  0  0  0  0  0  0
   67.0408   32.5378   53.1812 H   0  0  0  0  0  0  0  0  0  0  0  0
   66.3082   34.0113   52.4609 H   0  0  0  0  0  0  0  0  0  0  0  0
   65.3970   32.4632   52.4609 H   0  0  0  0  0  0  0  0  0  0  0  0
   62.3817   30.9347   49.6137 H   0  0  0  0  0  0  0  0  0  0  0  0
   62.7485   32.1438   50.9123 H   0  0  0  0  0  0  0  0  0  0  0  0
   60.4676   32.4617   50.0457 H   0  0  0  0  0  0  0  0  0  0  0  0
   61.5301   33.8702   49.6407 H   0  0  0  0  0  0  0  0  0  0  0  0
   58.6204   31.3339   47.4239 H   0  0  0  0  0  0  0  0  0  0  0  0
  1  2  1  0
  2  3  1  0
  3  4  1  0
  4  5  1  0
  5  6  2  0
  5  7  1  0
  7  8  1  0
  8  9  1  0
  9 10  2  0
  9 11  1  0
 11 12  1  0
 12 13  2  0
 13 14  1  0
 14 15  2  0
 15 16  1  0
 16 17  1  0
 17 18  1  0
 18 19  1  0
 19 20  1  0
 20 21  1  0
 21 22  1  0
 22 23  2  0
 22 24  1  0
 24 25  1  0
 25 26  1  0
 25 27  1  0
 25 28  1  0
 21 29  1  0
 29 30  1  0
 16 31  2  0
  8  3  2  0
 31 12  1  0
 30 18  1  0
  1 32  1  0
  1 33  1  0
  1 34  1  0
  2 35  1  0
  2 36  1  0
 11 37  1  0
 13 38  1  0
 14 39  1  0
 15 40  1  0
 17 41  1  0
 17 42  1  0
 19 43  1  0
 19 44  1  0
 20 45  1  0
 20 46  1  0
 21 47  1  0
 26 48  1  0
 26 49  1  0
 26 50  1  0
 27 51  1  0
 27 52  1  0
 27 53  1  0
 28 54  1  0
 28 55  1  0
 28 56  1  0
 29 57  1  0
 29 58  1  0
 30 59  1  0
 30 60  1  0
 31 61  1  0
M  CHG  3   4  -1   7  -1  24  -1
M  END
>  <UniqueID>  (59) 
54

>  <SMILES>  (59) 
CCc1[n-]c(=O)[n-]c1C(=O)Nc1cccc(CN2CCC(C(=O)[N-]C(C)(C)C)CC2)c1

>  <Energy>  (59) 
97.38511800856729

>  <Genealogy>  (59) 
CCc1[n-]c(=O)[n-]c1C(=O)Nc1cccc(CN2CCC(C(=O)[N-]C(C)(C)C)CC2)c1 (protonated)
CCc1[n-]c(=O)[n-]c1C(=O)Nc1cccc(CN2CCC(C(=O)[N-]C(C)(C)C)CC2)c1 (3D coordinates assigned)
CCc1[n-]c(=O)[n-]c1C(=O)Nc1cccc(CN2CCC(C(=O)[N-]C(C)(C)C)CC2)c1 (nonaromatic ring conformer: 97.38511800856729 kcal/mol)

>  <smiles>  (59) 
CCc1[nH]c(=O)[nH]c1C(=O)Nc1cccc(CN2CCC(C(=O)NC(C)(C)C)CC2)c1

>  <score_type>  (59) 
oracle

>  <origin>  (59) 
adg

>  <m_score__min__energy>  (59) 
-14.49

>  <m_primary>  (59) 
energy

$$$$
59:0
     RDKit          3D

 61 65  0  0  0  0  0  0  0  0999 V2000
   61.6170   34.2140   46.4680 O   0  0  0  0  0  0  0  0  0  0  0  0
   60.4400   34.3560   46.8910 C   0  0  0  0  0  0  0  0  0  0  0  0
   59.4600   34.9430   46.0200 N   0  0  0  0  0  0  0  0  0  0  0  0
   59.2180   34.5550   44.6310 C   0  0  0  0  0  0  0  0  0  0  0  0
   58.5220   33.2200   44.5750 C   0  0  0  0  0  0  0  0  0  0  0  0
   58.1220   32.6640   43.3470 C   0  0  0  0  0  0  0  0  0  0  0  0
   57.4850   31.4200   43.3070 C   0  0  0  0  0  0  0  0  0  0  0  0
   57.2520   30.7010   44.4980 C   0  0  0  0  0  0  0  0  0  0  0  0
   56.5450   29.3890   44.4890 C   0  0  0  0  0  0  0  0  0  0  0  0
   55.2890   29.3880   44.3360 O   0  0  0  0  0  0  0  0  0  0  0  0
   57.2660   28.1300   44.5870 N   0  0  1  0  0  0  0  0  0  0  0  0
   58.5160   28.1170   43.7780 C   0  0  0  0  0  0  0  0  0  0  0  0
   59.6470   29.0260   44.3220 C   0  0  0  0  0  0  0  0  0  0  0  0
   59.6870   29.0300   45.8220 C   0  0  0  0  0  0  0  0  0  0  0  0
   60.7000   29.6220   46.5890 C   0  0  0  0  0  0  0  0  0  0  0  0
   60.4660   29.5390   47.9630 C   0  0  0  0  0  0  0  0  0  0  0  0
   61.4000   30.0070   49.0090 C   0  0  0  0  0  0  0  0  0  0  0  0
   61.4460   29.3680   50.0990 O   0  0  0  0  0  0  0  0  0  0  0  0
   62.2600   31.1530   48.8240 N   0  0  0  0  0  0  0  0  0  0  0  0
   62.9620   31.7810   49.9380 C   0  0  0  0  0  0  0  0  0  0  0  0
   64.0780   32.6130   49.3220 C   0  0  0  0  0  0  0  0  0  0  0  0
   63.7870   32.6880   47.8250 C   0  0  0  0  0  0  0  0  0  0  0  0
   62.7420   31.6110   47.5300 C   0  0  0  0  0  0  0  0  0  0  0  0
   59.0190   28.7020   48.2090 S   0  0  0  0  0  0  0  0  0  0  0  0
   58.6610   28.5020   46.5810 C   0  0  0  0  0  0  0  0  0  0  0  0
   57.5030   27.7570   46.0020 C   0  0  0  0  0  0  0  0  0  0  0  0
   57.6650   31.2620   45.7260 C   0  0  0  0  0  0  0  0  0  0  0  0
   58.2930   32.5080   45.7620 C   0  0  0  0  0  0  0  0  0  0  0  0
   60.1120   33.9220   48.2630 C   0  0  0  0  0  0  0  0  0  0  0  0
   58.9890   33.1150   48.4990 C   0  0  0  0  0  0  0  0  0  0  0  0
   58.6950   32.6760   49.7930 C   0  0  0  0  0  0  0  0  0  0  0  0
   59.5280   33.0280   50.8600 C   0  0  0  0  0  0  0  0  0  0  0  0
   60.6590   33.8110   50.6320 C   0  0  0  0  0  0  0  0  0  0  0  0
   60.9550   34.2560   49.3390 C   0  0  0  0  0  0  0  0  0  0  0  0
   62.0540   35.0210   49.1380 F   0  0  0  0  0  0  0  0  0  0  0  0
   58.5862   35.3143   44.1469 H   0  0  0  0  0  0  0  0  0  0  0  0
   60.1824   34.4781   44.1076 H   0  0  0  0  0  0  0  0  0  0  0  0
   58.3115   33.2113   42.4118 H   0  0  0  0  0  0  0  0  0  0  0  0
   57.1641   31.0000   42.3423 H   0  0  0  0  0  0  0  0  0  0  0  0
   56.6690   27.3810   44.1670 H   0  0  0  0  0  0  0  0  0  0  0  0
   58.8923   27.0839   43.7449 H   0  0  0  0  0  0  0  0  0  0  0  0
   58.2493   28.5115   42.7864 H   0  0  0  0  0  0  0  0  0  0  0  0
   60.6119   28.6600   43.9412 H   0  0  0  0  0  0  0  0  0  0  0  0
   59.4518   30.0540   43.9828 H   0  0  0  0  0  0  0  0  0  0  0  0
   61.5882   30.1027   46.1531 H   0  0  0  0  0  0  0  0  0  0  0  0
   62.2754   32.4254   50.5067 H   0  0  0  0  0  0  0  0  0  0  0  0
   63.3606   31.0295   50.6354 H   0  0  0  0  0  0  0  0  0  0  0  0
   64.0849   33.6225   49.7588 H   0  0  0  0  0  0  0  0  0  0  0  0
   65.0628   32.1619   49.5137 H   0  0  0  0  0  0  0  0  0  0  0  0
   63.3928   33.6812   47.5640 H   0  0  0  0  0  0  0  0  0  0  0  0
   64.7008   32.5273   47.2341 H   0  0  0  0  0  0  0  0  0  0  0  0
   61.9140   32.0331   46.9415 H   0  0  0  0  0  0  0  0  0  0  0  0
   63.1705   30.7842   46.9446 H   0  0  0  0  0  0  0  0  0  0  0  0
   57.7094   26.6779   46.0569 H   0  0  0  0  0  0  0  0  0  0  0  0
   56.6040   28.0152   46.5809 H   0  0  0  0  0  0  0  0  0  0  0  0
   57.4903   30.7123   46.6626 H   0  0  0  0  0  0  0  0  0  0  0  0
   58.6099   32.9337   46.7255 H   0  0  0  0  0  0  0  0  0  0  0  0
   58.3367   32.8263   47.6616 H   0  0  0  0  0  0  0  0  0  0  0  0
   57.8068   32.0525   49.9726 H   0  0  0  0  0  0  0  0  0  0  0  0
   59.2910   32.6872   51.8787 H   0  0  0  0  0  0  0  0  0  0  0  0
   61.3194   34.0792   51.4698 H   0  0  0  0  0  0  0  0  0  0  0  0
  1  2  2  0
  2  3  1  0
  3  4  1  0
  4  5  1  0
  5  6  2  0
  6  7  1  0
  7  8  2  0
  8  9  1  0
  9 10  2  0
  9 11  1  0
 11 12  1  0
 12 13  1  0
 13 14  1  0
 14 15  1  0
 15 16  2  0
 16 17  1  0
 17 18  2  0
 17 19  1  0
 19 20  1  0
 20 21  1  0
 21 22  1  0
 22 23  1  0
 16 24  1  0
 24 25  1  0
 25 26  1  0
  8 27  1  0
 27 28  2  0
  2 29  1  0
 29 30  2  0
 30 31  1  0
 31 32  2  0
 32 33  1  0
 33 34  2  0
 34 35  1  0
 28  5  1  0
 34 29  1  0
 26 11  1  0
 25 14  2  0
 23 19  1  0
  4 36  1  0
  4 37  1  0
  6 38  1  0
  7 39  1  0
 11 40  1  6
 12 41  1  0
 12 42  1  0
 13 43  1  0
 13 44  1  0
 15 45  1  0
 20 46  1  0
 20 47  1  0
 21 48  1  0
 21 49  1  0
 22 50  1  0
 22 51  1  0
 23 52  1  0
 23 53  1  0
 26 54  1  0
 26 55  1  0
 27 56  1  0
 28 57  1  0
 30 58  1  0
 31 59  1  0
 32 60  1  0
 33 61  1  0
M  CHG  2   3  -1  11   1
M  END
>  <UniqueID>  (60) 
55

>  <SMILES>  (60) 
O=C([N-]Cc1ccc(C(=O)[N@H+]2CCc3cc(C(=O)N4CCCC4)sc3C2)cc1)c1ccccc1F

>  <Energy>  (60) 
109.171824009015

>  <Genealogy>  (60) 
O=C([N-]Cc1ccc(C(=O)[NH+]2CCc3cc(C(=O)N4CCCC4)sc3C2)cc1)c1ccccc1F (protonated)
O=C([N-]Cc1ccc(C(=O)[N@H+]2CCc3cc(C(=O)N4CCCC4)sc3C2)cc1)c1ccccc1F (chirality)
O=C([N-]Cc1ccc(C(=O)[N@H+]2CCc3cc(C(=O)N4CCCC4)sc3C2)cc1)c1ccccc1F (3D coordinates assigned)
O=C([N-]Cc1ccc(C(=O)[N@H+]2CCc3cc(C(=O)N4CCCC4)sc3C2)cc1)c1ccccc1F (nonaromatic ring conformer: 109.171824009015 kcal/mol)

>  <smiles>  (60) 
O=C(NCc1ccc(C(=O)N2CCc3cc(C(=O)N4CCCC4)sc3C2)cc1)c1ccccc1F

>  <score_type>  (60) 
oracle

>  <origin>  (60) 
adg

>  <m_score__min__energy>  (60) 
-11.380000000000001

>  <m_primary>  (60) 
energy

$$$$
60:0
     RDKit          3D

 55 58  0  0  0  0  0  0  0  0999 V2000
   57.0680   26.4490   45.4650 N   0  0  0  0  0  0  0  0  0  0  0  0
   58.3280   26.1250   45.4430 C   0  0  0  0  0  0  0  0  0  0  0  0
   58.7300   24.7530   45.2880 N   0  0  0  0  0  0  0  0  0  0  0  0
   58.0010   23.7680   44.5370 C   0  0  0  0  0  0  0  0  0  0  0  0
   56.8880   24.1210   43.7530 C   0  0  0  0  0  0  0  0  0  0  0  0
   56.2140   23.1490   43.0070 C   0  0  0  0  0  0  0  0  0  0  0  0
   56.6510   21.8220   43.0270 C   0  0  0  0  0  0  0  0  0  0  0  0
   57.7690   21.4670   43.7870 C   0  0  0  0  0  0  0  0  0  0  0  0
   58.4460   22.4360   44.5330 C   0  0  0  0  0  0  0  0  0  0  0  0
   59.3470   27.1300   45.5760 N   0  0  0  0  0  0  0  0  0  0  0  0
   59.1940   28.3510   46.3190 C   0  0  0  0  0  0  0  0  0  0  0  0
   59.9680   28.6040   47.4660 C   0  0  0  0  0  0  0  0  0  0  0  0
   59.8230   29.8050   48.1650 C   0  0  0  0  0  0  0  0  0  0  0  0
   58.9090   30.7670   47.7260 C   0  0  0  0  0  0  0  0  0  0  0  0
   58.7100   32.2940   48.6430 S   0  0  0  0  0  0  0  0  0  0  0  0
   58.6790   33.3040   47.1560 C   0  0  0  0  0  0  0  0  0  0  0  0
   57.4790   33.3930   46.4390 C   0  0  0  0  0  0  0  0  0  0  0  0
   57.3930   34.1930   45.2980 C   0  0  0  0  0  0  0  0  0  0  0  0
   58.5080   34.9100   44.8630 C   0  0  0  0  0  0  0  0  0  0  0  0
   59.7110   34.8260   45.5650 C   0  0  0  0  0  0  0  0  0  0  0  0
   59.8140   34.0220   46.7140 C   0  0  0  0  0  0  0  0  0  0  0  0
   61.0730   33.9390   47.4060 N   0  0  0  0  0  0  0  0  0  0  0  0
   62.2260   33.2960   46.7660 C   0  0  0  0  0  0  0  0  0  0  0  0
   62.6090   32.0030   47.5140 C   0  0  0  0  0  0  0  0  0  0  0  0
   62.2230   32.0050   48.9410 N   0  0  0  0  0  0  0  0  0  0  0  0
   62.2130   33.3560   49.5180 C   0  0  0  0  0  0  0  0  0  0  0  0
   61.1350   34.2190   48.8460 C   0  0  0  0  0  0  0  0  0  0  0  0
   58.1630   30.5400   46.5640 C   0  0  0  0  0  0  0  0  0  0  0  0
   58.3060   29.3400   45.8610 C   0  0  0  0  0  0  0  0  0  0  0  0
   57.5660   29.1320   44.7430 F   0  0  0  0  0  0  0  0  0  0  0  0
   56.5640   26.7320   44.5950 H   0  0  0  0  0  0  0  0  0  0  0  0
   56.5190   26.4370   46.3530 H   0  0  0  0  0  0  0  0  0  0  0  0
   59.6280   24.4630   45.7400 H   0  0  0  0  0  0  0  0  0  0  0  0
   56.5462   25.1662   43.7265 H   0  0  0  0  0  0  0  0  0  0  0  0
   55.3383   23.4296   42.4034 H   0  0  0  0  0  0  0  0  0  0  0  0
   56.1156   21.0573   42.4451 H   0  0  0  0  0  0  0  0  0  0  0  0
   58.1166   20.4234   43.7981 H   0  0  0  0  0  0  0  0  0  0  0  0
   59.3323   22.1537   45.1202 H   0  0  0  0  0  0  0  0  0  0  0  0
   60.2680   26.9430   45.1180 H   0  0  0  0  0  0  0  0  0  0  0  0
   60.6914   27.8522   47.8145 H   0  0  0  0  0  0  0  0  0  0  0  0
   60.4296   29.9939   49.0630 H   0  0  0  0  0  0  0  0  0  0  0  0
   56.5977   32.8283   46.7774 H   0  0  0  0  0  0  0  0  0  0  0  0
   56.4461   34.2580   44.7420 H   0  0  0  0  0  0  0  0  0  0  0  0
   58.4387   35.5423   43.9656 H   0  0  0  0  0  0  0  0  0  0  0  0
   60.5864   35.3937   45.2165 H   0  0  0  0  0  0  0  0  0  0  0  0
   61.9709   33.0495   45.7248 H   0  0  0  0  0  0  0  0  0  0  0  0
   63.0799   33.9888   46.7941 H   0  0  0  0  0  0  0  0  0  0  0  0
   62.1103   31.1558   47.0206 H   0  0  0  0  0  0  0  0  0  0  0  0
   63.7055   31.9237   47.4779 H   0  0  0  0  0  0  0  0  0  0  0  0
   61.2620   31.5980   49.0310 H   0  0  0  0  0  0  0  0  0  0  0  0
   62.0027   33.2880   50.5956 H   0  0  0  0  0  0  0  0  0  0  0  0
   63.1959   33.8212   49.3524 H   0  0  0  0  0  0  0  0  0  0  0  0
   60.1582   33.9960   49.3001 H   0  0  0  0  0  0  0  0  0  0  0  0
   61.3884   35.2796   48.9907 H   0  0  0  0  0  0  0  0  0  0  0  0
   57.4625   31.3074   46.2029 H   0  0  0  0  0  0  0  0  0  0  0  0
  1  2  2  0
  2  3  1  0
  3  4  1  0
  4  5  2  0
  5  6  1  0
  6  7  2  0
  7  8  1  0
  8  9  2  0
  2 10  1  0
 10 11  1  0
 11 12  2  0
 12 13  1  0
 13 14  2  0
 14 15  1  0
 15 16  1  0
 16 17  2  0
 17 18  1  0
 18 19  2  0
 19 20  1  0
 20 21  2  0
 21 22  1  0
 22 23  1  0
 23 24  1  0
 24 25  1  0
 25 26  1  0
 26 27  1  0
 14 28  1  0
 28 29  2  0
 29 30  1  0
  9  4  1  0
 29 11  1  0
 21 16  1  0
 27 22  1  0
  1 31  1  0
  1 32  1  0
  3 33  1  0
  5 34  1  0
  6 35  1  0
  7 36  1  0
  8 37  1  0
  9 38  1  0
 10 39  1  0
 12 40  1  0
 13 41  1  0
 17 42  1  0
 18 43  1  0
 19 44  1  0
 20 45  1  0
 23 46  1  0
 23 47  1  0
 24 48  1  0
 24 49  1  0
 25 50  1  0
 26 51  1  0
 26 52  1  0
 27 53  1  0
 27 54  1  0
 28 55  1  0
M  CHG  1   1   1
M  END
>  <UniqueID>  (61) 
56

>  <SMILES>  (61) 
[NH2+]=C(Nc1ccccc1)Nc1ccc(Sc2ccccc2N2CCNCC2)cc1F

>  <Energy>  (61) 
72.5957340792119

>  <Genealogy>  (61) 
[NH2+]=C(Nc1ccccc1)Nc1ccc(Sc2ccccc2N2CCNCC2)cc1F (protonated)
[NH2+]=C(Nc1ccccc1)Nc1ccc(Sc2ccccc2N2CCNCC2)cc1F (3D coordinates assigned)
[NH2+]=C(Nc1ccccc1)Nc1ccc(Sc2ccccc2N2CCNCC2)cc1F (nonaromatic ring conformer: 72.5957340792119 kcal/mol)

>  <smiles>  (61) 
N=C(Nc1ccccc1)Nc1ccc(Sc2ccccc2N2CCNCC2)cc1F

>  <score_type>  (61) 
oracle

>  <origin>  (61) 
adg

>  <m_score__min__energy>  (61) 
-7.0199999999999996

>  <m_primary>  (61) 
energy

$$$$
61:0
     RDKit          3D

 58 61  0  0  0  0  0  0  0  0999 V2000
   60.2490   29.0650   46.4370 C   0  0  0  0  0  0  0  0  0  0  0  0
   59.7680   30.2500   46.0290 C   0  0  0  0  0  0  0  0  0  0  0  0
   58.6740   30.4770   45.1750 C   0  0  0  0  0  0  0  0  0  0  0  0
   57.9450   29.6280   44.4240 C   0  0  0  0  0  0  0  0  0  0  0  0
   57.3930   28.3380   44.8780 C   0  0  0  0  0  0  0  0  0  0  0  0
   56.0430   28.2110   45.2460 C   0  0  0  0  0  0  0  0  0  0  0  0
   55.1780   29.2960   45.1600 O   0  0  0  0  0  0  0  0  0  0  0  0
   55.5720   27.0190   45.6960 N   0  0  0  0  0  0  0  0  0  0  0  0
   56.3910   25.9420   45.8140 C   0  0  0  0  0  0  0  0  0  0  0  0
   55.7950   24.5230   46.3560 S   0  0  0  0  0  0  0  0  0  0  0  0
   57.7050   26.0480   45.4920 N   0  0  0  0  0  0  0  0  0  0  0  0
   58.2250   27.2180   45.0370 C   0  0  0  0  0  0  0  0  0  0  0  0
   59.4510   27.2820   44.7520 O   0  0  0  0  0  0  0  0  0  0  0  0
   58.4340   31.8410   45.2080 C   0  0  0  0  0  0  0  0  0  0  0  0
   59.4040   32.4000   46.0130 C   0  0  0  0  0  0  0  0  0  0  0  0
   59.5220   33.8650   46.3080 C   0  0  0  0  0  0  0  0  0  0  0  0
   60.2110   31.4380   46.5140 N   0  0  0  0  0  0  0  0  0  0  0  0
   61.3210   31.6550   47.4050 C   0  0  0  0  0  0  0  0  0  0  0  0
   61.4340   30.9150   48.5900 C   0  0  0  0  0  0  0  0  0  0  0  0
   62.5080   31.1320   49.4570 C   0  0  0  0  0  0  0  0  0  0  0  0
   63.4920   32.0860   49.1460 C   0  0  0  0  0  0  0  0  0  0  0  0
   64.6220   32.3230   50.0730 C   0  0  0  0  0  0  0  0  0  0  0  0
   65.0640   33.4950   50.2270 O   0  0  0  0  0  0  0  0  0  0  0  0
   65.2360   31.2390   50.7880 N   0  0  0  0  0  0  0  0  0  0  0  0
   64.3990   30.3910   51.6500 C   0  0  0  0  0  0  0  0  0  0  0  0
   65.2220   29.2660   52.2770 C   0  0  0  0  0  0  0  0  0  0  0  0
   66.1800   28.7690   51.2750 N   0  0  0  0  0  0  0  0  0  0  0  0
   66.7540   27.4600   51.6650 C   0  0  0  0  0  0  0  0  0  0  0  0
   66.7530   26.5060   50.4720 C   0  0  0  0  0  0  0  0  0  0  0  0
   67.3370   27.1150   49.3550 O   0  0  0  0  0  0  0  0  0  0  0  0
   67.2430   29.7720   51.0410 C   0  0  0  0  0  0  0  0  0  0  0  0
   66.6970   31.2150   50.9320 C   0  0  0  0  0  0  0  0  0  0  0  0
   63.3670   32.8360   47.9650 C   0  0  0  0  0  0  0  0  0  0  0  0
   62.2910   32.6200   47.0990 C   0  0  0  0  0  0  0  0  0  0  0  0
   61.1176   29.0265   47.1108 H   0  0  0  0  0  0  0  0  0  0  0  0
   59.7745   28.1325   46.0975 H   0  0  0  0  0  0  0  0  0  0  0  0
   57.7445   29.9224   43.3833 H   0  0  0  0  0  0  0  0  0  0  0  0
   57.6240   32.3761   44.6907 H   0  0  0  0  0  0  0  0  0  0  0  0
   59.5345   34.0199   47.3970 H   0  0  0  0  0  0  0  0  0  0  0  0
   60.4543   34.2529   45.8717 H   0  0  0  0  0  0  0  0  0  0  0  0
   58.6638   34.3972   45.8717 H   0  0  0  0  0  0  0  0  0  0  0  0
   60.6737   30.1599   48.8386 H   0  0  0  0  0  0  0  0  0  0  0  0
   62.5838   30.5525   50.3889 H   0  0  0  0  0  0  0  0  0  0  0  0
   63.9655   31.0086   52.4504 H   0  0  0  0  0  0  0  0  0  0  0  0
   63.6042   29.9431   51.0355 H   0  0  0  0  0  0  0  0  0  0  0  0
   65.7669   29.6492   53.1523 H   0  0  0  0  0  0  0  0  0  0  0  0
   64.5584   28.4500   52.5991 H   0  0  0  0  0  0  0  0  0  0  0  0
   67.7874   27.6057   52.0127 H   0  0  0  0  0  0  0  0  0  0  0  0
   66.1436   27.0267   52.4711 H   0  0  0  0  0  0  0  0  0  0  0  0
   67.3240   25.6022   50.7311 H   0  0  0  0  0  0  0  0  0  0  0  0
   65.7131   26.2419   50.2294 H   0  0  0  0  0  0  0  0  0  0  0  0
   67.3330   28.0900   49.5400 H   0  0  0  0  0  0  0  0  0  0  0  0
   67.9561   29.7290   51.8774 H   0  0  0  0  0  0  0  0  0  0  0  0
   67.7216   29.5273   50.0813 H   0  0  0  0  0  0  0  0  0  0  0  0
   66.9738   31.7694   51.8409 H   0  0  0  0  0  0  0  0  0  0  0  0
   67.1352   31.6781   50.0356 H   0  0  0  0  0  0  0  0  0  0  0  0
   64.1209   33.5986   47.7198 H   0  0  0  0  0  0  0  0  0  0  0  0
   62.2051   33.2093   46.1741 H   0  0  0  0  0  0  0  0  0  0  0  0
  1  2  2  0
  2  3  1  0
  3  4  2  3
  4  5  1  0
  5  6  2  0
  6  7  1  0
  6  8  1  0
  8  9  1  0
  9 10  2  0
  9 11  1  0
 11 12  1  0
 12 13  2  0
  3 14  1  0
 14 15  2  0
 15 16  1  0
 15 17  1  0
 17 18  1  0
 18 19  2  0
 19 20  1  0
 20 21  2  0
 21 22  1  0
 22 23  2  0
 22 24  1  0
 24 25  1  0
 25 26  1  0
 26 27  1  0
 27 28  1  0
 28 29  1  0
 29 30  1  0
 27 31  1  0
 31 32  1  0
 21 33  1  0
 33 34  2  0
 17  2  1  0
 34 18  1  0
 12  5  1  0
 32 24  1  0
  1 35  1  0
  1 36  1  0
  4 37  1  0
 14 38  1  0
 16 39  1  0
 16 40  1  0
 16 41  1  0
 19 42  1  0
 20 43  1  0
 25 44  1  0
 25 45  1  0
 26 46  1  0
 26 47  1  0
 28 48  1  0
 28 49  1  0
 29 50  1  0
 29 51  1  0
 30 52  1  0
 31 53  1  0
 31 54  1  0
 32 55  1  0
 32 56  1  0
 33 57  1  0
 34 58  1  0
M  CHG  3   7  -1   8  -1  11  -1
M  END
>  <UniqueID>  (62) 
57

>  <SMILES>  (62) 
C=c1c(=Cc2c([O-])[n-]c(=S)[n-]c2=O)cc(C)n1-c1ccc(C(=O)N2CCN(CCO)CC2)cc1

>  <Energy>  (62) 
119.57982969045457

>  <Genealogy>  (62) 
C=c1c(=Cc2c([O-])[n-]c(=S)[n-]c2=O)cc(C)n1-c1ccc(C(=O)N2CCN(CCO)CC2)cc1 (protonated)
C=c1c(=Cc2c([O-])[n-]c(=S)[n-]c2=O)cc(C)n1-c1ccc(C(=O)N2CCN(CCO)CC2)cc1 (3D coordinates assigned)
C=c1c(=Cc2c([O-])[n-]c(=S)[n-]c2=O)cc(C)n1-c1ccc(C(=O)N2CCN(CCO)CC2)cc1 (nonaromatic ring conformer: 119.57982969045457 kcal/mol)

>  <smiles>  (62) 
C=c1c(=Cc2c(O)[nH]c(=S)[nH]c2=O)cc(C)n1-c1ccc(C(=O)N2CCN(CCO)CC2)cc1

>  <score_type>  (62) 
oracle

>  <origin>  (62) 
adg

>  <m_score__min__energy>  (62) 
-15.800000000000001

>  <m_primary>  (62) 
energy

$$$$
62:0
     RDKit          3D

 26 26  0  0  0  0  0  0  0  0999 V2000
   55.1530   29.2690   44.8150 N   0  0  0  0  0  0  0  0  0  0  0  0
   56.4990   29.7140   44.9690 C   0  0  0  0  0  0  0  0  0  0  0  0
   56.7610   30.9340   44.7880 O   0  0  0  0  0  0  0  0  0  0  0  0
   57.5740   28.7530   45.3350 C   0  0  0  0  0  0  0  0  0  0  0  0
   57.2900   27.6620   46.1720 C   0  0  0  0  0  0  0  0  0  0  0  0
   58.2630   26.7700   46.5240 N   0  0  0  0  0  0  0  0  0  0  0  0
   57.9130   25.6250   47.3780 C   0  0  0  0  0  0  0  0  0  0  0  0
   57.6790   24.4060   46.5370 C   0  0  0  0  0  0  0  0  0  0  0  0
   56.4990   23.9950   46.3630 O   0  0  0  0  0  0  0  0  0  0  0  0
   58.7950   23.6960   45.9760 N   0  0  0  0  0  0  0  0  0  0  0  0
   58.6760   22.5010   45.1900 C   0  0  0  0  0  0  0  0  0  0  0  0
   59.8470   21.8640   44.6840 N   0  0  0  0  0  0  0  0  0  0  0  0
   57.5440   22.0040   44.9380 O   0  0  0  0  0  0  0  0  0  0  0  0
   59.5350   26.9240   46.0400 C   0  0  0  0  0  0  0  0  0  0  0  0
   60.4390   26.0950   46.3380 O   0  0  0  0  0  0  0  0  0  0  0  0
   59.8370   27.9730   45.2300 N   0  0  0  0  0  0  0  0  0  0  0  0
   58.8970   28.8850   44.8700 C   0  0  0  0  0  0  0  0  0  0  0  0
   59.2250   29.8410   44.1170 O   0  0  0  0  0  0  0  0  0  0  0  0
   54.4660   29.3530   45.5960 H   0  0  0  0  0  0  0  0  0  0  0  0
   56.2666   27.5232   46.5507 H   0  0  0  0  0  0  0  0  0  0  0  0
   58.7370   25.4297   48.0800 H   0  0  0  0  0  0  0  0  0  0  0  0
   56.9938   25.8595   47.9348 H   0  0  0  0  0  0  0  0  0  0  0  0
   59.7550   24.0700   46.1540 H   0  0  0  0  0  0  0  0  0  0  0  0
   59.7690   20.9940   44.1120 H   0  0  0  0  0  0  0  0  0  0  0  0
   60.7940   22.2570   44.8820 H   0  0  0  0  0  0  0  0  0  0  0  0
   60.8150   28.0780   44.8740 H   0  0  0  0  0  0  0  0  0  0  0  0
  1  2  1  0
  2  3  2  0
  2  4  1  0
  4  5  2  0
  5  6  1  0
  6  7  1  0
  7  8  1  0
  8  9  2  0
  8 10  1  0
 10 11  1  0
 11 12  1  0
 11 13  2  0
  6 14  1  0
 14 15  2  0
 14 16  1  0
 16 17  1  0
 17 18  2  0
 17  4  1  0
  1 19  1  0
  5 20  1  0
  7 21  1  0
  7 22  1  0
 10 23  1  0
 12 24  1  0
 12 25  1  0
 16 26  1  0
M  CHG  1   1  -1
M  END
>  <UniqueID>  (63) 
58

>  <SMILES>  (63) 
[NH-]C(=O)c1cn(CC(=O)NC(N)=O)c(=O)[nH]c1=O

>  <Energy>  (63) 
25.346015438060494

>  <Genealogy>  (63) 
[NH-]C(=O)c1cn(CC(=O)NC(N)=O)c(=O)[nH]c1=O (protonated)
[NH-]C(=O)c1cn(CC(=O)NC(N)=O)c(=O)[nH]c1=O (3D coordinates assigned)
[NH-]C(=O)c1cn(CC(=O)NC(N)=O)c(=O)[nH]c1=O (optimized conformer: 25.346015438060494 kcal/mol)

>  <smiles>  (63) 
NC(=O)NC(=O)Cn1cc(C(N)=O)c(=O)[nH]c1=O

>  <score_type>  (63) 
oracle

>  <origin>  (63) 
adg

>  <m_score__min__energy>  (63) 
-9.0500000000000007

>  <m_primary>  (63) 
energy

$$$$
63:0
     RDKit          3D

 60 63  0  0  0  0  0  0  0  0999 V2000
   61.1600   28.9140   44.8490 C   0  0  0  0  0  0  0  0  0  0  0  0
   60.0250   28.1870   44.3860 O   0  0  0  0  0  0  0  0  0  0  0  0
   59.2070   27.3820   45.1980 C   0  0  0  0  0  0  0  0  0  0  0  0
   59.7340   26.3270   45.9710 C   0  0  0  0  0  0  0  0  0  0  0  0
   58.8970   25.5550   46.7810 C   0  0  0  0  0  0  0  0  0  0  0  0
   57.5300   25.8280   46.8360 C   0  0  0  0  0  0  0  0  0  0  0  0
   56.9930   26.8700   46.0750 C   0  0  0  0  0  0  0  0  0  0  0  0
   57.8200   27.6440   45.2420 C   0  0  0  0  0  0  0  0  0  0  0  0
   57.2220   28.7790   44.4500 C   0  0  0  0  0  0  0  0  0  0  0  0
   58.1440   29.9160   44.4450 N   0  0  0  0  0  0  0  0  0  0  0  0
   57.2580   31.3910   44.1970 S   0  0  0  0  0  0  0  0  0  0  0  0
   55.8920   31.2550   44.8100 O   0  0  0  0  0  0  0  0  0  0  0  0
   57.0930   31.6450   42.7250 O   0  0  0  0  0  0  0  0  0  0  0  0
   58.0980   32.7420   44.9550 C   0  0  0  0  0  0  0  0  0  0  0  0
   58.5670   33.8100   44.1790 C   0  0  0  0  0  0  0  0  0  0  0  0
   59.2720   34.8550   44.7790 C   0  0  0  0  0  0  0  0  0  0  0  0
   59.5090   34.8440   46.1560 C   0  0  0  0  0  0  0  0  0  0  0  0
   59.0280   33.7890   46.9520 C   0  0  0  0  0  0  0  0  0  0  0  0
   59.2740   33.7620   48.4160 C   0  0  0  0  0  0  0  0  0  0  0  0
   59.6450   34.8160   48.9990 O   0  0  0  0  0  0  0  0  0  0  0  0
   59.0570   32.5850   49.2060 N   0  0  0  0  0  0  0  0  0  0  0  0
   59.4590   31.2470   48.8700 C   0  0  0  0  0  0  0  0  0  0  0  0
   58.5370   30.1850   48.8900 C   0  0  0  0  0  0  0  0  0  0  0  0
   58.9330   28.8970   48.5220 C   0  0  0  0  0  0  0  0  0  0  0  0
   60.2460   28.6590   48.1150 C   0  0  0  0  0  0  0  0  0  0  0  0
   61.1640   29.7090   48.0700 C   0  0  0  0  0  0  0  0  0  0  0  0
   60.7790   31.0080   48.4410 C   0  0  0  0  0  0  0  0  0  0  0  0
   61.7320   32.0840   48.3920 N   0  0  0  0  0  0  0  0  0  0  0  0
   62.0470   32.7160   47.1080 C   0  0  0  0  0  0  0  0  0  0  0  0
   63.4540   33.3180   47.1650 C   0  0  0  0  0  0  0  0  0  0  0  0
   63.5950   34.1650   48.2910 O   0  0  0  0  0  0  0  0  0  0  0  0
   63.4790   33.4070   49.4800 C   0  0  0  0  0  0  0  0  0  0  0  0
   62.0730   32.8150   49.6150 C   0  0  0  0  0  0  0  0  0  0  0  0
   58.3370   32.7310   46.3360 C   0  0  0  0  0  0  0  0  0  0  0  0
   61.1683   28.9193   45.9490 H   0  0  0  0  0  0  0  0  0  0  0  0
   62.0783   28.4356   44.4777 H   0  0  0  0  0  0  0  0  0  0  0  0
   61.1094   29.9482   44.4777 H   0  0  0  0  0  0  0  0  0  0  0  0
   60.8118   26.1101   45.9361 H   0  0  0  0  0  0  0  0  0  0  0  0
   59.3167   24.7307   47.3762 H   0  0  0  0  0  0  0  0  0  0  0  0
   56.8742   25.2226   47.4789 H   0  0  0  0  0  0  0  0  0  0  0  0
   55.9157   27.0861   46.1281 H   0  0  0  0  0  0  0  0  0  0  0  0
   57.0427   28.4489   43.4161 H   0  0  0  0  0  0  0  0  0  0  0  0
   56.2705   29.0833   44.9106 H   0  0  0  0  0  0  0  0  0  0  0  0
   58.7860   29.8140   43.6260 H   0  0  0  0  0  0  0  0  0  0  0  0
   58.3795   33.8252   43.0952 H   0  0  0  0  0  0  0  0  0  0  0  0
   59.6421   35.6898   44.1657 H   0  0  0  0  0  0  0  0  0  0  0  0
   60.0750   35.6651   46.6201 H   0  0  0  0  0  0  0  0  0  0  0  0
   57.4972   30.3700   49.1975 H   0  0  0  0  0  0  0  0  0  0  0  0
   58.2089   28.0696   48.5531 H   0  0  0  0  0  0  0  0  0  0  0  0
   60.5577   27.6435   47.8295 H   0  0  0  0  0  0  0  0  0  0  0  0
   62.1964   29.5182   47.7417 H   0  0  0  0  0  0  0  0  0  0  0  0
   62.0032   31.9622   46.3081 H   0  0  0  0  0  0  0  0  0  0  0  0
   61.3163   33.5123   46.9030 H   0  0  0  0  0  0  0  0  0  0  0  0
   64.1915   32.5046   47.2314 H   0  0  0  0  0  0  0  0  0  0  0  0
   63.6194   33.9126   46.2545 H   0  0  0  0  0  0  0  0  0  0  0  0
   64.2139   32.5888   49.4588 H   0  0  0  0  0  0  0  0  0  0  0  0
   63.6659   34.0687   50.3386 H   0  0  0  0  0  0  0  0  0  0  0  0
   62.0454   32.1273   50.4731 H   0  0  0  0  0  0  0  0  0  0  0  0
   61.3469   33.6262   49.7721 H   0  0  0  0  0  0  0  0  0  0  0  0
   57.9804   31.8863   46.9438 H   0  0  0  0  0  0  0  0  0  0  0  0
  1  2  1  0
  2  3  1  0
  3  4  2  0
  4  5  1  0
  5  6  2  0
  6  7  1  0
  7  8  2  0
  8  9  1  0
  9 10  1  0
 10 11  1  0
 11 12  2  0
 11 13  2  0
 11 14  1  0
 14 15  2  0
 15 16  1  0
 16 17  2  0
 17 18  1  0
 18 19  1  0
 19 20  2  0
 19 21  1  0
 21 22  1  0
 22 23  2  0
 23 24  1  0
 24 25  2  0
 25 26  1  0
 26 27  2  0
 27 28  1  0
 28 29  1  0
 29 30  1  0
 30 31  1  0
 31 32  1  0
 32 33  1  0
 18 34  2  0
  8  3  1  0
 34 14  1  0
 27 22  1  0
 33 28  1  0
  1 35  1  0
  1 36  1  0
  1 37  1  0
  4 38  1  0
  5 39  1  0
  6 40  1  0
  7 41  1  0
  9 42  1  0
  9 43  1  0
 10 44  1  0
 15 45  1  0
 16 46  1  0
 17 47  1  0
 23 48  1  0
 24 49  1  0
 25 50  1  0
 26 51  1  0
 29 52  1  0
 29 53  1  0
 30 54  1  0
 30 55  1  0
 32 56  1  0
 32 57  1  0
 33 58  1  0
 33 59  1  0
 34 60  1  0
M  CHG  1  21  -1
M  END
>  <UniqueID>  (64) 
59

>  <SMILES>  (64) 
COc1ccccc1CNS(=O)(=O)c1cccc(C(=O)[N-]c2ccccc2N2CCOCC2)c1

>  <Energy>  (64) 
72.22597329839634

>  <Genealogy>  (64) 
COc1ccccc1CNS(=O)(=O)c1cccc(C(=O)[N-]c2ccccc2N2CCOCC2)c1 (protonated)
COc1ccccc1CNS(=O)(=O)c1cccc(C(=O)[N-]c2ccccc2N2CCOCC2)c1 (3D coordinates assigned)
COc1ccccc1CNS(=O)(=O)c1cccc(C(=O)[N-]c2ccccc2N2CCOCC2)c1 (nonaromatic ring conformer: 72.22597329839634 kcal/mol)

>  <smiles>  (64) 
COc1ccccc1CNS(=O)(=O)c1cccc(C(=O)Nc2ccccc2N2CCOCC2)c1

>  <score_type>  (64) 
oracle

>  <origin>  (64) 
adg

>  <m_score__min__energy>  (64) 
-11.73

>  <m_primary>  (64) 
energy

$$$$
64:0
     RDKit          3D

 43 45  0  0  0  0  0  0  0  0999 V2000
   60.5994   28.1595   46.9593 H   0  0  0  0  0  0  0  0  0  0  0  0
   59.8000   27.7280   46.3390 C   0  0  0  0  0  0  0  0  0  0  0  0
   59.7012   26.6360   46.2507 H   0  0  0  0  0  0  0  0  0  0  0  0
   58.9440   28.5350   45.6890 C   0  0  0  0  0  0  0  0  0  0  0  0
   57.8850   28.1180   44.8690 C   0  0  0  0  0  0  0  0  0  0  0  0
   57.5230   26.8450   44.5940 C   0  0  0  0  0  0  0  0  0  0  0  0
   57.5518   26.5297   43.5405 H   0  0  0  0  0  0  0  0  0  0  0  0
   57.0910   25.8390   45.5910 C   0  0  0  0  0  0  0  0  0  0  0  0
   57.8420   24.8350   46.0770 N   0  0  0  0  0  0  0  0  0  0  0  0
   57.0330   24.2430   46.9810 C   0  0  0  0  0  0  0  0  0  0  0  0
   57.3870   23.2400   47.6530 O   0  0  0  0  0  0  0  0  0  0  0  0
   55.8170   24.8130   47.1110 N   0  0  0  0  0  0  0  0  0  0  0  0
   55.8720   25.8230   46.2290 C   0  0  0  0  0  0  0  0  0  0  0  0
   54.8290   26.7150   46.0120 O   0  0  0  0  0  0  0  0  0  0  0  0
   57.2640   29.2770   44.4230 C   0  0  0  0  0  0  0  0  0  0  0  0
   56.3861   29.3382   43.7631 H   0  0  0  0  0  0  0  0  0  0  0  0
   57.9590   30.3360   44.9660 C   0  0  0  0  0  0  0  0  0  0  0  0
   57.5790   31.7750   44.7790 C   0  0  0  0  0  0  0  0  0  0  0  0
   57.4531   32.2517   45.7623 H   0  0  0  0  0  0  0  0  0  0  0  0
   58.3710   32.2936   44.2188 H   0  0  0  0  0  0  0  0  0  0  0  0
   56.6342   31.8349   44.2188 H   0  0  0  0  0  0  0  0  0  0  0  0
   58.9830   29.8960   45.7350 N   0  0  0  0  0  0  0  0  0  0  0  0
   59.9010   30.7600   46.4970 C   0  0  0  0  0  0  0  0  0  0  0  0
   60.8911   30.2829   46.5426 H   0  0  0  0  0  0  0  0  0  0  0  0
   59.9690   31.7348   45.9919 H   0  0  0  0  0  0  0  0  0  0  0  0
   59.3900   30.9770   47.9030 C   0  0  0  0  0  0  0  0  0  0  0  0
   59.4140   29.9140   48.8200 C   0  0  0  0  0  0  0  0  0  0  0  0
   59.8068   28.9347   48.5091 H   0  0  0  0  0  0  0  0  0  0  0  0
   58.9430   30.0890   50.1250 C   0  0  0  0  0  0  0  0  0  0  0  0
   58.9650   29.2471   50.8327 H   0  0  0  0  0  0  0  0  0  0  0  0
   58.4420   31.3350   50.5360 C   0  0  0  0  0  0  0  0  0  0  0  0
   57.9460   31.5620   51.8630 N   0  0  0  0  0  0  0  0  0  0  0  0
   56.5760   30.7780   52.5830 S   0  0  0  0  0  0  0  0  0  0  0  0
   55.3070   31.4450   52.1330 O   0  0  0  0  0  0  0  0  0  0  0  0
   56.5530   29.3430   52.1360 O   0  0  0  0  0  0  0  0  0  0  0  0
   56.7080   30.8200   54.3570 C   0  0  0  0  0  0  0  0  0  0  0  0
   55.7499   30.5152   54.8033 H   0  0  0  0  0  0  0  0  0  0  0  0
   57.5002   30.1295   54.6822 H   0  0  0  0  0  0  0  0  0  0  0  0
   56.9555   31.8413   54.6822 H   0  0  0  0  0  0  0  0  0  0  0  0
   58.4280   32.3980   49.6280 C   0  0  0  0  0  0  0  0  0  0  0  0
   58.0437   33.3787   49.9451 H   0  0  0  0  0  0  0  0  0  0  0  0
   58.8970   32.2290   48.3210 C   0  0  0  0  0  0  0  0  0  0  0  0
   58.8690   33.3140   47.4500 O   0  0  0  0  0  0  0  0  0  0  0  0
  1  2  1  0
  2  3  1  0
  2  4  2  0
  4  5  1  0
  5  6  2  0
  6  7  1  0
  6  8  1  0
  8  9  1  0
  9 10  1  0
 10 11  2  0
 10 12  1  0
 12 13  1  0
 13 14  1  0
  5 15  1  0
 15 16  1  0
 15 17  2  0
 17 18  1  0
 18 19  1  0
 18 20  1  0
 18 21  1  0
 17 22  1  0
 22 23  1  0
 23 24  1  0
 23 25  1  0
 23 26  1  0
 26 27  2  0
 27 28  1  0
 27 29  1  0
 29 30  1  0
 29 31  2  0
 31 32  1  0
 32 33  1  0
 33 34  2  0
 33 35  2  0
 33 36  1  0
 36 37  1  0
 36 38  1  0
 36 39  1  0
 31 40  1  0
 40 41  1  0
 40 42  2  0
 42 43  1  0
 22  4  1  0
 42 26  1  0
 13  8  2  0
M  CHG  5   9  -1  12  -1  14  -1  32  -1  43  -1
M  END
>  <UniqueID>  (65) 
60

>  <SMILES>  (65) 
C=c1/c(=C/c2[n-]c(=O)[n-]c2[O-])cc(C)n1Cc1ccc([N-]S(C)(=O)=O)cc1[O-]

>  <Energy>  (65) 
107.02339288374547

>  <Genealogy>  (65) 
C=c1c(=Cc2[n-]c(=O)[n-]c2[O-])cc(C)n1Cc1ccc([N-]S(C)(=O)=O)cc1[O-] (protonated)
C=c1/c(=C/c2[n-]c(=O)[n-]c2[O-])cc(C)n1Cc1ccc([N-]S(C)(=O)=O)cc1[O-] (cis-trans isomerization)
C=c1/c(=C/c2[n-]c(=O)[n-]c2[O-])cc(C)n1Cc1ccc([N-]S(C)(=O)=O)cc1[O-] (3D coordinates assigned)
C=c1/c(=C/c2[n-]c(=O)[n-]c2[O-])cc(C)n1Cc1ccc([N-]S(C)(=O)=O)cc1[O-] (optimized conformer: 107.02339288374547 kcal/mol)

>  <smiles>  (65) 
C=c1c(=Cc2[nH]c(=O)[nH]c2O)cc(C)n1Cc1ccc(NS(C)(=O)=O)cc1O

>  <score_type>  (65) 
oracle

>  <origin>  (65) 
adg

>  <m_score__min__energy>  (65) 
-17.859999999999999

>  <m_primary>  (65) 
energy

$$$$
65:0
     RDKit          3D

 53 55  0  0  0  0  0  0  0  0999 V2000
   62.8430   30.3520   50.9230 C   0  0  0  0  0  0  0  0  0  0  0  0
   62.7680   31.8620   51.2090 C   0  0  2  0  0  0  0  0  0  0  0  0
   61.4070   32.4680   50.7600 C   0  0  0  0  0  0  0  0  0  0  0  0
   61.5830   33.4740   49.7050 N   0  0  0  0  0  0  0  0  0  0  0  0
   60.7040   33.4990   48.5640 C   0  0  0  0  0  0  0  0  0  0  0  0
   59.8630   34.6020   48.3400 C   0  0  0  0  0  0  0  0  0  0  0  0
   58.9940   34.6190   47.2450 C   0  0  0  0  0  0  0  0  0  0  0  0
   58.9520   33.5350   46.3620 C   0  0  0  0  0  0  0  0  0  0  0  0
   57.8290   33.5600   45.0030 S   0  0  0  0  0  0  0  0  0  0  0  0
   57.4920   34.9780   44.6320 O   0  0  0  0  0  0  0  0  0  0  0  0
   56.5630   32.8650   45.4140 O   0  0  0  0  0  0  0  0  0  0  0  0
   58.4980   32.7440   43.6170 N   0  0  0  0  0  0  0  0  0  0  0  0
   57.5280   31.8350   43.0040 C   0  0  0  0  0  0  0  0  0  0  0  0
   57.3950   30.5610   43.7950 C   0  0  0  0  0  0  0  0  0  0  0  0
   56.1240   30.0790   44.1460 C   0  0  0  0  0  0  0  0  0  0  0  0
   55.9950   28.8860   44.8640 C   0  0  0  0  0  0  0  0  0  0  0  0
   57.1350   28.1660   45.2460 C   0  0  0  0  0  0  0  0  0  0  0  0
   56.9730   26.6540   46.1320 S   0  0  0  0  0  0  0  0  0  0  0  0
   55.3040   26.2200   46.2330 N   0  0  0  0  0  0  0  0  0  0  0  0
   57.5320   26.8130   47.5180 O   0  0  0  0  0  0  0  0  0  0  0  0
   57.7340   25.5660   45.4270 O   0  0  0  0  0  0  0  0  0  0  0  0
   58.4050   28.6440   44.8950 C   0  0  0  0  0  0  0  0  0  0  0  0
   58.5350   29.8370   44.1780 C   0  0  0  0  0  0  0  0  0  0  0  0
   59.7850   32.4290   46.5810 C   0  0  0  0  0  0  0  0  0  0  0  0
   60.6520   32.4100   47.6780 C   0  0  0  0  0  0  0  0  0  0  0  0
   62.5810   34.5350   49.8840 C   0  0  0  0  0  0  0  0  0  0  0  0
   63.7260   34.0690   50.7980 C   0  0  0  0  0  0  0  0  0  0  0  0
   63.9510   32.6120   50.6980 N   0  0  0  0  0  0  0  0  0  0  0  0
   64.3970   32.2210   49.3440 C   0  0  0  0  0  0  0  0  0  0  0  0
   62.8704   29.7996   51.8739 H   0  0  0  0  0  0  0  0  0  0  0  0
   61.9590   30.0439   50.3453 H   0  0  0  0  0  0  0  0  0  0  0  0
   63.7531   30.1330   50.3453 H   0  0  0  0  0  0  0  0  0  0  0  0
   62.8115   31.9809   52.3017 H   0  0  0  0  0  0  0  0  0  0  0  0
   60.7652   31.6600   50.3788 H   0  0  0  0  0  0  0  0  0  0  0  0
   60.9465   32.9596   51.6297 H   0  0  0  0  0  0  0  0  0  0  0  0
   59.8885   35.4577   49.0307 H   0  0  0  0  0  0  0  0  0  0  0  0
   58.3409   35.4881   47.0772 H   0  0  0  0  0  0  0  0  0  0  0  0
   56.5483   32.3333   42.9602 H   0  0  0  0  0  0  0  0  0  0  0  0
   57.8814   31.5807   41.9938 H   0  0  0  0  0  0  0  0  0  0  0  0
   55.2253   30.6425   43.8548 H   0  0  0  0  0  0  0  0  0  0  0  0
   54.9955   28.5115   45.1298 H   0  0  0  0  0  0  0  0  0  0  0  0
   54.7690   27.1020   46.4010 H   0  0  0  0  0  0  0  0  0  0  0  0
   59.3028   28.0783   45.1848 H   0  0  0  0  0  0  0  0  0  0  0  0
   59.5352   30.2101   43.9127 H   0  0  0  0  0  0  0  0  0  0  0  0
   59.7566   31.5746   45.8887 H   0  0  0  0  0  0  0  0  0  0  0  0
   61.2979   31.5361   47.8484 H   0  0  0  0  0  0  0  0  0  0  0  0
   62.9940   34.8092   48.9020 H   0  0  0  0  0  0  0  0  0  0  0  0
   62.0903   35.4009   50.3524 H   0  0  0  0  0  0  0  0  0  0  0  0
   64.6488   34.5924   50.5074 H   0  0  0  0  0  0  0  0  0  0  0  0
   63.4496   34.3013   51.8371 H   0  0  0  0  0  0  0  0  0  0  0  0
   65.2219   31.4978   49.4243 H   0  0  0  0  0  0  0  0  0  0  0  0
   63.5584   31.7618   48.8001 H   0  0  0  0  0  0  0  0  0  0  0  0
   64.7425   33.1125   48.8001 H   0  0  0  0  0  0  0  0  0  0  0  0
  1  2  1  0
  2  3  1  0
  3  4  1  0
  4  5  1  0
  5  6  2  0
  6  7  1  0
  7  8  2  0
  8  9  1  0
  9 10  2  0
  9 11  2  0
  9 12  1  0
 12 13  1  0
 13 14  1  0
 14 15  2  0
 15 16  1  0
 16 17  2  0
 17 18  1  0
 18 19  1  0
 18 20  2  0
 18 21  2  0
 17 22  1  0
 22 23  2  0
  8 24  1  0
 24 25  2  0
  4 26  1  0
 26 27  1  0
 27 28  1  0
 28 29  1  0
 28  2  1  0
 25  5  1  0
 23 14  1  0
  1 30  1  0
  1 31  1  0
  1 32  1  0
  2 33  1  1
  3 34  1  0
  3 35  1  0
  6 36  1  0
  7 37  1  0
 13 38  1  0
 13 39  1  0
 15 40  1  0
 16 41  1  0
 19 42  1  0
 22 43  1  0
 23 44  1  0
 24 45  1  0
 25 46  1  0
 26 47  1  0
 26 48  1  0
 27 49  1  0
 27 50  1  0
 29 51  1  0
 29 52  1  0
 29 53  1  0
M  CHG  2  12  -1  19  -1
M  END
>  <UniqueID>  (66) 
61

>  <SMILES>  (66) 
C[C@@H]1CN(c2ccc(S(=O)(=O)[N-]Cc3ccc(S([NH-])(=O)=O)cc3)cc2)CCN1C

>  <Energy>  (66) 
66.4336014628139

>  <Genealogy>  (66) 
CC1CN(c2ccc(S(=O)(=O)[N-]Cc3ccc(S([NH-])(=O)=O)cc3)cc2)CCN1C (protonated)
C[C@@H]1CN(c2ccc(S(=O)(=O)[N-]Cc3ccc(S([NH-])(=O)=O)cc3)cc2)CCN1C (chirality)
C[C@@H]1CN(c2ccc(S(=O)(=O)[N-]Cc3ccc(S([NH-])(=O)=O)cc3)cc2)CCN1C (3D coordinates assigned)
C[C@@H]1CN(c2ccc(S(=O)(=O)[N-]Cc3ccc(S([NH-])(=O)=O)cc3)cc2)CCN1C (nonaromatic ring conformer: 66.4336014628139 kcal/mol)

>  <smiles>  (66) 
CC1CN(c2ccc(S(=O)(=O)NCc3ccc(S(N)(=O)=O)cc3)cc2)CCN1C

>  <score_type>  (66) 
oracle

>  <origin>  (66) 
adg

>  <m_score__min__energy>  (66) 
-12.550000000000001

>  <m_primary>  (66) 
energy

$$$$
66:0
     RDKit          3D

 44 46  0  0  0  0  0  0  0  0999 V2000
   55.1480   29.4010   44.8560 O   0  0  0  0  0  0  0  0  0  0  0  0
   56.2130   29.8670   44.3670 C   0  0  0  0  0  0  0  0  0  0  0  0
   57.1140   28.9740   43.5740 C   0  0  0  0  0  0  0  0  0  0  0  0
   57.9790   28.2420   44.4390 O   0  0  0  0  0  0  0  0  0  0  0  0
   57.5230   27.4960   45.5330 C   0  0  0  0  0  0  0  0  0  0  0  0
   57.5350   28.0100   46.6870 O   0  0  0  0  0  0  0  0  0  0  0  0
   57.0240   26.1100   45.3460 C   0  0  0  0  0  0  0  0  0  0  0  0
   57.9000   25.1110   44.8770 C   0  0  0  0  0  0  0  0  0  0  0  0
   57.4540   23.7990   44.6950 C   0  0  0  0  0  0  0  0  0  0  0  0
   56.1300   23.4650   44.9770 C   0  0  0  0  0  0  0  0  0  0  0  0
   55.2480   24.4400   45.4430 C   0  0  0  0  0  0  0  0  0  0  0  0
   55.6840   25.7570   45.6300 C   0  0  0  0  0  0  0  0  0  0  0  0
   54.7730   26.6980   46.1000 O   0  0  0  0  0  0  0  0  0  0  0  0
   56.6140   31.2160   44.6350 N   0  0  0  0  0  0  0  0  0  0  0  0
   57.7570   31.6280   45.4010 C   0  0  0  0  0  0  0  0  0  0  0  0
   58.7090   30.6640   45.7550 C   0  0  0  0  0  0  0  0  0  0  0  0
   59.8460   31.0250   46.4820 C   0  0  0  0  0  0  0  0  0  0  0  0
   60.0580   32.3630   46.8530 C   0  0  0  0  0  0  0  0  0  0  0  0
   61.2380   32.7330   47.5920 N   0  0  0  0  0  0  0  0  0  0  0  0
   62.4720   31.9470   47.4670 C   0  0  0  0  0  0  0  0  0  0  0  0
   63.7200   32.8610   47.5070 C   0  0  0  0  0  0  0  0  0  0  0  0
   63.4380   34.2030   47.8680 O   0  0  0  0  0  0  0  0  0  0  0  0
   62.5880   34.2360   48.9950 C   0  0  0  0  0  0  0  0  0  0  0  0
   61.1770   33.8170   48.5790 C   0  0  0  0  0  0  0  0  0  0  0  0
   59.1210   33.3350   46.4660 C   0  0  0  0  0  0  0  0  0  0  0  0
   57.9800   32.9720   45.7430 C   0  0  0  0  0  0  0  0  0  0  0  0
   56.5032   28.2687   42.9914 H   0  0  0  0  0  0  0  0  0  0  0  0
   57.7250   29.5928   42.9004 H   0  0  0  0  0  0  0  0  0  0  0  0
   58.9460   25.3664   44.6517 H   0  0  0  0  0  0  0  0  0  0  0  0
   58.1486   23.0287   44.3287 H   0  0  0  0  0  0  0  0  0  0  0  0
   55.7808   22.4320   44.8319 H   0  0  0  0  0  0  0  0  0  0  0  0
   54.2043   24.1726   45.6647 H   0  0  0  0  0  0  0  0  0  0  0  0
   58.5605   29.6152   45.4586 H   0  0  0  0  0  0  0  0  0  0  0  0
   60.5800   30.2564   46.7657 H   0  0  0  0  0  0  0  0  0  0  0  0
   62.5261   31.2283   48.2980 H   0  0  0  0  0  0  0  0  0  0  0  0
   62.4550   31.4204   46.5014 H   0  0  0  0  0  0  0  0  0  0  0  0
   64.4291   32.4471   48.2390 H   0  0  0  0  0  0  0  0  0  0  0  0
   64.1314   32.8844   46.4871 H   0  0  0  0  0  0  0  0  0  0  0  0
   62.9662   33.5424   49.7605 H   0  0  0  0  0  0  0  0  0  0  0  0
   62.5624   35.2559   49.4064 H   0  0  0  0  0  0  0  0  0  0  0  0
   60.6253   33.4702   49.4652 H   0  0  0  0  0  0  0  0  0  0  0  0
   60.6647   34.6810   48.1305 H   0  0  0  0  0  0  0  0  0  0  0  0
   59.2856   34.3892   46.7334 H   0  0  0  0  0  0  0  0  0  0  0  0
   57.2546   33.7419   45.4411 H   0  0  0  0  0  0  0  0  0  0  0  0
  1  2  2  0
  2  3  1  0
  3  4  1  0
  4  5  1  0
  5  6  2  0
  5  7  1  0
  7  8  2  0
  8  9  1  0
  9 10  2  0
 10 11  1  0
 11 12  2  0
 12 13  1  0
  2 14  1  0
 14 15  1  0
 15 16  2  0
 16 17  1  0
 17 18  2  0
 18 19  1  0
 19 20  1  0
 20 21  1  0
 21 22  1  0
 22 23  1  0
 23 24  1  0
 18 25  1  0
 25 26  2  0
 12  7  1  0
 26 15  1  0
 24 19  1  0
  3 27  1  0
  3 28  1  0
  8 29  1  0
  9 30  1  0
 10 31  1  0
 11 32  1  0
 16 33  1  0
 17 34  1  0
 20 35  1  0
 20 36  1  0
 21 37  1  0
 21 38  1  0
 23 39  1  0
 23 40  1  0
 24 41  1  0
 24 42  1  0
 25 43  1  0
 26 44  1  0
M  CHG  2  13  -1  14  -1
M  END
>  <UniqueID>  (67) 
62

>  <SMILES>  (67) 
O=C(COC(=O)c1ccccc1[O-])[N-]c1ccc(N2CCOCC2)cc1

>  <Energy>  (67) 
59.320669181791914

>  <Genealogy>  (67) 
O=C(COC(=O)c1ccccc1[O-])[N-]c1ccc(N2CCOCC2)cc1 (protonated)
O=C(COC(=O)c1ccccc1[O-])[N-]c1ccc(N2CCOCC2)cc1 (3D coordinates assigned)
O=C(COC(=O)c1ccccc1[O-])[N-]c1ccc(N2CCOCC2)cc1 (nonaromatic ring conformer: 59.320669181791914 kcal/mol)

>  <smiles>  (67) 
O=C(COC(=O)c1ccccc1O)Nc1ccc(N2CCOCC2)cc1

>  <score_type>  (67) 
oracle

>  <origin>  (67) 
adg

>  <m_score__min__energy>  (67) 
-13.68

>  <m_primary>  (67) 
energy

$$$$
67:0
     RDKit          3D

 45 46  0  0  0  0  0  0  0  0999 V2000
   57.9150   31.2260   43.6330 C   0  0  0  0  0  0  0  0  0  0  0  0
   56.9990   30.0490   44.0220 C   0  0  0  0  0  0  0  0  0  0  0  0
   55.5470   30.5260   44.2190 C   0  0  0  0  0  0  0  0  0  0  0  0
   57.0270   29.0080   42.8900 C   0  0  0  0  0  0  0  0  0  0  0  0
   57.4860   29.3950   45.2060 O   0  0  0  0  0  0  0  0  0  0  0  0
   57.2000   28.0850   45.6270 C   0  0  0  0  0  0  0  0  0  0  0  0
   55.9260   27.6080   45.6260 N   0  0  0  0  0  0  0  0  0  0  0  0
   55.6430   26.3360   46.0060 C   0  0  0  0  0  0  0  0  0  0  0  0
   54.4180   25.9180   45.9910 N   0  0  0  0  0  0  0  0  0  0  0  0
   56.6470   25.5060   46.3960 N   0  0  0  0  0  0  0  0  0  0  0  0
   57.9370   25.9280   46.4190 C   0  0  0  0  0  0  0  0  0  0  0  0
   58.8410   25.1230   46.7710 O   0  0  0  0  0  0  0  0  0  0  0  0
   58.2520   27.2480   46.0460 C   0  0  0  0  0  0  0  0  0  0  0  0
   59.6860   27.7410   46.0210 C   0  0  0  0  0  0  0  0  0  0  0  0
   60.0800   28.6240   47.1970 C   0  0  0  0  0  0  0  0  0  0  0  0
   60.2900   28.0910   48.4890 C   0  0  0  0  0  0  0  0  0  0  0  0
   60.6490   28.9180   49.5510 C   0  0  0  0  0  0  0  0  0  0  0  0
   60.7950   30.2910   49.3550 C   0  0  0  0  0  0  0  0  0  0  0  0
   60.5820   30.8540   48.0870 C   0  0  0  0  0  0  0  0  0  0  0  0
   60.7120   32.2650   47.8550 N   0  0  0  0  0  0  0  0  0  0  0  0
   59.5890   33.2640   46.9870 S   0  0  0  0  0  0  0  0  0  0  0  0
   59.2990   34.7770   47.8830 C   0  0  0  0  0  0  0  0  0  0  0  0
   60.1180   33.5580   45.6100 O   0  0  0  0  0  0  0  0  0  0  0  0
   58.2860   32.5250   46.8580 O   0  0  0  0  0  0  0  0  0  0  0  0
   60.2280   30.0240   47.0090 C   0  0  0  0  0  0  0  0  0  0  0  0
   60.0260   30.6210   45.7600 O   0  0  0  0  0  0  0  0  0  0  0  0
   58.2937   31.7126   44.5440 H   0  0  0  0  0  0  0  0  0  0  0  0
   58.7613   30.8511   43.0387 H   0  0  0  0  0  0  0  0  0  0  0  0
   57.3437   31.9543   43.0387 H   0  0  0  0  0  0  0  0  0  0  0  0
   55.3275   30.5981   45.2945 H   0  0  0  0  0  0  0  0  0  0  0  0
   55.4188   31.5135   43.7516 H   0  0  0  0  0  0  0  0  0  0  0  0
   54.8582   29.8069   43.7516 H   0  0  0  0  0  0  0  0  0  0  0  0
   57.0542   27.9969   43.3223 H   0  0  0  0  0  0  0  0  0  0  0  0
   56.1256   29.1172   42.2691 H   0  0  0  0  0  0  0  0  0  0  0  0
   57.9212   29.1655   42.2691 H   0  0  0  0  0  0  0  0  0  0  0  0
   53.6360   26.5050   46.3630 H   0  0  0  0  0  0  0  0  0  0  0  0
   60.3492   26.8634   46.0152 H   0  0  0  0  0  0  0  0  0  0  0  0
   59.7824   28.3650   45.1203 H   0  0  0  0  0  0  0  0  0  0  0  0
   60.1686   27.0108   48.6579 H   0  0  0  0  0  0  0  0  0  0  0  0
   60.8180   28.4862   50.5485 H   0  0  0  0  0  0  0  0  0  0  0  0
   61.0788   30.9366   50.1992 H   0  0  0  0  0  0  0  0  0  0  0  0
   59.3375   34.5762   48.9638 H   0  0  0  0  0  0  0  0  0  0  0  0
   60.0723   35.5134   47.6191 H   0  0  0  0  0  0  0  0  0  0  0  0
   58.3082   35.1753   47.6191 H   0  0  0  0  0  0  0  0  0  0  0  0
   59.8410   31.6080   45.6340 H   0  0  0  0  0  0  0  0  0  0  0  0
  1  2  1  0
  2  3  1  0
  2  4  1  0
  2  5  1  0
  5  6  1  0
  6  7  1  0
  7  8  1  0
  8  9  2  3
  8 10  1  0
 10 11  1  0
 11 12  2  0
 11 13  1  0
 13 14  1  0
 14 15  1  0
 15 16  2  0
 16 17  1  0
 17 18  2  0
 18 19  1  0
 19 20  1  0
 20 21  1  0
 21 22  1  0
 21 23  2  0
 21 24  2  0
 19 25  2  0
 25 26  1  0
 13  6  2  0
 25 15  1  0
  1 27  1  0
  1 28  1  0
  1 29  1  0
  3 30  1  0
  3 31  1  0
  3 32  1  0
  4 33  1  0
  4 34  1  0
  4 35  1  0
  9 36  1  0
 14 37  1  0
 14 38  1  0
 16 39  1  0
 17 40  1  0
 18 41  1  0
 22 42  1  0
 22 43  1  0
 22 44  1  0
 26 45  1  0
M  CHG  3   7  -1  10  -1  20  -1
M  END
>  <UniqueID>  (68) 
63

>  <SMILES>  (68) 
CC(C)(C)Oc1[n-]c(=N)[n-]c(=O)c1Cc1cccc([N-]S(C)(=O)=O)c1O

>  <Energy>  (68) 
45.211831343951516

>  <Genealogy>  (68) 
CC(C)(C)Oc1[n-]c(=N)[n-]c(=O)c1Cc1cccc([N-]S(C)(=O)=O)c1O (protonated)
CC(C)(C)Oc1[n-]c(=N)[n-]c(=O)c1Cc1cccc([N-]S(C)(=O)=O)c1O (3D coordinates assigned)
CC(C)(C)Oc1[n-]c(=N)[n-]c(=O)c1Cc1cccc([N-]S(C)(=O)=O)c1O (optimized conformer: 45.211831343951516 kcal/mol)

>  <smiles>  (68) 
CC(C)(C)Oc1[nH]c(=N)[nH]c(=O)c1Cc1cccc(NS(C)(=O)=O)c1O

>  <score_type>  (68) 
oracle

>  <origin>  (68) 
adg

>  <m_score__min__energy>  (68) 
-11.76

>  <m_primary>  (68) 
energy

$$$$
68:0
     RDKit          3D

 68 71  0  0  0  0  0  0  0  0999 V2000
   56.5600   30.8580   44.0420 C   0  0  0  0  0  0  0  0  0  0  0  0
   56.4560   31.9550   44.9410 O   0  0  0  0  0  0  0  0  0  0  0  0
   57.5090   32.8350   45.2390 C   0  0  0  0  0  0  0  0  0  0  0  0
   58.2420   33.3780   44.1800 C   0  0  0  0  0  0  0  0  0  0  0  0
   59.3090   34.2460   44.4280 C   0  0  0  0  0  0  0  0  0  0  0  0
   59.6400   34.5950   45.7390 C   0  0  0  0  0  0  0  0  0  0  0  0
   58.8990   34.0860   46.8190 C   0  0  0  0  0  0  0  0  0  0  0  0
   59.2410   34.4740   48.2430 C   0  0  0  0  0  0  0  0  0  0  0  0
   59.8470   33.3240   49.1190 C   0  0  2  0  0  0  0  0  0  0  0  0
   58.9150   33.0210   50.3290 C   0  0  0  0  0  0  0  0  0  0  0  0
   58.1430   31.8750   50.0930 O   0  0  0  0  0  0  0  0  0  0  0  0
   61.2680   33.7240   49.6450 C   0  0  0  0  0  0  0  0  0  0  0  0
   62.3440   32.6460   49.4420 C   0  0  0  0  0  0  0  0  0  0  0  0
   61.8060   31.2310   49.6990 C   0  0  0  0  0  0  0  0  0  0  0  0
   60.5770   30.9040   48.9180 N   0  0  2  0  0  0  0  0  0  0  0  0
   60.7440   29.7260   48.0270 C   0  0  0  0  0  0  0  0  0  0  0  0
   59.5060   28.8690   47.8510 C   0  0  0  0  0  0  0  0  0  0  0  0
   58.7090   28.7080   48.8150 O   0  0  0  0  0  0  0  0  0  0  0  0
   59.2020   28.2610   46.5820 N   0  0  0  0  0  0  0  0  0  0  0  0
   59.1100   29.1050   45.3840 C   0  0  0  0  0  0  0  0  0  0  0  0
   58.6320   28.2880   44.1790 C   0  0  0  0  0  0  0  0  0  0  0  0
   57.4980   27.4450   44.5750 N   0  0  0  0  0  0  0  0  0  0  0  0
   57.8300   26.4330   45.6190 C   0  0  0  0  0  0  0  0  0  0  0  0
   56.6220   26.3060   46.5500 C   0  0  0  0  0  0  0  0  0  0  0  0
   55.6740   25.3390   45.8560 C   0  0  0  0  0  0  0  0  0  0  0  0
   56.5420   24.4480   44.9680 C   0  0  0  0  0  0  0  0  0  0  0  0
   57.9560   25.0240   45.0120 C   0  0  0  0  0  0  0  0  0  0  0  0
   59.1130   26.8040   46.4180 C   0  0  0  0  0  0  0  0  0  0  0  0
   59.9690   32.0590   48.2090 C   0  0  0  0  0  0  0  0  0  0  0  0
   57.8480   33.1860   46.5610 C   0  0  0  0  0  0  0  0  0  0  0  0
   56.6487   29.9225   44.6138 H   0  0  0  0  0  0  0  0  0  0  0  0
   55.6617   30.8167   43.4084 H   0  0  0  0  0  0  0  0  0  0  0  0
   57.4500   30.9863   43.4084 H   0  0  0  0  0  0  0  0  0  0  0  0
   57.9772   33.1203   43.1439 H   0  0  0  0  0  0  0  0  0  0  0  0
   59.8896   34.6554   43.5882 H   0  0  0  0  0  0  0  0  0  0  0  0
   60.4859   35.2725   45.9274 H   0  0  0  0  0  0  0  0  0  0  0  0
   59.9718   35.2953   48.2061 H   0  0  0  0  0  0  0  0  0  0  0  0
   58.2905   34.7540   48.7206 H   0  0  0  0  0  0  0  0  0  0  0  0
   59.5308   32.8615   51.2264 H   0  0  0  0  0  0  0  0  0  0  0  0
   58.2383   33.8762   50.4733 H   0  0  0  0  0  0  0  0  0  0  0  0
   57.1960   32.1640   50.1460 H   0  0  0  0  0  0  0  0  0  0  0  0
   61.5877   34.6338   49.1158 H   0  0  0  0  0  0  0  0  0  0  0  0
   61.1717   33.8724   50.7307 H   0  0  0  0  0  0  0  0  0  0  0  0
   62.7106   32.7025   48.4064 H   0  0  0  0  0  0  0  0  0  0  0  0
   63.1514   32.8357   50.1645 H   0  0  0  0  0  0  0  0  0  0  0  0
   62.5902   30.5076   49.4310 H   0  0  0  0  0  0  0  0  0  0  0  0
   61.5329   31.1800   50.7633 H   0  0  0  0  0  0  0  0  0  0  0  0
   59.8640   30.5810   49.6150 H   0  0  0  0  0  0  0  0  0  0  0  0
   61.0495   30.0902   47.0350 H   0  0  0  0  0  0  0  0  0  0  0  0
   61.4946   29.0825   48.5093 H   0  0  0  0  0  0  0  0  0  0  0  0
   58.3973   29.9215   45.5718 H   0  0  0  0  0  0  0  0  0  0  0  0
   60.1076   29.5116   45.1613 H   0  0  0  0  0  0  0  0  0  0  0  0
   58.3180   28.9703   43.3753 H   0  0  0  0  0  0  0  0  0  0  0  0
   59.4537   27.6505   43.8205 H   0  0  0  0  0  0  0  0  0  0  0  0
   57.1030   26.9960   43.7130 H   0  0  0  0  0  0  0  0  0  0  0  0
   56.9303   25.9071   47.5276 H   0  0  0  0  0  0  0  0  0  0  0  0
   56.1466   27.2802   46.7370 H   0  0  0  0  0  0  0  0  0  0  0  0
   55.1397   24.7299   46.6000 H   0  0  0  0  0  0  0  0  0  0  0  0
   54.9179   25.8764   45.2648 H   0  0  0  0  0  0  0  0  0  0  0  0
   56.5412   23.4166   45.3505 H   0  0  0  0  0  0  0  0  0  0  0  0
   56.1577   24.4238   43.9376 H   0  0  0  0  0  0  0  0  0  0  0  0
   58.6040   24.3952   45.6403 H   0  0  0  0  0  0  0  0  0  0  0  0
   58.4045   25.0598   44.0082 H   0  0  0  0  0  0  0  0  0  0  0  0
   59.0748   26.3280   47.4090 H   0  0  0  0  0  0  0  0  0  0  0  0
   59.9959   26.4493   45.8661 H   0  0  0  0  0  0  0  0  0  0  0  0
   60.5954   32.3088   47.3400 H   0  0  0  0  0  0  0  0  0  0  0  0
   58.9530   31.7670   47.9050 H   0  0  0  0  0  0  0  0  0  0  0  0
   57.2851   32.7519   47.4005 H   0  0  0  0  0  0  0  0  0  0  0  0
  1  2  1  0
  2  3  1  0
  3  4  2  0
  4  5  1  0
  5  6  2  0
  6  7  1  0
  7  8  1  0
  9  8  1  6
  9 10  1  0
 10 11  1  0
  9 12  1  0
 12 13  1  0
 13 14  1  0
 14 15  1  0
 15 16  1  0
 16 17  1  0
 17 18  2  0
 17 19  1  0
 19 20  1  0
 20 21  1  0
 21 22  1  0
 22 23  1  0
 23 24  1  0
 24 25  1  0
 25 26  1  0
 26 27  1  0
 23 28  1  0
 15 29  1  0
  7 30  2  0
 30  3  1  0
 29  9  1  0
 28 19  1  0
 27 23  1  0
  1 31  1  0
  1 32  1  0
  1 33  1  0
  4 34  1  0
  5 35  1  0
  6 36  1  0
  8 37  1  0
  8 38  1  0
 10 39  1  0
 10 40  1  0
 11 41  1  0
 12 42  1  0
 12 43  1  0
 13 44  1  0
 13 45  1  0
 14 46  1  0
 14 47  1  0
 15 48  1  1
 16 49  1  0
 16 50  1  0
 20 51  1  0
 20 52  1  0
 21 53  1  0
 21 54  1  0
 22 55  1  0
 24 56  1  0
 24 57  1  0
 25 58  1  0
 25 59  1  0
 26 60  1  0
 26 61  1  0
 27 62  1  0
 27 63  1  0
 28 64  1  0
 28 65  1  0
 29 66  1  0
 29 67  1  0
 30 68  1  0
M  CHG  1  15   1
M  END
>  <UniqueID>  (69) 
64

>  <SMILES>  (69) 
COc1cccc(C[C@]2(CO)CCC[N@H+](CC(=O)N3CCNC4(CCCC4)C3)C2)c1

>  <Energy>  (69) 
93.0506532421747

>  <Genealogy>  (69) 
COc1cccc(CC2(CO)CCC[NH+](CC(=O)N3CCNC4(CCCC4)C3)C2)c1 (protonated)
COc1cccc(C[C@]2(CO)CCC[N@H+](CC(=O)N3CCNC4(CCCC4)C3)C2)c1 (chirality)
COc1cccc(C[C@]2(CO)CCC[N@H+](CC(=O)N3CCNC4(CCCC4)C3)C2)c1 (3D coordinates assigned)
COc1cccc(C[C@]2(CO)CCC[N@H+](CC(=O)N3CCNC4(CCCC4)C3)C2)c1 (nonaromatic ring conformer: 93.0506532421747 kcal/mol)

>  <smiles>  (69) 
COc1cccc(CC2(CO)CCCN(CC(=O)N3CCNC4(CCCC4)C3)C2)c1

>  <score_type>  (69) 
oracle

>  <origin>  (69) 
adg

>  <m_score__min__energy>  (69) 
-7.5999999999999996

>  <m_primary>  (69) 
energy

$$$$
69:0
     RDKit          3D

 50 52  0  0  0  0  0  0  0  0999 V2000
   56.5154   25.3224   47.1447 H   0  0  0  0  0  0  0  0  0  0  0  0
   57.1470   26.1540   46.7990 C   0  0  0  0  0  0  0  0  0  0  0  0
   56.7850   26.8700   45.7020 N   0  0  0  0  0  0  0  0  0  0  0  0
   57.5370   27.9080   45.2360 C   0  0  0  0  0  0  0  0  0  0  0  0
   57.1840   28.5810   44.1790 N   0  0  0  0  0  0  0  0  0  0  0  0
   56.1850   29.6110   44.1050 C   0  0  0  0  0  0  0  0  0  0  0  0
   54.9570   29.3400   44.1830 O   0  0  0  0  0  0  0  0  0  0  0  0
   56.6160   31.0330   43.9420 C   0  0  0  0  0  0  0  0  0  0  0  0
   57.5998   31.0599   43.4506 H   0  0  0  0  0  0  0  0  0  0  0  0
   55.8734   31.5638   43.3282 H   0  0  0  0  0  0  0  0  0  0  0  0
   56.7100   31.6860   45.2430 N   0  0  0  0  0  0  0  0  0  0  0  0
   57.3340   32.9600   45.4480 C   0  0  0  0  0  0  0  0  0  0  0  0
   56.7050   34.0180   45.1640 O   0  0  0  0  0  0  0  0  0  0  0  0
   58.7080   33.0380   45.9960 C   0  0  0  0  0  0  0  0  0  0  0  0
   59.2970   34.2850   46.2740 C   0  0  0  0  0  0  0  0  0  0  0  0
   58.7333   35.2098   46.0818 H   0  0  0  0  0  0  0  0  0  0  0  0
   60.5940   34.3580   46.7930 C   0  0  0  0  0  0  0  0  0  0  0  0
   61.0438   35.3385   47.0079 H   0  0  0  0  0  0  0  0  0  0  0  0
   61.3220   33.1870   47.0400 C   0  0  0  0  0  0  0  0  0  0  0  0
   62.9490   33.2580   47.7070 S   0  0  0  0  0  0  0  0  0  0  0  0
   63.0360   34.4210   48.6550 O   0  0  0  0  0  0  0  0  0  0  0  0
   63.9240   33.4480   46.5810 O   0  0  0  0  0  0  0  0  0  0  0  0
   63.3080   31.7850   48.5630 N   0  0  0  0  0  0  0  0  0  0  0  0
   62.8490   31.8620   49.9510 C   0  0  0  0  0  0  0  0  0  0  0  0
   63.2209   30.9863   50.5032 H   0  0  0  0  0  0  0  0  0  0  0  0
   63.2351   32.7891   50.3997 H   0  0  0  0  0  0  0  0  0  0  0  0
   61.3450   31.8840   50.0150 C   0  0  0  0  0  0  0  0  0  0  0  0
   60.6030   30.7180   49.7610 C   0  0  0  0  0  0  0  0  0  0  0  0
   61.1230   29.7798   49.5172 H   0  0  0  0  0  0  0  0  0  0  0  0
   59.2060   30.7460   49.8170 C   0  0  0  0  0  0  0  0  0  0  0  0
   58.6292   29.8316   49.6140 H   0  0  0  0  0  0  0  0  0  0  0  0
   58.5420   31.9360   50.1310 C   0  0  0  0  0  0  0  0  0  0  0  0
   57.4431   31.9569   50.1756 H   0  0  0  0  0  0  0  0  0  0  0  0
   59.2730   33.0980   50.3880 C   0  0  0  0  0  0  0  0  0  0  0  0
   58.7491   34.0332   50.6348 H   0  0  0  0  0  0  0  0  0  0  0  0
   60.6700   33.0740   50.3320 C   0  0  0  0  0  0  0  0  0  0  0  0
   61.2424   33.9907   50.5370 H   0  0  0  0  0  0  0  0  0  0  0  0
   60.7430   31.9440   46.7650 C   0  0  0  0  0  0  0  0  0  0  0  0
   61.3096   31.0216   46.9602 H   0  0  0  0  0  0  0  0  0  0  0  0
   59.4470   31.8670   46.2430 C   0  0  0  0  0  0  0  0  0  0  0  0
   59.0033   30.8845   46.0244 H   0  0  0  0  0  0  0  0  0  0  0  0
   58.7190   28.2550   45.9030 C   0  0  0  0  0  0  0  0  0  0  0  0
   59.3393   29.0843   45.5322 H   0  0  0  0  0  0  0  0  0  0  0  0
   59.1080   27.5410   47.0450 C   0  0  0  0  0  0  0  0  0  0  0  0
   60.3930   27.8730   47.7440 C   0  0  0  0  0  0  0  0  0  0  0  0
   60.2392   27.8333   48.8325 H   0  0  0  0  0  0  0  0  0  0  0  0
   61.1657   27.1450   47.4561 H   0  0  0  0  0  0  0  0  0  0  0  0
   60.7164   28.8842   47.4561 H   0  0  0  0  0  0  0  0  0  0  0  0
   58.3190   26.4720   47.4880 C   0  0  0  0  0  0  0  0  0  0  0  0
   58.6199   25.8884   48.3705 H   0  0  0  0  0  0  0  0  0  0  0  0
  1  2  1  0
  2  3  1  0
  3  4  1  0
  4  5  2  0
  5  6  1  0
  6  7  2  0
  6  8  1  0
  8  9  1  0
  8 10  1  0
  8 11  1  0
 11 12  1  0
 12 13  2  0
 12 14  1  0
 14 15  2  0
 15 16  1  0
 15 17  1  0
 17 18  1  0
 17 19  2  0
 19 20  1  0
 20 21  2  0
 20 22  2  0
 20 23  1  0
 23 24  1  0
 24 25  1  0
 24 26  1  0
 24 27  1  0
 27 28  2  0
 28 29  1  0
 28 30  1  0
 30 31  1  0
 30 32  2  0
 32 33  1  0
 32 34  1  0
 34 35  1  0
 34 36  2  0
 36 37  1  0
 19 38  1  0
 38 39  1  0
 38 40  2  0
 40 41  1  0
  4 42  1  0
 42 43  1  0
 42 44  2  0
 44 45  1  0
 45 46  1  0
 45 47  1  0
 45 48  1  0
 44 49  1  0
 49 50  1  0
 49  2  2  0
 40 14  1  0
 36 27  1  0
M  CHG  3   3  -1  11  -1  23  -1
M  END
>  <UniqueID>  (70) 
65

>  <SMILES>  (70) 
Cc1cc[n-]/c(=N\C(=O)C[N-]C(=O)c2ccc(S(=O)(=O)[N-]Cc3ccccc3)cc2)c1

>  <Energy>  (70) 
52.23665688658046

>  <Genealogy>  (70) 
Cc1cc[n-]c(=NC(=O)C[N-]C(=O)c2ccc(S(=O)(=O)[N-]Cc3ccccc3)cc2)c1 (protonated)
Cc1cc[n-]/c(=N\C(=O)C[N-]C(=O)c2ccc(S(=O)(=O)[N-]Cc3ccccc3)cc2)c1 (cis-trans isomerization)
Cc1cc[n-]/c(=N\C(=O)C[N-]C(=O)c2ccc(S(=O)(=O)[N-]Cc3ccccc3)cc2)c1 (3D coordinates assigned)
Cc1cc[n-]/c(=N\C(=O)C[N-]C(=O)c2ccc(S(=O)(=O)[N-]Cc3ccccc3)cc2)c1 (optimized conformer: 52.23665688658046 kcal/mol)

>  <smiles>  (70) 
Cc1cc[nH]c(=NC(=O)CNC(=O)c2ccc(S(=O)(=O)NCc3ccccc3)cc2)c1

>  <score_type>  (70) 
oracle

>  <origin>  (70) 
adg

>  <m_score__min__energy>  (70) 
-13.460000000000001

>  <m_primary>  (70) 
energy

$$$$
70:0
     RDKit          3D

 49 52  0  0  0  0  0  0  0  0999 V2000
   65.6530   33.0440   49.7090 C   0  0  0  0  0  0  0  0  0  0  0  0
   64.4510   32.5880   49.0100 N   0  0  0  0  0  0  0  0  0  0  0  0
   63.4490   33.6580   48.9690 C   0  0  0  0  0  0  0  0  0  0  0  0
   62.4940   33.4130   47.8410 C   0  0  0  0  0  0  0  0  0  0  0  0
   62.8700   32.7240   46.8540 O   0  0  0  0  0  0  0  0  0  0  0  0
   61.2020   34.0390   47.8480 N   0  0  0  0  0  0  0  0  0  0  0  0
   60.1540   33.7360   46.9100 C   0  0  0  0  0  0  0  0  0  0  0  0
   59.6550   34.7110   46.0290 C   0  0  0  0  0  0  0  0  0  0  0  0
   58.6590   34.3830   45.1080 C   0  0  0  0  0  0  0  0  0  0  0  0
   58.1570   33.0810   45.0470 C   0  0  0  0  0  0  0  0  0  0  0  0
   58.6580   32.0840   45.9050 C   0  0  0  0  0  0  0  0  0  0  0  0
   58.1310   30.6970   45.8370 C   0  0  0  0  0  0  0  0  0  0  0  0
   57.1880   30.3370   44.8600 C   0  0  0  0  0  0  0  0  0  0  0  0
   56.6940   29.0310   44.7950 C   0  0  0  0  0  0  0  0  0  0  0  0
   57.1330   28.0570   45.7080 C   0  0  0  0  0  0  0  0  0  0  0  0
   56.6120   26.6740   45.6380 C   0  0  0  0  0  0  0  0  0  0  0  0
   57.3620   25.6230   45.2090 N   0  0  0  0  0  0  0  0  0  0  0  0
   56.5120   24.5890   45.3070 C   0  0  0  0  0  0  0  0  0  0  0  0
   56.7480   23.2470   44.9940 C   0  0  0  0  0  0  0  0  0  0  0  0
   58.0900   22.7820   44.5140 C   0  0  0  0  0  0  0  0  0  0  0  0
   55.6880   22.3370   45.2070 C   0  0  0  0  0  0  0  0  0  0  0  0
   54.4420   22.7900   45.6940 C   0  0  0  0  0  0  0  0  0  0  0  0
   54.2410   24.1520   45.9840 C   0  0  0  0  0  0  0  0  0  0  0  0
   55.3090   25.0210   45.7770 C   0  0  0  0  0  0  0  0  0  0  0  0
   55.3420   26.3420   45.9960 N   0  0  0  0  0  0  0  0  0  0  0  0
   58.0750   28.4160   46.6860 C   0  0  0  0  0  0  0  0  0  0  0  0
   58.5690   29.7220   46.7500 C   0  0  0  0  0  0  0  0  0  0  0  0
   59.6640   32.4230   46.8290 C   0  0  0  0  0  0  0  0  0  0  0  0
   65.4910   32.9825   50.7953 H   0  0  0  0  0  0  0  0  0  0  0  0
   66.5043   32.4064   49.4286 H   0  0  0  0  0  0  0  0  0  0  0  0
   65.8672   34.0859   49.4286 H   0  0  0  0  0  0  0  0  0  0  0  0
   64.7290   32.3640   48.0250 H   0  0  0  0  0  0  0  0  0  0  0  0
   62.8952   33.6769   49.9193 H   0  0  0  0  0  0  0  0  0  0  0  0
   63.9534   34.6235   48.8159 H   0  0  0  0  0  0  0  0  0  0  0  0
   61.0470   34.8230   48.5210 H   0  0  0  0  0  0  0  0  0  0  0  0
   60.0511   35.7366   46.0656 H   0  0  0  0  0  0  0  0  0  0  0  0
   58.2676   35.1532   44.4272 H   0  0  0  0  0  0  0  0  0  0  0  0
   57.3656   32.8334   44.3243 H   0  0  0  0  0  0  0  0  0  0  0  0
   56.8351   31.0897   44.1396 H   0  0  0  0  0  0  0  0  0  0  0  0
   55.9565   28.7638   44.0238 H   0  0  0  0  0  0  0  0  0  0  0  0
   58.7320   22.5596   45.3791 H   0  0  0  0  0  0  0  0  0  0  0  0
   57.9673   21.8740   43.9054 H   0  0  0  0  0  0  0  0  0  0  0  0
   58.5554   23.5713   43.9054 H   0  0  0  0  0  0  0  0  0  0  0  0
   55.8344   21.2682   44.9920 H   0  0  0  0  0  0  0  0  0  0  0  0
   53.6225   22.0725   45.8477 H   0  0  0  0  0  0  0  0  0  0  0  0
   53.2743   24.5174   46.3609 H   0  0  0  0  0  0  0  0  0  0  0  0
   58.4267   27.6635   47.4072 H   0  0  0  0  0  0  0  0  0  0  0  0
   59.3066   29.9890   47.5212 H   0  0  0  0  0  0  0  0  0  0  0  0
   60.0715   31.6492   47.4962 H   0  0  0  0  0  0  0  0  0  0  0  0
  1  2  1  0
  2  3  1  0
  3  4  1  0
  4  5  2  0
  4  6  1  0
  6  7  1  0
  7  8  2  0
  8  9  1  0
  9 10  2  0
 10 11  1  0
 11 12  1  0
 12 13  2  0
 13 14  1  0
 14 15  2  0
 15 16  1  0
 16 17  2  0
 17 18  1  0
 18 19  2  0
 19 20  1  0
 19 21  1  0
 21 22  2  0
 22 23  1  0
 23 24  2  0
 24 25  1  0
 15 26  1  0
 26 27  2  0
 11 28  2  0
 28  7  1  0
 27 12  1  0
 25 16  1  0
 24 18  1  0
  1 29  1  0
  1 30  1  0
  1 31  1  0
  2 32  1  0
  3 33  1  0
  3 34  1  0
  6 35  1  0
  8 36  1  0
  9 37  1  0
 10 38  1  0
 13 39  1  0
 14 40  1  0
 20 41  1  0
 20 42  1  0
 20 43  1  0
 21 44  1  0
 22 45  1  0
 23 46  1  0
 26 47  1  0
 27 48  1  0
 28 49  1  0
M  CHG  1  25  -1
M  END
>  <UniqueID>  (71) 
66

>  <SMILES>  (71) 
CNCC(=O)Nc1cccc(-c2ccc(-c3nc4c(C)cccc4[n-]3)cc2)c1

>  <Energy>  (71) 
93.03366807550651

>  <Genealogy>  (71) 
CNCC(=O)Nc1cccc(-c2ccc(-c3nc4c(C)cccc4[n-]3)cc2)c1 (protonated)
CNCC(=O)Nc1cccc(-c2ccc(-c3nc4c(C)cccc4[n-]3)cc2)c1 (3D coordinates assigned)
CNCC(=O)Nc1cccc(-c2ccc(-c3nc4c(C)cccc4[n-]3)cc2)c1 (optimized conformer: 93.03366807550651 kcal/mol)

>  <smiles>  (71) 
CNCC(=O)Nc1cccc(-c2ccc(-c3nc4c(C)cccc4[nH]3)cc2)c1

>  <score_type>  (71) 
oracle

>  <origin>  (71) 
adg

>  <m_score__min__energy>  (71) 
-10.619999999999999

>  <m_primary>  (71) 
energy

$$$$
71:0
     RDKit          3D

 46 48  0  0  0  0  0  0  0  0999 V2000
   59.0970   26.4910   45.8000 O   0  0  0  0  0  0  0  0  0  0  0  0
   57.8730   26.5860   46.0910 C   0  0  0  0  0  0  0  0  0  0  0  0
   57.3220   27.8740   46.3970 N   0  0  0  0  0  0  0  0  0  0  0  0
   57.5330   29.0730   45.6390 C   0  0  0  0  0  0  0  0  0  0  0  0
   58.8110   29.6470   45.6370 C   0  0  0  0  0  0  0  0  0  0  0  0
   59.0640   30.8110   44.9070 C   0  0  0  0  0  0  0  0  0  0  0  0
   58.0440   31.4030   44.1600 C   0  0  0  0  0  0  0  0  0  0  0  0
   56.7740   30.8220   44.1270 C   0  0  0  0  0  0  0  0  0  0  0  0
   56.5130   29.6480   44.8510 C   0  0  0  0  0  0  0  0  0  0  0  0
   55.2620   29.0420   44.7590 O   0  0  0  0  0  0  0  0  0  0  0  0
   57.0080   25.3740   46.0580 C   0  0  0  0  0  0  0  0  0  0  0  0
   57.6050   24.1000   46.1010 C   0  0  0  0  0  0  0  0  0  0  0  0
   56.8330   22.9280   46.0690 C   0  0  0  0  0  0  0  0  0  0  0  0
   57.6960   21.3780   46.1390 S   0  0  0  0  0  0  0  0  0  0  0  0
   59.1080   21.6050   45.6780 O   0  0  0  0  0  0  0  0  0  0  0  0
   57.0830   20.3520   45.2280 O   0  0  0  0  0  0  0  0  0  0  0  0
   57.7430   20.7790   47.7720 N   0  0  0  0  0  0  0  0  0  0  0  0
   56.6010   21.2470   48.5700 C   0  0  0  0  0  0  0  0  0  0  0  0
   57.0280   22.4870   49.3950 C   0  0  0  0  0  0  0  0  0  0  0  0
   57.5040   22.1560   50.8250 C   0  0  0  0  0  0  0  0  0  0  0  0
   58.1560   20.7730   50.9040 C   0  0  0  0  0  0  0  0  0  0  0  0
   57.1790   19.6550   50.4880 C   0  0  0  0  0  0  0  0  0  0  0  0
   56.0990   20.1230   49.4920 C   0  0  0  0  0  0  0  0  0  0  0  0
   55.4260   23.0330   46.0120 C   0  0  0  0  0  0  0  0  0  0  0  0
   54.2420   21.5210   46.0220 Br  0  0  0  0  0  0  0  0  0  0  0  0
   54.8290   24.2960   45.9700 C   0  0  0  0  0  0  0  0  0  0  0  0
   55.6010   25.4590   45.9920 C   0  0  0  0  0  0  0  0  0  0  0  0
   54.9490   26.6860   45.9560 O   0  0  0  0  0  0  0  0  0  0  0  0
   59.6212   29.1778   46.2144 H   0  0  0  0  0  0  0  0  0  0  0  0
   60.0675   31.2613   44.9208 H   0  0  0  0  0  0  0  0  0  0  0  0
   58.2404   32.3274   43.5971 H   0  0  0  0  0  0  0  0  0  0  0  0
   55.9748   31.2866   43.5309 H   0  0  0  0  0  0  0  0  0  0  0  0
   55.1420   28.0450   44.9010 H   0  0  0  0  0  0  0  0  0  0  0  0
   58.7005   24.0211   46.1610 H   0  0  0  0  0  0  0  0  0  0  0  0
   55.7754   21.5300   47.9004 H   0  0  0  0  0  0  0  0  0  0  0  0
   57.8503   22.9891   48.8643 H   0  0  0  0  0  0  0  0  0  0  0  0
   56.1371   23.1244   49.4957 H   0  0  0  0  0  0  0  0  0  0  0  0
   58.2371   22.9132   51.1400 H   0  0  0  0  0  0  0  0  0  0  0  0
   56.6245   22.1565   51.4857 H   0  0  0  0  0  0  0  0  0  0  0  0
   59.0279   20.7516   50.2337 H   0  0  0  0  0  0  0  0  0  0  0  0
   58.4551   20.5950   51.9475 H   0  0  0  0  0  0  0  0  0  0  0  0
   57.7564   18.8440   50.0202 H   0  0  0  0  0  0  0  0  0  0  0  0
   56.6584   19.3240   51.3987 H   0  0  0  0  0  0  0  0  0  0  0  0
   55.7949   19.2667   48.8721 H   0  0  0  0  0  0  0  0  0  0  0  0
   55.2538   20.5186   50.0744 H   0  0  0  0  0  0  0  0  0  0  0  0
   53.7330   24.3750   45.9188 H   0  0  0  0  0  0  0  0  0  0  0  0
  1  2  2  0
  2  3  1  0
  3  4  1  0
  4  5  2  0
  5  6  1  0
  6  7  2  0
  7  8  1  0
  8  9  2  0
  9 10  1  0
  2 11  1  0
 11 12  2  0
 12 13  1  0
 13 14  1  0
 14 15  2  0
 14 16  2  0
 14 17  1  0
 17 18  1  0
 18 19  1  0
 19 20  1  0
 20 21  1  0
 21 22  1  0
 22 23  1  0
 13 24  2  0
 24 25  1  0
 24 26  1  0
 26 27  2  0
 27 28  1  0
  9  4  1  0
 27 11  1  0
 23 18  1  0
  5 29  1  0
  6 30  1  0
  7 31  1  0
  8 32  1  0
 10 33  1  0
 12 34  1  0
 18 35  1  0
 19 36  1  0
 19 37  1  0
 20 38  1  0
 20 39  1  0
 21 40  1  0
 21 41  1  0
 22 42  1  0
 22 43  1  0
 23 44  1  0
 23 45  1  0
 26 46  1  0
M  CHG  3   3  -1  17  -1  28  -1
M  END
>  <UniqueID>  (72) 
67

>  <SMILES>  (72) 
O=C([N-]c1ccccc1O)c1cc(S(=O)(=O)[N-]C2CCCCC2)c(Br)cc1[O-]

>  <Energy>  (72) 
61.19609619850582

>  <Genealogy>  (72) 
O=C([N-]c1ccccc1O)c1cc(S(=O)(=O)[N-]C2CCCCC2)c(Br)cc1[O-] (protonated)
O=C([N-]c1ccccc1O)c1cc(S(=O)(=O)[N-]C2CCCCC2)c(Br)cc1[O-] (3D coordinates assigned)
O=C([N-]c1ccccc1O)c1cc(S(=O)(=O)[N-]C2CCCCC2)c(Br)cc1[O-] (nonaromatic ring conformer: 61.19609619850582 kcal/mol)

>  <smiles>  (72) 
O=C(Nc1ccccc1O)c1cc(S(=O)(=O)NC2CCCCC2)c(Br)cc1O

>  <score_type>  (72) 
oracle

>  <origin>  (72) 
adg

>  <m_score__min__energy>  (72) 
-14.539999999999999

>  <m_primary>  (72) 
energy

$$$$
72:0
     RDKit          3D

 61 63  0  0  0  0  0  0  0  0999 V2000
   60.4790   28.9460   51.6900 C   0  0  0  0  0  0  0  0  0  0  0  0
   59.7510   29.9990   50.9870 N   0  0  0  0  0  0  0  0  0  0  0  0
   59.0270   30.9030   51.6330 N   0  0  0  0  0  0  0  0  0  0  0  0
   58.4980   31.7540   50.7290 C   0  0  0  0  0  0  0  0  0  0  0  0
   58.8980   31.3780   49.4620 C   0  0  0  0  0  0  0  0  0  0  0  0
   58.5450   32.0000   48.1730 C   0  0  0  0  0  0  0  0  0  0  0  0
   58.1400   31.2700   47.2330 O   0  0  0  0  0  0  0  0  0  0  0  0
   58.7020   33.4030   47.9370 N   0  0  0  0  0  0  0  0  0  0  0  0
   59.6700   34.2550   48.6150 C   0  0  0  0  0  0  0  0  0  0  0  0
   61.0540   33.7560   48.3160 C   0  0  0  0  0  0  0  0  0  0  0  0
   61.5440   33.8020   47.0000 C   0  0  0  0  0  0  0  0  0  0  0  0
   62.8450   33.3760   46.7140 C   0  0  0  0  0  0  0  0  0  0  0  0
   63.6670   32.9080   47.7430 C   0  0  0  0  0  0  0  0  0  0  0  0
   63.1920   32.8690   49.0560 C   0  0  0  0  0  0  0  0  0  0  0  0
   61.8920   33.2940   49.3460 C   0  0  0  0  0  0  0  0  0  0  0  0
   59.6960   30.2730   49.6590 C   0  0  0  0  0  0  0  0  0  0  0  0
   60.3370   29.6770   48.6950 N   0  0  0  0  0  0  0  0  0  0  0  0
   60.4860   28.2570   48.4030 C   0  0  0  0  0  0  0  0  0  0  0  0
   59.7410   27.9800   47.1310 C   0  0  0  0  0  0  0  0  0  0  0  0
   60.3290   28.2840   45.8930 C   0  0  0  0  0  0  0  0  0  0  0  0
   59.5680   28.2450   44.7240 C   0  0  0  0  0  0  0  0  0  0  0  0
   58.2050   27.9370   44.7740 C   0  0  0  0  0  0  0  0  0  0  0  0
   57.4590   28.0440   43.5890 O   0  0  0  0  0  0  0  0  0  0  0  0
   56.7850   29.2200   43.1410 C   0  0  0  0  0  0  0  0  0  0  0  0
   56.1020   29.9350   44.2770 C   0  0  0  0  0  0  0  0  0  0  0  0
   55.1450   29.3640   44.8640 O   0  0  0  0  0  0  0  0  0  0  0  0
   56.4810   31.2480   44.7040 N   0  0  0  0  0  0  0  0  0  0  0  0
   58.0200   32.0030   44.4350 S   0  0  0  0  0  0  0  0  0  0  0  0
   58.1790   32.3190   42.9740 O   0  0  0  0  0  0  0  0  0  0  0  0
   59.1250   31.0820   44.8700 O   0  0  0  0  0  0  0  0  0  0  0  0
   58.1130   33.4800   45.3590 N   0  0  0  0  0  0  0  0  0  0  0  0
   59.2170   34.3100   44.8610 C   0  0  0  0  0  0  0  0  0  0  0  0
   56.8390   34.2070   45.2690 C   0  0  0  0  0  0  0  0  0  0  0  0
   57.6280   27.5700   46.0040 C   0  0  0  0  0  0  0  0  0  0  0  0
   58.3900   27.6030   47.1750 C   0  0  0  0  0  0  0  0  0  0  0  0
   60.3779   29.0923   52.7755 H   0  0  0  0  0  0  0  0  0  0  0  0
   60.0649   27.9656   51.4120 H   0  0  0  0  0  0  0  0  0  0  0  0
   61.5425   28.9871   51.4120 H   0  0  0  0  0  0  0  0  0  0  0  0
   57.8505   32.6116   50.9643 H   0  0  0  0  0  0  0  0  0  0  0  0
   59.5655   35.2897   48.2565 H   0  0  0  0  0  0  0  0  0  0  0  0
   59.4920   34.2293   49.7002 H   0  0  0  0  0  0  0  0  0  0  0  0
   60.9005   34.1753   46.1898 H   0  0  0  0  0  0  0  0  0  0  0  0
   63.2208   33.4092   45.6807 H   0  0  0  0  0  0  0  0  0  0  0  0
   64.6894   32.5699   47.5185 H   0  0  0  0  0  0  0  0  0  0  0  0
   63.8425   32.5029   49.8640 H   0  0  0  0  0  0  0  0  0  0  0  0
   61.5241   33.2668   50.3823 H   0  0  0  0  0  0  0  0  0  0  0  0
   61.5502   28.0087   48.2771 H   0  0  0  0  0  0  0  0  0  0  0  0
   60.0875   27.6471   49.2272 H   0  0  0  0  0  0  0  0  0  0  0  0
   61.3942   28.5541   45.8443 H   0  0  0  0  0  0  0  0  0  0  0  0
   60.0441   28.4582   43.7556 H   0  0  0  0  0  0  0  0  0  0  0  0
   57.5187   29.8988   42.6818 H   0  0  0  0  0  0  0  0  0  0  0  0
   56.0173   28.9199   42.4125 H   0  0  0  0  0  0  0  0  0  0  0  0
   58.2960   33.2360   46.3600 H   0  0  0  0  0  0  0  0  0  0  0  0
   59.7739   34.7287   45.7122 H   0  0  0  0  0  0  0  0  0  0  0  0
   59.8918   33.6937   44.2488 H   0  0  0  0  0  0  0  0  0  0  0  0
   58.8124   35.1295   44.2488 H   0  0  0  0  0  0  0  0  0  0  0  0
   56.4660   34.4199   46.2817 H   0  0  0  0  0  0  0  0  0  0  0  0
   56.9939   35.1527   44.7290 H   0  0  0  0  0  0  0  0  0  0  0  0
   56.1036   33.5926   44.7290 H   0  0  0  0  0  0  0  0  0  0  0  0
   56.5744   27.2563   46.0438 H   0  0  0  0  0  0  0  0  0  0  0  0
   57.9285   27.3321   48.1360 H   0  0  0  0  0  0  0  0  0  0  0  0
  1  2  1  0
  2  3  1  0
  3  4  1  0
  4  5  2  0
  5  6  1  0
  6  7  2  0
  6  8  1  0
  8  9  1  0
  9 10  1  0
 10 11  2  0
 11 12  1  0
 12 13  2  0
 13 14  1  0
 14 15  2  0
  5 16  1  0
 16 17  2  3
 17 18  1  0
 18 19  1  0
 19 20  2  0
 20 21  1  0
 21 22  2  0
 22 23  1  0
 23 24  1  0
 24 25  1  0
 25 26  2  0
 25 27  1  0
 27 28  1  0
 28 29  2  0
 28 30  2  0
 28 31  1  0
 31 32  1  0
 31 33  1  0
 22 34  1  0
 34 35  2  0
 16  2  1  0
 35 19  1  0
 15 10  1  0
  1 36  1  0
  1 37  1  0
  1 38  1  0
  4 39  1  0
  9 40  1  0
  9 41  1  0
 11 42  1  0
 12 43  1  0
 13 44  1  0
 14 45  1  0
 15 46  1  0
 18 47  1  0
 18 48  1  0
 20 49  1  0
 21 50  1  0
 24 51  1  0
 24 52  1  0
 31 53  1  0
 32 54  1  0
 32 55  1  0
 32 56  1  0
 33 57  1  0
 33 58  1  0
 33 59  1  0
 34 60  1  0
 35 61  1  0
M  CHG  4   3  -1   8  -1  27  -1  31   1
M  END
>  <UniqueID>  (73) 
68

>  <SMILES>  (73) 
Cn1[n-]cc(C(=O)[N-]Cc2ccccc2)c1=NCc1ccc(OCC(=O)[N-]S(=O)(=O)[NH+](C)C)cc1

>  <Energy>  (73) 
98.39686905254885

>  <Genealogy>  (73) 
Cn1[n-]cc(C(=O)[N-]Cc2ccccc2)c1=NCc1ccc(OCC(=O)[N-]S(=O)(=O)[NH+](C)C)cc1 (protonated)
Cn1[n-]cc(C(=O)[N-]Cc2ccccc2)c1=NCc1ccc(OCC(=O)[N-]S(=O)(=O)[NH+](C)C)cc1 (3D coordinates assigned)
Cn1[n-]cc(C(=O)[N-]Cc2ccccc2)c1=NCc1ccc(OCC(=O)[N-]S(=O)(=O)[NH+](C)C)cc1 (optimized conformer: 98.39686905254885 kcal/mol)

>  <smiles>  (73) 
CN(C)S(=O)(=O)NC(=O)COc1ccc(CN=c2c(C(=O)NCc3ccccc3)c[nH]n2C)cc1

>  <score_type>  (73) 
oracle

>  <origin>  (73) 
adg

>  <m_score__min__energy>  (73) 
-11.359999999999999

>  <m_primary>  (73) 
energy

$$$$
73:0
     RDKit          3D

 51 54  0  0  0  0  0  0  0  0999 V2000
   59.9440   27.4400   46.8240 C   0  0  0  0  0  0  0  0  0  0  0  0
   59.1240   28.3530   46.2780 C   0  0  0  0  0  0  0  0  0  0  0  0
   58.1120   28.1310   45.3270 C   0  0  0  0  0  0  0  0  0  0  0  0
   57.5960   26.9890   44.8320 C   0  0  0  0  0  0  0  0  0  0  0  0
   57.0700   25.8700   45.6290 C   0  0  0  0  0  0  0  0  0  0  0  0
   57.7960   24.8390   46.0920 N   0  0  0  0  0  0  0  0  0  0  0  0
   56.9500   24.1600   46.8920 C   0  0  0  0  0  0  0  0  0  0  0  0
   57.2800   23.1150   47.5090 O   0  0  0  0  0  0  0  0  0  0  0  0
   55.7210   24.7100   46.9870 N   0  0  0  0  0  0  0  0  0  0  0  0
   55.8180   25.7960   46.1970 C   0  0  0  0  0  0  0  0  0  0  0  0
   54.7870   26.7070   46.0050 O   0  0  0  0  0  0  0  0  0  0  0  0
   57.6570   29.3830   44.9430 C   0  0  0  0  0  0  0  0  0  0  0  0
   58.3520   30.3080   45.6940 C   0  0  0  0  0  0  0  0  0  0  0  0
   58.1530   31.7910   45.6210 C   0  0  0  0  0  0  0  0  0  0  0  0
   59.2340   29.6870   46.5090 N   0  0  0  0  0  0  0  0  0  0  0  0
   60.1650   30.3510   47.3810 C   0  0  0  0  0  0  0  0  0  0  0  0
   59.9100   30.4350   48.7550 C   0  0  0  0  0  0  0  0  0  0  0  0
   60.8340   31.0430   49.6040 C   0  0  0  0  0  0  0  0  0  0  0  0
   62.0290   31.5700   49.0960 C   0  0  0  0  0  0  0  0  0  0  0  0
   62.9600   32.1680   50.0080 N   0  0  0  0  0  0  0  0  0  0  0  0
   64.1520   31.4300   50.4240 C   0  0  0  0  0  0  0  0  0  0  0  0
   65.3100   32.4090   50.6410 C   0  0  0  0  0  0  0  0  0  0  0  0
   64.9220   33.4680   51.5000 O   0  0  0  0  0  0  0  0  0  0  0  0
   63.9090   34.2420   50.8840 C   0  0  0  0  0  0  0  0  0  0  0  0
   62.6330   33.4160   50.6960 C   0  0  0  0  0  0  0  0  0  0  0  0
   62.2890   31.5050   47.7070 C   0  0  0  0  0  0  0  0  0  0  0  0
   63.5630   32.0440   47.1080 C   0  0  0  0  0  0  0  0  0  0  0  0
   63.9910   33.1750   47.8160 O   0  0  0  0  0  0  0  0  0  0  0  0
   61.3550   30.8790   46.8640 C   0  0  0  0  0  0  0  0  0  0  0  0
   60.6982   27.7498   47.5624 H   0  0  0  0  0  0  0  0  0  0  0  0
   59.8614   26.3825   46.5328 H   0  0  0  0  0  0  0  0  0  0  0  0
   57.5654   26.8844   43.7374 H   0  0  0  0  0  0  0  0  0  0  0  0
   58.8030   24.6310   45.9090 H   0  0  0  0  0  0  0  0  0  0  0  0
   56.8892   29.5975   44.1850 H   0  0  0  0  0  0  0  0  0  0  0  0
   58.0976   32.2041   46.6390 H   0  0  0  0  0  0  0  0  0  0  0  0
   58.9978   32.2484   45.0852 H   0  0  0  0  0  0  0  0  0  0  0  0
   57.2175   32.0095   45.0852 H   0  0  0  0  0  0  0  0  0  0  0  0
   58.9779   30.0201   49.1661 H   0  0  0  0  0  0  0  0  0  0  0  0
   60.6232   31.1095   50.6816 H   0  0  0  0  0  0  0  0  0  0  0  0
   63.9432   30.8955   51.3625 H   0  0  0  0  0  0  0  0  0  0  0  0
   64.4260   30.7061   49.6424 H   0  0  0  0  0  0  0  0  0  0  0  0
   66.1568   31.8711   51.0921 H   0  0  0  0  0  0  0  0  0  0  0  0
   65.5991   32.8331   49.6681 H   0  0  0  0  0  0  0  0  0  0  0  0
   63.6849   35.1129   51.5175 H   0  0  0  0  0  0  0  0  0  0  0  0
   64.2663   34.5692   49.8964 H   0  0  0  0  0  0  0  0  0  0  0  0
   62.1943   33.1893   51.6789 H   0  0  0  0  0  0  0  0  0  0  0  0
   61.9098   33.9880   50.0961 H   0  0  0  0  0  0  0  0  0  0  0  0
   64.3426   31.2694   47.1552 H   0  0  0  0  0  0  0  0  0  0  0  0
   63.3759   32.3258   46.0613 H   0  0  0  0  0  0  0  0  0  0  0  0
   64.9820   33.1260   47.8610 H   0  0  0  0  0  0  0  0  0  0  0  0
   61.5607   30.8028   45.7861 H   0  0  0  0  0  0  0  0  0  0  0  0
  1  2  2  0
  2  3  1  0
  3  4  2  3
  4  5  1  0
  5  6  1  0
  6  7  1  0
  7  8  2  0
  7  9  1  0
  9 10  1  0
 10 11  1  0
  3 12  1  0
 12 13  2  0
 13 14  1  0
 13 15  1  0
 15 16  1  0
 16 17  2  0
 17 18  1  0
 18 19  2  0
 19 20  1  0
 20 21  1  0
 21 22  1  0
 22 23  1  0
 23 24  1  0
 24 25  1  0
 19 26  1  0
 26 27  1  0
 27 28  1  0
 26 29  2  0
 15  2  1  0
 29 16  1  0
 10  5  2  0
 25 20  1  0
  1 30  1  0
  1 31  1  0
  4 32  1  0
  6 33  1  0
 12 34  1  0
 14 35  1  0
 14 36  1  0
 14 37  1  0
 17 38  1  0
 18 39  1  0
 21 40  1  0
 21 41  1  0
 22 42  1  0
 22 43  1  0
 24 44  1  0
 24 45  1  0
 25 46  1  0
 25 47  1  0
 27 48  1  0
 27 49  1  0
 28 50  1  0
 29 51  1  0
M  CHG  2   9  -1  11  -1
M  END
>  <UniqueID>  (74) 
69

>  <SMILES>  (74) 
C=c1c(=Cc2[nH]c(=O)[n-]c2[O-])cc(C)n1-c1ccc(N2CCOCC2)c(CO)c1

>  <Energy>  (74) 
137.20675139226634

>  <Genealogy>  (74) 
C=c1c(=Cc2[nH]c(=O)[n-]c2[O-])cc(C)n1-c1ccc(N2CCOCC2)c(CO)c1 (protonated)
C=c1c(=Cc2[nH]c(=O)[n-]c2[O-])cc(C)n1-c1ccc(N2CCOCC2)c(CO)c1 (3D coordinates assigned)
C=c1c(=Cc2[nH]c(=O)[n-]c2[O-])cc(C)n1-c1ccc(N2CCOCC2)c(CO)c1 (nonaromatic ring conformer: 137.20675139226634 kcal/mol)

>  <smiles>  (74) 
C=c1c(=Cc2[nH]c(=O)[nH]c2O)cc(C)n1-c1ccc(N2CCOCC2)c(CO)c1

>  <score_type>  (74) 
oracle

>  <origin>  (74) 
adg

>  <m_score__min__energy>  (74) 
-13.75

>  <m_primary>  (74) 
energy

$$$$
74:0
     RDKit          3D

 56 60  0  0  0  0  0  0  0  0999 V2000
   57.2710   30.3170   45.5340 O   0  0  0  0  0  0  0  0  0  0  0  0
   58.0280   29.5520   46.1920 C   0  0  0  0  0  0  0  0  0  0  0  0
   58.4790   28.2590   45.5870 C   0  0  0  0  0  0  0  0  0  0  0  0
   57.4470   27.1930   45.8020 C   0  0  0  0  0  0  0  0  0  0  0  0
   57.7030   25.9260   46.2970 C   0  0  0  0  0  0  0  0  0  0  0  0
   56.4810   25.2990   46.3940 C   0  0  0  0  0  0  0  0  0  0  0  0
   55.5510   26.2220   45.9630 C   0  0  0  0  0  0  0  0  0  0  0  0
   54.1790   25.9940   45.9080 O   0  0  0  0  0  0  0  0  0  0  0  0
   56.1260   27.3880   45.6040 N   0  0  0  0  0  0  0  0  0  0  0  0
   58.4170   29.8790   47.5320 N   0  0  0  0  0  0  0  0  0  0  0  0
   59.6970   30.3770   47.9500 C   0  0  0  0  0  0  0  0  0  0  0  0
   60.7500   30.5870   47.0390 C   0  0  0  0  0  0  0  0  0  0  0  0
   61.9850   31.0580   47.4890 C   0  0  0  0  0  0  0  0  0  0  0  0
   62.1870   31.3130   48.8470 C   0  0  0  0  0  0  0  0  0  0  0  0
   61.1530   31.0900   49.7700 C   0  0  0  0  0  0  0  0  0  0  0  0
   61.3820   31.3040   51.2440 C   0  0  0  0  0  0  0  0  0  0  0  0
   60.1920   31.8930   51.8600 N   0  0  0  0  0  0  0  0  0  0  0  0
   59.9020   33.2930   51.9370 C   0  0  0  0  0  0  0  0  0  0  0  0
   60.7530   34.2050   51.7710 O   0  0  0  0  0  0  0  0  0  0  0  0
   58.4890   33.4950   52.2210 C   0  0  0  0  0  0  0  0  0  0  0  0
   57.8910   34.5950   52.3620 O   0  0  0  0  0  0  0  0  0  0  0  0
   57.9120   32.1650   52.2970 C   0  0  0  0  0  0  0  0  0  0  0  0
   56.5990   31.7660   52.5360 C   0  0  0  0  0  0  0  0  0  0  0  0
   56.3120   30.3840   52.5680 C   0  0  0  0  0  0  0  0  0  0  0  0
   54.9280   29.9260   52.8290 C   0  0  0  0  0  0  0  0  0  0  0  0
   54.4570   30.0200   53.9940 O   0  0  0  0  0  0  0  0  0  0  0  0
   54.0800   29.4220   51.7870 N   0  0  0  0  0  0  0  0  0  0  0  0
   53.0570   30.1540   51.0910 C   0  0  0  0  0  0  0  0  0  0  0  0
   52.5330   29.7120   49.8620 C   0  0  0  0  0  0  0  0  0  0  0  0
   51.5310   30.4470   49.2190 C   0  0  0  0  0  0  0  0  0  0  0  0
   51.0310   31.6120   49.8060 C   0  0  0  0  0  0  0  0  0  0  0  0
   51.5270   32.0410   51.0420 C   0  0  0  0  0  0  0  0  0  0  0  0
   51.0200   33.1940   51.6320 O   0  0  0  0  0  0  0  0  0  0  0  0
   52.5330   31.3110   51.6840 C   0  0  0  0  0  0  0  0  0  0  0  0
   57.3530   29.4490   52.3340 C   0  0  0  0  0  0  0  0  0  0  0  0
   58.6700   29.8790   52.0940 C   0  0  0  0  0  0  0  0  0  0  0  0
   58.9280   31.2510   52.0760 C   0  0  0  0  0  0  0  0  0  0  0  0
   59.9150   30.6060   49.3140 C   0  0  0  0  0  0  0  0  0  0  0  0
   58.6356   28.3993   44.5073 H   0  0  0  0  0  0  0  0  0  0  0  0
   59.4182   27.9485   46.0682 H   0  0  0  0  0  0  0  0  0  0  0  0
   58.6846   25.5050   46.5599 H   0  0  0  0  0  0  0  0  0  0  0  0
   56.2866   24.2741   46.7430 H   0  0  0  0  0  0  0  0  0  0  0  0
   53.5520   26.7000   45.5390 H   0  0  0  0  0  0  0  0  0  0  0  0
   60.5991   30.3793   45.9694 H   0  0  0  0  0  0  0  0  0  0  0  0
   62.8013   31.2287   46.7716 H   0  0  0  0  0  0  0  0  0  0  0  0
   63.1601   31.6901   49.1948 H   0  0  0  0  0  0  0  0  0  0  0  0
   61.5981   30.3373   51.7223 H   0  0  0  0  0  0  0  0  0  0  0  0
   62.2325   31.9884   51.3795 H   0  0  0  0  0  0  0  0  0  0  0  0
   55.8047   32.5099   52.6960 H   0  0  0  0  0  0  0  0  0  0  0  0
   52.9123   28.7859   49.4055 H   0  0  0  0  0  0  0  0  0  0  0  0
   51.1364   30.1071   48.2501 H   0  0  0  0  0  0  0  0  0  0  0  0
   50.2474   32.1920   49.2965 H   0  0  0  0  0  0  0  0  0  0  0  0
   52.9149   31.6468   52.6594 H   0  0  0  0  0  0  0  0  0  0  0  0
   57.1267   28.3726   52.3404 H   0  0  0  0  0  0  0  0  0  0  0  0
   59.4778   29.1518   51.9245 H   0  0  0  0  0  0  0  0  0  0  0  0
   59.1094   30.4051   50.0356 H   0  0  0  0  0  0  0  0  0  0  0  0
  1  2  2  0
  2  3  1  0
  3  4  1  0
  4  5  2  0
  5  6  1  0
  6  7  2  0
  7  8  1  0
  7  9  1  0
  2 10  1  0
 10 11  1  0
 11 12  2  0
 12 13  1  0
 13 14  2  0
 14 15  1  0
 15 16  1  0
 16 17  1  0
 17 18  1  0
 18 19  2  0
 18 20  1  0
 20 21  2  0
 20 22  1  0
 22 23  2  0
 23 24  1  0
 24 25  1  0
 25 26  2  0
 25 27  1  0
 27 28  1  0
 28 29  2  0
 29 30  1  0
 30 31  2  0
 31 32  1  0
 32 33  1  0
 32 34  2  0
 24 35  2  0
 35 36  1  0
 36 37  2  0
 15 38  2  0
  9  4  1  0
 38 11  1  0
 37 17  1  0
 37 22  1  0
 34 28  1  0
  3 39  1  0
  3 40  1  0
  5 41  1  0
  6 42  1  0
  8 43  1  0
 12 44  1  0
 13 45  1  0
 14 46  1  0
 16 47  1  0
 16 48  1  0
 23 49  1  0
 29 50  1  0
 30 51  1  0
 31 52  1  0
 34 53  1  0
 35 54  1  0
 36 55  1  0
 38 56  1  0
M  CHG  4   9  -1  10  -1  27  -1  33  -1
M  END
>  <UniqueID>  (75) 
70

>  <SMILES>  (75) 
O=C(Cc1ccc(O)[n-]1)[N-]c1cccc(CN2C(=O)C(=O)c3cc(C(=O)[N-]c4cccc([O-])c4)ccc32)c1

>  <Energy>  (75) 
124.98574535260492

>  <Genealogy>  (75) 
O=C(Cc1ccc(O)[n-]1)[N-]c1cccc(CN2C(=O)C(=O)c3cc(C(=O)[N-]c4cccc([O-])c4)ccc32)c1 (protonated)
O=C(Cc1ccc(O)[n-]1)[N-]c1cccc(CN2C(=O)C(=O)c3cc(C(=O)[N-]c4cccc([O-])c4)ccc32)c1 (3D coordinates assigned)
O=C(Cc1ccc(O)[n-]1)[N-]c1cccc(CN2C(=O)C(=O)c3cc(C(=O)[N-]c4cccc([O-])c4)ccc32)c1 (nonaromatic ring conformer: 124.98574535260492 kcal/mol)

>  <smiles>  (75) 
O=C(Cc1ccc(O)[nH]1)Nc1cccc(CN2C(=O)C(=O)c3cc(C(=O)Nc4cccc(O)c4)ccc32)c1

>  <score_type>  (75) 
oracle

>  <origin>  (75) 
adg

>  <m_score__min__energy>  (75) 
-20.210000000000001

>  <m_primary>  (75) 
energy

$$$$
75:0
     RDKit          3D

 80 85  0  0  0  0  0  0  0  0999 V2000
   61.4720   30.0020   49.2710 C   0  0  0  0  0  0  0  0  0  0  0  0
   60.3190   29.6010   48.4510 N   0  0  0  0  0  0  0  0  0  0  0  0
   60.7580   29.0550   47.1360 C   0  0  0  0  0  0  0  0  0  0  0  0
   60.7510   27.5170   47.1100 C   0  0  0  0  0  0  0  0  0  0  0  0
   59.4130   26.9550   47.4160 N   0  0  0  0  0  0  0  0  0  0  0  0
   58.6840   26.5550   46.1950 C   0  0  0  0  0  0  0  0  0  0  0  0
   58.2450   27.7730   45.4470 C   0  0  0  0  0  0  0  0  0  0  0  0
   57.6970   27.7670   44.1680 C   0  0  0  0  0  0  0  0  0  0  0  0
   57.4970   29.0930   43.8800 C   0  0  0  0  0  0  0  0  0  0  0  0
   57.0010   29.7080   42.7380 C   0  0  0  0  0  0  0  0  0  0  0  0
   56.9540   31.1100   42.7140 C   0  0  0  0  0  0  0  0  0  0  0  0
   57.3960   31.8670   43.8320 C   0  0  0  0  0  0  0  0  0  0  0  0
   57.4140   33.2980   43.7680 N   0  0  0  0  0  0  0  0  0  0  0  0
   57.3610   34.1060   44.9510 C   0  0  0  0  0  0  0  0  0  0  0  0
   56.4400   34.9600   45.0660 O   0  0  0  0  0  0  0  0  0  0  0  0
   58.4930   34.1050   45.9140 C   0  0  0  0  0  0  0  0  0  0  0  0
   59.7350   34.6500   45.5480 C   0  0  0  0  0  0  0  0  0  0  0  0
   60.8520   34.5020   46.3810 C   0  0  0  0  0  0  0  0  0  0  0  0
   60.7390   33.8270   47.6100 C   0  0  0  0  0  0  0  0  0  0  0  0
   61.9350   33.5600   48.4400 C   0  0  0  0  0  0  0  0  0  0  0  0
   63.0630   32.9370   47.8870 C   0  0  0  0  0  0  0  0  0  0  0  0
   64.1490   32.5950   48.7050 C   0  0  0  0  0  0  0  0  0  0  0  0
   64.1180   32.8650   50.0860 C   0  0  0  0  0  0  0  0  0  0  0  0
   65.2060   32.3550   50.9530 C   0  0  0  0  0  0  0  0  0  0  0  0
   65.8290   33.1570   51.7050 O   0  0  0  0  0  0  0  0  0  0  0  0
   65.6300   30.9810   50.8930 N   0  0  0  0  0  0  0  0  0  0  0  0
   67.0100   30.6200   51.2150 C   0  0  0  0  0  0  0  0  0  0  0  0
   67.1100   29.2130   51.8470 C   0  0  0  0  0  0  0  0  0  0  0  0
   66.8030   28.1460   50.8780 N   0  0  0  0  0  0  0  0  0  0  0  0
   67.9420   27.8490   49.9950 C   0  0  0  0  0  0  0  0  0  0  0  0
   68.7900   26.7720   50.6650 C   0  0  0  0  0  0  0  0  0  0  0  0
   67.9170   26.2020   51.7630 C   0  0  0  0  0  0  0  0  0  0  0  0
   66.5630   26.8690   51.5810 C   0  0  0  0  0  0  0  0  0  0  0  0
   63.0190   33.5620   50.6190 C   0  0  0  0  0  0  0  0  0  0  0  0
   61.9390   33.9010   49.8100 C   0  0  0  0  0  0  0  0  0  0  0  0
   59.4840   33.3360   48.0040 C   0  0  0  0  0  0  0  0  0  0  0  0
   58.3700   33.4850   47.1700 C   0  0  0  0  0  0  0  0  0  0  0  0
   57.8530   31.2100   44.9900 C   0  0  0  0  0  0  0  0  0  0  0  0
   57.9170   29.8180   44.9690 C   0  0  0  0  0  0  0  0  0  0  0  0
   58.3650   29.0110   45.9020 O   0  0  0  0  0  0  0  0  0  0  0  0
   58.5830   27.8390   48.2620 C   0  0  0  0  0  0  0  0  0  0  0  0
   59.4520   28.6710   49.2070 C   0  0  0  0  0  0  0  0  0  0  0  0
   61.2133   29.9120   50.3363 H   0  0  0  0  0  0  0  0  0  0  0  0
   62.3276   29.3487   49.0450 H   0  0  0  0  0  0  0  0  0  0  0  0
   61.7376   31.0453   49.0450 H   0  0  0  0  0  0  0  0  0  0  0  0
   60.0778   29.4250   46.3547 H   0  0  0  0  0  0  0  0  0  0  0  0
   61.7912   29.3895   46.9611 H   0  0  0  0  0  0  0  0  0  0  0  0
   61.0562   27.1787   46.1088 H   0  0  0  0  0  0  0  0  0  0  0  0
   61.4491   27.1642   47.8834 H   0  0  0  0  0  0  0  0  0  0  0  0
   59.3454   25.9520   45.5555 H   0  0  0  0  0  0  0  0  0  0  0  0
   57.8007   25.9627   46.4762 H   0  0  0  0  0  0  0  0  0  0  0  0
   57.4748   26.8970   43.5326 H   0  0  0  0  0  0  0  0  0  0  0  0
   56.6556   29.1143   41.8788 H   0  0  0  0  0  0  0  0  0  0  0  0
   56.5716   31.6276   41.8219 H   0  0  0  0  0  0  0  0  0  0  0  0
   59.8315   35.1978   44.5990 H   0  0  0  0  0  0  0  0  0  0  0  0
   61.8231   34.9161   46.0720 H   0  0  0  0  0  0  0  0  0  0  0  0
   63.0958   32.7163   46.8099 H   0  0  0  0  0  0  0  0  0  0  0  0
   65.0330   32.1115   48.2637 H   0  0  0  0  0  0  0  0  0  0  0  0
   64.9940   30.2640   50.4820 H   0  0  0  0  0  0  0  0  0  0  0  0
   67.6061   30.6369   50.2907 H   0  0  0  0  0  0  0  0  0  0  0  0
   67.3888   31.3482   51.9472 H   0  0  0  0  0  0  0  0  0  0  0  0
   68.1327   29.0657   52.2243 H   0  0  0  0  0  0  0  0  0  0  0  0
   66.3717   29.1541   52.6603 H   0  0  0  0  0  0  0  0  0  0  0  0
   67.5762   27.4853   49.0234 H   0  0  0  0  0  0  0  0  0  0  0  0
   68.5407   28.7561   49.8255 H   0  0  0  0  0  0  0  0  0  0  0  0
   69.0599   25.9886   49.9415 H   0  0  0  0  0  0  0  0  0  0  0  0
   69.7326   27.1788   51.0600 H   0  0  0  0  0  0  0  0  0  0  0  0
   67.8270   25.1108   51.6572 H   0  0  0  0  0  0  0  0  0  0  0  0
   68.3373   26.3897   52.7621 H   0  0  0  0  0  0  0  0  0  0  0  0
   65.9023   26.2257   50.9813 H   0  0  0  0  0  0  0  0  0  0  0  0
   66.0756   27.0405   52.5521 H   0  0  0  0  0  0  0  0  0  0  0  0
   63.0132   33.8411   51.6830 H   0  0  0  0  0  0  0  0  0  0  0  0
   61.0817   34.4388   50.2411 H   0  0  0  0  0  0  0  0  0  0  0  0
   59.3756   32.8307   48.9750 H   0  0  0  0  0  0  0  0  0  0  0  0
   57.3887   33.1135   47.5003 H   0  0  0  0  0  0  0  0  0  0  0  0
   58.1504   31.7778   45.8839 H   0  0  0  0  0  0  0  0  0  0  0  0
   58.0051   28.5160   47.6157 H   0  0  0  0  0  0  0  0  0  0  0  0
   57.9097   27.2132   48.8662 H   0  0  0  0  0  0  0  0  0  0  0  0
   58.8006   29.2512   49.8771 H   0  0  0  0  0  0  0  0  0  0  0  0
   60.0917   27.9887   49.7860 H   0  0  0  0  0  0  0  0  0  0  0  0
  1  2  1  0
  2  3  1  0
  3  4  1  0
  4  5  1  0
  5  6  1  0
  6  7  1  0
  7  8  2  0
  8  9  1  0
  9 10  2  0
 10 11  1  0
 11 12  2  0
 12 13  1  0
 13 14  1  0
 14 15  2  0
 14 16  1  0
 16 17  2  0
 17 18  1  0
 18 19  2  0
 19 20  1  0
 20 21  2  0
 21 22  1  0
 22 23  2  0
 23 24  1  0
 24 25  2  0
 24 26  1  0
 26 27  1  0
 27 28  1  0
 28 29  1  0
 29 30  1  0
 30 31  1  0
 31 32  1  0
 32 33  1  0
 23 34  1  0
 34 35  2  0
 19 36  1  0
 36 37  2  0
 12 38  1  0
 38 39  2  0
 39 40  1  0
  5 41  1  0
 41 42  1  0
 42  2  1  0
 40  7  1  0
 39  9  1  0
 37 16  1  0
 35 20  1  0
 33 29  1  0
  1 43  1  0
  1 44  1  0
  1 45  1  0
  3 46  1  0
  3 47  1  0
  4 48  1  0
  4 49  1  0
  6 50  1  0
  6 51  1  0
  8 52  1  0
 10 53  1  0
 11 54  1  0
 17 55  1  0
 18 56  1  0
 21 57  1  0
 22 58  1  0
 26 59  1  0
 27 60  1  0
 27 61  1  0
 28 62  1  0
 28 63  1  0
 30 64  1  0
 30 65  1  0
 31 66  1  0
 31 67  1  0
 32 68  1  0
 32 69  1  0
 33 70  1  0
 33 71  1  0
 34 72  1  0
 35 73  1  0
 36 74  1  0
 37 75  1  0
 38 76  1  0
 41 77  1  0
 41 78  1  0
 42 79  1  0
 42 80  1  0
M  CHG  1  13  -1
M  END
>  <UniqueID>  (76) 
71

>  <SMILES>  (76) 
CN1CCN(Cc2cc3ccc([N-]C(=O)c4ccc(-c5ccc(C(=O)NCCN6CCCC6)cc5)cc4)cc3o2)CC1

>  <Energy>  (76) 
155.20514402038143

>  <Genealogy>  (76) 
CN1CCN(Cc2cc3ccc([N-]C(=O)c4ccc(-c5ccc(C(=O)NCCN6CCCC6)cc5)cc4)cc3o2)CC1 (protonated)
CN1CCN(Cc2cc3ccc([N-]C(=O)c4ccc(-c5ccc(C(=O)NCCN6CCCC6)cc5)cc4)cc3o2)CC1 (3D coordinates assigned)
CN1CCN(Cc2cc3ccc([N-]C(=O)c4ccc(-c5ccc(C(=O)NCCN6CCCC6)cc5)cc4)cc3o2)CC1 (nonaromatic ring conformer: 155.20514402038143 kcal/mol)

>  <smiles>  (76) 
CN1CCN(Cc2cc3ccc(NC(=O)c4ccc(-c5ccc(C(=O)NCCN6CCCC6)cc5)cc4)cc3o2)CC1

>  <score_type>  (76) 
oracle

>  <origin>  (76) 
adg

>  <m_score__min__energy>  (76) 
-12.359999999999999

>  <m_primary>  (76) 
energy

$$$$
76:0
     RDKit          3D

 37 39  0  0  0  0  0  0  0  0999 V2000
   55.1760   31.3640   52.3430 C   0  0  0  0  0  0  0  0  0  0  0  0
   54.7280   30.1280   52.6130 C   0  0  0  0  0  0  0  0  0  0  0  0
   53.4160   29.6440   52.4670 C   0  0  0  0  0  0  0  0  0  0  0  0
   52.3350   30.1870   51.8770 C   0  0  0  0  0  0  0  0  0  0  0  0
   51.5960   31.3630   52.3600 C   0  0  0  0  0  0  0  0  0  0  0  0
   51.2570   31.5510   53.6470 N   0  0  0  0  0  0  0  0  0  0  0  0
   50.4950   32.6660   53.6110 C   0  0  0  0  0  0  0  0  0  0  0  0
   49.9940   33.1780   54.6440 O   0  0  0  0  0  0  0  0  0  0  0  0
   50.3040   33.1820   52.3770 N   0  0  0  0  0  0  0  0  0  0  0  0
   50.9950   32.3380   51.5960 C   0  0  0  0  0  0  0  0  0  0  0  0
   51.0500   32.4390   50.2100 O   0  0  0  0  0  0  0  0  0  0  0  0
   53.3920   28.4000   53.0780 C   0  0  0  0  0  0  0  0  0  0  0  0
   54.6770   28.1410   53.5070 C   0  0  0  0  0  0  0  0  0  0  0  0
   55.0990   26.9190   54.2640 C   0  0  0  0  0  0  0  0  0  0  0  0
   55.4910   29.1760   53.2070 N   0  0  0  0  0  0  0  0  0  0  0  0
   56.8470   29.3140   53.6620 C   0  0  0  0  0  0  0  0  0  0  0  0
   57.1050   29.1870   55.0320 C   0  0  0  0  0  0  0  0  0  0  0  0
   58.4110   29.2250   55.5110 C   0  0  0  0  0  0  0  0  0  0  0  0
   59.4600   29.3800   54.6100 C   0  0  0  0  0  0  0  0  0  0  0  0
   59.2070   29.5050   53.2800 N   0  0  0  0  0  0  0  0  0  0  0  0
   57.9400   29.4940   52.7720 C   0  0  0  0  0  0  0  0  0  0  0  0
   57.8050   29.6640   51.3820 O   0  0  0  0  0  0  0  0  0  0  0  0
   58.1610   30.8190   50.6320 C   0  0  0  0  0  0  0  0  0  0  0  0
   56.2355   31.6123   52.5035 H   0  0  0  0  0  0  0  0  0  0  0  0
   54.4836   32.1288   51.9612 H   0  0  0  0  0  0  0  0  0  0  0  0
   51.9732   29.7101   50.9541 H   0  0  0  0  0  0  0  0  0  0  0  0
   52.5163   27.7451   53.1977 H   0  0  0  0  0  0  0  0  0  0  0  0
   55.0312   27.1153   55.3442 H   0  0  0  0  0  0  0  0  0  0  0  0
   54.4389   26.0791   54.0018 H   0  0  0  0  0  0  0  0  0  0  0  0
   56.1368   26.6654   54.0018 H   0  0  0  0  0  0  0  0  0  0  0  0
   56.2692   29.0562   55.7351 H   0  0  0  0  0  0  0  0  0  0  0  0
   58.6116   29.1336   56.5887 H   0  0  0  0  0  0  0  0  0  0  0  0
   60.4974   29.4015   54.9750 H   0  0  0  0  0  0  0  0  0  0  0  0
   60.0140   29.6270   52.6270 H   0  0  0  0  0  0  0  0  0  0  0  0
   58.4138   31.6393   51.3199 H   0  0  0  0  0  0  0  0  0  0  0  0
   59.0305   30.5909   49.9981 H   0  0  0  0  0  0  0  0  0  0  0  0
   57.3139   31.1200   49.9981 H   0  0  0  0  0  0  0  0  0  0  0  0
  1  2  2  0
  2  3  1  0
  3  4  2  3
  4  5  1  0
  5  6  1  0
  6  7  1  0
  7  8  2  0
  7  9  1  0
  9 10  1  0
 10 11  1  0
  3 12  1  0
 12 13  2  0
 13 14  1  0
 13 15  1  0
 15 16  1  0
 16 17  2  0
 17 18  1  0
 18 19  2  0
 19 20  1  0
 20 21  2  0
 21 22  1  0
 22 23  1  0
 15  2  1  0
 21 16  1  0
 10  5  2  0
  1 24  1  0
  1 25  1  0
  4 26  1  0
 12 27  1  0
 14 28  1  0
 14 29  1  0
 14 30  1  0
 17 31  1  0
 18 32  1  0
 19 33  1  0
 20 34  1  0
 23 35  1  0
 23 36  1  0
 23 37  1  0
M  CHG  4   6  -1   9  -1  11  -1  20   1
M  END
>  <UniqueID>  (77) 
72

>  <SMILES>  (77) 
C=c1c(=Cc2[n-]c(=O)[n-]c2[O-])cc(C)n1-c1ccc[nH+]c1OC

>  <Energy>  (77) 
118.3482470859376

>  <Genealogy>  (77) 
C=c1c(=Cc2[n-]c(=O)[n-]c2[O-])cc(C)n1-c1ccc[nH+]c1OC (protonated)
C=c1c(=Cc2[n-]c(=O)[n-]c2[O-])cc(C)n1-c1ccc[nH+]c1OC (3D coordinates assigned)
C=c1c(=Cc2[n-]c(=O)[n-]c2[O-])cc(C)n1-c1ccc[nH+]c1OC (optimized conformer: 118.3482470859376 kcal/mol)

>  <smiles>  (77) 
C=c1c(=Cc2[nH]c(=O)[nH]c2O)cc(C)n1-c1cccnc1OC

>  <score_type>  (77) 
oracle

>  <origin>  (77) 
adg

>  <m_score__min__energy>  (77) 
-14.18

>  <m_primary>  (77) 
energy

$$$$
77:0
     RDKit          3D

 40 42  0  0  0  0  0  0  0  0999 V2000
   60.2090   26.9230   47.1080 C   0  0  0  0  0  0  0  0  0  0  0  0
   59.2120   27.5950   46.5160 C   0  0  0  0  0  0  0  0  0  0  0  0
   59.4210   28.9380   45.9470 C   0  0  0  0  0  0  0  0  0  0  0  0
   60.5470   29.5020   46.0040 O   0  0  0  0  0  0  0  0  0  0  0  0
   58.3210   29.6120   45.3270 N   0  0  0  0  0  0  0  0  0  0  0  0
   57.0170   29.0090   45.2160 C   0  0  0  0  0  0  0  0  0  0  0  0
   55.9330   29.7720   44.5480 C   0  0  0  0  0  0  0  0  0  0  0  0
   54.8820   29.1760   44.1950 O   0  0  0  0  0  0  0  0  0  0  0  0
   56.0090   31.1940   44.3590 N   0  0  0  0  0  0  0  0  0  0  0  0
   57.0140   31.9580   44.6760 C   0  0  0  0  0  0  0  0  0  0  0  0
   57.9540   32.3670   43.7950 N   0  0  0  0  0  0  0  0  0  0  0  0
   58.7630   33.1480   44.5310 C   0  0  0  0  0  0  0  0  0  0  0  0
   58.2900   33.1860   45.8230 C   0  0  0  0  0  0  0  0  0  0  0  0
   58.8570   34.0010   46.9420 C   0  0  0  0  0  0  0  0  0  0  0  0
   60.1860   33.4390   47.3660 C   0  0  0  0  0  0  0  0  0  0  0  0
   60.2450   32.3430   48.2400 C   0  0  0  0  0  0  0  0  0  0  0  0
   61.4800   31.7960   48.6050 C   0  0  0  0  0  0  0  0  0  0  0  0
   62.6750   32.3360   48.0920 C   0  0  0  0  0  0  0  0  0  0  0  0
   63.9370   31.8240   48.4280 O   0  0  0  0  0  0  0  0  0  0  0  0
   64.7920   32.3820   49.4210 C   0  0  0  0  0  0  0  0  0  0  0  0
   62.6110   33.4210   47.2100 C   0  0  0  0  0  0  0  0  0  0  0  0
   61.3780   33.9670   46.8450 C   0  0  0  0  0  0  0  0  0  0  0  0
   57.1710   32.4470   45.9220 N   0  0  0  0  0  0  0  0  0  0  0  0
   56.7840   27.7830   45.7310 C   0  0  0  0  0  0  0  0  0  0  0  0
   55.5250   27.1980   45.6180 O   0  0  0  0  0  0  0  0  0  0  0  0
   57.8550   27.0210   46.4040 C   0  0  0  0  0  0  0  0  0  0  0  0
   57.5970   25.8810   46.8780 O   0  0  0  0  0  0  0  0  0  0  0  0
   60.0259   25.9216   47.5247 H   0  0  0  0  0  0  0  0  0  0  0  0
   61.2104   27.3729   47.1772 H   0  0  0  0  0  0  0  0  0  0  0  0
   58.4730   30.5810   44.9660 H   0  0  0  0  0  0  0  0  0  0  0  0
   59.6571   33.6714   44.1613 H   0  0  0  0  0  0  0  0  0  0  0  0
   58.9916   35.0393   46.6045 H   0  0  0  0  0  0  0  0  0  0  0  0
   58.1642   33.9729   47.7960 H   0  0  0  0  0  0  0  0  0  0  0  0
   59.3157   31.9116   48.6403 H   0  0  0  0  0  0  0  0  0  0  0  0
   61.5176   30.9406   49.2956 H   0  0  0  0  0  0  0  0  0  0  0  0
   64.4066   32.1305   50.4201 H   0  0  0  0  0  0  0  0  0  0  0  0
   65.8058   31.9711   49.3049 H   0  0  0  0  0  0  0  0  0  0  0  0
   64.8240   33.4754   49.3049 H   0  0  0  0  0  0  0  0  0  0  0  0
   63.5390   33.8471   46.8010 H   0  0  0  0  0  0  0  0  0  0  0  0
   61.3409   34.8152   46.1456 H   0  0  0  0  0  0  0  0  0  0  0  0
  1  2  2  0
  2  3  1  0
  3  4  2  0
  3  5  1  0
  5  6  1  0
  6  7  1  0
  7  8  2  0
  7  9  1  0
  9 10  2  3
 10 11  1  0
 11 12  1  0
 12 13  2  0
 13 14  1  0
 14 15  1  0
 15 16  2  0
 16 17  1  0
 17 18  2  0
 18 19  1  0
 19 20  1  0
 18 21  1  0
 21 22  2  0
 13 23  1  0
  6 24  2  0
 24 25  1  0
 24 26  1  0
 26 27  2  0
 26  2  1  0
 23 10  1  0
 22 15  1  0
  1 28  1  0
  1 29  1  0
  5 30  1  0
 12 31  1  0
 14 32  1  0
 14 33  1  0
 16 34  1  0
 17 35  1  0
 20 36  1  0
 20 37  1  0
 20 38  1  0
 21 39  1  0
 22 40  1  0
M  CHG  3  11  -1  23  -1  25  -1
M  END
>  <UniqueID>  (78) 
73

>  <SMILES>  (78) 
C=C1C(=O)NC(C(=O)N=c2[n-]cc(Cc3ccc(OC)cc3)[n-]2)=C([O-])C1=O

>  <Energy>  (78) 
74.40363666045755

>  <Genealogy>  (78) 
C=C1C(=O)NC(C(=O)N=c2[n-]cc(Cc3ccc(OC)cc3)[n-]2)=C([O-])C1=O (protonated)
C=C1C(=O)NC(C(=O)N=c2[n-]cc(Cc3ccc(OC)cc3)[n-]2)=C([O-])C1=O (3D coordinates assigned)
C=C1C(=O)NC(C(=O)N=c2[n-]cc(Cc3ccc(OC)cc3)[n-]2)=C([O-])C1=O (nonaromatic ring conformer: 74.40363666045755 kcal/mol)

>  <smiles>  (78) 
C=C1C(=O)NC(C(=O)N=c2[nH]cc(Cc3ccc(OC)cc3)[nH]2)=C(O)C1=O

>  <score_type>  (78) 
oracle

>  <origin>  (78) 
adg

>  <m_score__min__energy>  (78) 
-14.949999999999999

>  <m_primary>  (78) 
energy

$$$$
78:0
     RDKit          3D

 46 48  0  0  0  0  0  0  0  0999 V2000
   55.0770   29.3470   44.4660 O   0  0  0  0  0  0  0  0  0  0  0  0
   56.3300   29.4570   44.4360 C   0  0  0  0  0  0  0  0  0  0  0  0
   57.0470   29.2750   43.1270 C   0  0  0  0  0  0  0  0  0  0  0  0
   57.7630   27.5980   42.9950 S   0  0  0  0  0  0  0  0  0  0  0  0
   58.6260   27.6560   44.5660 C   0  0  0  0  0  0  0  0  0  0  0  0
   59.7940   28.4110   44.7010 C   0  0  0  0  0  0  0  0  0  0  0  0
   60.4550   28.4340   45.9300 C   0  0  0  0  0  0  0  0  0  0  0  0
   59.9520   27.6990   47.0170 C   0  0  0  0  0  0  0  0  0  0  0  0
   60.6200   27.7110   48.2920 N   0  0  0  0  0  0  0  0  0  0  0  0
   60.9860   26.6450   48.8290 O   0  0  0  0  0  0  0  0  0  0  0  0
   60.8680   28.9000   48.9400 O   0  0  0  0  0  0  0  0  0  0  0  0
   58.7810   26.9470   46.8290 C   0  0  0  0  0  0  0  0  0  0  0  0
   58.1550   26.9420   45.6220 N   0  0  0  0  0  0  0  0  0  0  0  0
   57.0330   29.6450   45.6720 N   0  0  0  0  0  0  0  0  0  0  0  0
   57.7750   30.8040   46.0720 C   0  0  0  0  0  0  0  0  0  0  0  0
   57.7100   32.0050   45.3480 C   0  0  0  0  0  0  0  0  0  0  0  0
   58.4200   33.1290   45.7820 C   0  0  0  0  0  0  0  0  0  0  0  0
   59.1830   33.0730   46.9560 C   0  0  0  0  0  0  0  0  0  0  0  0
   60.0640   34.4980   47.5140 S   0  0  0  0  0  0  0  0  0  0  0  0
   59.9260   35.5950   46.4950 O   0  0  0  0  0  0  0  0  0  0  0  0
   59.4590   34.9810   48.8020 O   0  0  0  0  0  0  0  0  0  0  0  0
   61.7600   34.1510   47.7680 N   0  0  0  0  0  0  0  0  0  0  0  0
   61.9610   33.1570   48.8450 C   0  0  0  0  0  0  0  0  0  0  0  0
   62.3360   31.7730   48.2900 C   0  0  0  0  0  0  0  0  0  0  0  0
   63.5180   31.7860   47.5010 O   0  0  0  0  0  0  0  0  0  0  0  0
   63.7030   32.9890   46.7640 C   0  0  0  0  0  0  0  0  0  0  0  0
   62.4040   33.7670   46.4980 C   0  0  0  0  0  0  0  0  0  0  0  0
   59.2300   31.8790   47.6900 C   0  0  0  0  0  0  0  0  0  0  0  0
   58.5200   30.7570   47.2570 C   0  0  0  0  0  0  0  0  0  0  0  0
   56.3343   29.4270   42.3030 H   0  0  0  0  0  0  0  0  0  0  0  0
   57.8646   30.0088   43.0720 H   0  0  0  0  0  0  0  0  0  0  0  0
   60.1885   28.9815   43.8472 H   0  0  0  0  0  0  0  0  0  0  0  0
   61.3725   29.0292   46.0481 H   0  0  0  0  0  0  0  0  0  0  0  0
   58.3682   26.3592   47.6622 H   0  0  0  0  0  0  0  0  0  0  0  0
   57.0981   32.0622   44.4357 H   0  0  0  0  0  0  0  0  0  0  0  0
   58.3793   34.0611   45.1993 H   0  0  0  0  0  0  0  0  0  0  0  0
   62.7696   33.5062   49.5040 H   0  0  0  0  0  0  0  0  0  0  0  0
   61.0139   33.0567   49.3954 H   0  0  0  0  0  0  0  0  0  0  0  0
   62.4884   31.0869   49.1362 H   0  0  0  0  0  0  0  0  0  0  0  0
   61.5118   31.4490   47.6375 H   0  0  0  0  0  0  0  0  0  0  0  0
   64.3858   33.6396   47.3301 H   0  0  0  0  0  0  0  0  0  0  0  0
   64.1075   32.7011   45.7824 H   0  0  0  0  0  0  0  0  0  0  0  0
   62.6376   34.6746   45.9221 H   0  0  0  0  0  0  0  0  0  0  0  0
   61.7149   33.1237   45.9311 H   0  0  0  0  0  0  0  0  0  0  0  0
   59.8289   31.8259   48.6111 H   0  0  0  0  0  0  0  0  0  0  0  0
   58.5461   29.8310   47.8501 H   0  0  0  0  0  0  0  0  0  0  0  0
  1  2  2  0
  2  3  1  0
  3  4  1  0
  4  5  1  0
  5  6  2  0
  6  7  1  0
  7  8  2  0
  8  9  1  0
  9 10  2  0
  9 11  1  0
  8 12  1  0
 12 13  2  0
  2 14  1  0
 14 15  1  0
 15 16  2  0
 16 17  1  0
 17 18  2  0
 18 19  1  0
 19 20  2  0
 19 21  2  0
 19 22  1  0
 22 23  1  0
 23 24  1  0
 24 25  1  0
 25 26  1  0
 26 27  1  0
 18 28  1  0
 28 29  2  0
 13  5  1  0
 29 15  1  0
 27 22  1  0
  3 30  1  0
  3 31  1  0
  6 32  1  0
  7 33  1  0
 12 34  1  0
 16 35  1  0
 17 36  1  0
 23 37  1  0
 23 38  1  0
 24 39  1  0
 24 40  1  0
 26 41  1  0
 26 42  1  0
 27 43  1  0
 27 44  1  0
 28 45  1  0
 29 46  1  0
M  CHG  3   9   1  11  -1  14  -1
M  END
>  <UniqueID>  (79) 
74

>  <SMILES>  (79) 
O=C(CSc1ccc([N+](=O)[O-])cn1)[N-]c1ccc(S(=O)(=O)N2CCOCC2)cc1

>  <Energy>  (79) 
62.429839545562665

>  <Genealogy>  (79) 
O=C(CSc1ccc([N+](=O)[O-])cn1)[N-]c1ccc(S(=O)(=O)N2CCOCC2)cc1 (protonated)
O=C(CSc1ccc([N+](=O)[O-])cn1)[N-]c1ccc(S(=O)(=O)N2CCOCC2)cc1 (3D coordinates assigned)
O=C(CSc1ccc([N+](=O)[O-])cn1)[N-]c1ccc(S(=O)(=O)N2CCOCC2)cc1 (nonaromatic ring conformer: 62.429839545562665 kcal/mol)

>  <smiles>  (79) 
O=C(CSc1ccc([N+](=O)[O-])cn1)Nc1ccc(S(=O)(=O)N2CCOCC2)cc1

>  <score_type>  (79) 
oracle

>  <origin>  (79) 
adg

>  <m_score__min__energy>  (79) 
-10.56

>  <m_primary>  (79) 
energy

$$$$
79:0
     RDKit          3D

 71 74  0  0  0  0  0  0  0  0999 V2000
   57.0170   34.5230   45.0860 C   0  0  0  0  0  0  0  0  0  0  0  0
   57.2990   33.6680   46.3200 C   0  0  0  0  0  0  0  0  0  0  0  0
   58.0140   32.4360   45.9510 N   0  0  0  0  0  0  0  0  0  0  0  0
   57.9250   31.9420   44.5670 C   0  0  0  0  0  0  0  0  0  0  0  0
   57.4320   30.5220   44.4960 C   0  0  0  0  0  0  0  0  0  0  0  0
   56.1950   30.2790   44.4990 O   0  0  0  0  0  0  0  0  0  0  0  0
   58.3830   29.4470   44.5250 N   0  0  0  0  0  0  0  0  0  0  0  0
   58.0270   28.0580   44.4210 C   0  0  0  0  0  0  0  0  0  0  0  0
   58.1080   27.4200   43.1770 C   0  0  0  0  0  0  0  0  0  0  0  0
   57.7690   26.0700   43.0490 C   0  0  0  0  0  0  0  0  0  0  0  0
   57.3210   25.3420   44.1620 C   0  0  0  0  0  0  0  0  0  0  0  0
   56.9740   23.9530   44.0320 N   0  0  0  0  0  0  0  0  0  0  0  0
   57.2600   23.0260   45.1290 C   0  0  0  0  0  0  0  0  0  0  0  0
   57.4450   21.6130   44.5690 C   0  0  0  0  0  0  0  0  0  0  0  0
   56.3400   21.2430   43.7650 O   0  0  0  0  0  0  0  0  0  0  0  0
   56.2780   22.0760   42.6220 C   0  0  0  0  0  0  0  0  0  0  0  0
   56.0030   23.5300   43.0190 C   0  0  0  0  0  0  0  0  0  0  0  0
   57.2170   25.9860   45.4070 C   0  0  0  0  0  0  0  0  0  0  0  0
   56.8080   25.2990   46.5040 F   0  0  0  0  0  0  0  0  0  0  0  0
   57.5600   27.3350   45.5330 C   0  0  0  0  0  0  0  0  0  0  0  0
   59.0430   31.9280   46.8260 C   0  0  0  0  0  0  0  0  0  0  0  0
   59.8550   31.0650   46.3940 O   0  0  0  0  0  0  0  0  0  0  0  0
   59.1700   32.3940   48.2270 C   0  0  0  0  0  0  0  0  0  0  0  0
   59.9580   33.5110   48.5400 C   0  0  0  0  0  0  0  0  0  0  0  0
   60.0700   33.9530   49.8580 C   0  0  0  0  0  0  0  0  0  0  0  0
   59.4040   33.2780   50.8970 C   0  0  0  0  0  0  0  0  0  0  0  0
   59.4900   33.7040   52.2330 O   0  0  0  0  0  0  0  0  0  0  0  0
   58.5660   34.5870   52.8600 C   0  0  0  0  0  0  0  0  0  0  0  0
   58.6320   32.1410   50.5930 C   0  0  0  0  0  0  0  0  0  0  0  0
   57.7990   31.2650   51.8800 S   0  0  0  0  0  0  0  0  0  0  0  0
   56.9760   30.1470   51.2990 O   0  0  0  0  0  0  0  0  0  0  0  0
   56.8860   32.2150   52.6030 O   0  0  0  0  0  0  0  0  0  0  0  0
   58.9760   30.6200   52.9980 N   0  0  0  0  0  0  0  0  0  0  0  0
   59.1120   31.4710   54.1790 C   0  0  0  0  0  0  0  0  0  0  0  0
   60.5230   31.2630   54.7040 C   0  0  0  0  0  0  0  0  0  0  0  0
   61.3040   30.6710   53.5410 C   0  0  0  0  0  0  0  0  0  0  0  0
   60.3080   30.5660   52.3970 C   0  0  0  0  0  0  0  0  0  0  0  0
   58.5210   31.7050   49.2630 C   0  0  0  0  0  0  0  0  0  0  0  0
   56.6869   35.5239   45.4010 H   0  0  0  0  0  0  0  0  0  0  0  0
   57.9335   34.6117   44.4842 H   0  0  0  0  0  0  0  0  0  0  0  0
   56.2276   34.0491   44.4842 H   0  0  0  0  0  0  0  0  0  0  0  0
   57.9153   34.2450   47.0251 H   0  0  0  0  0  0  0  0  0  0  0  0
   56.3405   33.3932   46.7846 H   0  0  0  0  0  0  0  0  0  0  0  0
   57.2312   32.5854   44.0061 H   0  0  0  0  0  0  0  0  0  0  0  0
   58.9365   31.9681   44.1356 H   0  0  0  0  0  0  0  0  0  0  0  0
   59.3730   29.6820   44.7660 H   0  0  0  0  0  0  0  0  0  0  0  0
   58.4409   27.9854   42.2941 H   0  0  0  0  0  0  0  0  0  0  0  0
   57.8539   25.5753   42.0702 H   0  0  0  0  0  0  0  0  0  0  0  0
   58.1802   23.3398   45.6435 H   0  0  0  0  0  0  0  0  0  0  0  0
   56.4215   23.0311   45.8410 H   0  0  0  0  0  0  0  0  0  0  0  0
   58.3604   21.5834   43.9598 H   0  0  0  0  0  0  0  0  0  0  0  0
   57.5219   20.9075   45.4095 H   0  0  0  0  0  0  0  0  0  0  0  0
   57.2373   22.0243   42.0863 H   0  0  0  0  0  0  0  0  0  0  0  0
   55.4582   21.7269   41.9769 H   0  0  0  0  0  0  0  0  0  0  0  0
   56.0934   24.1752   42.1327 H   0  0  0  0  0  0  0  0  0  0  0  0
   54.9860   23.6112   43.4302 H   0  0  0  0  0  0  0  0  0  0  0  0
   57.4640   27.8344   46.5084 H   0  0  0  0  0  0  0  0  0  0  0  0
   60.4923   34.0431   47.7391 H   0  0  0  0  0  0  0  0  0  0  0  0
   60.6840   34.8365   50.0869 H   0  0  0  0  0  0  0  0  0  0  0  0
   58.6582   34.4989   53.9526 H   0  0  0  0  0  0  0  0  0  0  0  0
   58.7834   35.6215   52.5560 H   0  0  0  0  0  0  0  0  0  0  0  0
   57.5424   34.3229   52.5560 H   0  0  0  0  0  0  0  0  0  0  0  0
   58.9602   32.5258   53.9063 H   0  0  0  0  0  0  0  0  0  0  0  0
   58.3628   31.2132   54.9421 H   0  0  0  0  0  0  0  0  0  0  0  0
   60.9632   32.2220   55.0146 H   0  0  0  0  0  0  0  0  0  0  0  0
   60.5386   30.6040   55.5846 H   0  0  0  0  0  0  0  0  0  0  0  0
   62.1401   31.3299   53.2640 H   0  0  0  0  0  0  0  0  0  0  0  0
   61.7385   29.6931   53.7959 H   0  0  0  0  0  0  0  0  0  0  0  0
   60.4433   31.4041   51.6976 H   0  0  0  0  0  0  0  0  0  0  0  0
   60.4506   29.6340   51.8305 H   0  0  0  0  0  0  0  0  0  0  0  0
   57.9191   30.8141   49.0307 H   0  0  0  0  0  0  0  0  0  0  0  0
  1  2  1  0
  2  3  1  0
  3  4  1  0
  4  5  1  0
  5  6  2  0
  5  7  1  0
  7  8  1  0
  8  9  2  0
  9 10  1  0
 10 11  2  0
 11 12  1  0
 12 13  1  0
 13 14  1  0
 14 15  1  0
 15 16  1  0
 16 17  1  0
 11 18  1  0
 18 19  1  0
 18 20  2  0
  3 21  1  0
 21 22  2  0
 21 23  1  0
 23 24  2  0
 24 25  1  0
 25 26  2  0
 26 27  1  0
 27 28  1  0
 26 29  1  0
 29 30  1  0
 30 31  2  0
 30 32  2  0
 30 33  1  0
 33 34  1  0
 34 35  1  0
 35 36  1  0
 36 37  1  0
 29 38  2  0
 20  8  1  0
 38 23  1  0
 17 12  1  0
 37 33  1  0
  1 39  1  0
  1 40  1  0
  1 41  1  0
  2 42  1  0
  2 43  1  0
  4 44  1  0
  4 45  1  0
  7 46  1  0
  9 47  1  0
 10 48  1  0
 13 49  1  0
 13 50  1  0
 14 51  1  0
 14 52  1  0
 16 53  1  0
 16 54  1  0
 17 55  1  0
 17 56  1  0
 20 57  1  0
 24 58  1  0
 25 59  1  0
 28 60  1  0
 28 61  1  0
 28 62  1  0
 34 63  1  0
 34 64  1  0
 35 65  1  0
 35 66  1  0
 36 67  1  0
 36 68  1  0
 37 69  1  0
 37 70  1  0
 38 71  1  0
M  END
>  <UniqueID>  (80) 
75

>  <SMILES>  (80) 
CCN(CC(=O)Nc1ccc(N2CCOCC2)c(F)c1)C(=O)c1ccc(OC)c(S(=O)(=O)N2CCCC2)c1

>  <Energy>  (80) 
83.04507341875706

>  <Genealogy>  (80) 
CCN(CC(=O)Nc1ccc(N2CCOCC2)c(F)c1)C(=O)c1ccc(OC)c(S(=O)(=O)N2CCCC2)c1 (3D coordinates assigned)
CCN(CC(=O)Nc1ccc(N2CCOCC2)c(F)c1)C(=O)c1ccc(OC)c(S(=O)(=O)N2CCCC2)c1 (nonaromatic ring conformer: 83.04507341875706 kcal/mol)

>  <smiles>  (80) 
CCN(CC(=O)Nc1ccc(N2CCOCC2)c(F)c1)C(=O)c1ccc(OC)c(S(=O)(=O)N2CCCC2)c1

>  <score_type>  (80) 
oracle

>  <origin>  (80) 
adg

>  <m_score__min__energy>  (80) 
-10.279999999999999

>  <m_primary>  (80) 
energy

$$$$
80:0
     RDKit          3D

 65 69  0  0  0  0  0  0  0  0999 V2000
   54.9870   29.3090   44.4340 O   0  0  0  0  0  0  0  0  0  0  0  0
   56.1880   29.6430   44.2560 C   0  0  0  0  0  0  0  0  0  0  0  0
   56.5200   30.9120   43.6750 N   0  0  0  0  0  0  0  0  0  0  0  0
   57.3440   31.9480   44.2360 C   0  0  0  0  0  0  0  0  0  0  0  0
   57.3230   32.1370   45.6230 C   0  0  0  0  0  0  0  0  0  0  0  0
   58.1090   33.1270   46.2200 C   0  0  0  0  0  0  0  0  0  0  0  0
   58.9400   33.9380   45.4330 C   0  0  0  0  0  0  0  0  0  0  0  0
   59.7490   35.0400   46.0630 C   0  0  0  0  0  0  0  0  0  0  0  0
   59.5990   35.0840   47.5980 C   0  0  0  0  0  0  0  0  0  0  0  0
   60.8010   34.5710   48.3150 N   0  0  0  0  0  0  0  0  0  0  0  0
   61.7110   33.8640   47.3900 C   0  0  0  0  0  0  0  0  0  0  0  0
   62.9850   33.4030   48.1160 C   0  0  0  0  0  0  0  0  0  0  0  0
   62.6900   32.6080   49.3230 N   0  0  0  0  0  0  0  0  0  0  0  0
   62.7450   31.1380   49.1720 C   0  0  0  0  0  0  0  0  0  0  0  0
   61.3980   30.4990   48.9340 C   0  0  0  0  0  0  0  0  0  0  0  0
   60.6370   30.8410   47.8020 C   0  0  0  0  0  0  0  0  0  0  0  0
   59.3890   30.2500   47.5880 C   0  0  0  0  0  0  0  0  0  0  0  0
   58.8840   29.3250   48.5060 C   0  0  0  0  0  0  0  0  0  0  0  0
   59.6230   28.9950   49.6450 C   0  0  0  0  0  0  0  0  0  0  0  0
   60.8700   29.5870   49.8660 C   0  0  0  0  0  0  0  0  0  0  0  0
   61.6180   33.1410   50.1860 C   0  0  0  0  0  0  0  0  0  0  0  0
   60.4000   33.6430   49.3920 C   0  0  0  0  0  0  0  0  0  0  0  0
   58.9830   33.7380   44.0440 C   0  0  0  0  0  0  0  0  0  0  0  0
   58.1980   32.7450   43.4490 C   0  0  0  0  0  0  0  0  0  0  0  0
   57.2380   28.7700   44.6920 N   0  0  0  0  0  0  0  0  0  0  0  0
   58.6600   29.1140   44.6200 C   0  0  0  0  0  0  0  0  0  0  0  0
   59.3130   27.9840   45.3260 C   0  0  0  0  0  0  0  0  0  0  0  0
   60.6740   27.7970   45.5700 C   0  0  0  0  0  0  0  0  0  0  0  0
   61.0780   26.6600   46.2900 C   0  0  0  0  0  0  0  0  0  0  0  0
   60.1220   25.7270   46.7370 C   0  0  0  0  0  0  0  0  0  0  0  0
   58.7570   25.9320   46.4760 C   0  0  0  0  0  0  0  0  0  0  0  0
   58.3770   27.0770   45.7740 C   0  0  0  0  0  0  0  0  0  0  0  0
   57.0070   27.5120   45.4100 C   0  0  0  0  0  0  0  0  0  0  0  0
   56.6814   31.4999   46.2495 H   0  0  0  0  0  0  0  0  0  0  0  0
   58.0757   33.2704   47.3101 H   0  0  0  0  0  0  0  0  0  0  0  0
   60.8096   34.8830   45.8172 H   0  0  0  0  0  0  0  0  0  0  0  0
   59.3770   35.9955   45.6647 H   0  0  0  0  0  0  0  0  0  0  0  0
   59.4267   36.1265   47.9037 H   0  0  0  0  0  0  0  0  0  0  0  0
   58.7535   34.4330   47.8650 H   0  0  0  0  0  0  0  0  0  0  0  0
   61.3160   35.3710   48.7530 H   0  0  0  0  0  0  0  0  0  0  0  0
   61.1936   32.9850   46.9781 H   0  0  0  0  0  0  0  0  0  0  0  0
   61.9977   34.5552   46.5837 H   0  0  0  0  0  0  0  0  0  0  0  0
   63.5818   32.7886   47.4258 H   0  0  0  0  0  0  0  0  0  0  0  0
   63.5333   34.3023   48.4334 H   0  0  0  0  0  0  0  0  0  0  0  0
   63.3969   30.9012   48.3182 H   0  0  0  0  0  0  0  0  0  0  0  0
   63.1288   30.7328   50.1199 H   0  0  0  0  0  0  0  0  0  0  0  0
   61.0256   31.5765   47.0823 H   0  0  0  0  0  0  0  0  0  0  0  0
   58.8028   30.5133   46.6952 H   0  0  0  0  0  0  0  0  0  0  0  0
   57.9041   28.8565   48.3317 H   0  0  0  0  0  0  0  0  0  0  0  0
   59.2233   28.2689   50.3682 H   0  0  0  0  0  0  0  0  0  0  0  0
   61.4410   29.3386   50.7728 H   0  0  0  0  0  0  0  0  0  0  0  0
   61.2875   32.3432   50.8674 H   0  0  0  0  0  0  0  0  0  0  0  0
   62.0324   34.0018   50.7313 H   0  0  0  0  0  0  0  0  0  0  0  0
   59.8834   32.7801   48.9464 H   0  0  0  0  0  0  0  0  0  0  0  0
   59.7360   34.1827   50.0832 H   0  0  0  0  0  0  0  0  0  0  0  0
   59.6372   34.3653   43.4207 H   0  0  0  0  0  0  0  0  0  0  0  0
   58.2478   32.5858   42.3617 H   0  0  0  0  0  0  0  0  0  0  0  0
   58.9992   29.1766   43.5755 H   0  0  0  0  0  0  0  0  0  0  0  0
   58.8919   30.0939   45.0628 H   0  0  0  0  0  0  0  0  0  0  0  0
   61.4149   28.5242   45.2064 H   0  0  0  0  0  0  0  0  0  0  0  0
   62.1445   26.4979   46.5053 H   0  0  0  0  0  0  0  0  0  0  0  0
   60.4456   24.8345   47.2926 H   0  0  0  0  0  0  0  0  0  0  0  0
   58.0042   25.2062   46.8173 H   0  0  0  0  0  0  0  0  0  0  0  0
   56.5166   26.7712   44.7613 H   0  0  0  0  0  0  0  0  0  0  0  0
   56.3437   27.6259   46.2801 H   0  0  0  0  0  0  0  0  0  0  0  0
  1  2  2  0
  2  3  1  0
  3  4  1  0
  4  5  2  0
  5  6  1  0
  6  7  2  0
  7  8  1  0
  8  9  1  0
  9 10  1  0
 10 11  1  0
 11 12  1  0
 12 13  1  0
 13 14  1  0
 14 15  1  0
 15 16  2  0
 16 17  1  0
 17 18  2  0
 18 19  1  0
 19 20  2  0
 13 21  1  0
 21 22  1  0
  7 23  1  0
 23 24  2  0
  2 25  1  0
 25 26  1  0
 26 27  1  0
 27 28  2  0
 28 29  1  0
 29 30  2  0
 30 31  1  0
 31 32  2  0
 32 33  1  0
 24  4  1  0
 33 25  1  0
 22 10  1  0
 32 27  1  0
 20 15  1  0
  5 34  1  0
  6 35  1  0
  8 36  1  0
  8 37  1  0
  9 38  1  0
  9 39  1  0
 10 40  1  0
 11 41  1  0
 11 42  1  0
 12 43  1  0
 12 44  1  0
 14 45  1  0
 14 46  1  0
 16 47  1  0
 17 48  1  0
 18 49  1  0
 19 50  1  0
 20 51  1  0
 21 52  1  0
 21 53  1  0
 22 54  1  0
 22 55  1  0
 23 56  1  0
 24 57  1  0
 26 58  1  0
 26 59  1  0
 28 60  1  0
 29 61  1  0
 30 62  1  0
 31 63  1  0
 33 64  1  0
 33 65  1  0
M  CHG  2   3  -1  10   1
M  END
>  <UniqueID>  (81) 
76

>  <SMILES>  (81) 
O=C([N-]c1ccc(CC[NH+]2CCN(Cc3ccccc3)CC2)cc1)N1Cc2ccccc2C1

>  <Energy>  (81) 
92.18584634121858

>  <Genealogy>  (81) 
O=C([N-]c1ccc(CC[NH+]2CCN(Cc3ccccc3)CC2)cc1)N1Cc2ccccc2C1 (protonated)
O=C([N-]c1ccc(CC[NH+]2CCN(Cc3ccccc3)CC2)cc1)N1Cc2ccccc2C1 (3D coordinates assigned)
O=C([N-]c1ccc(CC[NH+]2CCN(Cc3ccccc3)CC2)cc1)N1Cc2ccccc2C1 (nonaromatic ring conformer: 92.18584634121858 kcal/mol)

>  <smiles>  (81) 
O=C(Nc1ccc(CCN2CCN(Cc3ccccc3)CC2)cc1)N1Cc2ccccc2C1

>  <score_type>  (81) 
oracle

>  <origin>  (81) 
adg

>  <m_score__min__energy>  (81) 
-9.8399999999999999

>  <m_primary>  (81) 
energy

$$$$
81:0
     RDKit          3D

 26 27  0  0  0  0  0  0  0  0999 V2000
   57.4918   32.6758   43.5347 H   0  0  0  0  0  0  0  0  0  0  0  0
   57.5040   31.6810   44.0040 C   0  0  0  0  0  0  0  0  0  0  0  0
   58.7040   31.1490   44.4820 C   0  0  0  0  0  0  0  0  0  0  0  0
   59.6357   31.7267   44.3917 H   0  0  0  0  0  0  0  0  0  0  0  0
   58.7220   29.8830   45.0750 C   0  0  0  0  0  0  0  0  0  0  0  0
   59.6663   29.4705   45.4598 H   0  0  0  0  0  0  0  0  0  0  0  0
   57.5400   29.1390   45.1800 C   0  0  0  0  0  0  0  0  0  0  0  0
   57.5680   27.8500   45.8070 N   0  0  0  0  0  0  0  0  0  0  0  0
   57.5250   26.7100   45.1760 C   0  0  0  0  0  0  0  0  0  0  0  0
   57.0710   25.5080   45.9170 C   0  0  0  0  0  0  0  0  0  0  0  0
   55.7230   25.3670   46.2970 C   0  0  0  0  0  0  0  0  0  0  0  0
   54.7850   26.3390   45.9680 O   0  0  0  0  0  0  0  0  0  0  0  0
   55.3190   24.2640   46.9790 N   0  0  0  0  0  0  0  0  0  0  0  0
   56.1970   23.2840   47.3100 C   0  0  0  0  0  0  0  0  0  0  0  0
   55.7990   22.2700   47.9390 O   0  0  0  0  0  0  0  0  0  0  0  0
   57.5040   23.3970   46.9640 N   0  0  0  0  0  0  0  0  0  0  0  0
   57.9620   24.4800   46.2840 C   0  0  0  0  0  0  0  0  0  0  0  0
   59.1880   24.5580   46.0090 O   0  0  0  0  0  0  0  0  0  0  0  0
   57.9900   26.5860   43.7450 C   0  0  0  0  0  0  0  0  0  0  0  0
   59.0527   26.3026   43.7280 H   0  0  0  0  0  0  0  0  0  0  0  0
   57.3966   25.8147   43.2322 H   0  0  0  0  0  0  0  0  0  0  0  0
   57.8594   27.5503   43.2322 H   0  0  0  0  0  0  0  0  0  0  0  0
   56.3310   29.6820   44.7150 C   0  0  0  0  0  0  0  0  0  0  0  0
   55.1440   28.9700   44.8440 O   0  0  0  0  0  0  0  0  0  0  0  0
   56.3180   30.9490   44.1220 C   0  0  0  0  0  0  0  0  0  0  0  0
   55.3733   31.3703   43.7478 H   0  0  0  0  0  0  0  0  0  0  0  0
  1  2  1  0
  2  3  2  0
  3  4  1  0
  3  5  1  0
  5  6  1  0
  5  7  2  0
  7  8  1  0
  8  9  2  0
  9 10  1  0
 10 11  2  0
 11 12  1  0
 11 13  1  0
 13 14  1  0
 14 15  2  0
 14 16  1  0
 16 17  1  0
 17 18  2  0
  9 19  1  0
 19 20  1  0
 19 21  1  0
 19 22  1  0
  7 23  1  0
 23 24  1  0
 23 25  2  0
 25 26  1  0
 25  2  1  0
 17 10  1  0
M  CHG  4  12  -1  13  -1  16  -1  24  -1
M  END
>  <UniqueID>  (82) 
77

>  <SMILES>  (82) 
C/C(=N\c1ccccc1[O-])c1c([O-])[n-]c(=O)[n-]c1=O

>  <Energy>  (82) 
43.11963518737901

>  <Genealogy>  (82) 
CC(=Nc1ccccc1[O-])c1c([O-])[n-]c(=O)[n-]c1=O (protonated)
C/C(=N\c1ccccc1[O-])c1c([O-])[n-]c(=O)[n-]c1=O (cis-trans isomerization)
C/C(=N\c1ccccc1[O-])c1c([O-])[n-]c(=O)[n-]c1=O (3D coordinates assigned)
C/C(=N\c1ccccc1[O-])c1c([O-])[n-]c(=O)[n-]c1=O (optimized conformer: 43.11963518737901 kcal/mol)

>  <smiles>  (82) 
CC(=Nc1ccccc1O)c1c(O)[nH]c(=O)[nH]c1=O

>  <score_type>  (82) 
oracle

>  <origin>  (82) 
adg

>  <m_score__min__energy>  (82) 
-17.170000000000002

>  <m_primary>  (82) 
energy

$$$$
82:0
     RDKit          3D

 63 66  0  0  0  0  0  0  0  0999 V2000
   56.2300   25.1270   46.5690 C   0  0  0  0  0  0  0  0  0  0  0  0
   56.9310   26.4170   46.2850 C   0  0  0  0  0  0  0  0  0  0  0  0
   58.2410   26.6240   46.7330 C   0  0  0  0  0  0  0  0  0  0  0  0
   58.8830   27.8350   46.4660 C   0  0  0  0  0  0  0  0  0  0  0  0
   60.1950   28.0110   46.9350 O   0  0  0  0  0  0  0  0  0  0  0  0
   60.6890   29.1880   47.5770 C   0  0  0  0  0  0  0  0  0  0  0  0
   60.2370   29.2520   49.0120 C   0  0  0  0  0  0  0  0  0  0  0  0
   61.1300   28.9350   50.0500 C   0  0  0  0  0  0  0  0  0  0  0  0
   60.7100   28.9950   51.3810 C   0  0  0  0  0  0  0  0  0  0  0  0
   59.4020   29.3810   51.6880 C   0  0  0  0  0  0  0  0  0  0  0  0
   58.5140   29.7190   50.6620 C   0  0  0  0  0  0  0  0  0  0  0  0
   58.9300   29.6610   49.3290 C   0  0  0  0  0  0  0  0  0  0  0  0
   58.1950   28.8270   45.7440 C   0  0  0  0  0  0  0  0  0  0  0  0
   56.8870   28.5910   45.3150 C   0  0  0  0  0  0  0  0  0  0  0  0
   56.2170   29.5940   44.6030 O   0  0  0  0  0  0  0  0  0  0  0  0
   56.8150   30.7230   44.0300 C   0  0  0  0  0  0  0  0  0  0  0  0
   57.3970   30.6530   42.9130 O   0  0  0  0  0  0  0  0  0  0  0  0
   56.7700   31.9640   44.7410 N   0  0  0  0  0  0  0  0  0  0  0  0
   57.7280   33.0370   44.4880 C   0  0  0  0  0  0  0  0  0  0  0  0
   58.4750   33.3450   45.7540 C   0  0  0  0  0  0  0  0  0  0  0  0
   59.0090   34.6270   45.9590 C   0  0  0  0  0  0  0  0  0  0  0  0
   59.5890   34.9600   47.1850 C   0  0  0  0  0  0  0  0  0  0  0  0
   59.6250   34.0300   48.2290 C   0  0  0  0  0  0  0  0  0  0  0  0
   60.1460   34.4420   49.4980 N   0  0  0  0  0  0  0  0  0  0  0  0
   60.3990   33.3960   50.8580 S   0  0  0  0  0  0  0  0  0  0  0  0
   59.2320   32.4540   50.9540 O   0  0  0  0  0  0  0  0  0  0  0  0
   60.4700   34.2090   52.1190 O   0  0  0  0  0  0  0  0  0  0  0  0
   61.8970   32.4330   50.6650 C   0  0  0  0  0  0  0  0  0  0  0  0
   62.5270   32.6550   49.3160 C   0  0  0  0  0  0  0  0  0  0  0  0
   62.5990   31.6070   48.3820 C   0  0  0  0  0  0  0  0  0  0  0  0
   63.2070   31.8100   47.1400 C   0  0  0  0  0  0  0  0  0  0  0  0
   63.7420   33.0590   46.8180 C   0  0  0  0  0  0  0  0  0  0  0  0
   63.6690   34.1090   47.7380 C   0  0  0  0  0  0  0  0  0  0  0  0
   63.0630   33.9110   48.9830 C   0  0  0  0  0  0  0  0  0  0  0  0
   59.1200   32.7350   48.0170 C   0  0  0  0  0  0  0  0  0  0  0  0
   58.5420   32.3990   46.7890 C   0  0  0  0  0  0  0  0  0  0  0  0
   56.2910   27.3980   45.5950 N   0  0  0  0  0  0  0  0  0  0  0  0
   56.1522   24.9838   47.6569 H   0  0  0  0  0  0  0  0  0  0  0  0
   55.2219   25.1530   46.1295 H   0  0  0  0  0  0  0  0  0  0  0  0
   56.8002   24.2953   46.1295 H   0  0  0  0  0  0  0  0  0  0  0  0
   58.7632   25.8349   47.2938 H   0  0  0  0  0  0  0  0  0  0  0  0
   61.7885   29.1794   47.5465 H   0  0  0  0  0  0  0  0  0  0  0  0
   60.2948   30.0674   47.0466 H   0  0  0  0  0  0  0  0  0  0  0  0
   62.1627   28.6388   49.8136 H   0  0  0  0  0  0  0  0  0  0  0  0
   61.4102   28.7379   52.1894 H   0  0  0  0  0  0  0  0  0  0  0  0
   59.0713   29.4189   52.7364 H   0  0  0  0  0  0  0  0  0  0  0  0
   57.4873   30.0308   50.9043 H   0  0  0  0  0  0  0  0  0  0  0  0
   58.2319   29.9365   48.5248 H   0  0  0  0  0  0  0  0  0  0  0  0
   58.6855   29.7853   45.5181 H   0  0  0  0  0  0  0  0  0  0  0  0
   56.2170   32.0020   45.6260 H   0  0  0  0  0  0  0  0  0  0  0  0
   58.4383   32.7195   43.7104 H   0  0  0  0  0  0  0  0  0  0  0  0
   57.1928   33.9360   44.1482 H   0  0  0  0  0  0  0  0  0  0  0  0
   58.9704   35.3722   45.1508 H   0  0  0  0  0  0  0  0  0  0  0  0
   60.0207   35.9612   47.3307 H   0  0  0  0  0  0  0  0  0  0  0  0
   62.6134   32.7264   51.4465 H   0  0  0  0  0  0  0  0  0  0  0  0
   61.6357   31.3681   50.7523 H   0  0  0  0  0  0  0  0  0  0  0  0
   62.1749   30.6227   48.6297 H   0  0  0  0  0  0  0  0  0  0  0  0
   63.2642   30.9846   46.4151 H   0  0  0  0  0  0  0  0  0  0  0  0
   64.2209   33.2167   45.8404 H   0  0  0  0  0  0  0  0  0  0  0  0
   64.0890   35.0930   47.4823 H   0  0  0  0  0  0  0  0  0  0  0  0
   63.0057   34.7403   49.7034 H   0  0  0  0  0  0  0  0  0  0  0  0
   59.1798   31.9846   48.8190 H   0  0  0  0  0  0  0  0  0  0  0  0
   58.1376   31.3880   46.6331 H   0  0  0  0  0  0  0  0  0  0  0  0
  1  2  1  0
  2  3  2  0
  3  4  1  0
  4  5  1  0
  5  6  1  0
  6  7  1  0
  7  8  2  0
  8  9  1  0
  9 10  2  0
 10 11  1  0
 11 12  2  0
  4 13  2  0
 13 14  1  0
 14 15  1  0
 15 16  1  0
 16 17  2  0
 16 18  1  0
 18 19  1  0
 19 20  1  0
 20 21  2  0
 21 22  1  0
 22 23  2  0
 23 24  1  0
 24 25  1  0
 25 26  2  0
 25 27  2  0
 25 28  1  0
 28 29  1  0
 29 30  2  0
 30 31  1  0
 31 32  2  0
 32 33  1  0
 33 34  2  0
 23 35  1  0
 35 36  2  0
 14 37  2  0
 37  2  1  0
 12  7  1  0
 36 20  1  0
 34 29  1  0
  1 38  1  0
  1 39  1  0
  1 40  1  0
  3 41  1  0
  6 42  1  0
  6 43  1  0
  8 44  1  0
  9 45  1  0
 10 46  1  0
 11 47  1  0
 12 48  1  0
 13 49  1  0
 18 50  1  0
 19 51  1  0
 19 52  1  0
 21 53  1  0
 22 54  1  0
 28 55  1  0
 28 56  1  0
 30 57  1  0
 31 58  1  0
 32 59  1  0
 33 60  1  0
 34 61  1  0
 35 62  1  0
 36 63  1  0
M  CHG  1  24  -1
M  END
>  <UniqueID>  (83) 
78

>  <SMILES>  (83) 
Cc1cc(OCc2ccccc2)cc(OC(=O)NCc2ccc([N-]S(=O)(=O)Cc3ccccc3)cc2)n1

>  <Energy>  (83) 
61.20600015354006

>  <Genealogy>  (83) 
Cc1cc(OCc2ccccc2)cc(OC(=O)NCc2ccc([N-]S(=O)(=O)Cc3ccccc3)cc2)n1 (protonated)
Cc1cc(OCc2ccccc2)cc(OC(=O)NCc2ccc([N-]S(=O)(=O)Cc3ccccc3)cc2)n1 (3D coordinates assigned)
Cc1cc(OCc2ccccc2)cc(OC(=O)NCc2ccc([N-]S(=O)(=O)Cc3ccccc3)cc2)n1 (optimized conformer: 61.20600015354006 kcal/mol)

>  <smiles>  (83) 
Cc1cc(OCc2ccccc2)cc(OC(=O)NCc2ccc(NS(=O)(=O)Cc3ccccc3)cc2)n1

>  <score_type>  (83) 
oracle

>  <origin>  (83) 
adg

>  <m_score__min__energy>  (83) 
-12.300000000000001

>  <m_primary>  (83) 
energy

$$$$
83:0
     RDKit          3D

 40 43  0  0  0  0  0  0  0  0999 V2000
   57.1604   33.6737   46.8097 H   0  0  0  0  0  0  0  0  0  0  0  0
   58.2320   33.4710   46.9530 C   0  0  0  0  0  0  0  0  0  0  0  0
   58.9360   34.1880   47.8800 N   0  0  0  0  0  0  0  0  0  0  0  0
   60.2550   33.9260   48.0490 C   0  0  0  0  0  0  0  0  0  0  0  0
   61.0900   34.5600   48.8930 N   0  0  0  0  0  0  0  0  0  0  0  0
   62.2710   33.9350   48.6400 C   0  0  0  0  0  0  0  0  0  0  0  0
   63.3420   34.2490   49.2230 O   0  0  0  0  0  0  0  0  0  0  0  0
   62.1920   32.9560   47.7020 N   0  0  0  0  0  0  0  0  0  0  0  0
   63.2790   32.1560   47.1420 C   0  0  0  0  0  0  0  0  0  0  0  0
   63.8719   31.7197   47.9594 H   0  0  0  0  0  0  0  0  0  0  0  0
   62.8593   31.3497   46.5225 H   0  0  0  0  0  0  0  0  0  0  0  0
   63.9241   32.7964   46.5225 H   0  0  0  0  0  0  0  0  0  0  0  0
   60.9050   32.9740   47.3290 C   0  0  0  0  0  0  0  0  0  0  0  0
   60.2450   32.2160   46.3670 C   0  0  0  0  0  0  0  0  0  0  0  0
   60.7752   31.4509   45.7808 H   0  0  0  0  0  0  0  0  0  0  0  0
   58.8670   32.4660   46.1710 C   0  0  0  0  0  0  0  0  0  0  0  0
   58.1030   31.7010   45.1540 C   0  0  0  0  0  0  0  0  0  0  0  0
   58.0390   32.1510   43.8230 C   0  0  0  0  0  0  0  0  0  0  0  0
   58.5637   33.0729   43.5316 H   0  0  0  0  0  0  0  0  0  0  0  0
   57.3130   31.4340   42.8690 C   0  0  0  0  0  0  0  0  0  0  0  0
   57.2801   31.7852   41.8271 H   0  0  0  0  0  0  0  0  0  0  0  0
   56.6290   30.2730   43.2340 C   0  0  0  0  0  0  0  0  0  0  0  0
   56.0642   29.7098   42.4765 H   0  0  0  0  0  0  0  0  0  0  0  0
   56.6580   29.8220   44.5580 C   0  0  0  0  0  0  0  0  0  0  0  0
   55.9140   28.6450   44.9050 N   0  0  0  0  0  0  0  0  0  0  0  0
   56.4090   27.5040   45.6200 C   0  0  0  0  0  0  0  0  0  0  0  0
   55.5880   26.6580   46.0570 O   0  0  0  0  0  0  0  0  0  0  0  0
   57.8120   27.2880   45.8460 N   0  0  0  0  0  0  0  0  0  0  0  0
   58.5680   27.9440   46.6790 C   0  0  0  0  0  0  0  0  0  0  0  0
   58.1440   28.2290   47.9430 N   0  0  0  0  0  0  0  0  0  0  0  0
   58.9150   28.9210   48.8230 C   0  0  0  0  0  0  0  0  0  0  0  0
   58.5375   29.1376   49.8332 H   0  0  0  0  0  0  0  0  0  0  0  0
   60.1870   29.3570   48.4440 C   0  0  0  0  0  0  0  0  0  0  0  0
   61.2750   30.3400   49.6660 Br  0  0  0  0  0  0  0  0  0  0  0  0
   60.6530   29.0640   47.1600 C   0  0  0  0  0  0  0  0  0  0  0  0
   61.6543   29.3958   46.8481 H   0  0  0  0  0  0  0  0  0  0  0  0
   59.8450   28.3490   46.2730 C   0  0  0  0  0  0  0  0  0  0  0  0
   60.2091   28.1062   45.2638 H   0  0  0  0  0  0  0  0  0  0  0  0
   57.4220   30.5230   45.5090 C   0  0  0  0  0  0  0  0  0  0  0  0
   57.4873   30.1459   46.5403 H   0  0  0  0  0  0  0  0  0  0  0  0
  1  2  1  0
  2  3  2  0
  3  4  1  0
  4  5  1  0
  5  6  1  0
  6  7  2  0
  6  8  1  0
  8  9  1  0
  9 10  1  0
  9 11  1  0
  9 12  1  0
  8 13  1  0
 13 14  1  0
 14 15  1  0
 14 16  2  0
 16 17  1  0
 17 18  2  0
 18 19  1  0
 18 20  1  0
 20 21  1  0
 20 22  2  0
 22 23  1  0
 22 24  1  0
 24 25  1  0
 25 26  1  0
 26 27  2  0
 26 28  1  0
 28 29  2  0
 29 30  1  0
 30 31  1  0
 31 32  1  0
 31 33  2  0
 33 34  1  0
 33 35  1  0
 35 36  1  0
 35 37  2  0
 37 38  1  0
 24 39  2  0
 39 40  1  0
 16  2  1  0
 39 17  1  0
 13  4  2  0
 37 29  1  0
M  CHG  3   5  -1  25  -1  30  -1
M  END
>  <UniqueID>  (84) 
79

>  <SMILES>  (84) 
Cn1c(=O)[n-]c2ncc(-c3cccc([N-]C(=O)/N=c4/ccc(Br)c[n-]4)c3)cc21

>  <Energy>  (84) 
98.37204383610539

>  <Genealogy>  (84) 
Cn1c(=O)[n-]c2ncc(-c3cccc([N-]C(=O)N=c4ccc(Br)c[n-]4)c3)cc21 (protonated)
Cn1c(=O)[n-]c2ncc(-c3cccc([N-]C(=O)/N=c4/ccc(Br)c[n-]4)c3)cc21 (cis-trans isomerization)
Cn1c(=O)[n-]c2ncc(-c3cccc([N-]C(=O)/N=c4/ccc(Br)c[n-]4)c3)cc21 (3D coordinates assigned)
Cn1c(=O)[n-]c2ncc(-c3cccc([N-]C(=O)/N=c4/ccc(Br)c[n-]4)c3)cc21 (optimized conformer: 98.37204383610539 kcal/mol)

>  <smiles>  (84) 
Cn1c(=O)[nH]c2ncc(-c3cccc(NC(=O)N=c4ccc(Br)c[nH]4)c3)cc21

>  <score_type>  (84) 
oracle

>  <origin>  (84) 
adg

>  <m_score__min__energy>  (84) 
-12.58

>  <m_primary>  (84) 
energy

$$$$
84:0
     RDKit          3D

 66 70  0  0  0  0  0  0  0  0999 V2000
   60.7230   25.6730   46.6400 O   0  0  0  0  0  0  0  0  0  0  0  0
   60.1540   26.6570   47.1810 C   0  0  0  0  0  0  0  0  0  0  0  0
   60.1860   26.7710   48.6090 N   0  0  0  0  0  0  0  0  0  0  0  0
   60.7110   27.8910   49.3350 C   0  0  0  0  0  0  0  0  0  0  0  0
   61.1140   27.7680   50.6760 C   0  0  0  0  0  0  0  0  0  0  0  0
   61.6070   28.8790   51.3650 C   0  0  0  0  0  0  0  0  0  0  0  0
   61.6980   30.1170   50.7240 C   0  0  0  0  0  0  0  0  0  0  0  0
   61.3120   30.2450   49.3810 C   0  0  0  0  0  0  0  0  0  0  0  0
   61.3450   31.8160   48.5830 S   0  0  0  0  0  0  0  0  0  0  0  0
   62.5010   32.6230   49.1050 O   0  0  0  0  0  0  0  0  0  0  0  0
   61.5350   31.6050   47.1060 O   0  0  0  0  0  0  0  0  0  0  0  0
   59.8270   32.6380   48.8890 N   0  0  0  0  0  0  0  0  0  0  0  0
   58.7810   31.6900   49.3760 C   0  0  0  0  0  0  0  0  0  0  0  0
   58.2990   31.9660   50.8110 C   0  0  0  0  0  0  0  0  0  0  0  0
   59.4800   32.2720   51.7290 C   0  0  0  0  0  0  0  0  0  0  0  0
   60.3090   33.4650   51.2210 C   0  0  0  0  0  0  0  0  0  0  0  0
   60.0180   33.8250   49.7510 C   0  0  0  0  0  0  0  0  0  0  0  0
   60.8340   29.1260   48.6880 C   0  0  0  0  0  0  0  0  0  0  0  0
   59.5030   27.6840   46.3310 C   0  0  0  0  0  0  0  0  0  0  0  0
   60.2650   28.4520   45.4070 C   0  0  0  0  0  0  0  0  0  0  0  0
   59.6490   29.4150   44.5870 C   0  0  0  0  0  0  0  0  0  0  0  0
   58.2690   29.5740   44.6990 C   0  0  0  0  0  0  0  0  0  0  0  0
   57.5260   28.8230   45.5660 C   0  0  0  0  0  0  0  0  0  0  0  0
   58.1020   27.8710   46.4020 C   0  0  0  0  0  0  0  0  0  0  0  0
   56.2600   29.1400   45.4390 O   0  0  0  0  0  0  0  0  0  0  0  0
   56.2180   30.0690   44.4990 C   0  0  0  0  0  0  0  0  0  0  0  0
   55.1490   30.5990   44.0970 O   0  0  0  0  0  0  0  0  0  0  0  0
   57.4440   30.3810   44.0060 N   0  0  0  0  0  0  0  0  0  0  0  0
   57.7640   31.3020   42.9150 C   0  0  0  0  0  0  0  0  0  0  0  0
   58.0970   32.7030   43.4420 C   0  0  0  0  0  0  0  0  0  0  0  0
   58.2830   32.6800   44.9130 N   0  0  0  0  0  0  0  0  0  0  0  0
   59.5250   33.3690   45.3530 C   0  0  0  0  0  0  0  0  0  0  0  0
   59.2280   34.6600   46.1330 C   0  0  0  0  0  0  0  0  0  0  0  0
   58.4510   34.4180   47.2920 O   0  0  0  0  0  0  0  0  0  0  0  0
   57.4010   33.4770   47.0920 C   0  0  0  0  0  0  0  0  0  0  0  0
   57.0800   33.1650   45.6180 C   0  0  0  0  0  0  0  0  0  0  0  0
   61.0411   26.7951   51.1840 H   0  0  0  0  0  0  0  0  0  0  0  0
   61.9239   28.7788   52.4136 H   0  0  0  0  0  0  0  0  0  0  0  0
   62.0730   30.9932   51.2732 H   0  0  0  0  0  0  0  0  0  0  0  0
   59.5140   32.9980   47.9570 H   0  0  0  0  0  0  0  0  0  0  0  0
   57.9142   31.7567   48.7020 H   0  0  0  0  0  0  0  0  0  0  0  0
   59.2391   30.6900   49.3831 H   0  0  0  0  0  0  0  0  0  0  0  0
   57.6157   32.8280   50.8026 H   0  0  0  0  0  0  0  0  0  0  0  0
   57.7815   31.0715   51.1878 H   0  0  0  0  0  0  0  0  0  0  0  0
   59.0979   32.5067   52.7335 H   0  0  0  0  0  0  0  0  0  0  0  0
   60.1335   31.3874   51.7494 H   0  0  0  0  0  0  0  0  0  0  0  0
   60.0815   34.3405   51.8469 H   0  0  0  0  0  0  0  0  0  0  0  0
   61.3687   33.1765   51.2831 H   0  0  0  0  0  0  0  0  0  0  0  0
   59.1032   34.4348   49.7145 H   0  0  0  0  0  0  0  0  0  0  0  0
   60.8928   34.3708   49.3679 H   0  0  0  0  0  0  0  0  0  0  0  0
   60.5534   29.2182   47.6284 H   0  0  0  0  0  0  0  0  0  0  0  0
   61.3506   28.2906   45.3328 H   0  0  0  0  0  0  0  0  0  0  0  0
   60.2363   30.0215   43.8818 H   0  0  0  0  0  0  0  0  0  0  0  0
   57.4865   27.2814   47.0974 H   0  0  0  0  0  0  0  0  0  0  0  0
   58.6312   30.9128   42.3614 H   0  0  0  0  0  0  0  0  0  0  0  0
   56.8840   31.3798   42.2596 H   0  0  0  0  0  0  0  0  0  0  0  0
   59.0237   33.0567   42.9665 H   0  0  0  0  0  0  0  0  0  0  0  0
   57.2626   33.3784   43.2019 H   0  0  0  0  0  0  0  0  0  0  0  0
   60.0976   32.6881   45.9999 H   0  0  0  0  0  0  0  0  0  0  0  0
   60.0964   33.6419   44.4535 H   0  0  0  0  0  0  0  0  0  0  0  0
   60.1811   35.1187   46.4349 H   0  0  0  0  0  0  0  0  0  0  0  0
   58.6532   35.3278   45.4744 H   0  0  0  0  0  0  0  0  0  0  0  0
   57.6868   32.5365   47.5857 H   0  0  0  0  0  0  0  0  0  0  0  0
   56.4938   33.9334   47.5148 H   0  0  0  0  0  0  0  0  0  0  0  0
   56.2995   32.3911   45.5745 H   0  0  0  0  0  0  0  0  0  0  0  0
   56.7314   34.0868   45.1293 H   0  0  0  0  0  0  0  0  0  0  0  0
  1  2  2  0
  2  3  1  0
  3  4  1  0
  4  5  2  0
  5  6  1  0
  6  7  2  0
  7  8  1  0
  8  9  1  0
  9 10  2  0
  9 11  2  0
  9 12  1  0
 12 13  1  0
 13 14  1  0
 14 15  1  0
 15 16  1  0
 16 17  1  0
  8 18  2  0
  2 19  1  0
 19 20  2  0
 20 21  1  0
 21 22  2  0
 22 23  1  0
 23 24  2  0
 23 25  1  0
 25 26  1  0
 26 27  2  0
 26 28  1  0
 28 29  1  0
 29 30  1  0
 30 31  1  0
 31 32  1  0
 32 33  1  0
 33 34  1  0
 34 35  1  0
 35 36  1  0
 18  4  1  0
 24 19  1  0
 36 31  1  0
 17 12  1  0
 28 22  1  0
  5 37  1  0
  6 38  1  0
  7 39  1  0
 12 40  1  0
 13 41  1  0
 13 42  1  0
 14 43  1  0
 14 44  1  0
 15 45  1  0
 15 46  1  0
 16 47  1  0
 16 48  1  0
 17 49  1  0
 17 50  1  0
 18 51  1  0
 20 52  1  0
 21 53  1  0
 24 54  1  0
 29 55  1  0
 29 56  1  0
 30 57  1  0
 30 58  1  0
 32 59  1  0
 32 60  1  0
 33 61  1  0
 33 62  1  0
 35 63  1  0
 35 64  1  0
 36 65  1  0
 36 66  1  0
M  CHG  2   3  -1  12   1
M  END
>  <UniqueID>  (85) 
80

>  <SMILES>  (85) 
O=C([N-]c1cccc(S(=O)(=O)[NH+]2CCCCC2)c1)c1ccc2c(c1)oc(=O)n2CCN1CCOCC1

>  <Energy>  (85) 
137.35407656121257

>  <Genealogy>  (85) 
O=C([N-]c1cccc(S(=O)(=O)[NH+]2CCCCC2)c1)c1ccc2c(c1)oc(=O)n2CCN1CCOCC1 (protonated)
O=C([N-]c1cccc(S(=O)(=O)[NH+]2CCCCC2)c1)c1ccc2c(c1)oc(=O)n2CCN1CCOCC1 (3D coordinates assigned)
O=C([N-]c1cccc(S(=O)(=O)[NH+]2CCCCC2)c1)c1ccc2c(c1)oc(=O)n2CCN1CCOCC1 (nonaromatic ring conformer: 137.35407656121257 kcal/mol)

>  <smiles>  (85) 
O=C(Nc1cccc(S(=O)(=O)N2CCCCC2)c1)c1ccc2c(c1)oc(=O)n2CCN1CCOCC1

>  <score_type>  (85) 
oracle

>  <origin>  (85) 
adg

>  <m_score__min__energy>  (85) 
-11.56

>  <m_primary>  (85) 
energy

$$$$
85:0
     RDKit          3D

 38 40  0  0  0  0  0  0  0  0999 V2000
   58.0450   27.3610   43.7440 O   0  0  0  0  0  0  0  0  0  0  0  0
   57.5260   27.7010   44.8400 C   0  0  0  0  0  0  0  0  0  0  0  0
   58.0450   27.1240   46.1160 C   0  0  0  0  0  0  0  0  0  0  0  0
   57.2720   25.8870   46.4480 C   0  0  0  0  0  0  0  0  0  0  0  0
   57.8320   24.7100   46.7780 N   0  0  0  0  0  0  0  0  0  0  0  0
   56.7720   23.8820   46.9000 C   0  0  0  0  0  0  0  0  0  0  0  0
   56.8930   22.6680   47.2080 O   0  0  0  0  0  0  0  0  0  0  0  0
   55.5740   24.4560   46.6580 N   0  0  0  0  0  0  0  0  0  0  0  0
   55.9090   25.7250   46.3690 C   0  0  0  0  0  0  0  0  0  0  0  0
   54.9910   26.7160   46.0330 O   0  0  0  0  0  0  0  0  0  0  0  0
   56.3880   28.5640   44.8660 N   0  0  0  0  0  0  0  0  0  0  0  0
   56.4790   30.2060   44.3350 S   0  0  0  0  0  0  0  0  0  0  0  0
   56.8880   30.2430   42.8900 O   0  0  0  0  0  0  0  0  0  0  0  0
   55.1370   30.8670   44.4740 O   0  0  0  0  0  0  0  0  0  0  0  0
   57.6900   31.0280   45.3110 C   0  0  0  0  0  0  0  0  0  0  0  0
   58.3790   30.3400   46.3170 C   0  0  0  0  0  0  0  0  0  0  0  0
   59.3970   30.9750   47.0340 C   0  0  0  0  0  0  0  0  0  0  0  0
   59.7380   32.3100   46.7540 C   0  0  0  0  0  0  0  0  0  0  0  0
   60.8370   32.9710   47.4980 C   0  0  0  0  0  0  0  0  0  0  0  0
   62.1610   32.8540   47.0340 C   0  0  0  0  0  0  0  0  0  0  0  0
   63.2070   33.4830   47.7130 C   0  0  0  0  0  0  0  0  0  0  0  0
   62.9460   34.2300   48.8630 C   0  0  0  0  0  0  0  0  0  0  0  0
   61.6380   34.3500   49.3370 C   0  0  0  0  0  0  0  0  0  0  0  0
   60.5840   33.7210   48.6650 C   0  0  0  0  0  0  0  0  0  0  0  0
   59.2950   33.8280   49.1760 O   0  0  0  0  0  0  0  0  0  0  0  0
   59.0490   32.9930   45.7390 C   0  0  0  0  0  0  0  0  0  0  0  0
   58.0320   32.3550   45.0220 C   0  0  0  0  0  0  0  0  0  0  0  0
   59.1095   26.8723   45.9996 H   0  0  0  0  0  0  0  0  0  0  0  0
   57.9314   27.8589   46.9266 H   0  0  0  0  0  0  0  0  0  0  0  0
   55.2360   27.4380   45.3670 H   0  0  0  0  0  0  0  0  0  0  0  0
   58.1182   29.2958   46.5440 H   0  0  0  0  0  0  0  0  0  0  0  0
   59.9345   30.4271   47.8219 H   0  0  0  0  0  0  0  0  0  0  0  0
   62.3731   32.2633   46.1307 H   0  0  0  0  0  0  0  0  0  0  0  0
   64.2380   33.3896   47.3410 H   0  0  0  0  0  0  0  0  0  0  0  0
   63.7713   34.7245   49.3962 H   0  0  0  0  0  0  0  0  0  0  0  0
   61.4354   34.9413   50.2422 H   0  0  0  0  0  0  0  0  0  0  0  0
   59.3107   34.0358   45.5065 H   0  0  0  0  0  0  0  0  0  0  0  0
   57.4984   32.8976   44.2277 H   0  0  0  0  0  0  0  0  0  0  0  0
  1  2  2  0
  2  3  1  0
  3  4  1  0
  4  5  1  0
  5  6  1  0
  6  7  2  0
  6  8  1  0
  8  9  1  0
  9 10  1  0
  2 11  1  0
 11 12  1  0
 12 13  2  0
 12 14  2  0
 12 15  1  0
 15 16  2  0
 16 17  1  0
 17 18  2  0
 18 19  1  0
 19 20  2  0
 20 21  1  0
 21 22  2  0
 22 23  1  0
 23 24  2  0
 24 25  1  0
 18 26  1  0
 26 27  2  0
  9  4  2  0
 27 15  1  0
 24 19  1  0
  3 28  1  0
  3 29  1  0
 10 30  1  0
 16 31  1  0
 17 32  1  0
 20 33  1  0
 21 34  1  0
 22 35  1  0
 23 36  1  0
 26 37  1  0
 27 38  1  0
M  CHG  4   5  -1   8  -1  11  -1  25  -1
M  END
>  <UniqueID>  (86) 
81

>  <SMILES>  (86) 
O=C(Cc1[n-]c(=O)[n-]c1O)[N-]S(=O)(=O)c1ccc(-c2ccccc2[O-])cc1

>  <Energy>  (86) 
74.80898646878585

>  <Genealogy>  (86) 
O=C(Cc1[n-]c(=O)[n-]c1O)[N-]S(=O)(=O)c1ccc(-c2ccccc2[O-])cc1 (protonated)
O=C(Cc1[n-]c(=O)[n-]c1O)[N-]S(=O)(=O)c1ccc(-c2ccccc2[O-])cc1 (3D coordinates assigned)
O=C(Cc1[n-]c(=O)[n-]c1O)[N-]S(=O)(=O)c1ccc(-c2ccccc2[O-])cc1 (optimized conformer: 74.80898646878585 kcal/mol)

>  <smiles>  (86) 
O=C(Cc1[nH]c(=O)[nH]c1O)NS(=O)(=O)c1ccc(-c2ccccc2O)cc1

>  <score_type>  (86) 
oracle

>  <origin>  (86) 
adg

>  <m_score__min__energy>  (86) 
-15.82

>  <m_primary>  (86) 
energy

$$$$
86:0
     RDKit          3D

 34 36  0  0  0  0  0  0  0  0999 V2000
   56.0750   31.1780   44.5360 O   0  0  0  0  0  0  0  0  0  0  0  0
   57.2990   31.4400   44.6890 C   0  0  0  0  0  0  0  0  0  0  0  0
   57.7510   32.8670   44.7050 C   0  0  0  0  0  0  0  0  0  0  0  0
   58.0960   33.2800   46.0620 N   0  0  0  0  0  0  0  0  0  0  0  0
   59.2990   33.9610   46.4470 C   0  0  0  0  0  0  0  0  0  0  0  0
   59.2950   35.2190   46.4960 O   0  0  0  0  0  0  0  0  0  0  0  0
   60.5300   33.2330   46.8100 C   0  0  0  0  0  0  0  0  0  0  0  0
   61.7760   33.8770   46.7330 C   0  0  0  0  0  0  0  0  0  0  0  0
   62.9460   33.1950   47.0800 C   0  0  0  0  0  0  0  0  0  0  0  0
   62.8800   31.8710   47.5180 C   0  0  0  0  0  0  0  0  0  0  0  0
   61.6450   31.2240   47.6100 C   0  0  0  0  0  0  0  0  0  0  0  0
   60.4660   31.9000   47.2600 C   0  0  0  0  0  0  0  0  0  0  0  0
   59.2360   31.2460   47.3430 O   0  0  0  0  0  0  0  0  0  0  0  0
   58.2510   30.3980   44.9370 N   0  0  0  0  0  0  0  0  0  0  0  0
   57.9740   29.0080   45.1610 C   0  0  0  0  0  0  0  0  0  0  0  0
   58.9960   28.0200   45.1380 C   0  0  0  0  0  0  0  0  0  0  0  0
   58.6900   26.6670   45.3730 C   0  0  0  0  0  0  0  0  0  0  0  0
   57.3640   26.3400   45.6400 C   0  0  0  0  0  0  0  0  0  0  0  0
   56.8540   25.1260   45.8970 N   0  0  0  0  0  0  0  0  0  0  0  0
   55.5400   25.4070   46.0910 C   0  0  0  0  0  0  0  0  0  0  0  0
   54.6940   24.5160   46.3630 O   0  0  0  0  0  0  0  0  0  0  0  0
   55.2030   26.7170   45.9730 N   0  0  0  0  0  0  0  0  0  0  0  0
   56.3840   27.2830   45.6860 C   0  0  0  0  0  0  0  0  0  0  0  0
   56.6480   28.6310   45.4610 C   0  0  0  0  0  0  0  0  0  0  0  0
   58.6346   32.9739   44.0586 H   0  0  0  0  0  0  0  0  0  0  0  0
   56.9323   33.5031   44.3374 H   0  0  0  0  0  0  0  0  0  0  0  0
   61.8314   34.9233   46.3980 H   0  0  0  0  0  0  0  0  0  0  0  0
   63.9195   33.7020   47.0079 H   0  0  0  0  0  0  0  0  0  0  0  0
   63.8017   31.3363   47.7911 H   0  0  0  0  0  0  0  0  0  0  0  0
   61.5967   30.1816   47.9578 H   0  0  0  0  0  0  0  0  0  0  0  0
   58.5850   31.2400   46.5660 H   0  0  0  0  0  0  0  0  0  0  0  0
   60.0357   28.3161   44.9346 H   0  0  0  0  0  0  0  0  0  0  0  0
   59.4722   25.8940   45.3466 H   0  0  0  0  0  0  0  0  0  0  0  0
   55.8454   29.3812   45.5156 H   0  0  0  0  0  0  0  0  0  0  0  0
  1  2  2  0
  2  3  1  0
  3  4  1  0
  4  5  1  0
  5  6  2  0
  5  7  1  0
  7  8  2  0
  8  9  1  0
  9 10  2  0
 10 11  1  0
 11 12  2  0
 12 13  1  0
  2 14  1  0
 14 15  1  0
 15 16  2  0
 16 17  1  0
 17 18  2  0
 18 19  1  0
 19 20  1  0
 20 21  2  0
 20 22  1  0
 22 23  1  0
 23 24  2  0
 12  7  1  0
 24 15  1  0
 23 18  1  0
  3 25  1  0
  3 26  1  0
  8 27  1  0
  9 28  1  0
 10 29  1  0
 11 30  1  0
 13 31  1  0
 16 32  1  0
 17 33  1  0
 24 34  1  0
M  CHG  4   4  -1  14  -1  19  -1  22  -1
M  END
>  <UniqueID>  (87) 
82

>  <SMILES>  (87) 
O=C(C[N-]C(=O)c1ccccc1O)[N-]c1ccc2[n-]c(=O)[n-]c2c1

>  <Energy>  (87) 
76.58049743689172

>  <Genealogy>  (87) 
O=C(C[N-]C(=O)c1ccccc1O)[N-]c1ccc2[n-]c(=O)[n-]c2c1 (protonated)
O=C(C[N-]C(=O)c1ccccc1O)[N-]c1ccc2[n-]c(=O)[n-]c2c1 (3D coordinates assigned)
O=C(C[N-]C(=O)c1ccccc1O)[N-]c1ccc2[n-]c(=O)[n-]c2c1 (optimized conformer: 76.58049743689172 kcal/mol)

>  <smiles>  (87) 
O=C(CNC(=O)c1ccccc1O)Nc1ccc2[nH]c(=O)[nH]c2c1

>  <score_type>  (87) 
oracle

>  <origin>  (87) 
adg

>  <m_score__min__energy>  (87) 
-12.890000000000001

>  <m_primary>  (87) 
energy

$$$$
87:0
     RDKit          3D

 50 52  0  0  0  0  0  0  0  0999 V2000
   56.8890   26.9390   45.6400 C   0  0  0  0  0  0  0  0  0  0  0  0
   56.2560   28.2090   45.5240 O   0  0  0  0  0  0  0  0  0  0  0  0
   56.7700   29.2910   44.7910 C   0  0  0  0  0  0  0  0  0  0  0  0
   56.1800   29.7210   43.5860 C   0  0  0  0  0  0  0  0  0  0  0  0
   56.7220   30.7960   42.8790 C   0  0  0  0  0  0  0  0  0  0  0  0
   57.8530   31.4540   43.3610 C   0  0  0  0  0  0  0  0  0  0  0  0
   58.4480   31.0400   44.5530 C   0  0  0  0  0  0  0  0  0  0  0  0
   57.9120   29.9630   45.2790 C   0  0  0  0  0  0  0  0  0  0  0  0
   58.5770   29.5140   46.5570 C   0  0  0  0  0  0  0  0  0  0  0  0
   58.8290   30.6220   47.3990 O   0  0  0  0  0  0  0  0  0  0  0  0
   59.4700   30.2020   48.5870 C   0  0  0  0  0  0  0  0  0  0  0  0
   60.9740   30.1080   48.3430 C   0  0  0  0  0  0  0  0  0  0  0  0
   61.6880   31.1390   49.1300 N   0  0  0  0  0  0  0  0  0  0  0  0
   60.7860   32.1990   49.6420 C   0  0  0  0  0  0  0  0  0  0  0  0
   60.6780   33.4140   48.6970 C   0  0  0  0  0  0  0  0  0  0  0  0
   60.9690   33.0090   47.3110 N   0  0  0  0  0  0  0  0  0  0  0  0
   60.6680   34.1080   46.3730 C   0  0  0  0  0  0  0  0  0  0  0  0
   59.2100   34.1060   46.0120 C   0  0  0  0  0  0  0  0  0  0  0  0
   58.6880   34.8370   44.9480 C   0  0  0  0  0  0  0  0  0  0  0  0
   57.0390   34.5110   44.8700 S   0  0  0  0  0  0  0  0  0  0  0  0
   57.0530   33.4570   46.1790 C   0  0  0  0  0  0  0  0  0  0  0  0
   58.3010   33.3450   46.6810 N   0  0  0  0  0  0  0  0  0  0  0  0
   62.3760   32.5640   47.1860 C   0  0  0  0  0  0  0  0  0  0  0  0
   62.8310   31.7160   48.3950 C   0  0  0  0  0  0  0  0  0  0  0  0
   57.0143   26.6876   46.7035 H   0  0  0  0  0  0  0  0  0  0  0  0
   56.2670   26.1735   45.1531 H   0  0  0  0  0  0  0  0  0  0  0  0
   57.8747   26.9748   45.1531 H   0  0  0  0  0  0  0  0  0  0  0  0
   55.2874   29.2069   43.2001 H   0  0  0  0  0  0  0  0  0  0  0  0
   56.2554   31.1250   41.9388 H   0  0  0  0  0  0  0  0  0  0  0  0
   58.2766   32.3005   42.8007 H   0  0  0  0  0  0  0  0  0  0  0  0
   59.3424   31.5600   44.9268 H   0  0  0  0  0  0  0  0  0  0  0  0
   57.9173   28.8052   47.0789 H   0  0  0  0  0  0  0  0  0  0  0  0
   59.5333   29.0298   46.3098 H   0  0  0  0  0  0  0  0  0  0  0  0
   59.2725   30.9296   49.3880 H   0  0  0  0  0  0  0  0  0  0  0  0
   59.0830   29.2166   48.8858 H   0  0  0  0  0  0  0  0  0  0  0  0
   61.3288   29.1113   48.6442 H   0  0  0  0  0  0  0  0  0  0  0  0
   61.1738   30.2721   47.2738 H   0  0  0  0  0  0  0  0  0  0  0  0
   59.7821   31.7695   49.7753 H   0  0  0  0  0  0  0  0  0  0  0  0
   61.2106   32.5594   50.5906 H   0  0  0  0  0  0  0  0  0  0  0  0
   59.6590   33.8250   48.7489 H   0  0  0  0  0  0  0  0  0  0  0  0
   61.4073   34.1764   49.0084 H   0  0  0  0  0  0  0  0  0  0  0  0
   60.9226   35.0679   46.8461 H   0  0  0  0  0  0  0  0  0  0  0  0
   61.2617   33.9676   45.4577 H   0  0  0  0  0  0  0  0  0  0  0  0
   59.2510   35.5057   44.2802 H   0  0  0  0  0  0  0  0  0  0  0  0
   56.1695   32.9323   46.5714 H   0  0  0  0  0  0  0  0  0  0  0  0
   58.5400   32.7330   47.4920 H   0  0  0  0  0  0  0  0  0  0  0  0
   62.4764   31.9600   46.2721 H   0  0  0  0  0  0  0  0  0  0  0  0
   63.0110   33.4613   47.1455 H   0  0  0  0  0  0  0  0  0  0  0  0
   63.4701   30.8970   48.0334 H   0  0  0  0  0  0  0  0  0  0  0  0
   63.3790   32.3753   49.0842 H   0  0  0  0  0  0  0  0  0  0  0  0
  1  2  1  0
  2  3  1  0
  3  4  2  0
  4  5  1  0
  5  6  2  0
  6  7  1  0
  7  8  2  0
  8  9  1  0
  9 10  1  0
 10 11  1  0
 11 12  1  0
 12 13  1  0
 13 14  1  0
 14 15  1  0
 15 16  1  0
 16 17  1  0
 17 18  1  0
 18 19  2  0
 19 20  1  0
 20 21  1  0
 21 22  2  0
 16 23  1  0
 23 24  1  0
  8  3  1  0
 24 13  1  0
 22 18  1  0
  1 25  1  0
  1 26  1  0
  1 27  1  0
  4 28  1  0
  5 29  1  0
  6 30  1  0
  7 31  1  0
  9 32  1  0
  9 33  1  0
 11 34  1  0
 11 35  1  0
 12 36  1  0
 12 37  1  0
 14 38  1  0
 14 39  1  0
 15 40  1  0
 15 41  1  0
 17 42  1  0
 17 43  1  0
 19 44  1  0
 21 45  1  0
 22 46  1  0
 23 47  1  0
 23 48  1  0
 24 49  1  0
 24 50  1  0
M  CHG  1  22   1
M  END
>  <UniqueID>  (88) 
83

>  <SMILES>  (88) 
COc1ccccc1COCCN1CCN(Cc2csc[nH+]2)CC1

>  <Energy>  (88) 
89.72094673997147

>  <Genealogy>  (88) 
COc1ccccc1COCCN1CCN(Cc2csc[nH+]2)CC1 (protonated)
COc1ccccc1COCCN1CCN(Cc2csc[nH+]2)CC1 (3D coordinates assigned)
COc1ccccc1COCCN1CCN(Cc2csc[nH+]2)CC1 (nonaromatic ring conformer: 89.72094673997147 kcal/mol)

>  <smiles>  (88) 
COc1ccccc1COCCN1CCN(Cc2cscn2)CC1

>  <score_type>  (88) 
oracle

>  <origin>  (88) 
adg

>  <m_score__min__energy>  (88) 
-6.75

>  <m_primary>  (88) 
energy

$$$$
88:0
     RDKit          3D

 56 58  0  0  0  0  0  0  0  0999 V2000
   56.7010   23.1060   43.7300 C   0  0  0  0  0  0  0  0  0  0  0  0
   56.4060   24.2800   44.6010 C   0  0  0  0  0  0  0  0  0  0  0  0
   55.2500   24.5210   45.3170 C   0  0  0  0  0  0  0  0  0  0  0  0
   55.4010   25.6550   46.0290 N   0  0  0  0  0  0  0  0  0  0  0  0
   56.6190   26.1160   45.7920 N   0  0  0  0  0  0  0  0  0  0  0  0
   57.1450   27.3520   46.3640 C   0  0  0  0  0  0  0  0  0  0  0  0
   58.6540   27.4780   46.1120 C   0  0  0  0  0  0  0  0  0  0  0  0
   59.4430   27.8620   47.3660 C   0  0  0  0  0  0  0  0  0  0  0  0
   58.5820   28.5590   48.3150 N   0  0  0  0  0  0  0  0  0  0  0  0
   59.0130   29.6000   49.2010 C   0  0  0  0  0  0  0  0  0  0  0  0
   58.7060   29.5200   50.4200 O   0  0  0  0  0  0  0  0  0  0  0  0
   59.8730   30.7490   48.7310 C   0  0  0  0  0  0  0  0  0  0  0  0
   59.0770   32.0620   48.6170 C   0  0  1  0  0  0  0  0  0  0  0  0
   59.2800   32.8860   49.8580 C   0  0  0  0  0  0  0  0  0  0  0  0
   58.6140   32.6300   50.8970 O   0  0  0  0  0  0  0  0  0  0  0  0
   60.2780   33.9060   49.8950 N   0  0  0  0  0  0  0  0  0  0  0  0
   60.7940   34.5180   48.6770 C   0  0  0  0  0  0  0  0  0  0  0  0
   60.7390   33.5580   47.4790 C   0  0  0  0  0  0  0  0  0  0  0  0
   59.4730   32.7990   47.3960 N   0  0  0  0  0  0  0  0  0  0  0  0
   58.3750   33.4430   46.6390 C   0  0  0  0  0  0  0  0  0  0  0  0
   58.0460   32.7550   45.3350 C   0  0  0  0  0  0  0  0  0  0  0  0
   58.4080   33.3490   44.1150 C   0  0  0  0  0  0  0  0  0  0  0  0
   58.1080   32.7180   42.9060 C   0  0  0  0  0  0  0  0  0  0  0  0
   57.4520   31.4850   42.9030 C   0  0  0  0  0  0  0  0  0  0  0  0
   57.0940   30.8630   44.1130 C   0  0  0  0  0  0  0  0  0  0  0  0
   56.4010   29.5540   44.1120 C   0  0  0  0  0  0  0  0  0  0  0  0
   55.2070   29.3650   44.8690 N   0  0  0  0  0  0  0  0  0  0  0  0
   56.8610   28.5900   43.4420 O   0  0  0  0  0  0  0  0  0  0  0  0
   57.4080   31.5030   45.3260 C   0  0  0  0  0  0  0  0  0  0  0  0
   57.2630   25.3040   44.9350 C   0  0  0  0  0  0  0  0  0  0  0  0
   56.9211   22.2299   44.3577 H   0  0  0  0  0  0  0  0  0  0  0  0
   55.8287   22.8922   43.0949 H   0  0  0  0  0  0  0  0  0  0  0  0
   57.5708   23.3300   43.0949 H   0  0  0  0  0  0  0  0  0  0  0  0
   54.3501   23.8885   45.3076 H   0  0  0  0  0  0  0  0  0  0  0  0
   56.6309   28.2085   45.9034 H   0  0  0  0  0  0  0  0  0  0  0  0
   56.9718   27.3362   47.4502 H   0  0  0  0  0  0  0  0  0  0  0  0
   59.0293   26.5114   45.7447 H   0  0  0  0  0  0  0  0  0  0  0  0
   58.7971   28.2826   45.3757 H   0  0  0  0  0  0  0  0  0  0  0  0
   59.8395   26.9509   47.8379 H   0  0  0  0  0  0  0  0  0  0  0  0
   60.2691   28.5286   47.0776 H   0  0  0  0  0  0  0  0  0  0  0  0
   60.6941   30.8936   49.4485 H   0  0  0  0  0  0  0  0  0  0  0  0
   60.2553   30.4977   47.7307 H   0  0  0  0  0  0  0  0  0  0  0  0
   58.0039   31.8365   48.5300 H   0  0  0  0  0  0  0  0  0  0  0  0
   60.4640   34.3900   50.8020 H   0  0  0  0  0  0  0  0  0  0  0  0
   60.1919   35.4090   48.4453 H   0  0  0  0  0  0  0  0  0  0  0  0
   61.8476   34.7820   48.8510 H   0  0  0  0  0  0  0  0  0  0  0  0
   60.8557   34.1446   46.5558 H   0  0  0  0  0  0  0  0  0  0  0  0
   61.5498   32.8263   47.6101 H   0  0  0  0  0  0  0  0  0  0  0  0
   57.4730   33.4419   47.2686 H   0  0  0  0  0  0  0  0  0  0  0  0
   58.7130   34.4592   46.3879 H   0  0  0  0  0  0  0  0  0  0  0  0
   58.9308   34.3168   44.1118 H   0  0  0  0  0  0  0  0  0  0  0  0
   58.3888   33.1928   41.9543 H   0  0  0  0  0  0  0  0  0  0  0  0
   57.2133   30.9963   41.9469 H   0  0  0  0  0  0  0  0  0  0  0  0
   55.1630   28.6480   45.6270 H   0  0  0  0  0  0  0  0  0  0  0  0
   57.1509   31.0174   46.2789 H   0  0  0  0  0  0  0  0  0  0  0  0
   58.2912   25.4348   44.5667 H   0  0  0  0  0  0  0  0  0  0  0  0
  1  2  1  0
  2  3  1  0
  3  4  2  0
  4  5  1  0
  5  6  1  0
  6  7  1  0
  7  8  1  0
  8  9  1  0
  9 10  1  0
 10 11  2  0
 10 12  1  0
 12 13  1  0
 13 14  1  0
 14 15  2  0
 14 16  1  0
 16 17  1  0
 17 18  1  0
 18 19  1  0
 19 20  1  0
 20 21  1  0
 21 22  2  0
 22 23  1  0
 23 24  2  0
 24 25  1  0
 25 26  1  0
 26 27  1  0
 26 28  2  0
 25 29  2  0
  5 30  1  0
 30  2  2  0
 19 13  1  0
 29 21  1  0
  1 31  1  0
  1 32  1  0
  1 33  1  0
  3 34  1  0
  6 35  1  0
  6 36  1  0
  7 37  1  0
  7 38  1  0
  8 39  1  0
  8 40  1  0
 12 41  1  0
 12 42  1  0
 13 43  1  6
 16 44  1  0
 17 45  1  0
 17 46  1  0
 18 47  1  0
 18 48  1  0
 20 49  1  0
 20 50  1  0
 22 51  1  0
 23 52  1  0
 24 53  1  0
 27 54  1  0
 29 55  1  0
 30 56  1  0
M  CHG  2   9  -1  27  -1
M  END
>  <UniqueID>  (89) 
84

>  <SMILES>  (89) 
Cc1cnn(CCC[N-]C(=O)C[C@H]2C(=O)NCCN2Cc2cccc(C([NH-])=O)c2)c1

>  <Energy>  (89) 
85.37485657131344

>  <Genealogy>  (89) 
Cc1cnn(CCC[N-]C(=O)CC2C(=O)NCCN2Cc2cccc(C([NH-])=O)c2)c1 (protonated)
Cc1cnn(CCC[N-]C(=O)C[C@H]2C(=O)NCCN2Cc2cccc(C([NH-])=O)c2)c1 (chirality)
Cc1cnn(CCC[N-]C(=O)C[C@H]2C(=O)NCCN2Cc2cccc(C([NH-])=O)c2)c1 (3D coordinates assigned)
Cc1cnn(CCC[N-]C(=O)C[C@H]2C(=O)NCCN2Cc2cccc(C([NH-])=O)c2)c1 (nonaromatic ring conformer: 85.37485657131344 kcal/mol)

>  <smiles>  (89) 
Cc1cnn(CCCNC(=O)CC2C(=O)NCCN2Cc2cccc(C(N)=O)c2)c1

>  <score_type>  (89) 
oracle

>  <origin>  (89) 
adg

>  <m_score__min__energy>  (89) 
-13.08

>  <m_primary>  (89) 
energy

$$$$
89:0
     RDKit          3D

 47 49  0  0  0  0  0  0  0  0999 V2000
   60.5250   28.9570   44.7080 C   0  0  0  0  0  0  0  0  0  0  0  0
   60.0170   29.2000   46.0700 N   0  0  0  0  0  0  0  0  0  0  0  0
   58.8400   28.6270   46.4930 C   0  0  0  0  0  0  0  0  0  0  0  0
   57.8760   27.5150   45.4510 S   0  0  0  0  0  0  0  0  0  0  0  0
   57.4220   28.7970   44.2300 C   0  0  0  0  0  0  0  0  0  0  0  0
   56.3850   29.7280   44.7900 C   0  0  0  0  0  0  0  0  0  0  0  0
   55.1890   29.3400   44.8490 O   0  0  0  0  0  0  0  0  0  0  0  0
   56.6960   31.0660   45.2050 N   0  0  0  0  0  0  0  0  0  0  0  0
   57.6500   31.9690   44.5630 C   0  0  0  0  0  0  0  0  0  0  0  0
   58.8760   32.1710   45.4550 C   0  0  0  0  0  0  0  0  0  0  0  0
   59.3440   33.5520   45.3540 N   0  0  0  0  0  0  0  0  0  0  0  0
   59.5500   34.2400   46.9360 S   0  0  0  0  0  0  0  0  0  0  0  0
   58.5630   33.6100   47.8800 O   0  0  0  0  0  0  0  0  0  0  0  0
   59.2720   35.7170   46.8660 O   0  0  0  0  0  0  0  0  0  0  0  0
   61.1810   33.9490   47.5380 C   0  0  0  0  0  0  0  0  0  0  0  0
   61.4970   34.1880   48.8830 C   0  0  0  0  0  0  0  0  0  0  0  0
   62.7900   33.9380   49.3560 C   0  0  0  0  0  0  0  0  0  0  0  0
   63.7680   33.4480   48.4860 C   0  0  0  0  0  0  0  0  0  0  0  0
   63.4570   33.2090   47.1450 C   0  0  0  0  0  0  0  0  0  0  0  0
   62.1650   33.4560   46.6710 C   0  0  0  0  0  0  0  0  0  0  0  0
   58.3650   28.8810   47.7380 N   0  0  0  0  0  0  0  0  0  0  0  0
   59.0380   29.6670   48.6100 C   0  0  0  0  0  0  0  0  0  0  0  0
   58.5170   29.8970   49.8890 C   0  0  0  0  0  0  0  0  0  0  0  0
   59.2200   30.6930   50.7970 C   0  0  0  0  0  0  0  0  0  0  0  0
   60.4440   31.2610   50.4310 C   0  0  0  0  0  0  0  0  0  0  0  0
   60.9710   31.0330   49.1570 C   0  0  0  0  0  0  0  0  0  0  0  0
   60.2690   30.2320   48.2340 C   0  0  0  0  0  0  0  0  0  0  0  0
   60.7520   29.9700   46.9410 C   0  0  0  0  0  0  0  0  0  0  0  0
   61.8680   30.4440   46.5870 O   0  0  0  0  0  0  0  0  0  0  0  0
   61.5160   28.4830   44.7654 H   0  0  0  0  0  0  0  0  0  0  0  0
   59.8315   28.2931   44.1710 H   0  0  0  0  0  0  0  0  0  0  0  0
   60.6067   29.9135   44.1710 H   0  0  0  0  0  0  0  0  0  0  0  0
   58.3193   29.3753   43.9646 H   0  0  0  0  0  0  0  0  0  0  0  0
   57.0060   28.3025   43.3398 H   0  0  0  0  0  0  0  0  0  0  0  0
   57.9678   31.5373   43.6025 H   0  0  0  0  0  0  0  0  0  0  0  0
   57.1646   32.9422   44.3978 H   0  0  0  0  0  0  0  0  0  0  0  0
   58.6071   31.9527   46.4991 H   0  0  0  0  0  0  0  0  0  0  0  0
   59.6775   31.4926   45.1272 H   0  0  0  0  0  0  0  0  0  0  0  0
   60.7269   34.5728   49.5677 H   0  0  0  0  0  0  0  0  0  0  0  0
   63.0364   34.1269   50.4113 H   0  0  0  0  0  0  0  0  0  0  0  0
   64.7842   33.2502   48.8577 H   0  0  0  0  0  0  0  0  0  0  0  0
   64.2293   32.8262   46.4616 H   0  0  0  0  0  0  0  0  0  0  0  0
   61.9208   33.2630   45.6160 H   0  0  0  0  0  0  0  0  0  0  0  0
   57.5542   29.4510   50.1791 H   0  0  0  0  0  0  0  0  0  0  0  0
   58.8097   30.8731   51.8016 H   0  0  0  0  0  0  0  0  0  0  0  0
   60.9936   31.8889   51.1477 H   0  0  0  0  0  0  0  0  0  0  0  0
   61.9356   31.4796   48.8740 H   0  0  0  0  0  0  0  0  0  0  0  0
  1  2  1  0
  2  3  1  0
  3  4  1  0
  4  5  1  0
  5  6  1  0
  6  7  2  0
  6  8  1  0
  8  9  1  0
  9 10  1  0
 10 11  1  0
 11 12  1  0
 12 13  2  0
 12 14  2  0
 12 15  1  0
 15 16  2  0
 16 17  1  0
 17 18  2  0
 18 19  1  0
 19 20  2  0
  3 21  2  0
 21 22  1  0
 22 23  2  0
 23 24  1  0
 24 25  2  0
 25 26  1  0
 26 27  2  0
 27 28  1  0
 28 29  2  0
 28  2  1  0
 20 15  1  0
 27 22  1  0
  1 30  1  0
  1 31  1  0
  1 32  1  0
  5 33  1  0
  5 34  1  0
  9 35  1  0
  9 36  1  0
 10 37  1  0
 10 38  1  0
 16 39  1  0
 17 40  1  0
 18 41  1  0
 19 42  1  0
 20 43  1  0
 23 44  1  0
 24 45  1  0
 25 46  1  0
 26 47  1  0
M  CHG  2   8  -1  11  -1
M  END
>  <UniqueID>  (90) 
85

>  <SMILES>  (90) 
Cn1c(SCC(=O)[N-]CC[N-]S(=O)(=O)c2ccccc2)nc2ccccc2c1=O

>  <Energy>  (90) 
50.05060336861038

>  <Genealogy>  (90) 
Cn1c(SCC(=O)[N-]CC[N-]S(=O)(=O)c2ccccc2)nc2ccccc2c1=O (protonated)
Cn1c(SCC(=O)[N-]CC[N-]S(=O)(=O)c2ccccc2)nc2ccccc2c1=O (3D coordinates assigned)
Cn1c(SCC(=O)[N-]CC[N-]S(=O)(=O)c2ccccc2)nc2ccccc2c1=O (optimized conformer: 50.05060336861038 kcal/mol)

>  <smiles>  (90) 
Cn1c(SCC(=O)NCCNS(=O)(=O)c2ccccc2)nc2ccccc2c1=O

>  <score_type>  (90) 
oracle

>  <origin>  (90) 
adg

>  <m_score__min__energy>  (90) 
-13.42

>  <m_primary>  (90) 
energy

$$$$
90:0
     RDKit          3D

 65 69  0  0  1  0  0  0  0  0999 V2000
   62.1690   31.0070   49.1090 N   0  0  0  0  0  0  0  0  0  0  0  0
   62.0300   31.5990   47.5210 S   0  0  0  0  0  0  0  0  0  0  0  0
   63.3880   32.0120   46.9630 O   0  0  0  0  0  0  0  0  0  0  0  0
   61.6210   30.4170   46.6520 O   0  0  0  0  0  0  0  0  0  0  0  0
   60.8660   32.8570   47.2990 C   0  0  0  0  0  0  0  0  0  0  0  0
   60.0990   32.9030   46.1470 C   0  0  0  0  0  0  0  0  0  0  0  0
   59.1510   33.8700   45.9040 C   0  0  0  0  0  0  0  0  0  0  0  0
   58.4050   33.8370   44.6860 N   0  0  0  0  0  0  0  0  0  0  0  0
   57.9390   32.7590   44.1760 C   0  0  0  0  0  0  0  0  0  0  0  0
   57.7920   32.6780   42.8410 N   0  0  0  0  0  0  0  0  0  0  0  0
   57.3100   31.5770   42.2490 C   0  0  0  0  0  0  0  0  0  0  0  0
   56.9660   30.5210   43.0680 C   0  0  0  0  0  0  0  0  0  0  0  0
   56.4790   29.3990   42.5100 F   0  0  0  0  0  0  0  0  0  0  0  0
   57.1280   30.6310   44.4440 C   0  0  0  0  0  0  0  0  0  0  0  0
   56.7960   29.6290   45.1530 N   0  0  0  0  0  0  0  0  0  0  0  0
   57.7550   28.7550   45.7380 C   0  0  0  0  0  0  0  0  0  0  0  0
   58.2490   27.6450   45.0790 C   0  0  0  0  0  0  0  0  0  0  0  0
   59.1760   26.8710   45.7490 C   0  0  0  0  0  0  0  0  0  0  0  0
   59.6160   27.1600   47.0220 C   0  0  0  0  0  0  0  0  0  0  0  0
   59.1170   28.2750   47.6790 C   0  0  0  0  0  0  0  0  0  0  0  0
   59.5700   28.5730   48.9920 N   0  0  0  0  0  0  0  0  0  0  0  0
   60.5630   27.6920   49.5780 C   0  0  0  0  0  0  0  0  0  0  0  0
   61.1390   28.2320   50.8550 C   0  0  0  0  0  0  0  0  0  0  0  0
   61.1800   29.6240   50.7990 O   0  0  0  0  0  0  0  0  0  0  0  0
   59.8470   30.0500   50.9180 C   0  0  0  0  0  0  0  0  0  0  0  0
   59.0430   29.7210   49.6950 C   0  0  0  0  0  0  0  0  0  0  0  0
   58.1900   29.0520   47.0150 C   0  0  0  0  0  0  0  0  0  0  0  0
   57.6150   31.7500   45.0140 N   0  0  0  0  0  0  0  0  0  0  0  0
   58.9260   34.8610   46.8340 C   0  0  0  0  0  0  0  0  0  0  0  0
   59.6780   34.8350   47.9860 C   0  0  0  0  0  0  0  0  0  0  0  0
   60.6420   33.8470   48.2270 C   0  0  0  0  0  0  0  0  0  0  0  0
   61.3360   33.9550   49.4500 N   0  0  0  0  0  0  0  0  0  0  0  0
   62.6140   34.5850   49.6560 C   0  0  0  0  0  0  0  0  0  0  0  0
   63.5350   33.6210   50.4310 C   0  0  0  0  0  0  0  0  0  0  0  0
   62.8950   33.0120   51.4820 O   0  0  0  0  0  0  0  0  0  0  0  0
   61.6770   33.5780   51.7730 C   0  0  0  0  0  0  0  0  0  0  0  0
   60.6860   33.3650   50.6260 C   0  0  0  0  0  0  0  0  0  0  0  0
   62.4290   31.6620   49.8360 H   0  0  0  0  0  0  0  0  0  0  0  0
   62.5440   30.0820   49.2450 H   0  0  0  0  0  0  0  0  0  0  0  0
   60.2561   32.1249   45.3855 H   0  0  0  0  0  0  0  0  0  0  0  0
   58.0580   33.4860   42.2450 H   0  0  0  0  0  0  0  0  0  0  0  0
   57.1935   31.5174   41.1568 H   0  0  0  0  0  0  0  0  0  0  0  0
   57.9172   27.3885   44.0621 H   0  0  0  0  0  0  0  0  0  0  0  0
   59.5817   25.9827   45.2427 H   0  0  0  0  0  0  0  0  0  0  0  0
   60.3568   26.5120   47.5133 H   0  0  0  0  0  0  0  0  0  0  0  0
   60.0909   26.7210   49.7884 H   0  0  0  0  0  0  0  0  0  0  0  0
   61.3881   27.5969   48.8568 H   0  0  0  0  0  0  0  0  0  0  0  0
   60.5103   27.9183   51.7014 H   0  0  0  0  0  0  0  0  0  0  0  0
   62.1589   27.8421   50.9887 H   0  0  0  0  0  0  0  0  0  0  0  0
   59.3913   29.5534   51.7873 H   0  0  0  0  0  0  0  0  0  0  0  0
   59.8483   31.1431   51.0411 H   0  0  0  0  0  0  0  0  0  0  0  0
   58.0074   29.5071   49.9980 H   0  0  0  0  0  0  0  0  0  0  0  0
   59.0890   30.5852   49.0160 H   0  0  0  0  0  0  0  0  0  0  0  0
   57.7827   29.9399   47.5208 H   0  0  0  0  0  0  0  0  0  0  0  0
   57.7270   31.8090   46.0520 H   0  0  0  0  0  0  0  0  0  0  0  0
   58.1730   35.6442   46.6620 H   0  0  0  0  0  0  0  0  0  0  0  0
   59.5170   35.6163   48.7434 H   0  0  0  0  0  0  0  0  0  0  0  0
   63.0674   34.8244   48.6828 H   0  0  0  0  0  0  0  0  0  0  0  0
   62.4805   35.5123   50.2324 H   0  0  0  0  0  0  0  0  0  0  0  0
   63.8946   32.8447   49.7396 H   0  0  0  0  0  0  0  0  0  0  0  0
   64.3658   34.2123   50.8435 H   0  0  0  0  0  0  0  0  0  0  0  0
   61.2746   33.1161   52.6867 H   0  0  0  0  0  0  0  0  0  0  0  0
   61.8183   34.6592   51.9183 H   0  0  0  0  0  0  0  0  0  0  0  0
   60.5013   32.2921   50.4685 H   0  0  0  0  0  0  0  0  0  0  0  0
   59.7085   33.8251   50.8329 H   0  0  0  0  0  0  0  0  0  0  0  0
  1  2  1  0
  2  3  2  0
  2  4  2  0
  2  5  1  0
  5  6  2  0
  6  7  1  0
  7  8  1  0
  8  9  2  0
  9 10  1  0
 10 11  1  0
 11 12  2  0
 12 13  1  0
 12 14  1  0
 14 15  2  0
 15 16  1  0
 16 17  2  0
 17 18  1  0
 18 19  2  0
 19 20  1  0
 20 21  1  0
 21 22  1  0
 22 23  1  0
 23 24  1  0
 24 25  1  0
 25 26  1  0
 20 27  2  0
 14 28  1  0
  7 29  2  0
 29 30  1  0
 30 31  2  0
 31 32  1  0
 32 33  1  0
 33 34  1  0
 34 35  1  0
 35 36  1  0
 36 37  1  0
 31  5  1  0
 37 32  1  0
 28  9  1  0
 27 16  1  0
 26 21  1  0
  1 38  1  0
  1 39  1  0
  6 40  1  0
 10 41  1  0
 11 42  1  0
 17 43  1  0
 18 44  1  0
 19 45  1  0
 22 46  1  0
 22 47  1  0
 23 48  1  0
 23 49  1  0
 25 50  1  0
 25 51  1  0
 26 52  1  0
 26 53  1  0
 27 54  1  0
 28 55  1  0
 29 56  1  0
 30 57  1  0
 33 58  1  0
 33 59  1  0
 34 60  1  0
 34 61  1  0
 36 62  1  0
 36 63  1  0
 37 64  1  0
 37 65  1  0
M  END
>  <smiles>  (91) 
NS(=O)(=O)c1cc(N=c2[nH]cc(F)c(=Nc3cccc(N4CCOCC4)c3)[nH]2)ccc1N1CCOCC1

>  <score_type>  (91) 
oracle

>  <origin>  (91) 
adg

>  <m_score__min__energy>  (91) 
-10.1

>  <m_primary>  (91) 
energy

$$$$
91:0
     RDKit          3D

 44 46  0  0  0  0  0  0  0  0999 V2000
   50.2720   34.1270   53.8050 C   0  0  0  0  0  0  0  0  0  0  0  0
   50.6630   32.7150   53.3840 C   0  0  0  0  0  0  0  0  0  0  0  0
   50.2830   32.4700   51.9970 N   0  0  0  0  0  0  0  0  0  0  0  0
   51.1950   32.0080   50.9940 C   0  0  0  0  0  0  0  0  0  0  0  0
   51.0240   32.3160   49.7840 O   0  0  0  0  0  0  0  0  0  0  0  0
   52.3420   31.1820   51.3870 C   0  0  0  0  0  0  0  0  0  0  0  0
   52.3780   29.8090   51.4490 C   0  0  0  0  0  0  0  0  0  0  0  0
   53.6110   29.4230   51.8230 N   0  0  0  0  0  0  0  0  0  0  0  0
   54.2880   30.5820   51.9800 C   0  0  0  0  0  0  0  0  0  0  0  0
   55.7140   30.6470   52.3650 C   0  0  0  0  0  0  0  0  0  0  0  0
   56.1070   30.4380   53.6960 C   0  0  0  0  0  0  0  0  0  0  0  0
   57.4600   30.4910   54.0320 C   0  0  0  0  0  0  0  0  0  0  0  0
   58.3940   30.7290   53.0740 N   0  0  0  0  0  0  0  0  0  0  0  0
   58.0560   30.9220   51.7710 C   0  0  0  0  0  0  0  0  0  0  0  0
   59.0760   31.1740   50.8420 O   0  0  0  0  0  0  0  0  0  0  0  0
   59.1420   30.6490   49.5410 C   0  0  0  0  0  0  0  0  0  0  0  0
   59.3700   29.2770   49.3840 C   0  0  0  0  0  0  0  0  0  0  0  0
   59.4350   28.7160   48.1060 C   0  0  0  0  0  0  0  0  0  0  0  0
   59.2650   29.5210   46.9780 C   0  0  0  0  0  0  0  0  0  0  0  0
   59.0200   30.8930   47.1140 C   0  0  0  0  0  0  0  0  0  0  0  0
   58.8550   31.6790   45.9260 N   0  0  0  0  0  0  0  0  0  0  0  0
   57.4440   31.7100   44.9170 S   0  0  0  0  0  0  0  0  0  0  0  0
   57.9150   31.7970   43.2030 C   0  0  0  0  0  0  0  0  0  0  0  0
   56.6670   30.4430   45.1380 O   0  0  0  0  0  0  0  0  0  0  0  0
   56.5760   32.8810   45.2830 O   0  0  0  0  0  0  0  0  0  0  0  0
   58.9410   31.4510   48.4030 C   0  0  0  0  0  0  0  0  0  0  0  0
   56.7010   30.9070   51.4000 C   0  0  0  0  0  0  0  0  0  0  0  0
   53.5430   31.6810   51.7230 N   0  0  0  0  0  0  0  0  0  0  0  0
   50.2544   34.1906   54.9030 H   0  0  0  0  0  0  0  0  0  0  0  0
   51.0053   34.8443   53.4079 H   0  0  0  0  0  0  0  0  0  0  0  0
   49.2742   34.3650   53.4079 H   0  0  0  0  0  0  0  0  0  0  0  0
   51.7516   32.5951   53.4874 H   0  0  0  0  0  0  0  0  0  0  0  0
   50.1384   31.9943   54.0285 H   0  0  0  0  0  0  0  0  0  0  0  0
   51.5361   29.1362   51.2288 H   0  0  0  0  0  0  0  0  0  0  0  0
   55.3525   30.2336   54.4699 H   0  0  0  0  0  0  0  0  0  0  0  0
   57.7718   30.3396   55.0760 H   0  0  0  0  0  0  0  0  0  0  0  0
   59.4985   28.6380   50.2701 H   0  0  0  0  0  0  0  0  0  0  0  0
   59.6205   27.6381   47.9884 H   0  0  0  0  0  0  0  0  0  0  0  0
   59.3240   29.0740   45.9746 H   0  0  0  0  0  0  0  0  0  0  0  0
   58.9943   31.9964   43.1290 H   0  0  0  0  0  0  0  0  0  0  0  0
   57.6841   30.8410   42.7103 H   0  0  0  0  0  0  0  0  0  0  0  0
   57.3578   32.6074   42.7103 H   0  0  0  0  0  0  0  0  0  0  0  0
   58.7205   32.5221   48.5218 H   0  0  0  0  0  0  0  0  0  0  0  0
   56.4136   31.0985   50.3556 H   0  0  0  0  0  0  0  0  0  0  0  0
  1  2  1  0
  2  3  1  0
  3  4  1  0
  4  5  2  0
  4  6  1  0
  6  7  2  0
  7  8  1  0
  8  9  1  0
  9 10  1  0
 10 11  2  0
 11 12  1  0
 12 13  2  0
 13 14  1  0
 14 15  1  0
 15 16  1  0
 16 17  2  0
 17 18  1  0
 18 19  2  0
 19 20  1  0
 20 21  1  0
 21 22  1  0
 22 23  1  0
 22 24  2  0
 22 25  2  0
 20 26  2  0
 14 27  2  0
  9 28  2  0
 28  6  1  0
 27 10  1  0
 26 16  1  0
  1 29  1  0
  1 30  1  0
  1 31  1  0
  2 32  1  0
  2 33  1  0
  7 34  1  0
 11 35  1  0
 12 36  1  0
 17 37  1  0
 18 38  1  0
 19 39  1  0
 23 40  1  0
 23 41  1  0
 23 42  1  0
 26 43  1  0
 27 44  1  0
M  CHG  3   3  -1   8  -1  21  -1
M  END
>  <UniqueID>  (92) 
86

>  <SMILES>  (92) 
CC[N-]C(=O)c1c[n-]c(-c2ccnc(Oc3cccc([N-]S(C)(=O)=O)c3)c2)n1

>  <Energy>  (92) 
72.66021751028116

>  <Genealogy>  (92) 
CC[N-]C(=O)c1c[n-]c(-c2ccnc(Oc3cccc([N-]S(C)(=O)=O)c3)c2)n1 (protonated)
CC[N-]C(=O)c1c[n-]c(-c2ccnc(Oc3cccc([N-]S(C)(=O)=O)c3)c2)n1 (3D coordinates assigned)
CC[N-]C(=O)c1c[n-]c(-c2ccnc(Oc3cccc([N-]S(C)(=O)=O)c3)c2)n1 (optimized conformer: 72.66021751028116 kcal/mol)

>  <smiles>  (92) 
CCNC(=O)c1c[nH]c(-c2ccnc(Oc3cccc(NS(C)(=O)=O)c3)c2)n1

>  <score_type>  (92) 
oracle

>  <origin>  (92) 
adg

>  <m_score__min__energy>  (92) 
-13.43

>  <m_primary>  (92) 
energy

$$$$
