0:0
     RDKit          3D

 68 70  0  0  0  0  0  0  0  0999 V2000
   59.7350   35.1010   46.4640 C   0  0  0  0  0  0  0  0  0  0  0  0
   60.4780   33.8270   46.7760 C   0  0  0  0  0  0  0  0  0  0  0  0
   61.8690   33.8960   46.9510 C   0  0  0  0  0  0  0  0  0  0  0  0
   62.5990   32.7630   47.2930 C   0  0  0  0  0  0  0  0  0  0  0  0
   61.9540   31.5440   47.4760 C   0  0  0  0  0  0  0  0  0  0  0  0
   60.5670   31.4260   47.2860 C   0  0  0  0  0  0  0  0  0  0  0  0
   59.9320   30.0650   47.5270 C   0  0  0  0  0  0  0  0  0  0  0  0
   60.1240   29.5560   48.9630 C   0  0  0  0  0  0  0  0  0  0  0  0
   59.5680   30.4820   49.9520 N   0  0  0  0  0  0  0  0  0  0  0  0
   58.2740   30.5420   50.3250 C   0  0  0  0  0  0  0  0  0  0  0  0
   58.1210   31.4740   51.3350 C   0  0  0  0  0  0  0  0  0  0  0  0
   56.8720   31.7200   52.1260 C   0  0  2  0  0  0  0  0  0  0  0  0
   57.2060   31.6410   53.4890 O   0  0  0  0  0  0  0  0  0  0  0  0
   55.8690   30.6950   51.7710 N   0  0  0  0  0  0  0  0  0  0  0  0
   55.3760   29.8360   52.8710 C   0  0  1  0  0  0  0  0  0  0  0  0
   53.8650   29.4640   52.7820 C   0  0  0  0  0  0  0  0  0  0  0  0
   53.0090   30.3130   51.8640 C   0  0  0  0  0  0  0  0  0  0  0  0
   52.5670   31.5830   52.2770 C   0  0  0  0  0  0  0  0  0  0  0  0
   51.7670   32.3640   51.4380 C   0  0  0  0  0  0  0  0  0  0  0  0
   51.3740   31.8770   50.1900 C   0  0  0  0  0  0  0  0  0  0  0  0
   50.5810   32.6570   49.3560 O   0  0  0  0  0  0  0  0  0  0  0  0
   51.7670   30.5980   49.7860 C   0  0  0  0  0  0  0  0  0  0  0  0
   52.5660   29.8140   50.6240 C   0  0  0  0  0  0  0  0  0  0  0  0
   56.2870   28.6700   53.1640 C   0  0  0  0  0  0  0  0  0  0  0  0
   55.8710   27.6620   53.7950 O   0  0  0  0  0  0  0  0  0  0  0  0
   57.6540   28.7420   52.7460 N   0  0  0  0  0  0  0  0  0  0  0  0
   58.7830   28.3380   53.5810 C   0  0  2  0  0  0  0  0  0  0  0  0
   58.4700   28.6320   55.0210 C   0  0  0  0  0  0  0  0  0  0  0  0
   58.2320   29.7750   55.3800 O   0  0  0  0  0  0  0  0  0  0  0  0
   60.0720   29.0480   53.1320 C   0  0  0  0  0  0  0  0  0  0  0  0
   60.8500   28.2400   52.1360 C   0  0  0  0  0  0  0  0  0  0  0  0
   60.5360   27.0440   51.9040 O   0  0  0  0  0  0  0  0  0  0  0  0
   61.8980   28.8230   51.4350 O   0  0  0  0  0  0  0  0  0  0  0  0
   59.3730   32.0070   51.5920 C   0  0  0  0  0  0  0  0  0  0  0  0
   60.2330   31.3700   50.7220 C   0  0  0  0  0  0  0  0  0  0  0  0
   61.6070   31.5950   50.6750 O   0  0  0  0  0  0  0  0  0  0  0  0
   59.8100   32.5780   46.9240 C   0  0  0  0  0  0  0  0  0  0  0  0
   58.3140   32.4670   46.7190 C   0  0  0  0  0  0  0  0  0  0  0  0
   59.4461   35.5963   47.4027 H   0  0  0  0  0  0  0  0  0  0  0  0
   60.3842   35.7706   45.8808 H   0  0  0  0  0  0  0  0  0  0  0  0
   58.8325   34.8657   45.8808 H   0  0  0  0  0  0  0  0  0  0  0  0
   62.3873   34.8568   46.8161 H   0  0  0  0  0  0  0  0  0  0  0  0
   63.6896   32.8307   47.4192 H   0  0  0  0  0  0  0  0  0  0  0  0
   62.5379   30.6605   47.7735 H   0  0  0  0  0  0  0  0  0  0  0  0
   58.8536   30.1410   47.3239 H   0  0  0  0  0  0  0  0  0  0  0  0
   60.4282   29.3483   46.8561 H   0  0  0  0  0  0  0  0  0  0  0  0
   59.6210   28.5831   49.0652 H   0  0  0  0  0  0  0  0  0  0  0  0
   61.2042   29.4669   49.1504 H   0  0  0  0  0  0  0  0  0  0  0  0
   57.4619   29.9401   49.8912 H   0  0  0  0  0  0  0  0  0  0  0  0
   56.4470   32.7108   51.9074 H   0  0  0  0  0  0  0  0  0  0  0  0
   57.5330   30.7240   53.6570 H   0  0  0  0  0  0  0  0  0  0  0  0
   56.2170   30.0860   50.9910 H   0  0  0  0  0  0  0  0  0  0  0  0
   55.4239   30.4733   53.7663 H   0  0  0  0  0  0  0  0  0  0  0  0
   53.7978   28.4232   52.4325 H   0  0  0  0  0  0  0  0  0  0  0  0
   53.4646   29.6357   53.7920 H   0  0  0  0  0  0  0  0  0  0  0  0
   52.8532   31.9646   53.2682 H   0  0  0  0  0  0  0  0  0  0  0  0
   51.4462   33.3651   51.7620 H   0  0  0  0  0  0  0  0  0  0  0  0
   51.4476   30.2079   48.8083 H   0  0  0  0  0  0  0  0  0  0  0  0
   52.8510   28.7985   50.3118 H   0  0  0  0  0  0  0  0  0  0  0  0
   58.9489   27.2562   53.4709 H   0  0  0  0  0  0  0  0  0  0  0  0
   58.4551   27.8135   55.7557 H   0  0  0  0  0  0  0  0  0  0  0  0
   59.8039   30.0114   52.6737 H   0  0  0  0  0  0  0  0  0  0  0  0
   60.7058   29.1880   54.0201 H   0  0  0  0  0  0  0  0  0  0  0  0
   59.6282   32.7773   52.3346 H   0  0  0  0  0  0  0  0  0  0  0  0
   62.2730   30.8920   50.9650 H   0  0  0  0  0  0  0  0  0  0  0  0
   57.8117   32.4297   47.6969 H   0  0  0  0  0  0  0  0  0  0  0  0
   57.9553   33.3410   46.1556 H   0  0  0  0  0  0  0  0  0  0  0  0
   58.0882   31.5496   46.1556 H   0  0  0  0  0  0  0  0  0  0  0  0
  1  2  1  0
  2  3  2  0
  3  4  1  0
  4  5  2  0
  5  6  1  0
  6  7  1  0
  7  8  1  0
  8  9  1  0
  9 10  1  0
 10 11  2  0
 11 12  1  0
 12 13  1  0
 12 14  1  0
 14 15  1  0
 15 16  1  0
 16 17  1  0
 17 18  2  0
 18 19  1  0
 19 20  2  0
 20 21  1  0
 20 22  1  0
 22 23  2  0
 15 24  1  0
 24 25  2  0
 24 26  1  0
 26 27  1  0
 27 28  1  0
 28 29  2  0
 27 30  1  0
 30 31  1  0
 31 32  2  0
 31 33  1  0
 11 34  1  0
 34 35  2  0
 35 36  1  0
  6 37  2  0
 37 38  1  0
 37  2  1  0
 35  9  1  0
 23 17  1  0
  1 39  1  0
  1 40  1  0
  1 41  1  0
  3 42  1  0
  4 43  1  0
  5 44  1  0
  7 45  1  0
  7 46  1  0
  8 47  1  0
  8 48  1  0
 10 49  1  0
 12 50  1  1
 13 51  1  0
 14 52  1  0
 15 53  1  1
 16 54  1  0
 16 55  1  0
 18 56  1  0
 19 57  1  0
 22 58  1  0
 23 59  1  0
 27 60  1  1
 28 61  1  0
 30 62  1  0
 30 63  1  0
 34 64  1  0
 36 65  1  0
 38 66  1  0
 38 67  1  0
 38 68  1  0
M  CHG  3  21  -1  26  -1  33  -1
M  END
>  <UniqueID>  (1) 
1

>  <SMILES>  (1) 
Cc1cccc(CCn2cc([C@H](O)N[C@@H](Cc3ccc([O-])cc3)C(=O)[N-]C(C=O)CC(=O)[O-])cc2O)c1C

>  <Energy>  (1) 
98.44845474167342

>  <Genealogy>  (1) 
Cc1cccc(CCn2cc(C(O)NC(Cc3ccc([O-])cc3)C(=O)[N-]C(C=O)CC(=O)[O-])cc2O)c1C (protonated)
Cc1cccc(CCn2cc([C@H](O)N[C@@H](Cc3ccc([O-])cc3)C(=O)[N-]C(C=O)CC(=O)[O-])cc2O)c1C (chirality)
Cc1cccc(CCn2cc([C@H](O)N[C@@H](Cc3ccc([O-])cc3)C(=O)[N-]C(C=O)CC(=O)[O-])cc2O)c1C (3D coordinates assigned)
Cc1cccc(CCn2cc([C@H](O)N[C@@H](Cc3ccc([O-])cc3)C(=O)[N-]C(C=O)CC(=O)[O-])cc2O)c1C (optimized conformer: 98.44845474167342 kcal/mol)

>  <smiles>  (1) 
Cc1cccc(CCn2cc(C(O)NC(Cc3ccc(O)cc3)C(=O)NC(C=O)CC(=O)O)cc2O)c1C

>  <score_type>  (1) 
oracle

>  <origin>  (1) 
adg

>  <m_score__min__energy>  (1) 
-14.76

>  <m_primary>  (1) 
energy

$$$$
1:0
     RDKit          3D

 79 82  0  0  0  0  0  0  0  0999 V2000
   59.3860   30.0410   48.0990 C   0  0  0  0  0  0  0  0  0  0  0  0
   60.2280   31.3050   48.4200 C   0  0  0  0  0  0  0  0  0  0  0  0
   61.3970   30.9420   49.3910 C   0  0  0  0  0  0  0  0  0  0  0  0
   62.4820   32.2860   49.9070 S   0  0  0  0  0  0  0  0  0  0  0  0
   62.3660   33.4710   48.9910 O   0  0  0  0  0  0  0  0  0  0  0  0
   63.9030   31.7930   49.8940 O   0  0  0  0  0  0  0  0  0  0  0  0
   62.0610   32.7690   51.5360 N   0  0  0  0  0  0  0  0  0  0  0  0
   61.7540   31.5910   52.3870 C   0  0  0  0  0  0  0  0  0  0  0  0
   60.2510   31.3050   52.4850 C   0  0  0  0  0  0  0  0  0  0  0  0
   59.4730   32.5060   53.0810 C   0  0  0  0  0  0  0  0  0  0  0  0
   58.0320   32.5410   52.5380 C   0  0  0  0  0  0  0  0  0  0  0  0
   57.1840   31.6140   53.2980 N   0  0  0  0  0  0  0  0  0  0  0  0
   56.7920   30.2240   52.3330 S   0  0  0  0  0  0  0  0  0  0  0  0
   57.4950   29.0140   52.8850 O   0  0  0  0  0  0  0  0  0  0  0  0
   57.2440   30.4500   50.9190 O   0  0  0  0  0  0  0  0  0  0  0  0
   55.0450   29.9860   52.3490 C   0  0  0  0  0  0  0  0  0  0  0  0
   54.4690   28.9230   53.0600 C   0  0  0  0  0  0  0  0  0  0  0  0
   53.0780   28.7820   53.1060 C   0  0  0  0  0  0  0  0  0  0  0  0
   52.2570   29.7030   52.4470 C   0  0  0  0  0  0  0  0  0  0  0  0
   52.8260   30.7650   51.7360 C   0  0  0  0  0  0  0  0  0  0  0  0
   51.7990   31.9370   50.9350 Cl  0  0  0  0  0  0  0  0  0  0  0  0
   54.2180   30.9020   51.6810 C   0  0  0  0  0  0  0  0  0  0  0  0
   60.2000   33.8460   52.8100 C   0  0  0  0  0  0  0  0  0  0  0  0
   60.9870   33.7890   51.4950 C   0  0  0  0  0  0  0  0  0  0  0  0
   60.8630   31.8350   47.0820 C   0  0  0  0  0  0  0  0  0  0  0  0
   60.1820   33.0860   46.5030 C   0  0  0  0  0  0  0  0  0  0  0  0
   58.7330   33.0370   46.7200 N   0  0  0  0  0  0  0  0  0  0  0  0
   57.8120   33.2090   45.6260 C   0  0  0  0  0  0  0  0  0  0  0  0
   56.5780   33.3320   45.8530 O   0  0  0  0  0  0  0  0  0  0  0  0
   58.2840   33.2200   44.3090 O   0  0  0  0  0  0  0  0  0  0  0  0
   57.7930   32.3420   43.3040 C   0  0  0  0  0  0  0  0  0  0  0  0
   57.5710   30.9850   43.9050 C   0  0  0  0  0  0  0  0  0  0  0  0
   56.2780   30.4410   43.9480 C   0  0  0  0  0  0  0  0  0  0  0  0
   56.0550   29.2010   44.5540 C   0  0  0  0  0  0  0  0  0  0  0  0
   57.1200   28.4950   45.1270 C   0  0  0  0  0  0  0  0  0  0  0  0
   56.8370   26.9450   45.9130 S   0  0  0  0  0  0  0  0  0  0  0  0
   55.1380   26.6430   45.9970 N   0  0  0  0  0  0  0  0  0  0  0  0
   57.5050   25.8470   45.1340 O   0  0  0  0  0  0  0  0  0  0  0  0
   57.4120   26.9690   47.3020 O   0  0  0  0  0  0  0  0  0  0  0  0
   58.4090   29.0450   45.1030 C   0  0  0  0  0  0  0  0  0  0  0  0
   58.6330   30.2860   44.4990 C   0  0  0  0  0  0  0  0  0  0  0  0
   58.2170   32.8660   48.0850 C   0  0  0  0  0  0  0  0  0  0  0  0
   59.3160   32.3950   49.0530 C   0  0  0  0  0  0  0  0  0  0  0  0
   59.0682   29.5640   49.0379 H   0  0  0  0  0  0  0  0  0  0  0  0
   58.4991   30.3296   47.5158 H   0  0  0  0  0  0  0  0  0  0  0  0
   59.9940   29.3337   47.5158 H   0  0  0  0  0  0  0  0  0  0  0  0
   60.9516   30.5084   50.2986 H   0  0  0  0  0  0  0  0  0  0  0  0
   62.0417   30.2593   48.8181 H   0  0  0  0  0  0  0  0  0  0  0  0
   62.2526   30.7087   51.9592 H   0  0  0  0  0  0  0  0  0  0  0  0
   62.1162   31.8120   53.4019 H   0  0  0  0  0  0  0  0  0  0  0  0
   59.8625   31.0939   51.4778 H   0  0  0  0  0  0  0  0  0  0  0  0
   60.1105   30.4420   53.1525 H   0  0  0  0  0  0  0  0  0  0  0  0
   59.4301   32.3704   54.1718 H   0  0  0  0  0  0  0  0  0  0  0  0
   57.6320   33.5613   52.6331 H   0  0  0  0  0  0  0  0  0  0  0  0
   58.0382   32.2387   51.4804 H   0  0  0  0  0  0  0  0  0  0  0  0
   56.2870   32.1000   53.5320 H   0  0  0  0  0  0  0  0  0  0  0  0
   55.1120   28.1992   53.5822 H   0  0  0  0  0  0  0  0  0  0  0  0
   52.6290   27.9454   53.6614 H   0  0  0  0  0  0  0  0  0  0  0  0
   51.1634   29.5922   52.4878 H   0  0  0  0  0  0  0  0  0  0  0  0
   54.6651   31.7306   51.1122 H   0  0  0  0  0  0  0  0  0  0  0  0
   59.4552   34.6532   52.7486 H   0  0  0  0  0  0  0  0  0  0  0  0
   60.9057   34.0341   53.6325 H   0  0  0  0  0  0  0  0  0  0  0  0
   60.2943   33.5430   50.6767 H   0  0  0  0  0  0  0  0  0  0  0  0
   61.4563   34.7711   51.3365 H   0  0  0  0  0  0  0  0  0  0  0  0
   61.9185   32.0771   47.2752 H   0  0  0  0  0  0  0  0  0  0  0  0
   60.7335   31.0361   46.3371 H   0  0  0  0  0  0  0  0  0  0  0  0
   60.5906   33.9802   46.9965 H   0  0  0  0  0  0  0  0  0  0  0  0
   60.3755   33.1240   45.4208 H   0  0  0  0  0  0  0  0  0  0  0  0
   56.8428   32.7297   42.9081 H   0  0  0  0  0  0  0  0  0  0  0  0
   58.5236   32.2701   42.4848 H   0  0  0  0  0  0  0  0  0  0  0  0
   55.4366   30.9925   43.5031 H   0  0  0  0  0  0  0  0  0  0  0  0
   55.0397   28.7786   44.5808 H   0  0  0  0  0  0  0  0  0  0  0  0
   54.7970   27.0720   46.8870 H   0  0  0  0  0  0  0  0  0  0  0  0
   59.2469   28.4987   45.5607 H   0  0  0  0  0  0  0  0  0  0  0  0
   59.6454   30.7160   44.4894 H   0  0  0  0  0  0  0  0  0  0  0  0
   57.8186   33.8283   48.4388 H   0  0  0  0  0  0  0  0  0  0  0  0
   57.4292   32.0987   48.0605 H   0  0  0  0  0  0  0  0  0  0  0  0
   59.9373   33.2590   49.3313 H   0  0  0  0  0  0  0  0  0  0  0  0
   58.8250   31.9552   49.9337 H   0  0  0  0  0  0  0  0  0  0  0  0
  1  2  1  0
  2  3  1  0
  3  4  1  0
  4  5  2  0
  4  6  2  0
  4  7  1  0
  7  8  1  0
  8  9  1  0
  9 10  1  0
 10 11  1  0
 11 12  1  0
 12 13  1  0
 13 14  2  0
 13 15  2  0
 13 16  1  0
 16 17  2  0
 17 18  1  0
 18 19  2  0
 19 20  1  0
 20 21  1  0
 20 22  2  0
 10 23  1  0
 23 24  1  0
  2 25  1  0
 25 26  1  0
 26 27  1  0
 27 28  1  0
 28 29  2  0
 28 30  1  0
 30 31  1  0
 31 32  1  0
 32 33  2  0
 33 34  1  0
 34 35  2  0
 35 36  1  0
 36 37  1  0
 36 38  2  0
 36 39  2  0
 35 40  1  0
 40 41  2  0
 27 42  1  0
 42 43  1  0
 43  2  1  0
 24  7  1  0
 41 32  1  0
 22 16  1  0
  1 44  1  0
  1 45  1  0
  1 46  1  0
  3 47  1  0
  3 48  1  0
  8 49  1  0
  8 50  1  0
  9 51  1  0
  9 52  1  0
 10 53  1  0
 11 54  1  0
 11 55  1  0
 12 56  1  0
 17 57  1  0
 18 58  1  0
 19 59  1  0
 22 60  1  0
 23 61  1  0
 23 62  1  0
 24 63  1  0
 24 64  1  0
 25 65  1  0
 25 66  1  0
 26 67  1  0
 26 68  1  0
 31 69  1  0
 31 70  1  0
 33 71  1  0
 34 72  1  0
 37 73  1  0
 40 74  1  0
 41 75  1  0
 42 76  1  0
 42 77  1  0
 43 78  1  0
 43 79  1  0
M  CHG  1  37  -1
M  END
>  <UniqueID>  (2) 
2

>  <SMILES>  (2) 
CC1(CS(=O)(=O)N2CCC(CNS(=O)(=O)c3cccc(Cl)c3)CC2)CCN(C(=O)OCc2ccc(S([NH-])(=O)=O)cc2)CC1

>  <Energy>  (2) 
81.63952812516071

>  <Genealogy>  (2) 
CC1(CS(=O)(=O)N2CCC(CNS(=O)(=O)c3cccc(Cl)c3)CC2)CCN(C(=O)OCc2ccc(S([NH-])(=O)=O)cc2)CC1 (protonated)
CC1(CS(=O)(=O)N2CCC(CNS(=O)(=O)c3cccc(Cl)c3)CC2)CCN(C(=O)OCc2ccc(S([NH-])(=O)=O)cc2)CC1 (3D coordinates assigned)
CC1(CS(=O)(=O)N2CCC(CNS(=O)(=O)c3cccc(Cl)c3)CC2)CCN(C(=O)OCc2ccc(S([NH-])(=O)=O)cc2)CC1 (nonaromatic ring conformer: 81.63952812516071 kcal/mol)

>  <smiles>  (2) 
CC1(CS(=O)(=O)N2CCC(CNS(=O)(=O)c3cccc(Cl)c3)CC2)CCN(C(=O)OCc2ccc(S(N)(=O)=O)cc2)CC1

>  <score_type>  (2) 
oracle

>  <origin>  (2) 
adg

>  <m_score__min__energy>  (2) 
-14.98

>  <m_primary>  (2) 
energy

$$$$
2:0
     RDKit          3D

 57 59  0  0  0  0  0  0  0  0999 V2000
   57.0180   33.5760   45.2310 C   0  0  0  0  0  0  0  0  0  0  0  0
   57.9240   32.5700   44.6660 N   0  0  0  0  0  0  0  0  0  0  0  0
   58.8460   31.8560   45.5610 C   0  0  0  0  0  0  0  0  0  0  0  0
   59.3080   32.7780   46.6950 C   0  0  0  0  0  0  0  0  0  0  0  0
   60.8010   32.7400   46.8380 C   0  0  0  0  0  0  0  0  0  0  0  0
   61.5880   33.8360   46.4500 C   0  0  0  0  0  0  0  0  0  0  0  0
   62.9720   33.7810   46.6220 C   0  0  0  0  0  0  0  0  0  0  0  0
   63.5590   32.6410   47.1750 C   0  0  0  0  0  0  0  0  0  0  0  0
   62.7450   31.5670   47.5520 C   0  0  0  0  0  0  0  0  0  0  0  0
   61.3970   31.6410   47.3790 N   0  0  0  0  0  0  0  0  0  0  0  0
   57.8790   32.3070   43.2460 C   0  0  0  0  0  0  0  0  0  0  0  0
   58.5120   33.0580   42.4550 O   0  0  0  0  0  0  0  0  0  0  0  0
   57.0550   31.2100   42.6860 C   0  0  0  0  0  0  0  0  0  0  0  0
   56.9380   30.0330   43.2320 N   0  0  0  0  0  0  0  0  0  0  0  0
   56.2670   29.7090   44.4580 C   0  0  0  0  0  0  0  0  0  0  0  0
   55.0100   29.6340   44.4650 O   0  0  0  0  0  0  0  0  0  0  0  0
   57.0120   29.5120   45.6680 N   0  0  0  0  0  0  0  0  0  0  0  0
   57.6490   28.2940   46.0770 C   0  0  0  0  0  0  0  0  0  0  0  0
   58.9440   28.3710   46.5890 C   0  0  0  0  0  0  0  0  0  0  0  0
   59.5960   27.2250   47.0300 C   0  0  0  0  0  0  0  0  0  0  0  0
   58.9610   25.9870   46.9670 C   0  0  0  0  0  0  0  0  0  0  0  0
   57.6480   25.8710   46.4740 C   0  0  0  0  0  0  0  0  0  0  0  0
   56.8200   24.2890   46.3860 S   0  0  0  0  0  0  0  0  0  0  0  0
   57.3370   23.4380   47.5130 O   0  0  0  0  0  0  0  0  0  0  0  0
   55.3510   24.5320   46.6070 O   0  0  0  0  0  0  0  0  0  0  0  0
   56.9640   23.3710   44.9030 N   0  0  0  0  0  0  0  0  0  0  0  0
   57.0860   21.9260   45.1430 C   0  0  0  0  0  0  0  0  0  0  0  0
   57.1840   21.1820   43.8080 C   0  0  0  0  0  0  0  0  0  0  0  0
   56.0750   21.4880   42.9840 O   0  0  0  0  0  0  0  0  0  0  0  0
   56.0930   22.8630   42.6570 C   0  0  0  0  0  0  0  0  0  0  0  0
   55.9320   23.7240   43.9150 C   0  0  0  0  0  0  0  0  0  0  0  0
   56.9710   27.0540   46.0650 C   0  0  0  0  0  0  0  0  0  0  0  0
   55.6230   27.0390   45.6910 O   0  0  0  0  0  0  0  0  0  0  0  0
   57.0589   33.5306   46.3293 H   0  0  0  0  0  0  0  0  0  0  0  0
   57.3253   34.5769   44.8937 H   0  0  0  0  0  0  0  0  0  0  0  0
   55.9905   33.3748   44.8937 H   0  0  0  0  0  0  0  0  0  0  0  0
   58.3322   30.9830   45.9898 H   0  0  0  0  0  0  0  0  0  0  0  0
   59.7243   31.5308   44.9841 H   0  0  0  0  0  0  0  0  0  0  0  0
   58.9931   33.8083   46.4730 H   0  0  0  0  0  0  0  0  0  0  0  0
   58.8548   32.4334   47.6362 H   0  0  0  0  0  0  0  0  0  0  0  0
   61.1181   34.7301   46.0143 H   0  0  0  0  0  0  0  0  0  0  0  0
   63.5990   34.6338   46.3226 H   0  0  0  0  0  0  0  0  0  0  0  0
   64.6490   32.5878   47.3127 H   0  0  0  0  0  0  0  0  0  0  0  0
   63.1946   30.6628   47.9882 H   0  0  0  0  0  0  0  0  0  0  0  0
   56.5081   31.4015   41.7510 H   0  0  0  0  0  0  0  0  0  0  0  0
   59.4528   29.3447   46.6443 H   0  0  0  0  0  0  0  0  0  0  0  0
   60.6180   27.2964   47.4305 H   0  0  0  0  0  0  0  0  0  0  0  0
   59.4936   25.0868   47.3076 H   0  0  0  0  0  0  0  0  0  0  0  0
   57.9909   21.7301   45.7369 H   0  0  0  0  0  0  0  0  0  0  0  0
   56.1988   21.5736   45.6895 H   0  0  0  0  0  0  0  0  0  0  0  0
   58.1094   21.4816   43.2944 H   0  0  0  0  0  0  0  0  0  0  0  0
   57.1911   20.0998   44.0051 H   0  0  0  0  0  0  0  0  0  0  0  0
   57.0507   23.1062   42.1737 H   0  0  0  0  0  0  0  0  0  0  0  0
   55.2557   23.0743   41.9757 H   0  0  0  0  0  0  0  0  0  0  0  0
   56.0341   24.7855   43.6452 H   0  0  0  0  0  0  0  0  0  0  0  0
   54.9384   23.5434   44.3510 H   0  0  0  0  0  0  0  0  0  0  0  0
   55.1490   27.8100   45.2430 H   0  0  0  0  0  0  0  0  0  0  0  0
  1  2  1  0
  2  3  1  0
  3  4  1  0
  4  5  1  0
  5  6  2  0
  6  7  1  0
  7  8  2  0
  8  9  1  0
  9 10  2  0
  2 11  1  0
 11 12  2  0
 11 13  1  0
 13 14  2  3
 14 15  1  0
 15 16  2  0
 15 17  1  0
 17 18  1  0
 18 19  2  0
 19 20  1  0
 20 21  2  0
 21 22  1  0
 22 23  1  0
 23 24  2  0
 23 25  2  0
 23 26  1  0
 26 27  1  0
 27 28  1  0
 28 29  1  0
 29 30  1  0
 30 31  1  0
 22 32  2  0
 32 33  1  0
 10  5  1  0
 32 18  1  0
 31 26  1  0
  1 34  1  0
  1 35  1  0
  1 36  1  0
  3 37  1  0
  3 38  1  0
  4 39  1  0
  4 40  1  0
  6 41  1  0
  7 42  1  0
  8 43  1  0
  9 44  1  0
 13 45  1  0
 19 46  1  0
 20 47  1  0
 21 48  1  0
 27 49  1  0
 27 50  1  0
 28 51  1  0
 28 52  1  0
 30 53  1  0
 30 54  1  0
 31 55  1  0
 31 56  1  0
 33 57  1  0
M  CHG  1  17  -1
M  END
>  <UniqueID>  (3) 
3

>  <SMILES>  (3) 
CN(CCc1ccccn1)C(=O)C=NC(=O)[N-]c1cccc(S(=O)(=O)N2CCOCC2)c1O

>  <Energy>  (3) 
78.08217910192485

>  <Genealogy>  (3) 
CN(CCc1ccccn1)C(=O)C=NC(=O)[N-]c1cccc(S(=O)(=O)N2CCOCC2)c1O (protonated)
CN(CCc1ccccn1)C(=O)C=NC(=O)[N-]c1cccc(S(=O)(=O)N2CCOCC2)c1O (3D coordinates assigned)
CN(CCc1ccccn1)C(=O)C=NC(=O)[N-]c1cccc(S(=O)(=O)N2CCOCC2)c1O (nonaromatic ring conformer: 78.08217910192485 kcal/mol)

>  <smiles>  (3) 
CN(CCc1ccccn1)C(=O)C=NC(=O)Nc1cccc(S(=O)(=O)N2CCOCC2)c1O

>  <score_type>  (3) 
oracle

>  <origin>  (3) 
adg

>  <m_score__min__energy>  (3) 
-12.99

>  <m_primary>  (3) 
energy

$$$$
3:0
     RDKit          3D

 34 35  0  0  0  0  0  0  0  0999 V2000
   55.0620   29.5060   43.4080 N   0  0  0  0  0  0  0  0  0  0  0  0
   56.2700   29.9970   44.0000 C   0  0  0  0  0  0  0  0  0  0  0  0
   57.4480   29.2720   43.9440 C   0  0  0  0  0  0  0  0  0  0  0  0
   58.5760   29.8010   44.5340 C   0  0  0  0  0  0  0  0  0  0  0  0
   59.6630   29.1320   44.4810 O   0  0  0  0  0  0  0  0  0  0  0  0
   58.5770   31.0000   45.1660 N   0  0  0  0  0  0  0  0  0  0  0  0
   57.4200   31.6810   45.2050 C   0  0  0  0  0  0  0  0  0  0  0  0
   57.2880   33.2890   46.0170 S   0  0  0  0  0  0  0  0  0  0  0  0
   58.1220   34.4580   44.8760 C   0  0  0  0  0  0  0  0  0  0  0  0
   59.6060   34.2220   44.9260 C   0  0  0  0  0  0  0  0  0  0  0  0
   60.1390   34.3680   46.2790 N   0  0  0  0  0  0  0  0  0  0  0  0
   60.6720   33.2980   46.9900 C   0  0  0  0  0  0  0  0  0  0  0  0
   60.6680   32.1690   46.3710 O   0  0  0  0  0  0  0  0  0  0  0  0
   61.2310   33.2730   48.3160 C   0  0  0  0  0  0  0  0  0  0  0  0
   60.3570   33.0070   49.3630 C   0  0  0  0  0  0  0  0  0  0  0  0
   58.6530   32.6940   49.1210 Cl  0  0  0  0  0  0  0  0  0  0  0  0
   60.8010   32.9720   50.6890 C   0  0  0  0  0  0  0  0  0  0  0  0
   62.1110   33.1990   51.0230 C   0  0  0  0  0  0  0  0  0  0  0  0
   62.9820   33.4630   49.9910 C   0  0  0  0  0  0  0  0  0  0  0  0
   62.5380   33.4980   48.6600 C   0  0  0  0  0  0  0  0  0  0  0  0
   63.7550   33.8690   47.4710 Cl  0  0  0  0  0  0  0  0  0  0  0  0
   56.3150   31.1750   44.6330 N   0  0  0  0  0  0  0  0  0  0  0  0
   54.1520   29.8010   43.8250 H   0  0  0  0  0  0  0  0  0  0  0  0
   55.0700   28.8830   42.5970 H   0  0  0  0  0  0  0  0  0  0  0  0
   57.4832   28.2951   43.4397 H   0  0  0  0  0  0  0  0  0  0  0  0
   59.4360   31.4010   45.6150 H   0  0  0  0  0  0  0  0  0  0  0  0
   57.7577   34.2950   43.8510 H   0  0  0  0  0  0  0  0  0  0  0  0
   57.9013   35.4921   45.1794 H   0  0  0  0  0  0  0  0  0  0  0  0
   59.8155   33.2025   44.5700 H   0  0  0  0  0  0  0  0  0  0  0  0
   60.0911   34.9746   44.2870 H   0  0  0  0  0  0  0  0  0  0  0  0
   60.1140   35.3010   46.6840 H   0  0  0  0  0  0  0  0  0  0  0  0
   60.0768   32.7557   51.4882 H   0  0  0  0  0  0  0  0  0  0  0  0
   62.4506   33.1714   52.0689 H   0  0  0  0  0  0  0  0  0  0  0  0
   64.0432   33.6496   50.2127 H   0  0  0  0  0  0  0  0  0  0  0  0
  1  2  1  0
  2  3  2  0
  3  4  1  0
  4  5  2  0
  4  6  1  0
  6  7  1  0
  7  8  1  0
  8  9  1  0
  9 10  1  0
 10 11  1  0
 11 12  1  0
 12 13  2  0
 12 14  1  0
 14 15  2  0
 15 16  1  0
 15 17  1  0
 17 18  2  0
 18 19  1  0
 19 20  2  0
 20 21  1  0
  7 22  2  0
 22  2  1  0
 20 14  1  0
  1 23  1  0
  1 24  1  0
  3 25  1  0
  6 26  1  0
  9 27  1  0
  9 28  1  0
 10 29  1  0
 10 30  1  0
 11 31  1  0
 17 32  1  0
 18 33  1  0
 19 34  1  0
M  END
>  <smiles>  (4) 
Nc1cc(=O)[nH]c(SCCNC(=O)c2c(Cl)cccc2Cl)n1

>  <score_type>  (4) 
oracle

>  <origin>  (4) 
adg

>  <m_score__min__energy>  (4) 
-8.5099999999999998

>  <m_primary>  (4) 
energy

$$$$
4:0
     RDKit          3D

 43 45  0  0  0  0  0  0  0  0999 V2000
   62.8670   34.5800   50.0130 N   0  0  0  0  0  0  0  0  0  0  0  0
   62.8290   33.6070   48.5850 S   0  0  0  0  0  0  0  0  0  0  0  0
   63.9570   34.0050   47.6740 O   0  0  0  0  0  0  0  0  0  0  0  0
   63.0000   32.1620   48.9630 O   0  0  0  0  0  0  0  0  0  0  0  0
   61.2920   33.8360   47.7610 C   0  0  0  0  0  0  0  0  0  0  0  0
   61.2580   34.1290   46.3900 C   0  0  0  0  0  0  0  0  0  0  0  0
   60.0320   34.2800   45.7320 C   0  0  0  0  0  0  0  0  0  0  0  0
   58.8350   34.1250   46.4400 C   0  0  0  0  0  0  0  0  0  0  0  0
   57.2580   34.2610   45.5910 S   0  0  0  0  0  0  0  0  0  0  0  0
   57.7240   33.1900   44.1800 C   0  0  0  0  0  0  0  0  0  0  0  0
   57.7690   31.7400   44.5800 C   0  0  0  0  0  0  0  0  0  0  0  0
   58.8920   31.2270   45.2450 C   0  0  0  0  0  0  0  0  0  0  0  0
   58.9790   29.8630   45.5340 C   0  0  0  0  0  0  0  0  0  0  0  0
   57.9440   28.9890   45.1600 C   0  0  0  0  0  0  0  0  0  0  0  0
   58.0470   27.5370   45.4260 C   0  0  0  0  0  0  0  0  0  0  0  0
   59.0630   26.9070   45.0300 O   0  0  0  0  0  0  0  0  0  0  0  0
   57.0010   26.8130   46.0880 N   0  0  0  0  0  0  0  0  0  0  0  0
   56.5010   25.5220   45.7080 C   0  0  0  0  0  0  0  0  0  0  0  0
   57.3680   24.4780   45.3350 C   0  0  0  0  0  0  0  0  0  0  0  0
   56.8530   23.2340   44.9600 C   0  0  0  0  0  0  0  0  0  0  0  0
   55.4720   23.0270   44.9360 C   0  0  0  0  0  0  0  0  0  0  0  0
   54.6030   24.0670   45.2790 C   0  0  0  0  0  0  0  0  0  0  0  0
   55.1130   25.3130   45.6590 C   0  0  0  0  0  0  0  0  0  0  0  0
   54.2380   26.3390   45.9940 O   0  0  0  0  0  0  0  0  0  0  0  0
   56.8050   29.5100   44.5260 C   0  0  0  0  0  0  0  0  0  0  0  0
   56.7210   30.8730   44.2310 C   0  0  0  0  0  0  0  0  0  0  0  0
   58.8660   33.8430   47.8110 C   0  0  0  0  0  0  0  0  0  0  0  0
   60.0900   33.6920   48.4670 C   0  0  0  0  0  0  0  0  0  0  0  0
   61.9030   34.9620   50.1470 H   0  0  0  0  0  0  0  0  0  0  0  0
   62.1981   34.2405   45.8299 H   0  0  0  0  0  0  0  0  0  0  0  0
   60.0094   34.5204   44.6588 H   0  0  0  0  0  0  0  0  0  0  0  0
   56.9842   33.3162   43.3758 H   0  0  0  0  0  0  0  0  0  0  0  0
   58.7272   33.4854   43.8389 H   0  0  0  0  0  0  0  0  0  0  0  0
   59.7086   31.9021   45.5406 H   0  0  0  0  0  0  0  0  0  0  0  0
   59.8632   29.4706   46.0576 H   0  0  0  0  0  0  0  0  0  0  0  0
   58.4557   24.6418   45.3386 H   0  0  0  0  0  0  0  0  0  0  0  0
   57.5360   22.4172   44.6835 H   0  0  0  0  0  0  0  0  0  0  0  0
   55.0680   22.0455   44.6472 H   0  0  0  0  0  0  0  0  0  0  0  0
   53.5154   23.9051   45.2500 H   0  0  0  0  0  0  0  0  0  0  0  0
   55.9735   28.8409   44.2598 H   0  0  0  0  0  0  0  0  0  0  0  0
   55.8294   31.2690   43.7228 H   0  0  0  0  0  0  0  0  0  0  0  0
   57.9255   33.7402   48.3722 H   0  0  0  0  0  0  0  0  0  0  0  0
   60.1105   33.4592   49.5419 H   0  0  0  0  0  0  0  0  0  0  0  0
  1  2  1  0
  2  3  2  0
  2  4  2  0
  2  5  1  0
  5  6  2  0
  6  7  1  0
  7  8  2  0
  8  9  1  0
  9 10  1  0
 10 11  1  0
 11 12  2  0
 12 13  1  0
 13 14  2  0
 14 15  1  0
 15 16  2  0
 15 17  1  0
 17 18  1  0
 18 19  2  0
 19 20  1  0
 20 21  2  0
 21 22  1  0
 22 23  2  0
 23 24  1  0
 14 25  1  0
 25 26  2  0
  8 27  1  0
 27 28  2  0
 28  5  1  0
 26 11  1  0
 23 18  1  0
  1 29  1  0
  6 30  1  0
  7 31  1  0
 10 32  1  0
 10 33  1  0
 12 34  1  0
 13 35  1  0
 19 36  1  0
 20 37  1  0
 21 38  1  0
 22 39  1  0
 25 40  1  0
 26 41  1  0
 27 42  1  0
 28 43  1  0
M  CHG  3   1  -1  17  -1  24  -1
M  END
>  <UniqueID>  (5) 
4

>  <SMILES>  (5) 
[NH-]S(=O)(=O)c1ccc(SCc2ccc(C(=O)[N-]c3ccccc3[O-])cc2)cc1

>  <Energy>  (5) 
45.524106449404265

>  <Genealogy>  (5) 
[NH-]S(=O)(=O)c1ccc(SCc2ccc(C(=O)[N-]c3ccccc3[O-])cc2)cc1 (protonated)
[NH-]S(=O)(=O)c1ccc(SCc2ccc(C(=O)[N-]c3ccccc3[O-])cc2)cc1 (3D coordinates assigned)
[NH-]S(=O)(=O)c1ccc(SCc2ccc(C(=O)[N-]c3ccccc3[O-])cc2)cc1 (optimized conformer: 45.524106449404265 kcal/mol)

>  <smiles>  (5) 
NS(=O)(=O)c1ccc(SCc2ccc(C(=O)Nc3ccccc3O)cc2)cc1

>  <score_type>  (5) 
oracle

>  <origin>  (5) 
adg

>  <m_score__min__energy>  (5) 
-15.82

>  <m_primary>  (5) 
energy

$$$$
5:0
     RDKit          3D

 73 76  0  0  0  0  0  0  0  0999 V2000
   56.8230   30.1420   43.0710 C   0  0  0  0  0  0  0  0  0  0  0  0
   57.8610   31.1910   43.4710 C   0  0  0  0  0  0  0  0  0  0  0  0
   57.8910   32.3360   42.4550 C   0  0  0  0  0  0  0  0  0  0  0  0
   57.5380   31.8120   45.1250 S   0  0  0  0  0  0  0  0  0  0  0  0
   57.3570   30.6430   46.0530 O   0  0  0  0  0  0  0  0  0  0  0  0
   56.2530   32.5860   45.1150 O   0  0  0  0  0  0  0  0  0  0  0  0
   58.8890   32.8060   45.7090 C   0  0  0  0  0  0  0  0  0  0  0  0
   58.8650   34.1810   45.4260 C   0  0  0  0  0  0  0  0  0  0  0  0
   59.8440   35.0340   45.9360 C   0  0  0  0  0  0  0  0  0  0  0  0
   60.8610   34.5260   46.7430 C   0  0  0  0  0  0  0  0  0  0  0  0
   60.9070   33.1610   47.0310 C   0  0  0  0  0  0  0  0  0  0  0  0
   59.9360   32.2880   46.5130 C   0  0  0  0  0  0  0  0  0  0  0  0
   60.0440   30.8920   46.8130 N   0  0  0  0  0  0  0  0  0  0  0  0
   59.7430   29.9300   45.9540 N   0  0  0  0  0  0  0  0  0  0  0  0
   60.1260   28.7670   46.5170 C   0  0  0  0  0  0  0  0  0  0  0  0
   59.9700   27.6180   45.9290 N   0  0  0  0  0  0  0  0  0  0  0  0
   59.6800   26.3540   46.6130 C   0  0  1  0  0  0  0  0  0  0  0  0
   60.1830   26.3930   47.9220 O   0  0  0  0  0  0  0  0  0  0  0  0
   58.1970   26.0880   46.6390 C   0  0  0  0  0  0  0  0  0  0  0  0
   57.5630   24.9860   47.1840 C   0  0  0  0  0  0  0  0  0  0  0  0
   56.2280   25.0750   47.0180 N   0  0  0  0  0  0  0  0  0  0  0  0
   56.0320   26.2360   46.3630 C   0  0  0  0  0  0  0  0  0  0  0  0
   54.7770   26.7020   45.9980 O   0  0  0  0  0  0  0  0  0  0  0  0
   57.2150   26.8940   46.1050 C   0  0  0  0  0  0  0  0  0  0  0  0
   60.7120   28.9880   47.7550 C   0  0  0  0  0  0  0  0  0  0  0  0
   60.6570   30.3620   47.8880 C   0  0  0  0  0  0  0  0  0  0  0  0
   61.1630   31.1270   48.9450 O   0  0  0  0  0  0  0  0  0  0  0  0
   62.5340   31.4950   49.0750 C   0  0  0  0  0  0  0  0  0  0  0  0
   62.7350   32.3450   50.3290 C   0  0  0  0  0  0  0  0  0  0  0  0
   62.5010   31.5340   51.5210 N   0  0  0  0  0  0  0  0  0  0  0  0
   61.3150   30.7670   51.7660 C   0  0  0  0  0  0  0  0  0  0  0  0
   61.4200   29.5200   51.9070 O   0  0  0  0  0  0  0  0  0  0  0  0
   59.9750   31.3910   51.8290 C   0  0  0  0  0  0  0  0  0  0  0  0
   59.8220   32.7610   51.5650 C   0  0  0  0  0  0  0  0  0  0  0  0
   58.5580   33.3540   51.6200 C   0  0  0  0  0  0  0  0  0  0  0  0
   57.4350   32.5820   51.9330 C   0  0  0  0  0  0  0  0  0  0  0  0
   57.5710   31.2120   52.2020 C   0  0  0  0  0  0  0  0  0  0  0  0
   56.3930   30.3800   52.5180 C   0  0  0  0  0  0  0  0  0  0  0  0
   55.5430   30.1690   51.6100 O   0  0  0  0  0  0  0  0  0  0  0  0
   56.1730   29.8400   53.8390 N   0  0  0  0  0  0  0  0  0  0  0  0
   55.1720   28.7830   54.0180 C   0  0  0  0  0  0  0  0  0  0  0  0
   56.8290   30.4320   55.0110 C   0  0  0  0  0  0  0  0  0  0  0  0
   58.8480   30.6320   52.1910 C   0  0  0  0  0  0  0  0  0  0  0  0
   56.3833   29.6976   43.9760 H   0  0  0  0  0  0  0  0  0  0  0  0
   56.0311   30.6186   42.4746 H   0  0  0  0  0  0  0  0  0  0  0  0
   57.3079   29.3551   42.4746 H   0  0  0  0  0  0  0  0  0  0  0  0
   58.8505   30.7104   43.4760 H   0  0  0  0  0  0  0  0  0  0  0  0
   57.9162   33.2982   42.9875 H   0  0  0  0  0  0  0  0  0  0  0  0
   58.7870   32.2427   41.8238 H   0  0  0  0  0  0  0  0  0  0  0  0
   56.9913   32.2897   41.8238 H   0  0  0  0  0  0  0  0  0  0  0  0
   58.0637   34.5911   44.7938 H   0  0  0  0  0  0  0  0  0  0  0  0
   59.8135   36.1082   45.7012 H   0  0  0  0  0  0  0  0  0  0  0  0
   61.6270   35.2008   47.1527 H   0  0  0  0  0  0  0  0  0  0  0  0
   61.7108   32.7654   47.6693 H   0  0  0  0  0  0  0  0  0  0  0  0
   60.1690   25.5385   46.0599 H   0  0  0  0  0  0  0  0  0  0  0  0
   59.4410   26.1460   48.5350 H   0  0  0  0  0  0  0  0  0  0  0  0
   58.0772   24.1519   47.6840 H   0  0  0  0  0  0  0  0  0  0  0  0
   57.3469   27.8545   45.5854 H   0  0  0  0  0  0  0  0  0  0  0  0
   61.1210   28.2488   48.4595 H   0  0  0  0  0  0  0  0  0  0  0  0
   63.1488   30.5859   49.1497 H   0  0  0  0  0  0  0  0  0  0  0  0
   62.8342   32.0796   48.1929 H   0  0  0  0  0  0  0  0  0  0  0  0
   63.7648   32.7312   50.3468 H   0  0  0  0  0  0  0  0  0  0  0  0
   62.0238   33.1841   50.3160 H   0  0  0  0  0  0  0  0  0  0  0  0
   60.7020   33.3712   51.3134 H   0  0  0  0  0  0  0  0  0  0  0  0
   58.4463   34.4293   51.4168 H   0  0  0  0  0  0  0  0  0  0  0  0
   56.4406   33.0510   51.9684 H   0  0  0  0  0  0  0  0  0  0  0  0
   55.0088   28.6107   55.0921 H   0  0  0  0  0  0  0  0  0  0  0  0
   54.2261   29.0904   53.5481 H   0  0  0  0  0  0  0  0  0  0  0  0
   55.5304   27.8552   53.5481 H   0  0  0  0  0  0  0  0  0  0  0  0
   56.3781   30.0251   55.9281 H   0  0  0  0  0  0  0  0  0  0  0  0
   57.9020   30.1905   54.9916 H   0  0  0  0  0  0  0  0  0  0  0  0
   56.6985   31.5241   54.9916 H   0  0  0  0  0  0  0  0  0  0  0  0
   58.9689   29.5743   52.4679 H   0  0  0  0  0  0  0  0  0  0  0  0
  1  2  1  0
  2  3  1  0
  2  4  1  0
  4  5  2  0
  4  6  2  0
  4  7  1  0
  7  8  2  0
  8  9  1  0
  9 10  2  0
 10 11  1  0
 11 12  2  0
 12 13  1  0
 13 14  1  0
 14 15  1  0
 15 16  2  3
 16 17  1  0
 17 18  1  0
 17 19  1  0
 19 20  2  0
 20 21  1  0
 21 22  1  0
 22 23  1  0
 22 24  2  0
 15 25  1  0
 25 26  2  0
 26 27  1  0
 27 28  1  0
 28 29  1  0
 29 30  1  0
 30 31  1  0
 31 32  2  0
 31 33  1  0
 33 34  2  0
 34 35  1  0
 35 36  2  0
 36 37  1  0
 37 38  1  0
 38 39  2  0
 38 40  1  0
 40 41  1  0
 40 42  1  0
 37 43  2  0
 12  7  1  0
 26 13  1  0
 43 33  1  0
 24 19  1  0
  1 44  1  0
  1 45  1  0
  1 46  1  0
  2 47  1  0
  3 48  1  0
  3 49  1  0
  3 50  1  0
  8 51  1  0
  9 52  1  0
 10 53  1  0
 11 54  1  0
 17 55  1  6
 18 56  1  0
 20 57  1  0
 24 58  1  0
 25 59  1  0
 28 60  1  0
 28 61  1  0
 29 62  1  0
 29 63  1  0
 34 64  1  0
 35 65  1  0
 36 66  1  0
 41 67  1  0
 41 68  1  0
 41 69  1  0
 42 70  1  0
 42 71  1  0
 42 72  1  0
 43 73  1  0
M  CHG  4  14  -1  21  -1  23  -1  30  -1
M  END
>  <UniqueID>  (6) 
5

>  <SMILES>  (6) 
CC(C)S(=O)(=O)c1ccccc1-n1[n-]c(=N[C@@H](O)c2c[n-]c([O-])c2)cc1OCC[N-]C(=O)c1cccc(C(=O)N(C)C)c1

>  <Energy>  (6) 
136.77642920209456

>  <Genealogy>  (6) 
CC(C)S(=O)(=O)c1ccccc1-n1[n-]c(=NC(O)c2c[n-]c([O-])c2)cc1OCC[N-]C(=O)c1cccc(C(=O)N(C)C)c1 (protonated)
CC(C)S(=O)(=O)c1ccccc1-n1[n-]c(=N[C@@H](O)c2c[n-]c([O-])c2)cc1OCC[N-]C(=O)c1cccc(C(=O)N(C)C)c1 (chirality)
CC(C)S(=O)(=O)c1ccccc1-n1[n-]c(=N[C@@H](O)c2c[n-]c([O-])c2)cc1OCC[N-]C(=O)c1cccc(C(=O)N(C)C)c1 (3D coordinates assigned)
CC(C)S(=O)(=O)c1ccccc1-n1[n-]c(=N[C@@H](O)c2c[n-]c([O-])c2)cc1OCC[N-]C(=O)c1cccc(C(=O)N(C)C)c1 (optimized conformer: 136.77642920209456 kcal/mol)

>  <smiles>  (6) 
CC(C)S(=O)(=O)c1ccccc1-n1[nH]c(=NC(O)c2c[nH]c(O)c2)cc1OCCNC(=O)c1cccc(C(=O)N(C)C)c1

>  <score_type>  (6) 
oracle

>  <origin>  (6) 
adg

>  <m_score__min__energy>  (6) 
-18.399999999999999

>  <m_primary>  (6) 
energy

$$$$
6:0
     RDKit          3D

 42 44  0  0  0  0  0  0  0  0999 V2000
   56.3590   30.0790   45.9700 H   0  0  0  0  0  0  0  0  0  0  0  0
   57.3620   30.2060   46.0070 O   0  0  0  0  0  0  0  0  0  0  0  0
   57.9780   31.4570   46.0770 C   0  0  0  0  0  0  0  0  0  0  0  0
   57.3870   32.5000   45.4460 N   0  0  0  0  0  0  0  0  0  0  0  0
   57.9070   33.7500   45.4820 C   0  0  0  0  0  0  0  0  0  0  0  0
   57.3130   34.6740   44.8640 O   0  0  0  0  0  0  0  0  0  0  0  0
   59.0630   33.9990   46.1760 N   0  0  0  0  0  0  0  0  0  0  0  0
   59.6450   35.3520   46.1810 C   0  0  0  0  0  0  0  0  0  0  0  0
   59.7885   35.6856   47.2193 H   0  0  0  0  0  0  0  0  0  0  0  0
   60.6156   35.3355   45.6637 H   0  0  0  0  0  0  0  0  0  0  0  0
   58.9655   36.0453   45.6637 H   0  0  0  0  0  0  0  0  0  0  0  0
   59.7220   32.9660   46.7930 C   0  0  0  0  0  0  0  0  0  0  0  0
   60.8370   33.1710   47.3480 O   0  0  0  0  0  0  0  0  0  0  0  0
   59.1760   31.6640   46.7850 C   0  0  0  0  0  0  0  0  0  0  0  0
   59.8670   30.5250   47.4360 C   0  0  0  0  0  0  0  0  0  0  0  0
   60.1612   29.6639   46.8179 H   0  0  0  0  0  0  0  0  0  0  0  0
   60.1480   30.5010   48.7460 C   0  0  0  0  0  0  0  0  0  0  0  0
   61.1188   30.0985   49.0707 H   0  0  0  0  0  0  0  0  0  0  0  0
   59.2030   30.9950   49.7740 C   0  0  0  0  0  0  0  0  0  0  0  0
   59.2500   32.3420   50.1610 C   0  0  0  0  0  0  0  0  0  0  0  0
   59.9821   33.0191   49.6968 H   0  0  0  0  0  0  0  0  0  0  0  0
   58.3720   32.8290   51.1330 C   0  0  0  0  0  0  0  0  0  0  0  0
   58.4139   33.8876   51.4290 H   0  0  0  0  0  0  0  0  0  0  0  0
   57.4410   31.9750   51.7300 C   0  0  0  0  0  0  0  0  0  0  0  0
   56.7544   32.3636   52.4966 H   0  0  0  0  0  0  0  0  0  0  0  0
   57.3780   30.6270   51.3570 C   0  0  0  0  0  0  0  0  0  0  0  0
   56.3990   29.7790   51.9780 N   0  0  0  0  0  0  0  0  0  0  0  0
   55.2110   30.2240   52.6400 C   0  0  0  0  0  0  0  0  0  0  0  0
   55.3120   30.7980   53.7570 O   0  0  0  0  0  0  0  0  0  0  0  0
   53.9180   29.9120   52.0950 N   0  0  0  0  0  0  0  0  0  0  0  0
   52.8820   30.6960   51.9810 C   0  0  0  0  0  0  0  0  0  0  0  0
   52.4780   31.0780   50.6960 C   0  0  0  0  0  0  0  0  0  0  0  0
   53.0117   30.6939   49.8142 H   0  0  0  0  0  0  0  0  0  0  0  0
   51.3970   31.9470   50.5350 C   0  0  0  0  0  0  0  0  0  0  0  0
   51.0752   32.2418   49.5253 H   0  0  0  0  0  0  0  0  0  0  0  0
   50.7420   32.4290   51.6230 N   0  0  0  0  0  0  0  0  0  0  0  0
   51.1140   32.0890   52.8850 C   0  0  0  0  0  0  0  0  0  0  0  0
   50.5654   32.4969   53.7467 H   0  0  0  0  0  0  0  0  0  0  0  0
   52.1910   31.2230   53.0920 C   0  0  0  0  0  0  0  0  0  0  0  0
   52.4976   30.9543   54.1137 H   0  0  0  0  0  0  0  0  0  0  0  0
   58.2340   30.1520   50.3490 C   0  0  0  0  0  0  0  0  0  0  0  0
   58.1458   29.1106   50.0059 H   0  0  0  0  0  0  0  0  0  0  0  0
  1  2  1  0
  2  3  1  0
  3  4  1  0
  4  5  1  0
  5  6  2  0
  5  7  1  0
  7  8  1  0
  8  9  1  0
  8 10  1  0
  8 11  1  0
  7 12  1  0
 12 13  2  0
 12 14  1  0
 14 15  1  0
 15 16  1  0
 15 17  2  0
 17 18  1  0
 17 19  1  0
 19 20  2  0
 20 21  1  0
 20 22  1  0
 22 23  1  0
 22 24  2  0
 24 25  1  0
 24 26  1  0
 26 27  1  0
 27 28  1  0
 28 29  2  0
 28 30  1  0
 30 31  2  3
 31 32  1  0
 32 33  1  0
 32 34  2  0
 34 35  1  0
 34 36  1  0
 36 37  1  0
 37 38  1  0
 37 39  2  0
 39 40  1  0
 26 41  2  0
 41 42  1  0
 14  3  2  0
 41 19  1  0
 39 31  1  0
M  CHG  3   4  -1  27  -1  36  -1
M  END
>  <UniqueID>  (7) 
6

>  <SMILES>  (7) 
Cn1c(=O)[n-]c(O)c(/C=C/c2cccc([N-]C(=O)N=c3cc[n-]cc3)c2)c1=O

>  <Energy>  (7) 
68.32207715037632

>  <Genealogy>  (7) 
Cn1c(=O)[n-]c(O)c(C=Cc2cccc([N-]C(=O)N=c3cc[n-]cc3)c2)c1=O (protonated)
Cn1c(=O)[n-]c(O)c(/C=C/c2cccc([N-]C(=O)N=c3cc[n-]cc3)c2)c1=O (cis-trans isomerization)
Cn1c(=O)[n-]c(O)c(/C=C/c2cccc([N-]C(=O)N=c3cc[n-]cc3)c2)c1=O (3D coordinates assigned)
Cn1c(=O)[n-]c(O)c(/C=C/c2cccc([N-]C(=O)N=c3cc[n-]cc3)c2)c1=O (optimized conformer: 68.32207715037632 kcal/mol)

>  <smiles>  (7) 
Cn1c(=O)[nH]c(O)c(C=Cc2cccc(NC(=O)N=c3cc[nH]cc3)c2)c1=O

>  <score_type>  (7) 
oracle

>  <origin>  (7) 
adg

>  <m_score__min__energy>  (7) 
-13.06

>  <m_primary>  (7) 
energy

$$$$
7:0
     RDKit          3D

 44 48  0  0  0  0  0  0  0  0999 V2000
   57.2340   28.3947   45.9626 H   0  0  0  0  0  0  0  0  0  0  0  0
   57.7330   27.6910   46.6450 C   0  0  0  0  0  0  0  0  0  0  0  0
   57.1910   26.3260   46.7440 C   0  0  0  0  0  0  0  0  0  0  0  0
   57.8840   25.2890   47.2450 N   0  0  0  0  0  0  0  0  0  0  0  0
   56.9910   24.2740   47.2170 C   0  0  0  0  0  0  0  0  0  0  0  0
   57.2760   23.1100   47.6010 O   0  0  0  0  0  0  0  0  0  0  0  0
   55.7670   24.6080   46.7530 N   0  0  0  0  0  0  0  0  0  0  0  0
   55.9070   25.9130   46.4700 C   0  0  0  0  0  0  0  0  0  0  0  0
   54.8710   26.7150   46.0060 O   0  0  0  0  0  0  0  0  0  0  0  0
   58.7970   28.1320   47.3340 C   0  0  0  0  0  0  0  0  0  0  0  0
   59.7630   27.3420   47.9290 C   0  0  0  0  0  0  0  0  0  0  0  0
   59.7516   26.2427   47.9665 H   0  0  0  0  0  0  0  0  0  0  0  0
   60.7230   28.1320   48.4570 N   0  0  0  0  0  0  0  0  0  0  0  0
   61.6010   27.7440   48.8330 H   0  0  0  0  0  0  0  0  0  0  0  0
   60.4040   29.4050   48.2480 N   0  0  0  0  0  0  0  0  0  0  0  0
   61.0850   30.5820   48.4910 C   0  0  0  0  0  0  0  0  0  0  0  0
   62.0860   30.7580   49.3230 N   0  0  0  0  0  0  0  0  0  0  0  0
   63.2350   31.6020   49.6930 C   0  0  0  0  0  0  0  0  0  0  0  0
   63.6300   30.8612   50.4038 H   0  0  0  0  0  0  0  0  0  0  0  0
   63.8730   32.4550   48.6270 C   0  0  0  0  0  0  0  0  0  0  0  0
   64.9601   32.6230   48.6313 H   0  0  0  0  0  0  0  0  0  0  0  0
   63.8802   32.4577   47.5270 H   0  0  0  0  0  0  0  0  0  0  0  0
   62.9860   33.0880   49.7220 C   0  0  0  0  0  0  0  0  0  0  0  0
   63.4389   33.7086   50.5092 H   0  0  0  0  0  0  0  0  0  0  0  0
   62.0944   33.7322   49.7316 H   0  0  0  0  0  0  0  0  0  0  0  0
   60.6050   31.7110   47.8970 N   0  0  0  0  0  0  0  0  0  0  0  0
   59.4800   31.7080   47.1250 C   0  0  0  0  0  0  0  0  0  0  0  0
   59.0110   32.9300   46.5210 N   0  0  0  0  0  0  0  0  0  0  0  0
   59.9890   33.9210   46.0570 C   0  0  0  0  0  0  0  0  0  0  0  0
   60.6095   34.2390   46.9078 H   0  0  0  0  0  0  0  0  0  0  0  0
   60.6111   33.4591   45.2762 H   0  0  0  0  0  0  0  0  0  0  0  0
   59.2910   35.1470   45.4610 C   0  0  0  0  0  0  0  0  0  0  0  0
   58.8672   35.7551   46.2737 H   0  0  0  0  0  0  0  0  0  0  0  0
   60.0249   35.7386   44.8940 H   0  0  0  0  0  0  0  0  0  0  0  0
   58.2150   34.7260   44.5590 N   0  0  0  0  0  0  0  0  0  0  0  0
   58.6230   34.1000   43.8240 H   0  0  0  0  0  0  0  0  0  0  0  0
   57.1390   33.9990   45.2590 C   0  0  0  0  0  0  0  0  0  0  0  0
   56.3493   34.7200   45.5169 H   0  0  0  0  0  0  0  0  0  0  0  0
   56.7967   33.2115   44.5715 H   0  0  0  0  0  0  0  0  0  0  0  0
   57.5820   33.2860   46.5550 C   0  0  0  0  0  0  0  0  0  0  0  0
   57.4018   33.9552   47.4092 H   0  0  0  0  0  0  0  0  0  0  0  0
   57.0000   32.3576   46.6512 H   0  0  0  0  0  0  0  0  0  0  0  0
   58.8010   30.5470   46.9480 N   0  0  0  0  0  0  0  0  0  0  0  0
   59.2610   29.4210   47.5330 C   0  0  0  0  0  0  0  0  0  0  0  0
  1  2  1  0
  2  3  1  0
  3  4  1  0
  4  5  1  0
  5  6  2  0
  5  7  1  0
  7  8  1  0
  8  9  1  0
  2 10  2  0
 10 11  1  0
 11 12  1  0
 11 13  2  0
 13 14  1  0
 13 15  1  0
 15 16  1  0
 16 17  2  0
 17 18  1  0
 18 19  1  0
 18 20  1  0
 20 21  1  0
 20 22  1  0
 20 23  1  0
 23 24  1  0
 23 25  1  0
 16 26  1  0
 26 27  2  0
 27 28  1  0
 28 29  1  0
 29 30  1  0
 29 31  1  0
 29 32  1  0
 32 33  1  0
 32 34  1  0
 32 35  1  0
 35 36  1  0
 35 37  1  0
 37 38  1  0
 37 39  1  0
 37 40  1  0
 40 41  1  0
 40 42  1  0
 27 43  1  0
 43 44  2  0
  8  3  2  0
 44 10  1  0
 44 15  1  0
 23 18  1  0
 40 28  1  0
M  CHG  4   4  -1   7  -1   9  -1  13   1
M  END
>  <UniqueID>  (8) 
7

>  <SMILES>  (8) 
O=c1[n-]c([O-])c(/C=c2/c[nH+]n3/c(=N\C4CC4)nc(N4CCNCC4)nc23)[n-]1

>  <Energy>  (8) 
430.48909691512233

>  <Genealogy>  (8) 
O=c1[n-]c([O-])c(C=c2c[nH+]n3c(=NC4CC4)nc(N4CCNCC4)nc23)[n-]1 (protonated)
O=c1[n-]c([O-])c(/C=c2/c[nH+]n3/c(=N\C4CC4)nc(N4CCNCC4)nc23)[n-]1 (cis-trans isomerization)
O=c1[n-]c([O-])c(/C=c2/c[nH+]n3/c(=N\C4CC4)nc(N4CCNCC4)nc23)[n-]1 (3D coordinates assigned)
O=c1[n-]c([O-])c(/C=c2/c[nH+]n3/c(=N\C4CC4)nc(N4CCNCC4)nc23)[n-]1 (nonaromatic ring conformer: 430.48909691512233 kcal/mol)

>  <smiles>  (8) 
O=c1[nH]c(O)c(C=c2cnn3c(=NC4CC4)nc(N4CCNCC4)nc23)[nH]1

>  <score_type>  (8) 
oracle

>  <origin>  (8) 
adg

>  <m_score__min__energy>  (8) 
-14.91

>  <m_primary>  (8) 
energy

$$$$
8:0
     RDKit          3D

 39 41  0  0  0  0  0  0  0  0999 V2000
   58.1050   33.1650   46.0150 C   0  0  0  0  0  0  0  0  0  0  0  0
   57.8870   32.5350   44.6440 C   0  0  0  0  0  0  0  0  0  0  0  0
   57.3930   31.1300   44.7820 C   0  0  0  0  0  0  0  0  0  0  0  0
   56.0820   30.7990   44.7990 N   0  0  0  0  0  0  0  0  0  0  0  0
   55.8730   29.4860   44.8820 N   0  0  0  0  0  0  0  0  0  0  0  0
   57.0210   28.7720   44.9190 C   0  0  0  0  0  0  0  0  0  0  0  0
   57.0790   27.4760   45.0120 N   0  0  0  0  0  0  0  0  0  0  0  0
   56.4070   26.6680   45.9910 C   0  0  0  0  0  0  0  0  0  0  0  0
   55.1510   26.5570   45.9950 O   0  0  0  0  0  0  0  0  0  0  0  0
   57.2160   25.9140   47.0010 C   0  0  0  0  0  0  0  0  0  0  0  0
   58.4600   26.6210   47.2830 N   0  0  0  0  0  0  0  0  0  0  0  0
   58.5660   27.8980   47.6990 C   0  0  0  0  0  0  0  0  0  0  0  0
   59.9120   28.1870   47.8020 C   0  0  0  0  0  0  0  0  0  0  0  0
   60.5290   29.4020   48.2510 N   0  0  0  0  0  0  0  0  0  0  0  0
   61.0880   30.3930   47.3710 C   0  0  0  0  0  0  0  0  0  0  0  0
   61.2800   30.1210   46.1540 O   0  0  0  0  0  0  0  0  0  0  0  0
   61.4710   31.7230   47.8920 C   0  0  0  0  0  0  0  0  0  0  0  0
   62.3890   32.5360   47.2040 C   0  0  0  0  0  0  0  0  0  0  0  0
   62.7220   33.7880   47.7250 C   0  0  0  0  0  0  0  0  0  0  0  0
   62.1420   34.2240   48.9170 C   0  0  0  0  0  0  0  0  0  0  0  0
   61.2310   33.3940   49.5740 C   0  0  0  0  0  0  0  0  0  0  0  0
   60.9200   32.1780   49.0530 N   0  0  0  0  0  0  0  0  0  0  0  0
   60.5740   27.0310   47.4440 C   0  0  0  0  0  0  0  0  0  0  0  0
   59.6650   26.0910   47.1200 N   0  0  0  0  0  0  0  0  0  0  0  0
   58.3770   29.7620   44.8470 S   0  0  0  0  0  0  0  0  0  0  0  0
   57.8524   32.4351   46.7983 H   0  0  0  0  0  0  0  0  0  0  0  0
   59.1587   33.4635   46.1180 H   0  0  0  0  0  0  0  0  0  0  0  0
   57.4612   34.0509   46.1180 H   0  0  0  0  0  0  0  0  0  0  0  0
   57.1442   33.1263   44.0886 H   0  0  0  0  0  0  0  0  0  0  0  0
   58.8450   32.5223   44.1035 H   0  0  0  0  0  0  0  0  0  0  0  0
   56.6358   25.8156   47.9304 H   0  0  0  0  0  0  0  0  0  0  0  0
   57.4537   24.9185   46.5980 H   0  0  0  0  0  0  0  0  0  0  0  0
   57.7338   28.5837   47.9164 H   0  0  0  0  0  0  0  0  0  0  0  0
   60.6200   29.5390   49.2820 H   0  0  0  0  0  0  0  0  0  0  0  0
   62.8410   32.1887   46.2632 H   0  0  0  0  0  0  0  0  0  0  0  0
   63.4413   34.4304   47.1960 H   0  0  0  0  0  0  0  0  0  0  0  0
   62.3991   35.2090   49.3339 H   0  0  0  0  0  0  0  0  0  0  0  0
   60.7649   33.7248   50.5139 H   0  0  0  0  0  0  0  0  0  0  0  0
   61.6658   26.8984   47.4260 H   0  0  0  0  0  0  0  0  0  0  0  0
  1  2  1  0
  2  3  1  0
  3  4  2  0
  4  5  1  0
  5  6  1  0
  6  7  2  3
  7  8  1  0
  8  9  2  0
  8 10  1  0
 10 11  1  0
 11 12  1  0
 12 13  2  0
 13 14  1  0
 14 15  1  0
 15 16  2  0
 15 17  1  0
 17 18  2  0
 18 19  1  0
 19 20  2  0
 20 21  1  0
 21 22  2  0
 13 23  1  0
 23 24  2  0
  6 25  1  0
 25  3  1  0
 24 11  1  0
 22 17  1  0
  1 26  1  0
  1 27  1  0
  1 28  1  0
  2 29  1  0
  2 30  1  0
 10 31  1  0
 10 32  1  0
 12 33  1  0
 14 34  1  0
 18 35  1  0
 19 36  1  0
 20 37  1  0
 21 38  1  0
 23 39  1  0
M  CHG  1   5  -1
M  END
>  <UniqueID>  (9) 
8

>  <SMILES>  (9) 
CCc1n[n-]c(=NC(=O)Cn2cc(NC(=O)c3ccccn3)cn2)s1

>  <Energy>  (9) 
104.75983089135752

>  <Genealogy>  (9) 
CCc1n[n-]c(=NC(=O)Cn2cc(NC(=O)c3ccccn3)cn2)s1 (protonated)
CCc1n[n-]c(=NC(=O)Cn2cc(NC(=O)c3ccccn3)cn2)s1 (3D coordinates assigned)
CCc1n[n-]c(=NC(=O)Cn2cc(NC(=O)c3ccccn3)cn2)s1 (optimized conformer: 104.75983089135752 kcal/mol)

>  <smiles>  (9) 
CCc1n[nH]c(=NC(=O)Cn2cc(NC(=O)c3ccccn3)cn2)s1

>  <score_type>  (9) 
oracle

>  <origin>  (9) 
adg

>  <m_score__min__energy>  (9) 
-9.6199999999999992

>  <m_primary>  (9) 
energy

$$$$
9:0
     RDKit          3D

 68 72  0  0  0  0  0  0  0  0999 V2000
   60.0270   34.5610   49.3240 O   0  0  0  0  0  0  0  0  0  0  0  0
   60.5590   34.2300   48.2300 C   0  0  0  0  0  0  0  0  0  0  0  0
   62.0200   33.8380   48.2120 C   0  0  0  0  0  0  0  0  0  0  0  0
   62.2840   32.3630   48.5290 C   0  0  0  0  0  0  0  0  0  0  0  0
   62.8790   32.1680   47.1430 C   0  0  0  0  0  0  0  0  0  0  0  0
   62.5900   33.6220   46.8070 C   0  0  0  0  0  0  0  0  0  0  0  0
   59.7560   34.2450   47.0370 N   0  0  0  0  0  0  0  0  0  0  0  0
   59.6930   35.3980   46.1370 C   0  0  0  0  0  0  0  0  0  0  0  0
   58.9480   34.9170   44.8690 C   0  0  0  0  0  0  0  0  0  0  0  0
   58.5910   33.5100   45.1930 C   0  0  0  0  0  0  0  0  0  0  0  0
   57.8630   32.6140   44.4100 C   0  0  0  0  0  0  0  0  0  0  0  0
   57.6000   31.3300   44.9220 C   0  0  0  0  0  0  0  0  0  0  0  0
   56.7330   30.1520   43.9440 S   0  0  0  0  0  0  0  0  0  0  0  0
   55.3360   29.9980   44.4810 O   0  0  0  0  0  0  0  0  0  0  0  0
   56.6450   30.6340   42.5230 O   0  0  0  0  0  0  0  0  0  0  0  0
   57.5240   28.6110   43.9770 N   0  0  0  0  0  0  0  0  0  0  0  0
   58.2290   28.1470   45.1280 C   0  0  0  0  0  0  0  0  0  0  0  0
   59.6250   28.2160   45.1550 C   0  0  0  0  0  0  0  0  0  0  0  0
   60.3310   27.7880   46.2830 C   0  0  0  0  0  0  0  0  0  0  0  0
   59.6430   27.2750   47.3940 C   0  0  0  0  0  0  0  0  0  0  0  0
   60.4070   26.7890   48.6000 C   0  0  0  0  0  0  0  0  0  0  0  0
   61.0060   27.9600   49.3810 C   0  0  0  0  0  0  0  0  0  0  0  0
   59.9530   28.6700   50.1210 N   0  0  0  0  0  0  0  0  0  0  0  0
   59.9080   30.0990   49.7700 C   0  0  0  0  0  0  0  0  0  0  0  0
   58.5630   30.7020   50.1960 C   0  0  1  0  0  0  0  0  0  0  0  0
   57.7920   29.7360   50.8660 O   0  0  0  0  0  0  0  0  0  0  0  0
   58.7920   31.9030   51.0890 C   0  0  0  0  0  0  0  0  0  0  0  0
   60.0920   32.3580   51.3700 C   0  0  0  0  0  0  0  0  0  0  0  0
   60.2800   33.4790   52.1790 C   0  0  0  0  0  0  0  0  0  0  0  0
   59.1680   34.1480   52.6890 C   0  0  0  0  0  0  0  0  0  0  0  0
   57.9150   33.7130   52.3930 N   0  0  0  0  0  0  0  0  0  0  0  0
   57.7040   32.6210   51.6110 C   0  0  0  0  0  0  0  0  0  0  0  0
   58.2430   27.1640   47.3480 C   0  0  0  0  0  0  0  0  0  0  0  0
   57.5400   27.5970   46.2200 C   0  0  0  0  0  0  0  0  0  0  0  0
   58.0570   30.9830   46.2100 C   0  0  0  0  0  0  0  0  0  0  0  0
   58.7780   31.9080   46.9810 C   0  0  0  0  0  0  0  0  0  0  0  0
   59.0580   33.1630   46.4320 C   0  0  0  0  0  0  0  0  0  0  0  0
   62.4145   34.6294   48.8662 H   0  0  0  0  0  0  0  0  0  0  0  0
   62.9977   32.2015   49.3503 H   0  0  0  0  0  0  0  0  0  0  0  0
   61.4669   31.7151   48.8790 H   0  0  0  0  0  0  0  0  0  0  0  0
   63.9490   31.9131   47.1465 H   0  0  0  0  0  0  0  0  0  0  0  0
   62.5100   31.3639   46.4893 H   0  0  0  0  0  0  0  0  0  0  0  0
   63.4880   34.2193   46.5907 H   0  0  0  0  0  0  0  0  0  0  0  0
   61.9925   33.8787   45.9198 H   0  0  0  0  0  0  0  0  0  0  0  0
   59.1425   36.2231   46.6126 H   0  0  0  0  0  0  0  0  0  0  0  0
   60.6987   35.7711   45.8932 H   0  0  0  0  0  0  0  0  0  0  0  0
   58.0462   35.5207   44.6893 H   0  0  0  0  0  0  0  0  0  0  0  0
   59.5530   35.0073   43.9548 H   0  0  0  0  0  0  0  0  0  0  0  0
   57.5019   32.9053   43.4126 H   0  0  0  0  0  0  0  0  0  0  0  0
   60.1705   28.6090   44.2844 H   0  0  0  0  0  0  0  0  0  0  0  0
   61.4289   27.8534   46.3002 H   0  0  0  0  0  0  0  0  0  0  0  0
   59.7239   26.2309   49.2571 H   0  0  0  0  0  0  0  0  0  0  0  0
   61.2276   26.1420   48.2564 H   0  0  0  0  0  0  0  0  0  0  0  0
   61.7542   27.5780   50.0911 H   0  0  0  0  0  0  0  0  0  0  0  0
   61.4796   28.6572   48.6742 H   0  0  0  0  0  0  0  0  0  0  0  0
   59.0360   28.2340   49.8650 H   0  0  0  0  0  0  0  0  0  0  0  0
   60.7236   30.6267   50.2861 H   0  0  0  0  0  0  0  0  0  0  0  0
   60.0236   30.2072   48.6815 H   0  0  0  0  0  0  0  0  0  0  0  0
   58.0174   31.0285   49.2984 H   0  0  0  0  0  0  0  0  0  0  0  0
   58.4270   29.0650   51.2300 H   0  0  0  0  0  0  0  0  0  0  0  0
   60.9616   31.8299   50.9518 H   0  0  0  0  0  0  0  0  0  0  0  0
   61.2955   33.8316   52.4122 H   0  0  0  0  0  0  0  0  0  0  0  0
   59.3052   35.0297   53.3323 H   0  0  0  0  0  0  0  0  0  0  0  0
   56.6766   32.2986   51.3863 H   0  0  0  0  0  0  0  0  0  0  0  0
   57.6986   26.7351   48.2022 H   0  0  0  0  0  0  0  0  0  0  0  0
   56.4442   27.5064   46.1882 H   0  0  0  0  0  0  0  0  0  0  0  0
   57.8472   29.9812   46.6130 H   0  0  0  0  0  0  0  0  0  0  0  0
   59.1157   31.6510   47.9958 H   0  0  0  0  0  0  0  0  0  0  0  0
  1  2  2  0
  2  3  1  0
  3  4  1  0
  4  5  1  0
  5  6  1  0
  2  7  1  0
  7  8  1  0
  8  9  1  0
  9 10  1  0
 10 11  2  0
 11 12  1  0
 12 13  1  0
 13 14  2  0
 13 15  2  0
 13 16  1  0
 16 17  1  0
 17 18  2  0
 18 19  1  0
 19 20  2  0
 20 21  1  0
 21 22  1  0
 22 23  1  0
 23 24  1  0
 24 25  1  0
 25 26  1  0
 25 27  1  0
 27 28  2  0
 28 29  1  0
 29 30  2  0
 30 31  1  0
 31 32  2  0
 20 33  1  0
 33 34  2  0
 12 35  2  0
 35 36  1  0
 36 37  2  0
  6  3  1  0
 37  7  1  0
 37 10  1  0
 34 17  1  0
 32 27  1  0
  3 38  1  0
  4 39  1  0
  4 40  1  0
  5 41  1  0
  5 42  1  0
  6 43  1  0
  6 44  1  0
  8 45  1  0
  8 46  1  0
  9 47  1  0
  9 48  1  0
 11 49  1  0
 18 50  1  0
 19 51  1  0
 21 52  1  0
 21 53  1  0
 22 54  1  0
 22 55  1  0
 23 56  1  0
 24 57  1  0
 24 58  1  0
 25 59  1  6
 26 60  1  0
 28 61  1  0
 29 62  1  0
 30 63  1  0
 32 64  1  0
 33 65  1  0
 34 66  1  0
 35 67  1  0
 36 68  1  0
M  CHG  1  16  -1
M  END
>  <UniqueID>  (10) 
9

>  <SMILES>  (10) 
O=C(C1CCC1)N1CCc2cc(S(=O)(=O)[N-]c3ccc(CCNC[C@@H](O)c4cccnc4)cc3)ccc21

>  <Energy>  (10) 
154.97375154841154

>  <Genealogy>  (10) 
O=C(C1CCC1)N1CCc2cc(S(=O)(=O)[N-]c3ccc(CCNCC(O)c4cccnc4)cc3)ccc21 (protonated)
O=C(C1CCC1)N1CCc2cc(S(=O)(=O)[N-]c3ccc(CCNC[C@@H](O)c4cccnc4)cc3)ccc21 (chirality)
O=C(C1CCC1)N1CCc2cc(S(=O)(=O)[N-]c3ccc(CCNC[C@@H](O)c4cccnc4)cc3)ccc21 (3D coordinates assigned)
O=C(C1CCC1)N1CCc2cc(S(=O)(=O)[N-]c3ccc(CCNC[C@@H](O)c4cccnc4)cc3)ccc21 (nonaromatic ring conformer: 154.97375154841154 kcal/mol)

>  <smiles>  (10) 
O=C(C1CCC1)N1CCc2cc(S(=O)(=O)Nc3ccc(CCNCC(O)c4cccnc4)cc3)ccc21

>  <score_type>  (10) 
oracle

>  <origin>  (10) 
adg

>  <m_score__min__energy>  (10) 
-12.66

>  <m_primary>  (10) 
energy

$$$$
10:0
     RDKit          3D

 35 36  0  0  0  0  0  0  0  0999 V2000
   57.1420   20.9200   42.9390 N   0  0  0  0  0  0  0  0  0  0  0  0
   57.0120   22.1410   43.6710 C   0  0  0  0  0  0  0  0  0  0  0  0
   58.0390   22.5620   44.5290 C   0  0  0  0  0  0  0  0  0  0  0  0
   57.9130   23.7560   45.2450 C   0  0  0  0  0  0  0  0  0  0  0  0
   56.7570   24.5390   45.1130 C   0  0  0  0  0  0  0  0  0  0  0  0
   56.5970   26.0560   45.9940 S   0  0  0  0  0  0  0  0  0  0  0  0
   55.1560   26.4830   45.9770 O   0  0  0  0  0  0  0  0  0  0  0  0
   57.0210   25.8740   47.4260 O   0  0  0  0  0  0  0  0  0  0  0  0
   57.5650   27.2900   45.2480 N   0  0  0  0  0  0  0  0  0  0  0  0
   56.8040   28.5340   45.1620 C   0  0  0  0  0  0  0  0  0  0  0  0
   57.7510   29.7040   44.9260 C   0  0  0  0  0  0  0  0  0  0  0  0
   57.0540   30.9670   45.1680 N   0  0  0  0  0  0  0  0  0  0  0  0
   57.6110   32.1120   45.4450 C   0  0  0  0  0  0  0  0  0  0  0  0
   58.1420   32.3090   46.7260 C   0  0  0  0  0  0  0  0  0  0  0  0
   58.7430   33.5270   47.0480 C   0  0  0  0  0  0  0  0  0  0  0  0
   58.8160   34.5220   46.1230 N   0  0  0  0  0  0  0  0  0  0  0  0
   58.3100   34.3610   44.8710 C   0  0  0  0  0  0  0  0  0  0  0  0
   57.6990   33.1590   44.5060 C   0  0  0  0  0  0  0  0  0  0  0  0
   55.7330   24.1210   44.2520 C   0  0  0  0  0  0  0  0  0  0  0  0
   55.8590   22.9270   43.5360 C   0  0  0  0  0  0  0  0  0  0  0  0
   56.9800   20.8960   41.9070 H   0  0  0  0  0  0  0  0  0  0  0  0
   57.4010   20.0320   43.4220 H   0  0  0  0  0  0  0  0  0  0  0  0
   58.9467   21.9504   44.6387 H   0  0  0  0  0  0  0  0  0  0  0  0
   58.7230   24.0824   45.9139 H   0  0  0  0  0  0  0  0  0  0  0  0
   56.0900   28.4682   44.3278 H   0  0  0  0  0  0  0  0  0  0  0  0
   56.2596   28.6923   46.1047 H   0  0  0  0  0  0  0  0  0  0  0  0
   58.6077   29.6234   45.6112 H   0  0  0  0  0  0  0  0  0  0  0  0
   58.1035   29.6794   43.8843 H   0  0  0  0  0  0  0  0  0  0  0  0
   58.0856   31.5063   47.4760 H   0  0  0  0  0  0  0  0  0  0  0  0
   59.1594   33.6831   48.0541 H   0  0  0  0  0  0  0  0  0  0  0  0
   59.2680   35.4280   46.3800 H   0  0  0  0  0  0  0  0  0  0  0  0
   58.3822   35.1815   44.1420 H   0  0  0  0  0  0  0  0  0  0  0  0
   57.2896   33.0307   43.4931 H   0  0  0  0  0  0  0  0  0  0  0  0
   54.8271   24.7346   44.1393 H   0  0  0  0  0  0  0  0  0  0  0  0
   55.0505   22.6030   42.8642 H   0  0  0  0  0  0  0  0  0  0  0  0
  1  2  1  0
  2  3  2  0
  3  4  1  0
  4  5  2  0
  5  6  1  0
  6  7  2  0
  6  8  2  0
  6  9  1  0
  9 10  1  0
 10 11  1  0
 11 12  1  0
 12 13  2  3
 13 14  1  0
 14 15  2  0
 15 16  1  0
 16 17  1  0
 17 18  2  0
  5 19  1  0
 19 20  2  0
 20  2  1  0
 18 13  1  0
  1 21  1  0
  1 22  1  0
  3 23  1  0
  4 24  1  0
 10 25  1  0
 10 26  1  0
 11 27  1  0
 11 28  1  0
 14 29  1  0
 15 30  1  0
 16 31  1  0
 17 32  1  0
 18 33  1  0
 19 34  1  0
 20 35  1  0
M  CHG  1   9  -1
M  END
>  <UniqueID>  (11) 
10

>  <SMILES>  (11) 
Nc1ccc(S(=O)(=O)[N-]CCN=c2cc[nH]cc2)cc1

>  <Energy>  (11) 
31.574170481487005

>  <Genealogy>  (11) 
Nc1ccc(S(=O)(=O)[N-]CCN=c2cc[nH]cc2)cc1 (protonated)
Nc1ccc(S(=O)(=O)[N-]CCN=c2cc[nH]cc2)cc1 (3D coordinates assigned)
Nc1ccc(S(=O)(=O)[N-]CCN=c2cc[nH]cc2)cc1 (optimized conformer: 31.574170481487005 kcal/mol)

>  <smiles>  (11) 
Nc1ccc(S(=O)(=O)NCCN=c2cc[nH]cc2)cc1

>  <score_type>  (11) 
oracle

>  <origin>  (11) 
adg

>  <m_score__min__energy>  (11) 
-8.1099999999999994

>  <m_primary>  (11) 
energy

$$$$
11:0
     RDKit          3D

 30 32  0  0  0  0  0  0  0  0999 V2000
   59.7567   25.0323   46.0727 H   0  0  0  0  0  0  0  0  0  0  0  0
   58.8460   25.1050   45.4600 C   0  0  0  0  0  0  0  0  0  0  0  0
   58.3630   23.9710   44.9280 C   0  0  0  0  0  0  0  0  0  0  0  0
   56.7430   23.9320   44.1440 S   0  0  0  0  0  0  0  0  0  0  0  0
   57.0580   22.2130   43.7300 C   0  0  0  0  0  0  0  0  0  0  0  0
   56.2580   21.5320   43.0370 O   0  0  0  0  0  0  0  0  0  0  0  0
   58.2690   21.6660   44.2280 N   0  0  0  0  0  0  0  0  0  0  0  0
   58.5690   20.6730   44.1040 H   0  0  0  0  0  0  0  0  0  0  0  0
   59.0040   22.6490   44.9300 C   0  0  0  0  0  0  0  0  0  0  0  0
   60.0700   22.3700   45.5390 O   0  0  0  0  0  0  0  0  0  0  0  0
   58.2460   26.4420   45.2840 C   0  0  0  0  0  0  0  0  0  0  0  0
   57.9300   27.2440   46.3910 C   0  0  0  0  0  0  0  0  0  0  0  0
   58.0912   26.8604   47.4093 H   0  0  0  0  0  0  0  0  0  0  0  0
   57.4110   28.5290   46.2050 C   0  0  0  0  0  0  0  0  0  0  0  0
   57.1573   29.1473   47.0787 H   0  0  0  0  0  0  0  0  0  0  0  0
   57.2120   29.0340   44.9150 C   0  0  0  0  0  0  0  0  0  0  0  0
   56.6960   30.3310   44.7750 O   0  0  0  0  0  0  0  0  0  0  0  0
   57.4070   31.5140   45.0090 C   0  0  0  0  0  0  0  0  0  0  0  0
   57.7670   32.2900   43.9530 N   0  0  0  0  0  0  0  0  0  0  0  0
   58.4770   33.4350   44.1320 C   0  0  0  0  0  0  0  0  0  0  0  0
   58.7551   34.0525   43.2652 H   0  0  0  0  0  0  0  0  0  0  0  0
   58.8520   33.8250   45.4170 C   0  0  0  0  0  0  0  0  0  0  0  0
   59.4241   34.7503   45.5800 H   0  0  0  0  0  0  0  0  0  0  0  0
   58.4850   33.0150   46.4900 C   0  0  0  0  0  0  0  0  0  0  0  0
   58.7684   33.2969   47.5148 H   0  0  0  0  0  0  0  0  0  0  0  0
   57.7770   31.8770   46.2690 N   0  0  0  0  0  0  0  0  0  0  0  0
   57.5780   28.2490   43.8060 C   0  0  0  0  0  0  0  0  0  0  0  0
   57.4553   28.6480   42.7883 H   0  0  0  0  0  0  0  0  0  0  0  0
   58.0970   26.9640   43.9920 C   0  0  0  0  0  0  0  0  0  0  0  0
   58.3896   26.3602   43.1204 H   0  0  0  0  0  0  0  0  0  0  0  0
  1  2  1  0
  2  3  2  0
  3  4  1  0
  4  5  1  0
  5  6  2  0
  5  7  1  0
  7  8  1  0
  7  9  1  0
  9 10  2  0
  2 11  1  0
 11 12  2  0
 12 13  1  0
 12 14  1  0
 14 15  1  0
 14 16  2  0
 16 17  1  0
 17 18  1  0
 18 19  2  0
 19 20  1  0
 20 21  1  0
 20 22  2  0
 22 23  1  0
 22 24  1  0
 24 25  1  0
 24 26  2  0
 16 27  1  0
 27 28  1  0
 27 29  2  0
 29 30  1  0
  9  3  1  0
 29 11  1  0
 26 18  1  0
M  END
>  <UniqueID>  (12) 
11

>  <SMILES>  (12) 
O=C1NC(=O)/C(=C\c2ccc(Oc3ncccn3)cc2)S1

>  <Energy>  (12) 
65.16286605804174

>  <Genealogy>  (12) 
O=C1NC(=O)/C(=C\c2ccc(Oc3ncccn3)cc2)S1 (cis-trans isomerization)
O=C1NC(=O)/C(=C\c2ccc(Oc3ncccn3)cc2)S1 (3D coordinates assigned)
O=C1NC(=O)/C(=C\c2ccc(Oc3ncccn3)cc2)S1 (nonaromatic ring conformer: 65.16286605804174 kcal/mol)

>  <smiles>  (12) 
O=C1NC(=O)C(=Cc2ccc(Oc3ncccn3)cc2)S1

>  <score_type>  (12) 
oracle

>  <origin>  (12) 
adg

>  <m_score__min__energy>  (12) 
-7.9800000000000004

>  <m_primary>  (12) 
energy

$$$$
12:0
     RDKit          3D

 50 53  0  0  0  0  0  0  0  0999 V2000
   61.8630   24.9580   52.3360 C   0  0  0  0  0  0  0  0  0  0  0  0
   61.6510   26.3020   51.6910 C   0  0  0  0  0  0  0  0  0  0  0  0
   60.9970   26.3860   50.4520 C   0  0  0  0  0  0  0  0  0  0  0  0
   60.7950   27.6410   49.8440 C   0  0  0  0  0  0  0  0  0  0  0  0
   60.1280   27.7640   48.5640 N   0  0  0  0  0  0  0  0  0  0  0  0
   60.3530   26.7570   47.5130 C   0  0  0  0  0  0  0  0  0  0  0  0
   59.7250   27.1890   46.1900 C   0  0  0  0  0  0  0  0  0  0  0  0
   58.3330   27.5930   46.4420 N   0  0  0  0  0  0  0  0  0  0  0  0
   57.5250   27.6980   45.2100 C   0  0  0  0  0  0  0  0  0  0  0  0
   57.1540   29.1130   44.8640 C   0  0  0  0  0  0  0  0  0  0  0  0
   58.0460   30.0620   44.5200 N   0  0  0  0  0  0  0  0  0  0  0  0
   57.2370   31.1260   44.3360 C   0  0  0  0  0  0  0  0  0  0  0  0
   57.7220   32.4630   43.8790 C   0  0  0  0  0  0  0  0  0  0  0  0
   58.2600   33.2420   45.0460 C   0  0  0  0  0  0  0  0  0  0  0  0
   59.1070   34.3420   44.8350 C   0  0  0  0  0  0  0  0  0  0  0  0
   59.6340   35.0440   45.9240 C   0  0  0  0  0  0  0  0  0  0  0  0
   59.3270   34.6480   47.2280 C   0  0  0  0  0  0  0  0  0  0  0  0
   58.4950   33.5460   47.4460 C   0  0  0  0  0  0  0  0  0  0  0  0
   57.9660   32.8410   46.3610 C   0  0  0  0  0  0  0  0  0  0  0  0
   55.9380   30.8330   44.5370 N   0  0  0  0  0  0  0  0  0  0  0  0
   55.9290   29.5790   44.8680 O   0  0  0  0  0  0  0  0  0  0  0  0
   58.2120   28.7830   47.3180 C   0  0  0  0  0  0  0  0  0  0  0  0
   59.4410   29.0210   48.2210 C   0  0  0  0  0  0  0  0  0  0  0  0
   61.2430   28.7580   50.4810 N   0  0  0  0  0  0  0  0  0  0  0  0
   61.8780   28.7100   51.6800 C   0  0  0  0  0  0  0  0  0  0  0  0
   62.0980   27.4840   52.3120 C   0  0  0  0  0  0  0  0  0  0  0  0
   62.7780   27.4600   53.5850 C   0  0  0  0  0  0  0  0  0  0  0  0
   63.3220   27.4410   54.6070 N   0  0  0  0  0  0  0  0  0  0  0  0
   61.8454   25.0695   53.4302 H   0  0  0  0  0  0  0  0  0  0  0  0
   61.0621   24.2714   52.0245 H   0  0  0  0  0  0  0  0  0  0  0  0
   62.8364   24.5513   52.0245 H   0  0  0  0  0  0  0  0  0  0  0  0
   60.6418   25.4712   49.9551 H   0  0  0  0  0  0  0  0  0  0  0  0
   61.4355   26.6238   47.3697 H   0  0  0  0  0  0  0  0  0  0  0  0
   59.8843   25.8134   47.8290 H   0  0  0  0  0  0  0  0  0  0  0  0
   60.2873   28.0370   45.7721 H   0  0  0  0  0  0  0  0  0  0  0  0
   59.7509   26.3563   45.4717 H   0  0  0  0  0  0  0  0  0  0  0  0
   58.1030   27.2741   44.3756 H   0  0  0  0  0  0  0  0  0  0  0  0
   56.5886   27.1481   45.3853 H   0  0  0  0  0  0  0  0  0  0  0  0
   58.5196   32.3258   43.1340 H   0  0  0  0  0  0  0  0  0  0  0  0
   56.8838   33.0170   43.4312 H   0  0  0  0  0  0  0  0  0  0  0  0
   59.3569   34.6527   43.8098 H   0  0  0  0  0  0  0  0  0  0  0  0
   60.2913   35.9094   45.7533 H   0  0  0  0  0  0  0  0  0  0  0  0
   59.7399   35.2032   48.0831 H   0  0  0  0  0  0  0  0  0  0  0  0
   58.2562   33.2331   48.4731 H   0  0  0  0  0  0  0  0  0  0  0  0
   57.3177   31.9698   46.5366 H   0  0  0  0  0  0  0  0  0  0  0  0
   58.0728   29.6692   46.6814 H   0  0  0  0  0  0  0  0  0  0  0  0
   57.3554   28.6038   47.9844 H   0  0  0  0  0  0  0  0  0  0  0  0
   60.1472   29.6786   47.6929 H   0  0  0  0  0  0  0  0  0  0  0  0
   59.0902   29.4815   49.1563 H   0  0  0  0  0  0  0  0  0  0  0  0
   62.2207   29.6407   52.1558 H   0  0  0  0  0  0  0  0  0  0  0  0
  1  2  1  0
  2  3  2  0
  3  4  1  0
  4  5  1  0
  5  6  1  0
  6  7  1  0
  7  8  1  0
  8  9  1  0
  9 10  1  0
 10 11  2  0
 11 12  1  0
 12 13  1  0
 13 14  1  0
 14 15  2  0
 15 16  1  0
 16 17  2  0
 17 18  1  0
 18 19  2  0
 12 20  2  0
 20 21  1  0
  8 22  1  0
 22 23  1  0
  4 24  2  0
 24 25  1  0
 25 26  2  0
 26 27  1  0
 27 28  3  0
 26  2  1  0
 23  5  1  0
 21 10  1  0
 19 14  1  0
  1 29  1  0
  1 30  1  0
  1 31  1  0
  3 32  1  0
  6 33  1  0
  6 34  1  0
  7 35  1  0
  7 36  1  0
  9 37  1  0
  9 38  1  0
 13 39  1  0
 13 40  1  0
 15 41  1  0
 16 42  1  0
 17 43  1  0
 18 44  1  0
 19 45  1  0
 22 46  1  0
 22 47  1  0
 23 48  1  0
 23 49  1  0
 25 50  1  0
M  END
>  <UniqueID>  (13) 
12

>  <SMILES>  (13) 
Cc1cc(N2CCN(Cc3nc(Cc4ccccc4)no3)CC2)ncc1C#N

>  <Energy>  (13) 
94.08197301431427

>  <Genealogy>  (13) 
Cc1cc(N2CCN(Cc3nc(Cc4ccccc4)no3)CC2)ncc1C#N (3D coordinates assigned)
Cc1cc(N2CCN(Cc3nc(Cc4ccccc4)no3)CC2)ncc1C#N (nonaromatic ring conformer: 94.08197301431427 kcal/mol)

>  <smiles>  (13) 
Cc1cc(N2CCN(Cc3nc(Cc4ccccc4)no3)CC2)ncc1C#N

>  <score_type>  (13) 
oracle

>  <origin>  (13) 
adg

>  <m_score__min__energy>  (13) 
-9.0899999999999999

>  <m_primary>  (13) 
energy

$$$$
13:0
     RDKit          3D

 47 49  0  0  1  0  0  0  0  0999 V2000
   57.8060   32.3420   41.3380 C   0  0  0  0  0  0  0  0  0  0  0  0
   57.7380   31.5900   42.6370 C   0  0  0  0  0  0  0  0  0  0  0  0
   56.7730   30.4440   42.6360 C   0  0  0  0  0  0  0  0  0  0  0  0
   56.6200   29.6050   44.1580 S   0  0  0  0  0  0  0  0  0  0  0  0
   57.2220   30.5010   45.2350 O   0  0  0  0  0  0  0  0  0  0  0  0
   55.1460   29.4700   44.4830 O   0  0  0  0  0  0  0  0  0  0  0  0
   57.4120   28.1100   44.2760 N   0  0  0  0  0  0  0  0  0  0  0  0
   58.4060   27.7450   45.1890 C   0  0  0  0  0  0  0  0  0  0  0  0
   58.9030   26.4840   45.3950 C   0  0  0  0  0  0  0  0  0  0  0  0
   59.8830   26.1790   46.3180 C   0  0  0  0  0  0  0  0  0  0  0  0
   60.3830   27.2180   47.0730 C   0  0  0  0  0  0  0  0  0  0  0  0
   59.9290   28.5110   46.9200 C   0  0  0  0  0  0  0  0  0  0  0  0
   60.4830   29.5950   47.7260 C   0  0  0  0  0  0  0  0  0  0  0  0
   60.3780   30.9460   47.4070 C   0  0  0  0  0  0  0  0  0  0  0  0
   61.0140   31.6540   48.4080 C   0  0  0  0  0  0  0  0  0  0  0  0
   61.1450   32.9300   48.4990 N   0  0  0  0  0  0  0  0  0  0  0  0
   60.0780   33.8650   48.4210 C   0  0  0  0  0  0  0  0  0  0  0  0
   59.7480   34.6400   49.3510 O   0  0  0  0  0  0  0  0  0  0  0  0
   59.2950   33.9490   47.1880 C   0  0  0  0  0  0  0  0  0  0  0  0
   58.0490   33.3580   47.1180 C   0  0  0  0  0  0  0  0  0  0  0  0
   57.3170   33.4380   45.9580 C   0  0  0  0  0  0  0  0  0  0  0  0
   57.7840   34.0950   44.8460 C   0  0  0  0  0  0  0  0  0  0  0  0
   59.0180   34.6890   44.8970 C   0  0  0  0  0  0  0  0  0  0  0  0
   59.7580   34.6100   46.0620 C   0  0  0  0  0  0  0  0  0  0  0  0
   61.4830   30.7710   49.2890 N   0  0  0  0  0  0  0  0  0  0  0  0
   61.1670   29.5380   48.8850 N   0  0  0  0  0  0  0  0  0  0  0  0
   58.9500   28.7540   45.9830 C   0  0  0  0  0  0  0  0  0  0  0  0
   57.9033   33.4185   41.5422 H   0  0  0  0  0  0  0  0  0  0  0  0
   58.6767   31.9981   40.7604 H   0  0  0  0  0  0  0  0  0  0  0  0
   56.8877   32.1599   40.7604 H   0  0  0  0  0  0  0  0  0  0  0  0
   58.7405   31.1960   42.8599 H   0  0  0  0  0  0  0  0  0  0  0  0
   57.3804   32.3023   43.3951 H   0  0  0  0  0  0  0  0  0  0  0  0
   55.7818   30.8332   42.3602 H   0  0  0  0  0  0  0  0  0  0  0  0
   57.1698   29.7096   41.9196 H   0  0  0  0  0  0  0  0  0  0  0  0
   57.1240   27.3520   43.5780 H   0  0  0  0  0  0  0  0  0  0  0  0
   58.4951   25.6635   44.7864 H   0  0  0  0  0  0  0  0  0  0  0  0
   60.2496   25.1498   46.4456 H   0  0  0  0  0  0  0  0  0  0  0  0
   61.1654   27.0102   47.8178 H   0  0  0  0  0  0  0  0  0  0  0  0
   59.8810   31.3707   46.5223 H   0  0  0  0  0  0  0  0  0  0  0  0
   57.6430   32.8239   47.9897 H   0  0  0  0  0  0  0  0  0  0  0  0
   56.3265   32.9612   45.9187 H   0  0  0  0  0  0  0  0  0  0  0  0
   57.1776   34.1436   43.9296 H   0  0  0  0  0  0  0  0  0  0  0  0
   59.4151   35.2226   44.0209 H   0  0  0  0  0  0  0  0  0  0  0  0
   60.7480   35.0882   46.0961 H   0  0  0  0  0  0  0  0  0  0  0  0
   62.0150   30.9800   50.1620 H   0  0  0  0  0  0  0  0  0  0  0  0
   61.3960   28.6490   49.3640 H   0  0  0  0  0  0  0  0  0  0  0  0
   58.5830   29.7832   45.8559 H   0  0  0  0  0  0  0  0  0  0  0  0
  1  2  1  0
  2  3  1  0
  3  4  1  0
  4  5  2  0
  4  6  2  0
  4  7  1  0
  7  8  1  0
  8  9  2  0
  9 10  1  0
 10 11  2  0
 11 12  1  0
 12 13  1  0
 13 14  2  0
 14 15  1  0
 15 16  2  0
 16 17  1  0
 17 18  2  0
 17 19  1  0
 19 20  2  0
 20 21  1  0
 21 22  2  0
 22 23  1  0
 23 24  2  0
 15 25  1  0
 25 26  1  0
 12 27  2  0
 27  8  1  0
 26 13  1  0
 24 19  1  0
  1 28  1  0
  1 29  1  0
  1 30  1  0
  2 31  1  0
  2 32  1  0
  3 33  1  0
  3 34  1  0
  7 35  1  0
  9 36  1  0
 10 37  1  0
 11 38  1  0
 14 39  1  0
 20 40  1  0
 21 41  1  0
 22 42  1  0
 23 43  1  0
 24 44  1  0
 25 45  1  0
 26 46  1  0
 27 47  1  0
M  END
>  <smiles>  (14) 
CCCS(=O)(=O)Nc1cccc(-c2cc(=NC(=O)c3ccccc3)[nH][nH]2)c1

>  <score_type>  (14) 
oracle

>  <origin>  (14) 
adg

>  <m_score__min__energy>  (14) 
-9.4700000000000006

>  <m_primary>  (14) 
energy

$$$$
14:0
     RDKit          3D

 54 57  0  0  0  0  0  0  0  0999 V2000
   56.7260   32.3930   52.0760 O   0  0  0  0  0  0  0  0  0  0  0  0
   57.2590   31.2780   51.8380 C   0  0  0  0  0  0  0  0  0  0  0  0
   58.6780   31.1590   51.6440 N   0  0  0  0  0  0  0  0  0  0  0  0
   59.3230   31.1520   50.5140 C   0  0  0  0  0  0  0  0  0  0  0  0
   58.6210   31.4040   49.3340 C   0  0  0  0  0  0  0  0  0  0  0  0
   59.2850   31.3410   48.0990 C   0  0  0  0  0  0  0  0  0  0  0  0
   58.5500   31.5580   46.8310 C   0  0  0  0  0  0  0  0  0  0  0  0
   58.0990   32.8110   46.5530 N   0  0  0  0  0  0  0  0  0  0  0  0
   57.3550   33.0770   45.4490 C   0  0  0  0  0  0  0  0  0  0  0  0
   57.0310   32.0410   44.5770 C   0  0  0  0  0  0  0  0  0  0  0  0
   57.4910   30.7900   44.8280 N   0  0  0  0  0  0  0  0  0  0  0  0
   58.2560   30.5090   45.9190 C   0  0  0  0  0  0  0  0  0  0  0  0
   58.7810   29.1330   46.0750 C   0  0  0  0  0  0  0  0  0  0  0  0
   60.0630   28.8150   45.6070 C   0  0  0  0  0  0  0  0  0  0  0  0
   60.5570   27.5140   45.7340 C   0  0  0  0  0  0  0  0  0  0  0  0
   59.7780   26.5250   46.3390 C   0  0  0  0  0  0  0  0  0  0  0  0
   58.5030   26.8270   46.8310 C   0  0  0  0  0  0  0  0  0  0  0  0
   57.7290   25.7830   47.4350 N   0  0  0  0  0  0  0  0  0  0  0  0
   56.3530   25.0200   46.7080 S   0  0  0  0  0  0  0  0  0  0  0  0
   55.5450   24.3380   47.7770 O   0  0  0  0  0  0  0  0  0  0  0  0
   55.5200   26.0640   46.0150 O   0  0  0  0  0  0  0  0  0  0  0  0
   56.8630   23.8150   45.5200 C   0  0  0  0  0  0  0  0  0  0  0  0
   58.2080   23.4130   45.4650 C   0  0  0  0  0  0  0  0  0  0  0  0
   58.6230   22.4550   44.5350 C   0  0  0  0  0  0  0  0  0  0  0  0
   57.7000   21.8890   43.6540 C   0  0  0  0  0  0  0  0  0  0  0  0
   56.3640   22.2850   43.6930 C   0  0  0  0  0  0  0  0  0  0  0  0
   55.9370   23.2460   44.6200 C   0  0  0  0  0  0  0  0  0  0  0  0
   54.2380   23.7050   44.6170 Cl  0  0  0  0  0  0  0  0  0  0  0  0
   58.0160   28.1400   46.7130 C   0  0  0  0  0  0  0  0  0  0  0  0
   60.6630   31.0790   48.0800 C   0  0  0  0  0  0  0  0  0  0  0  0
   61.3350   30.8480   49.2800 C   0  0  0  0  0  0  0  0  0  0  0  0
   60.6580   30.8800   50.4580 N   0  0  0  0  0  0  0  0  0  0  0  0
   56.4270   30.1200   51.7320 N   0  0  0  0  0  0  0  0  0  0  0  0
   55.3780   29.7930   52.6920 C   0  0  0  0  0  0  0  0  0  0  0  0
   53.9940   30.0620   52.0960 C   0  0  0  0  0  0  0  0  0  0  0  0
   53.9560   31.2980   51.4370 O   0  0  0  0  0  0  0  0  0  0  0  0
   57.5499   31.6514   49.3720 H   0  0  0  0  0  0  0  0  0  0  0  0
   57.0112   34.1018   45.2452 H   0  0  0  0  0  0  0  0  0  0  0  0
   56.4073   32.2355   43.6921 H   0  0  0  0  0  0  0  0  0  0  0  0
   60.6832   29.5929   45.1376 H   0  0  0  0  0  0  0  0  0  0  0  0
   61.5608   27.2684   45.3570 H   0  0  0  0  0  0  0  0  0  0  0  0
   60.1695   25.5010   46.4295 H   0  0  0  0  0  0  0  0  0  0  0  0
   58.9392   23.8547   46.1580 H   0  0  0  0  0  0  0  0  0  0  0  0
   59.6783   22.1469   44.4975 H   0  0  0  0  0  0  0  0  0  0  0  0
   58.0272   21.1298   42.9283 H   0  0  0  0  0  0  0  0  0  0  0  0
   55.6411   21.8411   42.9928 H   0  0  0  0  0  0  0  0  0  0  0  0
   57.0274   28.3935   47.1234 H   0  0  0  0  0  0  0  0  0  0  0  0
   61.2095   31.0559   47.1256 H   0  0  0  0  0  0  0  0  0  0  0  0
   62.4150   30.6395   49.2730 H   0  0  0  0  0  0  0  0  0  0  0  0
   55.4543   28.7292   52.9614 H   0  0  0  0  0  0  0  0  0  0  0  0
   55.5068   30.4236   53.5841 H   0  0  0  0  0  0  0  0  0  0  0  0
   53.7520   29.2650   51.3775 H   0  0  0  0  0  0  0  0  0  0  0  0
   53.2605   30.0823   52.9155 H   0  0  0  0  0  0  0  0  0  0  0  0
   54.8980   31.5670   51.2740 H   0  0  0  0  0  0  0  0  0  0  0  0
  1  2  2  0
  2  3  1  0
  3  4  2  3
  4  5  1  0
  5  6  2  0
  6  7  1  0
  7  8  2  0
  8  9  1  0
  9 10  2  0
 10 11  1  0
 11 12  2  0
 12 13  1  0
 13 14  2  0
 14 15  1  0
 15 16  2  0
 16 17  1  0
 17 18  1  0
 18 19  1  0
 19 20  2  0
 19 21  2  0
 19 22  1  0
 22 23  2  0
 23 24  1  0
 24 25  2  0
 25 26  1  0
 26 27  2  0
 27 28  1  0
 17 29  2  0
  6 30  1  0
 30 31  2  0
 31 32  1  0
  2 33  1  0
 33 34  1  0
 34 35  1  0
 35 36  1  0
 32  4  1  0
 12  7  1  0
 29 13  1  0
 27 22  1  0
  5 37  1  0
  9 38  1  0
 10 39  1  0
 14 40  1  0
 15 41  1  0
 16 42  1  0
 23 43  1  0
 24 44  1  0
 25 45  1  0
 26 46  1  0
 29 47  1  0
 30 48  1  0
 31 49  1  0
 34 50  1  0
 34 51  1  0
 35 52  1  0
 35 53  1  0
 36 54  1  0
M  CHG  3  18  -1  32  -1  33  -1
M  END
>  <UniqueID>  (15) 
13

>  <SMILES>  (15) 
O=C(N=c1cc(-c2nccnc2-c2cccc([N-]S(=O)(=O)c3ccccc3Cl)c2)cc[n-]1)[N-]CCO

>  <Energy>  (15) 
73.95509278141552

>  <Genealogy>  (15) 
O=C(N=c1cc(-c2nccnc2-c2cccc([N-]S(=O)(=O)c3ccccc3Cl)c2)cc[n-]1)[N-]CCO (protonated)
O=C(N=c1cc(-c2nccnc2-c2cccc([N-]S(=O)(=O)c3ccccc3Cl)c2)cc[n-]1)[N-]CCO (3D coordinates assigned)
O=C(N=c1cc(-c2nccnc2-c2cccc([N-]S(=O)(=O)c3ccccc3Cl)c2)cc[n-]1)[N-]CCO (optimized conformer: 73.95509278141552 kcal/mol)

>  <smiles>  (15) 
O=C(N=c1cc(-c2nccnc2-c2cccc(NS(=O)(=O)c3ccccc3Cl)c2)cc[nH]1)NCCO

>  <score_type>  (15) 
oracle

>  <origin>  (15) 
adg

>  <m_score__min__energy>  (15) 
-13.19

>  <m_primary>  (15) 
energy

$$$$
15:0
     RDKit          3D

 34 36  0  0  0  0  0  0  0  0999 V2000
   57.7540   24.2880   49.0020 O   0  0  0  0  0  0  0  0  0  0  0  0
   57.2130   24.0710   47.8860 C   0  0  0  0  0  0  0  0  0  0  0  0
   57.0000   22.7100   47.4830 N   0  0  0  0  0  0  0  0  0  0  0  0
   57.6750   21.9990   46.3970 C   0  0  0  0  0  0  0  0  0  0  0  0
   57.0340   22.2960   45.0660 C   0  0  0  0  0  0  0  0  0  0  0  0
   57.3960   21.5540   43.9310 C   0  0  0  0  0  0  0  0  0  0  0  0
   56.7850   21.8300   42.7070 C   0  0  0  0  0  0  0  0  0  0  0  0
   55.8260   22.8400   42.6230 C   0  0  0  0  0  0  0  0  0  0  0  0
   55.4970   23.5680   43.7670 C   0  0  0  0  0  0  0  0  0  0  0  0
   56.1040   23.2900   44.9540 N   0  0  0  0  0  0  0  0  0  0  0  0
   56.7840   25.2250   47.0770 C   0  0  0  0  0  0  0  0  0  0  0  0
   57.5540   26.2990   46.6820 C   0  0  0  0  0  0  0  0  0  0  0  0
   56.6770   27.0990   45.9730 C   0  0  0  0  0  0  0  0  0  0  0  0
   56.9860   28.3850   45.3020 C   0  0  0  0  0  0  0  0  0  0  0  0
   55.9620   29.2160   44.8070 C   0  0  0  0  0  0  0  0  0  0  0  0
   56.2730   30.4290   44.1840 C   0  0  0  0  0  0  0  0  0  0  0  0
   57.6030   30.8270   44.0490 C   0  0  0  0  0  0  0  0  0  0  0  0
   58.6280   30.0150   44.5390 C   0  0  0  0  0  0  0  0  0  0  0  0
   58.3230   28.8020   45.1640 C   0  0  0  0  0  0  0  0  0  0  0  0
   55.4540   26.5330   45.9780 N   0  0  0  0  0  0  0  0  0  0  0  0
   55.5170   25.3970   46.6560 N   0  0  0  0  0  0  0  0  0  0  0  0
   58.7291   22.3118   46.3647 H   0  0  0  0  0  0  0  0  0  0  0  0
   57.5951   20.9185   46.5872 H   0  0  0  0  0  0  0  0  0  0  0  0
   58.1551   20.7614   44.0056 H   0  0  0  0  0  0  0  0  0  0  0  0
   57.0586   21.2531   41.8113 H   0  0  0  0  0  0  0  0  0  0  0  0
   55.3340   23.0602   41.6641 H   0  0  0  0  0  0  0  0  0  0  0  0
   54.7451   24.3689   43.7099 H   0  0  0  0  0  0  0  0  0  0  0  0
   55.8390   23.8570   45.7910 H   0  0  0  0  0  0  0  0  0  0  0  0
   58.6203   26.4779   46.8844 H   0  0  0  0  0  0  0  0  0  0  0  0
   54.9109   28.9089   44.9111 H   0  0  0  0  0  0  0  0  0  0  0  0
   55.4666   31.0708   43.7995 H   0  0  0  0  0  0  0  0  0  0  0  0
   57.8445   31.7805   43.5565 H   0  0  0  0  0  0  0  0  0  0  0  0
   59.6766   30.3300   44.4332 H   0  0  0  0  0  0  0  0  0  0  0  0
   59.1347   28.1685   45.5510 H   0  0  0  0  0  0  0  0  0  0  0  0
  1  2  2  0
  2  3  1  0
  3  4  1  0
  4  5  1  0
  5  6  2  0
  6  7  1  0
  7  8  2  0
  8  9  1  0
  9 10  2  0
  2 11  1  0
 11 12  1  0
 12 13  2  0
 13 14  1  0
 14 15  2  0
 15 16  1  0
 16 17  2  0
 17 18  1  0
 18 19  2  0
 13 20  1  0
 20 21  1  0
 10  5  1  0
 21 11  2  0
 19 14  1  0
  4 22  1  0
  4 23  1  0
  6 24  1  0
  7 25  1  0
  8 26  1  0
  9 27  1  0
 10 28  1  0
 12 29  1  0
 15 30  1  0
 16 31  1  0
 17 32  1  0
 18 33  1  0
 19 34  1  0
M  CHG  3   3  -1  10   1  20  -1
M  END
>  <UniqueID>  (16) 
14

>  <SMILES>  (16) 
O=C([N-]Cc1cccc[nH+]1)c1cc(-c2ccccc2)[n-]n1

>  <Energy>  (16) 
68.41508614125652

>  <Genealogy>  (16) 
O=C([N-]Cc1cccc[nH+]1)c1cc(-c2ccccc2)[n-]n1 (protonated)
O=C([N-]Cc1cccc[nH+]1)c1cc(-c2ccccc2)[n-]n1 (3D coordinates assigned)
O=C([N-]Cc1cccc[nH+]1)c1cc(-c2ccccc2)[n-]n1 (optimized conformer: 68.41508614125652 kcal/mol)

>  <smiles>  (16) 
O=C(NCc1ccccn1)c1cc(-c2ccccc2)[nH]n1

>  <score_type>  (16) 
oracle

>  <origin>  (16) 
adg

>  <m_score__min__energy>  (16) 
-9.5600000000000005

>  <m_primary>  (16) 
energy

$$$$
16:0
     RDKit          3D

 48 51  0  0  0  0  0  0  0  0999 V2000
   59.3300   29.4900   49.6350 O   0  0  0  0  0  0  0  0  0  0  0  0
   60.5810   29.1840   48.8630 S   0  0  0  0  0  0  0  0  0  0  0  0
   61.5260   28.4320   49.7570 O   0  0  0  0  0  0  0  0  0  0  0  0
   61.3360   30.7000   48.3740 C   0  0  0  0  0  0  0  0  0  0  0  0
   61.1300   31.2990   47.1930 C   0  0  0  0  0  0  0  0  0  0  0  0
   60.3540   32.5440   47.0080 C   0  0  0  0  0  0  0  0  0  0  0  0
   60.9550   33.6610   46.4000 C   0  0  0  0  0  0  0  0  0  0  0  0
   60.2270   34.8360   46.2000 C   0  0  0  0  0  0  0  0  0  0  0  0
   58.8840   34.8970   46.5710 C   0  0  0  0  0  0  0  0  0  0  0  0
   58.2630   33.7810   47.1360 C   0  0  0  0  0  0  0  0  0  0  0  0
   58.9870   32.6030   47.3580 C   0  0  0  0  0  0  0  0  0  0  0  0
   58.3290   31.5190   47.9430 O   0  0  0  0  0  0  0  0  0  0  0  0
   60.2660   28.2170   47.4540 N   0  0  0  0  0  0  0  0  0  0  0  0
   58.9830   27.8100   46.9530 C   0  0  0  0  0  0  0  0  0  0  0  0
   58.4010   26.5950   47.3450 C   0  0  0  0  0  0  0  0  0  0  0  0
   57.1280   26.2340   46.9000 C   0  0  0  0  0  0  0  0  0  0  0  0
   56.4170   24.6750   47.4430 S   0  0  0  0  0  0  0  0  0  0  0  0
   56.6490   23.9020   45.8420 C   0  0  0  0  0  0  0  0  0  0  0  0
   57.8650   23.2790   45.5300 C   0  0  0  0  0  0  0  0  0  0  0  0
   58.0430   22.6710   44.2840 C   0  0  0  0  0  0  0  0  0  0  0  0
   57.0070   22.6890   43.3440 C   0  0  0  0  0  0  0  0  0  0  0  0
   55.7940   23.3150   43.6490 C   0  0  0  0  0  0  0  0  0  0  0  0
   55.6150   23.9240   44.8960 C   0  0  0  0  0  0  0  0  0  0  0  0
   56.4160   27.0780   46.0390 C   0  0  0  0  0  0  0  0  0  0  0  0
   55.1360   26.7180   45.6260 O   0  0  0  0  0  0  0  0  0  0  0  0
   56.9990   28.2770   45.5900 C   0  0  0  0  0  0  0  0  0  0  0  0
   56.3070   29.1280   44.7090 C   0  0  0  0  0  0  0  0  0  0  0  0
   56.8930   30.3140   44.2660 C   0  0  0  0  0  0  0  0  0  0  0  0
   58.1740   30.6650   44.6910 C   0  0  0  0  0  0  0  0  0  0  0  0
   58.8760   29.8360   45.5660 C   0  0  0  0  0  0  0  0  0  0  0  0
   58.3000   28.6380   46.0340 C   0  0  0  0  0  0  0  0  0  0  0  0
   62.0208   31.1860   49.0845 H   0  0  0  0  0  0  0  0  0  0  0  0
   61.5688   30.8319   46.2990 H   0  0  0  0  0  0  0  0  0  0  0  0
   62.0060   33.6087   46.0797 H   0  0  0  0  0  0  0  0  0  0  0  0
   60.7132   35.7139   45.7496 H   0  0  0  0  0  0  0  0  0  0  0  0
   58.3134   35.8250   46.4185 H   0  0  0  0  0  0  0  0  0  0  0  0
   57.1983   33.8276   47.4084 H   0  0  0  0  0  0  0  0  0  0  0  0
   58.7430   30.5990   48.0160 H   0  0  0  0  0  0  0  0  0  0  0  0
   58.9551   25.9180   48.0118 H   0  0  0  0  0  0  0  0  0  0  0  0
   58.6812   23.2685   46.2673 H   0  0  0  0  0  0  0  0  0  0  0  0
   58.9967   22.1789   44.0428 H   0  0  0  0  0  0  0  0  0  0  0  0
   57.1466   22.2101   42.3636 H   0  0  0  0  0  0  0  0  0  0  0  0
   54.9807   23.3286   42.9085 H   0  0  0  0  0  0  0  0  0  0  0  0
   54.6625   24.4202   45.1339 H   0  0  0  0  0  0  0  0  0  0  0  0
   55.2973   28.8565   44.3672 H   0  0  0  0  0  0  0  0  0  0  0  0
   56.3430   30.9743   43.5794 H   0  0  0  0  0  0  0  0  0  0  0  0
   58.6326   31.5992   44.3348 H   0  0  0  0  0  0  0  0  0  0  0  0
   59.8872   30.1196   45.8933 H   0  0  0  0  0  0  0  0  0  0  0  0
  1  2  2  0
  2  3  2  0
  2  4  1  0
  4  5  2  3
  5  6  1  0
  6  7  2  0
  7  8  1  0
  8  9  2  0
  9 10  1  0
 10 11  2  0
 11 12  1  0
  2 13  1  0
 13 14  1  0
 14 15  2  0
 15 16  1  0
 16 17  1  0
 17 18  1  0
 18 19  2  0
 19 20  1  0
 20 21  2  0
 21 22  1  0
 22 23  2  0
 16 24  2  0
 24 25  1  0
 24 26  1  0
 26 27  2  0
 27 28  1  0
 28 29  2  0
 29 30  1  0
 30 31  2  0
 11  6  1  0
 31 14  1  0
 23 18  1  0
 31 26  1  0
  4 32  1  0
  5 33  1  0
  7 34  1  0
  8 35  1  0
  9 36  1  0
 10 37  1  0
 12 38  1  0
 15 39  1  0
 19 40  1  0
 20 41  1  0
 21 42  1  0
 22 43  1  0
 23 44  1  0
 27 45  1  0
 28 46  1  0
 29 47  1  0
 30 48  1  0
M  CHG  2  13  -1  25  -1
M  END
>  <UniqueID>  (17) 
15

>  <SMILES>  (17) 
O=S(=O)(C=Cc1ccccc1O)[N-]c1cc(Sc2ccccc2)c([O-])c2ccccc12

>  <Energy>  (17) 
62.84568383105458

>  <Genealogy>  (17) 
O=S(=O)(C=Cc1ccccc1O)[N-]c1cc(Sc2ccccc2)c([O-])c2ccccc12 (protonated)
O=S(=O)(C=Cc1ccccc1O)[N-]c1cc(Sc2ccccc2)c([O-])c2ccccc12 (3D coordinates assigned)
O=S(=O)(C=Cc1ccccc1O)[N-]c1cc(Sc2ccccc2)c([O-])c2ccccc12 (optimized conformer: 62.84568383105458 kcal/mol)

>  <smiles>  (17) 
O=S(=O)(C=Cc1ccccc1O)Nc1cc(Sc2ccccc2)c(O)c2ccccc12

>  <score_type>  (17) 
oracle

>  <origin>  (17) 
adg

>  <m_score__min__energy>  (17) 
-13.130000000000001

>  <m_primary>  (17) 
energy

$$$$
17:0
     RDKit          3D

 35 37  0  0  0  0  0  0  0  0999 V2000
   60.4540   27.0750   45.9900 C   0  0  0  0  0  0  0  0  0  0  0  0
   59.1830   27.7520   45.6940 N   0  0  0  0  0  0  0  0  0  0  0  0
   59.1430   28.9890   45.0870 C   0  0  0  0  0  0  0  0  0  0  0  0
   60.2230   29.5730   44.7890 O   0  0  0  0  0  0  0  0  0  0  0  0
   57.9330   29.5990   44.7920 N   0  0  0  0  0  0  0  0  0  0  0  0
   57.9160   30.9090   44.1090 C   0  0  0  0  0  0  0  0  0  0  0  0
   57.0470   31.9230   44.8670 C   0  0  0  0  0  0  0  0  0  0  0  0
   57.8830   32.9790   45.5440 C   0  0  0  0  0  0  0  0  0  0  0  0
   58.4830   33.9980   44.7860 C   0  0  0  0  0  0  0  0  0  0  0  0
   59.3010   34.9480   45.4080 C   0  0  0  0  0  0  0  0  0  0  0  0
   59.5320   34.8800   46.7840 C   0  0  0  0  0  0  0  0  0  0  0  0
   58.9440   33.8640   47.5430 C   0  0  0  0  0  0  0  0  0  0  0  0
   58.1250   32.9140   46.9260 C   0  0  0  0  0  0  0  0  0  0  0  0
   56.7480   28.9590   45.0870 C   0  0  0  0  0  0  0  0  0  0  0  0
   55.6310   29.4830   44.8200 O   0  0  0  0  0  0  0  0  0  0  0  0
   56.8020   27.7070   45.6750 C   0  0  0  0  0  0  0  0  0  0  0  0
   55.7850   26.8980   46.0140 N   0  0  0  0  0  0  0  0  0  0  0  0
   56.3580   25.7820   46.5220 C   0  0  0  0  0  0  0  0  0  0  0  0
   57.7460   25.8880   46.5030 C   0  0  0  0  0  0  0  0  0  0  0  0
   57.9980   27.1340   45.9570 C   0  0  0  0  0  0  0  0  0  0  0  0
   60.5867   27.0043   47.0797 H   0  0  0  0  0  0  0  0  0  0  0  0
   60.4409   26.0644   45.5559 H   0  0  0  0  0  0  0  0  0  0  0  0
   61.2854   27.6498   45.5559 H   0  0  0  0  0  0  0  0  0  0  0  0
   58.9445   31.2941   44.0473 H   0  0  0  0  0  0  0  0  0  0  0  0
   57.4909   30.7707   43.1039 H   0  0  0  0  0  0  0  0  0  0  0  0
   56.3652   32.4107   44.1548 H   0  0  0  0  0  0  0  0  0  0  0  0
   56.4859   31.3811   45.6425 H   0  0  0  0  0  0  0  0  0  0  0  0
   58.3095   34.0494   43.7010 H   0  0  0  0  0  0  0  0  0  0  0  0
   59.7627   35.7494   44.8125 H   0  0  0  0  0  0  0  0  0  0  0  0
   60.1770   35.6264   47.2706 H   0  0  0  0  0  0  0  0  0  0  0  0
   59.1259   33.8120   48.6266 H   0  0  0  0  0  0  0  0  0  0  0  0
   57.6683   32.1124   47.5251 H   0  0  0  0  0  0  0  0  0  0  0  0
   54.7620   27.0810   45.9020 H   0  0  0  0  0  0  0  0  0  0  0  0
   55.8028   24.9102   46.8985 H   0  0  0  0  0  0  0  0  0  0  0  0
   58.4806   25.1448   46.8465 H   0  0  0  0  0  0  0  0  0  0  0  0
  1  2  1  0
  2  3  1  0
  3  4  2  0
  3  5  1  0
  5  6  1  0
  6  7  1  0
  7  8  1  0
  8  9  2  0
  9 10  1  0
 10 11  2  0
 11 12  1  0
 12 13  2  0
  5 14  1  0
 14 15  2  0
 14 16  1  0
 16 17  1  0
 17 18  1  0
 18 19  2  0
 19 20  1  0
 20  2  1  0
 13  8  1  0
 20 16  2  0
  1 21  1  0
  1 22  1  0
  1 23  1  0
  6 24  1  0
  6 25  1  0
  7 26  1  0
  7 27  1  0
  9 28  1  0
 10 29  1  0
 11 30  1  0
 12 31  1  0
 13 32  1  0
 17 33  1  0
 18 34  1  0
 19 35  1  0
M  END
>  <UniqueID>  (18) 
16

>  <SMILES>  (18) 
Cn1c(=O)n(CCc2ccccc2)c(=O)c2[nH]ccc21

>  <Energy>  (18) 
74.59163091668952

>  <Genealogy>  (18) 
Cn1c(=O)n(CCc2ccccc2)c(=O)c2[nH]ccc21 (3D coordinates assigned)
Cn1c(=O)n(CCc2ccccc2)c(=O)c2[nH]ccc21 (optimized conformer: 74.59163091668952 kcal/mol)

>  <smiles>  (18) 
Cn1c(=O)n(CCc2ccccc2)c(=O)c2[nH]ccc21

>  <score_type>  (18) 
oracle

>  <origin>  (18) 
adg

>  <m_score__min__energy>  (18) 
-7.7400000000000002

>  <m_primary>  (18) 
energy

$$$$
18:0
     RDKit          3D

 45 47  0  0  0  0  0  0  0  0999 V2000
   56.0350   30.4110   44.5150 O   0  0  0  0  0  0  0  0  0  0  0  0
   57.2440   30.7600   44.5810 C   0  0  0  0  0  0  0  0  0  0  0  0
   57.8290   31.6050   43.4900 C   0  0  0  0  0  0  0  0  0  0  0  0
   57.7490   32.9940   43.8180 O   0  0  0  0  0  0  0  0  0  0  0  0
   58.3720   33.6190   44.9120 C   0  0  0  0  0  0  0  0  0  0  0  0
   59.6500   34.2120   44.8280 C   0  0  0  0  0  0  0  0  0  0  0  0
   60.2210   34.8160   45.9530 C   0  0  0  0  0  0  0  0  0  0  0  0
   59.5290   34.8400   47.1650 C   0  0  0  0  0  0  0  0  0  0  0  0
   58.2620   34.2600   47.2550 C   0  0  0  0  0  0  0  0  0  0  0  0
   57.6850   33.6540   46.1350 C   0  0  0  0  0  0  0  0  0  0  0  0
   56.4550   33.0930   46.2360 F   0  0  0  0  0  0  0  0  0  0  0  0
   58.0540   30.3530   45.6890 N   0  0  0  0  0  0  0  0  0  0  0  0
   58.0970   29.0240   46.2220 C   0  0  0  0  0  0  0  0  0  0  0  0
   57.0540   28.1460   45.9010 C   0  0  0  0  0  0  0  0  0  0  0  0
   57.0630   26.8180   46.3600 C   0  0  0  0  0  0  0  0  0  0  0  0
   55.9640   25.8950   45.9970 C   0  0  0  0  0  0  0  0  0  0  0  0
   56.2060   24.6960   45.7000 O   0  0  0  0  0  0  0  0  0  0  0  0
   54.6470   26.3410   45.9780 O   0  0  0  0  0  0  0  0  0  0  0  0
   58.1280   26.3820   47.1630 C   0  0  0  0  0  0  0  0  0  0  0  0
   59.1530   27.2610   47.5180 C   0  0  0  0  0  0  0  0  0  0  0  0
   59.1430   28.5890   47.0670 C   0  0  0  0  0  0  0  0  0  0  0  0
   60.1450   29.5010   47.5500 N   0  0  0  0  0  0  0  0  0  0  0  0
   61.1160   30.0790   46.6130 C   0  0  0  0  0  0  0  0  0  0  0  0
   61.6660   31.4040   47.1540 C   0  0  0  0  0  0  0  0  0  0  0  0
   60.5830   32.2070   47.7360 N   0  0  0  0  0  0  0  0  0  0  0  0
   59.9540   31.5630   48.9080 C   0  0  0  0  0  0  0  0  0  0  0  0
   60.0740   30.0250   48.9180 C   0  0  0  0  0  0  0  0  0  0  0  0
   58.8844   31.3292   43.3483 H   0  0  0  0  0  0  0  0  0  0  0  0
   57.2572   31.4298   42.5668 H   0  0  0  0  0  0  0  0  0  0  0  0
   60.1988   34.1991   43.8747 H   0  0  0  0  0  0  0  0  0  0  0  0
   61.2188   35.2736   45.8824 H   0  0  0  0  0  0  0  0  0  0  0  0
   59.9812   35.3152   48.0480 H   0  0  0  0  0  0  0  0  0  0  0  0
   57.7163   34.2800   48.2099 H   0  0  0  0  0  0  0  0  0  0  0  0
   56.2170   28.5007   45.2816 H   0  0  0  0  0  0  0  0  0  0  0  0
   58.1555   25.3403   47.5153 H   0  0  0  0  0  0  0  0  0  0  0  0
   59.9760   26.9088   48.1573 H   0  0  0  0  0  0  0  0  0  0  0  0
   61.9476   29.3728   46.4730 H   0  0  0  0  0  0  0  0  0  0  0  0
   60.6126   30.2696   45.6537 H   0  0  0  0  0  0  0  0  0  0  0  0
   62.4189   31.1950   47.9283 H   0  0  0  0  0  0  0  0  0  0  0  0
   62.1223   31.9662   46.3259 H   0  0  0  0  0  0  0  0  0  0  0  0
   59.8510   32.3560   47.0010 H   0  0  0  0  0  0  0  0  0  0  0  0
   60.4350   31.9535   49.8169 H   0  0  0  0  0  0  0  0  0  0  0  0
   58.8804   31.7983   48.8626 H   0  0  0  0  0  0  0  0  0  0  0  0
   60.9856   29.7376   49.4624 H   0  0  0  0  0  0  0  0  0  0  0  0
   59.1856   29.6044   49.4118 H   0  0  0  0  0  0  0  0  0  0  0  0
  1  2  2  0
  2  3  1  0
  3  4  1  0
  4  5  1  0
  5  6  2  0
  6  7  1  0
  7  8  2  0
  8  9  1  0
  9 10  2  0
 10 11  1  0
  2 12  1  0
 12 13  1  0
 13 14  2  0
 14 15  1  0
 15 16  1  0
 16 17  2  0
 16 18  1  0
 15 19  2  0
 19 20  1  0
 20 21  2  0
 21 22  1  0
 22 23  1  0
 23 24  1  0
 24 25  1  0
 25 26  1  0
 26 27  1  0
 10  5  1  0
 21 13  1  0
 27 22  1  0
  3 28  1  0
  3 29  1  0
  6 30  1  0
  7 31  1  0
  8 32  1  0
  9 33  1  0
 14 34  1  0
 19 35  1  0
 20 36  1  0
 23 37  1  0
 23 38  1  0
 24 39  1  0
 24 40  1  0
 25 41  1  0
 26 42  1  0
 26 43  1  0
 27 44  1  0
 27 45  1  0
M  CHG  2  12  -1  18  -1
M  END
>  <UniqueID>  (19) 
17

>  <SMILES>  (19) 
O=C(COc1ccccc1F)[N-]c1cc(C(=O)[O-])ccc1N1CCNCC1

>  <Energy>  (19) 
61.63928781188282

>  <Genealogy>  (19) 
O=C(COc1ccccc1F)[N-]c1cc(C(=O)[O-])ccc1N1CCNCC1 (protonated)
O=C(COc1ccccc1F)[N-]c1cc(C(=O)[O-])ccc1N1CCNCC1 (3D coordinates assigned)
O=C(COc1ccccc1F)[N-]c1cc(C(=O)[O-])ccc1N1CCNCC1 (nonaromatic ring conformer: 61.63928781188282 kcal/mol)

>  <smiles>  (19) 
O=C(COc1ccccc1F)Nc1cc(C(=O)O)ccc1N1CCNCC1

>  <score_type>  (19) 
oracle

>  <origin>  (19) 
adg

>  <m_score__min__energy>  (19) 
-11.33

>  <m_primary>  (19) 
energy

$$$$
19:0
     RDKit          3D

 50 52  0  0  0  0  0  0  0  0999 V2000
   54.1300   24.8360   45.5870 C   0  0  0  0  0  0  0  0  0  0  0  0
   54.7460   26.0640   45.9590 O   0  0  0  0  0  0  0  0  0  0  0  0
   56.1250   26.2300   46.1690 C   0  0  0  0  0  0  0  0  0  0  0  0
   56.9220   25.2200   46.7430 C   0  0  0  0  0  0  0  0  0  0  0  0
   58.2920   25.4240   46.9300 C   0  0  0  0  0  0  0  0  0  0  0  0
   58.8800   26.6300   46.5480 C   0  0  0  0  0  0  0  0  0  0  0  0
   58.0980   27.6400   45.9810 C   0  0  0  0  0  0  0  0  0  0  0  0
   56.7240   27.4470   45.7960 C   0  0  0  0  0  0  0  0  0  0  0  0
   55.9350   28.5000   45.2450 N   0  0  0  0  0  0  0  0  0  0  0  0
   56.4640   29.3600   43.8400 S   0  0  0  0  0  0  0  0  0  0  0  0
   55.2700   29.7080   42.9970 O   0  0  0  0  0  0  0  0  0  0  0  0
   57.3860   28.4900   43.0330 O   0  0  0  0  0  0  0  0  0  0  0  0
   57.2960   30.8350   44.3210 C   0  0  0  0  0  0  0  0  0  0  0  0
   57.7570   30.9790   45.6370 C   0  0  0  0  0  0  0  0  0  0  0  0
   58.3550   32.1730   46.0460 C   0  0  0  0  0  0  0  0  0  0  0  0
   58.4940   33.2410   45.1460 C   0  0  0  0  0  0  0  0  0  0  0  0
   59.1670   34.5180   45.5780 C   0  0  0  0  0  0  0  0  0  0  0  0
   59.2350   34.6270   47.1060 C   0  0  0  0  0  0  0  0  0  0  0  0
   60.5690   34.2910   47.6030 N   0  0  0  0  0  0  0  0  0  0  0  0
   60.8260   33.9790   48.9810 C   0  0  0  0  0  0  0  0  0  0  0  0
   59.9060   34.1000   49.8350 O   0  0  0  0  0  0  0  0  0  0  0  0
   62.1680   33.5240   49.4080 C   0  0  0  0  0  0  0  0  0  0  0  0
   62.8720   34.2700   50.3700 C   0  0  0  0  0  0  0  0  0  0  0  0
   64.1360   33.8590   50.8010 C   0  0  0  0  0  0  0  0  0  0  0  0
   64.7120   32.7030   50.2750 C   0  0  0  0  0  0  0  0  0  0  0  0
   64.0280   31.9550   49.3150 C   0  0  0  0  0  0  0  0  0  0  0  0
   62.7600   32.3560   48.8760 C   0  0  0  0  0  0  0  0  0  0  0  0
   61.9230   31.3100   47.4990 Br  0  0  0  0  0  0  0  0  0  0  0  0
   58.0450   33.0900   43.8250 C   0  0  0  0  0  0  0  0  0  0  0  0
   57.4410   31.8960   43.4170 C   0  0  0  0  0  0  0  0  0  0  0  0
   53.8498   24.2774   46.4922 H   0  0  0  0  0  0  0  0  0  0  0  0
   53.2293   25.0435   44.9906 H   0  0  0  0  0  0  0  0  0  0  0  0
   54.8349   24.2381   44.9906 H   0  0  0  0  0  0  0  0  0  0  0  0
   56.4641   24.2666   47.0453 H   0  0  0  0  0  0  0  0  0  0  0  0
   58.9082   24.6315   47.3796 H   0  0  0  0  0  0  0  0  0  0  0  0
   59.9592   26.7860   46.6931 H   0  0  0  0  0  0  0  0  0  0  0  0
   58.5637   28.5897   45.6791 H   0  0  0  0  0  0  0  0  0  0  0  0
   57.6474   30.1486   46.3501 H   0  0  0  0  0  0  0  0  0  0  0  0
   58.7189   32.2769   47.0788 H   0  0  0  0  0  0  0  0  0  0  0  0
   60.1892   34.5386   45.1721 H   0  0  0  0  0  0  0  0  0  0  0  0
   58.5779   35.3652   45.1970 H   0  0  0  0  0  0  0  0  0  0  0  0
   58.9908   35.6576   47.4031 H   0  0  0  0  0  0  0  0  0  0  0  0
   58.5142   33.9169   47.5376 H   0  0  0  0  0  0  0  0  0  0  0  0
   61.3500   34.2390   46.9100 H   0  0  0  0  0  0  0  0  0  0  0  0
   62.4241   35.1843   50.7865 H   0  0  0  0  0  0  0  0  0  0  0  0
   64.6774   34.4479   51.5560 H   0  0  0  0  0  0  0  0  0  0  0  0
   65.7064   32.3802   50.6169 H   0  0  0  0  0  0  0  0  0  0  0  0
   64.4876   31.0454   48.9010 H   0  0  0  0  0  0  0  0  0  0  0  0
   58.1686   33.9143   43.1071 H   0  0  0  0  0  0  0  0  0  0  0  0
   57.0789   31.7896   42.3838 H   0  0  0  0  0  0  0  0  0  0  0  0
  1  2  1  0
  2  3  1  0
  3  4  2  0
  4  5  1  0
  5  6  2  0
  6  7  1  0
  7  8  2  0
  8  9  1  0
  9 10  1  0
 10 11  2  0
 10 12  2  0
 10 13  1  0
 13 14  2  0
 14 15  1  0
 15 16  2  0
 16 17  1  0
 17 18  1  0
 18 19  1  0
 19 20  1  0
 20 21  2  0
 20 22  1  0
 22 23  2  0
 23 24  1  0
 24 25  2  0
 25 26  1  0
 26 27  2  0
 27 28  1  0
 16 29  1  0
 29 30  2  0
  8  3  1  0
 30 13  1  0
 27 22  1  0
  1 31  1  0
  1 32  1  0
  1 33  1  0
  4 34  1  0
  5 35  1  0
  6 36  1  0
  7 37  1  0
 14 38  1  0
 15 39  1  0
 17 40  1  0
 17 41  1  0
 18 42  1  0
 18 43  1  0
 19 44  1  0
 23 45  1  0
 24 46  1  0
 25 47  1  0
 26 48  1  0
 29 49  1  0
 30 50  1  0
M  CHG  1   9  -1
M  END
>  <UniqueID>  (20) 
18

>  <SMILES>  (20) 
COc1ccccc1[N-]S(=O)(=O)c1ccc(CCNC(=O)c2ccccc2Br)cc1

>  <Energy>  (20) 
59.352534575894225

>  <Genealogy>  (20) 
COc1ccccc1[N-]S(=O)(=O)c1ccc(CCNC(=O)c2ccccc2Br)cc1 (protonated)
COc1ccccc1[N-]S(=O)(=O)c1ccc(CCNC(=O)c2ccccc2Br)cc1 (3D coordinates assigned)
COc1ccccc1[N-]S(=O)(=O)c1ccc(CCNC(=O)c2ccccc2Br)cc1 (optimized conformer: 59.352534575894225 kcal/mol)

>  <smiles>  (20) 
COc1ccccc1NS(=O)(=O)c1ccc(CCNC(=O)c2ccccc2Br)cc1

>  <score_type>  (20) 
oracle

>  <origin>  (20) 
adg

>  <m_score__min__energy>  (20) 
-12.16

>  <m_primary>  (20) 
energy

$$$$
20:0
     RDKit          3D

 40 41  0  0  0  0  0  0  0  0999 V2000
   58.9370   32.6430   50.3290 C   0  0  0  0  0  0  0  0  0  0  0  0
   60.0050   31.8220   49.8670 O   0  0  0  0  0  0  0  0  0  0  0  0
   59.9390   30.9880   48.7400 C   0  0  0  0  0  0  0  0  0  0  0  0
   59.4720   29.6610   48.8200 C   0  0  0  0  0  0  0  0  0  0  0  0
   59.4350   28.8560   47.6790 C   0  0  0  0  0  0  0  0  0  0  0  0
   59.8630   29.3610   46.4480 C   0  0  0  0  0  0  0  0  0  0  0  0
   59.8140   28.3470   45.0170 Cl  0  0  0  0  0  0  0  0  0  0  0  0
   60.3280   30.6750   46.3590 C   0  0  0  0  0  0  0  0  0  0  0  0
   60.3660   31.4940   47.4970 C   0  0  0  0  0  0  0  0  0  0  0  0
   60.8490   32.8420   47.3910 N   0  0  0  0  0  0  0  0  0  0  0  0
   59.9130   33.9520   47.1870 C   0  0  0  0  0  0  0  0  0  0  0  0
   58.6480   33.4560   46.5470 C   0  0  0  0  0  0  0  0  0  0  0  0
   57.7070   33.0490   47.2780 O   0  0  0  0  0  0  0  0  0  0  0  0
   58.5210   33.3420   45.1230 N   0  0  0  0  0  0  0  0  0  0  0  0
   57.9010   32.3990   44.4760 C   0  0  0  0  0  0  0  0  0  0  0  0
   57.1790   31.4060   45.0480 N   0  0  0  0  0  0  0  0  0  0  0  0
   56.6740   30.5470   44.1190 C   0  0  0  0  0  0  0  0  0  0  0  0
   55.8840   29.3350   44.4990 C   0  0  0  0  0  0  0  0  0  0  0  0
   57.0210   30.8370   42.8010 C   0  0  0  0  0  0  0  0  0  0  0  0
   57.9760   32.2240   42.8080 S   0  0  0  0  0  0  0  0  0  0  0  0
   62.5590   33.1520   47.4550 S   0  0  0  0  0  0  0  0  0  0  0  0
   63.0240   33.8030   49.0460 C   0  0  0  0  0  0  0  0  0  0  0  0
   62.9310   34.1420   46.3850 O   0  0  0  0  0  0  0  0  0  0  0  0
   63.3100   31.8730   47.2070 O   0  0  0  0  0  0  0  0  0  0  0  0
   58.9288   32.6493   51.4289 H   0  0  0  0  0  0  0  0  0  0  0  0
   59.0760   33.6690   49.9574 H   0  0  0  0  0  0  0  0  0  0  0  0
   57.9813   32.2448   49.9574 H   0  0  0  0  0  0  0  0  0  0  0  0
   59.1348   29.2569   49.7859 H   0  0  0  0  0  0  0  0  0  0  0  0
   59.0679   27.8215   47.7495 H   0  0  0  0  0  0  0  0  0  0  0  0
   60.6667   31.0702   45.3899 H   0  0  0  0  0  0  0  0  0  0  0  0
   59.6734   34.4079   48.1590 H   0  0  0  0  0  0  0  0  0  0  0  0
   60.3801   34.6971   46.5262 H   0  0  0  0  0  0  0  0  0  0  0  0
   57.0580   31.2670   46.0740 H   0  0  0  0  0  0  0  0  0  0  0  0
   55.8342   29.2586   45.5952 H   0  0  0  0  0  0  0  0  0  0  0  0
   54.8660   29.4180   44.0906 H   0  0  0  0  0  0  0  0  0  0  0  0
   56.3708   28.4371   44.0906 H   0  0  0  0  0  0  0  0  0  0  0  0
   56.7234   30.2612   41.9122 H   0  0  0  0  0  0  0  0  0  0  0  0
   62.5812   33.1831   49.8395 H   0  0  0  0  0  0  0  0  0  0  0  0
   64.1199   33.7920   49.1406 H   0  0  0  0  0  0  0  0  0  0  0  0
   62.6582   34.8361   49.1406 H   0  0  0  0  0  0  0  0  0  0  0  0
  1  2  1  0
  2  3  1  0
  3  4  2  0
  4  5  1  0
  5  6  2  0
  6  7  1  0
  6  8  1  0
  8  9  2  0
  9 10  1  0
 10 11  1  0
 11 12  1  0
 12 13  2  0
 12 14  1  0
 14 15  2  3
 15 16  1  0
 16 17  1  0
 17 18  1  0
 17 19  2  0
 19 20  1  0
 10 21  1  0
 21 22  1  0
 21 23  2  0
 21 24  2  0
  9  3  1  0
 20 15  1  0
  1 25  1  0
  1 26  1  0
  1 27  1  0
  4 28  1  0
  5 29  1  0
  8 30  1  0
 11 31  1  0
 11 32  1  0
 16 33  1  0
 18 34  1  0
 18 35  1  0
 18 36  1  0
 19 37  1  0
 22 38  1  0
 22 39  1  0
 22 40  1  0
M  END
>  <UniqueID>  (21) 
19

>  <SMILES>  (21) 
COc1ccc(Cl)cc1N(CC(=O)N=c1[nH]c(C)cs1)S(C)(=O)=O

>  <Energy>  (21) 
74.9484971380061

>  <Genealogy>  (21) 
COc1ccc(Cl)cc1N(CC(=O)N=c1[nH]c(C)cs1)S(C)(=O)=O (3D coordinates assigned)
COc1ccc(Cl)cc1N(CC(=O)N=c1[nH]c(C)cs1)S(C)(=O)=O (optimized conformer: 74.9484971380061 kcal/mol)

>  <smiles>  (21) 
COc1ccc(Cl)cc1N(CC(=O)N=c1[nH]c(C)cs1)S(C)(=O)=O

>  <score_type>  (21) 
oracle

>  <origin>  (21) 
adg

>  <m_score__min__energy>  (21) 
-7.5800000000000001

>  <m_primary>  (21) 
energy

$$$$
21:0
     RDKit          3D

 30 31  0  0  0  0  0  0  0  0999 V2000
   57.7290   31.6870   43.4250 C   0  0  0  0  0  0  0  0  0  0  0  0
   56.8720   30.2310   43.9800 S   0  0  0  0  0  0  0  0  0  0  0  0
   56.7190   29.2770   42.8290 O   0  0  0  0  0  0  0  0  0  0  0  0
   55.5130   30.6210   44.4890 O   0  0  0  0  0  0  0  0  0  0  0  0
   57.8150   29.4550   45.2830 C   0  0  0  0  0  0  0  0  0  0  0  0
   57.1980   28.1440   45.6690 C   0  0  0  0  0  0  0  0  0  0  0  0
   55.9110   27.8440   45.4180 N   0  0  0  0  0  0  0  0  0  0  0  0
   55.7480   26.6400   46.0010 C   0  0  0  0  0  0  0  0  0  0  0  0
   54.6570   26.0150   45.9760 O   0  0  0  0  0  0  0  0  0  0  0  0
   56.8460   26.1620   46.6180 N   0  0  0  0  0  0  0  0  0  0  0  0
   57.7670   27.1220   46.4140 C   0  0  0  0  0  0  0  0  0  0  0  0
   59.1510   27.0350   46.9280 C   0  0  0  0  0  0  0  0  0  0  0  0
   59.9140   26.1180   46.5250 O   0  0  0  0  0  0  0  0  0  0  0  0
   59.6280   27.9280   47.9420 N   0  0  0  0  0  0  0  0  0  0  0  0
   59.7230   29.3550   47.8320 C   0  0  0  0  0  0  0  0  0  0  0  0
   58.9080   30.2100   48.5980 C   0  0  0  0  0  0  0  0  0  0  0  0
   59.0080   31.5970   48.4480 C   0  0  0  0  0  0  0  0  0  0  0  0
   59.9060   32.1400   47.5240 C   0  0  0  0  0  0  0  0  0  0  0  0
   60.0290   33.8790   47.3370 Cl  0  0  0  0  0  0  0  0  0  0  0  0
   60.7000   31.2940   46.7420 C   0  0  0  0  0  0  0  0  0  0  0  0
   60.6020   29.9070   46.8910 C   0  0  0  0  0  0  0  0  0  0  0  0
   58.0699   32.2661   44.2959 H   0  0  0  0  0  0  0  0  0  0  0  0
   58.5976   31.3922   42.8179 H   0  0  0  0  0  0  0  0  0  0  0  0
   57.0496   32.3033   42.8179 H   0  0  0  0  0  0  0  0  0  0  0  0
   58.8430   29.2818   44.9319 H   0  0  0  0  0  0  0  0  0  0  0  0
   57.8205   30.1176   46.1610 H   0  0  0  0  0  0  0  0  0  0  0  0
   58.1908   29.7862   49.3163 H   0  0  0  0  0  0  0  0  0  0  0  0
   58.3790   32.2619   49.0581 H   0  0  0  0  0  0  0  0  0  0  0  0
   61.4016   31.7201   46.0097 H   0  0  0  0  0  0  0  0  0  0  0  0
   61.2190   29.2452   46.2654 H   0  0  0  0  0  0  0  0  0  0  0  0
  1  2  1  0
  2  3  2  0
  2  4  2  0
  2  5  1  0
  5  6  1  0
  6  7  1  0
  7  8  1  0
  8  9  2  0
  8 10  1  0
 10 11  1  0
 11 12  1  0
 12 13  2  0
 12 14  1  0
 14 15  1  0
 15 16  2  0
 16 17  1  0
 17 18  2  0
 18 19  1  0
 18 20  1  0
 20 21  2  0
 11  6  2  0
 21 15  1  0
  1 22  1  0
  1 23  1  0
  1 24  1  0
  5 25  1  0
  5 26  1  0
 16 27  1  0
 17 28  1  0
 20 29  1  0
 21 30  1  0
M  CHG  3   7  -1  10  -1  14  -1
M  END
>  <UniqueID>  (22) 
20

>  <SMILES>  (22) 
CS(=O)(=O)Cc1[n-]c(=O)[n-]c1C(=O)[N-]c1ccc(Cl)cc1

>  <Energy>  (22) 
55.74711220249419

>  <Genealogy>  (22) 
CS(=O)(=O)Cc1[n-]c(=O)[n-]c1C(=O)[N-]c1ccc(Cl)cc1 (protonated)
CS(=O)(=O)Cc1[n-]c(=O)[n-]c1C(=O)[N-]c1ccc(Cl)cc1 (3D coordinates assigned)
CS(=O)(=O)Cc1[n-]c(=O)[n-]c1C(=O)[N-]c1ccc(Cl)cc1 (optimized conformer: 55.74711220249419 kcal/mol)

>  <smiles>  (22) 
CS(=O)(=O)Cc1[nH]c(=O)[nH]c1C(=O)Nc1ccc(Cl)cc1

>  <score_type>  (22) 
oracle

>  <origin>  (22) 
adg

>  <m_score__min__energy>  (22) 
-12.58

>  <m_primary>  (22) 
energy

$$$$
22:0
     RDKit          3D

 39 41  0  0  1  0  0  0  0  0999 V2000
   55.5140   30.0260   43.6150 C   0  0  0  0  0  0  0  0  0  0  0  0
   56.1090   29.7530   44.8720 O   0  0  0  0  0  0  0  0  0  0  0  0
   57.3440   29.1280   44.9330 C   0  0  0  0  0  0  0  0  0  0  0  0
   57.7140   28.0590   44.1720 C   0  0  0  0  0  0  0  0  0  0  0  0
   58.9580   27.4550   44.2550 C   0  0  0  0  0  0  0  0  0  0  0  0
   59.8830   27.9580   45.1600 C   0  0  0  0  0  0  0  0  0  0  0  0
   59.5170   29.0500   45.9450 C   0  0  0  0  0  0  0  0  0  0  0  0
   58.2820   29.6280   45.8410 C   0  0  0  0  0  0  0  0  0  0  0  0
   57.9120   30.7550   46.6540 N   0  0  0  0  0  0  0  0  0  0  0  0
   58.0730   31.9340   46.2020 C   0  0  0  0  0  0  0  0  0  0  0  0
   57.4730   32.4120   45.0990 N   0  0  0  0  0  0  0  0  0  0  0  0
   57.6980   33.6730   44.6850 C   0  0  0  0  0  0  0  0  0  0  0  0
   58.5430   34.5200   45.3670 C   0  0  0  0  0  0  0  0  0  0  0  0
   59.1550   34.0060   46.5080 C   0  0  0  0  0  0  0  0  0  0  0  0
   59.9620   34.7310   47.2070 N   0  0  0  0  0  0  0  0  0  0  0  0
   61.2020   34.2160   47.6890 C   0  0  0  0  0  0  0  0  0  0  0  0
   61.5210   34.1640   49.0320 C   0  0  0  0  0  0  0  0  0  0  0  0
   62.7320   33.6570   49.4480 C   0  0  0  0  0  0  0  0  0  0  0  0
   63.6520   33.1890   48.5240 C   0  0  0  0  0  0  0  0  0  0  0  0
   64.8630   32.6810   48.9370 O   0  0  0  0  0  0  0  0  0  0  0  0
   63.3580   33.2270   47.1680 C   0  0  0  0  0  0  0  0  0  0  0  0
   62.1480   33.7360   46.7820 C   0  0  0  0  0  0  0  0  0  0  0  0
   58.9140   32.7460   46.8970 N   0  0  0  0  0  0  0  0  0  0  0  0
   54.5240   30.4802   43.7688 H   0  0  0  0  0  0  0  0  0  0  0  0
   56.1526   30.7212   43.0503 H   0  0  0  0  0  0  0  0  0  0  0  0
   55.4035   29.0885   43.0503 H   0  0  0  0  0  0  0  0  0  0  0  0
   56.9858   27.6544   43.4536 H   0  0  0  0  0  0  0  0  0  0  0  0
   59.2078   26.5945   43.6169 H   0  0  0  0  0  0  0  0  0  0  0  0
   60.8811   27.5054   45.2552 H   0  0  0  0  0  0  0  0  0  0  0  0
   60.2402   29.4574   46.6668 H   0  0  0  0  0  0  0  0  0  0  0  0
   56.8330   31.7780   44.5770 H   0  0  0  0  0  0  0  0  0  0  0  0
   57.1934   34.0366   43.7777 H   0  0  0  0  0  0  0  0  0  0  0  0
   58.7255   35.5504   45.0279 H   0  0  0  0  0  0  0  0  0  0  0  0
   60.8001   34.5315   49.7771 H   0  0  0  0  0  0  0  0  0  0  0  0
   62.9704   33.6234   50.5213 H   0  0  0  0  0  0  0  0  0  0  0  0
   65.7450   32.7750   48.4910 H   0  0  0  0  0  0  0  0  0  0  0  0
   64.0786   32.8577   46.4235 H   0  0  0  0  0  0  0  0  0  0  0  0
   61.9101   33.7683   45.7085 H   0  0  0  0  0  0  0  0  0  0  0  0
   59.3890   32.3990   47.7520 H   0  0  0  0  0  0  0  0  0  0  0  0
  1  2  1  0
  2  3  1  0
  3  4  2  0
  4  5  1  0
  5  6  2  0
  6  7  1  0
  7  8  2  0
  8  9  1  0
  9 10  2  0
 10 11  1  0
 11 12  1  0
 12 13  2  0
 13 14  1  0
 14 15  2  0
 15 16  1  0
 16 17  2  0
 17 18  1  0
 18 19  2  0
 19 20  1  0
 19 21  1  0
 21 22  2  0
 14 23  1  0
  8  3  1  0
 23 10  1  0
 22 16  1  0
  1 24  1  0
  1 25  1  0
  1 26  1  0
  4 27  1  0
  5 28  1  0
  6 29  1  0
  7 30  1  0
 11 31  1  0
 12 32  1  0
 13 33  1  0
 17 34  1  0
 18 35  1  0
 20 36  1  0
 21 37  1  0
 22 38  1  0
 23 39  1  0
M  END
>  <smiles>  (23) 
COc1ccccc1N=c1[nH]ccc(=Nc2ccc(O)cc2)[nH]1

>  <score_type>  (23) 
oracle

>  <origin>  (23) 
adg

>  <m_score__min__energy>  (23) 
-8.4000000000000004

>  <m_primary>  (23) 
energy

$$$$
23:0
     RDKit          3D

 36 38  0  0  1  0  0  0  0  0999 V2000
   55.4580   26.5540   46.1030 O   0  0  0  0  0  0  0  0  0  0  0  0
   56.6490   26.6870   45.6570 C   0  0  0  0  0  0  0  0  0  0  0  0
   57.4950   25.5260   45.6750 N   0  0  0  0  0  0  0  0  0  0  0  0
   57.3320   24.6610   44.7420 C   0  0  0  0  0  0  0  0  0  0  0  0
   57.5420   23.3320   44.9480 N   0  0  0  0  0  0  0  0  0  0  0  0
   57.2880   22.6750   43.7820 C   0  0  0  0  0  0  0  0  0  0  0  0
   56.9290   23.6140   42.8890 N   0  0  0  0  0  0  0  0  0  0  0  0
   56.9500   24.8220   43.4560 N   0  0  0  0  0  0  0  0  0  0  0  0
   57.1220   27.9660   45.1510 C   0  0  0  0  0  0  0  0  0  0  0  0
   56.2440   28.9730   44.8670 C   0  0  0  0  0  0  0  0  0  0  0  0
   56.7200   30.1560   44.3940 C   0  0  0  0  0  0  0  0  0  0  0  0
   58.0980   30.3940   44.1830 C   0  0  0  0  0  0  0  0  0  0  0  0
   58.4360   31.5960   43.7170 O   0  0  0  0  0  0  0  0  0  0  0  0
   58.0460   32.8900   43.7580 C   0  0  0  0  0  0  0  0  0  0  0  0
   58.4540   33.5460   45.0180 C   0  0  0  0  0  0  0  0  0  0  0  0
   59.2520   34.6890   44.9450 C   0  0  0  0  0  0  0  0  0  0  0  0
   59.6630   35.3800   46.0630 C   0  0  0  0  0  0  0  0  0  0  0  0
   59.2860   34.9490   47.3190 C   0  0  0  0  0  0  0  0  0  0  0  0
   58.4870   33.8090   47.4310 C   0  0  0  0  0  0  0  0  0  0  0  0
   58.0940   33.1420   46.2770 C   0  0  0  0  0  0  0  0  0  0  0  0
   58.9160   29.3330   44.4930 C   0  0  0  0  0  0  0  0  0  0  0  0
   58.4690   28.1230   44.9720 C   0  0  0  0  0  0  0  0  0  0  0  0
   57.3619   21.5917   43.6060 H   0  0  0  0  0  0  0  0  0  0  0  0
   56.6630   23.4310   41.8760 H   0  0  0  0  0  0  0  0  0  0  0  0
   56.7180   25.7310   43.0090 H   0  0  0  0  0  0  0  0  0  0  0  0
   55.1641   28.8288   45.0191 H   0  0  0  0  0  0  0  0  0  0  0  0
   56.0045   30.9599   44.1664 H   0  0  0  0  0  0  0  0  0  0  0  0
   58.5024   33.4265   42.9131 H   0  0  0  0  0  0  0  0  0  0  0  0
   56.9480   32.9185   43.6973 H   0  0  0  0  0  0  0  0  0  0  0  0
   59.5650   35.0522   43.9550 H   0  0  0  0  0  0  0  0  0  0  0  0
   60.2921   36.2759   45.9551 H   0  0  0  0  0  0  0  0  0  0  0  0
   59.6098   35.4948   48.2175 H   0  0  0  0  0  0  0  0  0  0  0  0
   58.1728   33.4438   48.4199 H   0  0  0  0  0  0  0  0  0  0  0  0
   57.4635   32.2464   46.3791 H   0  0  0  0  0  0  0  0  0  0  0  0
   59.9991   29.4599   44.3485 H   0  0  0  0  0  0  0  0  0  0  0  0
   59.1716   27.3089   45.2033 H   0  0  0  0  0  0  0  0  0  0  0  0
  1  2  2  0
  2  3  1  0
  3  4  2  0
  4  5  1  0
  5  6  2  0
  6  7  1  0
  7  8  1  0
  2  9  1  0
  9 10  2  0
 10 11  1  0
 11 12  2  0
 12 13  1  0
 13 14  1  0
 14 15  1  0
 15 16  2  0
 16 17  1  0
 17 18  2  0
 18 19  1  0
 19 20  2  0
 12 21  1  0
 21 22  2  0
  8  4  1  0
 22  9  1  0
 20 15  1  0
  6 23  1  0
  7 24  1  0
  8 25  1  0
 10 26  1  0
 11 27  1  0
 14 28  1  0
 14 29  1  0
 16 30  1  0
 17 31  1  0
 18 32  1  0
 19 33  1  0
 20 34  1  0
 21 35  1  0
 22 36  1  0
M  END
>  <smiles>  (24) 
O=C(N=c1nc[nH][nH]1)c1ccc(OCc2ccccc2)cc1

>  <score_type>  (24) 
oracle

>  <origin>  (24) 
adg

>  <m_score__min__energy>  (24) 
-7.9000000000000004

>  <m_primary>  (24) 
energy

$$$$
24:0
     RDKit          3D

 29 30  0  0  0  0  0  0  0  0999 V2000
   58.2710   34.5850   52.4810 N   0  0  0  0  0  0  0  0  0  0  0  0
   57.9990   33.2430   52.0560 C   0  0  0  0  0  0  0  0  0  0  0  0
   57.0410   32.4850   52.7480 C   0  0  0  0  0  0  0  0  0  0  0  0
   56.7480   31.1660   52.3590 C   0  0  0  0  0  0  0  0  0  0  0  0
   55.7370   30.3760   53.0970 C   0  0  0  0  0  0  0  0  0  0  0  0
   55.5210   30.6090   54.3180 O   0  0  0  0  0  0  0  0  0  0  0  0
   55.0240   29.3670   52.4360 O   0  0  0  0  0  0  0  0  0  0  0  0
   53.6270   29.1490   52.6150 C   0  0  0  0  0  0  0  0  0  0  0  0
   52.8410   30.0590   51.7190 C   0  0  0  0  0  0  0  0  0  0  0  0
   52.3650   29.6140   50.4770 C   0  0  0  0  0  0  0  0  0  0  0  0
   51.6270   30.4940   49.6830 C   0  0  0  0  0  0  0  0  0  0  0  0
   51.1870   30.1200   48.5640 O   0  0  0  0  0  0  0  0  0  0  0  0
   51.3820   31.7900   50.1440 C   0  0  0  0  0  0  0  0  0  0  0  0
   50.6500   32.6930   49.3800 O   0  0  0  0  0  0  0  0  0  0  0  0
   51.8840   32.1650   51.3920 C   0  0  0  0  0  0  0  0  0  0  0  0
   52.5830   31.3020   52.1240 O   0  0  0  0  0  0  0  0  0  0  0  0
   57.4310   30.6110   51.2640 C   0  0  0  0  0  0  0  0  0  0  0  0
   58.3840   31.3600   50.5710 C   0  0  0  0  0  0  0  0  0  0  0  0
   58.6740   32.6720   50.9590 C   0  0  0  0  0  0  0  0  0  0  0  0
   59.8860   33.5640   50.0470 Cl  0  0  0  0  0  0  0  0  0  0  0  0
   58.8620   34.7650   53.3230 H   0  0  0  0  0  0  0  0  0  0  0  0
   57.8950   35.4130   51.9700 H   0  0  0  0  0  0  0  0  0  0  0  0
   56.5131   32.9285   53.6051 H   0  0  0  0  0  0  0  0  0  0  0  0
   53.3883   28.1035   52.3704 H   0  0  0  0  0  0  0  0  0  0  0  0
   53.3624   29.3601   53.6616 H   0  0  0  0  0  0  0  0  0  0  0  0
   52.5697   28.5890   50.1342 H   0  0  0  0  0  0  0  0  0  0  0  0
   51.7002   33.1807   51.7722 H   0  0  0  0  0  0  0  0  0  0  0  0
   57.2135   29.5793   50.9504 H   0  0  0  0  0  0  0  0  0  0  0  0
   58.9105   30.9150   49.7138 H   0  0  0  0  0  0  0  0  0  0  0  0
  1  2  1  0
  2  3  2  0
  3  4  1  0
  4  5  1  0
  5  6  2  0
  5  7  1  0
  7  8  1  0
  8  9  1  0
  9 10  2  0
 10 11  1  0
 11 12  2  0
 11 13  1  0
 13 14  1  0
 13 15  2  0
 15 16  1  0
  4 17  2  0
 17 18  1  0
 18 19  2  0
 19 20  1  0
 19  2  1  0
 16  9  1  0
  1 21  1  0
  1 22  1  0
  3 23  1  0
  8 24  1  0
  8 25  1  0
 10 26  1  0
 15 27  1  0
 17 28  1  0
 18 29  1  0
M  CHG  1  14  -1
M  END
>  <UniqueID>  (25) 
21

>  <SMILES>  (25) 
Nc1cc(C(=O)OCc2cc(=O)c([O-])co2)ccc1Cl

>  <Energy>  (25) 
30.75255100677171

>  <Genealogy>  (25) 
Nc1cc(C(=O)OCc2cc(=O)c([O-])co2)ccc1Cl (protonated)
Nc1cc(C(=O)OCc2cc(=O)c([O-])co2)ccc1Cl (3D coordinates assigned)
Nc1cc(C(=O)OCc2cc(=O)c([O-])co2)ccc1Cl (optimized conformer: 30.75255100677171 kcal/mol)

>  <smiles>  (25) 
Nc1cc(C(=O)OCc2cc(=O)c(O)co2)ccc1Cl

>  <score_type>  (25) 
oracle

>  <origin>  (25) 
adg

>  <m_score__min__energy>  (25) 
-10.130000000000001

>  <m_primary>  (25) 
energy

$$$$
25:0
     RDKit          3D

 49 51  0  0  0  0  0  0  0  0999 V2000
   64.2000   33.4640   50.3200 C   0  0  0  0  0  0  0  0  0  0  0  0
   63.4840   32.6600   49.3210 N   0  0  0  0  0  0  0  0  0  0  0  0
   63.0150   31.3160   49.6960 C   0  0  0  0  0  0  0  0  0  0  0  0
   61.5770   31.1240   49.2860 C   0  0  0  0  0  0  0  0  0  0  0  0
   61.2670   30.4380   48.1000 C   0  0  0  0  0  0  0  0  0  0  0  0
   59.9330   30.2450   47.7260 C   0  0  0  0  0  0  0  0  0  0  0  0
   58.9010   30.7340   48.5320 C   0  0  0  0  0  0  0  0  0  0  0  0
   59.2010   31.4160   49.7140 C   0  0  0  0  0  0  0  0  0  0  0  0
   60.5330   31.6130   50.0910 C   0  0  0  0  0  0  0  0  0  0  0  0
   63.1730   33.1800   48.0050 C   0  0  0  0  0  0  0  0  0  0  0  0
   64.0480   33.1240   47.0980 O   0  0  0  0  0  0  0  0  0  0  0  0
   61.8640   33.7830   47.6590 C   0  0  0  0  0  0  0  0  0  0  0  0
   61.3260   33.8410   46.3870 C   0  0  0  0  0  0  0  0  0  0  0  0
   60.1340   34.5070   46.5690 C   0  0  0  0  0  0  0  0  0  0  0  0
   59.1410   34.8560   45.5060 C   0  0  0  0  0  0  0  0  0  0  0  0
   58.6540   33.6460   44.8500 N   0  0  0  0  0  0  0  0  0  0  0  0
   57.8390   32.6790   45.5320 C   0  0  0  0  0  0  0  0  0  0  0  0
   57.4240   32.9250   46.6980 O   0  0  0  0  0  0  0  0  0  0  0  0
   57.4600   31.4020   44.8820 C   0  0  0  0  0  0  0  0  0  0  0  0
   57.0500   31.3650   43.5370 C   0  0  0  0  0  0  0  0  0  0  0  0
   56.7000   30.1520   42.9380 C   0  0  0  0  0  0  0  0  0  0  0  0
   56.7600   28.9640   43.6680 C   0  0  0  0  0  0  0  0  0  0  0  0
   57.1850   28.9790   45.0030 C   0  0  0  0  0  0  0  0  0  0  0  0
   57.2520   27.4850   45.9310 S   0  0  0  0  0  0  0  0  0  0  0  0
   55.6770   26.7790   46.0040 N   0  0  0  0  0  0  0  0  0  0  0  0
   57.7400   27.7720   47.3230 O   0  0  0  0  0  0  0  0  0  0  0  0
   58.2000   26.5190   45.2780 O   0  0  0  0  0  0  0  0  0  0  0  0
   57.5310   30.1970   45.6060 C   0  0  0  0  0  0  0  0  0  0  0  0
   60.0050   34.8120   47.8380 O   0  0  0  0  0  0  0  0  0  0  0  0
   61.0290   34.3940   48.5230 N   0  0  0  0  0  0  0  0  0  0  0  0
   63.9096   33.1379   51.3296 H   0  0  0  0  0  0  0  0  0  0  0  0
   65.2841   33.3308   50.1893 H   0  0  0  0  0  0  0  0  0  0  0  0
   63.9426   34.5254   50.1893 H   0  0  0  0  0  0  0  0  0  0  0  0
   63.6383   30.5619   49.1932 H   0  0  0  0  0  0  0  0  0  0  0  0
   63.0911   31.2049   50.7877 H   0  0  0  0  0  0  0  0  0  0  0  0
   62.0762   30.0512   47.4631 H   0  0  0  0  0  0  0  0  0  0  0  0
   59.6957   29.7075   46.7961 H   0  0  0  0  0  0  0  0  0  0  0  0
   57.8526   30.5819   48.2357 H   0  0  0  0  0  0  0  0  0  0  0  0
   58.3882   31.7985   50.3489 H   0  0  0  0  0  0  0  0  0  0  0  0
   60.7650   32.1527   51.0210 H   0  0  0  0  0  0  0  0  0  0  0  0
   61.7496   33.4482   45.4509 H   0  0  0  0  0  0  0  0  0  0  0  0
   58.2930   35.3877   45.9622 H   0  0  0  0  0  0  0  0  0  0  0  0
   59.6292   35.4970   44.7572 H   0  0  0  0  0  0  0  0  0  0  0  0
   58.8800   33.5180   43.8390 H   0  0  0  0  0  0  0  0  0  0  0  0
   57.0046   32.2963   42.9533 H   0  0  0  0  0  0  0  0  0  0  0  0
   56.3759   30.1334   41.8870 H   0  0  0  0  0  0  0  0  0  0  0  0
   56.4730   28.0137   43.1942 H   0  0  0  0  0  0  0  0  0  0  0  0
   55.1590   27.0990   45.1550 H   0  0  0  0  0  0  0  0  0  0  0  0
   57.8611   30.2108   46.6552 H   0  0  0  0  0  0  0  0  0  0  0  0
  1  2  1  0
  2  3  1  0
  3  4  1  0
  4  5  2  0
  5  6  1  0
  6  7  2  0
  7  8  1  0
  8  9  2  0
  2 10  1  0
 10 11  2  0
 10 12  1  0
 12 13  1  0
 13 14  2  0
 14 15  1  0
 15 16  1  0
 16 17  1  0
 17 18  2  0
 17 19  1  0
 19 20  2  0
 20 21  1  0
 21 22  2  0
 22 23  1  0
 23 24  1  0
 24 25  1  0
 24 26  2  0
 24 27  2  0
 23 28  2  0
 14 29  1  0
 29 30  1  0
  9  4  1  0
 30 12  2  0
 28 19  1  0
  1 31  1  0
  1 32  1  0
  1 33  1  0
  3 34  1  0
  3 35  1  0
  5 36  1  0
  6 37  1  0
  7 38  1  0
  8 39  1  0
  9 40  1  0
 13 41  1  0
 15 42  1  0
 15 43  1  0
 16 44  1  0
 20 45  1  0
 21 46  1  0
 22 47  1  0
 25 48  1  0
 28 49  1  0
M  CHG  1  25  -1
M  END
>  <UniqueID>  (26) 
22

>  <SMILES>  (26) 
CN(Cc1ccccc1)C(=O)c1cc(CNC(=O)c2cccc(S([NH-])(=O)=O)c2)on1

>  <Energy>  (26) 
80.7537130575373

>  <Genealogy>  (26) 
CN(Cc1ccccc1)C(=O)c1cc(CNC(=O)c2cccc(S([NH-])(=O)=O)c2)on1 (protonated)
CN(Cc1ccccc1)C(=O)c1cc(CNC(=O)c2cccc(S([NH-])(=O)=O)c2)on1 (3D coordinates assigned)
CN(Cc1ccccc1)C(=O)c1cc(CNC(=O)c2cccc(S([NH-])(=O)=O)c2)on1 (optimized conformer: 80.7537130575373 kcal/mol)

>  <smiles>  (26) 
CN(Cc1ccccc1)C(=O)c1cc(CNC(=O)c2cccc(S(N)(=O)=O)c2)on1

>  <score_type>  (26) 
oracle

>  <origin>  (26) 
adg

>  <m_score__min__energy>  (26) 
-11.66

>  <m_primary>  (26) 
energy

$$$$
26:0
     RDKit          3D

 53 55  0  0  0  0  0  0  0  0999 V2000
   59.7980   35.7190   46.0080 C   0  0  0  0  0  0  0  0  0  0  0  0
   58.9440   34.5470   45.6260 C   0  0  0  0  0  0  0  0  0  0  0  0
   58.1560   33.9010   46.5910 C   0  0  0  0  0  0  0  0  0  0  0  0
   57.3740   32.7980   46.2380 C   0  0  0  0  0  0  0  0  0  0  0  0
   57.3710   32.3250   44.9140 C   0  0  0  0  0  0  0  0  0  0  0  0
   56.5620   31.2090   44.5130 N   0  0  0  0  0  0  0  0  0  0  0  0
   56.7120   29.8420   44.9270 C   0  0  0  0  0  0  0  0  0  0  0  0
   55.7150   29.0830   44.8290 O   0  0  0  0  0  0  0  0  0  0  0  0
   57.9720   29.3420   45.5360 C   0  0  0  0  0  0  0  0  0  0  0  0
   58.4890   29.8100   46.7350 C   0  0  0  0  0  0  0  0  0  0  0  0
   59.6760   29.1310   46.9320 C   0  0  0  0  0  0  0  0  0  0  0  0
   60.5920   29.2780   48.0270 N   0  0  0  0  0  0  0  0  0  0  0  0
   61.3000   30.4950   48.3250 C   0  0  0  0  0  0  0  0  0  0  0  0
   61.2740   31.4580   47.5110 O   0  0  0  0  0  0  0  0  0  0  0  0
   62.0940   30.6140   49.5680 C   0  0  0  0  0  0  0  0  0  0  0  0
   62.9070   31.7350   49.8030 C   0  0  0  0  0  0  0  0  0  0  0  0
   63.6440   31.8140   50.9880 C   0  0  0  0  0  0  0  0  0  0  0  0
   63.5670   30.7830   51.9250 C   0  0  0  0  0  0  0  0  0  0  0  0
   62.7500   29.6840   51.6630 C   0  0  0  0  0  0  0  0  0  0  0  0
   62.0390   29.6250   50.5050 N   0  0  0  0  0  0  0  0  0  0  0  0
   59.8230   28.2470   45.8890 C   0  0  0  0  0  0  0  0  0  0  0  0
   58.7830   28.3680   45.0370 N   0  0  0  0  0  0  0  0  0  0  0  0
   58.6630   27.5910   43.7960 C   0  0  0  0  0  0  0  0  0  0  0  0
   57.7510   26.3720   43.9890 C   0  0  0  0  0  0  0  0  0  0  0  0
   58.1640   25.5180   45.1990 C   0  0  0  0  0  0  0  0  0  0  0  0
   57.3630   25.8770   46.4590 C   0  0  0  0  0  0  0  0  0  0  0  0
   55.8870   25.7140   46.2430 C   0  0  0  0  0  0  0  0  0  0  0  0
   55.1750   26.7110   45.9480 O   0  0  0  0  0  0  0  0  0  0  0  0
   55.2920   24.4710   46.4100 O   0  0  0  0  0  0  0  0  0  0  0  0
   58.1970   32.9390   43.9650 C   0  0  0  0  0  0  0  0  0  0  0  0
   58.9810   34.0430   44.3170 C   0  0  0  0  0  0  0  0  0  0  0  0
   59.8512   35.7921   47.1043 H   0  0  0  0  0  0  0  0  0  0  0  0
   60.8105   35.5834   45.6000 H   0  0  0  0  0  0  0  0  0  0  0  0
   59.3587   36.6412   45.6000 H   0  0  0  0  0  0  0  0  0  0  0  0
   58.1539   34.2643   47.6293 H   0  0  0  0  0  0  0  0  0  0  0  0
   56.7579   32.2975   46.9995 H   0  0  0  0  0  0  0  0  0  0  0  0
   58.0438   30.5686   47.3956 H   0  0  0  0  0  0  0  0  0  0  0  0
   60.8050   28.4230   48.5870 H   0  0  0  0  0  0  0  0  0  0  0  0
   62.9633   32.5444   49.0603 H   0  0  0  0  0  0  0  0  0  0  0  0
   64.2837   32.6876   51.1816 H   0  0  0  0  0  0  0  0  0  0  0  0
   64.1443   30.8367   52.8598 H   0  0  0  0  0  0  0  0  0  0  0  0
   62.6804   28.8642   52.3932 H   0  0  0  0  0  0  0  0  0  0  0  0
   60.6622   27.5463   45.7672 H   0  0  0  0  0  0  0  0  0  0  0  0
   58.2406   28.2340   43.0098 H   0  0  0  0  0  0  0  0  0  0  0  0
   59.6638   27.2348   43.5105 H   0  0  0  0  0  0  0  0  0  0  0  0
   56.7193   26.7227   44.1396 H   0  0  0  0  0  0  0  0  0  0  0  0
   57.8354   25.7437   43.0900 H   0  0  0  0  0  0  0  0  0  0  0  0
   57.9932   24.4580   44.9600 H   0  0  0  0  0  0  0  0  0  0  0  0
   59.2265   25.7140   45.4055 H   0  0  0  0  0  0  0  0  0  0  0  0
   57.6779   25.2180   47.2815 H   0  0  0  0  0  0  0  0  0  0  0  0
   57.5598   26.9317   46.7018 H   0  0  0  0  0  0  0  0  0  0  0  0
   58.2298   32.5510   42.9362 H   0  0  0  0  0  0  0  0  0  0  0  0
   59.6286   34.5175   43.5650 H   0  0  0  0  0  0  0  0  0  0  0  0
  1  2  1  0
  2  3  2  0
  3  4  1  0
  4  5  2  0
  5  6  1  0
  6  7  1  0
  7  8  2  0
  7  9  1  0
  9 10  2  0
 10 11  1  0
 11 12  1  0
 12 13  1  0
 13 14  2  0
 13 15  1  0
 15 16  2  0
 16 17  1  0
 17 18  2  0
 18 19  1  0
 19 20  2  0
 11 21  2  0
 21 22  1  0
 22 23  1  0
 23 24  1  0
 24 25  1  0
 25 26  1  0
 26 27  1  0
 27 28  2  0
 27 29  1  0
  5 30  1  0
 30 31  2  0
 31  2  1  0
 22  9  1  0
 20 15  1  0
  1 32  1  0
  1 33  1  0
  1 34  1  0
  3 35  1  0
  4 36  1  0
 10 37  1  0
 12 38  1  0
 16 39  1  0
 17 40  1  0
 18 41  1  0
 19 42  1  0
 21 43  1  0
 23 44  1  0
 23 45  1  0
 24 46  1  0
 24 47  1  0
 25 48  1  0
 25 49  1  0
 26 50  1  0
 26 51  1  0
 30 52  1  0
 31 53  1  0
M  CHG  2   6  -1  29  -1
M  END
>  <UniqueID>  (27) 
23

>  <SMILES>  (27) 
Cc1ccc([N-]C(=O)c2cc(NC(=O)c3ccccn3)cn2CCCCC(=O)[O-])cc1

>  <Energy>  (27) 
83.41317486311348

>  <Genealogy>  (27) 
Cc1ccc([N-]C(=O)c2cc(NC(=O)c3ccccn3)cn2CCCCC(=O)[O-])cc1 (protonated)
Cc1ccc([N-]C(=O)c2cc(NC(=O)c3ccccn3)cn2CCCCC(=O)[O-])cc1 (3D coordinates assigned)
Cc1ccc([N-]C(=O)c2cc(NC(=O)c3ccccn3)cn2CCCCC(=O)[O-])cc1 (optimized conformer: 83.41317486311348 kcal/mol)

>  <smiles>  (27) 
Cc1ccc(NC(=O)c2cc(NC(=O)c3ccccn3)cn2CCCCC(=O)O)cc1

>  <score_type>  (27) 
oracle

>  <origin>  (27) 
adg

>  <m_score__min__energy>  (27) 
-13.220000000000001

>  <m_primary>  (27) 
energy

$$$$
27:0
     RDKit          3D

 57 59  0  0  0  0  0  0  0  0999 V2000
   63.8080   33.5760   47.5520 C   0  0  0  0  0  0  0  0  0  0  0  0
   62.6540   32.8910   46.8390 C   0  0  0  0  0  0  0  0  0  0  0  0
   62.6720   31.4990   47.1380 O   0  0  0  0  0  0  0  0  0  0  0  0
   61.8120   30.8690   48.0510 C   0  0  0  0  0  0  0  0  0  0  0  0
   60.7120   30.0990   47.6310 C   0  0  0  0  0  0  0  0  0  0  0  0
   59.8600   29.5150   48.5700 C   0  0  0  0  0  0  0  0  0  0  0  0
   60.0810   29.7080   49.9390 C   0  0  0  0  0  0  0  0  0  0  0  0
   59.2150   29.1250   50.9180 N   0  0  0  0  0  0  0  0  0  0  0  0
   58.2820   29.8430   51.7380 C   0  0  0  0  0  0  0  0  0  0  0  0
   57.0570   29.5570   51.6560 O   0  0  0  0  0  0  0  0  0  0  0  0
   58.7280   30.8670   52.7480 C   0  0  0  0  0  0  0  0  0  0  0  0
   59.3880   31.9940   52.0850 N   0  0  0  0  0  0  0  0  0  0  0  0
   60.6420   32.4350   52.3080 C   0  0  0  0  0  0  0  0  0  0  0  0
   60.8890   33.4720   51.4310 C   0  0  0  0  0  0  0  0  0  0  0  0
   62.0940   34.1610   51.3250 O   0  0  0  0  0  0  0  0  0  0  0  0
   59.7910   33.6980   50.6770 N   0  0  0  0  0  0  0  0  0  0  0  0
   59.6520   34.5960   49.5300 C   0  0  0  0  0  0  0  0  0  0  0  0
   60.3100   33.9690   48.2970 C   0  0  0  0  0  0  0  0  0  0  0  0
   59.3670   33.9570   47.1270 C   0  0  0  0  0  0  0  0  0  0  0  0
   58.1700   33.2230   47.1940 C   0  0  0  0  0  0  0  0  0  0  0  0
   57.2800   33.2310   46.1160 C   0  0  0  0  0  0  0  0  0  0  0  0
   57.5750   33.9740   44.9690 C   0  0  0  0  0  0  0  0  0  0  0  0
   58.7570   34.7150   44.9020 C   0  0  0  0  0  0  0  0  0  0  0  0
   59.6500   34.7130   45.9780 C   0  0  0  0  0  0  0  0  0  0  0  0
   58.9020   32.7720   51.0940 C   0  0  0  0  0  0  0  0  0  0  0  0
   57.7510   32.6370   50.5950 O   0  0  0  0  0  0  0  0  0  0  0  0
   61.2000   30.4350   50.3630 C   0  0  0  0  0  0  0  0  0  0  0  0
   62.0660   31.0280   49.4230 C   0  0  0  0  0  0  0  0  0  0  0  0
   63.1740   31.8060   49.8020 O   0  0  0  0  0  0  0  0  0  0  0  0
   64.2850   31.3560   50.5790 C   0  0  0  0  0  0  0  0  0  0  0  0
   65.5250   32.1930   50.2860 C   0  0  0  0  0  0  0  0  0  0  0  0
   63.6680   33.4929   48.6399 H   0  0  0  0  0  0  0  0  0  0  0  0
   64.7541   33.0931   47.2661 H   0  0  0  0  0  0  0  0  0  0  0  0
   63.8372   34.6378   47.2661 H   0  0  0  0  0  0  0  0  0  0  0  0
   61.7027   33.3268   47.1781 H   0  0  0  0  0  0  0  0  0  0  0  0
   62.7561   33.0347   45.7532 H   0  0  0  0  0  0  0  0  0  0  0  0
   60.5223   29.9564   46.5569 H   0  0  0  0  0  0  0  0  0  0  0  0
   59.0118   28.9009   48.2331 H   0  0  0  0  0  0  0  0  0  0  0  0
   57.8509   31.2359   53.2998 H   0  0  0  0  0  0  0  0  0  0  0  0
   59.4423   30.3951   53.4387 H   0  0  0  0  0  0  0  0  0  0  0  0
   61.3442   32.0388   53.0563 H   0  0  0  0  0  0  0  0  0  0  0  0
   62.8910   33.7640   50.8440 H   0  0  0  0  0  0  0  0  0  0  0  0
   58.5844   34.7666   49.3271 H   0  0  0  0  0  0  0  0  0  0  0  0
   60.1440   35.5534   49.7567 H   0  0  0  0  0  0  0  0  0  0  0  0
   61.2042   34.5520   48.0316 H   0  0  0  0  0  0  0  0  0  0  0  0
   60.5822   32.9305   48.5367 H   0  0  0  0  0  0  0  0  0  0  0  0
   57.9331   32.6410   48.0968 H   0  0  0  0  0  0  0  0  0  0  0  0
   56.3463   32.6519   46.1703 H   0  0  0  0  0  0  0  0  0  0  0  0
   56.8763   33.9750   44.1194 H   0  0  0  0  0  0  0  0  0  0  0  0
   58.9861   35.3018   44.0002 H   0  0  0  0  0  0  0  0  0  0  0  0
   60.5758   35.3047   45.9243 H   0  0  0  0  0  0  0  0  0  0  0  0
   61.4046   30.5440   51.4383 H   0  0  0  0  0  0  0  0  0  0  0  0
   64.0363   31.4415   51.6471 H   0  0  0  0  0  0  0  0  0  0  0  0
   64.4968   30.3087   50.3178 H   0  0  0  0  0  0  0  0  0  0  0  0
   65.9885   32.5058   51.2333 H   0  0  0  0  0  0  0  0  0  0  0  0
   66.2431   31.5941   49.7066 H   0  0  0  0  0  0  0  0  0  0  0  0
   65.2382   33.0830   49.7066 H   0  0  0  0  0  0  0  0  0  0  0  0
  1  2  1  0
  2  3  1  0
  3  4  1  0
  4  5  2  0
  5  6  1  0
  6  7  2  0
  7  8  1  0
  8  9  1  0
  9 10  2  0
  9 11  1  0
 11 12  1  0
 12 13  1  0
 13 14  2  0
 14 15  1  0
 14 16  1  0
 16 17  1  0
 17 18  1  0
 18 19  1  0
 19 20  2  0
 20 21  1  0
 21 22  2  0
 22 23  1  0
 23 24  2  0
 16 25  1  0
 25 26  2  0
  7 27  1  0
 27 28  2  0
 28 29  1  0
 29 30  1  0
 30 31  1  0
 28  4  1  0
 25 12  1  0
 24 19  1  0
  1 32  1  0
  1 33  1  0
  1 34  1  0
  2 35  1  0
  2 36  1  0
  5 37  1  0
  6 38  1  0
 11 39  1  0
 11 40  1  0
 13 41  1  0
 15 42  1  0
 17 43  1  0
 17 44  1  0
 18 45  1  0
 18 46  1  0
 20 47  1  0
 21 48  1  0
 22 49  1  0
 23 50  1  0
 24 51  1  0
 27 52  1  0
 30 53  1  0
 30 54  1  0
 31 55  1  0
 31 56  1  0
 31 57  1  0
M  CHG  1   8  -1
M  END
>  <UniqueID>  (28) 
24

>  <SMILES>  (28) 
CCOc1ccc([N-]C(=O)Cn2cc(O)n(CCc3ccccc3)c2=O)cc1OCC

>  <Energy>  (28) 
82.32666879723072

>  <Genealogy>  (28) 
CCOc1ccc([N-]C(=O)Cn2cc(O)n(CCc3ccccc3)c2=O)cc1OCC (protonated)
CCOc1ccc([N-]C(=O)Cn2cc(O)n(CCc3ccccc3)c2=O)cc1OCC (3D coordinates assigned)
CCOc1ccc([N-]C(=O)Cn2cc(O)n(CCc3ccccc3)c2=O)cc1OCC (optimized conformer: 82.32666879723072 kcal/mol)

>  <smiles>  (28) 
CCOc1ccc(NC(=O)Cn2cc(O)n(CCc3ccccc3)c2=O)cc1OCC

>  <score_type>  (28) 
oracle

>  <origin>  (28) 
adg

>  <m_score__min__energy>  (28) 
-9.1500000000000004

>  <m_primary>  (28) 
energy

$$$$
28:0
     RDKit          3D

 49 51  0  0  0  0  0  0  0  0999 V2000
   58.2771   34.1172   43.2809 H   0  0  0  0  0  0  0  0  0  0  0  0
   57.9670   33.2720   43.9130 C   0  0  0  0  0  0  0  0  0  0  0  0
   58.0790   31.9040   43.3770 C   0  0  0  0  0  0  0  0  0  0  0  0
   57.8340   31.7080   42.1570 O   0  0  0  0  0  0  0  0  0  0  0  0
   58.5140   30.8230   44.2140 N   0  0  0  0  0  0  0  0  0  0  0  0
   57.7030   29.7500   44.7190 C   0  0  0  0  0  0  0  0  0  0  0  0
   58.2620   28.5600   45.2080 C   0  0  0  0  0  0  0  0  0  0  0  0
   59.3546   28.4325   45.2136 H   0  0  0  0  0  0  0  0  0  0  0  0
   57.4390   27.5310   45.6900 C   0  0  0  0  0  0  0  0  0  0  0  0
   58.0730   26.2960   46.2020 C   0  0  0  0  0  0  0  0  0  0  0  0
   59.1143   26.0819   45.9195 H   0  0  0  0  0  0  0  0  0  0  0  0
   57.4310   25.4270   46.9960 C   0  0  0  0  0  0  0  0  0  0  0  0
   57.4190   25.6254   48.0779 H   0  0  0  0  0  0  0  0  0  0  0  0
   56.7350   24.2120   46.5000 C   0  0  0  0  0  0  0  0  0  0  0  0
   56.9860   23.6630   45.2290 C   0  0  0  0  0  0  0  0  0  0  0  0
   57.7149   24.1435   44.5598 H   0  0  0  0  0  0  0  0  0  0  0  0
   56.3140   22.5100   44.8120 C   0  0  0  0  0  0  0  0  0  0  0  0
   56.6820   21.7890   43.0780 Br  0  0  0  0  0  0  0  0  0  0  0  0
   55.3910   21.8890   45.6600 C   0  0  0  0  0  0  0  0  0  0  0  0
   54.7230   20.7420   45.2400 O   0  0  0  0  0  0  0  0  0  0  0  0
   55.1350   22.4120   46.9330 C   0  0  0  0  0  0  0  0  0  0  0  0
   54.2020   21.7480   47.7490 O   0  0  0  0  0  0  0  0  0  0  0  0
   52.8240   22.0930   47.8940 C   0  0  0  0  0  0  0  0  0  0  0  0
   52.7338   22.9284   48.6039 H   0  0  0  0  0  0  0  0  0  0  0  0
   52.2770   21.2144   48.2667 H   0  0  0  0  0  0  0  0  0  0  0  0
   52.2280   22.5090   46.5530 C   0  0  0  0  0  0  0  0  0  0  0  0
   51.3371   23.1309   46.7248 H   0  0  0  0  0  0  0  0  0  0  0  0
   52.9726   23.0846   45.9835 H   0  0  0  0  0  0  0  0  0  0  0  0
   51.9445   21.6116   45.9835 H   0  0  0  0  0  0  0  0  0  0  0  0
   55.8190   23.5710   47.3510 C   0  0  0  0  0  0  0  0  0  0  0  0
   55.6335   23.9788   48.3557 H   0  0  0  0  0  0  0  0  0  0  0  0
   56.0420   27.6950   45.6080 C   0  0  0  0  0  0  0  0  0  0  0  0
   55.1740   26.6810   45.9960 O   0  0  0  0  0  0  0  0  0  0  0  0
   55.5220   28.8480   45.1090 N   0  0  0  0  0  0  0  0  0  0  0  0
   56.3070   29.8650   44.6690 C   0  0  0  0  0  0  0  0  0  0  0  0
   55.7700   30.9100   44.2140 O   0  0  0  0  0  0  0  0  0  0  0  0
   57.5000   33.5220   45.1450 C   0  0  0  0  0  0  0  0  0  0  0  0
   56.4243   33.7195   45.2625 H   0  0  0  0  0  0  0  0  0  0  0  0
   58.3540   33.5470   46.3590 C   0  0  0  0  0  0  0  0  0  0  0  0
   58.0640   32.7800   47.5070 C   0  0  0  0  0  0  0  0  0  0  0  0
   57.1811   32.1240   47.5187 H   0  0  0  0  0  0  0  0  0  0  0  0
   58.8940   32.8500   48.6300 C   0  0  0  0  0  0  0  0  0  0  0  0
   58.6654   32.2435   49.5187 H   0  0  0  0  0  0  0  0  0  0  0  0
   60.0110   33.6860   48.6280 C   0  0  0  0  0  0  0  0  0  0  0  0
   60.6650   33.7329   49.5112 H   0  0  0  0  0  0  0  0  0  0  0  0
   60.2980   34.4630   47.5040 C   0  0  0  0  0  0  0  0  0  0  0  0
   61.1752   35.1267   47.5048 H   0  0  0  0  0  0  0  0  0  0  0  0
   59.4720   34.3990   46.3770 C   0  0  0  0  0  0  0  0  0  0  0  0
   59.6990   35.0201   45.4980 H   0  0  0  0  0  0  0  0  0  0  0  0
  1  2  1  0
  2  3  1  0
  3  4  2  0
  3  5  1  0
  5  6  1  0
  6  7  2  0
  7  8  1  0
  7  9  1  0
  9 10  1  0
 10 11  1  0
 10 12  2  0
 12 13  1  0
 12 14  1  0
 14 15  2  0
 15 16  1  0
 15 17  1  0
 17 18  1  0
 17 19  2  0
 19 20  1  0
 19 21  1  0
 21 22  1  0
 22 23  1  0
 23 24  1  0
 23 25  1  0
 23 26  1  0
 26 27  1  0
 26 28  1  0
 26 29  1  0
 21 30  2  0
 30 31  1  0
  9 32  2  0
 32 33  1  0
 32 34  1  0
 34 35  1  0
 35 36  2  0
  2 37  2  3
 37 38  1  0
 37 39  1  0
 39 40  2  0
 40 41  1  0
 40 42  1  0
 42 43  1  0
 42 44  2  0
 44 45  1  0
 44 46  1  0
 46 47  1  0
 46 48  2  0
 48 49  1  0
 35  6  1  0
 48 39  1  0
 30 14  1  0
M  CHG  4   5  -1  20  -1  33  -1  34  -1
M  END
>  <UniqueID>  (29) 
25

>  <SMILES>  (29) 
CCOc1cc(/C=C/c2cc([N-]C(=O)C=Cc3ccccc3)c(=O)[n-]c2[O-])cc(Br)c1[O-]

>  <Energy>  (29) 
63.677205385706365

>  <Genealogy>  (29) 
CCOc1cc(C=Cc2cc([N-]C(=O)C=Cc3ccccc3)c(=O)[n-]c2[O-])cc(Br)c1[O-] (protonated)
CCOc1cc(/C=C/c2cc([N-]C(=O)C=Cc3ccccc3)c(=O)[n-]c2[O-])cc(Br)c1[O-] (cis-trans isomerization)
CCOc1cc(/C=C/c2cc([N-]C(=O)C=Cc3ccccc3)c(=O)[n-]c2[O-])cc(Br)c1[O-] (3D coordinates assigned)
CCOc1cc(/C=C/c2cc([N-]C(=O)C=Cc3ccccc3)c(=O)[n-]c2[O-])cc(Br)c1[O-] (optimized conformer: 63.677205385706365 kcal/mol)

>  <smiles>  (29) 
CCOc1cc(C=Cc2cc(NC(=O)C=Cc3ccccc3)c(=O)[nH]c2O)cc(Br)c1O

>  <score_type>  (29) 
oracle

>  <origin>  (29) 
adg

>  <m_score__min__energy>  (29) 
-17.309999999999999

>  <m_primary>  (29) 
energy

$$$$
29:0
     RDKit          3D

 39 40  0  0  0  0  0  0  0  0999 V2000
   54.7510   26.7160   47.1230 H   0  0  0  0  0  0  0  0  0  0  0  0
   55.0550   26.4210   46.2030 O   0  0  0  0  0  0  0  0  0  0  0  0
   55.5200   25.1300   45.9470 C   0  0  0  0  0  0  0  0  0  0  0  0
   54.8400   24.3340   45.0210 C   0  0  0  0  0  0  0  0  0  0  0  0
   53.9520   24.7282   44.5052 H   0  0  0  0  0  0  0  0  0  0  0  0
   55.2860   23.0400   44.7500 C   0  0  0  0  0  0  0  0  0  0  0  0
   54.7523   22.4084   44.0246 H   0  0  0  0  0  0  0  0  0  0  0  0
   56.4160   22.5560   45.4090 C   0  0  0  0  0  0  0  0  0  0  0  0
   56.7787   21.5380   45.2035 H   0  0  0  0  0  0  0  0  0  0  0  0
   57.0690   23.3420   46.3050 N   0  0  0  0  0  0  0  0  0  0  0  0
   56.6520   24.6060   46.6010 C   0  0  0  0  0  0  0  0  0  0  0  0
   57.1970   30.6960   44.9880 N   0  0  0  0  0  0  0  0  0  0  0  0
   58.1860   26.4460   47.1550 C   0  0  0  0  0  0  0  0  0  0  0  0
   59.1400   26.8160   48.1110 C   0  0  0  0  0  0  0  0  0  0  0  0
   59.1571   26.3123   49.0887 H   0  0  0  0  0  0  0  0  0  0  0  0
   60.0700   27.8200   47.8320 C   0  0  0  0  0  0  0  0  0  0  0  0
   60.8005   28.1193   48.5980 H   0  0  0  0  0  0  0  0  0  0  0  0
   60.0750   28.4450   46.5830 C   0  0  0  0  0  0  0  0  0  0  0  0
   60.8130   29.2314   46.3664 H   0  0  0  0  0  0  0  0  0  0  0  0
   59.1420   28.0730   45.6040 C   0  0  0  0  0  0  0  0  0  0  0  0
   59.2060   28.6820   44.2300 C   0  0  0  0  0  0  0  0  0  0  0  0
   59.9528   28.1416   43.6298 H   0  0  0  0  0  0  0  0  0  0  0  0
   59.4872   29.7412   44.3250 H   0  0  0  0  0  0  0  0  0  0  0  0
   57.5790   28.5770   43.4010 S   0  0  0  0  0  0  0  0  0  0  0  0
   56.7120   29.5390   44.6430 C   0  0  0  0  0  0  0  0  0  0  0  0
   57.3080   25.3460   47.4500 N   0  0  0  0  0  0  0  0  0  0  0  0
   57.6170   31.7430   44.0630 C   0  0  0  0  0  0  0  0  0  0  0  0
   58.6390   31.5348   43.7136 H   0  0  0  0  0  0  0  0  0  0  0  0
   56.9322   31.7673   43.2025 H   0  0  0  0  0  0  0  0  0  0  0  0
   57.5880   33.0910   44.7720 C   0  0  0  0  0  0  0  0  0  0  0  0
   58.6175   33.4189   44.9782 H   0  0  0  0  0  0  0  0  0  0  0  0
   57.0885   33.8318   44.1303 H   0  0  0  0  0  0  0  0  0  0  0  0
   56.8870   32.9700   45.9770 O   0  0  0  0  0  0  0  0  0  0  0  0
   56.6140   32.0180   46.0430 H   0  0  0  0  0  0  0  0  0  0  0  0
   55.4990   29.0250   45.2050 N   0  0  0  0  0  0  0  0  0  0  0  0
   54.9610   29.5390   45.9360 H   0  0  0  0  0  0  0  0  0  0  0  0
   55.1330   28.1010   44.8870 H   0  0  0  0  0  0  0  0  0  0  0  0
   58.2000   27.0710   45.8940 C   0  0  0  0  0  0  0  0  0  0  0  0
   57.4677   26.7728   45.1292 H   0  0  0  0  0  0  0  0  0  0  0  0
  1  2  1  0
  2  3  1  0
  3  4  2  0
  4  5  1  0
  4  6  1  0
  6  7  1  0
  6  8  2  0
  8  9  1  0
  8 10  1  0
 10 11  1  0
 11 12  2  0
 12 13  1  0
 13 14  2  0
 14 15  1  0
 14 16  1  0
 16 17  1  0
 16 18  2  0
 18 19  1  0
 18 20  1  0
 20 21  1  0
 21 22  1  0
 21 23  1  0
 21 24  1  0
 24 25  1  0
 25 26  2  0
 26 27  1  0
 27 28  1  0
 27 29  1  0
 27 30  1  0
 30 31  1  0
 30 32  1  0
 30 33  1  0
 33 34  1  0
 25 35  1  0
 35 36  1  0
 35 37  1  0
 20 38  2  0
 38 39  1  0
 11  3  1  0
 38 13  1  0
M  CHG  1  10  -1
M  END
>  <UniqueID>  (30) 
26

>  <SMILES>  (30) 
N/C(=N\CCO)SCc1cccc(/N=c2\[n-]cccc2O)c1

>  <Energy>  (30) 
35.03310055795392

>  <Genealogy>  (30) 
NC(=NCCO)SCc1cccc(N=c2[n-]cccc2O)c1 (protonated)
N/C(=N\CCO)SCc1cccc(/N=c2\[n-]cccc2O)c1 (cis-trans isomerization)
N/C(=N\CCO)SCc1cccc(/N=c2\[n-]cccc2O)c1 (3D coordinates assigned)
N/C(=N\CCO)SCc1cccc(/N=c2\[n-]cccc2O)c1 (optimized conformer: 35.03310055795392 kcal/mol)

>  <smiles>  (30) 
NC(=NCCO)SCc1cccc(N=c2[nH]cccc2O)c1

>  <score_type>  (30) 
oracle

>  <origin>  (30) 
adg

>  <m_score__min__energy>  (30) 
-8.9800000000000004

>  <m_primary>  (30) 
energy

$$$$
30:0
     RDKit          3D

 56 59  0  0  1  0  0  0  0  0999 V2000
   65.6850   33.3010   50.3800 C   0  0  0  0  0  0  0  0  0  0  0  0
   65.0740   32.5410   49.3760 O   0  0  0  0  0  0  0  0  0  0  0  0
   64.0010   32.9780   48.6200 C   0  0  0  0  0  0  0  0  0  0  0  0
   64.1300   33.3210   47.3010 C   0  0  0  0  0  0  0  0  0  0  0  0
   63.1220   33.7580   46.4940 C   0  0  0  0  0  0  0  0  0  0  0  0
   61.8540   33.8550   47.0990 C   0  0  0  0  0  0  0  0  0  0  0  0
   61.7140   33.5160   48.4150 C   0  0  0  0  0  0  0  0  0  0  0  0
   60.4890   33.6030   49.0240 C   0  0  0  0  0  0  0  0  0  0  0  0
   59.4740   33.9580   48.4530 N   0  0  0  0  0  0  0  0  0  0  0  0
   58.8800   33.6280   47.2810 C   0  0  0  0  0  0  0  0  0  0  0  0
   58.6080   34.6000   46.2910 C   0  0  0  0  0  0  0  0  0  0  0  0
   58.1040   34.2160   45.0750 C   0  0  0  0  0  0  0  0  0  0  0  0
   57.8700   32.8780   44.8390 C   0  0  0  0  0  0  0  0  0  0  0  0
   58.1120   31.8960   45.7580 C   0  0  0  0  0  0  0  0  0  0  0  0
   57.7740   30.0470   45.3980 Br  0  0  0  0  0  0  0  0  0  0  0  0
   58.6200   32.2660   46.9850 C   0  0  0  0  0  0  0  0  0  0  0  0
   58.9130   31.2880   48.0100 N   0  0  0  0  0  0  0  0  0  0  0  0
   60.1160   30.5400   47.7810 C   0  0  0  0  0  0  0  0  0  0  0  0
   60.7370   30.8340   46.7370 O   0  0  0  0  0  0  0  0  0  0  0  0
   60.4990   29.5390   48.7490 C   0  0  0  0  0  0  0  0  0  0  0  0
   60.1590   29.5260   50.0180 C   0  0  0  0  0  0  0  0  0  0  0  0
   58.8330   29.7970   50.5640 C   0  0  0  0  0  0  0  0  0  0  0  0
   58.7440   31.2020   51.0160 N   0  0  0  0  0  0  0  0  0  0  0  0
   59.1320   31.2420   52.3980 C   0  0  0  0  0  0  0  0  0  0  0  0
   58.7130   32.5270   53.0400 C   0  0  0  0  0  0  0  0  0  0  0  0
   57.3420   32.6070   53.1180 O   0  0  0  0  0  0  0  0  0  0  0  0
   56.6650   31.8840   52.1700 C   0  0  0  0  0  0  0  0  0  0  0  0
   57.3990   31.6880   50.8790 C   0  0  0  0  0  0  0  0  0  0  0  0
   60.4060   33.2510   50.3450 N   0  0  0  0  0  0  0  0  0  0  0  0
   61.4470   32.8340   51.0600 C   0  0  0  0  0  0  0  0  0  0  0  0
   62.6540   32.7400   50.4860 N   0  0  0  0  0  0  0  0  0  0  0  0
   62.7560   33.0810   49.1880 C   0  0  0  0  0  0  0  0  0  0  0  0
   65.3789   32.9203   51.3656 H   0  0  0  0  0  0  0  0  0  0  0  0
   66.7781   33.2273   50.2817 H   0  0  0  0  0  0  0  0  0  0  0  0
   65.3781   34.3528   50.2817 H   0  0  0  0  0  0  0  0  0  0  0  0
   65.1318   33.2369   46.8546 H   0  0  0  0  0  0  0  0  0  0  0  0
   63.2883   34.0181   45.4382 H   0  0  0  0  0  0  0  0  0  0  0  0
   60.9858   34.2000   46.5183 H   0  0  0  0  0  0  0  0  0  0  0  0
   58.8005   35.6634   46.4961 H   0  0  0  0  0  0  0  0  0  0  0  0
   57.8894   34.9651   44.2986 H   0  0  0  0  0  0  0  0  0  0  0  0
   57.4669   32.5852   43.8583 H   0  0  0  0  0  0  0  0  0  0  0  0
   58.3010   31.1460   48.8330 H   0  0  0  0  0  0  0  0  0  0  0  0
   61.1321   28.7134   48.3918 H   0  0  0  0  0  0  0  0  0  0  0  0
   60.9529   29.2870   50.7410 H   0  0  0  0  0  0  0  0  0  0  0  0
   58.0761   29.6169   49.7864 H   0  0  0  0  0  0  0  0  0  0  0  0
   58.6555   29.1321   51.4221 H   0  0  0  0  0  0  0  0  0  0  0  0
   58.6566   30.4039   52.9287 H   0  0  0  0  0  0  0  0  0  0  0  0
   60.2278   31.1650   52.4548 H   0  0  0  0  0  0  0  0  0  0  0  0
   59.1360   32.5788   54.0541 H   0  0  0  0  0  0  0  0  0  0  0  0
   59.0820   33.3643   52.4294 H   0  0  0  0  0  0  0  0  0  0  0  0
   56.4442   30.8920   52.5909 H   0  0  0  0  0  0  0  0  0  0  0  0
   55.7638   32.4656   51.9258 H   0  0  0  0  0  0  0  0  0  0  0  0
   56.8347   30.9653   50.2713 H   0  0  0  0  0  0  0  0  0  0  0  0
   57.4758   32.6818   50.4137 H   0  0  0  0  0  0  0  0  0  0  0  0
   59.4850   33.3050   50.8460 H   0  0  0  0  0  0  0  0  0  0  0  0
   61.3175   32.5671   52.1192 H   0  0  0  0  0  0  0  0  0  0  0  0
  1  2  1  0
  2  3  1  0
  3  4  2  0
  4  5  1  0
  5  6  2  0
  6  7  1  0
  7  8  1  0
  8  9  2  0
  9 10  1  0
 10 11  2  0
 11 12  1  0
 12 13  2  0
 13 14  1  0
 14 15  1  0
 14 16  2  0
 16 17  1  0
 17 18  1  0
 18 19  2  0
 18 20  1  0
 20 21  2  0
 21 22  1  0
 22 23  1  0
 23 24  1  0
 24 25  1  0
 25 26  1  0
 26 27  1  0
 27 28  1  0
  8 29  1  0
 29 30  1  0
 30 31  2  0
 31 32  1  0
 32  3  1  0
 32  7  2  0
 16 10  1  0
 28 23  1  0
  1 33  1  0
  1 34  1  0
  1 35  1  0
  4 36  1  0
  5 37  1  0
  6 38  1  0
 11 39  1  0
 12 40  1  0
 13 41  1  0
 17 42  1  0
 20 43  1  0
 21 44  1  0
 22 45  1  0
 22 46  1  0
 24 47  1  0
 24 48  1  0
 25 49  1  0
 25 50  1  0
 27 51  1  0
 27 52  1  0
 28 53  1  0
 28 54  1  0
 29 55  1  0
 30 56  1  0
M  END
>  <smiles>  (31) 
COc1cccc2c(=Nc3cccc(Br)c3NC(=O)C=CCN3CCOCC3)[nH]cnc12

>  <score_type>  (31) 
oracle

>  <origin>  (31) 
adg

>  <m_score__min__energy>  (31) 
-8.7899999999999991

>  <m_primary>  (31) 
energy

$$$$
31:0
     RDKit          3D

 37 39  0  0  1  0  0  0  0  0999 V2000
   61.2020   28.7020   44.5010 O   0  0  0  0  0  0  0  0  0  0  0  0
   60.0080   28.6270   44.8910 C   0  0  0  0  0  0  0  0  0  0  0  0
   59.2410   29.7290   44.8630 N   0  0  0  0  0  0  0  0  0  0  0  0
   57.9540   29.7210   45.2650 C   0  0  0  0  0  0  0  0  0  0  0  0
   57.1790   30.8600   45.2320 O   0  0  0  0  0  0  0  0  0  0  0  0
   57.7950   32.0940   45.4890 C   0  0  0  0  0  0  0  0  0  0  0  0
   57.9890   33.0350   44.5020 C   0  0  0  0  0  0  0  0  0  0  0  0
   58.6100   34.2250   44.8690 C   0  0  0  0  0  0  0  0  0  0  0  0
   59.0250   34.4820   46.1510 C   0  0  0  0  0  0  0  0  0  0  0  0
   59.6390   35.6850   46.4660 O   0  0  0  0  0  0  0  0  0  0  0  0
   58.8220   33.5290   47.1200 C   0  0  0  0  0  0  0  0  0  0  0  0
   58.2080   32.3300   46.8030 C   0  0  0  0  0  0  0  0  0  0  0  0
   57.4090   28.5370   45.7220 C   0  0  0  0  0  0  0  0  0  0  0  0
   58.2280   27.4340   45.7340 C   0  0  0  0  0  0  0  0  0  0  0  0
   57.7560   26.3300   46.1480 N   0  0  0  0  0  0  0  0  0  0  0  0
   57.7780   25.0980   45.4360 C   0  0  0  0  0  0  0  0  0  0  0  0
   56.9310   24.8190   44.3820 C   0  0  0  0  0  0  0  0  0  0  0  0
   57.0360   23.5850   43.7570 C   0  0  0  0  0  0  0  0  0  0  0  0
   57.9780   22.6440   44.1820 C   0  0  0  0  0  0  0  0  0  0  0  0
   58.0790   21.3960   43.5450 O   0  0  0  0  0  0  0  0  0  0  0  0
   58.8310   22.9380   45.2520 C   0  0  0  0  0  0  0  0  0  0  0  0
   59.7380   21.9600   45.6200 O   0  0  0  0  0  0  0  0  0  0  0  0
   58.7220   24.1590   45.8640 C   0  0  0  0  0  0  0  0  0  0  0  0
   59.5150   27.4550   45.3280 N   0  0  0  0  0  0  0  0  0  0  0  0
   59.6280   30.6160   44.5290 H   0  0  0  0  0  0  0  0  0  0  0  0
   57.6663   32.8533   43.4662 H   0  0  0  0  0  0  0  0  0  0  0  0
   58.7751   34.9923   44.0983 H   0  0  0  0  0  0  0  0  0  0  0  0
   59.2990   36.3560   47.1210 H   0  0  0  0  0  0  0  0  0  0  0  0
   59.1492   33.7201   48.1527 H   0  0  0  0  0  0  0  0  0  0  0  0
   58.0462   31.5682   47.5798 H   0  0  0  0  0  0  0  0  0  0  0  0
   56.3643   28.4797   46.0617 H   0  0  0  0  0  0  0  0  0  0  0  0
   56.1896   25.5586   44.0454 H   0  0  0  0  0  0  0  0  0  0  0  0
   56.3692   23.3440   42.9160 H   0  0  0  0  0  0  0  0  0  0  0  0
   58.6560   20.7090   44.0460 H   0  0  0  0  0  0  0  0  0  0  0  0
   59.7650   21.0200   45.2460 H   0  0  0  0  0  0  0  0  0  0  0  0
   59.3872   24.4045   46.7049 H   0  0  0  0  0  0  0  0  0  0  0  0
   60.1350   26.6230   45.3360 H   0  0  0  0  0  0  0  0  0  0  0  0
  1  2  2  0
  2  3  1  0
  3  4  1  0
  4  5  1  0
  5  6  1  0
  6  7  2  0
  7  8  1  0
  8  9  2  0
  9 10  1  0
  9 11  1  0
 11 12  2  0
  4 13  2  0
 13 14  1  0
 14 15  2  0
 15 16  1  0
 16 17  2  0
 17 18  1  0
 18 19  2  0
 19 20  1  0
 19 21  1  0
 21 22  1  0
 21 23  2  0
 14 24  1  0
 24  2  1  0
 12  6  1  0
 23 16  1  0
  3 25  1  0
  7 26  1  0
  8 27  1  0
 10 28  1  0
 11 29  1  0
 12 30  1  0
 13 31  1  0
 17 32  1  0
 18 33  1  0
 20 34  1  0
 22 35  1  0
 23 36  1  0
 24 37  1  0
M  END
>  <smiles>  (32) 
O=c1[nH]c(Oc2ccc(O)cc2)cc(=Nc2ccc(O)c(O)c2)[nH]1

>  <score_type>  (32) 
oracle

>  <origin>  (32) 
adg

>  <m_score__min__energy>  (32) 
-7.8700000000000001

>  <m_primary>  (32) 
energy

$$$$
32:0
     RDKit          3D

 49 51  0  0  0  0  0  0  0  0999 V2000
   56.3020   23.9480   43.8130 C   0  0  0  0  0  0  0  0  0  0  0  0
   56.8430   24.9620   44.7090 N   0  0  0  0  0  0  0  0  0  0  0  0
   56.0170   25.6650   45.6410 C   0  0  0  0  0  0  0  0  0  0  0  0
   54.7850   25.4070   45.7180 O   0  0  0  0  0  0  0  0  0  0  0  0
   56.6160   26.6900   46.5540 C   0  0  0  0  0  0  0  0  0  0  0  0
   57.2220   27.8040   45.7520 C   0  0  0  0  0  0  0  0  0  0  0  0
   56.5270   28.7950   45.0850 C   0  0  0  0  0  0  0  0  0  0  0  0
   55.1480   28.9680   45.0860 O   0  0  0  0  0  0  0  0  0  0  0  0
   57.3960   29.5960   44.4380 N   0  0  0  0  0  0  0  0  0  0  0  0
   57.0990   30.8450   43.7380 C   0  0  0  0  0  0  0  0  0  0  0  0
   57.6750   32.0050   44.5010 C   0  0  0  0  0  0  0  0  0  0  0  0
   57.7570   31.9610   45.9030 C   0  0  0  0  0  0  0  0  0  0  0  0
   58.3460   33.0170   46.6070 C   0  0  0  0  0  0  0  0  0  0  0  0
   58.8660   34.1150   45.9190 C   0  0  0  0  0  0  0  0  0  0  0  0
   58.8010   34.1590   44.5250 C   0  0  0  0  0  0  0  0  0  0  0  0
   58.2110   33.1080   43.8160 C   0  0  0  0  0  0  0  0  0  0  0  0
   58.6100   29.0850   44.7290 C   0  0  0  0  0  0  0  0  0  0  0  0
   59.6920   29.5890   44.3220 O   0  0  0  0  0  0  0  0  0  0  0  0
   58.5440   27.9860   45.5140 N   0  0  0  0  0  0  0  0  0  0  0  0
   59.6730   27.2560   46.0970 C   0  0  0  0  0  0  0  0  0  0  0  0
   59.9440   27.7380   47.4990 C   0  0  0  0  0  0  0  0  0  0  0  0
   60.5140   26.8790   48.4530 C   0  0  0  0  0  0  0  0  0  0  0  0
   60.7440   27.3270   49.7570 C   0  0  0  0  0  0  0  0  0  0  0  0
   60.4100   28.6330   50.1210 C   0  0  0  0  0  0  0  0  0  0  0  0
   59.8380   29.5040   49.1790 C   0  0  0  0  0  0  0  0  0  0  0  0
   59.5040   30.9180   49.5520 C   0  0  0  0  0  0  0  0  0  0  0  0
   59.6260   29.0580   47.8660 C   0  0  0  0  0  0  0  0  0  0  0  0
   55.8657   23.1303   44.4055 H   0  0  0  0  0  0  0  0  0  0  0  0
   55.5235   24.3969   43.1786 H   0  0  0  0  0  0  0  0  0  0  0  0
   57.1084   23.5514   43.1786 H   0  0  0  0  0  0  0  0  0  0  0  0
   57.8640   25.1820   44.6600 H   0  0  0  0  0  0  0  0  0  0  0  0
   55.8311   27.0978   47.2079 H   0  0  0  0  0  0  0  0  0  0  0  0
   57.4007   26.2159   47.1618 H   0  0  0  0  0  0  0  0  0  0  0  0
   57.5417   30.8138   42.7315 H   0  0  0  0  0  0  0  0  0  0  0  0
   56.0086   30.9672   43.6594 H   0  0  0  0  0  0  0  0  0  0  0  0
   57.3569   31.0938   46.4487 H   0  0  0  0  0  0  0  0  0  0  0  0
   58.3995   32.9821   47.7051 H   0  0  0  0  0  0  0  0  0  0  0  0
   59.3266   34.9449   46.4749 H   0  0  0  0  0  0  0  0  0  0  0  0
   59.2148   35.0223   43.9833 H   0  0  0  0  0  0  0  0  0  0  0  0
   58.1664   33.1451   42.7175 H   0  0  0  0  0  0  0  0  0  0  0  0
   59.4357   26.1822   46.1226 H   0  0  0  0  0  0  0  0  0  0  0  0
   60.5672   27.4314   45.4808 H   0  0  0  0  0  0  0  0  0  0  0  0
   60.7806   25.8492   48.1728 H   0  0  0  0  0  0  0  0  0  0  0  0
   61.1897   26.6482   50.4990 H   0  0  0  0  0  0  0  0  0  0  0  0
   60.5953   28.9807   51.1480 H   0  0  0  0  0  0  0  0  0  0  0  0
   59.4816   31.0127   50.6477 H   0  0  0  0  0  0  0  0  0  0  0  0
   60.2668   31.5956   49.1409 H   0  0  0  0  0  0  0  0  0  0  0  0
   58.5186   31.1827   49.1409 H   0  0  0  0  0  0  0  0  0  0  0  0
   59.2075   29.7465   47.1171 H   0  0  0  0  0  0  0  0  0  0  0  0
  1  2  1  0
  2  3  1  0
  3  4  2  0
  3  5  1  0
  5  6  1  0
  6  7  2  0
  7  8  1  0
  7  9  1  0
  9 10  1  0
 10 11  1  0
 11 12  2  0
 12 13  1  0
 13 14  2  0
 14 15  1  0
 15 16  2  0
  9 17  1  0
 17 18  2  0
 17 19  1  0
 19 20  1  0
 20 21  1  0
 21 22  2  0
 22 23  1  0
 23 24  2  0
 24 25  1  0
 25 26  1  0
 25 27  2  0
 19  6  1  0
 27 21  1  0
 16 11  1  0
  1 28  1  0
  1 29  1  0
  1 30  1  0
  2 31  1  0
  5 32  1  0
  5 33  1  0
 10 34  1  0
 10 35  1  0
 12 36  1  0
 13 37  1  0
 14 38  1  0
 15 39  1  0
 16 40  1  0
 20 41  1  0
 20 42  1  0
 22 43  1  0
 23 44  1  0
 24 45  1  0
 26 46  1  0
 26 47  1  0
 26 48  1  0
 27 49  1  0
M  CHG  1   8  -1
M  END
>  <UniqueID>  (33) 
27

>  <SMILES>  (33) 
CNC(=O)Cc1c([O-])n(Cc2ccccc2)c(=O)n1Cc1cccc(C)c1

>  <Energy>  (33) 
75.63156877144078

>  <Genealogy>  (33) 
CNC(=O)Cc1c([O-])n(Cc2ccccc2)c(=O)n1Cc1cccc(C)c1 (protonated)
CNC(=O)Cc1c([O-])n(Cc2ccccc2)c(=O)n1Cc1cccc(C)c1 (3D coordinates assigned)
CNC(=O)Cc1c([O-])n(Cc2ccccc2)c(=O)n1Cc1cccc(C)c1 (optimized conformer: 75.63156877144078 kcal/mol)

>  <smiles>  (33) 
CNC(=O)Cc1c(O)n(Cc2ccccc2)c(=O)n1Cc1cccc(C)c1

>  <score_type>  (33) 
oracle

>  <origin>  (33) 
adg

>  <m_score__min__energy>  (33) 
-11.41

>  <m_primary>  (33) 
energy

$$$$
33:0
     RDKit          3D

 43 46  0  0  0  0  0  0  0  0999 V2000
   64.4900   32.1910   49.5430 C   0  0  0  0  0  0  0  0  0  0  0  0
   63.6780   31.6030   48.5320 O   0  0  0  0  0  0  0  0  0  0  0  0
   62.6760   32.2840   47.8270 C   0  0  0  0  0  0  0  0  0  0  0  0
   62.9330   33.4590   47.0940 C   0  0  0  0  0  0  0  0  0  0  0  0
   61.8980   34.1040   46.4120 C   0  0  0  0  0  0  0  0  0  0  0  0
   60.5930   33.5920   46.4590 C   0  0  0  0  0  0  0  0  0  0  0  0
   59.2610   34.4590   45.6970 S   0  0  0  0  0  0  0  0  0  0  0  0
   58.0030   34.3140   46.5070 O   0  0  0  0  0  0  0  0  0  0  0  0
   59.6180   35.9160   45.6100 O   0  0  0  0  0  0  0  0  0  0  0  0
   58.9730   33.8460   44.0980 N   0  0  0  0  0  0  0  0  0  0  0  0
   58.1490   32.7130   43.7800 C   0  0  0  0  0  0  0  0  0  0  0  0
   57.8130   32.4770   42.4410 C   0  0  0  0  0  0  0  0  0  0  0  0
   57.0450   31.3630   42.0910 C   0  0  0  0  0  0  0  0  0  0  0  0
   56.6150   30.4690   43.0760 C   0  0  0  0  0  0  0  0  0  0  0  0
   56.9360   30.6890   44.4200 C   0  0  0  0  0  0  0  0  0  0  0  0
   56.5440   29.7390   45.3750 O   0  0  0  0  0  0  0  0  0  0  0  0
   57.3400   28.6750   45.8180 C   0  0  0  0  0  0  0  0  0  0  0  0
   58.7110   28.8360   46.1280 C   0  0  0  0  0  0  0  0  0  0  0  0
   59.4840   27.7300   46.5470 C   0  0  0  0  0  0  0  0  0  0  0  0
   58.8970   26.4580   46.6740 C   0  0  0  0  0  0  0  0  0  0  0  0
   57.5400   26.3390   46.3840 C   0  0  0  0  0  0  0  0  0  0  0  0
   56.7870   25.2310   46.4320 N   0  0  0  0  0  0  0  0  0  0  0  0
   55.5740   25.6950   46.0370 C   0  0  0  0  0  0  0  0  0  0  0  0
   54.5650   24.9480   45.9440 O   0  0  0  0  0  0  0  0  0  0  0  0
   55.5270   27.0200   45.7450 N   0  0  0  0  0  0  0  0  0  0  0  0
   56.7910   27.4030   45.9790 C   0  0  0  0  0  0  0  0  0  0  0  0
   57.6930   31.8240   44.7660 C   0  0  0  0  0  0  0  0  0  0  0  0
   60.3370   32.4200   47.1820 C   0  0  0  0  0  0  0  0  0  0  0  0
   61.3730   31.7710   47.8590 C   0  0  0  0  0  0  0  0  0  0  0  0
   64.1027   31.9105   50.5336 H   0  0  0  0  0  0  0  0  0  0  0  0
   65.5241   31.8309   49.4382 H   0  0  0  0  0  0  0  0  0  0  0  0
   64.4706   33.2858   49.4382 H   0  0  0  0  0  0  0  0  0  0  0  0
   63.9525   33.8705   47.0583 H   0  0  0  0  0  0  0  0  0  0  0  0
   62.1075   35.0173   45.8357 H   0  0  0  0  0  0  0  0  0  0  0  0
   58.1555   33.1723   41.6604 H   0  0  0  0  0  0  0  0  0  0  0  0
   56.7783   31.1893   41.0381 H   0  0  0  0  0  0  0  0  0  0  0  0
   56.0209   29.5876   42.7928 H   0  0  0  0  0  0  0  0  0  0  0  0
   59.1780   29.8283   46.0423 H   0  0  0  0  0  0  0  0  0  0  0  0
   60.5516   27.8645   46.7753 H   0  0  0  0  0  0  0  0  0  0  0  0
   59.4894   25.5872   46.9915 H   0  0  0  0  0  0  0  0  0  0  0  0
   57.9303   32.0169   45.8226 H   0  0  0  0  0  0  0  0  0  0  0  0
   59.3172   32.0091   47.2170 H   0  0  0  0  0  0  0  0  0  0  0  0
   61.1634   30.8494   48.4218 H   0  0  0  0  0  0  0  0  0  0  0  0
  1  2  1  0
  2  3  1  0
  3  4  2  0
  4  5  1  0
  5  6  2  0
  6  7  1  0
  7  8  2  0
  7  9  2  0
  7 10  1  0
 10 11  1  0
 11 12  2  0
 12 13  1  0
 13 14  2  0
 14 15  1  0
 15 16  1  0
 16 17  1  0
 17 18  2  0
 18 19  1  0
 19 20  2  0
 20 21  1  0
 21 22  1  0
 22 23  1  0
 23 24  2  0
 23 25  1  0
 25 26  1  0
 15 27  2  0
  6 28  1  0
 28 29  2  0
 29  3  1  0
 27 11  1  0
 26 17  1  0
 26 21  2  0
  1 30  1  0
  1 31  1  0
  1 32  1  0
  4 33  1  0
  5 34  1  0
 12 35  1  0
 13 36  1  0
 14 37  1  0
 18 38  1  0
 19 39  1  0
 20 40  1  0
 27 41  1  0
 28 42  1  0
 29 43  1  0
M  CHG  3  10  -1  22  -1  25  -1
M  END
>  <UniqueID>  (34) 
28

>  <SMILES>  (34) 
COc1ccc(S(=O)(=O)[N-]c2cccc(Oc3cccc4[n-]c(=O)[n-]c34)c2)cc1

>  <Energy>  (34) 
89.10168773544277

>  <Genealogy>  (34) 
COc1ccc(S(=O)(=O)[N-]c2cccc(Oc3cccc4[n-]c(=O)[n-]c34)c2)cc1 (protonated)
COc1ccc(S(=O)(=O)[N-]c2cccc(Oc3cccc4[n-]c(=O)[n-]c34)c2)cc1 (3D coordinates assigned)
COc1ccc(S(=O)(=O)[N-]c2cccc(Oc3cccc4[n-]c(=O)[n-]c34)c2)cc1 (optimized conformer: 89.10168773544277 kcal/mol)

>  <smiles>  (34) 
COc1ccc(S(=O)(=O)Nc2cccc(Oc3cccc4[nH]c(=O)[nH]c34)c2)cc1

>  <score_type>  (34) 
oracle

>  <origin>  (34) 
adg

>  <m_score__min__energy>  (34) 
-14.58

>  <m_primary>  (34) 
energy

$$$$
34:0
     RDKit          3D

 27 28  0  0  0  0  0  0  0  0999 V2000
   55.4950   28.9740   44.8540 O   0  0  0  0  0  0  0  0  0  0  0  0
   56.6680   28.7450   45.2550 C   0  0  0  0  0  0  0  0  0  0  0  0
   57.5740   29.8990   45.4510 C   0  0  0  0  0  0  0  0  0  0  0  0
   57.4540   31.0950   44.8530 C   0  0  0  0  0  0  0  0  0  0  0  0
   58.0250   32.3600   45.3630 C   0  0  0  0  0  0  0  0  0  0  0  0
   58.3030   32.5350   46.7300 C   0  0  0  0  0  0  0  0  0  0  0  0
   58.8450   33.7410   47.1880 C   0  0  0  0  0  0  0  0  0  0  0  0
   59.1300   34.7670   46.2860 C   0  0  0  0  0  0  0  0  0  0  0  0
   58.8870   34.5870   44.9220 C   0  0  0  0  0  0  0  0  0  0  0  0
   58.3450   33.3830   44.4590 C   0  0  0  0  0  0  0  0  0  0  0  0
   57.0640   27.3450   45.5600 C   0  0  0  0  0  0  0  0  0  0  0  0
   56.1190   26.3860   45.9700 C   0  0  0  0  0  0  0  0  0  0  0  0
   54.7690   26.7100   46.0580 O   0  0  0  0  0  0  0  0  0  0  0  0
   56.5190   25.1210   46.2720 N   0  0  0  0  0  0  0  0  0  0  0  0
   57.8230   24.7550   46.1640 C   0  0  0  0  0  0  0  0  0  0  0  0
   58.1770   23.5810   46.4470 O   0  0  0  0  0  0  0  0  0  0  0  0
   58.7490   25.6560   45.7480 N   0  0  0  0  0  0  0  0  0  0  0  0
   58.4040   26.9310   45.4420 C   0  0  0  0  0  0  0  0  0  0  0  0
   59.2980   27.7380   45.0710 O   0  0  0  0  0  0  0  0  0  0  0  0
   58.4167   29.7654   46.1452 H   0  0  0  0  0  0  0  0  0  0  0  0
   56.8873   31.1371   43.9112 H   0  0  0  0  0  0  0  0  0  0  0  0
   58.0940   31.7221   47.4410 H   0  0  0  0  0  0  0  0  0  0  0  0
   59.0467   33.8805   48.2603 H   0  0  0  0  0  0  0  0  0  0  0  0
   59.5463   35.7182   46.6492 H   0  0  0  0  0  0  0  0  0  0  0  0
   59.1221   35.3929   44.2112 H   0  0  0  0  0  0  0  0  0  0  0  0
   58.1694   33.2386   43.3827 H   0  0  0  0  0  0  0  0  0  0  0  0
   55.8080   24.4200   46.5830 H   0  0  0  0  0  0  0  0  0  0  0  0
  1  2  2  0
  2  3  1  0
  3  4  2  3
  4  5  1  0
  5  6  2  0
  6  7  1  0
  7  8  2  0
  8  9  1  0
  9 10  2  0
  2 11  1  0
 11 12  2  0
 12 13  1  0
 12 14  1  0
 14 15  1  0
 15 16  2  0
 15 17  1  0
 17 18  1  0
 18 19  2  0
 10  5  1  0
 18 11  1  0
  3 20  1  0
  4 21  1  0
  6 22  1  0
  7 23  1  0
  8 24  1  0
  9 25  1  0
 10 26  1  0
 14 27  1  0
M  CHG  2  13  -1  17  -1
M  END
>  <UniqueID>  (35) 
29

>  <SMILES>  (35) 
O=C(C=Cc1ccccc1)c1c([O-])[nH]c(=O)[n-]c1=O

>  <Energy>  (35) 
41.68506407537168

>  <Genealogy>  (35) 
O=C(C=Cc1ccccc1)c1c([O-])[nH]c(=O)[n-]c1=O (protonated)
O=C(C=Cc1ccccc1)c1c([O-])[nH]c(=O)[n-]c1=O (3D coordinates assigned)
O=C(C=Cc1ccccc1)c1c([O-])[nH]c(=O)[n-]c1=O (optimized conformer: 41.68506407537168 kcal/mol)

>  <smiles>  (35) 
O=C(C=Cc1ccccc1)c1c(O)[nH]c(=O)[nH]c1=O

>  <score_type>  (35) 
oracle

>  <origin>  (35) 
adg

>  <m_score__min__energy>  (35) 
-12.699999999999999

>  <m_primary>  (35) 
energy

$$$$
35:0
     RDKit          3D

 95 98  0  0  0  0  0  0  0  0999 V2000
   57.8070   33.1860   44.9980 C   0  0  0  0  0  0  0  0  0  0  0  0
   57.6460   31.8460   44.3030 C   0  0  0  0  0  0  0  0  0  0  0  0
   57.0290   30.9140   45.1900 O   0  0  0  0  0  0  0  0  0  0  0  0
   56.6970   29.6160   44.7860 C   0  0  0  0  0  0  0  0  0  0  0  0
   55.5200   29.1860   44.9010 O   0  0  0  0  0  0  0  0  0  0  0  0
   57.7500   28.7350   44.1950 C   0  0  0  0  0  0  0  0  0  0  0  0
   59.0730   28.8360   44.9660 C   0  0  0  0  0  0  0  0  0  0  0  0
   59.0290   28.1130   46.2890 C   0  0  0  0  0  0  0  0  0  0  0  0
   57.7210   27.5150   46.7670 C   0  0  0  0  0  0  0  0  0  0  0  0
   57.5300   26.1030   46.2100 C   0  0  0  0  0  0  0  0  0  0  0  0
   56.1400   25.6030   46.4570 C   0  0  0  0  0  0  0  0  0  0  0  0
   55.0220   26.3570   45.9960 N   0  0  0  0  0  0  0  0  0  0  0  0
   55.9560   24.5460   47.1150 O   0  0  0  0  0  0  0  0  0  0  0  0
   60.1100   28.1200   47.0130 N   0  0  0  0  0  0  0  0  0  0  0  0
   60.2840   27.6570   48.3620 C   0  0  0  0  0  0  0  0  0  0  0  0
   60.3580   26.4230   48.6240 O   0  0  0  0  0  0  0  0  0  0  0  0
   60.4760   28.6810   49.4490 C   0  0  2  0  0  0  0  0  0  0  0  0
   60.9720   28.0430   50.7580 C   0  0  0  0  0  0  0  0  0  0  0  0
   60.5410   28.8130   52.0190 C   0  0  0  0  0  0  0  0  0  0  0  0
   61.6530   29.7140   52.4890 C   0  0  0  0  0  0  0  0  0  0  0  0
   61.3980   30.7270   53.4280 C   0  0  0  0  0  0  0  0  0  0  0  0
   62.4280   31.5740   53.8510 C   0  0  0  0  0  0  0  0  0  0  0  0
   63.7140   31.4260   53.3260 C   0  0  0  0  0  0  0  0  0  0  0  0
   63.9700   30.4360   52.3730 C   0  0  0  0  0  0  0  0  0  0  0  0
   62.9430   29.5840   51.9510 C   0  0  0  0  0  0  0  0  0  0  0  0
   59.2480   29.4360   49.6880 N   0  0  0  0  0  0  0  0  0  0  0  0
   58.8940   30.6400   48.9990 C   0  0  0  0  0  0  0  0  0  0  0  0
   58.5150   30.5970   47.7890 O   0  0  0  0  0  0  0  0  0  0  0  0
   58.9960   31.9680   49.7090 C   0  0  1  0  0  0  0  0  0  0  0  0
   57.6980   32.3220   50.4640 C   0  0  0  0  0  0  0  0  0  0  0  0
   57.7100   31.8330   51.8890 C   0  0  0  0  0  0  0  0  0  0  0  0
   57.2160   30.6190   52.3550 C   0  0  0  0  0  0  0  0  0  0  0  0
   57.3980   30.5180   53.6910 N   0  0  0  0  0  0  0  0  0  0  0  0
   57.9980   31.6570   54.0750 C   0  0  0  0  0  0  0  0  0  0  0  0
   58.3990   32.0120   55.3620 C   0  0  0  0  0  0  0  0  0  0  0  0
   58.9990   33.2730   55.5440 C   0  0  0  0  0  0  0  0  0  0  0  0
   59.1950   34.1360   54.4450 C   0  0  0  0  0  0  0  0  0  0  0  0
   58.8090   33.7440   53.1510 C   0  0  0  0  0  0  0  0  0  0  0  0
   58.2030   32.4900   53.0020 C   0  0  0  0  0  0  0  0  0  0  0  0
   60.1030   31.9350   50.6640 N   0  0  0  0  0  0  0  0  0  0  0  0
   61.0000   33.0430   50.7900 C   0  0  0  0  0  0  0  0  0  0  0  0
   60.5450   34.2170   50.8190 O   0  0  0  0  0  0  0  0  0  0  0  0
   62.4100   32.8060   50.8490 N   0  0  0  0  0  0  0  0  0  0  0  0
   63.3870   33.8390   50.6920 C   0  0  0  0  0  0  0  0  0  0  0  0
   63.1080   35.0290   51.0020 O   0  0  0  0  0  0  0  0  0  0  0  0
   64.6300   33.5210   50.1360 O   0  0  0  0  0  0  0  0  0  0  0  0
   64.7730   32.6140   49.0410 C   0  0  0  0  0  0  0  0  0  0  0  0
   63.5320   32.6430   48.1870 C   0  0  0  0  0  0  0  0  0  0  0  0
   63.1220   33.8310   47.5500 C   0  0  0  0  0  0  0  0  0  0  0  0
   61.9160   33.8620   46.8370 C   0  0  0  0  0  0  0  0  0  0  0  0
   61.1030   32.7260   46.7830 C   0  0  0  0  0  0  0  0  0  0  0  0
   61.5080   31.5480   47.4080 C   0  0  0  0  0  0  0  0  0  0  0  0
   62.7180   31.4970   48.1030 C   0  0  0  0  0  0  0  0  0  0  0  0
   57.7892   33.0382   46.0879 H   0  0  0  0  0  0  0  0  0  0  0  0
   58.7659   33.6382   44.7049 H   0  0  0  0  0  0  0  0  0  0  0  0
   56.9825   33.8525   44.7049 H   0  0  0  0  0  0  0  0  0  0  0  0
   57.0172   31.9711   43.4092 H   0  0  0  0  0  0  0  0  0  0  0  0
   58.6360   31.4675   44.0088 H   0  0  0  0  0  0  0  0  0  0  0  0
   57.3997   27.6926   44.2231 H   0  0  0  0  0  0  0  0  0  0  0  0
   57.9302   29.0626   43.1605 H   0  0  0  0  0  0  0  0  0  0  0  0
   59.8734   28.3981   44.3515 H   0  0  0  0  0  0  0  0  0  0  0  0
   59.2577   29.9003   45.1735 H   0  0  0  0  0  0  0  0  0  0  0  0
   57.7256   27.4709   47.8661 H   0  0  0  0  0  0  0  0  0  0  0  0
   56.8946   28.1478   46.4111 H   0  0  0  0  0  0  0  0  0  0  0  0
   57.7183   26.1170   45.1263 H   0  0  0  0  0  0  0  0  0  0  0  0
   58.2360   25.4308   46.7195 H   0  0  0  0  0  0  0  0  0  0  0  0
   55.1460   27.0910   45.2650 H   0  0  0  0  0  0  0  0  0  0  0  0
   61.2524   29.3763   49.0972 H   0  0  0  0  0  0  0  0  0  0  0  0
   60.5712   27.0205   50.8206 H   0  0  0  0  0  0  0  0  0  0  0  0
   62.0715   28.0595   50.7293 H   0  0  0  0  0  0  0  0  0  0  0  0
   59.6547   29.4218   51.7869 H   0  0  0  0  0  0  0  0  0  0  0  0
   60.3055   28.0913   52.8151 H   0  0  0  0  0  0  0  0  0  0  0  0
   60.3833   30.8550   53.8328 H   0  0  0  0  0  0  0  0  0  0  0  0
   62.2252   32.3565   54.5970 H   0  0  0  0  0  0  0  0  0  0  0  0
   64.5251   32.0885   53.6625 H   0  0  0  0  0  0  0  0  0  0  0  0
   64.9810   30.3263   51.9537 H   0  0  0  0  0  0  0  0  0  0  0  0
   63.1472   28.8106   51.1959 H   0  0  0  0  0  0  0  0  0  0  0  0
   59.1695   32.7366   48.9415 H   0  0  0  0  0  0  0  0  0  0  0  0
   57.5782   33.4155   50.4669 H   0  0  0  0  0  0  0  0  0  0  0  0
   56.8635   31.8261   49.9466 H   0  0  0  0  0  0  0  0  0  0  0  0
   56.7441   29.8500   51.7257 H   0  0  0  0  0  0  0  0  0  0  0  0
   57.1410   29.7060   54.2940 H   0  0  0  0  0  0  0  0  0  0  0  0
   58.2512   31.3275   56.2103 H   0  0  0  0  0  0  0  0  0  0  0  0
   59.3168   33.5871   56.5491 H   0  0  0  0  0  0  0  0  0  0  0  0
   59.6535   35.1235   54.6018 H   0  0  0  0  0  0  0  0  0  0  0  0
   58.9773   34.4003   52.2845 H   0  0  0  0  0  0  0  0  0  0  0  0
   60.4460   30.9930   50.9650 H   0  0  0  0  0  0  0  0  0  0  0  0
   62.7330   31.8180   50.7830 H   0  0  0  0  0  0  0  0  0  0  0  0
   65.6411   32.9094   48.4334 H   0  0  0  0  0  0  0  0  0  0  0  0
   64.9215   31.5960   49.4304 H   0  0  0  0  0  0  0  0  0  0  0  0
   63.7480   34.7333   47.6123 H   0  0  0  0  0  0  0  0  0  0  0  0
   61.6084   34.7822   46.3187 H   0  0  0  0  0  0  0  0  0  0  0  0
   60.1431   32.7619   46.2469 H   0  0  0  0  0  0  0  0  0  0  0  0
   60.8707   30.6531   47.3535 H   0  0  0  0  0  0  0  0  0  0  0  0
   63.0356   30.5608   48.5853 H   0  0  0  0  0  0  0  0  0  0  0  0
  1  2  1  0
  2  3  1  0
  3  4  1  0
  4  5  2  0
  4  6  1  0
  6  7  1  0
  7  8  1  0
  8  9  1  0
  9 10  1  0
 10 11  1  0
 11 12  1  0
 11 13  2  0
  8 14  2  3
 14 15  1  0
 15 16  2  0
 15 17  1  0
 17 18  1  0
 18 19  1  0
 19 20  1  0
 20 21  2  0
 21 22  1  0
 22 23  2  0
 23 24  1  0
 24 25  2  0
 17 26  1  0
 26 27  1  0
 27 28  2  0
 27 29  1  0
 29 30  1  0
 30 31  1  0
 31 32  2  0
 32 33  1  0
 33 34  1  0
 34 35  2  0
 35 36  1  0
 36 37  2  0
 37 38  1  0
 38 39  2  0
 29 40  1  0
 40 41  1  0
 41 42  2  0
 41 43  1  0
 43 44  1  0
 44 45  2  0
 44 46  1  0
 46 47  1  0
 47 48  1  0
 48 49  2  0
 49 50  1  0
 50 51  2  0
 51 52  1  0
 52 53  2  0
 25 20  1  0
 39 31  1  0
 53 48  1  0
 39 34  1  0
  1 54  1  0
  1 55  1  0
  1 56  1  0
  2 57  1  0
  2 58  1  0
  6 59  1  0
  6 60  1  0
  7 61  1  0
  7 62  1  0
  9 63  1  0
  9 64  1  0
 10 65  1  0
 10 66  1  0
 12 67  1  0
 17 68  1  6
 18 69  1  0
 18 70  1  0
 19 71  1  0
 19 72  1  0
 21 73  1  0
 22 74  1  0
 23 75  1  0
 24 76  1  0
 25 77  1  0
 29 78  1  6
 30 79  1  0
 30 80  1  0
 32 81  1  0
 33 82  1  0
 35 83  1  0
 36 84  1  0
 37 85  1  0
 38 86  1  0
 40 87  1  0
 43 88  1  0
 47 89  1  0
 47 90  1  0
 49 91  1  0
 50 92  1  0
 51 93  1  0
 52 94  1  0
 53 95  1  0
M  CHG  2  12  -1  26  -1
M  END
>  <UniqueID>  (36) 
30

>  <SMILES>  (36) 
CCOC(=O)CCC(CCC([NH-])=O)=NC(=O)[C@H](CCc1ccccc1)[N-]C(=O)[C@@H](Cc1c[nH]c2ccccc12)NC(=O)NC(=O)OCc1ccccc1

>  <Energy>  (36) 
109.65569610256428

>  <Genealogy>  (36) 
CCOC(=O)CCC(CCC([NH-])=O)=NC(=O)C(CCc1ccccc1)[N-]C(=O)C(Cc1c[nH]c2ccccc12)NC(=O)NC(=O)OCc1ccccc1 (protonated)
CCOC(=O)CCC(CCC([NH-])=O)=NC(=O)[C@H](CCc1ccccc1)[N-]C(=O)[C@@H](Cc1c[nH]c2ccccc12)NC(=O)NC(=O)OCc1ccccc1 (chirality)
CCOC(=O)CCC(CCC([NH-])=O)=NC(=O)[C@H](CCc1ccccc1)[N-]C(=O)[C@@H](Cc1c[nH]c2ccccc12)NC(=O)NC(=O)OCc1ccccc1 (3D coordinates assigned)
CCOC(=O)CCC(CCC([NH-])=O)=NC(=O)[C@H](CCc1ccccc1)[N-]C(=O)[C@@H](Cc1c[nH]c2ccccc12)NC(=O)NC(=O)OCc1ccccc1 (optimized conformer: 109.65569610256428 kcal/mol)

>  <smiles>  (36) 
CCOC(=O)CCC(CCC(N)=O)=NC(=O)C(CCc1ccccc1)NC(=O)C(Cc1c[nH]c2ccccc12)NC(=O)NC(=O)OCc1ccccc1

>  <score_type>  (36) 
oracle

>  <origin>  (36) 
adg

>  <m_score__min__energy>  (36) 
-15.07

>  <m_primary>  (36) 
energy

$$$$
36:0
     RDKit          3D

 55 57  0  0  0  0  0  0  0  0999 V2000
   59.1370   22.3250   44.9140 C   0  0  0  0  0  0  0  0  0  0  0  0
   57.7690   22.4630   44.2460 C   0  0  0  0  0  0  0  0  0  0  0  0
   57.0410   23.7570   44.6410 C   0  0  0  0  0  0  0  0  0  0  0  0
   57.3440   24.9190   43.6850 C   0  0  0  0  0  0  0  0  0  0  0  0
   57.8470   26.1150   44.4500 C   0  0  0  0  0  0  0  0  0  0  0  0
   57.9440   26.0710   45.8490 C   0  0  0  0  0  0  0  0  0  0  0  0
   58.4370   27.1700   46.5600 C   0  0  0  0  0  0  0  0  0  0  0  0
   58.8450   28.3320   45.8810 C   0  0  0  0  0  0  0  0  0  0  0  0
   59.3680   29.4990   46.6320 C   0  0  0  0  0  0  0  0  0  0  0  0
   58.7260   29.9380   47.8040 C   0  0  0  0  0  0  0  0  0  0  0  0
   59.2150   31.0400   48.5100 C   0  0  0  0  0  0  0  0  0  0  0  0
   60.3510   31.7270   48.0540 C   0  0  0  0  0  0  0  0  0  0  0  0
   60.8540   32.9440   48.7890 C   0  0  0  0  0  0  0  0  0  0  0  0
   59.8120   34.0750   48.8190 C   0  0  0  0  0  0  0  0  0  0  0  0
   59.3860   34.5490   47.4220 C   0  0  0  0  0  0  0  0  0  0  0  0
   58.6220   33.5110   46.7280 N   0  0  0  0  0  0  0  0  0  0  0  0
   58.6100   33.3800   45.2980 C   0  0  0  0  0  0  0  0  0  0  0  0
   59.3020   34.1620   44.5880 O   0  0  0  0  0  0  0  0  0  0  0  0
   57.8010   32.3260   44.6480 C   0  0  0  0  0  0  0  0  0  0  0  0
   57.7990   32.1670   43.2540 C   0  0  0  0  0  0  0  0  0  0  0  0
   57.0290   31.1560   42.6820 C   0  0  0  0  0  0  0  0  0  0  0  0
   56.2790   30.3240   43.5110 C   0  0  0  0  0  0  0  0  0  0  0  0
   55.5790   29.3990   43.0220 O   0  0  0  0  0  0  0  0  0  0  0  0
   56.3090   30.5140   44.8560 N   0  0  0  0  0  0  0  0  0  0  0  0
   57.0460   31.4830   45.4040 N   0  0  0  0  0  0  0  0  0  0  0  0
   60.9920   31.2930   46.8840 C   0  0  0  0  0  0  0  0  0  0  0  0
   60.5090   30.1860   46.1820 C   0  0  0  0  0  0  0  0  0  0  0  0
   58.7580   28.3670   44.4760 C   0  0  0  0  0  0  0  0  0  0  0  0
   58.2710   27.2660   43.7670 C   0  0  0  0  0  0  0  0  0  0  0  0
   59.0142   22.3374   46.0071 H   0  0  0  0  0  0  0  0  0  0  0  0
   59.6005   21.3755   44.6078 H   0  0  0  0  0  0  0  0  0  0  0  0
   59.7807   23.1628   44.6078 H   0  0  0  0  0  0  0  0  0  0  0  0
   57.9086   22.4574   43.1549 H   0  0  0  0  0  0  0  0  0  0  0  0
   57.1495   21.6187   44.5827 H   0  0  0  0  0  0  0  0  0  0  0  0
   55.9574   23.5680   44.6338 H   0  0  0  0  0  0  0  0  0  0  0  0
   57.3952   24.0470   45.6412 H   0  0  0  0  0  0  0  0  0  0  0  0
   58.1110   24.6027   42.9627 H   0  0  0  0  0  0  0  0  0  0  0  0
   56.4188   25.1970   43.1589 H   0  0  0  0  0  0  0  0  0  0  0  0
   57.6303   25.1662   46.3902 H   0  0  0  0  0  0  0  0  0  0  0  0
   58.5060   27.1251   47.6569 H   0  0  0  0  0  0  0  0  0  0  0  0
   57.8322   29.4097   48.1674 H   0  0  0  0  0  0  0  0  0  0  0  0
   58.7072   31.3710   49.4279 H   0  0  0  0  0  0  0  0  0  0  0  0
   61.0969   32.6583   49.8231 H   0  0  0  0  0  0  0  0  0  0  0  0
   61.7424   33.3166   48.2580 H   0  0  0  0  0  0  0  0  0  0  0  0
   58.9200   33.7133   49.3515 H   0  0  0  0  0  0  0  0  0  0  0  0
   60.2787   34.9331   49.3247 H   0  0  0  0  0  0  0  0  0  0  0  0
   58.7618   35.4492   47.5221 H   0  0  0  0  0  0  0  0  0  0  0  0
   60.2899   34.7710   46.8357 H   0  0  0  0  0  0  0  0  0  0  0  0
   57.9810   32.9170   47.3000 H   0  0  0  0  0  0  0  0  0  0  0  0
   58.3997   32.8342   42.6184 H   0  0  0  0  0  0  0  0  0  0  0  0
   57.0135   31.0167   41.5910 H   0  0  0  0  0  0  0  0  0  0  0  0
   61.8805   31.8277   46.5171 H   0  0  0  0  0  0  0  0  0  0  0  0
   61.0251   29.8495   45.2707 H   0  0  0  0  0  0  0  0  0  0  0  0
   59.0761   29.2687   43.9321 H   0  0  0  0  0  0  0  0  0  0  0  0
   58.2196   27.3011   42.6688 H   0  0  0  0  0  0  0  0  0  0  0  0
  1  2  1  0
  2  3  1  0
  3  4  1  0
  4  5  1  0
  5  6  2  0
  6  7  1  0
  7  8  2  0
  8  9  1  0
  9 10  2  0
 10 11  1  0
 11 12  2  0
 12 13  1  0
 13 14  1  0
 14 15  1  0
 15 16  1  0
 16 17  1  0
 17 18  2  0
 17 19  1  0
 19 20  1  0
 20 21  2  0
 21 22  1  0
 22 23  2  0
 22 24  1  0
 24 25  1  0
 12 26  1  0
 26 27  2  0
  8 28  1  0
 28 29  2  0
 29  5  1  0
 27  9  1  0
 25 19  2  0
  1 30  1  0
  1 31  1  0
  1 32  1  0
  2 33  1  0
  2 34  1  0
  3 35  1  0
  3 36  1  0
  4 37  1  0
  4 38  1  0
  6 39  1  0
  7 40  1  0
 10 41  1  0
 11 42  1  0
 13 43  1  0
 13 44  1  0
 14 45  1  0
 14 46  1  0
 15 47  1  0
 15 48  1  0
 16 49  1  0
 20 50  1  0
 21 51  1  0
 26 52  1  0
 27 53  1  0
 28 54  1  0
 29 55  1  0
M  CHG  1  24  -1
M  END
>  <UniqueID>  (37) 
31

>  <SMILES>  (37) 
CCCCc1ccc(-c2ccc(CCCNC(=O)c3ccc(=O)[n-]n3)cc2)cc1

>  <Energy>  (37) 
51.44820525385481

>  <Genealogy>  (37) 
CCCCc1ccc(-c2ccc(CCCNC(=O)c3ccc(=O)[n-]n3)cc2)cc1 (protonated)
CCCCc1ccc(-c2ccc(CCCNC(=O)c3ccc(=O)[n-]n3)cc2)cc1 (3D coordinates assigned)
CCCCc1ccc(-c2ccc(CCCNC(=O)c3ccc(=O)[n-]n3)cc2)cc1 (optimized conformer: 51.44820525385481 kcal/mol)

>  <smiles>  (37) 
CCCCc1ccc(-c2ccc(CCCNC(=O)c3ccc(=O)[nH]n3)cc2)cc1

>  <score_type>  (37) 
oracle

>  <origin>  (37) 
adg

>  <m_score__min__energy>  (37) 
-11.720000000000001

>  <m_primary>  (37) 
energy

$$$$
37:0
     RDKit          3D

 41 44  0  0  0  0  0  0  0  0999 V2000
   58.4440   27.8670   44.5570 O   0  0  0  0  0  0  0  0  0  0  0  0
   57.3570   27.2740   45.4080 S   0  0  0  0  0  0  0  0  0  0  0  0
   57.8110   27.2750   46.8410 O   0  0  0  0  0  0  0  0  0  0  0  0
   55.9160   28.2290   45.2460 N   0  0  0  0  0  0  0  0  0  0  0  0
   56.1580   29.3370   44.3260 C   0  0  0  0  0  0  0  0  0  0  0  0
   57.0400   30.3430   44.9930 C   0  0  0  0  0  0  0  0  0  0  0  0
   57.0960   31.6120   44.5080 N   0  0  0  0  0  0  0  0  0  0  0  0
   57.9090   32.5440   45.0680 C   0  0  0  0  0  0  0  0  0  0  0  0
   57.9340   33.8460   44.5570 C   0  0  0  0  0  0  0  0  0  0  0  0
   58.7580   34.8110   45.1420 C   0  0  0  0  0  0  0  0  0  0  0  0
   59.5560   34.4800   46.2410 C   0  0  0  0  0  0  0  0  0  0  0  0
   59.5390   33.1810   46.7570 C   0  0  0  0  0  0  0  0  0  0  0  0
   58.7230   32.1980   46.1680 C   0  0  0  0  0  0  0  0  0  0  0  0
   58.6670   30.8740   46.6400 C   0  0  0  0  0  0  0  0  0  0  0  0
   59.4970   30.4420   47.7260 N   0  0  0  0  0  0  0  0  0  0  0  0
   59.2680   30.8230   49.1120 C   0  0  0  0  0  0  0  0  0  0  0  0
   60.1410   29.8880   49.8720 C   0  0  0  0  0  0  0  0  0  0  0  0
   60.7670   29.0460   49.0560 C   0  0  0  0  0  0  0  0  0  0  0  0
   60.3980   29.3030   47.6360 C   0  0  0  0  0  0  0  0  0  0  0  0
   57.8280   29.9810   46.0430 N   0  0  0  0  0  0  0  0  0  0  0  0
   57.0560   25.6270   44.8820 C   0  0  0  0  0  0  0  0  0  0  0  0
   57.3890   25.0970   43.6420 C   0  0  0  0  0  0  0  0  0  0  0  0
   57.0570   23.7430   43.5220 C   0  0  0  0  0  0  0  0  0  0  0  0
   56.4720   23.2220   44.6680 C   0  0  0  0  0  0  0  0  0  0  0  0
   55.9370   21.5680   44.8800 Cl  0  0  0  0  0  0  0  0  0  0  0  0
   56.3650   24.4280   45.8350 S   0  0  0  0  0  0  0  0  0  0  0  0
   56.6504   28.9604   43.4173 H   0  0  0  0  0  0  0  0  0  0  0  0
   55.2018   29.8065   44.0518 H   0  0  0  0  0  0  0  0  0  0  0  0
   57.3047   34.1102   43.6943 H   0  0  0  0  0  0  0  0  0  0  0  0
   58.7788   35.8335   44.7368 H   0  0  0  0  0  0  0  0  0  0  0  0
   60.1994   35.2443   46.7013 H   0  0  0  0  0  0  0  0  0  0  0  0
   60.1648   32.9269   47.6252 H   0  0  0  0  0  0  0  0  0  0  0  0
   59.5629   31.8681   49.2874 H   0  0  0  0  0  0  0  0  0  0  0  0
   58.2101   30.7603   49.4068 H   0  0  0  0  0  0  0  0  0  0  0  0
   60.2536   29.8930   50.9662 H   0  0  0  0  0  0  0  0  0  0  0  0
   61.4654   28.2628   49.3858 H   0  0  0  0  0  0  0  0  0  0  0  0
   61.2865   29.5497   47.0363 H   0  0  0  0  0  0  0  0  0  0  0  0
   59.9420   28.4308   47.1448 H   0  0  0  0  0  0  0  0  0  0  0  0
   57.8030   28.9940   46.3890 H   0  0  0  0  0  0  0  0  0  0  0  0
   57.8636   25.6802   42.8391 H   0  0  0  0  0  0  0  0  0  0  0  0
   57.2408   23.1520   42.6127 H   0  0  0  0  0  0  0  0  0  0  0  0
  1  2  2  0
  2  3  2  0
  2  4  1  0
  4  5  1  0
  5  6  1  0
  6  7  2  0
  7  8  1  0
  8  9  2  0
  9 10  1  0
 10 11  2  0
 11 12  1  0
 12 13  2  0
 13 14  1  0
 14 15  1  0
 15 16  1  0
 16 17  1  0
 17 18  2  0
 18 19  1  0
 14 20  2  0
  2 21  1  0
 21 22  2  0
 22 23  1  0
 23 24  2  0
 24 25  1  0
 24 26  1  0
 20  6  1  0
 26 21  1  0
 13  8  1  0
 19 15  1  0
  5 27  1  0
  5 28  1  0
  9 29  1  0
 10 30  1  0
 11 31  1  0
 12 32  1  0
 16 33  1  0
 16 34  1  0
 17 35  1  0
 18 36  1  0
 19 37  1  0
 19 38  1  0
 20 39  1  0
 22 40  1  0
 23 41  1  0
M  CHG  2   4  -1  20   1
M  END
>  <UniqueID>  (38) 
32

>  <SMILES>  (38) 
O=S(=O)([N-]Cc1nc2ccccc2c(N2CC=CC2)[nH+]1)c1ccc(Cl)s1

>  <Energy>  (38) 
83.86989112340994

>  <Genealogy>  (38) 
O=S(=O)([N-]Cc1nc2ccccc2c(N2CC=CC2)[nH+]1)c1ccc(Cl)s1 (protonated)
O=S(=O)([N-]Cc1nc2ccccc2c(N2CC=CC2)[nH+]1)c1ccc(Cl)s1 (3D coordinates assigned)
O=S(=O)([N-]Cc1nc2ccccc2c(N2CC=CC2)[nH+]1)c1ccc(Cl)s1 (nonaromatic ring conformer: 83.86989112340994 kcal/mol)

>  <smiles>  (38) 
O=S(=O)(NCc1nc(N2CC=CC2)c2ccccc2n1)c1ccc(Cl)s1

>  <score_type>  (38) 
oracle

>  <origin>  (38) 
adg

>  <m_score__min__energy>  (38) 
-8.5199999999999996

>  <m_primary>  (38) 
energy

$$$$
38:0
     RDKit          3D

 67 69  0  0  0  0  0  0  0  0999 V2000
   63.3530   31.6530   47.1940 C   0  0  0  0  0  0  0  0  0  0  0  0
   63.7280   33.1400   47.2940 C   0  0  0  0  0  0  0  0  0  0  0  0
   64.1550   33.4590   48.7330 C   0  0  0  0  0  0  0  0  0  0  0  0
   62.5570   34.0580   46.8590 C   0  0  0  0  0  0  0  0  0  0  0  0
   61.2640   33.3010   46.5020 C   0  0  0  0  0  0  0  0  0  0  0  0
   60.1200   33.6920   47.3480 N   0  0  0  0  0  0  0  0  0  0  0  0
   60.3670   34.6020   48.4830 C   0  0  0  0  0  0  0  0  0  0  0  0
   60.5150   33.8510   49.7770 C   0  0  0  0  0  0  0  0  0  0  0  0
   61.6450   33.8180   50.3340 O   0  0  0  0  0  0  0  0  0  0  0  0
   59.4060   33.1490   50.3610 N   0  0  0  0  0  0  0  0  0  0  0  0
   59.4470   32.6330   51.7260 C   0  0  0  0  0  0  0  0  0  0  0  0
   58.3780   31.5910   51.9140 C   0  0  0  0  0  0  0  0  0  0  0  0
   57.0260   31.9400   51.7810 C   0  0  0  0  0  0  0  0  0  0  0  0
   56.0410   30.9750   52.0100 C   0  0  0  0  0  0  0  0  0  0  0  0
   56.3960   29.7110   52.3620 N   0  0  0  0  0  0  0  0  0  0  0  0
   57.6980   29.3470   52.5010 C   0  0  0  0  0  0  0  0  0  0  0  0
   58.7140   30.2810   52.2820 C   0  0  0  0  0  0  0  0  0  0  0  0
   58.8090   33.1230   47.0920 C   0  0  0  0  0  0  0  0  0  0  0  0
   57.9740   33.0190   48.0300 O   0  0  0  0  0  0  0  0  0  0  0  0
   58.3750   32.7050   45.7450 C   0  0  0  0  0  0  0  0  0  0  0  0
   58.6110   33.5160   44.6240 C   0  0  0  0  0  0  0  0  0  0  0  0
   58.2020   33.0970   43.3550 C   0  0  0  0  0  0  0  0  0  0  0  0
   57.5680   31.8620   43.1950 C   0  0  0  0  0  0  0  0  0  0  0  0
   57.3460   31.0350   44.3050 C   0  0  0  0  0  0  0  0  0  0  0  0
   56.5390   29.4800   44.1240 S   0  0  0  0  0  0  0  0  0  0  0  0
   55.2360   29.4760   44.8760 O   0  0  0  0  0  0  0  0  0  0  0  0
   56.2450   29.2580   42.6670 O   0  0  0  0  0  0  0  0  0  0  0  0
   57.5490   28.1830   44.6990 N   0  0  0  0  0  0  0  0  0  0  0  0
   57.4510   28.0300   46.1530 C   0  0  0  0  0  0  0  0  0  0  0  0
   58.5890   28.7270   46.8500 C   0  0  0  0  0  0  0  0  0  0  0  0
   58.5240   28.9730   48.2320 C   0  0  0  0  0  0  0  0  0  0  0  0
   59.5750   29.6300   48.8800 C   0  0  0  0  0  0  0  0  0  0  0  0
   60.6950   30.0440   48.1550 C   0  0  0  0  0  0  0  0  0  0  0  0
   60.7690   29.8010   46.7800 C   0  0  0  0  0  0  0  0  0  0  0  0
   59.7210   29.1430   46.1290 C   0  0  0  0  0  0  0  0  0  0  0  0
   57.7540   31.4590   45.5760 C   0  0  0  0  0  0  0  0  0  0  0  0
   63.2470   31.2328   48.2050 H   0  0  0  0  0  0  0  0  0  0  0  0
   62.4009   31.5506   46.6527 H   0  0  0  0  0  0  0  0  0  0  0  0
   64.1427   31.1113   46.6527 H   0  0  0  0  0  0  0  0  0  0  0  0
   64.5648   33.3344   46.6070 H   0  0  0  0  0  0  0  0  0  0  0  0
   63.4779   32.9532   49.4371 H   0  0  0  0  0  0  0  0  0  0  0  0
   65.1841   33.1067   48.8967 H   0  0  0  0  0  0  0  0  0  0  0  0
   64.1090   34.5458   48.8967 H   0  0  0  0  0  0  0  0  0  0  0  0
   62.3354   34.7500   47.6848 H   0  0  0  0  0  0  0  0  0  0  0  0
   62.8832   34.5772   45.9457 H   0  0  0  0  0  0  0  0  0  0  0  0
   61.0124   33.5109   45.4519 H   0  0  0  0  0  0  0  0  0  0  0  0
   61.4500   32.2301   46.6710 H   0  0  0  0  0  0  0  0  0  0  0  0
   61.2908   35.1677   48.2917 H   0  0  0  0  0  0  0  0  0  0  0  0
   59.5031   35.2766   48.5754 H   0  0  0  0  0  0  0  0  0  0  0  0
   58.5020   33.0860   49.8400 H   0  0  0  0  0  0  0  0  0  0  0  0
   60.4324   32.1825   51.9158 H   0  0  0  0  0  0  0  0  0  0  0  0
   59.2733   33.4600   52.4302 H   0  0  0  0  0  0  0  0  0  0  0  0
   56.7431   32.9649   51.4988 H   0  0  0  0  0  0  0  0  0  0  0  0
   54.9782   31.2386   51.9053 H   0  0  0  0  0  0  0  0  0  0  0  0
   57.9524   28.3156   52.7863 H   0  0  0  0  0  0  0  0  0  0  0  0
   59.7687   29.9906   52.3975 H   0  0  0  0  0  0  0  0  0  0  0  0
   59.1193   34.4840   44.7446 H   0  0  0  0  0  0  0  0  0  0  0  0
   58.3794   33.7405   42.4807 H   0  0  0  0  0  0  0  0  0  0  0  0
   57.2423   31.5379   42.1955 H   0  0  0  0  0  0  0  0  0  0  0  0
   56.5001   28.4634   46.4964 H   0  0  0  0  0  0  0  0  0  0  0  0
   57.4975   26.9580   46.3951 H   0  0  0  0  0  0  0  0  0  0  0  0
   57.6438   28.6478   48.8060 H   0  0  0  0  0  0  0  0  0  0  0  0
   59.5196   29.8210   49.9619 H   0  0  0  0  0  0  0  0  0  0  0  0
   61.5198   30.5618   48.6665 H   0  0  0  0  0  0  0  0  0  0  0  0
   61.6516   30.1275   46.2105 H   0  0  0  0  0  0  0  0  0  0  0  0
   59.7830   28.9502   45.0478 H   0  0  0  0  0  0  0  0  0  0  0  0
   57.5861   30.8099   46.4481 H   0  0  0  0  0  0  0  0  0  0  0  0
  1  2  1  0
  2  3  1  0
  2  4  1  0
  4  5  1  0
  5  6  1  0
  6  7  1  0
  7  8  1  0
  8  9  2  0
  8 10  1  0
 10 11  1  0
 11 12  1  0
 12 13  2  0
 13 14  1  0
 14 15  2  0
 15 16  1  0
 16 17  2  0
  6 18  1  0
 18 19  2  0
 18 20  1  0
 20 21  2  0
 21 22  1  0
 22 23  2  0
 23 24  1  0
 24 25  1  0
 25 26  2  0
 25 27  2  0
 25 28  1  0
 28 29  1  0
 29 30  1  0
 30 31  2  0
 31 32  1  0
 32 33  2  0
 33 34  1  0
 34 35  2  0
 24 36  2  0
 17 12  1  0
 36 20  1  0
 35 30  1  0
  1 37  1  0
  1 38  1  0
  1 39  1  0
  2 40  1  0
  3 41  1  0
  3 42  1  0
  3 43  1  0
  4 44  1  0
  4 45  1  0
  5 46  1  0
  5 47  1  0
  7 48  1  0
  7 49  1  0
 10 50  1  0
 11 51  1  0
 11 52  1  0
 13 53  1  0
 14 54  1  0
 16 55  1  0
 17 56  1  0
 21 57  1  0
 22 58  1  0
 23 59  1  0
 29 60  1  0
 29 61  1  0
 31 62  1  0
 32 63  1  0
 33 64  1  0
 34 65  1  0
 35 66  1  0
 36 67  1  0
M  CHG  1  28  -1
M  END
>  <UniqueID>  (39) 
33

>  <SMILES>  (39) 
CC(C)CCN(CC(=O)NCc1ccncc1)C(=O)c1cccc(S(=O)(=O)[N-]Cc2ccccc2)c1

>  <Energy>  (39) 
65.40735317277162

>  <Genealogy>  (39) 
CC(C)CCN(CC(=O)NCc1ccncc1)C(=O)c1cccc(S(=O)(=O)[N-]Cc2ccccc2)c1 (protonated)
CC(C)CCN(CC(=O)NCc1ccncc1)C(=O)c1cccc(S(=O)(=O)[N-]Cc2ccccc2)c1 (3D coordinates assigned)
CC(C)CCN(CC(=O)NCc1ccncc1)C(=O)c1cccc(S(=O)(=O)[N-]Cc2ccccc2)c1 (optimized conformer: 65.40735317277162 kcal/mol)

>  <smiles>  (39) 
CC(C)CCN(CC(=O)NCc1ccncc1)C(=O)c1cccc(S(=O)(=O)NCc2ccccc2)c1

>  <score_type>  (39) 
oracle

>  <origin>  (39) 
adg

>  <m_score__min__energy>  (39) 
-11.68

>  <m_primary>  (39) 
energy

$$$$
39:0
     RDKit          3D

 60 62  0  0  0  0  0  0  0  0999 V2000
   60.0220   31.3310   51.3210 N   0  0  0  0  0  0  0  0  0  0  0  0
   59.6820   32.3040   49.9330 S   0  0  0  0  0  0  0  0  0  0  0  0
   58.5320   31.6820   49.1910 O   0  0  0  0  0  0  0  0  0  0  0  0
   59.2870   33.6870   50.3700 O   0  0  0  0  0  0  0  0  0  0  0  0
   61.1050   32.3930   48.8810 C   0  0  0  0  0  0  0  0  0  0  0  0
   61.9000   33.5520   48.9170 C   0  0  0  0  0  0  0  0  0  0  0  0
   63.0000   33.6870   48.0690 C   0  0  0  0  0  0  0  0  0  0  0  0
   63.3230   32.6680   47.1730 C   0  0  0  0  0  0  0  0  0  0  0  0
   62.5530   31.5050   47.1320 C   0  0  0  0  0  0  0  0  0  0  0  0
   61.4490   31.3480   47.9870 C   0  0  0  0  0  0  0  0  0  0  0  0
   60.6800   30.0890   47.9150 C   0  0  0  0  0  0  0  0  0  0  0  0
   60.6670   29.2100   49.0070 C   0  0  0  0  0  0  0  0  0  0  0  0
   59.9480   28.0130   48.9400 C   0  0  0  0  0  0  0  0  0  0  0  0
   59.2190   27.6870   47.7850 C   0  0  0  0  0  0  0  0  0  0  0  0
   58.4850   26.3770   47.6940 C   0  0  0  0  0  0  0  0  0  0  0  0
   57.9590   26.1560   46.3500 N   0  0  0  0  0  0  0  0  0  0  0  0
   56.6130   25.7950   46.0110 C   0  0  0  0  0  0  0  0  0  0  0  0
   55.6680   26.2990   46.6740 O   0  0  0  0  0  0  0  0  0  0  0  0
   56.2880   24.8410   44.8960 C   0  0  0  0  0  0  0  0  0  0  0  0
   57.7350   24.5300   43.8210 S   0  0  0  0  0  0  0  0  0  0  0  0
   57.7620   26.1460   42.9650 C   0  0  0  0  0  0  0  0  0  0  0  0
   58.3390   27.2390   43.8670 C   0  0  0  0  0  0  0  0  0  0  0  0
   57.9460   28.5600   43.3790 N   0  0  0  0  0  0  0  0  0  0  0  0
   57.2730   29.5190   44.2100 C   0  0  0  0  0  0  0  0  0  0  0  0
   56.8270   29.1740   45.3360 O   0  0  0  0  0  0  0  0  0  0  0  0
   57.0130   30.8950   43.7380 C   0  0  0  0  0  0  0  0  0  0  0  0
   56.6900   31.9350   44.5220 C   0  0  0  0  0  0  0  0  0  0  0  0
   57.6540   32.8570   45.1580 C   0  0  0  0  0  0  0  0  0  0  0  0
   58.6800   33.4710   44.4160 C   0  0  0  0  0  0  0  0  0  0  0  0
   59.5930   34.3210   45.0470 C   0  0  0  0  0  0  0  0  0  0  0  0
   59.5020   34.5510   46.4220 C   0  0  0  0  0  0  0  0  0  0  0  0
   60.3870   35.3770   47.0310 F   0  0  0  0  0  0  0  0  0  0  0  0
   58.5050   33.9200   47.1720 C   0  0  0  0  0  0  0  0  0  0  0  0
   57.5910   33.0670   46.5440 C   0  0  0  0  0  0  0  0  0  0  0  0
   59.2250   28.5740   46.6960 C   0  0  0  0  0  0  0  0  0  0  0  0
   59.9410   29.7730   46.7650 C   0  0  0  0  0  0  0  0  0  0  0  0
   59.4690   30.4500   51.2180 H   0  0  0  0  0  0  0  0  0  0  0  0
   61.6525   34.3605   49.6206 H   0  0  0  0  0  0  0  0  0  0  0  0
   63.6137   34.5991   48.1073 H   0  0  0  0  0  0  0  0  0  0  0  0
   64.1847   32.7812   46.4987 H   0  0  0  0  0  0  0  0  0  0  0  0
   62.8125   30.7040   46.4241 H   0  0  0  0  0  0  0  0  0  0  0  0
   61.2250   29.4633   49.9205 H   0  0  0  0  0  0  0  0  0  0  0  0
   59.9534   27.3229   49.7966 H   0  0  0  0  0  0  0  0  0  0  0  0
   59.1770   25.5602   47.9468 H   0  0  0  0  0  0  0  0  0  0  0  0
   57.6400   26.4028   48.3977 H   0  0  0  0  0  0  0  0  0  0  0  0
   55.9558   23.8865   45.3302 H   0  0  0  0  0  0  0  0  0  0  0  0
   55.4967   25.2932   44.2801 H   0  0  0  0  0  0  0  0  0  0  0  0
   58.3821   26.0627   42.0602 H   0  0  0  0  0  0  0  0  0  0  0  0
   56.7292   26.4192   42.7029 H   0  0  0  0  0  0  0  0  0  0  0  0
   57.9595   27.1026   44.8904 H   0  0  0  0  0  0  0  0  0  0  0  0
   59.4366   27.1668   43.8591 H   0  0  0  0  0  0  0  0  0  0  0  0
   58.0970   28.7760   42.3690 H   0  0  0  0  0  0  0  0  0  0  0  0
   57.0905   31.0818   42.6567 H   0  0  0  0  0  0  0  0  0  0  0  0
   55.6207   32.1160   44.7063 H   0  0  0  0  0  0  0  0  0  0  0  0
   58.7639   33.2815   43.3357 H   0  0  0  0  0  0  0  0  0  0  0  0
   60.3845   34.8096   44.4598 H   0  0  0  0  0  0  0  0  0  0  0  0
   58.4392   34.0942   48.2561 H   0  0  0  0  0  0  0  0  0  0  0  0
   56.8189   32.5583   47.1399 H   0  0  0  0  0  0  0  0  0  0  0  0
   58.6633   28.3240   45.7838 H   0  0  0  0  0  0  0  0  0  0  0  0
   59.9248   30.4708   45.9148 H   0  0  0  0  0  0  0  0  0  0  0  0
  1  2  1  0
  2  3  2  0
  2  4  2  0
  2  5  1  0
  5  6  2  0
  6  7  1  0
  7  8  2  0
  8  9  1  0
  9 10  2  0
 10 11  1  0
 11 12  2  0
 12 13  1  0
 13 14  2  0
 14 15  1  0
 15 16  1  0
 16 17  1  0
 17 18  2  0
 17 19  1  0
 19 20  1  0
 20 21  1  0
 21 22  1  0
 22 23  1  0
 23 24  1  0
 24 25  2  0
 24 26  1  0
 26 27  2  3
 27 28  1  0
 28 29  2  0
 29 30  1  0
 30 31  2  0
 31 32  1  0
 31 33  1  0
 33 34  2  0
 14 35  1  0
 35 36  2  0
 10  5  1  0
 36 11  1  0
 34 28  1  0
  1 37  1  0
  6 38  1  0
  7 39  1  0
  8 40  1  0
  9 41  1  0
 12 42  1  0
 13 43  1  0
 15 44  1  0
 15 45  1  0
 19 46  1  0
 19 47  1  0
 21 48  1  0
 21 49  1  0
 22 50  1  0
 22 51  1  0
 23 52  1  0
 26 53  1  0
 27 54  1  0
 29 55  1  0
 30 56  1  0
 33 57  1  0
 34 58  1  0
 35 59  1  0
 36 60  1  0
M  CHG  2   1  -1  16  -1
M  END
>  <UniqueID>  (40) 
34

>  <SMILES>  (40) 
[NH-]S(=O)(=O)c1ccccc1-c1ccc(C[N-]C(=O)CSCCNC(=O)C=Cc2ccc(F)cc2)cc1

>  <Energy>  (40) 
68.1122135513609

>  <Genealogy>  (40) 
[NH-]S(=O)(=O)c1ccccc1-c1ccc(C[N-]C(=O)CSCCNC(=O)C=Cc2ccc(F)cc2)cc1 (protonated)
[NH-]S(=O)(=O)c1ccccc1-c1ccc(C[N-]C(=O)CSCCNC(=O)C=Cc2ccc(F)cc2)cc1 (3D coordinates assigned)
[NH-]S(=O)(=O)c1ccccc1-c1ccc(C[N-]C(=O)CSCCNC(=O)C=Cc2ccc(F)cc2)cc1 (optimized conformer: 68.1122135513609 kcal/mol)

>  <smiles>  (40) 
NS(=O)(=O)c1ccccc1-c1ccc(CNC(=O)CSCCNC(=O)C=Cc2ccc(F)cc2)cc1

>  <score_type>  (40) 
oracle

>  <origin>  (40) 
adg

>  <m_score__min__energy>  (40) 
-13.48

>  <m_primary>  (40) 
energy

$$$$
40:0
     RDKit          3D

 40 41  0  0  0  0  0  0  0  0999 V2000
   57.6250   23.2880   46.5070 C   0  0  0  0  0  0  0  0  0  0  0  0
   56.5660   23.3540   47.5970 C   0  0  0  0  0  0  0  0  0  0  0  0
   55.4390   24.1540   47.1380 N   0  0  0  0  0  0  0  0  0  0  0  0
   55.4370   24.9560   45.9500 C   0  0  0  0  0  0  0  0  0  0  0  0
   55.3510   24.3880   44.8310 O   0  0  0  0  0  0  0  0  0  0  0  0
   55.4590   26.3880   46.0010 N   0  0  0  0  0  0  0  0  0  0  0  0
   56.5800   27.2220   45.6820 C   0  0  0  0  0  0  0  0  0  0  0  0
   57.8670   26.7530   45.9710 C   0  0  0  0  0  0  0  0  0  0  0  0
   58.9860   27.5370   45.6870 C   0  0  0  0  0  0  0  0  0  0  0  0
   58.8290   28.8050   45.1260 C   0  0  0  0  0  0  0  0  0  0  0  0
   57.5470   29.3050   44.8570 C   0  0  0  0  0  0  0  0  0  0  0  0
   57.3500   30.9220   44.1760 S   0  0  0  0  0  0  0  0  0  0  0  0
   57.2730   30.8430   42.6770 O   0  0  0  0  0  0  0  0  0  0  0  0
   56.0670   31.5070   44.6970 O   0  0  0  0  0  0  0  0  0  0  0  0
   58.7090   31.9140   44.6580 N   0  0  0  0  0  0  0  0  0  0  0  0
   59.0470   31.7270   46.0830 C   0  0  0  0  0  0  0  0  0  0  0  0
   58.0530   32.4230   47.0320 C   0  0  0  0  0  0  0  0  0  0  0  0
   57.5880   33.7980   46.5210 C   0  0  0  0  0  0  0  0  0  0  0  0
   58.4870   34.3280   45.4070 C   0  0  0  0  0  0  0  0  0  0  0  0
   58.5410   33.3290   44.2380 C   0  0  0  0  0  0  0  0  0  0  0  0
   56.4180   28.5200   45.1510 C   0  0  0  0  0  0  0  0  0  0  0  0
   55.1430   29.0330   44.9290 O   0  0  0  0  0  0  0  0  0  0  0  0
   58.6220   23.2259   46.9677 H   0  0  0  0  0  0  0  0  0  0  0  0
   57.4536   22.3988   45.8826 H   0  0  0  0  0  0  0  0  0  0  0  0
   57.5653   24.1916   45.8826 H   0  0  0  0  0  0  0  0  0  0  0  0
   56.2203   22.3368   47.8332 H   0  0  0  0  0  0  0  0  0  0  0  0
   56.9979   23.8155   48.4973 H   0  0  0  0  0  0  0  0  0  0  0  0
   57.9971   25.7596   46.4251 H   0  0  0  0  0  0  0  0  0  0  0  0
   59.9939   27.1546   45.9058 H   0  0  0  0  0  0  0  0  0  0  0  0
   59.7146   29.4148   44.8939 H   0  0  0  0  0  0  0  0  0  0  0  0
   59.0481   30.6496   46.3048 H   0  0  0  0  0  0  0  0  0  0  0  0
   60.0351   32.1808   46.2498 H   0  0  0  0  0  0  0  0  0  0  0  0
   57.1705   31.7768   47.1490 H   0  0  0  0  0  0  0  0  0  0  0  0
   58.5738   32.5882   47.9867 H   0  0  0  0  0  0  0  0  0  0  0  0
   56.5620   33.7052   46.1355 H   0  0  0  0  0  0  0  0  0  0  0  0
   57.6348   34.5063   47.3613 H   0  0  0  0  0  0  0  0  0  0  0  0
   58.0883   35.2873   45.0454 H   0  0  0  0  0  0  0  0  0  0  0  0
   59.5032   34.4659   45.8048 H   0  0  0  0  0  0  0  0  0  0  0  0
   57.6032   33.4117   43.6691 H   0  0  0  0  0  0  0  0  0  0  0  0
   59.4255   33.5895   43.6382 H   0  0  0  0  0  0  0  0  0  0  0  0
  1  2  1  0
  2  3  1  0
  3  4  1  0
  4  5  2  0
  4  6  1  0
  6  7  1  0
  7  8  2  0
  8  9  1  0
  9 10  2  0
 10 11  1  0
 11 12  1  0
 12 13  2  0
 12 14  2  0
 12 15  1  0
 15 16  1  0
 16 17  1  0
 17 18  1  0
 18 19  1  0
 19 20  1  0
 11 21  2  0
 21 22  1  0
 21  7  1  0
 20 15  1  0
  1 23  1  0
  1 24  1  0
  1 25  1  0
  2 26  1  0
  2 27  1  0
  8 28  1  0
  9 29  1  0
 10 30  1  0
 16 31  1  0
 16 32  1  0
 17 33  1  0
 17 34  1  0
 18 35  1  0
 18 36  1  0
 19 37  1  0
 19 38  1  0
 20 39  1  0
 20 40  1  0
M  CHG  3   3  -1   6  -1  22  -1
M  END
>  <UniqueID>  (41) 
35

>  <SMILES>  (41) 
CC[N-]C(=O)[N-]c1cccc(S(=O)(=O)N2CCCCC2)c1[O-]

>  <Energy>  (41) 
49.460998927516954

>  <Genealogy>  (41) 
CC[N-]C(=O)[N-]c1cccc(S(=O)(=O)N2CCCCC2)c1[O-] (protonated)
CC[N-]C(=O)[N-]c1cccc(S(=O)(=O)N2CCCCC2)c1[O-] (3D coordinates assigned)
CC[N-]C(=O)[N-]c1cccc(S(=O)(=O)N2CCCCC2)c1[O-] (nonaromatic ring conformer: 49.460998927516954 kcal/mol)

>  <smiles>  (41) 
CCNC(=O)Nc1cccc(S(=O)(=O)N2CCCCC2)c1O

>  <score_type>  (41) 
oracle

>  <origin>  (41) 
adg

>  <m_score__min__energy>  (41) 
-15.630000000000001

>  <m_primary>  (41) 
energy

$$$$
41:0
     RDKit          3D

 43 45  0  0  0  0  0  0  0  0999 V2000
   57.7730   32.1040   42.2970 C   0  0  0  0  0  0  0  0  0  0  0  0
   57.3540   32.0080   43.7590 C   0  0  0  0  0  0  0  0  0  0  0  0
   56.7310   30.3780   44.1590 S   0  0  0  0  0  0  0  0  0  0  0  0
   55.2970   30.5120   44.5870 O   0  0  0  0  0  0  0  0  0  0  0  0
   56.8000   29.5120   42.9330 O   0  0  0  0  0  0  0  0  0  0  0  0
   57.6490   29.6320   45.4380 N   0  0  0  0  0  0  0  0  0  0  0  0
   57.4300   28.2180   45.7520 C   0  0  0  0  0  0  0  0  0  0  0  0
   58.4410   27.3710   45.1070 N   0  0  0  0  0  0  0  0  0  0  0  0
   58.1290   26.6790   43.8760 C   0  0  0  0  0  0  0  0  0  0  0  0
   58.3160   27.2560   42.7690 O   0  0  0  0  0  0  0  0  0  0  0  0
   57.5320   25.2940   43.8900 C   0  0  0  0  0  0  0  0  0  0  0  0
   56.8250   25.0370   45.1420 N   0  0  0  0  0  0  0  0  0  0  0  0
   55.5010   24.8910   45.3050 C   0  0  0  0  0  0  0  0  0  0  0  0
   55.1980   24.6050   46.5860 N   0  0  0  0  0  0  0  0  0  0  0  0
   56.4160   24.5830   47.1740 C   0  0  0  0  0  0  0  0  0  0  0  0
   57.4140   24.8370   46.3060 N   0  0  0  0  0  0  0  0  0  0  0  0
   59.8070   27.3360   45.6420 C   0  0  0  0  0  0  0  0  0  0  0  0
   60.5430   28.6410   45.3140 C   0  0  0  0  0  0  0  0  0  0  0  0
   60.0650   29.8980   46.0260 C   0  0  0  0  0  0  0  0  0  0  0  0
   61.0560   30.6610   46.6720 C   0  0  0  0  0  0  0  0  0  0  0  0
   60.7290   31.8280   47.3630 C   0  0  0  0  0  0  0  0  0  0  0  0
   59.4080   32.2600   47.4170 C   0  0  0  0  0  0  0  0  0  0  0  0
   58.4070   31.5270   46.7810 C   0  0  0  0  0  0  0  0  0  0  0  0
   58.7140   30.3440   46.0870 C   0  0  0  0  0  0  0  0  0  0  0  0
   58.8437   32.3493   42.2378 H   0  0  0  0  0  0  0  0  0  0  0  0
   57.5895   31.1405   41.7990 H   0  0  0  0  0  0  0  0  0  0  0  0
   57.1883   32.8915   41.7990 H   0  0  0  0  0  0  0  0  0  0  0  0
   58.2252   32.2234   44.3951 H   0  0  0  0  0  0  0  0  0  0  0  0
   56.5495   32.7372   43.9354 H   0  0  0  0  0  0  0  0  0  0  0  0
   57.4869   28.0789   46.8417 H   0  0  0  0  0  0  0  0  0  0  0  0
   56.4382   27.9261   45.3764 H   0  0  0  0  0  0  0  0  0  0  0  0
   56.8250   25.1994   43.0526 H   0  0  0  0  0  0  0  0  0  0  0  0
   58.3473   24.5619   43.7934 H   0  0  0  0  0  0  0  0  0  0  0  0
   54.7601   24.9917   44.4982 H   0  0  0  0  0  0  0  0  0  0  0  0
   56.5740   24.3800   48.2435 H   0  0  0  0  0  0  0  0  0  0  0  0
   59.7655   27.2077   46.7337 H   0  0  0  0  0  0  0  0  0  0  0  0
   60.3486   26.4957   45.1831 H   0  0  0  0  0  0  0  0  0  0  0  0
   61.6035   28.4976   45.5687 H   0  0  0  0  0  0  0  0  0  0  0  0
   60.3444   28.8222   44.2474 H   0  0  0  0  0  0  0  0  0  0  0  0
   62.1048   30.3319   46.6313 H   0  0  0  0  0  0  0  0  0  0  0  0
   61.5172   32.4075   47.8660 H   0  0  0  0  0  0  0  0  0  0  0  0
   59.1528   33.1808   47.9620 H   0  0  0  0  0  0  0  0  0  0  0  0
   57.3655   31.8784   46.8228 H   0  0  0  0  0  0  0  0  0  0  0  0
  1  2  1  0
  2  3  1  0
  3  4  2  0
  3  5  2  0
  3  6  1  0
  6  7  1  0
  7  8  1  0
  8  9  1  0
  9 10  2  0
  9 11  1  0
 11 12  1  0
 12 13  1  0
 13 14  2  0
 14 15  1  0
 15 16  2  0
  8 17  1  0
 17 18  1  0
 18 19  1  0
 19 20  2  0
 20 21  1  0
 21 22  2  0
 22 23  1  0
 23 24  2  0
 24  6  1  0
 16 12  1  0
 24 19  1  0
  1 25  1  0
  1 26  1  0
  1 27  1  0
  2 28  1  0
  2 29  1  0
  7 30  1  0
  7 31  1  0
 11 32  1  0
 11 33  1  0
 13 34  1  0
 15 35  1  0
 17 36  1  0
 17 37  1  0
 18 38  1  0
 18 39  1  0
 20 40  1  0
 21 41  1  0
 22 42  1  0
 23 43  1  0
M  END
>  <UniqueID>  (42) 
36

>  <SMILES>  (42) 
CCS(=O)(=O)N1CN(C(=O)Cn2cncn2)CCc2ccccc21

>  <Energy>  (42) 
80.02473476507326

>  <Genealogy>  (42) 
CCS(=O)(=O)N1CN(C(=O)Cn2cncn2)CCc2ccccc21 (3D coordinates assigned)
CCS(=O)(=O)N1CN(C(=O)Cn2cncn2)CCc2ccccc21 (nonaromatic ring conformer: 80.02473476507326 kcal/mol)

>  <smiles>  (42) 
CCS(=O)(=O)N1CN(C(=O)Cn2cncn2)CCc2ccccc21

>  <score_type>  (42) 
oracle

>  <origin>  (42) 
adg

>  <m_score__min__energy>  (42) 
-5.7199999999999998

>  <m_primary>  (42) 
energy

$$$$
42:0
     RDKit          3D

 48 50  0  0  0  0  0  0  0  0999 V2000
   57.7660   21.4680   43.5680 C   0  0  0  0  0  0  0  0  0  0  0  0
   58.9540   22.1480   43.9560 O   0  0  0  0  0  0  0  0  0  0  0  0
   58.9720   23.1240   44.9590 C   0  0  0  0  0  0  0  0  0  0  0  0
   60.0080   23.2860   45.6620 O   0  0  0  0  0  0  0  0  0  0  0  0
   57.7770   23.9640   45.1910 C   0  0  0  0  0  0  0  0  0  0  0  0
   56.5340   23.3760   45.4880 C   0  0  0  0  0  0  0  0  0  0  0  0
   55.4130   24.1750   45.7190 C   0  0  0  0  0  0  0  0  0  0  0  0
   55.5100   25.5670   45.6510 C   0  0  0  0  0  0  0  0  0  0  0  0
   54.3890   26.3390   45.9360 O   0  0  0  0  0  0  0  0  0  0  0  0
   56.7380   26.1710   45.3220 C   0  0  0  0  0  0  0  0  0  0  0  0
   56.8760   27.6000   45.2470 N   0  0  0  0  0  0  0  0  0  0  0  0
   57.6430   28.3640   46.1930 C   0  0  0  0  0  0  0  0  0  0  0  0
   57.9570   27.8480   47.3020 O   0  0  0  0  0  0  0  0  0  0  0  0
   58.0360   29.7640   45.9010 C   0  0  0  0  0  0  0  0  0  0  0  0
   57.2690   30.5450   45.0200 C   0  0  0  0  0  0  0  0  0  0  0  0
   57.6300   31.8660   44.7420 C   0  0  0  0  0  0  0  0  0  0  0  0
   58.7490   32.4400   45.3560 C   0  0  0  0  0  0  0  0  0  0  0  0
   59.0970   33.7920   45.0260 N   0  0  0  0  0  0  0  0  0  0  0  0
   59.4760   34.8220   45.9470 C   0  0  0  0  0  0  0  0  0  0  0  0
   59.6780   36.0010   45.5510 O   0  0  0  0  0  0  0  0  0  0  0  0
   59.6400   34.4890   47.3950 C   0  0  0  0  0  0  0  0  0  0  0  0
   61.0770   34.1570   47.6840 C   0  0  0  0  0  0  0  0  0  0  0  0
   61.9550   33.8310   46.6370 C   0  0  0  0  0  0  0  0  0  0  0  0
   63.2830   33.4880   46.9110 C   0  0  0  0  0  0  0  0  0  0  0  0
   63.7400   33.4570   48.2310 C   0  0  0  0  0  0  0  0  0  0  0  0
   62.8690   33.7660   49.2800 C   0  0  0  0  0  0  0  0  0  0  0  0
   61.5410   34.1100   49.0100 C   0  0  0  0  0  0  0  0  0  0  0  0
   59.5290   31.6610   46.2270 C   0  0  0  0  0  0  0  0  0  0  0  0
   59.1690   30.3380   46.5040 C   0  0  0  0  0  0  0  0  0  0  0  0
   57.8680   25.3650   45.1180 C   0  0  0  0  0  0  0  0  0  0  0  0
   57.2144   21.1523   44.4658 H   0  0  0  0  0  0  0  0  0  0  0  0
   57.1364   22.1425   42.9691 H   0  0  0  0  0  0  0  0  0  0  0  0
   58.0287   20.5835   42.9691 H   0  0  0  0  0  0  0  0  0  0  0  0
   56.4450   22.2808   45.5385 H   0  0  0  0  0  0  0  0  0  0  0  0
   54.4469   23.7055   45.9561 H   0  0  0  0  0  0  0  0  0  0  0  0
   56.2450   28.1160   44.5940 H   0  0  0  0  0  0  0  0  0  0  0  0
   56.3762   30.1125   44.5448 H   0  0  0  0  0  0  0  0  0  0  0  0
   57.0304   32.4589   44.0356 H   0  0  0  0  0  0  0  0  0  0  0  0
   59.3355   35.3525   48.0046 H   0  0  0  0  0  0  0  0  0  0  0  0
   59.0112   33.6204   47.6403 H   0  0  0  0  0  0  0  0  0  0  0  0
   61.5966   33.8455   45.5971 H   0  0  0  0  0  0  0  0  0  0  0  0
   63.9684   33.2424   46.0864 H   0  0  0  0  0  0  0  0  0  0  0  0
   64.7853   33.1894   48.4449 H   0  0  0  0  0  0  0  0  0  0  0  0
   63.2289   33.7384   50.3191 H   0  0  0  0  0  0  0  0  0  0  0  0
   60.8566   34.3448   49.8385 H   0  0  0  0  0  0  0  0  0  0  0  0
   60.4267   32.0933   46.6931 H   0  0  0  0  0  0  0  0  0  0  0  0
   59.7776   29.7415   47.1996 H   0  0  0  0  0  0  0  0  0  0  0  0
   58.8378   25.8353   44.8981 H   0  0  0  0  0  0  0  0  0  0  0  0
  1  2  1  0
  2  3  1  0
  3  4  2  0
  3  5  1  0
  5  6  2  0
  6  7  1  0
  7  8  2  0
  8  9  1  0
  8 10  1  0
 10 11  1  0
 11 12  1  0
 12 13  2  0
 12 14  1  0
 14 15  2  0
 15 16  1  0
 16 17  2  0
 17 18  1  0
 18 19  1  0
 19 20  2  0
 19 21  1  0
 21 22  1  0
 22 23  2  0
 23 24  1  0
 24 25  2  0
 25 26  1  0
 26 27  2  0
 17 28  1  0
 28 29  2  0
 10 30  2  0
 30  5  1  0
 29 14  1  0
 27 22  1  0
  1 31  1  0
  1 32  1  0
  1 33  1  0
  6 34  1  0
  7 35  1  0
 11 36  1  0
 15 37  1  0
 16 38  1  0
 21 39  1  0
 21 40  1  0
 23 41  1  0
 24 42  1  0
 25 43  1  0
 26 44  1  0
 27 45  1  0
 28 46  1  0
 29 47  1  0
 30 48  1  0
M  CHG  2   9  -1  18  -1
M  END
>  <UniqueID>  (43) 
37

>  <SMILES>  (43) 
COC(=O)c1ccc([O-])c(NC(=O)c2ccc([N-]C(=O)Cc3ccccc3)cc2)c1

>  <Energy>  (43) 
57.67012528352677

>  <Genealogy>  (43) 
COC(=O)c1ccc([O-])c(NC(=O)c2ccc([N-]C(=O)Cc3ccccc3)cc2)c1 (protonated)
COC(=O)c1ccc([O-])c(NC(=O)c2ccc([N-]C(=O)Cc3ccccc3)cc2)c1 (3D coordinates assigned)
COC(=O)c1ccc([O-])c(NC(=O)c2ccc([N-]C(=O)Cc3ccccc3)cc2)c1 (optimized conformer: 57.67012528352677 kcal/mol)

>  <smiles>  (43) 
COC(=O)c1ccc(O)c(NC(=O)c2ccc(NC(=O)Cc3ccccc3)cc2)c1

>  <score_type>  (43) 
oracle

>  <origin>  (43) 
adg

>  <m_score__min__energy>  (43) 
-13.77

>  <m_primary>  (43) 
energy

$$$$
43:0
     RDKit          3D

 38 40  0  0  0  0  0  0  0  0999 V2000
   59.4844   32.2677   46.9166 H   0  0  0  0  0  0  0  0  0  0  0  0
   59.1010   31.2970   46.5690 C   0  0  0  0  0  0  0  0  0  0  0  0
   59.6780   30.1200   47.0430 C   0  0  0  0  0  0  0  0  0  0  0  0
   60.5126   30.1696   47.7578 H   0  0  0  0  0  0  0  0  0  0  0  0
   59.2020   28.8760   46.6150 C   0  0  0  0  0  0  0  0  0  0  0  0
   59.8590   27.6110   47.1010 C   0  0  0  0  0  0  0  0  0  0  0  0
   60.3900   27.1343   46.2639 H   0  0  0  0  0  0  0  0  0  0  0  0
   60.5666   27.8637   47.9044 H   0  0  0  0  0  0  0  0  0  0  0  0
   58.8580   26.6830   47.6270 N   0  0  0  0  0  0  0  0  0  0  0  0
   58.0440   25.9780   46.9000 C   0  0  0  0  0  0  0  0  0  0  0  0
   58.5030   24.8590   46.2820 N   0  0  0  0  0  0  0  0  0  0  0  0
   57.6940   24.0950   45.5020 C   0  0  0  0  0  0  0  0  0  0  0  0
   56.3340   24.4440   45.3550 C   0  0  0  0  0  0  0  0  0  0  0  0
   55.8860   25.6120   45.9930 C   0  0  0  0  0  0  0  0  0  0  0  0
   54.6920   25.9960   45.8670 O   0  0  0  0  0  0  0  0  0  0  0  0
   56.7430   26.3430   46.7500 N   0  0  0  0  0  0  0  0  0  0  0  0
   55.4100   23.6590   44.4490 C   0  0  0  0  0  0  0  0  0  0  0  0
   54.4303   23.5666   44.9407 H   0  0  0  0  0  0  0  0  0  0  0  0
   55.3379   24.2040   43.4962 H   0  0  0  0  0  0  0  0  0  0  0  0
   55.9370   22.2540   44.1390 C   0  0  0  0  0  0  0  0  0  0  0  0
   55.8306   21.6222   45.0331 H   0  0  0  0  0  0  0  0  0  0  0  0
   55.3564   21.8325   43.3052 H   0  0  0  0  0  0  0  0  0  0  0  0
   57.4100   22.3110   43.7360 C   0  0  0  0  0  0  0  0  0  0  0  0
   57.7513   21.3014   43.4638 H   0  0  0  0  0  0  0  0  0  0  0  0
   57.5207   22.9897   42.8775 H   0  0  0  0  0  0  0  0  0  0  0  0
   58.2580   22.8350   44.8990 C   0  0  0  0  0  0  0  0  0  0  0  0
   58.3042   22.0606   45.6789 H   0  0  0  0  0  0  0  0  0  0  0  0
   59.2572   23.0714   44.5043 H   0  0  0  0  0  0  0  0  0  0  0  0
   58.1280   28.8230   45.7160 C   0  0  0  0  0  0  0  0  0  0  0  0
   57.7544   27.8460   45.3756 H   0  0  0  0  0  0  0  0  0  0  0  0
   57.5200   30.0010   45.2420 C   0  0  0  0  0  0  0  0  0  0  0  0
   56.3200   29.8720   44.3850 C   0  0  0  0  0  0  0  0  0  0  0  0
   56.3710   30.1960   43.1680 O   0  0  0  0  0  0  0  0  0  0  0  0
   55.1420   29.3340   44.8910 O   0  0  0  0  0  0  0  0  0  0  0  0
   58.0360   31.2600   45.6530 C   0  0  0  0  0  0  0  0  0  0  0  0
   57.5480   32.5430   45.0950 C   0  0  0  0  0  0  0  0  0  0  0  0
   56.6410   33.1870   45.6860 O   0  0  0  0  0  0  0  0  0  0  0  0
   58.1250   33.0840   43.9530 O   0  0  0  0  0  0  0  0  0  0  0  0
  1  2  1  0
  2  3  2  0
  3  4  1  0
  3  5  1  0
  5  6  1  0
  6  7  1  0
  6  8  1  0
  6  9  1  0
  9 10  2  0
 10 11  1  0
 11 12  1  0
 12 13  2  0
 13 14  1  0
 14 15  2  0
 14 16  1  0
 13 17  1  0
 17 18  1  0
 17 19  1  0
 17 20  1  0
 20 21  1  0
 20 22  1  0
 20 23  1  0
 23 24  1  0
 23 25  1  0
 23 26  1  0
 26 27  1  0
 26 28  1  0
  5 29  2  0
 29 30  1  0
 29 31  1  0
 31 32  1  0
 32 33  2  0
 32 34  1  0
 31 35  2  0
 35 36  1  0
 36 37  2  0
 36 38  1  0
 35  2  1  0
 16 10  1  0
 26 12  1  0
M  CHG  4  11  -1  16  -1  34  -1  38  -1
M  END
>  <UniqueID>  (44) 
38

>  <SMILES>  (44) 
O=C([O-])c1ccc(C/N=c2/[n-]c3c(c(=O)[n-]2)CCCC3)cc1C(=O)[O-]

>  <Energy>  (44) 
48.59524175571539

>  <Genealogy>  (44) 
O=C([O-])c1ccc(CN=c2[n-]c3c(c(=O)[n-]2)CCCC3)cc1C(=O)[O-] (protonated)
O=C([O-])c1ccc(C/N=c2/[n-]c3c(c(=O)[n-]2)CCCC3)cc1C(=O)[O-] (cis-trans isomerization)
O=C([O-])c1ccc(C/N=c2/[n-]c3c(c(=O)[n-]2)CCCC3)cc1C(=O)[O-] (3D coordinates assigned)
O=C([O-])c1ccc(C/N=c2/[n-]c3c(c(=O)[n-]2)CCCC3)cc1C(=O)[O-] (nonaromatic ring conformer: 48.59524175571539 kcal/mol)

>  <smiles>  (44) 
O=C(O)c1ccc(CN=c2[nH]c3c(c(=O)[nH]2)CCCC3)cc1C(=O)O

>  <score_type>  (44) 
oracle

>  <origin>  (44) 
adg

>  <m_score__min__energy>  (44) 
-14.69

>  <m_primary>  (44) 
energy

$$$$
44:0
     RDKit          3D

 36 38  0  0  0  0  0  0  0  0999 V2000
   55.8980   28.0110   44.5220 H   0  0  0  0  0  0  0  0  0  0  0  0
   55.5740   28.9670   44.5370 O   0  0  0  0  0  0  0  0  0  0  0  0
   56.4100   30.0480   44.8030 C   0  0  0  0  0  0  0  0  0  0  0  0
   55.9520   31.3240   44.8020 N   0  0  0  0  0  0  0  0  0  0  0  0
   57.0300   32.0710   45.1090 C   0  0  0  0  0  0  0  0  0  0  0  0
   57.0740   33.4570   45.2230 C   0  0  0  0  0  0  0  0  0  0  0  0
   56.1721   34.0671   45.0669 H   0  0  0  0  0  0  0  0  0  0  0  0
   58.3070   34.0550   45.5440 C   0  0  0  0  0  0  0  0  0  0  0  0
   58.3701   35.1489   45.6408 H   0  0  0  0  0  0  0  0  0  0  0  0
   59.4670   33.2690   45.7440 C   0  0  0  0  0  0  0  0  0  0  0  0
   60.6650   33.9310   46.0590 O   0  0  0  0  0  0  0  0  0  0  0  0
   61.5350   33.5880   47.1370 C   0  0  0  0  0  0  0  0  0  0  0  0
   61.4750   32.2270   47.3840 F   0  0  0  0  0  0  0  0  0  0  0  0
   62.8330   33.9540   46.8340 F   0  0  0  0  0  0  0  0  0  0  0  0
   61.1340   34.2660   48.2720 F   0  0  0  0  0  0  0  0  0  0  0  0
   59.3860   31.8610   45.6180 C   0  0  0  0  0  0  0  0  0  0  0  0
   60.2725   31.2266   45.7651 H   0  0  0  0  0  0  0  0  0  0  0  0
   58.1490   31.3040   45.3020 C   0  0  0  0  0  0  0  0  0  0  0  0
   57.7750   30.0000   45.1070 C   0  0  0  0  0  0  0  0  0  0  0  0
   58.6610   28.8760   45.1490 N   0  0  0  0  0  0  0  0  0  0  0  0
   58.2910   27.7240   45.5400 N   0  0  0  0  0  0  0  0  0  0  0  0
   58.2310   27.3800   46.9290 C   0  0  0  0  0  0  0  0  0  0  0  0
   58.8660   28.3790   48.0660 S   0  0  0  0  0  0  0  0  0  0  0  0
   57.5510   26.1880   47.3480 N   0  0  0  0  0  0  0  0  0  0  0  0
   57.3190   26.0760   48.3620 H   0  0  0  0  0  0  0  0  0  0  0  0
   56.9820   25.2530   46.4170 C   0  0  0  0  0  0  0  0  0  0  0  0
   57.6760   24.0700   46.1200 C   0  0  0  0  0  0  0  0  0  0  0  0
   58.6457   23.8689   46.5988 H   0  0  0  0  0  0  0  0  0  0  0  0
   57.1400   23.1460   45.2180 C   0  0  0  0  0  0  0  0  0  0  0  0
   57.6771   22.2097   45.0059 H   0  0  0  0  0  0  0  0  0  0  0  0
   55.9230   23.4110   44.5860 C   0  0  0  0  0  0  0  0  0  0  0  0
   55.5044   22.6846   43.8739 H   0  0  0  0  0  0  0  0  0  0  0  0
   55.2360   24.5980   44.8570 C   0  0  0  0  0  0  0  0  0  0  0  0
   54.2802   24.8057   44.3537 H   0  0  0  0  0  0  0  0  0  0  0  0
   55.7610   25.5230   45.7670 C   0  0  0  0  0  0  0  0  0  0  0  0
   55.0740   26.7080   46.0050 O   0  0  0  0  0  0  0  0  0  0  0  0
  1  2  1  0
  2  3  1  0
  3  4  1  0
  4  5  1  0
  5  6  2  0
  6  7  1  0
  6  8  1  0
  8  9  1  0
  8 10  2  0
 10 11  1  0
 11 12  1  0
 12 13  1  0
 12 14  1  0
 12 15  1  0
 10 16  1  0
 16 17  1  0
 16 18  2  0
 18 19  1  0
 19 20  1  0
 20 21  2  0
 21 22  1  0
 22 23  2  0
 22 24  1  0
 24 25  1  0
 24 26  1  0
 26 27  2  0
 27 28  1  0
 27 29  1  0
 29 30  1  0
 29 31  2  0
 31 32  1  0
 31 33  1  0
 33 34  1  0
 33 35  2  0
 35 36  1  0
 19  3  2  0
 35 26  1  0
 18  5  1  0
M  CHG  2   4  -1  36  -1
M  END
>  <UniqueID>  (45) 
39

>  <SMILES>  (45) 
[O-]c1ccccc1NC(=S)/N=N/c1c(O)[n-]c2ccc(OC(F)(F)F)cc12

>  <Energy>  (45) 
77.63104690925053

>  <Genealogy>  (45) 
[O-]c1ccccc1NC(=S)N=Nc1c(O)[n-]c2ccc(OC(F)(F)F)cc12 (protonated)
[O-]c1ccccc1NC(=S)/N=N/c1c(O)[n-]c2ccc(OC(F)(F)F)cc12 (cis-trans isomerization)
[O-]c1ccccc1NC(=S)/N=N/c1c(O)[n-]c2ccc(OC(F)(F)F)cc12 (3D coordinates assigned)
[O-]c1ccccc1NC(=S)/N=N/c1c(O)[n-]c2ccc(OC(F)(F)F)cc12 (optimized conformer: 77.63104690925053 kcal/mol)

>  <smiles>  (45) 
Oc1ccccc1NC(=S)N=Nc1c(O)[nH]c2ccc(OC(F)(F)F)cc12

>  <score_type>  (45) 
oracle

>  <origin>  (45) 
adg

>  <m_score__min__energy>  (45) 
-12.140000000000001

>  <m_primary>  (45) 
energy

$$$$
45:0
     RDKit          3D

 26 27  0  0  0  0  0  0  0  0999 V2000
   58.0981   34.2866   47.6737 H   0  0  0  0  0  0  0  0  0  0  0  0
   58.0910   33.8970   46.6450 C   0  0  0  0  0  0  0  0  0  0  0  0
   58.7130   34.5890   45.6540 N   0  0  0  0  0  0  0  0  0  0  0  0
   58.7300   34.1380   44.3740 C   0  0  0  0  0  0  0  0  0  0  0  0
   59.2448   34.7198   43.5952 H   0  0  0  0  0  0  0  0  0  0  0  0
   58.0960   32.9370   44.0410 C   0  0  0  0  0  0  0  0  0  0  0  0
   58.1410   32.3820   42.3710 Cl  0  0  0  0  0  0  0  0  0  0  0  0
   57.4250   32.2030   45.0370 C   0  0  0  0  0  0  0  0  0  0  0  0
   56.8440   31.0820   44.7030 N   0  0  0  0  0  0  0  0  0  0  0  0
   57.3610   29.7420   44.7600 C   0  0  0  0  0  0  0  0  0  0  0  0
   58.4220   29.4340   44.1530 O   0  0  0  0  0  0  0  0  0  0  0  0
   56.7230   28.7890   45.6190 N   0  0  0  0  0  0  0  0  0  0  0  0
   56.0530   29.1520   46.3340 H   0  0  0  0  0  0  0  0  0  0  0  0
   57.0890   27.4010   45.6730 C   0  0  0  0  0  0  0  0  0  0  0  0
   58.4460   27.0490   45.5980 C   0  0  0  0  0  0  0  0  0  0  0  0
   59.2094   27.8341   45.4937 H   0  0  0  0  0  0  0  0  0  0  0  0
   58.8330   25.7070   45.6550 C   0  0  0  0  0  0  0  0  0  0  0  0
   59.8972   25.4382   45.5825 H   0  0  0  0  0  0  0  0  0  0  0  0
   57.8690   24.7070   45.8040 C   0  0  0  0  0  0  0  0  0  0  0  0
   58.1736   23.6506   45.8387 H   0  0  0  0  0  0  0  0  0  0  0  0
   56.5180   25.0480   45.9090 C   0  0  0  0  0  0  0  0  0  0  0  0
   55.7616   24.2591   46.0329 H   0  0  0  0  0  0  0  0  0  0  0  0
   56.1240   26.3900   45.8570 C   0  0  0  0  0  0  0  0  0  0  0  0
   54.7810   26.7080   46.0190 O   0  0  0  0  0  0  0  0  0  0  0  0
   57.4430   32.6930   46.3610 C   0  0  0  0  0  0  0  0  0  0  0  0
   56.9487   32.1287   47.1655 H   0  0  0  0  0  0  0  0  0  0  0  0
  1  2  1  0
  2  3  1  0
  3  4  1  0
  4  5  1  0
  4  6  2  0
  6  7  1  0
  6  8  1  0
  8  9  2  0
  9 10  1  0
 10 11  2  0
 10 12  1  0
 12 13  1  0
 12 14  1  0
 14 15  2  0
 15 16  1  0
 15 17  1  0
 17 18  1  0
 17 19  2  0
 19 20  1  0
 19 21  1  0
 21 22  1  0
 21 23  2  0
 23 24  1  0
  8 25  1  0
 25 26  1  0
 25  2  2  0
 23 14  1  0
M  CHG  2   3  -1  24  -1
M  END
>  <UniqueID>  (46) 
40

>  <SMILES>  (46) 
O=C(/N=c1\cc[n-]cc1Cl)Nc1ccccc1[O-]

>  <Energy>  (46) 
40.820712391877784

>  <Genealogy>  (46) 
O=C(N=c1cc[n-]cc1Cl)Nc1ccccc1[O-] (protonated)
O=C(/N=c1\cc[n-]cc1Cl)Nc1ccccc1[O-] (cis-trans isomerization)
O=C(/N=c1\cc[n-]cc1Cl)Nc1ccccc1[O-] (3D coordinates assigned)
O=C(/N=c1\cc[n-]cc1Cl)Nc1ccccc1[O-] (optimized conformer: 40.820712391877784 kcal/mol)

>  <smiles>  (46) 
O=C(N=c1cc[nH]cc1Cl)Nc1ccccc1O

>  <score_type>  (46) 
oracle

>  <origin>  (46) 
adg

>  <m_score__min__energy>  (46) 
-11.619999999999999

>  <m_primary>  (46) 
energy

$$$$
46:0
     RDKit          3D

 48 51  0  0  0  0  0  0  0  0999 V2000
   56.4980   30.4360   44.5070 O   0  0  0  0  0  0  0  0  0  0  0  0
   57.3970   31.1390   45.0430 C   0  0  0  0  0  0  0  0  0  0  0  0
   57.3790   32.6230   44.8540 C   0  0  0  0  0  0  0  0  0  0  0  0
   57.3390   33.4350   46.4820 S   0  0  0  0  0  0  0  0  0  0  0  0
   59.1110   33.3330   46.7000 C   0  0  0  0  0  0  0  0  0  0  0  0
   59.7120   32.3800   47.4530 N   0  0  0  0  0  0  0  0  0  0  0  0
   61.0590   32.5390   47.4420 C   0  0  0  0  0  0  0  0  0  0  0  0
   61.9580   31.7140   48.1210 C   0  0  0  0  0  0  0  0  0  0  0  0
   63.3330   31.9900   48.0280 C   0  0  0  0  0  0  0  0  0  0  0  0
   63.7910   33.0800   47.2600 C   0  0  0  0  0  0  0  0  0  0  0  0
   62.8790   33.9030   46.5810 C   0  0  0  0  0  0  0  0  0  0  0  0
   61.5220   33.6090   46.6910 C   0  0  0  0  0  0  0  0  0  0  0  0
   60.2160   34.4050   45.9990 S   0  0  0  0  0  0  0  0  0  0  0  0
   58.4290   30.5300   45.8340 N   0  0  0  0  0  0  0  0  0  0  0  0
   58.6700   29.1140   45.8940 C   0  0  0  0  0  0  0  0  0  0  0  0
   59.9740   28.5920   45.9290 C   0  0  0  0  0  0  0  0  0  0  0  0
   60.1800   27.2120   46.0080 C   0  0  0  0  0  0  0  0  0  0  0  0
   59.0880   26.3420   46.0680 C   0  0  0  0  0  0  0  0  0  0  0  0
   57.7830   26.8510   46.0640 C   0  0  0  0  0  0  0  0  0  0  0  0
   56.3970   25.7650   46.1260 S   0  0  0  0  0  0  0  0  0  0  0  0
   56.3750   25.0430   47.4450 O   0  0  0  0  0  0  0  0  0  0  0  0
   55.1440   26.5900   46.0190 O   0  0  0  0  0  0  0  0  0  0  0  0
   56.4500   24.6230   44.7980 N   0  0  0  0  0  0  0  0  0  0  0  0
   57.8270   24.2020   44.4880 C   0  0  0  0  0  0  0  0  0  0  0  0
   58.3950   23.2270   45.5480 C   0  0  0  0  0  0  0  0  0  0  0  0
   57.3980   22.6140   46.3470 O   0  0  0  0  0  0  0  0  0  0  0  0
   56.3010   22.2280   45.5510 C   0  0  0  0  0  0  0  0  0  0  0  0
   55.5520   23.4690   45.0310 C   0  0  0  0  0  0  0  0  0  0  0  0
   57.5780   28.2350   45.9800 C   0  0  0  0  0  0  0  0  0  0  0  0
   58.2824   32.9352   44.3096 H   0  0  0  0  0  0  0  0  0  0  0  0
   56.4881   32.9105   44.2764 H   0  0  0  0  0  0  0  0  0  0  0  0
   61.5966   30.8636   48.7178 H   0  0  0  0  0  0  0  0  0  0  0  0
   64.0559   31.3519   48.5574 H   0  0  0  0  0  0  0  0  0  0  0  0
   64.8693   33.2867   47.1925 H   0  0  0  0  0  0  0  0  0  0  0  0
   63.2261   34.7558   45.9792 H   0  0  0  0  0  0  0  0  0  0  0  0
   58.9880   31.1500   46.4630 H   0  0  0  0  0  0  0  0  0  0  0  0
   60.8371   29.2730   45.8940 H   0  0  0  0  0  0  0  0  0  0  0  0
   61.2037   26.8098   46.0230 H   0  0  0  0  0  0  0  0  0  0  0  0
   59.2535   25.2557   46.1185 H   0  0  0  0  0  0  0  0  0  0  0  0
   57.8321   23.7018   43.5083 H   0  0  0  0  0  0  0  0  0  0  0  0
   58.4611   25.1009   44.4829 H   0  0  0  0  0  0  0  0  0  0  0  0
   58.9580   22.4378   45.0283 H   0  0  0  0  0  0  0  0  0  0  0  0
   59.0305   23.8189   46.2231 H   0  0  0  0  0  0  0  0  0  0  0  0
   56.6633   21.6386   44.6958 H   0  0  0  0  0  0  0  0  0  0  0  0
   55.6122   21.6251   46.1609 H   0  0  0  0  0  0  0  0  0  0  0  0
   55.0583   23.2103   44.0827 H   0  0  0  0  0  0  0  0  0  0  0  0
   54.8244   23.7646   45.8012 H   0  0  0  0  0  0  0  0  0  0  0  0
   56.5537   28.6359   45.9814 H   0  0  0  0  0  0  0  0  0  0  0  0
  1  2  2  0
  2  3  1  0
  3  4  1  0
  4  5  1  0
  5  6  2  0
  6  7  1  0
  7  8  2  0
  8  9  1  0
  9 10  2  0
 10 11  1  0
 11 12  2  0
 12 13  1  0
  2 14  1  0
 14 15  1  0
 15 16  2  0
 16 17  1  0
 17 18  2  0
 18 19  1  0
 19 20  1  0
 20 21  2  0
 20 22  2  0
 20 23  1  0
 23 24  1  0
 24 25  1  0
 25 26  1  0
 26 27  1  0
 27 28  1  0
 19 29  2  0
 13  5  1  0
 29 15  1  0
 12  7  1  0
 28 23  1  0
  3 30  1  0
  3 31  1  0
  8 32  1  0
  9 33  1  0
 10 34  1  0
 11 35  1  0
 14 36  1  0
 16 37  1  0
 17 38  1  0
 18 39  1  0
 24 40  1  0
 24 41  1  0
 25 42  1  0
 25 43  1  0
 27 44  1  0
 27 45  1  0
 28 46  1  0
 28 47  1  0
 29 48  1  0
M  END
>  <UniqueID>  (47) 
41

>  <SMILES>  (47) 
O=C(CSc1nc2ccccc2s1)Nc1cccc(S(=O)(=O)N2CCOCC2)c1

>  <Energy>  (47) 
94.70441852451444

>  <Genealogy>  (47) 
O=C(CSc1nc2ccccc2s1)Nc1cccc(S(=O)(=O)N2CCOCC2)c1 (3D coordinates assigned)
O=C(CSc1nc2ccccc2s1)Nc1cccc(S(=O)(=O)N2CCOCC2)c1 (nonaromatic ring conformer: 94.70441852451444 kcal/mol)

>  <smiles>  (47) 
O=C(CSc1nc2ccccc2s1)Nc1cccc(S(=O)(=O)N2CCOCC2)c1

>  <score_type>  (47) 
oracle

>  <origin>  (47) 
adg

>  <m_score__min__energy>  (47) 
-9.9100000000000001

>  <m_primary>  (47) 
energy

$$$$
47:0
     RDKit          3D

 48 51  0  0  0  0  0  0  0  0999 V2000
   58.4040   29.0710   43.7350 N   0  0  0  0  0  0  0  0  0  0  0  0
   57.4840   29.6010   45.1020 S   0  0  0  0  0  0  0  0  0  0  0  0
   56.2350   28.7740   45.2120 O   0  0  0  0  0  0  0  0  0  0  0  0
   57.1090   31.0420   44.8910 O   0  0  0  0  0  0  0  0  0  0  0  0
   58.4130   29.4520   46.5930 C   0  0  0  0  0  0  0  0  0  0  0  0
   58.9780   28.2230   46.9690 C   0  0  0  0  0  0  0  0  0  0  0  0
   59.6830   28.1140   48.1690 C   0  0  0  0  0  0  0  0  0  0  0  0
   59.8290   29.2260   49.0020 C   0  0  0  0  0  0  0  0  0  0  0  0
   59.2770   30.4660   48.6320 C   0  0  0  0  0  0  0  0  0  0  0  0
   59.3730   31.5990   49.4530 O   0  0  0  0  0  0  0  0  0  0  0  0
   58.9420   31.6730   50.7860 C   0  0  0  0  0  0  0  0  0  0  0  0
   59.5650   32.5810   51.6480 C   0  0  0  0  0  0  0  0  0  0  0  0
   59.1590   32.6790   52.9820 C   0  0  0  0  0  0  0  0  0  0  0  0
   58.1250   31.8680   53.4620 C   0  0  0  0  0  0  0  0  0  0  0  0
   57.4920   30.9520   52.6130 C   0  0  0  0  0  0  0  0  0  0  0  0
   56.4670   30.1490   53.1330 O   0  0  0  0  0  0  0  0  0  0  0  0
   55.1670   30.0660   52.6160 C   0  0  0  0  0  0  0  0  0  0  0  0
   54.3440   29.0340   52.8990 N   0  0  0  0  0  0  0  0  0  0  0  0
   53.1300   29.1730   52.3010 C   0  0  0  0  0  0  0  0  0  0  0  0
   52.9810   30.3300   51.5420 C   0  0  0  0  0  0  0  0  0  0  0  0
   51.7990   30.7110   50.7580 C   0  0  0  0  0  0  0  0  0  0  0  0
   51.4500   29.9990   49.7780 O   0  0  0  0  0  0  0  0  0  0  0  0
   51.0210   31.8500   51.1560 N   0  0  0  0  0  0  0  0  0  0  0  0
   50.6910   32.2470   52.4960 C   0  0  0  0  0  0  0  0  0  0  0  0
   50.6470   31.3310   53.5650 C   0  0  0  0  0  0  0  0  0  0  0  0
   50.3040   31.7650   54.8500 C   0  0  0  0  0  0  0  0  0  0  0  0
   49.9820   33.1050   55.0770 C   0  0  0  0  0  0  0  0  0  0  0  0
   49.9980   34.0150   54.0160 C   0  0  0  0  0  0  0  0  0  0  0  0
   50.3450   33.5860   52.7310 C   0  0  0  0  0  0  0  0  0  0  0  0
   54.4110   31.2110   51.6350 S   0  0  0  0  0  0  0  0  0  0  0  0
   57.9310   30.8310   51.2820 C   0  0  0  0  0  0  0  0  0  0  0  0
   58.5590   30.5640   47.4340 C   0  0  0  0  0  0  0  0  0  0  0  0
   59.0900   29.8250   43.5070 H   0  0  0  0  0  0  0  0  0  0  0  0
   57.7470   28.9970   42.9260 H   0  0  0  0  0  0  0  0  0  0  0  0
   58.8650   27.3444   46.3169 H   0  0  0  0  0  0  0  0  0  0  0  0
   60.1249   27.1495   48.4596 H   0  0  0  0  0  0  0  0  0  0  0  0
   60.3776   29.1317   49.9507 H   0  0  0  0  0  0  0  0  0  0  0  0
   60.3781   33.2209   51.2747 H   0  0  0  0  0  0  0  0  0  0  0  0
   59.6532   33.3948   53.6553 H   0  0  0  0  0  0  0  0  0  0  0  0
   57.8076   31.9504   54.5120 H   0  0  0  0  0  0  0  0  0  0  0  0
   52.3278   28.4282   52.4091 H   0  0  0  0  0  0  0  0  0  0  0  0
   50.8830   30.2711   53.3890 H   0  0  0  0  0  0  0  0  0  0  0  0
   50.2879   31.0484   55.6844 H   0  0  0  0  0  0  0  0  0  0  0  0
   49.7162   33.4438   56.0892 H   0  0  0  0  0  0  0  0  0  0  0  0
   49.7375   35.0691   54.1920 H   0  0  0  0  0  0  0  0  0  0  0  0
   50.3466   34.3043   51.8979 H   0  0  0  0  0  0  0  0  0  0  0  0
   57.4804   30.0726   50.6249 H   0  0  0  0  0  0  0  0  0  0  0  0
   58.1043   31.5244   47.1495 H   0  0  0  0  0  0  0  0  0  0  0  0
  1  2  1  0
  2  3  2  0
  2  4  2  0
  2  5  1  0
  5  6  2  0
  6  7  1  0
  7  8  2  0
  8  9  1  0
  9 10  1  0
 10 11  1  0
 11 12  2  0
 12 13  1  0
 13 14  2  0
 14 15  1  0
 15 16  1  0
 16 17  1  0
 17 18  2  0
 18 19  1  0
 19 20  2  0
 20 21  1  0
 21 22  2  0
 21 23  1  0
 23 24  1  0
 24 25  2  0
 25 26  1  0
 26 27  2  0
 27 28  1  0
 28 29  2  0
 20 30  1  0
 15 31  2  0
  9 32  2  0
 32  5  1  0
 31 11  1  0
 30 17  1  0
 29 24  1  0
  1 33  1  0
  1 34  1  0
  6 35  1  0
  7 36  1  0
  8 37  1  0
 12 38  1  0
 13 39  1  0
 14 40  1  0
 19 41  1  0
 25 42  1  0
 26 43  1  0
 27 44  1  0
 28 45  1  0
 29 46  1  0
 31 47  1  0
 32 48  1  0
M  CHG  1  23  -1
M  END
>  <UniqueID>  (48) 
42

>  <SMILES>  (48) 
NS(=O)(=O)c1cccc(Oc2cccc(Oc3ncc(C(=O)[N-]c4ccccc4)s3)c2)c1

>  <Energy>  (48) 
95.62822664730575

>  <Genealogy>  (48) 
NS(=O)(=O)c1cccc(Oc2cccc(Oc3ncc(C(=O)[N-]c4ccccc4)s3)c2)c1 (protonated)
NS(=O)(=O)c1cccc(Oc2cccc(Oc3ncc(C(=O)[N-]c4ccccc4)s3)c2)c1 (3D coordinates assigned)
NS(=O)(=O)c1cccc(Oc2cccc(Oc3ncc(C(=O)[N-]c4ccccc4)s3)c2)c1 (optimized conformer: 95.62822664730575 kcal/mol)

>  <smiles>  (48) 
NS(=O)(=O)c1cccc(Oc2cccc(Oc3ncc(C(=O)Nc4ccccc4)s3)c2)c1

>  <score_type>  (48) 
oracle

>  <origin>  (48) 
adg

>  <m_score__min__energy>  (48) 
-11.08

>  <m_primary>  (48) 
energy

$$$$
48:0
     RDKit          3D

 39 41  0  0  0  0  0  0  0  0999 V2000
   57.1840   33.5540   52.3470 O   0  0  0  0  0  0  0  0  0  0  0  0
   57.4940   32.3920   51.9760 C   0  0  0  0  0  0  0  0  0  0  0  0
   58.6110   32.2220   51.0930 N   0  0  0  0  0  0  0  0  0  0  0  0
   58.5310   31.6240   49.7650 C   0  0  0  0  0  0  0  0  0  0  0  0
   58.8580   32.6620   48.7300 C   0  0  0  0  0  0  0  0  0  0  0  0
   59.8560   33.6190   48.9820 C   0  0  0  0  0  0  0  0  0  0  0  0
   60.1430   34.6020   48.0300 C   0  0  0  0  0  0  0  0  0  0  0  0
   59.4310   34.6440   46.8280 C   0  0  0  0  0  0  0  0  0  0  0  0
   58.4260   33.7050   46.5780 C   0  0  0  0  0  0  0  0  0  0  0  0
   58.1360   32.7200   47.5260 C   0  0  0  0  0  0  0  0  0  0  0  0
   56.7200   31.2430   52.4860 C   0  0  0  0  0  0  0  0  0  0  0  0
   57.1890   30.5110   53.5850 C   0  0  0  0  0  0  0  0  0  0  0  0
   56.4810   29.3980   54.0440 C   0  0  0  0  0  0  0  0  0  0  0  0
   55.2950   29.0110   53.4150 C   0  0  0  0  0  0  0  0  0  0  0  0
   54.7910   29.7570   52.3350 C   0  0  0  0  0  0  0  0  0  0  0  0
   53.5940   29.3370   51.6500 N   0  0  0  0  0  0  0  0  0  0  0  0
   52.6420   30.4140   51.6640 C   0  0  0  0  0  0  0  0  0  0  0  0
   52.0310   30.8170   52.8610 C   0  0  0  0  0  0  0  0  0  0  0  0
   51.0700   31.8280   52.8130 C   0  0  0  0  0  0  0  0  0  0  0  0
   50.5060   32.2160   53.8690 O   0  0  0  0  0  0  0  0  0  0  0  0
   50.7390   32.3920   51.6230 N   0  0  0  0  0  0  0  0  0  0  0  0
   51.3290   31.9860   50.4690 C   0  0  0  0  0  0  0  0  0  0  0  0
   51.0050   32.5160   49.3760 O   0  0  0  0  0  0  0  0  0  0  0  0
   52.2690   31.0050   50.4940 N   0  0  0  0  0  0  0  0  0  0  0  0
   55.5040   30.8810   51.8850 C   0  0  0  0  0  0  0  0  0  0  0  0
   59.2494   30.7942   49.6923 H   0  0  0  0  0  0  0  0  0  0  0  0
   57.5134   31.2428   49.5944 H   0  0  0  0  0  0  0  0  0  0  0  0
   60.4126   33.5946   49.9305 H   0  0  0  0  0  0  0  0  0  0  0  0
   60.9308   35.3439   48.2274 H   0  0  0  0  0  0  0  0  0  0  0  0
   59.6614   35.4158   46.0788 H   0  0  0  0  0  0  0  0  0  0  0  0
   57.8627   33.7415   45.6339 H   0  0  0  0  0  0  0  0  0  0  0  0
   57.3395   31.9874   47.3289 H   0  0  0  0  0  0  0  0  0  0  0  0
   58.1188   30.8143   54.0884 H   0  0  0  0  0  0  0  0  0  0  0  0
   56.8583   28.8243   54.9034 H   0  0  0  0  0  0  0  0  0  0  0  0
   54.7538   28.1199   53.7658 H   0  0  0  0  0  0  0  0  0  0  0  0
   53.8070   29.0540   50.6650 H   0  0  0  0  0  0  0  0  0  0  0  0
   53.1860   28.5030   52.1330 H   0  0  0  0  0  0  0  0  0  0  0  0
   52.3036   30.3461   53.8170 H   0  0  0  0  0  0  0  0  0  0  0  0
   55.1059   31.4826   51.0545 H   0  0  0  0  0  0  0  0  0  0  0  0
  1  2  2  0
  2  3  1  0
  3  4  1  0
  4  5  1  0
  5  6  2  0
  6  7  1  0
  7  8  2  0
  8  9  1  0
  9 10  2  0
  2 11  1  0
 11 12  2  0
 12 13  1  0
 13 14  2  0
 14 15  1  0
 15 16  1  0
 16 17  1  0
 17 18  2  0
 18 19  1  0
 19 20  2  0
 19 21  1  0
 21 22  1  0
 22 23  2  0
 22 24  1  0
 15 25  2  0
 10  5  1  0
 25 11  1  0
 24 17  1  0
  4 26  1  0
  4 27  1  0
  6 28  1  0
  7 29  1  0
  8 30  1  0
  9 31  1  0
 10 32  1  0
 12 33  1  0
 13 34  1  0
 14 35  1  0
 16 36  1  0
 16 37  1  0
 18 38  1  0
 25 39  1  0
M  CHG  4   3  -1  16   1  21  -1  24  -1
M  END
>  <UniqueID>  (49) 
43

>  <SMILES>  (49) 
O=C([N-]Cc1ccccc1)c1cccc([NH2+]c2cc(=O)[n-]c(=O)[n-]2)c1

>  <Energy>  (49) 
46.902397403768916

>  <Genealogy>  (49) 
O=C([N-]Cc1ccccc1)c1cccc([NH2+]c2cc(=O)[n-]c(=O)[n-]2)c1 (protonated)
O=C([N-]Cc1ccccc1)c1cccc([NH2+]c2cc(=O)[n-]c(=O)[n-]2)c1 (3D coordinates assigned)
O=C([N-]Cc1ccccc1)c1cccc([NH2+]c2cc(=O)[n-]c(=O)[n-]2)c1 (optimized conformer: 46.902397403768916 kcal/mol)

>  <smiles>  (49) 
O=C(NCc1ccccc1)c1cccc(Nc2cc(=O)[nH]c(=O)[nH]2)c1

>  <score_type>  (49) 
oracle

>  <origin>  (49) 
adg

>  <m_score__min__energy>  (49) 
-12.99

>  <m_primary>  (49) 
energy

$$$$
49:0
     RDKit          3D

 44 46  0  0  0  0  0  0  0  0999 V2000
   59.5580   32.1490   45.9290 H   0  0  0  0  0  0  0  0  0  0  0  0
   58.6240   32.1310   45.5380 O   0  0  0  0  0  0  0  0  0  0  0  0
   57.9770   30.9230   45.3030 C   0  0  0  0  0  0  0  0  0  0  0  0
   56.6470   30.8180   45.1170 N   0  0  0  0  0  0  0  0  0  0  0  0
   56.4220   29.4970   44.9750 C   0  0  0  0  0  0  0  0  0  0  0  0
   55.1440   28.9640   44.8710 O   0  0  0  0  0  0  0  0  0  0  0  0
   57.5980   28.7620   45.0310 C   0  0  0  0  0  0  0  0  0  0  0  0
   57.7550   27.2940   45.1650 C   0  0  0  0  0  0  0  0  0  0  0  0
   57.8279   26.7142   44.2331 H   0  0  0  0  0  0  0  0  0  0  0  0
   57.8170   26.6010   46.3220 C   0  0  0  0  0  0  0  0  0  0  0  0
   56.6360   25.8200   46.7660 C   0  0  0  0  0  0  0  0  0  0  0  0
   56.7290   25.0560   47.7670 O   0  0  0  0  0  0  0  0  0  0  0  0
   55.4210   25.9210   46.0790 O   0  0  0  0  0  0  0  0  0  0  0  0
   54.7660   24.7980   45.5040 C   0  0  0  0  0  0  0  0  0  0  0  0
   54.3857   24.1460   46.3042 H   0  0  0  0  0  0  0  0  0  0  0  0
   53.9269   25.1420   44.8815 H   0  0  0  0  0  0  0  0  0  0  0  0
   55.4785   24.2370   44.8815 H   0  0  0  0  0  0  0  0  0  0  0  0
   59.0470   26.5760   47.1940 C   0  0  0  0  0  0  0  0  0  0  0  0
   58.7465   26.5821   48.2521 H   0  0  0  0  0  0  0  0  0  0  0  0
   59.6276   25.6659   46.9830 H   0  0  0  0  0  0  0  0  0  0  0  0
   59.6641   27.4618   46.9830 H   0  0  0  0  0  0  0  0  0  0  0  0
   58.5960   29.6910   45.2600 C   0  0  0  0  0  0  0  0  0  0  0  0
   60.3020   29.3250   45.6900 S   0  0  0  0  0  0  0  0  0  0  0  0
   60.2380   29.9850   47.3680 C   0  0  0  0  0  0  0  0  0  0  0  0
   59.1330   29.6230   48.1520 C   0  0  0  0  0  0  0  0  0  0  0  0
   58.2930   29.0814   47.6925 H   0  0  0  0  0  0  0  0  0  0  0  0
   59.0890   29.9430   49.5080 C   0  0  0  0  0  0  0  0  0  0  0  0
   58.2059   29.6757   50.1069 H   0  0  0  0  0  0  0  0  0  0  0  0
   60.1620   30.6010   50.1060 C   0  0  0  0  0  0  0  0  0  0  0  0
   60.1371   30.8289   51.1818 H   0  0  0  0  0  0  0  0  0  0  0  0
   61.2690   30.9710   49.3390 C   0  0  0  0  0  0  0  0  0  0  0  0
   62.1237   31.4677   49.8215 H   0  0  0  0  0  0  0  0  0  0  0  0
   61.3030   30.7150   47.9540 C   0  0  0  0  0  0  0  0  0  0  0  0
   62.4850   31.2040   47.1440 C   0  0  0  0  0  0  0  0  0  0  0  0
   63.3213   30.5036   47.2859 H   0  0  0  0  0  0  0  0  0  0  0  0
   62.1660   31.2539   46.0924 H   0  0  0  0  0  0  0  0  0  0  0  0
   63.0400   32.8850   47.6310 S   0  0  0  0  0  0  0  0  0  0  0  0
   61.4260   33.6620   47.5350 C   0  0  0  0  0  0  0  0  0  0  0  0
   60.7890   33.8900   46.3670 N   0  0  0  0  0  0  0  0  0  0  0  0
   59.6330   34.4620   46.7400 C   0  0  0  0  0  0  0  0  0  0  0  0
   58.8418   34.8032   46.0562 H   0  0  0  0  0  0  0  0  0  0  0  0
   59.5940   34.5540   48.1100 C   0  0  0  0  0  0  0  0  0  0  0  0
   58.7654   34.9774   48.6967 H   0  0  0  0  0  0  0  0  0  0  0  0
   60.7280   34.0450   48.6200 N   0  0  0  0  0  0  0  0  0  0  0  0
  1  2  1  0
  2  3  1  0
  3  4  1  0
  4  5  1  0
  5  6  1  0
  5  7  2  0
  7  8  1  0
  8  9  1  0
  8 10  2  0
 10 11  1  0
 11 12  2  0
 11 13  1  0
 13 14  1  0
 14 15  1  0
 14 16  1  0
 14 17  1  0
 10 18  1  0
 18 19  1  0
 18 20  1  0
 18 21  1  0
  7 22  1  0
 22 23  1  0
 23 24  1  0
 24 25  2  0
 25 26  1  0
 25 27  1  0
 27 28  1  0
 27 29  2  0
 29 30  1  0
 29 31  1  0
 31 32  1  0
 31 33  2  0
 33 34  1  0
 34 35  1  0
 34 36  1  0
 34 37  1  0
 37 38  1  0
 38 39  2  0
 39 40  1  0
 40 41  1  0
 40 42  2  0
 42 43  1  0
 42 44  1  0
 22  3  2  0
 33 24  1  0
 44 38  1  0
M  CHG  3   4  -1   6  -1  44  -1
M  END
>  <UniqueID>  (50) 
44

>  <SMILES>  (50) 
COC(=O)/C(C)=C/c1c([O-])[n-]c(O)c1Sc1ccccc1CSc1ncc[n-]1

>  <Energy>  (50) 
99.35928902349437

>  <Genealogy>  (50) 
COC(=O)C(C)=Cc1c([O-])[n-]c(O)c1Sc1ccccc1CSc1ncc[n-]1 (protonated)
COC(=O)/C(C)=C/c1c([O-])[n-]c(O)c1Sc1ccccc1CSc1ncc[n-]1 (cis-trans isomerization)
COC(=O)/C(C)=C/c1c([O-])[n-]c(O)c1Sc1ccccc1CSc1ncc[n-]1 (3D coordinates assigned)
COC(=O)/C(C)=C/c1c([O-])[n-]c(O)c1Sc1ccccc1CSc1ncc[n-]1 (optimized conformer: 99.35928902349437 kcal/mol)

>  <smiles>  (50) 
COC(=O)C(C)=Cc1c(O)[nH]c(O)c1Sc1ccccc1CSc1ncc[nH]1

>  <score_type>  (50) 
oracle

>  <origin>  (50) 
adg

>  <m_score__min__energy>  (50) 
-13.93

>  <m_primary>  (50) 
energy

$$$$
50:0
     RDKit          3D

 51 53  0  0  0  0  0  0  0  0999 V2000
   57.0370   31.5610   45.5540 O   0  0  0  0  0  0  0  0  0  0  0  0
   57.5430   32.6450   45.9500 C   0  0  0  0  0  0  0  0  0  0  0  0
   57.8910   32.8180   47.3990 C   0  0  0  0  0  0  0  0  0  0  0  0
   58.7230   31.6650   47.8950 C   0  0  0  0  0  0  0  0  0  0  0  0
   59.6700   31.0590   47.0540 C   0  0  0  0  0  0  0  0  0  0  0  0
   60.3890   29.9420   47.4920 C   0  0  0  0  0  0  0  0  0  0  0  0
   60.1440   29.3990   48.7620 C   0  0  0  0  0  0  0  0  0  0  0  0
   60.8460   28.1760   49.1850 C   0  0  0  0  0  0  0  0  0  0  0  0
   61.6850   28.2430   50.1220 O   0  0  0  0  0  0  0  0  0  0  0  0
   60.6230   26.9170   48.5380 N   0  0  0  0  0  0  0  0  0  0  0  0
   60.3610   26.7390   47.1110 C   0  0  0  0  0  0  0  0  0  0  0  0
   58.8790   26.7380   46.8430 C   0  0  0  0  0  0  0  0  0  0  0  0
   58.1180   25.5890   47.1120 C   0  0  0  0  0  0  0  0  0  0  0  0
   56.7500   25.5680   46.8260 C   0  0  0  0  0  0  0  0  0  0  0  0
   56.1300   26.6880   46.2660 C   0  0  0  0  0  0  0  0  0  0  0  0
   54.7690   26.6490   45.9830 O   0  0  0  0  0  0  0  0  0  0  0  0
   56.8830   27.8420   45.9920 C   0  0  0  0  0  0  0  0  0  0  0  0
   56.2940   28.9710   45.4230 O   0  0  0  0  0  0  0  0  0  0  0  0
   58.2500   27.8640   46.2860 C   0  0  0  0  0  0  0  0  0  0  0  0
   59.2100   30.0130   49.6080 C   0  0  0  0  0  0  0  0  0  0  0  0
   58.5030   31.1370   49.1770 C   0  0  0  0  0  0  0  0  0  0  0  0
   57.8460   33.6850   45.0160 N   0  0  0  0  0  0  0  0  0  0  0  0
   59.1940   34.1880   44.7840 C   0  0  0  0  0  0  0  0  0  0  0  0
   59.6010   35.1440   45.9070 C   0  0  0  0  0  0  0  0  0  0  0  0
   60.6030   34.5070   46.8360 C   0  0  0  0  0  0  0  0  0  0  0  0
   61.7000   33.8010   46.3150 C   0  0  0  0  0  0  0  0  0  0  0  0
   62.6060   33.1720   47.1760 C   0  0  0  0  0  0  0  0  0  0  0  0
   62.4190   33.2370   48.5590 C   0  0  0  0  0  0  0  0  0  0  0  0
   61.3250   33.9310   49.0850 C   0  0  0  0  0  0  0  0  0  0  0  0
   60.4190   34.5620   48.2280 C   0  0  0  0  0  0  0  0  0  0  0  0
   58.4592   33.7516   47.5236 H   0  0  0  0  0  0  0  0  0  0  0  0
   56.9587   32.8539   47.9817 H   0  0  0  0  0  0  0  0  0  0  0  0
   59.8472   31.4642   46.0468 H   0  0  0  0  0  0  0  0  0  0  0  0
   61.1487   29.4881   46.8387 H   0  0  0  0  0  0  0  0  0  0  0  0
   60.8295   27.5621   46.5515 H   0  0  0  0  0  0  0  0  0  0  0  0
   60.7813   25.7746   46.7897 H   0  0  0  0  0  0  0  0  0  0  0  0
   58.6001   24.7023   47.5494 H   0  0  0  0  0  0  0  0  0  0  0  0
   56.1590   24.6659   47.0427 H   0  0  0  0  0  0  0  0  0  0  0  0
   55.8750   29.7000   45.9860 H   0  0  0  0  0  0  0  0  0  0  0  0
   58.8377   28.7706   46.0794 H   0  0  0  0  0  0  0  0  0  0  0  0
   59.0335   29.6076   50.6152 H   0  0  0  0  0  0  0  0  0  0  0  0
   57.7696   31.6115   49.8456 H   0  0  0  0  0  0  0  0  0  0  0  0
   59.8972   33.3426   44.7536 H   0  0  0  0  0  0  0  0  0  0  0  0
   59.2158   34.7288   43.8264 H   0  0  0  0  0  0  0  0  0  0  0  0
   60.0470   36.0468   45.4643 H   0  0  0  0  0  0  0  0  0  0  0  0
   58.7023   35.3973   46.4885 H   0  0  0  0  0  0  0  0  0  0  0  0
   61.8473   33.7424   45.2265 H   0  0  0  0  0  0  0  0  0  0  0  0
   63.4668   32.6255   46.7633 H   0  0  0  0  0  0  0  0  0  0  0  0
   63.1325   32.7421   49.2342 H   0  0  0  0  0  0  0  0  0  0  0  0
   61.1773   33.9804   50.1739 H   0  0  0  0  0  0  0  0  0  0  0  0
   59.5577   35.1043   48.6452 H   0  0  0  0  0  0  0  0  0  0  0  0
  1  2  2  0
  2  3  1  0
  3  4  1  0
  4  5  2  0
  5  6  1  0
  6  7  2  0
  7  8  1  0
  8  9  2  0
  8 10  1  0
 10 11  1  0
 11 12  1  0
 12 13  2  0
 13 14  1  0
 14 15  2  0
 15 16  1  0
 15 17  1  0
 17 18  1  0
 17 19  2  0
  7 20  1  0
 20 21  2  0
  2 22  1  0
 22 23  1  0
 23 24  1  0
 24 25  1  0
 25 26  2  0
 26 27  1  0
 27 28  2  0
 28 29  1  0
 29 30  2  0
 21  4  1  0
 30 25  1  0
 19 12  1  0
  3 31  1  0
  3 32  1  0
  5 33  1  0
  6 34  1  0
 11 35  1  0
 11 36  1  0
 13 37  1  0
 14 38  1  0
 18 39  1  0
 19 40  1  0
 20 41  1  0
 21 42  1  0
 23 43  1  0
 23 44  1  0
 24 45  1  0
 24 46  1  0
 26 47  1  0
 27 48  1  0
 28 49  1  0
 29 50  1  0
 30 51  1  0
M  CHG  3  10  -1  16  -1  22  -1
M  END
>  <UniqueID>  (51) 
45

>  <SMILES>  (51) 
O=C(Cc1ccc(C(=O)[N-]Cc2ccc([O-])c(O)c2)cc1)[N-]CCc1ccccc1

>  <Energy>  (51) 
45.06366747787141

>  <Genealogy>  (51) 
O=C(Cc1ccc(C(=O)[N-]Cc2ccc([O-])c(O)c2)cc1)[N-]CCc1ccccc1 (protonated)
O=C(Cc1ccc(C(=O)[N-]Cc2ccc([O-])c(O)c2)cc1)[N-]CCc1ccccc1 (3D coordinates assigned)
O=C(Cc1ccc(C(=O)[N-]Cc2ccc([O-])c(O)c2)cc1)[N-]CCc1ccccc1 (optimized conformer: 45.06366747787141 kcal/mol)

>  <smiles>  (51) 
O=C(Cc1ccc(C(=O)NCc2ccc(O)c(O)c2)cc1)NCCc1ccccc1

>  <score_type>  (51) 
oracle

>  <origin>  (51) 
adg

>  <m_score__min__energy>  (51) 
-14.539999999999999

>  <m_primary>  (51) 
energy

$$$$
51:0
     RDKit          3D

 34 36  0  0  0  0  0  0  0  0999 V2000
   54.7550   29.6400   43.3780 O   0  0  0  0  0  0  0  0  0  0  0  0
   55.7470   29.7130   44.1500 C   0  0  0  0  0  0  0  0  0  0  0  0
   55.8780   28.7380   45.1970 N   0  0  0  0  0  0  0  0  0  0  0  0
   56.9760   28.1290   45.5410 C   0  0  0  0  0  0  0  0  0  0  0  0
   58.1920   28.7170   45.3400 N   0  0  0  0  0  0  0  0  0  0  0  0
   59.3570   28.1000   45.6710 C   0  0  0  0  0  0  0  0  0  0  0  0
   59.3350   26.8230   46.2320 C   0  0  0  0  0  0  0  0  0  0  0  0
   58.1100   26.1890   46.4390 C   0  0  0  0  0  0  0  0  0  0  0  0
   56.9190   26.8340   46.0910 C   0  0  0  0  0  0  0  0  0  0  0  0
   55.7050   26.1780   46.3030 O   0  0  0  0  0  0  0  0  0  0  0  0
   56.6970   30.8390   44.0150 C   0  0  0  0  0  0  0  0  0  0  0  0
   57.0480   31.3460   42.7620 C   0  0  0  0  0  0  0  0  0  0  0  0
   57.9450   32.4060   42.6850 C   0  0  0  0  0  0  0  0  0  0  0  0
   58.4670   32.9510   43.8580 C   0  0  0  0  0  0  0  0  0  0  0  0
   59.3110   33.8850   43.7830 O   0  0  0  0  0  0  0  0  0  0  0  0
   58.0740   32.4480   45.0720 N   0  0  0  0  0  0  0  0  0  0  0  0
   58.5710   32.9820   46.3140 C   0  0  0  0  0  0  0  0  0  0  0  0
   58.9700   32.1300   47.3610 C   0  0  0  0  0  0  0  0  0  0  0  0
   59.4760   32.6620   48.5510 C   0  0  0  0  0  0  0  0  0  0  0  0
   59.6000   34.0450   48.7040 C   0  0  0  0  0  0  0  0  0  0  0  0
   59.2230   34.8990   47.6630 C   0  0  0  0  0  0  0  0  0  0  0  0
   58.7170   34.3710   46.4720 C   0  0  0  0  0  0  0  0  0  0  0  0
   57.2210   31.4200   45.1280 N   0  0  0  0  0  0  0  0  0  0  0  0
   60.3171   28.6076   45.4965 H   0  0  0  0  0  0  0  0  0  0  0  0
   60.2741   26.3212   46.5083 H   0  0  0  0  0  0  0  0  0  0  0  0
   58.0807   25.1802   46.8766 H   0  0  0  0  0  0  0  0  0  0  0  0
   55.1410   26.3360   47.1290 H   0  0  0  0  0  0  0  0  0  0  0  0
   56.6199   30.9119   41.8464 H   0  0  0  0  0  0  0  0  0  0  0  0
   58.2406   32.8116   41.7062 H   0  0  0  0  0  0  0  0  0  0  0  0
   58.8833   31.0399   47.2424 H   0  0  0  0  0  0  0  0  0  0  0  0
   59.7770   31.9902   49.3683 H   0  0  0  0  0  0  0  0  0  0  0  0
   59.9939   34.4618   49.6427 H   0  0  0  0  0  0  0  0  0  0  0  0
   59.3248   35.9878   47.7816 H   0  0  0  0  0  0  0  0  0  0  0  0
   58.4311   35.0470   45.6527 H   0  0  0  0  0  0  0  0  0  0  0  0
  1  2  2  0
  2  3  1  0
  3  4  2  3
  4  5  1  0
  5  6  1  0
  6  7  2  0
  7  8  1  0
  8  9  2  0
  9 10  1  0
  2 11  1  0
 11 12  1  0
 12 13  2  0
 13 14  1  0
 14 15  2  0
 14 16  1  0
 16 17  1  0
 17 18  2  0
 18 19  1  0
 19 20  2  0
 20 21  1  0
 21 22  2  0
 16 23  1  0
  9  4  1  0
 23 11  2  0
 22 17  1  0
  6 24  1  0
  7 25  1  0
  8 26  1  0
 10 27  1  0
 12 28  1  0
 13 29  1  0
 18 30  1  0
 19 31  1  0
 20 32  1  0
 21 33  1  0
 22 34  1  0
M  CHG  1   5  -1
M  END
>  <UniqueID>  (52) 
46

>  <SMILES>  (52) 
O=C(N=c1[n-]cccc1O)c1ccc(=O)n(-c2ccccc2)n1

>  <Energy>  (52) 
51.759724433336345

>  <Genealogy>  (52) 
O=C(N=c1[n-]cccc1O)c1ccc(=O)n(-c2ccccc2)n1 (protonated)
O=C(N=c1[n-]cccc1O)c1ccc(=O)n(-c2ccccc2)n1 (3D coordinates assigned)
O=C(N=c1[n-]cccc1O)c1ccc(=O)n(-c2ccccc2)n1 (optimized conformer: 51.759724433336345 kcal/mol)

>  <smiles>  (52) 
O=C(N=c1[nH]cccc1O)c1ccc(=O)n(-c2ccccc2)n1

>  <score_type>  (52) 
oracle

>  <origin>  (52) 
adg

>  <m_score__min__energy>  (52) 
-10.460000000000001

>  <m_primary>  (52) 
energy

$$$$
52:0
     RDKit          3D

 76 79  0  0  0  0  0  0  0  0999 V2000
   60.2430   21.7510   45.4970 N   0  0  0  0  0  0  0  0  0  0  0  0
   59.2830   21.8550   44.4000 C   0  0  0  0  0  0  0  0  0  0  0  0
   58.2530   22.9010   44.7210 C   0  0  0  0  0  0  0  0  0  0  0  0
   58.1460   23.4160   46.0240 C   0  0  0  0  0  0  0  0  0  0  0  0
   57.1340   24.3270   46.3410 C   0  0  0  0  0  0  0  0  0  0  0  0
   56.2110   24.7340   45.3600 C   0  0  0  0  0  0  0  0  0  0  0  0
   55.1110   25.7030   45.7120 C   0  0  0  0  0  0  0  0  0  0  0  0
   55.6040   27.0730   45.6480 N   0  0  0  0  0  0  0  0  0  0  0  0
   56.9320   27.4540   46.0190 C   0  0  0  0  0  0  0  0  0  0  0  0
   57.4220   27.0780   47.1180 O   0  0  0  0  0  0  0  0  0  0  0  0
   57.7420   28.3260   45.1000 C   0  0  1  0  0  0  0  0  0  0  0  0
   56.8400   29.0100   44.0540 C   0  0  0  0  0  0  0  0  0  0  0  0
   57.0560   30.4940   44.0170 C   0  0  0  0  0  0  0  0  0  0  0  0
   57.6610   31.2000   43.0050 C   0  0  0  0  0  0  0  0  0  0  0  0
   57.6480   32.5070   43.3220 N   0  0  0  0  0  0  0  0  0  0  0  0
   57.0260   32.5510   44.5220 C   0  0  0  0  0  0  0  0  0  0  0  0
   56.6450   31.3400   44.9790 N   0  0  0  0  0  0  0  0  0  0  0  0
   58.4590   29.3280   45.8930 N   0  0  0  0  0  0  0  0  0  0  0  0
   59.6020   28.9800   46.6940 C   0  0  0  0  0  0  0  0  0  0  0  0
   59.9690   27.7740   46.7590 O   0  0  0  0  0  0  0  0  0  0  0  0
   60.3110   30.0250   47.5340 C   0  0  1  0  0  0  0  0  0  0  0  0
   61.6140   30.5200   46.8610 C   0  0  0  0  0  0  0  0  0  0  0  0
   62.3420   31.5510   47.6880 C   0  0  0  0  0  0  0  0  0  0  0  0
   62.7420   32.7740   47.1210 C   0  0  0  0  0  0  0  0  0  0  0  0
   63.3850   33.7380   47.9050 C   0  0  0  0  0  0  0  0  0  0  0  0
   63.6280   33.4900   49.2600 C   0  0  0  0  0  0  0  0  0  0  0  0
   63.2420   32.2720   49.8300 C   0  0  0  0  0  0  0  0  0  0  0  0
   62.6000   31.3060   49.0490 C   0  0  0  0  0  0  0  0  0  0  0  0
   59.4190   31.1660   47.7500 N   0  0  0  0  0  0  0  0  0  0  0  0
   59.1980   32.2390   46.8270 C   0  0  0  0  0  0  0  0  0  0  0  0
   59.4310   32.0320   45.6060 O   0  0  0  0  0  0  0  0  0  0  0  0
   58.7460   33.5720   47.2860 C   0  0  0  0  0  0  0  0  0  0  0  0
   59.5680   34.5020   47.7830 C   0  0  0  0  0  0  0  0  0  0  0  0
   59.7040   34.7020   49.1580 O   0  0  0  0  0  0  0  0  0  0  0  0
   60.3380   33.7440   49.9990 C   0  0  0  0  0  0  0  0  0  0  0  0
   59.3030   33.0760   50.8620 C   0  0  0  0  0  0  0  0  0  0  0  0
   58.7780   33.7310   51.9920 C   0  0  0  0  0  0  0  0  0  0  0  0
   57.7660   33.1260   52.7490 C   0  0  0  0  0  0  0  0  0  0  0  0
   57.2710   31.8730   52.3820 C   0  0  0  0  0  0  0  0  0  0  0  0
   57.7800   31.2230   51.2560 C   0  0  0  0  0  0  0  0  0  0  0  0
   58.7910   31.8200   50.4980 C   0  0  0  0  0  0  0  0  0  0  0  0
   56.3270   24.2270   44.0550 C   0  0  0  0  0  0  0  0  0  0  0  0
   57.3370   23.3100   43.7410 C   0  0  0  0  0  0  0  0  0  0  0  0
   61.1030   22.2690   45.2130 H   0  0  0  0  0  0  0  0  0  0  0  0
   60.5220   20.7460   45.5960 H   0  0  0  0  0  0  0  0  0  0  0  0
   59.8122   22.1350   43.4772 H   0  0  0  0  0  0  0  0  0  0  0  0
   58.7837   20.8847   44.2617 H   0  0  0  0  0  0  0  0  0  0  0  0
   58.8615   23.1011   46.7979 H   0  0  0  0  0  0  0  0  0  0  0  0
   57.0589   24.7277   47.3627 H   0  0  0  0  0  0  0  0  0  0  0  0
   54.2803   25.5827   45.0011 H   0  0  0  0  0  0  0  0  0  0  0  0
   54.7647   25.4948   46.7351 H   0  0  0  0  0  0  0  0  0  0  0  0
   58.4670   27.7003   44.5588 H   0  0  0  0  0  0  0  0  0  0  0  0
   57.0658   28.5925   43.0617 H   0  0  0  0  0  0  0  0  0  0  0  0
   55.7922   28.8239   44.3322 H   0  0  0  0  0  0  0  0  0  0  0  0
   58.0858   30.7675   42.0871 H   0  0  0  0  0  0  0  0  0  0  0  0
   56.8475   33.4859   45.0735 H   0  0  0  0  0  0  0  0  0  0  0  0
   58.0970   30.3100   45.9150 H   0  0  0  0  0  0  0  0  0  0  0  0
   60.5787   29.5575   48.4931 H   0  0  0  0  0  0  0  0  0  0  0  0
   62.2800   29.6581   46.7074 H   0  0  0  0  0  0  0  0  0  0  0  0
   61.3360   30.9946   45.9084 H   0  0  0  0  0  0  0  0  0  0  0  0
   62.5486   32.9736   46.0567 H   0  0  0  0  0  0  0  0  0  0  0  0
   63.6996   34.6914   47.4556 H   0  0  0  0  0  0  0  0  0  0  0  0
   64.1231   34.2534   49.8781 H   0  0  0  0  0  0  0  0  0  0  0  0
   63.4437   32.0742   50.8931 H   0  0  0  0  0  0  0  0  0  0  0  0
   62.2954   30.3504   49.5008 H   0  0  0  0  0  0  0  0  0  0  0  0
   57.6746   33.8105   47.2142 H   0  0  0  0  0  0  0  0  0  0  0  0
   60.1523   35.1258   47.0905 H   0  0  0  0  0  0  0  0  0  0  0  0
   60.8427   32.9882   49.3793 H   0  0  0  0  0  0  0  0  0  0  0  0
   61.0794   34.2477   50.6367 H   0  0  0  0  0  0  0  0  0  0  0  0
   59.1631   34.7199   52.2813 H   0  0  0  0  0  0  0  0  0  0  0  0
   57.3608   33.6389   53.6338 H   0  0  0  0  0  0  0  0  0  0  0  0
   56.4797   31.3978   52.9803 H   0  0  0  0  0  0  0  0  0  0  0  0
   57.3843   30.2388   50.9649 H   0  0  0  0  0  0  0  0  0  0  0  0
   59.1878   31.3034   49.6116 H   0  0  0  0  0  0  0  0  0  0  0  0
   55.6211   24.5520   43.2765 H   0  0  0  0  0  0  0  0  0  0  0  0
   57.4126   22.9080   42.7199 H   0  0  0  0  0  0  0  0  0  0  0  0
  1  2  1  0
  2  3  1  0
  3  4  2  0
  4  5  1  0
  5  6  2  0
  6  7  1  0
  7  8  1  0
  8  9  1  0
  9 10  2  0
  9 11  1  0
 11 12  1  0
 12 13  1  0
 13 14  2  0
 14 15  1  0
 15 16  1  0
 16 17  2  0
 11 18  1  0
 18 19  1  0
 19 20  2  0
 19 21  1  0
 21 22  1  0
 22 23  1  0
 23 24  2  0
 24 25  1  0
 25 26  2  0
 26 27  1  0
 27 28  2  0
 21 29  1  0
 29 30  1  0
 30 31  2  0
 30 32  1  0
 32 33  2  3
 33 34  1  0
 34 35  1  0
 35 36  1  0
 36 37  2  0
 37 38  1  0
 38 39  2  0
 39 40  1  0
 40 41  2  0
  6 42  1  0
 42 43  2  0
 43  3  1  0
 17 13  1  0
 28 23  1  0
 41 36  1  0
  1 44  1  0
  1 45  1  0
  2 46  1  0
  2 47  1  0
  4 48  1  0
  5 49  1  0
  7 50  1  0
  7 51  1  0
 11 52  1  6
 12 53  1  0
 12 54  1  0
 14 55  1  0
 16 56  1  0
 18 57  1  0
 21 58  1  1
 22 59  1  0
 22 60  1  0
 24 61  1  0
 25 62  1  0
 26 63  1  0
 27 64  1  0
 28 65  1  0
 32 66  1  0
 33 67  1  0
 35 68  1  0
 35 69  1  0
 37 70  1  0
 38 71  1  0
 39 72  1  0
 40 73  1  0
 41 74  1  0
 42 75  1  0
 43 76  1  0
M  CHG  3   8  -1  15  -1  29  -1
M  END
>  <UniqueID>  (53) 
47

>  <SMILES>  (53) 
NCc1ccc(C[N-]C(=O)[C@@H](Cc2c[n-]cn2)NC(=O)[C@@H](Cc2ccccc2)[N-]C(=O)C=COCc2ccccc2)cc1

>  <Energy>  (53) 
91.9352293864981

>  <Genealogy>  (53) 
NCc1ccc(C[N-]C(=O)C(Cc2c[n-]cn2)NC(=O)C(Cc2ccccc2)[N-]C(=O)C=COCc2ccccc2)cc1 (protonated)
NCc1ccc(C[N-]C(=O)[C@@H](Cc2c[n-]cn2)NC(=O)[C@@H](Cc2ccccc2)[N-]C(=O)C=COCc2ccccc2)cc1 (chirality)
NCc1ccc(C[N-]C(=O)[C@@H](Cc2c[n-]cn2)NC(=O)[C@@H](Cc2ccccc2)[N-]C(=O)C=COCc2ccccc2)cc1 (3D coordinates assigned)
NCc1ccc(C[N-]C(=O)[C@@H](Cc2c[n-]cn2)NC(=O)[C@@H](Cc2ccccc2)[N-]C(=O)C=COCc2ccccc2)cc1 (optimized conformer: 91.9352293864981 kcal/mol)

>  <smiles>  (53) 
NCc1ccc(CNC(=O)C(Cc2c[nH]cn2)NC(=O)C(Cc2ccccc2)NC(=O)C=COCc2ccccc2)cc1

>  <score_type>  (53) 
oracle

>  <origin>  (53) 
adg

>  <m_score__min__energy>  (53) 
-13.49

>  <m_primary>  (53) 
energy

$$$$
53:0
     RDKit          3D

 38 40  0  0  0  0  0  0  0  0999 V2000
   56.7620   33.7850   44.7980 O   0  0  0  0  0  0  0  0  0  0  0  0
   57.7770   33.2300   45.2980 C   0  0  0  0  0  0  0  0  0  0  0  0
   58.4900   32.1510   44.5470 C   0  0  0  0  0  0  0  0  0  0  0  0
   57.9720   30.8410   44.9770 N   0  0  0  0  0  0  0  0  0  0  0  0
   56.6980   30.4960   44.6320 C   0  0  0  0  0  0  0  0  0  0  0  0
   56.1840   29.2480   44.9600 C   0  0  0  0  0  0  0  0  0  0  0  0
   56.9900   28.3090   45.6100 C   0  0  0  0  0  0  0  0  0  0  0  0
   56.4670   27.0480   45.9560 C   0  0  0  0  0  0  0  0  0  0  0  0
   55.1470   26.7150   45.6650 O   0  0  0  0  0  0  0  0  0  0  0  0
   57.2680   26.1120   46.6040 C   0  0  0  0  0  0  0  0  0  0  0  0
   58.6010   26.4020   46.8810 C   0  0  0  0  0  0  0  0  0  0  0  0
   59.1620   27.6270   46.5120 C   0  0  0  0  0  0  0  0  0  0  0  0
   60.5370   27.7690   46.7190 O   0  0  0  0  0  0  0  0  0  0  0  0
   58.3400   28.6330   45.9180 C   0  0  0  0  0  0  0  0  0  0  0  0
   58.7890   29.9510   45.6310 C   0  0  0  0  0  0  0  0  0  0  0  0
   59.9360   30.3270   45.9960 O   0  0  0  0  0  0  0  0  0  0  0  0
   58.2020   33.5560   46.6220 N   0  0  0  0  0  0  0  0  0  0  0  0
   59.3140   34.4590   46.8930 C   0  0  0  0  0  0  0  0  0  0  0  0
   60.5410   33.6490   47.2400 C   0  0  0  0  0  0  0  0  0  0  0  0
   61.7200   33.8730   46.5060 C   0  0  0  0  0  0  0  0  0  0  0  0
   62.8630   33.1060   46.7460 C   0  0  0  0  0  0  0  0  0  0  0  0
   62.8420   32.1030   47.7140 C   0  0  0  0  0  0  0  0  0  0  0  0
   61.6760   31.8610   48.4430 C   0  0  0  0  0  0  0  0  0  0  0  0
   60.5220   32.6210   48.2110 C   0  0  0  0  0  0  0  0  0  0  0  0
   59.0860   32.2460   49.1570 Cl  0  0  0  0  0  0  0  0  0  0  0  0
   58.3189   32.2785   43.4679 H   0  0  0  0  0  0  0  0  0  0  0  0
   59.5692   32.2080   44.7520 H   0  0  0  0  0  0  0  0  0  0  0  0
   56.0695   31.2156   44.0869 H   0  0  0  0  0  0  0  0  0  0  0  0
   55.1426   28.9986   44.7082 H   0  0  0  0  0  0  0  0  0  0  0  0
   56.8461   25.1397   46.8982 H   0  0  0  0  0  0  0  0  0  0  0  0
   59.2218   25.6555   47.3981 H   0  0  0  0  0  0  0  0  0  0  0  0
   61.0300   28.6490   46.6820 H   0  0  0  0  0  0  0  0  0  0  0  0
   59.5171   35.0700   46.0011 H   0  0  0  0  0  0  0  0  0  0  0  0
   59.0569   35.1181   47.7353 H   0  0  0  0  0  0  0  0  0  0  0  0
   61.7423   34.6587   45.7365 H   0  0  0  0  0  0  0  0  0  0  0  0
   63.7811   33.2939   46.1701 H   0  0  0  0  0  0  0  0  0  0  0  0
   63.7438   31.5024   47.9034 H   0  0  0  0  0  0  0  0  0  0  0  0
   61.6633   31.0678   49.2051 H   0  0  0  0  0  0  0  0  0  0  0  0
  1  2  2  0
  2  3  1  0
  3  4  1  0
  4  5  1  0
  5  6  2  0
  6  7  1  0
  7  8  2  0
  8  9  1  0
  8 10  1  0
 10 11  2  0
 11 12  1  0
 12 13  1  0
 12 14  2  0
 14 15  1  0
 15 16  2  0
  2 17  1  0
 17 18  1  0
 18 19  1  0
 19 20  2  0
 20 21  1  0
 21 22  2  0
 22 23  1  0
 23 24  2  0
 24 25  1  0
 15  4  1  0
 24 19  1  0
 14  7  1  0
  3 26  1  0
  3 27  1  0
  5 28  1  0
  6 29  1  0
 10 30  1  0
 11 31  1  0
 13 32  1  0
 18 33  1  0
 18 34  1  0
 20 35  1  0
 21 36  1  0
 22 37  1  0
 23 38  1  0
M  CHG  2   9  -1  17  -1
M  END
>  <UniqueID>  (54) 
48

>  <SMILES>  (54) 
O=C(Cn1ccc2c([O-])ccc(O)c2c1=O)[N-]Cc1ccccc1Cl

>  <Energy>  (54) 
50.17972627423419

>  <Genealogy>  (54) 
O=C(Cn1ccc2c([O-])ccc(O)c2c1=O)[N-]Cc1ccccc1Cl (protonated)
O=C(Cn1ccc2c([O-])ccc(O)c2c1=O)[N-]Cc1ccccc1Cl (3D coordinates assigned)
O=C(Cn1ccc2c([O-])ccc(O)c2c1=O)[N-]Cc1ccccc1Cl (optimized conformer: 50.17972627423419 kcal/mol)

>  <smiles>  (54) 
O=C(Cn1ccc2c(O)ccc(O)c2c1=O)NCc1ccccc1Cl

>  <score_type>  (54) 
oracle

>  <origin>  (54) 
adg

>  <m_score__min__energy>  (54) 
-11.66

>  <m_primary>  (54) 
energy

$$$$
54:0
     RDKit          3D

 29 30  0  0  0  0  0  0  0  0999 V2000
   58.3300   27.1460   43.2070 C   0  0  0  0  0  0  0  0  0  0  0  0
   58.6440   28.1210   44.3050 C   0  0  0  0  0  0  0  0  0  0  0  0
   59.9400   28.6220   44.5040 C   0  0  0  0  0  0  0  0  0  0  0  0
   60.0260   29.5660   45.5180 C   0  0  0  0  0  0  0  0  0  0  0  0
   58.4930   29.7780   46.1730 S   0  0  0  0  0  0  0  0  0  0  0  0
   57.7100   28.6570   45.1960 C   0  0  0  0  0  0  0  0  0  0  0  0
   56.2650   28.3860   45.2460 C   0  0  0  0  0  0  0  0  0  0  0  0
   55.4590   29.2960   44.9230 O   0  0  0  0  0  0  0  0  0  0  0  0
   55.7490   27.1150   45.6560 N   0  0  0  0  0  0  0  0  0  0  0  0
   56.5370   25.8880   45.7020 C   0  0  0  0  0  0  0  0  0  0  0  0
   57.1440   25.7090   47.0930 C   0  0  0  0  0  0  0  0  0  0  0  0
   58.5830   25.9600   47.0570 N   0  0  0  0  0  0  0  0  0  0  0  0
   59.4600   25.4470   46.1730 C   0  0  0  0  0  0  0  0  0  0  0  0
   60.7130   25.9820   46.3960 C   0  0  0  0  0  0  0  0  0  0  0  0
   60.5830   26.8620   47.4540 C   0  0  0  0  0  0  0  0  0  0  0  0
   59.2580   26.8300   47.8340 C   0  0  0  0  0  0  0  0  0  0  0  0
   58.0209   26.1861   43.6463 H   0  0  0  0  0  0  0  0  0  0  0  0
   57.5147   27.5442   42.5852 H   0  0  0  0  0  0  0  0  0  0  0  0
   59.2245   26.9935   42.5852 H   0  0  0  0  0  0  0  0  0  0  0  0
   60.8075   28.2965   43.9111 H   0  0  0  0  0  0  0  0  0  0  0  0
   60.9409   30.0862   45.8380 H   0  0  0  0  0  0  0  0  0  0  0  0
   55.8880   25.0295   45.4744 H   0  0  0  0  0  0  0  0  0  0  0  0
   57.3465   25.9505   44.9599 H   0  0  0  0  0  0  0  0  0  0  0  0
   56.6700   26.4166   47.7891 H   0  0  0  0  0  0  0  0  0  0  0  0
   56.9703   24.6757   47.4278 H   0  0  0  0  0  0  0  0  0  0  0  0
   59.2150   24.7127   45.3914 H   0  0  0  0  0  0  0  0  0  0  0  0
   61.6344   25.7529   45.8405 H   0  0  0  0  0  0  0  0  0  0  0  0
   61.3813   27.4696   47.9050 H   0  0  0  0  0  0  0  0  0  0  0  0
   58.8183   27.4247   48.6483 H   0  0  0  0  0  0  0  0  0  0  0  0
  1  2  1  0
  2  3  1  0
  3  4  2  0
  4  5  1  0
  5  6  1  0
  6  7  1  0
  7  8  2  0
  7  9  1  0
  9 10  1  0
 10 11  1  0
 11 12  1  0
 12 13  1  0
 13 14  2  0
 14 15  1  0
 15 16  2  0
  6  2  2  0
 16 12  1  0
  1 17  1  0
  1 18  1  0
  1 19  1  0
  3 20  1  0
  4 21  1  0
 10 22  1  0
 10 23  1  0
 11 24  1  0
 11 25  1  0
 13 26  1  0
 14 27  1  0
 15 28  1  0
 16 29  1  0
M  CHG  1   9  -1
M  END
>  <UniqueID>  (55) 
49

>  <SMILES>  (55) 
Cc1ccsc1C(=O)[N-]CCn1cccc1

>  <Energy>  (55) 
79.6701295615296

>  <Genealogy>  (55) 
Cc1ccsc1C(=O)[N-]CCn1cccc1 (protonated)
Cc1ccsc1C(=O)[N-]CCn1cccc1 (3D coordinates assigned)
Cc1ccsc1C(=O)[N-]CCn1cccc1 (optimized conformer: 79.6701295615296 kcal/mol)

>  <smiles>  (55) 
Cc1ccsc1C(=O)NCCn1cccc1

>  <score_type>  (55) 
oracle

>  <origin>  (55) 
adg

>  <m_score__min__energy>  (55) 
-7.8399999999999999

>  <m_primary>  (55) 
energy

$$$$
55:0
     RDKit          3D

 42 44  0  0  0  0  0  0  0  0999 V2000
   59.2050   26.6870   47.5670 C   0  0  0  0  0  0  0  0  0  0  0  0
   59.3960   26.7520   46.0460 C   0  0  0  0  0  0  0  0  0  0  0  0
   58.1100   26.6270   45.3180 N   0  0  1  0  0  0  0  0  0  0  0  0
   57.9630   27.6600   44.3020 C   0  0  0  0  0  0  0  0  0  0  0  0
   57.6060   28.9590   44.4880 C   0  0  0  0  0  0  0  0  0  0  0  0
   57.8740   29.7680   45.7070 C   0  0  0  0  0  0  0  0  0  0  0  0
   57.7980   29.2590   46.8570 O   0  0  0  0  0  0  0  0  0  0  0  0
   58.1320   31.2200   45.5640 C   0  0  0  0  0  0  0  0  0  0  0  0
   58.5910   31.9750   46.6580 C   0  0  0  0  0  0  0  0  0  0  0  0
   58.8410   33.3430   46.5160 C   0  0  0  0  0  0  0  0  0  0  0  0
   58.6480   33.9630   45.2820 C   0  0  0  0  0  0  0  0  0  0  0  0
   58.1940   33.2250   44.1870 C   0  0  0  0  0  0  0  0  0  0  0  0
   57.9190   31.8530   44.3210 C   0  0  0  0  0  0  0  0  0  0  0  0
   57.3900   31.0730   43.1740 C   0  0  0  0  0  0  0  0  0  0  0  0
   57.3100   31.5990   42.0320 O   0  0  0  0  0  0  0  0  0  0  0  0
   56.8780   29.6710   43.3680 C   0  0  2  0  0  0  0  0  0  0  0  0
   55.1380   29.7290   43.7430 Cl  0  0  0  0  0  0  0  0  0  0  0  0
   57.8590   25.2500   44.8120 C   0  0  0  0  0  0  0  0  0  0  0  0
   57.1250   24.3630   45.8350 C   0  0  0  0  0  0  0  0  0  0  0  0
   55.6420   24.3750   45.6160 C   0  0  0  0  0  0  0  0  0  0  0  0
   54.9190   23.3240   45.3170 O   0  0  0  0  0  0  0  0  0  0  0  0
   53.6760   23.7460   45.2170 C   0  0  0  0  0  0  0  0  0  0  0  0
   52.7130   22.9860   44.9360 O   0  0  0  0  0  0  0  0  0  0  0  0
   53.5270   25.0700   45.4440 N   0  0  0  0  0  0  0  0  0  0  0  0
   54.7910   25.4540   45.6990 C   0  0  0  0  0  0  0  0  0  0  0  0
   55.1590   26.7630   45.9920 O   0  0  0  0  0  0  0  0  0  0  0  0
   60.1326   27.0027   48.0669 H   0  0  0  0  0  0  0  0  0  0  0  0
   58.3834   27.3561   47.8623 H   0  0  0  0  0  0  0  0  0  0  0  0
   58.9621   25.6556   47.8623 H   0  0  0  0  0  0  0  0  0  0  0  0
   59.8582   27.7160   45.7871 H   0  0  0  0  0  0  0  0  0  0  0  0
   60.0379   25.9098   45.7482 H   0  0  0  0  0  0  0  0  0  0  0  0
   57.3590   26.8360   46.0170 H   0  0  0  0  0  0  0  0  0  0  0  0
   58.1639   27.3543   43.2646 H   0  0  0  0  0  0  0  0  0  0  0  0
   58.7541   31.4868   47.6301 H   0  0  0  0  0  0  0  0  0  0  0  0
   59.1901   33.9305   47.3779 H   0  0  0  0  0  0  0  0  0  0  0  0
   58.8542   35.0378   45.1707 H   0  0  0  0  0  0  0  0  0  0  0  0
   58.0509   33.7196   43.2149 H   0  0  0  0  0  0  0  0  0  0  0  0
   57.0546   29.1118   42.4374 H   0  0  0  0  0  0  0  0  0  0  0  0
   57.2462   25.3166   43.9009 H   0  0  0  0  0  0  0  0  0  0  0  0
   58.8367   24.7868   44.6131 H   0  0  0  0  0  0  0  0  0  0  0  0
   57.4912   23.3302   45.7390 H   0  0  0  0  0  0  0  0  0  0  0  0
   57.3264   24.7607   46.8406 H   0  0  0  0  0  0  0  0  0  0  0  0
  1  2  1  0
  2  3  1  0
  3  4  1  0
  4  5  2  3
  5  6  1  0
  6  7  2  0
  6  8  1  0
  8  9  2  0
  9 10  1  0
 10 11  2  0
 11 12  1  0
 12 13  2  0
 13 14  1  0
 14 15  2  0
 14 16  1  0
 16 17  1  0
  3 18  1  0
 18 19  1  0
 19 20  1  0
 20 21  1  0
 21 22  1  0
 22 23  2  0
 22 24  1  0
 24 25  1  0
 25 26  1  0
 16  5  1  0
 25 20  2  0
 13  8  1  0
  1 27  1  0
  1 28  1  0
  1 29  1  0
  2 30  1  0
  2 31  1  0
  3 32  1  1
  4 33  1  0
  9 34  1  0
 10 35  1  0
 11 36  1  0
 12 37  1  0
 16 38  1  6
 18 39  1  0
 18 40  1  0
 19 41  1  0
 19 42  1  0
M  CHG  3   3   1  24  -1  26  -1
M  END
>  <UniqueID>  (56) 
50

>  <SMILES>  (56) 
CC[N@@H+](C=C1C(=O)c2ccccc2C(=O)[C@@H]1Cl)CCc1oc(=O)[n-]c1[O-]

>  <Energy>  (56) 
90.9688171977691

>  <Genealogy>  (56) 
CC[NH+](C=C1C(=O)c2ccccc2C(=O)C1Cl)CCc1oc(=O)[n-]c1[O-] (protonated)
CC[N@@H+](C=C1C(=O)c2ccccc2C(=O)[C@@H]1Cl)CCc1oc(=O)[n-]c1[O-] (chirality)
CC[N@@H+](C=C1C(=O)c2ccccc2C(=O)[C@@H]1Cl)CCc1oc(=O)[n-]c1[O-] (3D coordinates assigned)
CC[N@@H+](C=C1C(=O)c2ccccc2C(=O)[C@@H]1Cl)CCc1oc(=O)[n-]c1[O-] (nonaromatic ring conformer: 90.9688171977691 kcal/mol)

>  <smiles>  (56) 
CCN(C=C1C(=O)c2ccccc2C(=O)C1Cl)CCc1oc(=O)[nH]c1O

>  <score_type>  (56) 
oracle

>  <origin>  (56) 
adg

>  <m_score__min__energy>  (56) 
-13.390000000000001

>  <m_primary>  (56) 
energy

$$$$
56:0
     RDKit          3D

 23 24  0  0  0  0  0  0  0  0999 V2000
   55.5000   26.7580   46.0230 O   0  0  0  0  0  0  0  0  0  0  0  0
   56.6510   27.1800   45.7380 C   0  0  0  0  0  0  0  0  0  0  0  0
   56.9400   28.6310   45.6180 C   0  0  0  0  0  0  0  0  0  0  0  0
   56.0240   29.4720   44.9710 C   0  0  0  0  0  0  0  0  0  0  0  0
   54.8430   28.9660   44.4390 O   0  0  0  0  0  0  0  0  0  0  0  0
   56.2810   30.7960   44.8580 N   0  0  0  0  0  0  0  0  0  0  0  0
   57.4140   31.3470   45.3590 C   0  0  0  0  0  0  0  0  0  0  0  0
   57.5950   32.5890   45.2370 O   0  0  0  0  0  0  0  0  0  0  0  0
   58.3390   30.5630   45.9960 N   0  0  0  0  0  0  0  0  0  0  0  0
   59.5420   31.1560   46.5250 C   0  0  0  0  0  0  0  0  0  0  0  0
   59.5100   32.4410   47.0910 C   0  0  0  0  0  0  0  0  0  0  0  0
   60.6770   33.0150   47.6040 C   0  0  0  0  0  0  0  0  0  0  0  0
   61.8860   32.3100   47.5550 C   0  0  0  0  0  0  0  0  0  0  0  0
   63.4790   33.0960   48.2560 Br  0  0  0  0  0  0  0  0  0  0  0  0
   61.9250   31.0310   46.9920 C   0  0  0  0  0  0  0  0  0  0  0  0
   60.7580   30.4550   46.4790 C   0  0  0  0  0  0  0  0  0  0  0  0
   58.1190   29.2150   46.1310 C   0  0  0  0  0  0  0  0  0  0  0  0
   58.9810   28.4920   46.7050 O   0  0  0  0  0  0  0  0  0  0  0  0
   57.4626   26.4559   45.5738 H   0  0  0  0  0  0  0  0  0  0  0  0
   58.5625   32.9983   47.1308 H   0  0  0  0  0  0  0  0  0  0  0  0
   60.6455   34.0215   48.0466 H   0  0  0  0  0  0  0  0  0  0  0  0
   62.8744   30.4769   46.9524 H   0  0  0  0  0  0  0  0  0  0  0  0
   60.7930   29.4481   46.0374 H   0  0  0  0  0  0  0  0  0  0  0  0
  1  2  2  0
  2  3  1  0
  3  4  2  0
  4  5  1  0
  4  6  1  0
  6  7  1  0
  7  8  2  0
  7  9  1  0
  9 10  1  0
 10 11  2  0
 11 12  1  0
 12 13  2  0
 13 14  1  0
 13 15  1  0
 15 16  2  0
  9 17  1  0
 17 18  2  0
 17  3  1  0
 16 10  1  0
  2 19  1  0
 11 20  1  0
 12 21  1  0
 15 22  1  0
 16 23  1  0
M  CHG  2   5  -1   6  -1
M  END
>  <UniqueID>  (57) 
51

>  <SMILES>  (57) 
O=Cc1c([O-])[n-]c(=O)n(-c2ccc(Br)cc2)c1=O

>  <Energy>  (57) 
37.36221882644267

>  <Genealogy>  (57) 
O=Cc1c([O-])[n-]c(=O)n(-c2ccc(Br)cc2)c1=O (protonated)
O=Cc1c([O-])[n-]c(=O)n(-c2ccc(Br)cc2)c1=O (3D coordinates assigned)
O=Cc1c([O-])[n-]c(=O)n(-c2ccc(Br)cc2)c1=O (optimized conformer: 37.36221882644267 kcal/mol)

>  <smiles>  (57) 
O=Cc1c(O)[nH]c(=O)n(-c2ccc(Br)cc2)c1=O

>  <score_type>  (57) 
oracle

>  <origin>  (57) 
adg

>  <m_score__min__energy>  (57) 
-11.24

>  <m_primary>  (57) 
energy

$$$$
57:0
     RDKit          3D

 38 40  0  0  0  0  0  0  0  0999 V2000
   59.1380   34.2510   44.5090 C   0  0  0  0  0  0  0  0  0  0  0  0
   58.9020   33.9520   45.9410 N   0  0  0  0  0  0  0  0  0  0  0  0
   59.3430   34.9220   46.8940 C   0  0  0  0  0  0  0  0  0  0  0  0
   60.1290   34.3060   47.9890 C   0  0  0  0  0  0  0  0  0  0  0  0
   59.5950   34.2200   49.2700 C   0  0  0  0  0  0  0  0  0  0  0  0
   60.4010   33.7600   50.3300 C   0  0  0  0  0  0  0  0  0  0  0  0
   61.6950   33.3860   50.1770 C   0  0  0  0  0  0  0  0  0  0  0  0
   62.2260   33.4700   48.8950 C   0  0  0  0  0  0  0  0  0  0  0  0
   63.5230   33.0520   48.7020 C   0  0  0  0  0  0  0  0  0  0  0  0
   64.1420   33.0510   47.4580 C   0  0  0  0  0  0  0  0  0  0  0  0
   63.3690   33.4980   46.4020 C   0  0  0  0  0  0  0  0  0  0  0  0
   62.0610   33.9230   46.5930 C   0  0  0  0  0  0  0  0  0  0  0  0
   61.4610   33.9170   47.8460 C   0  0  0  0  0  0  0  0  0  0  0  0
   58.1930   32.7700   46.1980 C   0  0  0  0  0  0  0  0  0  0  0  0
   56.9030   32.8700   45.9700 O   0  0  0  0  0  0  0  0  0  0  0  0
   58.6120   31.4550   46.6630 C   0  0  0  0  0  0  0  0  0  0  0  0
   58.8340   30.2210   45.4110 S   0  0  0  0  0  0  0  0  0  0  0  0
   57.4250   29.9320   44.3730 C   0  0  0  0  0  0  0  0  0  0  0  0
   56.1790   30.3700   44.7270 N   0  0  0  0  0  0  0  0  0  0  0  0
   55.3550   29.9890   43.7440 C   0  0  0  0  0  0  0  0  0  0  0  0
   56.1040   29.3440   42.8300 N   0  0  0  0  0  0  0  0  0  0  0  0
   57.3700   29.2960   43.1920 N   0  0  0  0  0  0  0  0  0  0  0  0
   59.8173   35.1117   44.4213 H   0  0  0  0  0  0  0  0  0  0  0  0
   59.5909   33.3752   44.0214 H   0  0  0  0  0  0  0  0  0  0  0  0
   58.1809   34.4881   44.0214 H   0  0  0  0  0  0  0  0  0  0  0  0
   59.9710   35.6648   46.3803 H   0  0  0  0  0  0  0  0  0  0  0  0
   58.4529   35.3924   47.3373 H   0  0  0  0  0  0  0  0  0  0  0  0
   58.5499   34.5093   49.4546 H   0  0  0  0  0  0  0  0  0  0  0  0
   59.9569   33.7012   51.3347 H   0  0  0  0  0  0  0  0  0  0  0  0
   62.2966   33.0326   51.0274 H   0  0  0  0  0  0  0  0  0  0  0  0
   64.0964   32.7024   49.5732 H   0  0  0  0  0  0  0  0  0  0  0  0
   65.1808   32.7160   47.3218 H   0  0  0  0  0  0  0  0  0  0  0  0
   63.7992   33.5173   45.3898 H   0  0  0  0  0  0  0  0  0  0  0  0
   61.4825   34.2750   45.7262 H   0  0  0  0  0  0  0  0  0  0  0  0
   59.5696   31.5744   47.1910 H   0  0  0  0  0  0  0  0  0  0  0  0
   57.7903   31.0894   47.2964 H   0  0  0  0  0  0  0  0  0  0  0  0
   54.2710   30.1687   43.6925 H   0  0  0  0  0  0  0  0  0  0  0  0
   55.6560   28.9470   41.9530 H   0  0  0  0  0  0  0  0  0  0  0  0
  1  2  1  0
  2  3  1  0
  3  4  1  0
  4  5  2  0
  5  6  1  0
  6  7  2  0
  7  8  1  0
  8  9  2  0
  9 10  1  0
 10 11  2  0
 11 12  1  0
 12 13  2  0
  2 14  1  0
 14 15  2  0
 14 16  1  0
 16 17  1  0
 17 18  1  0
 18 19  1  0
 19 20  2  0
 20 21  1  0
 21 22  1  0
 13  4  1  0
 22 18  2  0
 13  8  1  0
  1 23  1  0
  1 24  1  0
  1 25  1  0
  3 26  1  0
  3 27  1  0
  5 28  1  0
  6 29  1  0
  7 30  1  0
  9 31  1  0
 10 32  1  0
 11 33  1  0
 12 34  1  0
 16 35  1  0
 16 36  1  0
 20 37  1  0
 21 38  1  0
M  END
>  <smiles>  (58) 
CN(Cc1cccc2ccccc12)C(=O)CSc1nc[nH]n1

>  <score_type>  (58) 
oracle

>  <origin>  (58) 
adg

>  <m_score__min__energy>  (58) 
-8.0500000000000007

>  <m_primary>  (58) 
energy

$$$$
58:0
     RDKit          3D

 48 50  0  0  0  0  0  0  0  0999 V2000
   64.3590   32.7020   49.0410 C   0  0  0  0  0  0  0  0  0  0  0  0
   64.1650   33.1610   47.6660 N   0  0  0  0  0  0  0  0  0  0  0  0
   62.7360   33.3380   47.3820 C   0  0  0  0  0  0  0  0  0  0  0  0
   61.9320   33.3810   48.6840 C   0  0  0  0  0  0  0  0  0  0  0  0
   60.5720   32.8620   48.4830 N   0  0  0  0  0  0  0  0  0  0  0  0
   59.4410   33.7780   48.2730 C   0  0  0  0  0  0  0  0  0  0  0  0
   58.9230   33.6830   46.8610 C   0  0  0  0  0  0  0  0  0  0  0  0
   59.5750   34.3620   45.8190 C   0  0  0  0  0  0  0  0  0  0  0  0
   59.1280   34.2310   44.5020 C   0  0  0  0  0  0  0  0  0  0  0  0
   58.0240   33.4250   44.2130 C   0  0  0  0  0  0  0  0  0  0  0  0
   57.3580   32.7530   45.2420 C   0  0  0  0  0  0  0  0  0  0  0  0
   56.2570   31.9550   44.9410 O   0  0  0  0  0  0  0  0  0  0  0  0
   57.8050   32.8840   46.5640 C   0  0  0  0  0  0  0  0  0  0  0  0
   60.3810   31.4530   48.2770 C   0  0  0  0  0  0  0  0  0  0  0  0
   60.5980   30.5520   49.3280 C   0  0  0  0  0  0  0  0  0  0  0  0
   60.4360   29.1790   49.1220 C   0  0  0  0  0  0  0  0  0  0  0  0
   60.0570   28.6970   47.8660 C   0  0  0  0  0  0  0  0  0  0  0  0
   59.8270   29.5890   46.8070 C   0  0  0  0  0  0  0  0  0  0  0  0
   59.4670   29.0710   45.4430 C   0  0  0  0  0  0  0  0  0  0  0  0
   58.0200   28.6940   45.4030 C   0  0  0  0  0  0  0  0  0  0  0  0
   57.4900   27.4800   45.7880 C   0  0  0  0  0  0  0  0  0  0  0  0
   56.1380   27.6650   45.6300 C   0  0  0  0  0  0  0  0  0  0  0  0
   55.1600   26.7150   45.8950 O   0  0  0  0  0  0  0  0  0  0  0  0
   55.8770   28.9070   45.1880 N   0  0  0  0  0  0  0  0  0  0  0  0
   57.0320   29.5410   45.0550 N   0  0  0  0  0  0  0  0  0  0  0  0
   60.0000   30.9670   47.0170 C   0  0  0  0  0  0  0  0  0  0  0  0
   64.0280   33.4850   49.7391 H   0  0  0  0  0  0  0  0  0  0  0  0
   63.7702   31.7882   49.2090 H   0  0  0  0  0  0  0  0  0  0  0  0
   65.4247   32.4875   49.2090 H   0  0  0  0  0  0  0  0  0  0  0  0
   64.5310   32.4130   47.0320 H   0  0  0  0  0  0  0  0  0  0  0  0
   62.5897   34.2810   46.8349 H   0  0  0  0  0  0  0  0  0  0  0  0
   62.3860   32.4896   46.7756 H   0  0  0  0  0  0  0  0  0  0  0  0
   62.4421   32.7681   49.4417 H   0  0  0  0  0  0  0  0  0  0  0  0
   61.8613   34.4271   49.0167 H   0  0  0  0  0  0  0  0  0  0  0  0
   58.6321   33.5165   48.9711 H   0  0  0  0  0  0  0  0  0  0  0  0
   59.7863   34.8072   48.4507 H   0  0  0  0  0  0  0  0  0  0  0  0
   60.4426   35.0007   46.0411 H   0  0  0  0  0  0  0  0  0  0  0  0
   59.6462   34.7635   43.6909 H   0  0  0  0  0  0  0  0  0  0  0  0
   57.6783   33.3191   43.1741 H   0  0  0  0  0  0  0  0  0  0  0  0
   56.2200   30.9790   45.2140 H   0  0  0  0  0  0  0  0  0  0  0  0
   57.2779   32.3585   47.3739 H   0  0  0  0  0  0  0  0  0  0  0  0
   60.8968   30.9264   50.3182 H   0  0  0  0  0  0  0  0  0  0  0  0
   60.6072   28.4760   49.9505 H   0  0  0  0  0  0  0  0  0  0  0  0
   59.9386   27.6150   47.7069 H   0  0  0  0  0  0  0  0  0  0  0  0
   59.6603   29.8530   44.6939 H   0  0  0  0  0  0  0  0  0  0  0  0
   60.0772   28.1828   45.2220 H   0  0  0  0  0  0  0  0  0  0  0  0
   58.0210   26.5820   46.1368 H   0  0  0  0  0  0  0  0  0  0  0  0
   59.8356   31.6705   46.1875 H   0  0  0  0  0  0  0  0  0  0  0  0
  1  2  1  0
  2  3  1  0
  3  4  1  0
  4  5  1  0
  5  6  1  0
  6  7  1  0
  7  8  2  0
  8  9  1  0
  9 10  2  0
 10 11  1  0
 11 12  1  0
 11 13  2  0
  5 14  1  0
 14 15  2  0
 15 16  1  0
 16 17  2  0
 17 18  1  0
 18 19  1  0
 19 20  1  0
 20 21  1  0
 21 22  2  0
 22 23  1  0
 22 24  1  0
 24 25  1  0
 18 26  2  0
 13  7  1  0
 26 14  1  0
 25 20  2  0
  1 27  1  0
  1 28  1  0
  1 29  1  0
  2 30  1  0
  3 31  1  0
  3 32  1  0
  4 33  1  0
  4 34  1  0
  6 35  1  0
  6 36  1  0
  8 37  1  0
  9 38  1  0
 10 39  1  0
 12 40  1  0
 13 41  1  0
 15 42  1  0
 16 43  1  0
 17 44  1  0
 19 45  1  0
 19 46  1  0
 21 47  1  0
 26 48  1  0
M  CHG  2  23  -1  24  -1
M  END
>  <UniqueID>  (59) 
52

>  <SMILES>  (59) 
CNCCN(Cc1cccc(O)c1)c1cccc(Cc2cc([O-])[n-]n2)c1

>  <Energy>  (59) 
75.06067708038819

>  <Genealogy>  (59) 
CNCCN(Cc1cccc(O)c1)c1cccc(Cc2cc([O-])[n-]n2)c1 (protonated)
CNCCN(Cc1cccc(O)c1)c1cccc(Cc2cc([O-])[n-]n2)c1 (3D coordinates assigned)
CNCCN(Cc1cccc(O)c1)c1cccc(Cc2cc([O-])[n-]n2)c1 (optimized conformer: 75.06067708038819 kcal/mol)

>  <smiles>  (59) 
CNCCN(Cc1cccc(O)c1)c1cccc(Cc2cc(O)[nH]n2)c1

>  <score_type>  (59) 
oracle

>  <origin>  (59) 
adg

>  <m_score__min__energy>  (59) 
-14.300000000000001

>  <m_primary>  (59) 
energy

$$$$
59:0
     RDKit          3D

 41 43  0  0  1  0  0  0  0  0999 V2000
   57.3990   28.6190   43.5050 C   0  0  0  0  0  0  0  0  0  0  0  0
   56.6490   29.6960   44.7130 S   0  0  0  0  0  0  0  0  0  0  0  0
   57.2470   29.5570   46.0690 O   0  0  0  0  0  0  0  0  0  0  0  0
   55.1820   29.3380   44.8640 O   0  0  0  0  0  0  0  0  0  0  0  0
   56.6820   31.3360   44.1690 N   0  0  0  0  0  0  0  0  0  0  0  0
   57.4270   32.2460   44.7040 C   0  0  0  0  0  0  0  0  0  0  0  0
   58.1070   33.1540   43.9210 C   0  0  0  0  0  0  0  0  0  0  0  0
   58.8930   34.1150   44.5270 C   0  0  0  0  0  0  0  0  0  0  0  0
   59.0170   34.1940   45.8850 C   0  0  0  0  0  0  0  0  0  0  0  0
   59.8270   35.1780   46.6250 C   0  0  0  0  0  0  0  0  0  0  0  0
   60.3870   34.5450   47.8370 C   0  0  0  0  0  0  0  0  0  0  0  0
   59.6170   34.5410   48.9410 N   0  0  0  0  0  0  0  0  0  0  0  0
   59.9790   34.0380   50.1070 N   0  0  0  0  0  0  0  0  0  0  0  0
   61.2070   33.4700   50.2580 C   0  0  0  0  0  0  0  0  0  0  0  0
   61.5670   32.9820   51.3770 O   0  0  0  0  0  0  0  0  0  0  0  0
   62.0270   33.4560   49.1460 C   0  0  0  0  0  0  0  0  0  0  0  0
   61.6330   33.9850   47.9370 C   0  0  0  0  0  0  0  0  0  0  0  0
   62.5640   33.9110   46.8060 C   0  0  0  0  0  0  0  0  0  0  0  0
   63.4410   32.6930   46.7800 C   0  0  0  0  0  0  0  0  0  0  0  0
   63.5830   31.9690   48.0740 C   0  0  0  0  0  0  0  0  0  0  0  0
   63.3830   32.8390   49.2890 C   0  0  0  0  0  0  0  0  0  0  0  0
   58.3040   33.2480   46.6300 C   0  0  0  0  0  0  0  0  0  0  0  0
   57.5360   32.3100   46.0270 N   0  0  0  0  0  0  0  0  0  0  0  0
   57.9545   27.8212   44.0197 H   0  0  0  0  0  0  0  0  0  0  0  0
   56.6154   28.1725   42.8752 H   0  0  0  0  0  0  0  0  0  0  0  0
   58.0895   29.1991   42.8752 H   0  0  0  0  0  0  0  0  0  0  0  0
   58.0247   33.1138   42.8248 H   0  0  0  0  0  0  0  0  0  0  0  0
   59.4344   34.8371   43.8981 H   0  0  0  0  0  0  0  0  0  0  0  0
   60.6478   35.5330   45.9844 H   0  0  0  0  0  0  0  0  0  0  0  0
   59.1937   36.0291   46.9158 H   0  0  0  0  0  0  0  0  0  0  0  0
   59.3790   34.0370   50.9560 H   0  0  0  0  0  0  0  0  0  0  0  0
   61.9739   33.9256   45.8778 H   0  0  0  0  0  0  0  0  0  0  0  0
   63.2402   34.7724   46.9098 H   0  0  0  0  0  0  0  0  0  0  0  0
   63.0216   31.9907   46.0445 H   0  0  0  0  0  0  0  0  0  0  0  0
   64.4486   33.0555   46.5282 H   0  0  0  0  0  0  0  0  0  0  0  0
   62.8379   31.1602   48.1013 H   0  0  0  0  0  0  0  0  0  0  0  0
   64.6165   31.5948   48.1174 H   0  0  0  0  0  0  0  0  0  0  0  0
   63.4301   32.2311   50.2045 H   0  0  0  0  0  0  0  0  0  0  0  0
   64.1661   33.6080   49.3631 H   0  0  0  0  0  0  0  0  0  0  0  0
   58.3688   33.2668   47.7279 H   0  0  0  0  0  0  0  0  0  0  0  0
   57.0350   31.6390   46.6330 H   0  0  0  0  0  0  0  0  0  0  0  0
  1  2  1  0
  2  3  2  0
  2  4  2  0
  2  5  1  0
  5  6  2  0
  6  7  1  0
  7  8  2  0
  8  9  1  0
  9 10  1  0
 10 11  1  0
 11 12  2  0
 12 13  1  0
 13 14  1  0
 14 15  2  0
 14 16  1  0
 16 17  2  0
 17 18  1  0
 18 19  1  0
 19 20  1  0
 20 21  1  0
  9 22  2  0
 22 23  1  0
 23  6  1  0
 17 11  1  0
 21 16  1  0
  1 24  1  0
  1 25  1  0
  1 26  1  0
  7 27  1  0
  8 28  1  0
 10 29  1  0
 10 30  1  0
 13 31  1  0
 18 32  1  0
 18 33  1  0
 19 34  1  0
 19 35  1  0
 20 36  1  0
 20 37  1  0
 21 38  1  0
 21 39  1  0
 22 40  1  0
 23 41  1  0
M  END
>  <smiles>  (60) 
CS(=O)(=O)N=c1ccc(Cc2n[nH]c(=O)c3c2CCCC3)c[nH]1

>  <score_type>  (60) 
oracle

>  <origin>  (60) 
adg

>  <m_score__min__energy>  (60) 
-8.9100000000000001

>  <m_primary>  (60) 
energy

$$$$
60:0
     RDKit          3D

 49 51  0  0  0  0  0  0  0  0999 V2000
   56.1900   30.6020   43.0460 O   0  0  0  0  0  0  0  0  0  0  0  0
   56.6700   30.7340   44.2030 C   0  0  0  0  0  0  0  0  0  0  0  0
   57.6240   31.8660   44.4880 C   0  0  0  0  0  0  0  0  0  0  0  0
   57.2800   32.5820   45.7380 N   0  0  0  0  0  0  0  0  0  0  0  0
   57.2510   34.0430   45.5230 C   0  0  0  0  0  0  0  0  0  0  0  0
   58.6710   34.6310   45.4130 C   0  0  0  0  0  0  0  0  0  0  0  0
   59.5890   34.1880   46.4980 N   0  0  0  0  0  0  0  0  0  0  0  0
   60.8180   33.5370   45.9940 C   0  0  0  0  0  0  0  0  0  0  0  0
   61.7260   33.1310   47.1190 C   0  0  0  0  0  0  0  0  0  0  0  0
   62.2130   31.9690   47.1310 O   0  0  0  0  0  0  0  0  0  0  0  0
   62.0000   34.0540   48.1870 N   0  0  0  0  0  0  0  0  0  0  0  0
   63.0130   33.8600   49.1880 C   0  0  0  0  0  0  0  0  0  0  0  0
   64.1850   33.1620   48.8520 C   0  0  0  0  0  0  0  0  0  0  0  0
   65.1750   32.9380   49.8140 C   0  0  0  0  0  0  0  0  0  0  0  0
   64.9970   33.3930   51.1220 C   0  0  0  0  0  0  0  0  0  0  0  0
   63.8250   34.0670   51.4730 C   0  0  0  0  0  0  0  0  0  0  0  0
   62.8320   34.2950   50.5140 C   0  0  0  0  0  0  0  0  0  0  0  0
   58.9220   33.3540   47.5190 C   0  0  0  0  0  0  0  0  0  0  0  0
   58.1390   32.1840   46.8860 C   0  0  0  0  0  0  0  0  0  0  0  0
   56.4040   29.7210   45.1820 N   0  0  0  0  0  0  0  0  0  0  0  0
   57.3140   28.6680   45.5170 C   0  0  0  0  0  0  0  0  0  0  0  0
   58.6870   28.9330   45.5780 C   0  0  0  0  0  0  0  0  0  0  0  0
   59.5830   27.9220   45.9400 C   0  0  0  0  0  0  0  0  0  0  0  0
   59.1100   26.6380   46.2300 C   0  0  0  0  0  0  0  0  0  0  0  0
   57.7430   26.3600   46.1410 C   0  0  0  0  0  0  0  0  0  0  0  0
   56.8450   27.3690   45.7760 C   0  0  0  0  0  0  0  0  0  0  0  0
   55.5260   27.0780   45.6560 F   0  0  0  0  0  0  0  0  0  0  0  0
   58.6412   31.4578   44.5813 H   0  0  0  0  0  0  0  0  0  0  0  0
   57.5570   32.5834   43.6568 H   0  0  0  0  0  0  0  0  0  0  0  0
   56.7040   34.2556   44.5926 H   0  0  0  0  0  0  0  0  0  0  0  0
   56.7536   34.5071   46.3875 H   0  0  0  0  0  0  0  0  0  0  0  0
   59.1002   34.3234   44.4480 H   0  0  0  0  0  0  0  0  0  0  0  0
   58.5738   35.7232   45.5007 H   0  0  0  0  0  0  0  0  0  0  0  0
   60.5384   32.6417   45.4193 H   0  0  0  0  0  0  0  0  0  0  0  0
   61.3551   34.2574   45.3595 H   0  0  0  0  0  0  0  0  0  0  0  0
   61.3690   34.8810   48.2890 H   0  0  0  0  0  0  0  0  0  0  0  0
   64.3247   32.7896   47.8264 H   0  0  0  0  0  0  0  0  0  0  0  0
   66.0958   32.4023   49.5397 H   0  0  0  0  0  0  0  0  0  0  0  0
   65.7794   33.2207   51.8757 H   0  0  0  0  0  0  0  0  0  0  0  0
   63.6824   34.4192   52.5053 H   0  0  0  0  0  0  0  0  0  0  0  0
   61.9060   34.8165   50.7978 H   0  0  0  0  0  0  0  0  0  0  0  0
   59.6849   32.9451   48.1978 H   0  0  0  0  0  0  0  0  0  0  0  0
   58.2062   33.9884   48.0623 H   0  0  0  0  0  0  0  0  0  0  0  0
   58.8625   31.4343   46.5332 H   0  0  0  0  0  0  0  0  0  0  0  0
   57.4683   31.7915   47.6645 H   0  0  0  0  0  0  0  0  0  0  0  0
   59.0624   29.9393   45.3405 H   0  0  0  0  0  0  0  0  0  0  0  0
   60.6603   28.1367   45.9967 H   0  0  0  0  0  0  0  0  0  0  0  0
   59.8138   25.8470   46.5281 H   0  0  0  0  0  0  0  0  0  0  0  0
   57.3729   25.3471   46.3581 H   0  0  0  0  0  0  0  0  0  0  0  0
  1  2  2  0
  2  3  1  0
  3  4  1  0
  4  5  1  0
  5  6  1  0
  6  7  1  0
  7  8  1  0
  8  9  1  0
  9 10  2  0
  9 11  1  0
 11 12  1  0
 12 13  2  0
 13 14  1  0
 14 15  2  0
 15 16  1  0
 16 17  2  0
  7 18  1  0
 18 19  1  0
  2 20  1  0
 20 21  1  0
 21 22  2  0
 22 23  1  0
 23 24  2  0
 24 25  1  0
 25 26  2  0
 26 27  1  0
 19  4  1  0
 26 21  1  0
 17 12  1  0
  3 28  1  0
  3 29  1  0
  5 30  1  0
  5 31  1  0
  6 32  1  0
  6 33  1  0
  8 34  1  0
  8 35  1  0
 11 36  1  0
 13 37  1  0
 14 38  1  0
 15 39  1  0
 16 40  1  0
 17 41  1  0
 18 42  1  0
 18 43  1  0
 19 44  1  0
 19 45  1  0
 22 46  1  0
 23 47  1  0
 24 48  1  0
 25 49  1  0
M  CHG  1  20  -1
M  END
>  <UniqueID>  (61) 
53

>  <SMILES>  (61) 
O=C(CN1CCN(CC(=O)Nc2ccccc2)CC1)[N-]c1ccccc1F

>  <Energy>  (61) 
73.6830810855842

>  <Genealogy>  (61) 
O=C(CN1CCN(CC(=O)Nc2ccccc2)CC1)[N-]c1ccccc1F (protonated)
O=C(CN1CCN(CC(=O)Nc2ccccc2)CC1)[N-]c1ccccc1F (3D coordinates assigned)
O=C(CN1CCN(CC(=O)Nc2ccccc2)CC1)[N-]c1ccccc1F (nonaromatic ring conformer: 73.6830810855842 kcal/mol)

>  <smiles>  (61) 
O=C(CN1CCN(CC(=O)Nc2ccccc2F)CC1)Nc1ccccc1

>  <score_type>  (61) 
oracle

>  <origin>  (61) 
adg

>  <m_score__min__energy>  (61) 
-10.74

>  <m_primary>  (61) 
energy

$$$$
61:0
     RDKit          3D

 75 80  0  0  0  0  0  0  0  0999 V2000
   60.5670   30.3560   51.0640 C   0  0  0  0  0  0  0  0  0  0  0  0
   59.2850   30.9990   51.5430 C   0  0  0  0  0  0  0  0  0  0  0  0
   58.1290   30.2040   51.5570 C   0  0  0  0  0  0  0  0  0  0  0  0
   56.9220   30.7820   51.9290 C   0  0  0  0  0  0  0  0  0  0  0  0
   55.8730   30.0870   51.9480 O   0  0  0  0  0  0  0  0  0  0  0  0
   56.8730   32.0890   52.2690 N   0  0  0  0  0  0  0  0  0  0  0  0
   57.9850   32.8630   52.2560 C   0  0  0  0  0  0  0  0  0  0  0  0
   57.8830   34.0740   52.5880 O   0  0  0  0  0  0  0  0  0  0  0  0
   59.2050   32.3320   51.8950 N   0  0  0  0  0  0  0  0  0  0  0  0
   60.3970   33.2100   51.9370 C   0  0  0  0  0  0  0  0  0  0  0  0
   60.9100   33.4950   50.5410 C   0  0  0  0  0  0  0  0  0  0  0  0
   62.2850   33.4260   50.2610 C   0  0  0  0  0  0  0  0  0  0  0  0
   62.7610   33.7160   48.9800 C   0  0  0  0  0  0  0  0  0  0  0  0
   61.8730   34.0780   47.9640 C   0  0  0  0  0  0  0  0  0  0  0  0
   60.4940   34.1560   48.2220 C   0  0  0  0  0  0  0  0  0  0  0  0
   59.5460   34.5090   47.1400 C   0  0  0  0  0  0  0  0  0  0  0  0
   59.2390   35.7190   46.9510 O   0  0  0  0  0  0  0  0  0  0  0  0
   58.9980   33.5010   46.2720 N   0  0  0  0  0  0  0  0  0  0  0  0
   57.8740   33.8310   45.3790 C   0  0  0  0  0  0  0  0  0  0  0  0
   57.0240   32.5810   45.0360 C   0  0  0  0  0  0  0  0  0  0  0  0
   57.9010   31.4380   44.7380 N   0  0  0  0  0  0  0  0  0  0  0  0
   57.2110   30.1720   44.4430 C   0  0  0  0  0  0  0  0  0  0  0  0
   58.1030   29.0510   45.0150 C   0  0  1  0  0  0  0  0  0  0  0  0
   58.5040   28.1080   44.0200 O   0  0  0  0  0  0  0  0  0  0  0  0
   58.0370   26.7830   43.9350 C   0  0  0  0  0  0  0  0  0  0  0  0
   57.8160   26.0780   45.1160 C   0  0  0  0  0  0  0  0  0  0  0  0
   57.2850   24.7870   45.0840 C   0  0  0  0  0  0  0  0  0  0  0  0
   56.9910   24.1840   43.8500 C   0  0  0  0  0  0  0  0  0  0  0  0
   56.4250   22.8150   43.8030 C   0  0  0  0  0  0  0  0  0  0  0  0
   55.9530   22.3530   42.7280 O   0  0  0  0  0  0  0  0  0  0  0  0
   56.4330   21.9900   44.9720 N   0  0  0  0  0  0  0  0  0  0  0  0
   55.3060   21.9140   45.8740 C   0  0  0  0  0  0  0  0  0  0  0  0
   55.6850   20.8730   46.9230 C   0  0  0  0  0  0  0  0  0  0  0  0
   56.9850   20.2160   46.4490 C   0  0  0  0  0  0  0  0  0  0  0  0
   57.4370   20.9690   45.2020 C   0  0  0  0  0  0  0  0  0  0  0  0
   57.2550   24.8720   42.6970 N   0  0  0  0  0  0  0  0  0  0  0  0
   57.7760   26.1320   42.7150 C   0  0  0  0  0  0  0  0  0  0  0  0
   59.3180   29.7730   45.5900 C   0  0  0  0  0  0  0  0  0  0  0  0
   58.7460   31.1380   45.8860 C   0  0  1  0  0  0  0  0  0  0  0  0
   59.7520   32.2590   46.0670 C   0  0  0  0  0  0  0  0  0  0  0  0
   60.0220   33.8590   49.5120 C   0  0  0  0  0  0  0  0  0  0  0  0
   61.1715   30.0528   51.9315 H   0  0  0  0  0  0  0  0  0  0  0  0
   60.3284   29.4709   50.4560 H   0  0  0  0  0  0  0  0  0  0  0  0
   61.1337   31.0765   50.4560 H   0  0  0  0  0  0  0  0  0  0  0  0
   58.1777   29.1411   51.2781 H   0  0  0  0  0  0  0  0  0  0  0  0
   60.1274   34.1597   52.4221 H   0  0  0  0  0  0  0  0  0  0  0  0
   61.1890   32.6991   52.5041 H   0  0  0  0  0  0  0  0  0  0  0  0
   62.9910   33.1419   51.0552 H   0  0  0  0  0  0  0  0  0  0  0  0
   63.8394   33.6591   48.7704 H   0  0  0  0  0  0  0  0  0  0  0  0
   62.2552   34.3030   46.9574 H   0  0  0  0  0  0  0  0  0  0  0  0
   57.2313   34.5732   45.8751 H   0  0  0  0  0  0  0  0  0  0  0  0
   58.2884   34.2300   44.4414 H   0  0  0  0  0  0  0  0  0  0  0  0
   56.3810   32.3322   45.8931 H   0  0  0  0  0  0  0  0  0  0  0  0
   56.4046   32.7986   44.1534 H   0  0  0  0  0  0  0  0  0  0  0  0
   56.2223   30.1556   44.9248 H   0  0  0  0  0  0  0  0  0  0  0  0
   57.0522   30.0450   43.3620 H   0  0  0  0  0  0  0  0  0  0  0  0
   57.5589   28.4623   45.7683 H   0  0  0  0  0  0  0  0  0  0  0  0
   58.0620   26.5425   46.0823 H   0  0  0  0  0  0  0  0  0  0  0  0
   57.0976   24.2440   46.0221 H   0  0  0  0  0  0  0  0  0  0  0  0
   55.1287   22.8901   46.3491 H   0  0  0  0  0  0  0  0  0  0  0  0
   54.3813   21.6392   45.3455 H   0  0  0  0  0  0  0  0  0  0  0  0
   55.8399   21.3578   47.8982 H   0  0  0  0  0  0  0  0  0  0  0  0
   54.8868   20.1255   47.0420 H   0  0  0  0  0  0  0  0  0  0  0  0
   57.7528   20.2890   47.2333 H   0  0  0  0  0  0  0  0  0  0  0  0
   56.8279   19.1499   46.2282 H   0  0  0  0  0  0  0  0  0  0  0  0
   58.4215   21.4304   45.3689 H   0  0  0  0  0  0  0  0  0  0  0  0
   57.5369   20.2969   44.3369 H   0  0  0  0  0  0  0  0  0  0  0  0
   57.0630   24.4420   41.7680 H   0  0  0  0  0  0  0  0  0  0  0  0
   57.9944   26.6446   41.7666 H   0  0  0  0  0  0  0  0  0  0  0  0
   59.6808   29.2824   46.5053 H   0  0  0  0  0  0  0  0  0  0  0  0
   60.1893   29.7882   44.9188 H   0  0  0  0  0  0  0  0  0  0  0  0
   58.2281   31.0926   46.8554 H   0  0  0  0  0  0  0  0  0  0  0  0
   60.3865   32.0562   46.9424 H   0  0  0  0  0  0  0  0  0  0  0  0
   60.4018   32.3422   45.1833 H   0  0  0  0  0  0  0  0  0  0  0  0
   58.9432   33.9118   49.7202 H   0  0  0  0  0  0  0  0  0  0  0  0
  1  2  1  0
  2  3  2  0
  3  4  1  0
  4  5  2  0
  4  6  1  0
  6  7  1  0
  7  8  2  0
  7  9  1  0
  9 10  1  0
 10 11  1  0
 11 12  2  0
 12 13  1  0
 13 14  2  0
 14 15  1  0
 15 16  1  0
 16 17  2  0
 16 18  1  0
 18 19  1  0
 19 20  1  0
 20 21  1  0
 21 22  1  0
 22 23  1  0
 23 24  1  0
 24 25  1  0
 25 26  2  0
 26 27  1  0
 27 28  2  0
 28 29  1  0
 29 30  2  0
 29 31  1  0
 31 32  1  0
 32 33  1  0
 33 34  1  0
 34 35  1  0
 28 36  1  0
 36 37  2  0
 23 38  1  0
 38 39  1  0
 39 40  1  0
 15 41  2  0
  9  2  1  0
 41 11  1  0
 40 18  1  0
 39 21  1  0
 37 25  1  0
 35 31  1  0
  1 42  1  0
  1 43  1  0
  1 44  1  0
  3 45  1  0
 10 46  1  0
 10 47  1  0
 12 48  1  0
 13 49  1  0
 14 50  1  0
 19 51  1  0
 19 52  1  0
 20 53  1  0
 20 54  1  0
 22 55  1  0
 22 56  1  0
 23 57  1  1
 26 58  1  0
 27 59  1  0
 32 60  1  0
 32 61  1  0
 33 62  1  0
 33 63  1  0
 34 64  1  0
 34 65  1  0
 35 66  1  0
 35 67  1  0
 36 68  1  0
 37 69  1  0
 38 70  1  0
 38 71  1  0
 39 72  1  1
 40 73  1  0
 40 74  1  0
 41 75  1  0
M  CHG  2   6  -1  36   1
M  END
>  <UniqueID>  (62) 
54

>  <SMILES>  (62) 
Cc1cc(=O)[n-]c(=O)n1Cc1cccc(C(=O)N2CCN3C[C@@H](Oc4ccc(C(=O)N5CCCC5)[nH+]c4)C[C@H]3C2)c1

>  <Energy>  (62) 
106.93451199537311

>  <Genealogy>  (62) 
Cc1cc(=O)[n-]c(=O)n1Cc1cccc(C(=O)N2CCN3CC(Oc4ccc(C(=O)N5CCCC5)[nH+]c4)CC3C2)c1 (protonated)
Cc1cc(=O)[n-]c(=O)n1Cc1cccc(C(=O)N2CCN3C[C@@H](Oc4ccc(C(=O)N5CCCC5)[nH+]c4)C[C@H]3C2)c1 (chirality)
Cc1cc(=O)[n-]c(=O)n1Cc1cccc(C(=O)N2CCN3C[C@@H](Oc4ccc(C(=O)N5CCCC5)[nH+]c4)C[C@H]3C2)c1 (3D coordinates assigned)
Cc1cc(=O)[n-]c(=O)n1Cc1cccc(C(=O)N2CCN3C[C@@H](Oc4ccc(C(=O)N5CCCC5)[nH+]c4)C[C@H]3C2)c1 (nonaromatic ring conformer: 106.93451199537311 kcal/mol)

>  <smiles>  (62) 
Cc1cc(=O)[nH]c(=O)n1Cc1cccc(C(=O)N2CCN3CC(Oc4ccc(C(=O)N5CCCC5)nc4)CC3C2)c1

>  <score_type>  (62) 
oracle

>  <origin>  (62) 
adg

>  <m_score__min__energy>  (62) 
-10.800000000000001

>  <m_primary>  (62) 
energy

$$$$
62:0
     RDKit          3D

 54 57  0  0  0  0  0  0  0  0999 V2000
   58.7956   31.1399   51.6915 H   0  0  0  0  0  0  0  0  0  0  0  0
   59.5600   31.7620   51.2030 C   0  0  0  0  0  0  0  0  0  0  0  0
   60.8640   31.2770   51.0530 C   0  0  0  0  0  0  0  0  0  0  0  0
   61.1232   30.2735   51.4214 H   0  0  0  0  0  0  0  0  0  0  0  0
   61.8390   32.0690   50.4340 C   0  0  0  0  0  0  0  0  0  0  0  0
   62.8605   31.6811   50.3069 H   0  0  0  0  0  0  0  0  0  0  0  0
   61.5170   33.3590   49.9740 C   0  0  0  0  0  0  0  0  0  0  0  0
   62.5670   34.2260   49.3290 C   0  0  0  0  0  0  0  0  0  0  0  0
   63.2835   34.5554   50.0959 H   0  0  0  0  0  0  0  0  0  0  0  0
   62.0729   35.0941   48.8682 H   0  0  0  0  0  0  0  0  0  0  0  0
   63.3000   33.4710   48.2650 C   0  0  0  0  0  0  0  0  0  0  0  0
   64.5200   33.1930   48.4300 O   0  0  0  0  0  0  0  0  0  0  0  0
   62.5880   33.0310   47.0980 N   0  0  0  0  0  0  0  0  0  0  0  0
   61.2990   32.9120   46.9950 C   0  0  0  0  0  0  0  0  0  0  0  0
   60.6360   31.7350   47.0210 N   0  0  0  0  0  0  0  0  0  0  0  0
   56.0300   31.1940   44.4700 N   0  0  0  0  0  0  0  0  0  0  0  0
   57.2600   31.0010   43.9420 C   0  0  0  0  0  0  0  0  0  0  0  0
   58.0100   32.0780   43.2080 C   0  0  0  0  0  0  0  0  0  0  0  0
   58.8683   31.6191   42.6954 H   0  0  0  0  0  0  0  0  0  0  0  0
   57.3066   32.5425   42.5012 H   0  0  0  0  0  0  0  0  0  0  0  0
   58.5290   33.1870   44.1290 C   0  0  0  0  0  0  0  0  0  0  0  0
   59.1473   32.7380   44.9203 H   0  0  0  0  0  0  0  0  0  0  0  0
   59.1241   33.8917   43.5297 H   0  0  0  0  0  0  0  0  0  0  0  0
   57.1400   34.1010   44.8990 S   0  0  0  0  0  0  0  0  0  0  0  0
   57.5060   33.6000   46.6160 C   0  0  0  0  0  0  0  0  0  0  0  0
   57.3285   34.4518   47.2890 H   0  0  0  0  0  0  0  0  0  0  0  0
   56.8512   32.7607   46.8930 H   0  0  0  0  0  0  0  0  0  0  0  0
   58.9340   33.1660   46.7330 C   0  0  0  0  0  0  0  0  0  0  0  0
   59.3180   31.8780   46.8780 N   0  0  0  0  0  0  0  0  0  0  0  0
   55.4940   30.0910   44.9930 N   0  0  0  0  0  0  0  0  0  0  0  0
   56.2870   29.0070   44.8760 C   0  0  0  0  0  0  0  0  0  0  0  0
   55.9170   27.8280   45.2750 N   0  0  0  0  0  0  0  0  0  0  0  0
   56.7560   26.8790   45.9510 C   0  0  0  0  0  0  0  0  0  0  0  0
   56.2640   26.0480   46.7630 O   0  0  0  0  0  0  0  0  0  0  0  0
   58.2290   26.8850   45.7000 C   0  0  0  0  0  0  0  0  0  0  0  0
   58.5821   25.8511   45.5723 H   0  0  0  0  0  0  0  0  0  0  0  0
   58.4403   27.4634   44.7885 H   0  0  0  0  0  0  0  0  0  0  0  0
   58.9410   27.5160   46.8660 C   0  0  0  0  0  0  0  0  0  0  0  0
   60.0510   26.8720   47.4450 C   0  0  0  0  0  0  0  0  0  0  0  0
   60.4250   25.9314   47.0144 H   0  0  0  0  0  0  0  0  0  0  0  0
   60.6800   27.4240   48.5660 C   0  0  0  0  0  0  0  0  0  0  0  0
   61.5485   26.9186   49.0136 H   0  0  0  0  0  0  0  0  0  0  0  0
   60.2060   28.6160   49.1170 C   0  0  0  0  0  0  0  0  0  0  0  0
   60.7017   29.0492   49.9983 H   0  0  0  0  0  0  0  0  0  0  0  0
   59.1000   29.2610   48.5490 C   0  0  0  0  0  0  0  0  0  0  0  0
   58.7288   30.2007   48.9838 H   0  0  0  0  0  0  0  0  0  0  0  0
   58.4670   28.7110   47.4290 C   0  0  0  0  0  0  0  0  0  0  0  0
   57.5952   29.2167   46.9884 H   0  0  0  0  0  0  0  0  0  0  0  0
   57.7250   29.3810   44.0720 S   0  0  0  0  0  0  0  0  0  0  0  0
   60.2550   34.2140   46.7920 S   0  0  0  0  0  0  0  0  0  0  0  0
   60.2000   33.8330   50.1230 C   0  0  0  0  0  0  0  0  0  0  0  0
   59.9350   34.8361   49.7574 H   0  0  0  0  0  0  0  0  0  0  0  0
   59.2270   33.0360   50.7330 C   0  0  0  0  0  0  0  0  0  0  0  0
   58.1989   33.4113   50.8433 H   0  0  0  0  0  0  0  0  0  0  0  0
  1  2  1  0
  2  3  2  0
  3  4  1  0
  3  5  1  0
  5  6  1  0
  5  7  2  0
  7  8  1  0
  8  9  1  0
  8 10  1  0
  8 11  1  0
 11 12  2  0
 11 13  1  0
 13 14  2  0
 14 15  1  0
 15 16  1  0
 16 17  2  0
 17 18  1  0
 18 19  1  0
 18 20  1  0
 18 21  1  0
 21 22  1  0
 21 23  1  0
 21 24  1  0
 24 25  1  0
 25 26  1  0
 25 27  1  0
 25 28  1  0
 28 29  2  0
 29 30  1  0
 30 31  1  0
 31 32  2  0
 32 33  1  0
 33 34  2  0
 33 35  1  0
 35 36  1  0
 35 37  1  0
 35 38  1  0
 38 39  2  0
 39 40  1  0
 39 41  1  0
 41 42  1  0
 41 43  2  0
 43 44  1  0
 43 45  1  0
 45 46  1  0
 45 47  2  0
 47 48  1  0
 31 49  1  0
 17 50  1  0
  7 51  1  0
 51 52  1  0
 51 53  2  0
 53 54  1  0
 53  2  1  0
 50 14  1  0
 49 28  1  0
 47 38  1  0
M  CHG  2  15  -1  30  -1
M  END
>  <UniqueID>  (63) 
55

>  <SMILES>  (63) 
O=C(Cc1ccccc1)/N=c1/[n-]nc(CCSCc2n[n-]/c(=N\C(=O)Cc3ccccc3)s2)s1

>  <Energy>  (63) 
117.69052881640293

>  <Genealogy>  (63) 
O=C(Cc1ccccc1)N=c1[n-]nc(CCSCc2n[n-]c(=NC(=O)Cc3ccccc3)s2)s1 (protonated)
O=C(Cc1ccccc1)/N=c1/[n-]nc(CCSCc2n[n-]/c(=N\C(=O)Cc3ccccc3)s2)s1 (cis-trans isomerization)
O=C(Cc1ccccc1)/N=c1/[n-]nc(CCSCc2n[n-]/c(=N\C(=O)Cc3ccccc3)s2)s1 (3D coordinates assigned)
O=C(Cc1ccccc1)/N=c1/[n-]nc(CCSCc2n[n-]/c(=N\C(=O)Cc3ccccc3)s2)s1 (optimized conformer: 117.69052881640293 kcal/mol)

>  <smiles>  (63) 
O=C(Cc1ccccc1)N=c1[nH]nc(CCSCc2n[nH]c(=NC(=O)Cc3ccccc3)s2)s1

>  <score_type>  (63) 
oracle

>  <origin>  (63) 
adg

>  <m_score__min__energy>  (63) 
-12.17

>  <m_primary>  (63) 
energy

$$$$
63:0
     RDKit          3D

 47 49  0  0  0  0  0  0  0  0999 V2000
   56.9730   30.3960   43.6800 C   0  0  0  0  0  0  0  0  0  0  0  0
   56.9320   31.0540   44.9420 O   0  0  0  0  0  0  0  0  0  0  0  0
   57.6250   32.2370   45.2400 C   0  0  0  0  0  0  0  0  0  0  0  0
   57.4130   33.4350   44.5310 C   0  0  0  0  0  0  0  0  0  0  0  0
   58.1300   34.5860   44.8670 C   0  0  0  0  0  0  0  0  0  0  0  0
   59.0600   34.5580   45.9090 C   0  0  0  0  0  0  0  0  0  0  0  0
   59.2780   33.3720   46.6290 C   0  0  0  0  0  0  0  0  0  0  0  0
   60.2440   33.3370   47.6990 N   0  0  0  0  0  0  0  0  0  0  0  0
   61.5710   33.4310   47.3880 C   0  0  0  0  0  0  0  0  0  0  0  0
   62.5470   33.4150   48.3910 C   0  0  0  0  0  0  0  0  0  0  0  0
   64.0030   33.4820   48.0380 C   0  0  0  0  0  0  0  0  0  0  0  0
   62.1470   33.2720   49.7210 C   0  0  0  0  0  0  0  0  0  0  0  0
   60.7880   33.1790   50.0460 C   0  0  0  0  0  0  0  0  0  0  0  0
   60.3850   33.0450   51.4260 N   0  0  0  0  0  0  0  0  0  0  0  0
   61.0920   32.1150   52.3120 C   0  0  0  0  0  0  0  0  0  0  0  0
   60.2350   31.8010   53.5430 C   0  0  0  0  0  0  0  0  0  0  0  0
   59.8610   33.0310   54.2890 N   0  0  0  0  0  0  0  0  0  0  0  0
   58.7280   32.7440   55.1860 C   0  0  0  0  0  0  0  0  0  0  0  0
   59.5700   34.2130   53.4240 C   0  0  0  0  0  0  0  0  0  0  0  0
   59.2760   33.8410   51.9650 C   0  0  0  0  0  0  0  0  0  0  0  0
   59.8390   33.1990   49.0050 C   0  0  0  0  0  0  0  0  0  0  0  0
   58.6140   33.0570   49.2750 O   0  0  0  0  0  0  0  0  0  0  0  0
   58.5580   32.2160   46.2830 C   0  0  0  0  0  0  0  0  0  0  0  0
   57.0407   29.3091   43.8352 H   0  0  0  0  0  0  0  0  0  0  0  0
   56.0586   30.6294   43.1149 H   0  0  0  0  0  0  0  0  0  0  0  0
   57.8514   30.7411   43.1149 H   0  0  0  0  0  0  0  0  0  0  0  0
   56.6810   33.4647   43.7105 H   0  0  0  0  0  0  0  0  0  0  0  0
   57.9615   35.5186   44.3085 H   0  0  0  0  0  0  0  0  0  0  0  0
   59.6231   35.4673   46.1663 H   0  0  0  0  0  0  0  0  0  0  0  0
   61.8765   33.5205   46.3351 H   0  0  0  0  0  0  0  0  0  0  0  0
   64.6028   33.5096   48.9596 H   0  0  0  0  0  0  0  0  0  0  0  0
   64.2783   32.5956   47.4477 H   0  0  0  0  0  0  0  0  0  0  0  0
   64.1958   34.3900   47.4477 H   0  0  0  0  0  0  0  0  0  0  0  0
   62.9038   33.2321   50.5183 H   0  0  0  0  0  0  0  0  0  0  0  0
   61.3010   31.1824   51.7674 H   0  0  0  0  0  0  0  0  0  0  0  0
   62.0344   32.5781   52.6397 H   0  0  0  0  0  0  0  0  0  0  0  0
   59.3169   31.2909   53.2159 H   0  0  0  0  0  0  0  0  0  0  0  0
   60.8268   31.1624   54.2153 H   0  0  0  0  0  0  0  0  0  0  0  0
   60.6740   33.2810   54.9020 H   0  0  0  0  0  0  0  0  0  0  0  0
   59.0581   32.8276   56.2320 H   0  0  0  0  0  0  0  0  0  0  0  0
   57.9194   33.4657   54.9979 H   0  0  0  0  0  0  0  0  0  0  0  0
   58.3605   31.7244   54.9979 H   0  0  0  0  0  0  0  0  0  0  0  0
   58.6943   34.7379   53.8335 H   0  0  0  0  0  0  0  0  0  0  0  0
   60.4702   34.8452   53.4235 H   0  0  0  0  0  0  0  0  0  0  0  0
   58.3470   33.2539   51.9171 H   0  0  0  0  0  0  0  0  0  0  0  0
   59.1628   34.7592   51.3699 H   0  0  0  0  0  0  0  0  0  0  0  0
   58.7299   31.2826   46.8390 H   0  0  0  0  0  0  0  0  0  0  0  0
  1  2  1  0
  2  3  1  0
  3  4  2  0
  4  5  1  0
  5  6  2  0
  6  7  1  0
  7  8  1  0
  8  9  1  0
  9 10  2  0
 10 11  1  0
 10 12  1  0
 12 13  2  0
 13 14  1  0
 14 15  1  0
 15 16  1  0
 16 17  1  0
 17 18  1  0
 17 19  1  0
 19 20  1  0
 13 21  1  0
 21 22  2  0
  7 23  2  0
 23  3  1  0
 21  8  1  0
 20 14  1  0
  1 24  1  0
  1 25  1  0
  1 26  1  0
  4 27  1  0
  5 28  1  0
  6 29  1  0
  9 30  1  0
 11 31  1  0
 11 32  1  0
 11 33  1  0
 12 34  1  0
 15 35  1  0
 15 36  1  0
 16 37  1  0
 16 38  1  0
 17 39  1  0
 18 40  1  0
 18 41  1  0
 18 42  1  0
 19 43  1  0
 19 44  1  0
 20 45  1  0
 20 46  1  0
 23 47  1  0
M  CHG  1  17   1
M  END
>  <UniqueID>  (64) 
56

>  <SMILES>  (64) 
COc1cccc(-n2cc(C)cc(N3CC[NH+](C)CC3)c2=O)c1

>  <Energy>  (64) 
66.71602610939848

>  <Genealogy>  (64) 
COc1cccc(-n2cc(C)cc(N3CC[NH+](C)CC3)c2=O)c1 (protonated)
COc1cccc(-n2cc(C)cc(N3CC[NH+](C)CC3)c2=O)c1 (3D coordinates assigned)
COc1cccc(-n2cc(C)cc(N3CC[NH+](C)CC3)c2=O)c1 (nonaromatic ring conformer: 66.71602610939848 kcal/mol)

>  <smiles>  (64) 
COc1cccc(-n2cc(C)cc(N3CCN(C)CC3)c2=O)c1

>  <score_type>  (64) 
oracle

>  <origin>  (64) 
adg

>  <m_score__min__energy>  (64) 
-5.8200000000000003

>  <m_primary>  (64) 
energy

$$$$
64:0
     RDKit          3D

 39 41  0  0  0  0  0  0  0  0999 V2000
   56.5130   26.1630   45.6370 O   0  0  0  0  0  0  0  0  0  0  0  0
   57.5130   25.8680   44.9470 C   0  0  0  0  0  0  0  0  0  0  0  0
   58.3700   26.8720   44.4610 N   0  0  0  0  0  0  0  0  0  0  0  0
   58.2600   28.2550   44.6500 C   0  0  0  0  0  0  0  0  0  0  0  0
   59.0980   28.8710   45.5900 C   0  0  0  0  0  0  0  0  0  0  0  0
   59.0510   30.2250   45.8330 C   0  0  0  0  0  0  0  0  0  0  0  0
   58.1750   31.0550   45.1660 C   0  0  0  0  0  0  0  0  0  0  0  0
   58.0930   32.7610   45.4510 S   0  0  0  0  0  0  0  0  0  0  0  0
   58.7790   33.5580   44.3670 O   0  0  0  0  0  0  0  0  0  0  0  0
   56.6210   33.1240   45.4880 O   0  0  0  0  0  0  0  0  0  0  0  0
   58.8010   33.0890   46.9880 N   0  0  0  0  0  0  0  0  0  0  0  0
   57.0860   22.3180   43.7420 C   0  0  0  0  0  0  0  0  0  0  0  0
   60.6590   32.4170   48.0580 N   0  0  0  0  0  0  0  0  0  0  0  0
   61.9950   32.3840   48.2360 C   0  0  0  0  0  0  0  0  0  0  0  0
   62.8220   33.1020   47.3810 C   0  0  0  0  0  0  0  0  0  0  0  0
   57.7200   24.4330   44.6900 C   0  0  0  0  0  0  0  0  0  0  0  0
   58.8020   23.7830   45.1700 N   0  0  0  0  0  0  0  0  0  0  0  0
   57.3450   30.4700   44.2410 C   0  0  0  0  0  0  0  0  0  0  0  0
   57.3960   29.0970   43.9970 C   0  0  0  0  0  0  0  0  0  0  0  0
   62.2300   33.8320   46.3640 C   0  0  0  0  0  0  0  0  0  0  0  0
   56.8340   23.6760   43.9530 C   0  0  0  0  0  0  0  0  0  0  0  0
   59.0230   22.4720   44.9540 C   0  0  0  0  0  0  0  0  0  0  0  0
   56.2860   21.6160   43.0730 O   0  0  0  0  0  0  0  0  0  0  0  0
   60.8740   33.8210   46.2400 N   0  0  0  0  0  0  0  0  0  0  0  0
   60.0890   33.1320   47.0630 C   0  0  0  0  0  0  0  0  0  0  0  0
   60.0680   21.9400   45.4420 O   0  0  0  0  0  0  0  0  0  0  0  0
   58.1780   21.7190   44.2420 N   0  0  0  0  0  0  0  0  0  0  0  0
   59.1940   26.5320   43.8830 H   0  0  0  0  0  0  0  0  0  0  0  0
   59.8151   28.2533   46.1506 H   0  0  0  0  0  0  0  0  0  0  0  0
   59.7319   30.6574   46.5809 H   0  0  0  0  0  0  0  0  0  0  0  0
   62.4285   31.7910   49.0548 H   0  0  0  0  0  0  0  0  0  0  0  0
   63.9146   33.0909   47.5082 H   0  0  0  0  0  0  0  0  0  0  0  0
   62.8480   34.4140   45.6644 H   0  0  0  0  0  0  0  0  0  0  0  0
   59.5150   24.3200   45.7430 H   0  0  0  0  0  0  0  0  0  0  0  0
   56.6295   31.0931   43.6843 H   0  0  0  0  0  0  0  0  0  0  0  0
   56.7129   28.6708   43.2475 H   0  0  0  0  0  0  0  0  0  0  0  0
   55.9302   24.1405   43.5318 H   0  0  0  0  0  0  0  0  0  0  0  0
   60.4480   34.3750   45.4730 H   0  0  0  0  0  0  0  0  0  0  0  0
   58.4120   20.7200   44.1170 H   0  0  0  0  0  0  0  0  0  0  0  0
  1  2  2  0
  2  3  1  0
  3  4  1  0
  4  5  2  0
  5  6  1  0
  6  7  2  0
  7  8  1  0
  8  9  2  0
  8 10  2  0
  8 11  1  0
 11 12  2  3
 12 13  1  0
 13 14  2  0
 14 15  1  0
 15 16  2  0
 16 17  1  0
  7 18  1  0
 18 19  2  0
  2 20  1  0
 20 21  2  0
 21 22  1  0
 22 23  2  0
 22 24  1  0
 24 25  1  0
 25 26  2  0
 25 27  1  0
 19  4  1  0
 27 20  1  0
 17 12  1  0
  3 28  1  0
  5 29  1  0
  6 30  1  0
 14 31  1  0
 15 32  1  0
 16 33  1  0
 17 34  1  0
 18 35  1  0
 19 36  1  0
 21 37  1  0
 24 38  1  0
 27 39  1  0
M  END
>  <smiles>  (65) 
O=C(Nc1ccc(S(=O)(=O)N=c2nccc[nH]2)cc1)c1cc(=O)[nH]c(=O)[nH]1

>  <score_type>  (65) 
oracle

>  <origin>  (65) 
adg

>  <m_score__min__energy>  (65) 
-8.5199999999999996

>  <m_primary>  (65) 
energy

$$$$
65:0
     RDKit          3D

 47 49  0  0  0  0  0  0  0  0999 V2000
   55.6530   29.0460   44.8530 O   0  0  0  0  0  0  0  0  0  0  0  0
   56.4460   29.4080   43.9410 C   0  0  0  0  0  0  0  0  0  0  0  0
   56.2530   30.7400   43.2820 C   0  0  0  0  0  0  0  0  0  0  0  0
   57.6080   31.4030   43.0180 C   0  0  0  0  0  0  0  0  0  0  0  0
   58.1890   31.9440   44.2980 C   0  0  0  0  0  0  0  0  0  0  0  0
   58.6530   31.0680   45.2930 C   0  0  0  0  0  0  0  0  0  0  0  0
   59.1630   31.5710   46.4930 C   0  0  0  0  0  0  0  0  0  0  0  0
   59.2040   32.9550   46.7160 C   0  0  0  0  0  0  0  0  0  0  0  0
   59.8170   33.6080   48.2320 S   0  0  0  0  0  0  0  0  0  0  0  0
   59.3560   32.7320   49.3620 O   0  0  0  0  0  0  0  0  0  0  0  0
   59.2880   35.0000   48.4480 O   0  0  0  0  0  0  0  0  0  0  0  0
   61.5620   33.6290   48.1820 N   0  0  0  0  0  0  0  0  0  0  0  0
   62.1210   32.3400   48.5900 C   0  0  0  0  0  0  0  0  0  0  0  0
   63.4620   32.2040   47.8840 C   0  0  0  0  0  0  0  0  0  0  0  0
   63.4290   33.2180   46.7500 C   0  0  0  0  0  0  0  0  0  0  0  0
   62.0530   33.8590   46.8240 C   0  0  0  0  0  0  0  0  0  0  0  0
   58.7270   33.8300   45.7310 C   0  0  0  0  0  0  0  0  0  0  0  0
   58.2210   33.3280   44.5290 C   0  0  0  0  0  0  0  0  0  0  0  0
   57.5530   28.5770   43.5690 N   0  0  0  0  0  0  0  0  0  0  0  0
   57.8800   27.3440   44.2790 C   0  0  0  0  0  0  0  0  0  0  0  0
   58.6510   27.6550   45.5220 C   0  0  0  0  0  0  0  0  0  0  0  0
   59.9470   28.1520   45.5670 C   0  0  0  0  0  0  0  0  0  0  0  0
   60.3960   28.3960   46.8700 C   0  0  0  0  0  0  0  0  0  0  0  0
   59.4560   28.0980   47.8490 C   0  0  0  0  0  0  0  0  0  0  0  0
   58.0630   27.5340   47.0930 S   0  0  0  0  0  0  0  0  0  0  0  0
   55.7254   30.5995   42.3270 H   0  0  0  0  0  0  0  0  0  0  0  0
   55.6617   31.3863   43.9473 H   0  0  0  0  0  0  0  0  0  0  0  0
   58.2982   30.6593   42.5931 H   0  0  0  0  0  0  0  0  0  0  0  0
   57.4656   32.2349   42.3125 H   0  0  0  0  0  0  0  0  0  0  0  0
   58.6148   29.9813   45.1270 H   0  0  0  0  0  0  0  0  0  0  0  0
   59.5331   30.8797   47.2645 H   0  0  0  0  0  0  0  0  0  0  0  0
   62.2622   32.3158   49.6806 H   0  0  0  0  0  0  0  0  0  0  0  0
   61.4466   31.5130   48.3229 H   0  0  0  0  0  0  0  0  0  0  0  0
   64.2860   32.4291   48.5771 H   0  0  0  0  0  0  0  0  0  0  0  0
   63.6259   31.1816   47.5127 H   0  0  0  0  0  0  0  0  0  0  0  0
   64.2147   33.9755   46.8877 H   0  0  0  0  0  0  0  0  0  0  0  0
   63.6092   32.7460   45.7729 H   0  0  0  0  0  0  0  0  0  0  0  0
   62.1249   34.9381   46.6233 H   0  0  0  0  0  0  0  0  0  0  0  0
   61.3718   33.4278   46.0757 H   0  0  0  0  0  0  0  0  0  0  0  0
   58.7509   34.9160   45.9045 H   0  0  0  0  0  0  0  0  0  0  0  0
   57.8463   34.0204   43.7608 H   0  0  0  0  0  0  0  0  0  0  0  0
   58.1750   28.8790   42.7860 H   0  0  0  0  0  0  0  0  0  0  0  0
   56.9500   26.8221   44.5489 H   0  0  0  0  0  0  0  0  0  0  0  0
   58.4925   26.7046   43.6263 H   0  0  0  0  0  0  0  0  0  0  0  0
   60.5579   28.3351   44.6707 H   0  0  0  0  0  0  0  0  0  0  0  0
   61.3987   28.7869   47.0976 H   0  0  0  0  0  0  0  0  0  0  0  0
   59.5985   28.2116   48.9338 H   0  0  0  0  0  0  0  0  0  0  0  0
  1  2  2  0
  2  3  1  0
  3  4  1  0
  4  5  1  0
  5  6  2  0
  6  7  1  0
  7  8  2  0
  8  9  1  0
  9 10  2  0
  9 11  2  0
  9 12  1  0
 12 13  1  0
 13 14  1  0
 14 15  1  0
 15 16  1  0
  8 17  1  0
 17 18  2  0
  2 19  1  0
 19 20  1  0
 20 21  1  0
 21 22  2  0
 22 23  1  0
 23 24  2  0
 24 25  1  0
 18  5  1  0
 25 21  1  0
 16 12  1  0
  3 26  1  0
  3 27  1  0
  4 28  1  0
  4 29  1  0
  6 30  1  0
  7 31  1  0
 13 32  1  0
 13 33  1  0
 14 34  1  0
 14 35  1  0
 15 36  1  0
 15 37  1  0
 16 38  1  0
 16 39  1  0
 17 40  1  0
 18 41  1  0
 19 42  1  0
 20 43  1  0
 20 44  1  0
 22 45  1  0
 23 46  1  0
 24 47  1  0
M  END
>  <UniqueID>  (66) 
57

>  <SMILES>  (66) 
O=C(CCc1ccc(S(=O)(=O)N2CCCC2)cc1)NCc1cccs1

>  <Energy>  (66) 
66.2871599875211

>  <Genealogy>  (66) 
O=C(CCc1ccc(S(=O)(=O)N2CCCC2)cc1)NCc1cccs1 (3D coordinates assigned)
O=C(CCc1ccc(S(=O)(=O)N2CCCC2)cc1)NCc1cccs1 (nonaromatic ring conformer: 66.2871599875211 kcal/mol)

>  <smiles>  (66) 
O=C(CCc1ccc(S(=O)(=O)N2CCCC2)cc1)NCc1cccs1

>  <score_type>  (66) 
oracle

>  <origin>  (66) 
adg

>  <m_score__min__energy>  (66) 
-8.8300000000000001

>  <m_primary>  (66) 
energy

$$$$
66:0
     RDKit          3D

 30 31  0  0  0  0  0  0  0  0999 V2000
   55.6600   30.2770   43.3460 N   0  0  0  0  0  0  0  0  0  0  0  0
   56.2950   29.3480   43.9530 C   0  0  0  0  0  0  0  0  0  0  0  0
   55.7550   28.6650   44.9710 N   0  0  0  0  0  0  0  0  0  0  0  0
   56.4320   27.6880   45.6050 C   0  0  0  0  0  0  0  0  0  0  0  0
   57.7290   27.3910   45.1790 C   0  0  0  0  0  0  0  0  0  0  0  0
   58.4320   26.3180   45.8970 C   0  0  0  0  0  0  0  0  0  0  0  0
   58.2280   24.9800   45.2890 C   0  0  0  0  0  0  0  0  0  0  0  0
   59.0900   23.9710   45.7110 C   0  0  0  0  0  0  0  0  0  0  0  0
   58.9430   22.7150   45.1780 C   0  0  0  0  0  0  0  0  0  0  0  0
   59.8010   21.7100   45.5970 O   0  0  0  0  0  0  0  0  0  0  0  0
   57.9540   22.4410   44.2340 C   0  0  0  0  0  0  0  0  0  0  0  0
   57.8040   21.1590   43.6900 O   0  0  0  0  0  0  0  0  0  0  0  0
   57.1030   23.4540   43.8220 C   0  0  0  0  0  0  0  0  0  0  0  0
   56.1080   23.2050   42.8800 O   0  0  0  0  0  0  0  0  0  0  0  0
   57.2410   24.7370   44.3560 C   0  0  0  0  0  0  0  0  0  0  0  0
   58.2660   28.1060   44.1270 C   0  0  0  0  0  0  0  0  0  0  0  0
   59.4680   27.8050   43.7590 N   0  0  0  0  0  0  0  0  0  0  0  0
   57.5480   29.0730   43.5280 N   0  0  0  0  0  0  0  0  0  0  0  0
   54.9420   30.1350   42.6100 H   0  0  0  0  0  0  0  0  0  0  0  0
   54.7750   28.9320   45.2500 H   0  0  0  0  0  0  0  0  0  0  0  0
   55.9739   27.1365   46.4393 H   0  0  0  0  0  0  0  0  0  0  0  0
   59.5088   26.5428   45.8954 H   0  0  0  0  0  0  0  0  0  0  0  0
   58.0204   26.2812   46.9164 H   0  0  0  0  0  0  0  0  0  0  0  0
   59.8726   24.1765   46.4562 H   0  0  0  0  0  0  0  0  0  0  0  0
   59.7680   20.7660   45.2250 H   0  0  0  0  0  0  0  0  0  0  0  0
   58.3030   20.3860   44.1010 H   0  0  0  0  0  0  0  0  0  0  0  0
   56.2490   22.9930   41.9190 H   0  0  0  0  0  0  0  0  0  0  0  0
   56.5688   25.5466   44.0356 H   0  0  0  0  0  0  0  0  0  0  0  0
   60.2510   28.2260   44.3020 H   0  0  0  0  0  0  0  0  0  0  0  0
   57.9890   29.5890   42.7400 H   0  0  0  0  0  0  0  0  0  0  0  0
  1  2  2  3
  2  3  1  0
  3  4  1  0
  4  5  2  0
  5  6  1  0
  6  7  1  0
  7  8  2  0
  8  9  1  0
  9 10  1  0
  9 11  2  0
 11 12  1  0
 11 13  1  0
 13 14  1  0
 13 15  2  0
  5 16  1  0
 16 17  2  3
 16 18  1  0
 18  2  1  0
 15  7  1  0
  1 19  1  0
  3 20  1  0
  4 21  1  0
  6 22  1  0
  6 23  1  0
  8 24  1  0
 10 25  1  0
 12 26  1  0
 14 27  1  0
 15 28  1  0
 17 29  1  0
 18 30  1  0
M  END
>  <smiles>  (67) 
N=c1[nH]cc(Cc2cc(O)c(O)c(O)c2)c(=N)[nH]1

>  <score_type>  (67) 
oracle

>  <origin>  (67) 
adg

>  <m_score__min__energy>  (67) 
-7.2400000000000002

>  <m_primary>  (67) 
energy

$$$$
67:0
     RDKit          3D

 48 50  0  0  0  0  0  0  0  0999 V2000
   49.9510   22.2570   47.1670 C   0  0  0  0  0  0  0  0  0  0  0  0
   51.1610   21.5100   47.0990 O   0  0  0  0  0  0  0  0  0  0  0  0
   52.4470   22.0720   47.1410 C   0  0  0  0  0  0  0  0  0  0  0  0
   53.2570   22.0010   48.2910 C   0  0  0  0  0  0  0  0  0  0  0  0
   54.5240   22.5900   48.3020 C   0  0  0  0  0  0  0  0  0  0  0  0
   55.0030   23.2470   47.1650 C   0  0  0  0  0  0  0  0  0  0  0  0
   56.5380   24.1100   47.1940 S   0  0  0  0  0  0  0  0  0  0  0  0
   57.5670   23.3090   46.4460 O   0  0  0  0  0  0  0  0  0  0  0  0
   57.0100   24.3340   48.6030 O   0  0  0  0  0  0  0  0  0  0  0  0
   56.3050   25.6370   46.4090 N   0  0  0  0  0  0  0  0  0  0  0  0
   57.3460   26.6160   46.3490 C   0  0  0  0  0  0  0  0  0  0  0  0
   58.2630   26.7670   47.4030 C   0  0  0  0  0  0  0  0  0  0  0  0
   59.2030   27.7980   47.3750 C   0  0  0  0  0  0  0  0  0  0  0  0
   59.2140   28.7040   46.3130 C   0  0  0  0  0  0  0  0  0  0  0  0
   58.2940   28.5730   45.2590 C   0  0  0  0  0  0  0  0  0  0  0  0
   58.2170   29.5340   44.1990 N   0  0  0  0  0  0  0  0  0  0  0  0
   57.0720   30.8350   44.1510 S   0  0  0  0  0  0  0  0  0  0  0  0
   56.7610   31.1880   42.7230 O   0  0  0  0  0  0  0  0  0  0  0  0
   55.8020   30.3990   44.8240 O   0  0  0  0  0  0  0  0  0  0  0  0
   57.7300   32.2220   45.0180 C   0  0  0  0  0  0  0  0  0  0  0  0
   58.1260   32.0780   46.3550 C   0  0  0  0  0  0  0  0  0  0  0  0
   58.6930   33.1550   47.0420 C   0  0  0  0  0  0  0  0  0  0  0  0
   58.8820   34.3780   46.3920 C   0  0  0  0  0  0  0  0  0  0  0  0
   59.4490   35.4160   47.0530 F   0  0  0  0  0  0  0  0  0  0  0  0
   58.4930   34.5280   45.0570 C   0  0  0  0  0  0  0  0  0  0  0  0
   57.9100   33.4550   44.3730 C   0  0  0  0  0  0  0  0  0  0  0  0
   57.3930   27.5000   45.2630 C   0  0  0  0  0  0  0  0  0  0  0  0
   54.2100   23.3030   46.0140 C   0  0  0  0  0  0  0  0  0  0  0  0
   52.9260   22.7270   45.9970 C   0  0  0  0  0  0  0  0  0  0  0  0
   52.0940   22.8010   44.8700 O   0  0  0  0  0  0  0  0  0  0  0  0
   51.5310   24.0080   44.3620 C   0  0  0  0  0  0  0  0  0  0  0  0
   49.6815   22.4234   48.2204 H   0  0  0  0  0  0  0  0  0  0  0  0
   50.0901   23.2266   46.6666 H   0  0  0  0  0  0  0  0  0  0  0  0
   49.1465   21.6982   46.6666 H   0  0  0  0  0  0  0  0  0  0  0  0
   52.8897   21.4784   49.1865 H   0  0  0  0  0  0  0  0  0  0  0  0
   55.1460   22.5365   49.2077 H   0  0  0  0  0  0  0  0  0  0  0  0
   58.2398   26.0698   48.2535 H   0  0  0  0  0  0  0  0  0  0  0  0
   59.9353   27.8968   48.1898 H   0  0  0  0  0  0  0  0  0  0  0  0
   59.9465   29.5245   46.3012 H   0  0  0  0  0  0  0  0  0  0  0  0
   57.9899   31.1132   46.8656 H   0  0  0  0  0  0  0  0  0  0  0  0
   58.9907   33.0402   48.0947 H   0  0  0  0  0  0  0  0  0  0  0  0
   58.6452   35.4893   44.5445 H   0  0  0  0  0  0  0  0  0  0  0  0
   57.5922   33.5787   43.3272 H   0  0  0  0  0  0  0  0  0  0  0  0
   56.7178   27.3506   44.4075 H   0  0  0  0  0  0  0  0  0  0  0  0
   54.5941   23.8026   45.1124 H   0  0  0  0  0  0  0  0  0  0  0  0
   51.2299   24.6534   45.2003 H   0  0  0  0  0  0  0  0  0  0  0  0
   52.2782   24.5307   43.7468 H   0  0  0  0  0  0  0  0  0  0  0  0
   50.6503   23.7713   43.7468 H   0  0  0  0  0  0  0  0  0  0  0  0
  1  2  1  0
  2  3  1  0
  3  4  2  0
  4  5  1  0
  5  6  2  0
  6  7  1  0
  7  8  2  0
  7  9  2  0
  7 10  1  0
 10 11  1  0
 11 12  2  0
 12 13  1  0
 13 14  2  0
 14 15  1  0
 15 16  1  0
 16 17  1  0
 17 18  2  0
 17 19  2  0
 17 20  1  0
 20 21  2  0
 21 22  1  0
 22 23  2  0
 23 24  1  0
 23 25  1  0
 25 26  2  0
 15 27  2  0
  6 28  1  0
 28 29  2  0
 29 30  1  0
 30 31  1  0
 29  3  1  0
 27 11  1  0
 26 20  1  0
  1 32  1  0
  1 33  1  0
  1 34  1  0
  4 35  1  0
  5 36  1  0
 12 37  1  0
 13 38  1  0
 14 39  1  0
 21 40  1  0
 22 41  1  0
 25 42  1  0
 26 43  1  0
 27 44  1  0
 28 45  1  0
 31 46  1  0
 31 47  1  0
 31 48  1  0
M  CHG  2  10  -1  16  -1
M  END
>  <UniqueID>  (68) 
58

>  <SMILES>  (68) 
COc1ccc(S(=O)(=O)[N-]c2cccc([N-]S(=O)(=O)c3ccc(F)cc3)c2)cc1OC

>  <Energy>  (68) 
55.870103818258706

>  <Genealogy>  (68) 
COc1ccc(S(=O)(=O)[N-]c2cccc([N-]S(=O)(=O)c3ccc(F)cc3)c2)cc1OC (protonated)
COc1ccc(S(=O)(=O)[N-]c2cccc([N-]S(=O)(=O)c3ccc(F)cc3)c2)cc1OC (3D coordinates assigned)
COc1ccc(S(=O)(=O)[N-]c2cccc([N-]S(=O)(=O)c3ccc(F)cc3)c2)cc1OC (optimized conformer: 55.870103818258706 kcal/mol)

>  <smiles>  (68) 
COc1ccc(S(=O)(=O)Nc2cccc(NS(=O)(=O)c3ccc(F)cc3)c2)cc1OC

>  <score_type>  (68) 
oracle

>  <origin>  (68) 
adg

>  <m_score__min__energy>  (68) 
-11.359999999999999

>  <m_primary>  (68) 
energy

$$$$
68:0
     RDKit          3D

 40 41  0  0  0  0  0  0  0  0999 V2000
   56.6690   21.8070   42.8610 C   0  0  0  0  0  0  0  0  0  0  0  0
   55.6170   22.3860   43.6250 O   0  0  0  0  0  0  0  0  0  0  0  0
   55.8450   23.1030   44.8030 C   0  0  0  0  0  0  0  0  0  0  0  0
   56.3120   22.4330   45.9350 C   0  0  0  0  0  0  0  0  0  0  0  0
   56.5410   23.1650   47.1000 C   0  0  0  0  0  0  0  0  0  0  0  0
   57.0100   22.5150   48.2450 O   0  0  0  0  0  0  0  0  0  0  0  0
   56.1400   22.0010   49.2470 C   0  0  0  0  0  0  0  0  0  0  0  0
   56.3040   24.5050   47.1070 N   0  0  0  0  0  0  0  0  0  0  0  0
   55.8470   25.1510   45.9990 C   0  0  0  0  0  0  0  0  0  0  0  0
   55.6320   26.4340   46.0020 N   0  0  0  0  0  0  0  0  0  0  0  0
   56.6190   27.4700   45.8720 C   0  0  0  0  0  0  0  0  0  0  0  0
   57.7930   27.3110   46.3090 O   0  0  0  0  0  0  0  0  0  0  0  0
   56.2560   28.6960   45.2380 N   0  0  0  0  0  0  0  0  0  0  0  0
   57.2950   29.4810   44.0980 S   0  0  0  0  0  0  0  0  0  0  0  0
   58.4790   28.5990   43.8180 O   0  0  0  0  0  0  0  0  0  0  0  0
   56.5340   29.6880   42.8180 O   0  0  0  0  0  0  0  0  0  0  0  0
   57.8660   31.0010   44.8050 C   0  0  0  0  0  0  0  0  0  0  0  0
   57.4390   32.1970   44.2060 C   0  0  0  0  0  0  0  0  0  0  0  0
   57.9160   33.4290   44.6580 C   0  0  0  0  0  0  0  0  0  0  0  0
   58.8310   33.4820   45.7090 C   0  0  0  0  0  0  0  0  0  0  0  0
   59.2960   34.6790   46.1430 F   0  0  0  0  0  0  0  0  0  0  0  0
   59.2620   32.3010   46.3190 C   0  0  0  0  0  0  0  0  0  0  0  0
   58.7810   31.0570   45.8830 C   0  0  0  0  0  0  0  0  0  0  0  0
   59.2150   29.8750   46.5630 N   0  0  0  0  0  0  0  0  0  0  0  0
   59.8700   28.9080   45.8720 O   0  0  0  0  0  0  0  0  0  0  0  0
   58.9170   29.6900   47.9500 C   0  0  0  0  0  0  0  0  0  0  0  0
   58.8290   28.5300   48.4330 O   0  0  0  0  0  0  0  0  0  0  0  0
   55.6240   24.4440   44.8590 N   0  0  0  0  0  0  0  0  0  0  0  0
   57.4277   21.3894   43.5392 H   0  0  0  0  0  0  0  0  0  0  0  0
   56.2631   21.0052   42.2267 H   0  0  0  0  0  0  0  0  0  0  0  0
   57.1292   22.5789   42.2267 H   0  0  0  0  0  0  0  0  0  0  0  0
   56.4958   21.3488   45.9088 H   0  0  0  0  0  0  0  0  0  0  0  0
   56.5445   22.2400   50.2416 H   0  0  0  0  0  0  0  0  0  0  0  0
   55.1446   22.4561   49.1370 H   0  0  0  0  0  0  0  0  0  0  0  0
   56.0583   20.9096   49.1370 H   0  0  0  0  0  0  0  0  0  0  0  0
   56.7218   32.1631   43.3726 H   0  0  0  0  0  0  0  0  0  0  0  0
   57.5694   34.3593   44.1843 H   0  0  0  0  0  0  0  0  0  0  0  0
   59.9841   32.3469   47.1476 H   0  0  0  0  0  0  0  0  0  0  0  0
   59.2240   28.1570   45.8090 H   0  0  0  0  0  0  0  0  0  0  0  0
   58.7639   30.5655   48.5981 H   0  0  0  0  0  0  0  0  0  0  0  0
  1  2  1  0
  2  3  1  0
  3  4  1  0
  4  5  2  0
  5  6  1  0
  6  7  1  0
  5  8  1  0
  8  9  1  0
  9 10  2  3
 10 11  1  0
 11 12  2  0
 11 13  1  0
 13 14  1  0
 14 15  2  0
 14 16  2  0
 14 17  1  0
 17 18  2  0
 18 19  1  0
 19 20  2  0
 20 21  1  0
 20 22  1  0
 22 23  2  0
 23 24  1  0
 24 25  1  0
 24 26  1  0
 26 27  2  0
  9 28  1  0
 28  3  2  0
 23 17  1  0
  1 29  1  0
  1 30  1  0
  1 31  1  0
  4 32  1  0
  7 33  1  0
  7 34  1  0
  7 35  1  0
 18 36  1  0
 19 37  1  0
 22 38  1  0
 25 39  1  0
 26 40  1  0
M  CHG  2   8  -1  13  -1
M  END
>  <UniqueID>  (69) 
59

>  <SMILES>  (69) 
COc1cc(OC)[n-]c(=NC(=O)[N-]S(=O)(=O)c2ccc(F)cc2N(O)C=O)n1

>  <Energy>  (69) 
47.41485981644277

>  <Genealogy>  (69) 
COc1cc(OC)[n-]c(=NC(=O)[N-]S(=O)(=O)c2ccc(F)cc2N(O)C=O)n1 (protonated)
COc1cc(OC)[n-]c(=NC(=O)[N-]S(=O)(=O)c2ccc(F)cc2N(O)C=O)n1 (3D coordinates assigned)
COc1cc(OC)[n-]c(=NC(=O)[N-]S(=O)(=O)c2ccc(F)cc2N(O)C=O)n1 (optimized conformer: 47.41485981644277 kcal/mol)

>  <smiles>  (69) 
COc1cc(OC)[nH]c(=NC(=O)NS(=O)(=O)c2ccc(F)cc2N(O)C=O)n1

>  <score_type>  (69) 
oracle

>  <origin>  (69) 
adg

>  <m_score__min__energy>  (69) 
-9.6699999999999999

>  <m_primary>  (69) 
energy

$$$$
69:0
     RDKit          3D

 49 51  0  0  0  0  0  0  0  0999 V2000
   59.6220   28.0200   49.5190 O   0  0  0  0  0  0  0  0  0  0  0  0
   60.2960   28.3340   48.5010 C   0  0  0  0  0  0  0  0  0  0  0  0
   60.7560   27.2980   47.5600 C   0  0  0  0  0  0  0  0  0  0  0  0
   60.0210   26.7890   46.5580 C   0  0  0  0  0  0  0  0  0  0  0  0
   58.7470   27.3540   46.0600 C   0  0  0  0  0  0  0  0  0  0  0  0
   58.7410   28.6370   45.4940 C   0  0  0  0  0  0  0  0  0  0  0  0
   57.5390   29.2240   45.0840 C   0  0  0  0  0  0  0  0  0  0  0  0
   56.3300   28.5430   45.2490 C   0  0  0  0  0  0  0  0  0  0  0  0
   55.1380   29.1420   44.8520 O   0  0  0  0  0  0  0  0  0  0  0  0
   56.3200   27.2670   45.8280 C   0  0  0  0  0  0  0  0  0  0  0  0
   55.1110   26.5950   46.0020 O   0  0  0  0  0  0  0  0  0  0  0  0
   57.5240   26.6790   46.2410 C   0  0  0  0  0  0  0  0  0  0  0  0
   60.7100   29.6890   48.2900 N   0  0  0  0  0  0  0  0  0  0  0  0
   59.8890   30.7890   47.8650 C   0  0  0  0  0  0  0  0  0  0  0  0
   60.0900   31.3990   46.6110 C   0  0  0  0  0  0  0  0  0  0  0  0
   59.3360   32.5120   46.2350 C   0  0  0  0  0  0  0  0  0  0  0  0
   58.3900   33.0440   47.1080 C   0  0  0  0  0  0  0  0  0  0  0  0
   58.1990   32.4720   48.3660 C   0  0  0  0  0  0  0  0  0  0  0  0
   58.9420   31.3430   48.7620 C   0  0  0  0  0  0  0  0  0  0  0  0
   58.7270   30.7780   50.1150 C   0  0  0  0  0  0  0  0  0  0  0  0
   57.9710   29.7810   50.2780 O   0  0  0  0  0  0  0  0  0  0  0  0
   59.3950   31.3590   51.2420 N   0  0  0  0  0  0  0  0  0  0  0  0
   60.7220   31.9630   51.1690 C   0  0  0  0  0  0  0  0  0  0  0  0
   60.6300   33.4560   51.2610 C   0  0  0  0  0  0  0  0  0  0  0  0
   60.2720   33.9990   52.3440 O   0  0  0  0  0  0  0  0  0  0  0  0
   61.0410   34.2570   50.1470 N   0  0  0  0  0  0  0  0  0  0  0  0
   61.9370   33.8310   49.1120 C   0  0  0  0  0  0  0  0  0  0  0  0
   61.6480   34.1710   47.7850 C   0  0  0  0  0  0  0  0  0  0  0  0
   62.5070   33.7780   46.7530 C   0  0  0  0  0  0  0  0  0  0  0  0
   63.6710   33.0600   47.0440 C   0  0  0  0  0  0  0  0  0  0  0  0
   63.9830   32.7450   48.3710 C   0  0  0  0  0  0  0  0  0  0  0  0
   63.1250   33.1320   49.4050 C   0  0  0  0  0  0  0  0  0  0  0  0
   61.7783   26.9125   47.6878 H   0  0  0  0  0  0  0  0  0  0  0  0
   60.3962   25.8786   46.0678 H   0  0  0  0  0  0  0  0  0  0  0  0
   59.6868   29.1851   45.3717 H   0  0  0  0  0  0  0  0  0  0  0  0
   57.5457   30.2258   44.6298 H   0  0  0  0  0  0  0  0  0  0  0  0
   54.3440   26.7050   45.3490 H   0  0  0  0  0  0  0  0  0  0  0  0
   57.5134   25.6838   46.7095 H   0  0  0  0  0  0  0  0  0  0  0  0
   60.8471   30.9950   45.9228 H   0  0  0  0  0  0  0  0  0  0  0  0
   59.4893   32.9701   45.2467 H   0  0  0  0  0  0  0  0  0  0  0  0
   57.7926   33.9165   46.8051 H   0  0  0  0  0  0  0  0  0  0  0  0
   57.4607   32.9072   49.0556 H   0  0  0  0  0  0  0  0  0  0  0  0
   61.3361   31.5871   52.0006 H   0  0  0  0  0  0  0  0  0  0  0  0
   61.1799   31.6955   50.2053 H   0  0  0  0  0  0  0  0  0  0  0  0
   60.7417   34.7496   47.5528 H   0  0  0  0  0  0  0  0  0  0  0  0
   62.2662   34.0343   45.7107 H   0  0  0  0  0  0  0  0  0  0  0  0
   64.3405   32.7432   46.2307 H   0  0  0  0  0  0  0  0  0  0  0  0
   64.9054   32.1916   48.6014 H   0  0  0  0  0  0  0  0  0  0  0  0
   63.3776   32.8906   50.4480 H   0  0  0  0  0  0  0  0  0  0  0  0
  1  2  2  0
  2  3  1  0
  3  4  2  3
  4  5  1  0
  5  6  2  0
  6  7  1  0
  7  8  2  0
  8  9  1  0
  8 10  1  0
 10 11  1  0
 10 12  2  0
  2 13  1  0
 13 14  1  0
 14 15  2  0
 15 16  1  0
 16 17  2  0
 17 18  1  0
 18 19  2  0
 19 20  1  0
 20 21  2  0
 20 22  1  0
 22 23  1  0
 23 24  1  0
 24 25  2  0
 24 26  1  0
 26 27  1  0
 27 28  2  0
 28 29  1  0
 29 30  2  0
 30 31  1  0
 31 32  2  0
 12  5  1  0
 19 14  1  0
 32 27  1  0
  3 33  1  0
  4 34  1  0
  6 35  1  0
  7 36  1  0
 11 37  1  0
 12 38  1  0
 15 39  1  0
 16 40  1  0
 17 41  1  0
 18 42  1  0
 23 43  1  0
 23 44  1  0
 28 45  1  0
 29 46  1  0
 30 47  1  0
 31 48  1  0
 32 49  1  0
M  CHG  4   9  -1  13  -1  22  -1  26  -1
M  END
>  <UniqueID>  (70) 
60

>  <SMILES>  (70) 
O=C(C=Cc1ccc([O-])c(O)c1)[N-]c1ccccc1C(=O)[N-]CC(=O)[N-]c1ccccc1

>  <Energy>  (70) 
66.70314986690148

>  <Genealogy>  (70) 
O=C(C=Cc1ccc([O-])c(O)c1)[N-]c1ccccc1C(=O)[N-]CC(=O)[N-]c1ccccc1 (protonated)
O=C(C=Cc1ccc([O-])c(O)c1)[N-]c1ccccc1C(=O)[N-]CC(=O)[N-]c1ccccc1 (3D coordinates assigned)
O=C(C=Cc1ccc([O-])c(O)c1)[N-]c1ccccc1C(=O)[N-]CC(=O)[N-]c1ccccc1 (optimized conformer: 66.70314986690148 kcal/mol)

>  <smiles>  (70) 
O=C(C=Cc1ccc(O)c(O)c1)Nc1ccccc1C(=O)NCC(=O)Nc1ccccc1

>  <score_type>  (70) 
oracle

>  <origin>  (70) 
adg

>  <m_score__min__energy>  (70) 
-17.140000000000001

>  <m_primary>  (70) 
energy

$$$$
70:0
     RDKit          3D

 28 29  0  0  0  0  0  0  0  0999 V2000
   58.4250   25.3990   47.1740 C   0  0  0  0  0  0  0  0  0  0  0  0
   57.1190   25.8470   46.6020 C   0  0  0  0  0  0  0  0  0  0  0  0
   56.0460   25.0420   46.4900 N   0  0  0  0  0  0  0  0  0  0  0  0
   55.1190   25.8380   45.9210 C   0  0  0  0  0  0  0  0  0  0  0  0
   53.9570   25.4410   45.6490 O   0  0  0  0  0  0  0  0  0  0  0  0
   55.5390   27.0910   45.6620 N   0  0  0  0  0  0  0  0  0  0  0  0
   56.8100   27.1010   46.1000 C   0  0  0  0  0  0  0  0  0  0  0  0
   57.7220   28.2640   45.9840 C   0  0  0  0  0  0  0  0  0  0  0  0
   58.3850   28.6240   46.9920 O   0  0  0  0  0  0  0  0  0  0  0  0
   57.9030   28.9910   44.7620 N   0  0  0  0  0  0  0  0  0  0  0  0
   57.0130   30.3940   44.2620 S   0  0  0  0  0  0  0  0  0  0  0  0
   55.6090   30.2910   44.7850 O   0  0  0  0  0  0  0  0  0  0  0  0
   56.9680   30.4410   42.7600 O   0  0  0  0  0  0  0  0  0  0  0  0
   57.7570   31.8560   44.9040 C   0  0  0  0  0  0  0  0  0  0  0  0
   57.4030   33.1100   44.3890 C   0  0  0  0  0  0  0  0  0  0  0  0
   58.0050   34.2690   44.8860 C   0  0  0  0  0  0  0  0  0  0  0  0
   58.9620   34.1840   45.9040 C   0  0  0  0  0  0  0  0  0  0  0  0
   59.5530   35.3470   46.3860 O   0  0  0  0  0  0  0  0  0  0  0  0
   59.3150   32.9310   46.4270 C   0  0  0  0  0  0  0  0  0  0  0  0
   60.2990   32.8260   47.4750 C   0  0  0  0  0  0  0  0  0  0  0  0
   61.0890   32.7420   48.3170 N   0  0  0  0  0  0  0  0  0  0  0  0
   58.7110   31.7700   45.9270 C   0  0  0  0  0  0  0  0  0  0  0  0
   58.3700   25.4179   48.2725 H   0  0  0  0  0  0  0  0  0  0  0  0
   58.6417   24.3751   46.8353 H   0  0  0  0  0  0  0  0  0  0  0  0
   59.2246   26.0742   46.8353 H   0  0  0  0  0  0  0  0  0  0  0  0
   56.6491   33.1824   43.5912 H   0  0  0  0  0  0  0  0  0  0  0  0
   57.7261   35.2509   44.4761 H   0  0  0  0  0  0  0  0  0  0  0  0
   58.9864   30.7878   46.3387 H   0  0  0  0  0  0  0  0  0  0  0  0
  1  2  1  0
  2  3  1  0
  3  4  1  0
  4  5  2  0
  4  6  1  0
  6  7  1  0
  7  8  1  0
  8  9  2  0
  8 10  1  0
 10 11  1  0
 11 12  2  0
 11 13  2  0
 11 14  1  0
 14 15  2  0
 15 16  1  0
 16 17  2  0
 17 18  1  0
 17 19  1  0
 19 20  1  0
 20 21  3  0
 19 22  2  0
  7  2  2  0
 22 14  1  0
  1 23  1  0
  1 24  1  0
  1 25  1  0
 15 26  1  0
 16 27  1  0
 22 28  1  0
M  CHG  4   3  -1   6  -1  10  -1  18  -1
M  END
>  <UniqueID>  (71) 
61

>  <SMILES>  (71) 
Cc1[n-]c(=O)[n-]c1C(=O)[N-]S(=O)(=O)c1ccc([O-])c(C#N)c1

>  <Energy>  (71) 
60.553175341030546

>  <Genealogy>  (71) 
Cc1[n-]c(=O)[n-]c1C(=O)[N-]S(=O)(=O)c1ccc([O-])c(C#N)c1 (protonated)
Cc1[n-]c(=O)[n-]c1C(=O)[N-]S(=O)(=O)c1ccc([O-])c(C#N)c1 (3D coordinates assigned)
Cc1[n-]c(=O)[n-]c1C(=O)[N-]S(=O)(=O)c1ccc([O-])c(C#N)c1 (optimized conformer: 60.553175341030546 kcal/mol)

>  <smiles>  (71) 
Cc1[nH]c(=O)[nH]c1C(=O)NS(=O)(=O)c1ccc(O)c(C#N)c1

>  <score_type>  (71) 
oracle

>  <origin>  (71) 
adg

>  <m_score__min__energy>  (71) 
-13.66

>  <m_primary>  (71) 
energy

$$$$
71:0
     RDKit          3D

 31 32  0  0  0  0  0  0  0  0999 V2000
   54.4030   29.3960   43.3840 O   0  0  0  0  0  0  0  0  0  0  0  0
   55.5020   29.6760   43.9330 C   0  0  0  0  0  0  0  0  0  0  0  0
   56.4560   30.5370   43.2080 C   0  0  0  0  0  0  0  0  0  0  0  0
   57.7280   30.7660   43.5700 C   0  0  0  0  0  0  0  0  0  0  0  0
   58.1740   31.8420   44.4790 C   0  0  0  0  0  0  0  0  0  0  0  0
   57.8360   33.1710   44.1920 C   0  0  0  0  0  0  0  0  0  0  0  0
   58.2190   34.2000   45.0560 C   0  0  0  0  0  0  0  0  0  0  0  0
   58.9280   33.9150   46.2370 C   0  0  0  0  0  0  0  0  0  0  0  0
   59.3290   34.9730   47.1270 N   0  0  0  0  0  0  0  0  0  0  0  0
   59.6470   36.0940   46.6820 O   0  0  0  0  0  0  0  0  0  0  0  0
   59.3740   34.7620   48.4870 O   0  0  0  0  0  0  0  0  0  0  0  0
   59.2350   32.5770   46.5390 C   0  0  0  0  0  0  0  0  0  0  0  0
   58.8540   31.5490   45.6730 C   0  0  0  0  0  0  0  0  0  0  0  0
   55.8240   29.1520   45.2290 N   0  0  0  0  0  0  0  0  0  0  0  0
   56.7050   28.0570   45.5280 C   0  0  0  0  0  0  0  0  0  0  0  0
   58.1050   28.1860   45.4570 C   0  0  0  0  0  0  0  0  0  0  0  0
   58.9290   27.1010   45.7760 C   0  0  0  0  0  0  0  0  0  0  0  0
   58.3670   25.8890   46.1820 C   0  0  0  0  0  0  0  0  0  0  0  0
   56.9790   25.7610   46.2810 C   0  0  0  0  0  0  0  0  0  0  0  0
   56.1500   26.8420   45.9630 C   0  0  0  0  0  0  0  0  0  0  0  0
   54.7700   26.7030   46.0760 O   0  0  0  0  0  0  0  0  0  0  0  0
   56.0947   31.0325   42.2948 H   0  0  0  0  0  0  0  0  0  0  0  0
   58.4997   30.0997   43.1571 H   0  0  0  0  0  0  0  0  0  0  0  0
   57.2657   33.4057   43.2811 H   0  0  0  0  0  0  0  0  0  0  0  0
   57.9640   35.2415   44.8107 H   0  0  0  0  0  0  0  0  0  0  0  0
   59.7794   32.3374   47.4643 H   0  0  0  0  0  0  0  0  0  0  0  0
   59.0877   30.5046   45.9274 H   0  0  0  0  0  0  0  0  0  0  0  0
   58.5526   29.1427   45.1498 H   0  0  0  0  0  0  0  0  0  0  0  0
   60.0221   27.2031   45.7068 H   0  0  0  0  0  0  0  0  0  0  0  0
   59.0168   25.0350   46.4239 H   0  0  0  0  0  0  0  0  0  0  0  0
   56.5375   24.8086   46.6095 H   0  0  0  0  0  0  0  0  0  0  0  0
  1  2  2  0
  2  3  1  0
  3  4  2  3
  4  5  1  0
  5  6  2  0
  6  7  1  0
  7  8  2  0
  8  9  1  0
  9 10  2  0
  9 11  1  0
  8 12  1  0
 12 13  2  0
  2 14  1  0
 14 15  1  0
 15 16  2  0
 16 17  1  0
 17 18  2  0
 18 19  1  0
 19 20  2  0
 20 21  1  0
 13  5  1  0
 20 15  1  0
  3 22  1  0
  4 23  1  0
  6 24  1  0
  7 25  1  0
 12 26  1  0
 13 27  1  0
 16 28  1  0
 17 29  1  0
 18 30  1  0
 19 31  1  0
M  CHG  4   9   1  11  -1  14  -1  21  -1
M  END
>  <UniqueID>  (72) 
62

>  <SMILES>  (72) 
O=C(C=Cc1ccc([N+](=O)[O-])cc1)[N-]c1ccccc1[O-]

>  <Energy>  (72) 
43.61402302352634

>  <Genealogy>  (72) 
O=C(C=Cc1ccc([N+](=O)[O-])cc1)[N-]c1ccccc1[O-] (protonated)
O=C(C=Cc1ccc([N+](=O)[O-])cc1)[N-]c1ccccc1[O-] (3D coordinates assigned)
O=C(C=Cc1ccc([N+](=O)[O-])cc1)[N-]c1ccccc1[O-] (optimized conformer: 43.61402302352634 kcal/mol)

>  <smiles>  (72) 
O=C(C=Cc1ccc([N+](=O)[O-])cc1)Nc1ccccc1O

>  <score_type>  (72) 
oracle

>  <origin>  (72) 
adg

>  <m_score__min__energy>  (72) 
-13.81

>  <m_primary>  (72) 
energy

$$$$
72:0
     RDKit          3D

 50 53  0  0  0  0  0  0  0  0999 V2000
   57.7510   32.7750   46.9500 C   0  0  0  0  0  0  0  0  0  0  0  0
   57.7670   31.6130   46.1230 O   0  0  0  0  0  0  0  0  0  0  0  0
   57.6490   31.6170   44.7220 C   0  0  0  0  0  0  0  0  0  0  0  0
   58.1650   32.6850   43.9550 C   0  0  0  0  0  0  0  0  0  0  0  0
   58.0430   32.6860   42.5670 C   0  0  0  0  0  0  0  0  0  0  0  0
   57.4140   31.6250   41.9220 C   0  0  0  0  0  0  0  0  0  0  0  0
   56.9000   30.5590   42.6600 C   0  0  0  0  0  0  0  0  0  0  0  0
   57.0020   30.5370   44.0670 C   0  0  0  0  0  0  0  0  0  0  0  0
   56.4010   29.3970   44.8170 C   0  0  0  0  0  0  0  0  0  0  0  0
   55.1460   29.3190   44.9290 O   0  0  0  0  0  0  0  0  0  0  0  0
   57.2410   28.3960   45.4150 N   0  0  0  0  0  0  0  0  0  0  0  0
   56.9290   27.1660   45.7070 C   0  0  0  0  0  0  0  0  0  0  0  0
   55.6340   26.7350   45.6620 N   0  0  0  0  0  0  0  0  0  0  0  0
   55.2890   25.4580   45.9760 C   0  0  0  0  0  0  0  0  0  0  0  0
   56.2710   24.5410   46.3510 C   0  0  0  0  0  0  0  0  0  0  0  0
   57.6030   24.9520   46.4080 C   0  0  0  0  0  0  0  0  0  0  0  0
   57.9440   26.2800   46.1020 C   0  0  0  0  0  0  0  0  0  0  0  0
   59.2740   26.7290   46.1300 O   0  0  0  0  0  0  0  0  0  0  0  0
   59.7050   27.9910   46.5650 C   0  0  0  0  0  0  0  0  0  0  0  0
   59.4090   28.4900   47.8460 C   0  0  0  0  0  0  0  0  0  0  0  0
   59.8320   29.7690   48.2200 C   0  0  0  0  0  0  0  0  0  0  0  0
   60.5330   30.5730   47.3110 C   0  0  0  0  0  0  0  0  0  0  0  0
   61.0560   32.1950   47.7630 S   0  0  0  0  0  0  0  0  0  0  0  0
   60.2980   32.6670   48.9730 O   0  0  0  0  0  0  0  0  0  0  0  0
   60.7810   33.1260   46.6170 O   0  0  0  0  0  0  0  0  0  0  0  0
   62.7550   32.2280   48.1150 N   0  0  0  0  0  0  0  0  0  0  0  0
   63.2920   32.8500   49.1210 C   0  0  0  0  0  0  0  0  0  0  0  0
   62.6690   33.7820   49.8820 N   0  0  0  0  0  0  0  0  0  0  0  0
   63.4740   34.2480   50.8760 C   0  0  0  0  0  0  0  0  0  0  0  0
   64.7490   33.6880   50.9090 C   0  0  0  0  0  0  0  0  0  0  0  0
   64.8620   32.5710   49.6490 S   0  0  0  0  0  0  0  0  0  0  0  0
   60.8200   30.0810   46.0310 C   0  0  0  0  0  0  0  0  0  0  0  0
   60.4010   28.8010   45.6600 C   0  0  0  0  0  0  0  0  0  0  0  0
   57.7552   32.4725   48.0076 H   0  0  0  0  0  0  0  0  0  0  0  0
   58.6408   33.3867   46.7401 H   0  0  0  0  0  0  0  0  0  0  0  0
   56.8447   33.3620   46.7401 H   0  0  0  0  0  0  0  0  0  0  0  0
   58.6679   33.5239   44.4583 H   0  0  0  0  0  0  0  0  0  0  0  0
   58.4440   33.5258   41.9806 H   0  0  0  0  0  0  0  0  0  0  0  0
   57.3219   31.6273   40.8259 H   0  0  0  0  0  0  0  0  0  0  0  0
   56.4087   29.7245   42.1383 H   0  0  0  0  0  0  0  0  0  0  0  0
   54.2345   25.1476   45.9343 H   0  0  0  0  0  0  0  0  0  0  0  0
   55.9980   23.5047   46.5992 H   0  0  0  0  0  0  0  0  0  0  0  0
   58.3873   24.2352   46.6929 H   0  0  0  0  0  0  0  0  0  0  0  0
   58.8420   27.8712   48.5570 H   0  0  0  0  0  0  0  0  0  0  0  0
   59.6140   30.1452   49.2304 H   0  0  0  0  0  0  0  0  0  0  0  0
   61.6920   34.1220   49.7440 H   0  0  0  0  0  0  0  0  0  0  0  0
   63.1428   35.0088   51.5981 H   0  0  0  0  0  0  0  0  0  0  0  0
   65.5432   33.9313   51.6301 H   0  0  0  0  0  0  0  0  0  0  0  0
   61.3769   30.7044   45.3160 H   0  0  0  0  0  0  0  0  0  0  0  0
   60.6197   28.4268   44.6490 H   0  0  0  0  0  0  0  0  0  0  0  0
  1  2  1  0
  2  3  1  0
  3  4  2  0
  4  5  1  0
  5  6  2  0
  6  7  1  0
  7  8  2  0
  8  9  1  0
  9 10  2  0
  9 11  1  0
 11 12  2  3
 12 13  1  0
 13 14  1  0
 14 15  2  0
 15 16  1  0
 16 17  2  0
 17 18  1  0
 18 19  1  0
 19 20  2  0
 20 21  1  0
 21 22  2  0
 22 23  1  0
 23 24  2  0
 23 25  2  0
 23 26  1  0
 26 27  2  3
 27 28  1  0
 28 29  1  0
 29 30  2  0
 30 31  1  0
 22 32  1  0
 32 33  2  0
  8  3  1  0
 17 12  1  0
 33 19  1  0
 31 27  1  0
  1 34  1  0
  1 35  1  0
  1 36  1  0
  4 37  1  0
  5 38  1  0
  6 39  1  0
  7 40  1  0
 14 41  1  0
 15 42  1  0
 16 43  1  0
 20 44  1  0
 21 45  1  0
 28 46  1  0
 29 47  1  0
 30 48  1  0
 32 49  1  0
 33 50  1  0
M  CHG  1  13  -1
M  END
>  <UniqueID>  (73) 
63

>  <SMILES>  (73) 
COc1ccccc1C(=O)N=c1[n-]cccc1Oc1ccc(S(=O)(=O)N=c2[nH]ccs2)cc1

>  <Energy>  (73) 
99.75124003278643

>  <Genealogy>  (73) 
COc1ccccc1C(=O)N=c1[n-]cccc1Oc1ccc(S(=O)(=O)N=c2[nH]ccs2)cc1 (protonated)
COc1ccccc1C(=O)N=c1[n-]cccc1Oc1ccc(S(=O)(=O)N=c2[nH]ccs2)cc1 (3D coordinates assigned)
COc1ccccc1C(=O)N=c1[n-]cccc1Oc1ccc(S(=O)(=O)N=c2[nH]ccs2)cc1 (optimized conformer: 99.75124003278643 kcal/mol)

>  <smiles>  (73) 
COc1ccccc1C(=O)N=c1[nH]cccc1Oc1ccc(S(=O)(=O)N=c2[nH]ccs2)cc1

>  <score_type>  (73) 
oracle

>  <origin>  (73) 
adg

>  <m_score__min__energy>  (73) 
-11.08

>  <m_primary>  (73) 
energy

$$$$
73:0
     RDKit          3D

 48 50  0  0  0  0  0  0  0  0999 V2000
   52.3140   23.9380   44.9230 C   0  0  0  0  0  0  0  0  0  0  0  0
   53.7990   24.1170   44.9530 C   0  0  0  0  0  0  0  0  0  0  0  0
   54.6230   23.3400   44.1340 C   0  0  0  0  0  0  0  0  0  0  0  0
   56.0060   23.5270   44.2090 C   0  0  0  0  0  0  0  0  0  0  0  0
   56.9310   22.7010   43.3730 C   0  0  0  0  0  0  0  0  0  0  0  0
   56.5140   24.4350   45.0830 N   0  0  0  0  0  0  0  0  0  0  0  0
   55.7020   25.1900   45.8730 C   0  0  0  0  0  0  0  0  0  0  0  0
   56.1890   26.0450   46.7240 N   0  0  0  0  0  0  0  0  0  0  0  0
   57.1500   27.0790   46.4500 C   0  0  0  0  0  0  0  0  0  0  0  0
   58.1440   27.3420   47.4000 C   0  0  0  0  0  0  0  0  0  0  0  0
   59.0810   28.3550   47.1840 C   0  0  0  0  0  0  0  0  0  0  0  0
   59.0380   29.1280   46.0130 C   0  0  0  0  0  0  0  0  0  0  0  0
   60.0510   30.2360   45.7830 C   0  0  0  0  0  0  0  0  0  0  0  0
   59.5240   31.6090   45.9990 N   0  0  0  0  0  0  0  0  0  0  0  0
   59.0530   31.8290   47.3920 C   0  0  0  0  0  0  0  0  0  0  0  0
   57.9820   32.9380   47.5060 C   0  0  0  0  0  0  0  0  0  0  0  0
   58.1530   34.0060   46.5020 N   0  0  0  0  0  0  0  0  0  0  0  0
   59.2880   34.8870   46.8250 C   0  0  0  0  0  0  0  0  0  0  0  0
   58.1990   33.5030   45.1060 C   0  0  0  0  0  0  0  0  0  0  0  0
   58.5070   31.9950   45.0040 C   0  0  0  0  0  0  0  0  0  0  0  0
   58.0050   28.9040   45.0870 C   0  0  0  0  0  0  0  0  0  0  0  0
   57.0680   27.8890   45.3030 C   0  0  0  0  0  0  0  0  0  0  0  0
   54.3550   25.0150   45.8090 N   0  0  0  0  0  0  0  0  0  0  0  0
   51.9294   23.8916   45.9525 H   0  0  0  0  0  0  0  0  0  0  0  0
   51.8529   24.7871   44.3972 H   0  0  0  0  0  0  0  0  0  0  0  0
   52.0678   23.0037   44.3972 H   0  0  0  0  0  0  0  0  0  0  0  0
   54.1926   22.5978   43.4457 H   0  0  0  0  0  0  0  0  0  0  0  0
   57.5902   22.1124   44.0280 H   0  0  0  0  0  0  0  0  0  0  0  0
   56.3434   22.0216   42.7381 H   0  0  0  0  0  0  0  0  0  0  0  0
   57.5398   23.3615   42.7381 H   0  0  0  0  0  0  0  0  0  0  0  0
   58.1874   26.7463   48.3237 H   0  0  0  0  0  0  0  0  0  0  0  0
   59.8588   28.5486   47.9374 H   0  0  0  0  0  0  0  0  0  0  0  0
   60.8937   30.0793   46.4724 H   0  0  0  0  0  0  0  0  0  0  0  0
   60.3438   30.1767   44.7243 H   0  0  0  0  0  0  0  0  0  0  0  0
   60.3470   32.2400   45.8480 H   0  0  0  0  0  0  0  0  0  0  0  0
   58.6237   30.8887   47.7683 H   0  0  0  0  0  0  0  0  0  0  0  0
   59.9223   32.1528   47.9831 H   0  0  0  0  0  0  0  0  0  0  0  0
   56.9898   32.4833   47.3694 H   0  0  0  0  0  0  0  0  0  0  0  0
   58.0876   33.3984   48.4994 H   0  0  0  0  0  0  0  0  0  0  0  0
   59.3909   34.9669   47.9173 H   0  0  0  0  0  0  0  0  0  0  0  0
   60.2112   34.4666   46.3995 H   0  0  0  0  0  0  0  0  0  0  0  0
   59.1097   35.8856   46.3995 H   0  0  0  0  0  0  0  0  0  0  0  0
   57.2225   33.6913   44.6359 H   0  0  0  0  0  0  0  0  0  0  0  0
   59.0168   34.0349   44.5977 H   0  0  0  0  0  0  0  0  0  0  0  0
   57.5851   31.4237   45.1878 H   0  0  0  0  0  0  0  0  0  0  0  0
   58.8927   31.7772   43.9971 H   0  0  0  0  0  0  0  0  0  0  0  0
   57.9331   29.5313   44.1863 H   0  0  0  0  0  0  0  0  0  0  0  0
   56.2627   27.7231   44.5723 H   0  0  0  0  0  0  0  0  0  0  0  0
  1  2  1  0
  2  3  1  0
  3  4  2  0
  4  5  1  0
  4  6  1  0
  6  7  1  0
  7  8  2  3
  8  9  1  0
  9 10  2  0
 10 11  1  0
 11 12  2  0
 12 13  1  0
 13 14  1  0
 14 15  1  0
 15 16  1  0
 16 17  1  0
 17 18  1  0
 17 19  1  0
 19 20  1  0
 12 21  1  0
 21 22  2  0
  7 23  1  0
 23  2  2  0
 22  9  1  0
 20 14  1  0
  1 24  1  0
  1 25  1  0
  1 26  1  0
  3 27  1  0
  5 28  1  0
  5 29  1  0
  5 30  1  0
 10 31  1  0
 11 32  1  0
 13 33  1  0
 13 34  1  0
 14 35  1  0
 15 36  1  0
 15 37  1  0
 16 38  1  0
 16 39  1  0
 18 40  1  0
 18 41  1  0
 18 42  1  0
 19 43  1  0
 19 44  1  0
 20 45  1  0
 20 46  1  0
 21 47  1  0
 22 48  1  0
M  CHG  2   6  -1  14   1
M  END
>  <UniqueID>  (74) 
64

>  <SMILES>  (74) 
Cc1cc(C)[n-]c(=Nc2ccc(C[NH+]3CCN(C)CC3)cc2)n1

>  <Energy>  (74) 
68.78054694309809

>  <Genealogy>  (74) 
Cc1cc(C)[n-]c(=Nc2ccc(C[NH+]3CCN(C)CC3)cc2)n1 (protonated)
Cc1cc(C)[n-]c(=Nc2ccc(C[NH+]3CCN(C)CC3)cc2)n1 (3D coordinates assigned)
Cc1cc(C)[n-]c(=Nc2ccc(C[NH+]3CCN(C)CC3)cc2)n1 (nonaromatic ring conformer: 68.78054694309809 kcal/mol)

>  <smiles>  (74) 
Cc1cc(C)[nH]c(=Nc2ccc(CN3CCN(C)CC3)cc2)n1

>  <score_type>  (74) 
oracle

>  <origin>  (74) 
adg

>  <m_score__min__energy>  (74) 
-7.4800000000000004

>  <m_primary>  (74) 
energy

$$$$
74:0
     RDKit          3D

 49 51  0  0  0  0  0  0  0  0999 V2000
   58.1430   32.8290   47.6600 C   0  0  0  0  0  0  0  0  0  0  0  0
   58.6280   31.5560   46.9730 C   0  0  0  0  0  0  0  0  0  0  0  0
   58.9350   30.5530   47.9390 O   0  0  0  0  0  0  0  0  0  0  0  0
   60.2070   29.9880   48.0850 C   0  0  0  0  0  0  0  0  0  0  0  0
   61.1250   30.2770   47.2680 O   0  0  0  0  0  0  0  0  0  0  0  0
   60.4690   29.0580   49.2130 C   0  0  0  0  0  0  0  0  0  0  0  0
   60.5360   29.4890   50.4900 C   0  0  0  0  0  0  0  0  0  0  0  0
   59.9310   30.7460   50.9800 C   0  0  0  0  0  0  0  0  0  0  0  0
   58.5420   30.8130   51.2240 C   0  0  0  0  0  0  0  0  0  0  0  0
   57.7000   29.7260   50.9840 O   0  0  0  0  0  0  0  0  0  0  0  0
   57.9940   31.9640   51.6930 N   0  0  0  0  0  0  0  0  0  0  0  0
   58.7370   33.0710   51.9470 C   0  0  0  0  0  0  0  0  0  0  0  0
   58.1750   34.1130   52.3750 O   0  0  0  0  0  0  0  0  0  0  0  0
   60.1170   33.0510   51.7350 C   0  0  0  0  0  0  0  0  0  0  0  0
   60.8760   34.1890   51.9900 O   0  0  0  0  0  0  0  0  0  0  0  0
   60.7270   31.8800   51.2640 C   0  0  0  0  0  0  0  0  0  0  0  0
   62.5210   31.8540   51.0510 S   0  0  0  0  0  0  0  0  0  0  0  0
   62.4500   32.5080   49.3820 C   0  0  0  0  0  0  0  0  0  0  0  0
   63.4470   32.1720   48.4560 C   0  0  0  0  0  0  0  0  0  0  0  0
   63.3960   32.6800   47.1540 C   0  0  0  0  0  0  0  0  0  0  0  0
   62.3430   33.5180   46.7710 C   0  0  0  0  0  0  0  0  0  0  0  0
   61.3370   33.8400   47.6880 C   0  0  0  0  0  0  0  0  0  0  0  0
   61.3880   33.3340   48.9910 C   0  0  0  0  0  0  0  0  0  0  0  0
   60.6640   27.6170   48.9200 C   0  0  0  0  0  0  0  0  0  0  0  0
   61.1070   26.8490   49.8180 O   0  0  0  0  0  0  0  0  0  0  0  0
   60.2930   27.0860   47.6390 N   0  0  0  0  0  0  0  0  0  0  0  0
   58.9660   26.9810   47.1040 C   0  0  0  0  0  0  0  0  0  0  0  0
   58.3820   28.0140   46.3500 C   0  0  0  0  0  0  0  0  0  0  0  0
   57.0790   27.8780   45.8580 C   0  0  0  0  0  0  0  0  0  0  0  0
   56.3120   29.2990   44.8310 Br  0  0  0  0  0  0  0  0  0  0  0  0
   56.3460   26.7140   46.1270 C   0  0  0  0  0  0  0  0  0  0  0  0
   55.0510   26.5780   45.6380 O   0  0  0  0  0  0  0  0  0  0  0  0
   56.9160   25.6930   46.8990 C   0  0  0  0  0  0  0  0  0  0  0  0
   55.9320   24.1000   47.2950 Br  0  0  0  0  0  0  0  0  0  0  0  0
   58.2180   25.8320   47.3900 C   0  0  0  0  0  0  0  0  0  0  0  0
   58.1927   32.6985   48.7511 H   0  0  0  0  0  0  0  0  0  0  0  0
   58.7826   33.6729   47.3621 H   0  0  0  0  0  0  0  0  0  0  0  0
   57.1040   33.0334   47.3621 H   0  0  0  0  0  0  0  0  0  0  0  0
   57.8395   31.1836   46.3026 H   0  0  0  0  0  0  0  0  0  0  0  0
   59.5371   31.7863   46.3981 H   0  0  0  0  0  0  0  0  0  0  0  0
   61.0770   28.8632   51.2150 H   0  0  0  0  0  0  0  0  0  0  0  0
   57.4060   29.4510   50.0550 H   0  0  0  0  0  0  0  0  0  0  0  0
   64.2713   31.5074   48.7539 H   0  0  0  0  0  0  0  0  0  0  0  0
   64.1836   32.4208   46.4311 H   0  0  0  0  0  0  0  0  0  0  0  0
   62.3063   33.9235   45.7491 H   0  0  0  0  0  0  0  0  0  0  0  0
   60.5048   34.4919   47.3840 H   0  0  0  0  0  0  0  0  0  0  0  0
   60.5936   33.5848   49.7094 H   0  0  0  0  0  0  0  0  0  0  0  0
   58.9515   28.9327   46.1460 H   0  0  0  0  0  0  0  0  0  0  0  0
   58.6578   25.0332   48.0052 H   0  0  0  0  0  0  0  0  0  0  0  0
  1  2  1  0
  2  3  1  0
  3  4  1  0
  4  5  2  0
  4  6  1  0
  6  7  2  3
  7  8  1  0
  8  9  2  0
  9 10  1  0
  9 11  1  0
 11 12  1  0
 12 13  2  0
 12 14  1  0
 14 15  1  0
 14 16  2  0
 16 17  1  0
 17 18  1  0
 18 19  2  0
 19 20  1  0
 20 21  2  0
 21 22  1  0
 22 23  2  0
  6 24  1  0
 24 25  2  0
 24 26  1  0
 26 27  1  0
 27 28  2  0
 28 29  1  0
 29 30  1  0
 29 31  2  0
 31 32  1  0
 31 33  1  0
 33 34  1  0
 33 35  2  0
 16  8  1  0
 23 18  1  0
 35 27  1  0
  1 36  1  0
  1 37  1  0
  1 38  1  0
  2 39  1  0
  2 40  1  0
  7 41  1  0
 10 42  1  0
 19 43  1  0
 20 44  1  0
 21 45  1  0
 22 46  1  0
 23 47  1  0
 28 48  1  0
 35 49  1  0
M  CHG  4  11  -1  15  -1  26  -1  32  -1
M  END
>  <UniqueID>  (75) 
65

>  <SMILES>  (75) 
CCOC(=O)C(=Cc1c(O)[n-]c(=O)c([O-])c1Sc1ccccc1)C(=O)[N-]c1cc(Br)c([O-])c(Br)c1

>  <Energy>  (75) 
60.154978806461074

>  <Genealogy>  (75) 
CCOC(=O)C(=Cc1c(O)[n-]c(=O)c([O-])c1Sc1ccccc1)C(=O)[N-]c1cc(Br)c([O-])c(Br)c1 (protonated)
CCOC(=O)C(=Cc1c(O)[n-]c(=O)c([O-])c1Sc1ccccc1)C(=O)[N-]c1cc(Br)c([O-])c(Br)c1 (3D coordinates assigned)
CCOC(=O)C(=Cc1c(O)[n-]c(=O)c([O-])c1Sc1ccccc1)C(=O)[N-]c1cc(Br)c([O-])c(Br)c1 (optimized conformer: 60.154978806461074 kcal/mol)

>  <smiles>  (75) 
CCOC(=O)C(=Cc1c(O)[nH]c(=O)c(O)c1Sc1ccccc1)C(=O)Nc1cc(Br)c(O)c(Br)c1

>  <score_type>  (75) 
oracle

>  <origin>  (75) 
adg

>  <m_score__min__energy>  (75) 
-15.050000000000001

>  <m_primary>  (75) 
energy

$$$$
75:0
     RDKit          3D

 60 63  0  0  0  0  0  0  0  0999 V2000
   54.9636   28.5189   44.5276 H   0  0  0  0  0  0  0  0  0  0  0  0
   55.9090   28.9650   44.8700 C   0  0  0  0  0  0  0  0  0  0  0  0
   56.1280   30.2940   44.7020 N   0  0  0  0  0  0  0  0  0  0  0  0
   57.2750   30.9000   45.1080 C   0  0  0  0  0  0  0  0  0  0  0  0
   57.4000   32.1820   44.9050 N   0  0  0  0  0  0  0  0  0  0  0  0
   58.4800   33.0620   45.3620 C   0  0  1  0  0  0  0  0  0  0  0  0
   59.4421   32.7072   44.9638 H   0  0  0  0  0  0  0  0  0  0  0  0
   58.2120   34.4840   44.8470 C   0  0  0  0  0  0  0  0  0  0  0  0
   57.2709   34.8497   45.2836 H   0  0  0  0  0  0  0  0  0  0  0  0
   58.1488   34.4446   43.7495 H   0  0  0  0  0  0  0  0  0  0  0  0
   59.3490   35.4530   45.2280 C   0  0  0  0  0  0  0  0  0  0  0  0
   58.9347   36.4708   45.2778 H   0  0  0  0  0  0  0  0  0  0  0  0
   60.1272   35.3513   44.4572 H   0  0  0  0  0  0  0  0  0  0  0  0
   60.0190   35.1310   46.5900 C   0  0  2  0  0  0  0  0  0  0  0  0
   60.2905   36.0836   47.0684 H   0  0  0  0  0  0  0  0  0  0  0  0
   61.2360   34.3390   46.3900 N   0  0  0  0  0  0  0  0  0  0  0  0
   61.8320   34.4280   47.2450 H   0  0  0  0  0  0  0  0  0  0  0  0
   60.9690   33.3290   46.3330 H   0  0  0  0  0  0  0  0  0  0  0  0
   59.0460   34.3810   47.5170 C   0  0  0  0  0  0  0  0  0  0  0  0
   58.1657   35.0161   47.6950 H   0  0  0  0  0  0  0  0  0  0  0  0
   59.5762   34.1596   48.4550 H   0  0  0  0  0  0  0  0  0  0  0  0
   58.5780   33.0420   46.9100 C   0  0  0  0  0  0  0  0  0  0  0  0
   57.5848   32.8035   47.3182 H   0  0  0  0  0  0  0  0  0  0  0  0
   59.3321   32.2865   47.1756 H   0  0  0  0  0  0  0  0  0  0  0  0
   58.2800   30.1240   45.7200 C   0  0  0  0  0  0  0  0  0  0  0  0
   59.2158   30.5979   46.0512 H   0  0  0  0  0  0  0  0  0  0  0  0
   58.0860   28.7440   45.9070 C   0  0  0  0  0  0  0  0  0  0  0  0
   59.1570   27.9340   46.5330 C   0  0  0  0  0  0  0  0  0  0  0  0
   59.3020   27.9370   47.8870 N   0  0  0  0  0  0  0  0  0  0  0  0
   60.2650   27.2190   48.5270 C   0  0  0  0  0  0  0  0  0  0  0  0
   60.3310   27.2930   49.8260 N   0  0  0  0  0  0  0  0  0  0  0  0
   61.1590   28.2030   50.6200 C   0  0  0  0  0  0  0  0  0  0  0  0
   62.2163   28.0501   50.3579 H   0  0  0  0  0  0  0  0  0  0  0  0
   60.9944   27.9898   51.6865 H   0  0  0  0  0  0  0  0  0  0  0  0
   60.7860   29.6370   50.3510 C   0  0  0  0  0  0  0  0  0  0  0  0
   59.7300   30.2430   51.0480 C   0  0  0  0  0  0  0  0  0  0  0  0
   59.1762   29.6730   51.8085 H   0  0  0  0  0  0  0  0  0  0  0  0
   59.3800   31.5680   50.7790 C   0  0  0  0  0  0  0  0  0  0  0  0
   58.5540   32.0393   51.3318 H   0  0  0  0  0  0  0  0  0  0  0  0
   60.0750   32.2980   49.8100 C   0  0  0  0  0  0  0  0  0  0  0  0
   59.7947   33.3414   49.6035 H   0  0  0  0  0  0  0  0  0  0  0  0
   61.1310   31.7020   49.0990 C   0  0  0  0  0  0  0  0  0  0  0  0
   61.8760   32.4080   48.0970 N   0  0  0  0  0  0  0  0  0  0  0  0
   63.3050   33.3520   48.3710 S   0  0  0  0  0  0  0  0  0  0  0  0
   62.9580   34.5980   49.1370 O   0  0  0  0  0  0  0  0  0  0  0  0
   63.8840   33.7450   47.0410 O   0  0  0  0  0  0  0  0  0  0  0  0
   64.5160   32.3930   49.2550 C   0  0  0  0  0  0  0  0  0  0  0  0
   64.3617   32.5152   50.3372 H   0  0  0  0  0  0  0  0  0  0  0  0
   64.4098   31.3314   48.9871 H   0  0  0  0  0  0  0  0  0  0  0  0
   65.5250   32.7396   48.9871 H   0  0  0  0  0  0  0  0  0  0  0  0
   61.4720   30.3710   49.3680 C   0  0  0  0  0  0  0  0  0  0  0  0
   62.2866   29.8940   48.8033 H   0  0  0  0  0  0  0  0  0  0  0  0
   61.1490   26.4290   47.7640 C   0  0  0  0  0  0  0  0  0  0  0  0
   61.9375   25.8427   48.2585 H   0  0  0  0  0  0  0  0  0  0  0  0
   61.0140   26.3980   46.3750 C   0  0  0  0  0  0  0  0  0  0  0  0
   61.6950   25.7805   45.7709 H   0  0  0  0  0  0  0  0  0  0  0  0
   60.0180   27.1480   45.7520 C   0  0  0  0  0  0  0  0  0  0  0  0
   59.9079   27.1240   44.6578 H   0  0  0  0  0  0  0  0  0  0  0  0
   56.8770   28.1610   45.4750 C   0  0  0  0  0  0  0  0  0  0  0  0
   56.5070   26.4560   45.7250 Cl  0  0  0  0  0  0  0  0  0  0  0  0
  1  2  1  0
  2  3  1  0
  3  4  1  0
  4  5  2  3
  5  6  1  0
  6  7  1  6
  6  8  1  0
  8  9  1  0
  8 10  1  0
  8 11  1  0
 11 12  1  0
 11 13  1  0
 11 14  1  0
 14 15  1  1
 14 16  1  0
 16 17  1  0
 16 18  1  0
 14 19  1  0
 19 20  1  0
 19 21  1  0
 19 22  1  0
 22 23  1  0
 22 24  1  0
  4 25  1  0
 25 26  1  0
 25 27  2  0
 27 28  1  0
 28 29  1  0
 29 30  1  0
 30 31  2  0
 31 32  1  0
 32 33  1  0
 32 34  1  0
 32 35  1  0
 35 36  2  0
 36 37  1  0
 36 38  1  0
 38 39  1  0
 38 40  2  0
 40 41  1  0
 40 42  1  0
 42 43  1  0
 43 44  1  0
 44 45  2  0
 44 46  2  0
 44 47  1  0
 47 48  1  0
 47 49  1  0
 47 50  1  0
 42 51  2  0
 51 52  1  0
 30 53  1  0
 53 54  1  0
 53 55  2  0
 55 56  1  0
 55 57  1  0
 57 58  1  0
 27 59  1  0
 59 60  1  0
 59  2  2  0
 22  6  1  0
 57 28  2  0
 51 35  1  0
M  CHG  3   3  -1  29  -1  43  -1
M  END
>  <UniqueID>  (76) 
66

>  <SMILES>  (76) 
CS(=O)(=O)[N-]c1cccc(C/N=c2\cccc(-c3cc(=NC4CCC(N)CC4)[n-]cc3Cl)[n-]2)c1

>  <Energy>  (76) 
75.578269790779

>  <Genealogy>  (76) 
CS(=O)(=O)[N-]c1cccc(CN=c2cccc(-c3cc(=NC4CCC(N)CC4)[n-]cc3Cl)[n-]2)c1 (protonated)
CS(=O)(=O)[N-]c1cccc(C/N=c2\cccc(-c3cc(=NC4CCC(N)CC4)[n-]cc3Cl)[n-]2)c1 (cis-trans isomerization)
CS(=O)(=O)[N-]c1cccc(C/N=c2\cccc(-c3cc(=NC4CCC(N)CC4)[n-]cc3Cl)[n-]2)c1 (3D coordinates assigned)
CS(=O)(=O)[N-]c1cccc(C/N=c2\cccc(-c3cc(=NC4CCC(N)CC4)[n-]cc3Cl)[n-]2)c1 (nonaromatic ring conformer: 75.578269790779 kcal/mol)

>  <smiles>  (76) 
CS(=O)(=O)Nc1cccc(CN=c2cccc(-c3cc(=NC4CCC(N)CC4)[nH]cc3Cl)[nH]2)c1

>  <score_type>  (76) 
oracle

>  <origin>  (76) 
adg

>  <m_score__min__energy>  (76) 
-14.789999999999999

>  <m_primary>  (76) 
energy

$$$$
76:0
     RDKit          3D

 38 40  0  0  0  0  0  0  0  0999 V2000
   56.4990   29.5750   45.2830 O   0  0  0  0  0  0  0  0  0  0  0  0
   57.4180   28.7390   45.4880 C   0  0  0  0  0  0  0  0  0  0  0  0
   57.4110   27.4650   44.6830 C   0  0  0  0  0  0  0  0  0  0  0  0
   57.1240   26.3140   45.5410 N   0  0  0  0  0  0  0  0  0  0  0  0
   55.9620   25.9930   46.1320 C   0  0  0  0  0  0  0  0  0  0  0  0
   54.7810   26.7130   46.0100 O   0  0  0  0  0  0  0  0  0  0  0  0
   56.1310   24.8530   46.8850 C   0  0  0  0  0  0  0  0  0  0  0  0
   57.4170   24.4510   46.7870 N   0  0  0  0  0  0  0  0  0  0  0  0
   57.9820   25.3650   45.9680 C   0  0  0  0  0  0  0  0  0  0  0  0
   59.2000   25.3320   45.6450 O   0  0  0  0  0  0  0  0  0  0  0  0
   58.4460   29.0220   46.5260 C   0  0  0  0  0  0  0  0  0  0  0  0
   59.3570   28.0180   46.8990 C   0  0  0  0  0  0  0  0  0  0  0  0
   60.3320   28.2670   47.8670 C   0  0  0  0  0  0  0  0  0  0  0  0
   60.4040   29.5150   48.4850 C   0  0  0  0  0  0  0  0  0  0  0  0
   59.5020   30.5270   48.1460 C   0  0  0  0  0  0  0  0  0  0  0  0
   59.6040   31.7590   48.8140 O   0  0  0  0  0  0  0  0  0  0  0  0
   58.6320   32.8050   48.7730 C   0  0  0  0  0  0  0  0  0  0  0  0
   58.5950   33.4470   47.4110 C   0  0  0  0  0  0  0  0  0  0  0  0
   59.6930   34.1870   46.9380 C   0  0  0  0  0  0  0  0  0  0  0  0
   59.6580   34.7630   45.6650 C   0  0  0  0  0  0  0  0  0  0  0  0
   58.5250   34.6140   44.8580 C   0  0  0  0  0  0  0  0  0  0  0  0
   57.4210   33.8980   45.3290 C   0  0  0  0  0  0  0  0  0  0  0  0
   57.4520   33.3170   46.6020 C   0  0  0  0  0  0  0  0  0  0  0  0
   58.5290   30.2790   47.1570 C   0  0  0  0  0  0  0  0  0  0  0  0
   56.6393   27.5351   43.9023 H   0  0  0  0  0  0  0  0  0  0  0  0
   58.4027   27.3285   44.2271 H   0  0  0  0  0  0  0  0  0  0  0  0
   55.3468   24.3513   47.4709 H   0  0  0  0  0  0  0  0  0  0  0  0
   59.3011   27.0275   46.4239 H   0  0  0  0  0  0  0  0  0  0  0  0
   61.0454   27.4764   48.1429 H   0  0  0  0  0  0  0  0  0  0  0  0
   61.1765   29.7042   49.2449 H   0  0  0  0  0  0  0  0  0  0  0  0
   57.6410   32.3857   49.0012 H   0  0  0  0  0  0  0  0  0  0  0  0
   58.9045   33.5691   49.5159 H   0  0  0  0  0  0  0  0  0  0  0  0
   60.5829   34.3131   47.5722 H   0  0  0  0  0  0  0  0  0  0  0  0
   60.5229   35.3345   45.2970 H   0  0  0  0  0  0  0  0  0  0  0  0
   58.5031   35.0603   43.8529 H   0  0  0  0  0  0  0  0  0  0  0  0
   56.5262   33.7909   44.6982 H   0  0  0  0  0  0  0  0  0  0  0  0
   56.5799   32.7571   46.9707 H   0  0  0  0  0  0  0  0  0  0  0  0
   57.8259   31.0764   46.8744 H   0  0  0  0  0  0  0  0  0  0  0  0
  1  2  2  0
  2  3  1  0
  3  4  1  0
  4  5  1  0
  5  6  1  0
  5  7  2  0
  7  8  1  0
  8  9  1  0
  9 10  2  0
  2 11  1  0
 11 12  2  0
 12 13  1  0
 13 14  2  0
 14 15  1  0
 15 16  1  0
 16 17  1  0
 17 18  1  0
 18 19  2  0
 19 20  1  0
 20 21  2  0
 21 22  1  0
 22 23  2  0
 15 24  2  0
  9  4  1  0
 24 11  1  0
 23 18  1  0
  3 25  1  0
  3 26  1  0
  7 27  1  0
 12 28  1  0
 13 29  1  0
 14 30  1  0
 17 31  1  0
 17 32  1  0
 19 33  1  0
 20 34  1  0
 21 35  1  0
 22 36  1  0
 23 37  1  0
 24 38  1  0
M  CHG  2   6  -1   8  -1
M  END
>  <UniqueID>  (77) 
67

>  <SMILES>  (77) 
O=C(Cn1c([O-])c[n-]c1=O)c1cccc(OCc2ccccc2)c1

>  <Energy>  (77) 
72.33432466168368

>  <Genealogy>  (77) 
O=C(Cn1c([O-])c[n-]c1=O)c1cccc(OCc2ccccc2)c1 (protonated)
O=C(Cn1c([O-])c[n-]c1=O)c1cccc(OCc2ccccc2)c1 (3D coordinates assigned)
O=C(Cn1c([O-])c[n-]c1=O)c1cccc(OCc2ccccc2)c1 (optimized conformer: 72.33432466168368 kcal/mol)

>  <smiles>  (77) 
O=C(Cn1c(O)c[nH]c1=O)c1cccc(OCc2ccccc2)c1

>  <score_type>  (77) 
oracle

>  <origin>  (77) 
adg

>  <m_score__min__energy>  (77) 
-13.91

>  <m_primary>  (77) 
energy

$$$$
77:0
     RDKit          3D

 26 28  0  0  0  0  0  0  0  0999 V2000
   56.6680   30.0640   51.9270 O   0  0  0  0  0  0  0  0  0  0  0  0
   56.2230   29.3270   52.8450 C   0  0  0  0  0  0  0  0  0  0  0  0
   56.9970   28.3320   53.5790 C   0  0  0  0  0  0  0  0  0  0  0  0
   58.3230   27.9280   53.4390 C   0  0  0  0  0  0  0  0  0  0  0  0
   58.8030   26.9290   54.3070 C   0  0  0  0  0  0  0  0  0  0  0  0
   57.9570   26.3630   55.2840 C   0  0  0  0  0  0  0  0  0  0  0  0
   56.6230   26.7890   55.4060 C   0  0  0  0  0  0  0  0  0  0  0  0
   56.1710   27.7810   54.5360 C   0  0  0  0  0  0  0  0  0  0  0  0
   54.8650   28.4180   54.4160 C   0  0  0  0  0  0  0  0  0  0  0  0
   53.8470   28.1300   55.0990 O   0  0  0  0  0  0  0  0  0  0  0  0
   54.8870   29.3870   53.3610 N   0  0  0  0  0  0  0  0  0  0  0  0
   53.8110   30.2330   52.9190 C   0  0  0  0  0  0  0  0  0  0  0  0
   52.7450   30.5390   53.7820 C   0  0  0  0  0  0  0  0  0  0  0  0
   51.6990   31.3610   53.3510 C   0  0  0  0  0  0  0  0  0  0  0  0
   51.7070   31.8850   52.0550 C   0  0  0  0  0  0  0  0  0  0  0  0
   50.6680   32.7010   51.6270 O   0  0  0  0  0  0  0  0  0  0  0  0
   52.7630   31.5860   51.1890 C   0  0  0  0  0  0  0  0  0  0  0  0
   53.8110   30.7650   51.6170 C   0  0  0  0  0  0  0  0  0  0  0  0
   58.9745   28.3757   52.6741 H   0  0  0  0  0  0  0  0  0  0  0  0
   59.8452   26.5872   54.2229 H   0  0  0  0  0  0  0  0  0  0  0  0
   58.3443   25.5824   55.9554 H   0  0  0  0  0  0  0  0  0  0  0  0
   55.9560   26.3533   56.1644 H   0  0  0  0  0  0  0  0  0  0  0  0
   52.7333   30.1294   54.8028 H   0  0  0  0  0  0  0  0  0  0  0  0
   50.8684   31.5957   54.0330 H   0  0  0  0  0  0  0  0  0  0  0  0
   52.7695   31.9974   50.1688 H   0  0  0  0  0  0  0  0  0  0  0  0
   54.6399   30.5340   50.9317 H   0  0  0  0  0  0  0  0  0  0  0  0
  1  2  2  0
  2  3  1  0
  3  4  2  0
  4  5  1  0
  5  6  2  0
  6  7  1  0
  7  8  2  0
  8  9  1  0
  9 10  2  0
  9 11  1  0
 11 12  1  0
 12 13  2  0
 13 14  1  0
 14 15  2  0
 15 16  1  0
 15 17  1  0
 17 18  2  0
 11  2  1  0
 18 12  1  0
  8  3  1  0
  4 19  1  0
  5 20  1  0
  6 21  1  0
  7 22  1  0
 13 23  1  0
 14 24  1  0
 17 25  1  0
 18 26  1  0
M  CHG  1  16  -1
M  END
>  <UniqueID>  (78) 
68

>  <SMILES>  (78) 
O=C1c2ccccc2C(=O)N1c1ccc([O-])cc1

>  <Energy>  (78) 
65.97480644411675

>  <Genealogy>  (78) 
O=C1c2ccccc2C(=O)N1c1ccc([O-])cc1 (protonated)
O=C1c2ccccc2C(=O)N1c1ccc([O-])cc1 (3D coordinates assigned)
O=C1c2ccccc2C(=O)N1c1ccc([O-])cc1 (nonaromatic ring conformer: 65.97480644411675 kcal/mol)

>  <smiles>  (78) 
O=C1c2ccccc2C(=O)N1c1ccc(O)cc1

>  <score_type>  (78) 
oracle

>  <origin>  (78) 
adg

>  <m_score__min__energy>  (78) 
-9.4399999999999995

>  <m_primary>  (78) 
energy

$$$$
78:0
     RDKit          3D

 41 42  0  0  1  0  0  0  0  0999 V2000
   56.2840   29.9700   42.6300 C   0  0  0  0  0  0  0  0  0  0  0  0
   55.0640   29.7210   43.4900 C   0  0  0  0  0  0  0  0  0  0  0  0
   55.5200   29.6630   44.8650 N   0  0  0  0  0  0  0  0  0  0  0  0
   56.7900   29.5320   45.0570 C   0  0  0  0  0  0  0  0  0  0  0  0
   57.4640   30.6060   45.4910 N   0  0  0  0  0  0  0  0  0  0  0  0
   58.7990   30.5460   45.7150 C   0  0  0  0  0  0  0  0  0  0  0  0
   59.4140   31.7450   46.1750 N   0  0  0  0  0  0  0  0  0  0  0  0
   60.4230   31.8830   47.0330 N   0  0  0  0  0  0  0  0  0  0  0  0
   60.7140   33.1830   47.2090 C   0  0  0  0  0  0  0  0  0  0  0  0
   61.7750   33.7610   48.0870 C   0  0  0  0  0  0  0  0  0  0  0  0
   63.0950   33.7680   47.3300 C   0  0  0  0  0  0  0  0  0  0  0  0
   62.0020   32.8920   49.3280 C   0  0  0  0  0  0  0  0  0  0  0  0
   59.8210   33.8910   46.4020 C   0  0  0  0  0  0  0  0  0  0  0  0
   59.0150   32.9710   45.7620 C   0  0  0  0  0  0  0  0  0  0  0  0
   57.7150   33.4000   44.6210 S   0  0  0  0  0  0  0  0  0  0  0  0
   58.1080   32.6550   43.0130 C   0  0  0  0  0  0  0  0  0  0  0  0
   59.4980   29.3740   45.5010 C   0  0  0  0  0  0  0  0  0  0  0  0
   60.9610   29.3420   45.7560 C   0  0  0  0  0  0  0  0  0  0  0  0
   58.7920   28.2680   45.0510 C   0  0  0  0  0  0  0  0  0  0  0  0
   57.4680   28.3980   44.8500 N   0  0  0  0  0  0  0  0  0  0  0  0
   57.1571   30.1482   43.2750 H   0  0  0  0  0  0  0  0  0  0  0  0
   56.4705   29.0914   41.9950 H   0  0  0  0  0  0  0  0  0  0  0  0
   56.1113   30.8514   41.9950 H   0  0  0  0  0  0  0  0  0  0  0  0
   54.3407   30.5404   43.3660 H   0  0  0  0  0  0  0  0  0  0  0  0
   54.5649   28.7841   43.2018 H   0  0  0  0  0  0  0  0  0  0  0  0
   61.4505   34.7705   48.3796 H   0  0  0  0  0  0  0  0  0  0  0  0
   63.9290   33.7724   48.0472 H   0  0  0  0  0  0  0  0  0  0  0  0
   63.1599   32.8702   46.6978 H   0  0  0  0  0  0  0  0  0  0  0  0
   63.1503   34.6665   46.6978 H   0  0  0  0  0  0  0  0  0  0  0  0
   61.8440   33.4969   50.2331 H   0  0  0  0  0  0  0  0  0  0  0  0
   61.2935   32.0506   49.3210 H   0  0  0  0  0  0  0  0  0  0  0  0
   63.0315   32.5046   49.3210 H   0  0  0  0  0  0  0  0  0  0  0  0
   59.7692   34.9846   46.2955 H   0  0  0  0  0  0  0  0  0  0  0  0
   58.6160   31.6920   43.1694 H   0  0  0  0  0  0  0  0  0  0  0  0
   57.1787   32.4917   42.4476 H   0  0  0  0  0  0  0  0  0  0  0  0
   58.7675   33.3298   42.4476 H   0  0  0  0  0  0  0  0  0  0  0  0
   61.1441   29.3380   46.8406 H   0  0  0  0  0  0  0  0  0  0  0  0
   61.3915   28.4342   45.3081 H   0  0  0  0  0  0  0  0  0  0  0  0
   61.4308   30.2301   45.3081 H   0  0  0  0  0  0  0  0  0  0  0  0
   59.3007   27.3109   44.8636 H   0  0  0  0  0  0  0  0  0  0  0  0
   56.9090   27.5740   44.5090 H   0  0  0  0  0  0  0  0  0  0  0  0
  1  2  1  0
  2  3  1  0
  3  4  2  0
  4  5  1  0
  5  6  2  0
  6  7  1  0
  7  8  1  0
  8  9  2  0
  9 10  1  0
 10 11  1  0
 10 12  1  0
  9 13  1  0
 13 14  2  0
 14 15  1  0
 15 16  1  0
  6 17  1  0
 17 18  1  0
 17 19  2  0
 19 20  1  0
 20  4  1  0
 14  7  1  0
  1 21  1  0
  1 22  1  0
  1 23  1  0
  2 24  1  0
  2 25  1  0
 10 26  1  0
 11 27  1  0
 11 28  1  0
 11 29  1  0
 12 30  1  0
 12 31  1  0
 12 32  1  0
 13 33  1  0
 16 34  1  0
 16 35  1  0
 16 36  1  0
 18 37  1  0
 18 38  1  0
 18 39  1  0
 19 40  1  0
 20 41  1  0
M  END
>  <smiles>  (79) 
CCN=c1nc(-n2nc(C(C)C)cc2SC)c(C)c[nH]1

>  <score_type>  (79) 
oracle

>  <origin>  (79) 
adg

>  <m_score__min__energy>  (79) 
-7.1200000000000001

>  <m_primary>  (79) 
energy

$$$$
79:0
     RDKit          3D

 48 53  0  0  0  0  0  0  0  0999 V2000
   54.7700   27.0940   45.0310 H   0  0  0  0  0  0  0  0  0  0  0  0
   55.1840   27.0630   45.9530 O   0  0  0  0  0  0  0  0  0  0  0  0
   56.0700   26.0530   46.3210 C   0  0  0  0  0  0  0  0  0  0  0  0
   55.6740   24.8610   46.7950 N   0  0  0  0  0  0  0  0  0  0  0  0
   56.8390   24.1980   46.9510 C   0  0  0  0  0  0  0  0  0  0  0  0
   56.8940   23.0160   47.3800 O   0  0  0  0  0  0  0  0  0  0  0  0
   57.9410   24.8980   46.6030 N   0  0  0  0  0  0  0  0  0  0  0  0
   57.4460   26.0880   46.2240 C   0  0  0  0  0  0  0  0  0  0  0  0
   58.2810   27.1780   45.6950 C   0  0  0  0  0  0  0  0  0  0  0  0
   59.2919   26.9285   45.3402 H   0  0  0  0  0  0  0  0  0  0  0  0
   57.8850   28.4570   45.6190 C   0  0  0  0  0  0  0  0  0  0  0  0
   57.0510   29.0000   44.6460 C   0  0  0  0  0  0  0  0  0  0  0  0
   56.5952   28.4364   43.8186 H   0  0  0  0  0  0  0  0  0  0  0  0
   56.8840   30.3250   44.8690 N   0  0  0  0  0  0  0  0  0  0  0  0
   57.5900   30.6340   45.9450 N   0  0  0  0  0  0  0  0  0  0  0  0
   57.7600   31.8490   46.5410 C   0  0  0  0  0  0  0  0  0  0  0  0
   57.1800   32.9380   46.1210 N   0  0  0  0  0  0  0  0  0  0  0  0
   57.7900   33.9940   45.3210 C   0  0  0  0  0  0  0  0  0  0  0  0
   56.9089   34.6474   45.2388 H   0  0  0  0  0  0  0  0  0  0  0  0
   59.2620   34.1840   45.6390 C   0  0  0  0  0  0  0  0  0  0  0  0
   59.7054   35.1903   45.6107 H   0  0  0  0  0  0  0  0  0  0  0  0
   59.9159   33.9196   46.4831 H   0  0  0  0  0  0  0  0  0  0  0  0
   58.8450   33.5000   44.3460 C   0  0  0  0  0  0  0  0  0  0  0  0
   58.9864   34.0115   43.3825 H   0  0  0  0  0  0  0  0  0  0  0  0
   59.0719   32.5360   43.8671 H   0  0  0  0  0  0  0  0  0  0  0  0
   58.5830   31.9170   47.6220 N   0  0  0  0  0  0  0  0  0  0  0  0
   59.2190   30.8000   48.0950 C   0  0  0  0  0  0  0  0  0  0  0  0
   60.0690   30.8770   49.2030 O   0  0  0  0  0  0  0  0  0  0  0  0
   61.3660   31.3950   49.1410 C   0  0  0  0  0  0  0  0  0  0  0  0
   61.8840   31.7510   47.8740 C   0  0  0  0  0  0  0  0  0  0  0  0
   61.2741   31.5884   46.9731 H   0  0  0  0  0  0  0  0  0  0  0  0
   63.1660   32.3090   47.7510 C   0  0  0  0  0  0  0  0  0  0  0  0
   63.5686   32.5929   46.7675 H   0  0  0  0  0  0  0  0  0  0  0  0
   63.9120   32.4920   48.9110 C   0  0  0  0  0  0  0  0  0  0  0  0
   63.4340   32.1290   50.1430 C   0  0  0  0  0  0  0  0  0  0  0  0
   64.4160   32.4420   51.0640 C   0  0  0  0  0  0  0  0  0  0  0  0
   64.3816   32.2907   52.1530 H   0  0  0  0  0  0  0  0  0  0  0  0
   65.4570   32.9890   50.3210 C   0  0  0  0  0  0  0  0  0  0  0  0
   66.4055   33.3501   50.7452 H   0  0  0  0  0  0  0  0  0  0  0  0
   65.1440   33.0160   49.0080 N   0  0  0  0  0  0  0  0  0  0  0  0
   65.7420   33.3740   48.2290 H   0  0  0  0  0  0  0  0  0  0  0  0
   62.1680   31.5480   50.3080 C   0  0  0  0  0  0  0  0  0  0  0  0
   61.6910   31.1170   51.6690 C   0  0  0  0  0  0  0  0  0  0  0  0
   62.2706   31.6407   52.4435 H   0  0  0  0  0  0  0  0  0  0  0  0
   60.6248   31.3641   51.7791 H   0  0  0  0  0  0  0  0  0  0  0  0
   61.8291   30.0313   51.7791 H   0  0  0  0  0  0  0  0  0  0  0  0
   59.0390   29.6000   47.4770 N   0  0  0  0  0  0  0  0  0  0  0  0
   58.2060   29.5420   46.4130 C   0  0  0  0  0  0  0  0  0  0  0  0
  1  2  1  0
  2  3  1  0
  3  4  1  0
  4  5  1  0
  5  6  2  0
  5  7  1  0
  7  8  1  0
  8  9  1  0
  9 10  1  0
  9 11  2  0
 11 12  1  0
 12 13  1  0
 12 14  2  0
 14 15  1  0
 15 16  1  0
 16 17  2  3
 17 18  1  0
 18 19  1  0
 18 20  1  0
 20 21  1  0
 20 22  1  0
 20 23  1  0
 23 24  1  0
 23 25  1  0
 16 26  1  0
 26 27  2  0
 27 28  1  0
 28 29  1  0
 29 30  2  0
 30 31  1  0
 30 32  1  0
 32 33  1  0
 32 34  2  0
 34 35  1  0
 35 36  1  0
 36 37  1  0
 36 38  2  0
 38 39  1  0
 38 40  1  0
 40 41  1  0
 35 42  2  0
 42 43  1  0
 43 44  1  0
 43 45  1  0
 43 46  1  0
 27 47  1  0
 47 48  2  0
  8  3  2  0
 48 11  1  0
 48 15  1  0
 23 18  1  0
 42 29  1  0
 40 34  1  0
M  CHG  2   4  -1   7  -1
M  END
>  <UniqueID>  (80) 
69

>  <SMILES>  (80) 
Cc1c(Oc2nc(=NC3CC3)n3nc/c(=C/c4[n-]c(=O)[n-]c4O)c3n2)ccc2[nH]ccc12

>  <Energy>  (80) 
436.08450484828853

>  <Genealogy>  (80) 
Cc1c(Oc2nc(=NC3CC3)n3ncc(=Cc4[n-]c(=O)[n-]c4O)c3n2)ccc2[nH]ccc12 (protonated)
Cc1c(Oc2nc(=NC3CC3)n3nc/c(=C/c4[n-]c(=O)[n-]c4O)c3n2)ccc2[nH]ccc12 (cis-trans isomerization)
Cc1c(Oc2nc(=NC3CC3)n3nc/c(=C/c4[n-]c(=O)[n-]c4O)c3n2)ccc2[nH]ccc12 (3D coordinates assigned)
Cc1c(Oc2nc(=NC3CC3)n3nc/c(=C/c4[n-]c(=O)[n-]c4O)c3n2)ccc2[nH]ccc12 (nonaromatic ring conformer: 436.08450484828853 kcal/mol)

>  <smiles>  (80) 
Cc1c(Oc2nc(=NC3CC3)n3ncc(=Cc4[nH]c(=O)[nH]c4O)c3n2)ccc2[nH]ccc12

>  <score_type>  (80) 
oracle

>  <origin>  (80) 
adg

>  <m_score__min__energy>  (80) 
-13.779999999999999

>  <m_primary>  (80) 
energy

$$$$
80:0
     RDKit          3D

 55 58  0  0  0  0  0  0  0  0999 V2000
   61.6120   33.6040   47.6810 O   0  0  0  0  0  0  0  0  0  0  0  0
   60.7070   34.2550   48.2730 C   0  0  0  0  0  0  0  0  0  0  0  0
   59.7460   35.0020   47.5210 N   0  0  0  0  0  0  0  0  0  0  0  0
   59.6550   34.9350   46.0640 C   0  0  0  0  0  0  0  0  0  0  0  0
   58.9010   33.7000   45.6580 C   0  0  0  0  0  0  0  0  0  0  0  0
   58.4450   33.5500   44.3410 C   0  0  0  0  0  0  0  0  0  0  0  0
   57.7030   32.4240   43.9760 C   0  0  0  0  0  0  0  0  0  0  0  0
   57.3990   31.4310   44.9220 C   0  0  0  0  0  0  0  0  0  0  0  0
   56.5890   30.2520   44.5320 C   0  0  0  0  0  0  0  0  0  0  0  0
   55.3400   30.3690   44.4100 O   0  0  0  0  0  0  0  0  0  0  0  0
   57.1790   28.9610   44.3380 N   0  0  0  0  0  0  0  0  0  0  0  0
   57.5700   28.0690   45.3890 C   0  0  0  0  0  0  0  0  0  0  0  0
   58.7130   28.3140   46.1680 C   0  0  0  0  0  0  0  0  0  0  0  0
   59.0750   27.4240   47.1820 C   0  0  0  0  0  0  0  0  0  0  0  0
   58.2880   26.2980   47.4380 C   0  0  0  0  0  0  0  0  0  0  0  0
   57.1330   26.0580   46.6850 C   0  0  0  0  0  0  0  0  0  0  0  0
   56.3120   24.9250   47.0040 N   0  0  0  0  0  0  0  0  0  0  0  0
   56.6450   23.5540   46.7410 C   0  0  0  0  0  0  0  0  0  0  0  0
   57.0240   22.8320   47.6990 O   0  0  0  0  0  0  0  0  0  0  0  0
   56.5150   22.9590   45.3890 C   0  0  0  0  0  0  0  0  0  0  0  0
   56.9610   21.6520   45.1280 C   0  0  0  0  0  0  0  0  0  0  0  0
   56.8130   21.1160   43.8460 C   0  0  0  0  0  0  0  0  0  0  0  0
   56.2540   21.8590   42.8560 N   0  0  0  0  0  0  0  0  0  0  0  0
   55.8350   23.1330   43.0730 C   0  0  0  0  0  0  0  0  0  0  0  0
   55.9610   23.7080   44.3400 C   0  0  0  0  0  0  0  0  0  0  0  0
   56.8030   26.9250   45.6310 C   0  0  0  0  0  0  0  0  0  0  0  0
   57.8330   31.5990   46.2480 C   0  0  0  0  0  0  0  0  0  0  0  0
   58.5810   32.7230   46.6120 C   0  0  0  0  0  0  0  0  0  0  0  0
   60.5990   34.2160   49.6680 O   0  0  0  0  0  0  0  0  0  0  0  0
   59.6430   33.4790   50.3810 C   0  0  0  0  0  0  0  0  0  0  0  0
   59.1300   32.3110   49.8010 C   0  0  0  0  0  0  0  0  0  0  0  0
   58.1630   31.5550   50.4700 C   0  0  0  0  0  0  0  0  0  0  0  0
   57.6910   31.9690   51.7200 C   0  0  0  0  0  0  0  0  0  0  0  0
   58.1830   33.1410   52.2980 C   0  0  0  0  0  0  0  0  0  0  0  0
   59.1530   33.8970   51.6340 C   0  0  0  0  0  0  0  0  0  0  0  0
   59.0040   35.5190   48.0410 H   0  0  0  0  0  0  0  0  0  0  0  0
   59.1275   35.8247   45.6896 H   0  0  0  0  0  0  0  0  0  0  0  0
   60.6684   34.8987   45.6378 H   0  0  0  0  0  0  0  0  0  0  0  0
   58.6724   34.3224   43.5915 H   0  0  0  0  0  0  0  0  0  0  0  0
   57.3537   32.3140   42.9387 H   0  0  0  0  0  0  0  0  0  0  0  0
   59.3244   29.2087   45.9791 H   0  0  0  0  0  0  0  0  0  0  0  0
   59.9799   27.6096   47.7792 H   0  0  0  0  0  0  0  0  0  0  0  0
   58.5776   25.5972   48.2349 H   0  0  0  0  0  0  0  0  0  0  0  0
   57.4236   21.0549   45.9277 H   0  0  0  0  0  0  0  0  0  0  0  0
   57.1501   20.0898   43.6381 H   0  0  0  0  0  0  0  0  0  0  0  0
   55.3952   23.7135   42.2486 H   0  0  0  0  0  0  0  0  0  0  0  0
   55.6278   24.7418   44.5141 H   0  0  0  0  0  0  0  0  0  0  0  0
   55.9358   26.7030   44.9917 H   0  0  0  0  0  0  0  0  0  0  0  0
   57.5826   30.8411   47.0048 H   0  0  0  0  0  0  0  0  0  0  0  0
   58.9201   32.8415   47.6517 H   0  0  0  0  0  0  0  0  0  0  0  0
   59.4904   31.9871   48.8135 H   0  0  0  0  0  0  0  0  0  0  0  0
   57.7729   30.6336   50.0130 H   0  0  0  0  0  0  0  0  0  0  0  0
   56.9327   31.3716   52.2473 H   0  0  0  0  0  0  0  0  0  0  0  0
   57.8064   33.4699   53.2778 H   0  0  0  0  0  0  0  0  0  0  0  0
   59.5352   34.8216   52.0913 H   0  0  0  0  0  0  0  0  0  0  0  0
  1  2  2  0
  2  3  1  0
  3  4  1  0
  4  5  1  0
  5  6  2  0
  6  7  1  0
  7  8  2  0
  8  9  1  0
  9 10  2  0
  9 11  1  0
 11 12  1  0
 12 13  2  0
 13 14  1  0
 14 15  2  0
 15 16  1  0
 16 17  1  0
 17 18  1  0
 18 19  2  0
 18 20  1  0
 20 21  2  0
 21 22  1  0
 22 23  2  0
 23 24  1  0
 24 25  2  0
 16 26  2  0
  8 27  1  0
 27 28  2  0
  2 29  1  0
 29 30  1  0
 30 31  2  0
 31 32  1  0
 32 33  2  0
 33 34  1  0
 34 35  2  0
 28  5  1  0
 35 30  1  0
 26 12  1  0
 25 20  1  0
  3 36  1  0
  4 37  1  0
  4 38  1  0
  6 39  1  0
  7 40  1  0
 13 41  1  0
 14 42  1  0
 15 43  1  0
 21 44  1  0
 22 45  1  0
 24 46  1  0
 25 47  1  0
 26 48  1  0
 27 49  1  0
 28 50  1  0
 31 51  1  0
 32 52  1  0
 33 53  1  0
 34 54  1  0
 35 55  1  0
M  CHG  2  11  -1  17  -1
M  END
>  <UniqueID>  (81) 
70

>  <SMILES>  (81) 
O=C(NCc1ccc(C(=O)[N-]c2cccc([N-]C(=O)c3ccncc3)c2)cc1)Oc1ccccc1

>  <Energy>  (81) 
75.84862523994833

>  <Genealogy>  (81) 
O=C(NCc1ccc(C(=O)[N-]c2cccc([N-]C(=O)c3ccncc3)c2)cc1)Oc1ccccc1 (protonated)
O=C(NCc1ccc(C(=O)[N-]c2cccc([N-]C(=O)c3ccncc3)c2)cc1)Oc1ccccc1 (3D coordinates assigned)
O=C(NCc1ccc(C(=O)[N-]c2cccc([N-]C(=O)c3ccncc3)c2)cc1)Oc1ccccc1 (optimized conformer: 75.84862523994833 kcal/mol)

>  <smiles>  (81) 
O=C(NCc1ccc(C(=O)Nc2cccc(NC(=O)c3ccncc3)c2)cc1)Oc1ccccc1

>  <score_type>  (81) 
oracle

>  <origin>  (81) 
adg

>  <m_score__min__energy>  (81) 
-13.380000000000001

>  <m_primary>  (81) 
energy

$$$$
81:0
     RDKit          3D

 43 46  0  0  0  0  0  0  0  0999 V2000
   64.0580   33.7610   47.1950 O   0  0  0  0  0  0  0  0  0  0  0  0
   62.9740   33.1200   47.2280 C   0  0  0  0  0  0  0  0  0  0  0  0
   61.7740   33.7980   46.8620 N   0  0  0  0  0  0  0  0  0  0  0  0
   60.5240   33.4410   46.7490 C   0  0  0  0  0  0  0  0  0  0  0  0
   59.6370   34.5140   46.5510 C   0  0  0  0  0  0  0  0  0  0  0  0
   58.2600   34.3400   46.5730 C   0  0  0  0  0  0  0  0  0  0  0  0
   57.7310   33.0830   46.7950 C   0  0  0  0  0  0  0  0  0  0  0  0
   58.5740   31.9840   46.9300 C   0  0  0  0  0  0  0  0  0  0  0  0
   59.9920   32.0990   46.8460 C   0  0  0  0  0  0  0  0  0  0  0  0
   60.7290   30.9410   46.8140 C   0  0  0  0  0  0  0  0  0  0  0  0
   60.0930   29.6080   46.6060 C   0  0  0  0  0  0  0  0  0  0  0  0
   59.6740   28.8330   47.7030 C   0  0  0  0  0  0  0  0  0  0  0  0
   59.0380   27.6050   47.4960 C   0  0  0  0  0  0  0  0  0  0  0  0
   58.7960   27.1530   46.1960 C   0  0  0  0  0  0  0  0  0  0  0  0
   59.1790   27.9330   45.1010 C   0  0  0  0  0  0  0  0  0  0  0  0
   59.8160   29.1610   45.3040 C   0  0  0  0  0  0  0  0  0  0  0  0
   62.1590   30.9050   46.8540 N   0  0  0  0  0  0  0  0  0  0  0  0
   62.9950   31.7190   47.7130 C   0  0  2  0  0  0  0  0  0  0  0  0
   62.6970   31.5430   49.2260 C   0  0  0  0  0  0  0  0  0  0  0  0
   61.3570   32.0570   49.7010 C   0  0  0  0  0  0  0  0  0  0  0  0
   61.1330   33.4360   49.8560 C   0  0  0  0  0  0  0  0  0  0  0  0
   59.8980   33.9050   50.3130 C   0  0  0  0  0  0  0  0  0  0  0  0
   58.8690   33.0040   50.6000 C   0  0  0  0  0  0  0  0  0  0  0  0
   59.0700   31.6340   50.4150 C   0  0  0  0  0  0  0  0  0  0  0  0
   60.3030   31.1610   49.9570 C   0  0  0  0  0  0  0  0  0  0  0  0
   60.0459   35.5197   46.3737 H   0  0  0  0  0  0  0  0  0  0  0  0
   57.5924   35.1997   46.4143 H   0  0  0  0  0  0  0  0  0  0  0  0
   56.6412   32.9507   46.8652 H   0  0  0  0  0  0  0  0  0  0  0  0
   58.1308   30.9930   47.1076 H   0  0  0  0  0  0  0  0  0  0  0  0
   59.8474   29.1945   48.7273 H   0  0  0  0  0  0  0  0  0  0  0  0
   58.7280   26.9945   48.3569 H   0  0  0  0  0  0  0  0  0  0  0  0
   58.3038   26.1827   46.0342 H   0  0  0  0  0  0  0  0  0  0  0  0
   58.9790   27.5803   44.0785 H   0  0  0  0  0  0  0  0  0  0  0  0
   60.1013   29.7795   44.4402 H   0  0  0  0  0  0  0  0  0  0  0  0
   62.6320   30.1220   46.3460 H   0  0  0  0  0  0  0  0  0  0  0  0
   64.0328   31.3616   47.6403 H   0  0  0  0  0  0  0  0  0  0  0  0
   62.7462   30.4685   49.4561 H   0  0  0  0  0  0  0  0  0  0  0  0
   63.4503   32.1500   49.7495 H   0  0  0  0  0  0  0  0  0  0  0  0
   61.9344   34.1504   49.6162 H   0  0  0  0  0  0  0  0  0  0  0  0
   59.7359   34.9847   50.4469 H   0  0  0  0  0  0  0  0  0  0  0  0
   57.9016   33.3733   50.9713 H   0  0  0  0  0  0  0  0  0  0  0  0
   58.2562   30.9259   50.6302 H   0  0  0  0  0  0  0  0  0  0  0  0
   60.4500   30.0828   49.7959 H   0  0  0  0  0  0  0  0  0  0  0  0
  1  2  2  0
  2  3  1  0
  3  4  2  0
  4  5  1  0
  5  6  2  0
  6  7  1  0
  7  8  2  0
  8  9  1  0
  9 10  2  0
 10 11  1  0
 11 12  2  0
 12 13  1  0
 13 14  2  0
 14 15  1  0
 15 16  2  0
 10 17  1  0
 17 18  1  0
 18 19  1  0
 19 20  1  0
 20 21  2  0
 21 22  1  0
 22 23  2  0
 23 24  1  0
 24 25  2  0
 18  2  1  0
 25 20  1  0
  9  4  1  0
 16 11  1  0
  5 26  1  0
  6 27  1  0
  7 28  1  0
  8 29  1  0
 12 30  1  0
 13 31  1  0
 14 32  1  0
 15 33  1  0
 16 34  1  0
 17 35  1  0
 18 36  1  1
 19 37  1  0
 19 38  1  0
 21 39  1  0
 22 40  1  0
 23 41  1  0
 24 42  1  0
 25 43  1  0
M  END
>  <UniqueID>  (82) 
71

>  <SMILES>  (82) 
O=C1N=c2ccccc2=C(c2ccccc2)N[C@@H]1Cc1ccccc1

>  <Energy>  (82) 
80.16492481707418

>  <Genealogy>  (82) 
O=C1N=c2ccccc2=C(c2ccccc2)N[C@@H]1Cc1ccccc1 (chirality)
O=C1N=c2ccccc2=C(c2ccccc2)N[C@@H]1Cc1ccccc1 (3D coordinates assigned)
O=C1N=c2ccccc2=C(c2ccccc2)N[C@@H]1Cc1ccccc1 (nonaromatic ring conformer: 80.16492481707418 kcal/mol)

>  <smiles>  (82) 
O=C1N=c2ccccc2=C(c2ccccc2)NC1Cc1ccccc1

>  <score_type>  (82) 
oracle

>  <origin>  (82) 
adg

>  <m_score__min__energy>  (82) 
-6.6799999999999997

>  <m_primary>  (82) 
energy

$$$$
82:0
     RDKit          3D

 35 37  0  0  0  0  0  0  0  0999 V2000
   51.1480   32.3360   49.9340 O   0  0  0  0  0  0  0  0  0  0  0  0
   51.3600   32.2730   51.1730 C   0  0  0  0  0  0  0  0  0  0  0  0
   50.6600   33.1250   52.0210 O   0  0  0  0  0  0  0  0  0  0  0  0
   52.3360   31.3060   51.7230 C   0  0  0  0  0  0  0  0  0  0  0  0
   51.8920   30.1310   52.3520 C   0  0  0  0  0  0  0  0  0  0  0  0
   52.8100   29.2190   52.8740 C   0  0  0  0  0  0  0  0  0  0  0  0
   54.1810   29.4660   52.7780 C   0  0  0  0  0  0  0  0  0  0  0  0
   54.6510   30.6340   52.1520 C   0  0  0  0  0  0  0  0  0  0  0  0
   56.1090   30.8960   52.0480 C   0  0  0  0  0  0  0  0  0  0  0  0
   56.5980   32.2140   52.0050 C   0  0  0  0  0  0  0  0  0  0  0  0
   57.9700   32.4580   51.9060 C   0  0  0  0  0  0  0  0  0  0  0  0
   58.8770   31.3960   51.8330 C   0  0  0  0  0  0  0  0  0  0  0  0
   60.2470   31.6850   51.7490 O   0  0  0  0  0  0  0  0  0  0  0  0
   60.9230   32.0970   50.5900 C   0  0  0  0  0  0  0  0  0  0  0  0
   61.8140   31.2470   49.9080 C   0  0  0  0  0  0  0  0  0  0  0  0
   62.4560   31.6870   48.7460 C   0  0  0  0  0  0  0  0  0  0  0  0
   62.2060   32.9700   48.2510 C   0  0  0  0  0  0  0  0  0  0  0  0
   61.3080   33.8110   48.9130 C   0  0  0  0  0  0  0  0  0  0  0  0
   60.6630   33.3750   50.0750 C   0  0  0  0  0  0  0  0  0  0  0  0
   59.7900   34.1980   50.7080 F   0  0  0  0  0  0  0  0  0  0  0  0
   58.3970   30.0770   51.8960 C   0  0  0  0  0  0  0  0  0  0  0  0
   57.0250   29.8300   51.9950 C   0  0  0  0  0  0  0  0  0  0  0  0
   53.7190   31.5490   51.6270 C   0  0  0  0  0  0  0  0  0  0  0  0
   50.8139   29.9286   52.4335 H   0  0  0  0  0  0  0  0  0  0  0  0
   52.4520   28.3012   53.3634 H   0  0  0  0  0  0  0  0  0  0  0  0
   54.8974   28.7427   53.1945 H   0  0  0  0  0  0  0  0  0  0  0  0
   55.8950   33.0589   52.0497 H   0  0  0  0  0  0  0  0  0  0  0  0
   58.3399   33.4938   51.8853 H   0  0  0  0  0  0  0  0  0  0  0  0
   62.0059   30.2335   50.2902 H   0  0  0  0  0  0  0  0  0  0  0  0
   63.1583   31.0227   48.2211 H   0  0  0  0  0  0  0  0  0  0  0  0
   62.7161   33.3175   47.3405 H   0  0  0  0  0  0  0  0  0  0  0  0
   61.1077   34.8185   48.5194 H   0  0  0  0  0  0  0  0  0  0  0  0
   59.1043   29.2350   51.8673 H   0  0  0  0  0  0  0  0  0  0  0  0
   56.6585   28.7935   52.0318 H   0  0  0  0  0  0  0  0  0  0  0  0
   54.0762   32.4659   51.1353 H   0  0  0  0  0  0  0  0  0  0  0  0
  1  2  2  0
  2  3  1  0
  2  4  1  0
  4  5  2  0
  5  6  1  0
  6  7  2  0
  7  8  1  0
  8  9  1  0
  9 10  2  0
 10 11  1  0
 11 12  2  0
 12 13  1  0
 13 14  1  0
 14 15  2  0
 15 16  1  0
 16 17  2  0
 17 18  1  0
 18 19  2  0
 19 20  1  0
 12 21  1  0
 21 22  2  0
  8 23  2  0
 23  4  1  0
 22  9  1  0
 19 14  1  0
  5 24  1  0
  6 25  1  0
  7 26  1  0
 10 27  1  0
 11 28  1  0
 15 29  1  0
 16 30  1  0
 17 31  1  0
 18 32  1  0
 21 33  1  0
 22 34  1  0
 23 35  1  0
M  CHG  1   3  -1
M  END
>  <UniqueID>  (83) 
72

>  <SMILES>  (83) 
O=C([O-])c1cccc(-c2ccc(Oc3ccccc3F)cc2)c1

>  <Energy>  (83) 
50.66028389280049

>  <Genealogy>  (83) 
O=C([O-])c1cccc(-c2ccc(Oc3ccccc3F)cc2)c1 (protonated)
O=C([O-])c1cccc(-c2ccc(Oc3ccccc3F)cc2)c1 (3D coordinates assigned)
O=C([O-])c1cccc(-c2ccc(Oc3ccccc3F)cc2)c1 (optimized conformer: 50.66028389280049 kcal/mol)

>  <smiles>  (83) 
O=C(O)c1cccc(-c2ccc(Oc3ccccc3F)cc2)c1

>  <score_type>  (83) 
oracle

>  <origin>  (83) 
adg

>  <m_score__min__energy>  (83) 
-10.140000000000001

>  <m_primary>  (83) 
energy

$$$$
83:0
     RDKit          3D

 50 52  0  0  0  0  0  0  0  0999 V2000
   56.5430   29.6860   42.5520 C   0  0  0  0  0  0  0  0  0  0  0  0
   56.5840   29.7650   44.3330 S   0  0  0  0  0  0  0  0  0  0  0  0
   56.8370   31.1900   44.7390 O   0  0  0  0  0  0  0  0  0  0  0  0
   55.2370   29.3530   44.8580 O   0  0  0  0  0  0  0  0  0  0  0  0
   57.8240   28.7390   45.0270 N   0  0  2  0  0  0  0  0  0  0  0  0
   57.5120   27.3020   44.8170 C   0  0  0  0  0  0  0  0  0  0  0  0
   58.4990   26.2760   45.4470 C   0  0  0  0  0  0  0  0  0  0  0  0
   59.0660   26.6220   46.7020 O   0  0  0  0  0  0  0  0  0  0  0  0
   60.1170   27.5560   46.5700 C   0  0  0  0  0  0  0  0  0  0  0  0
   59.6020   29.0030   46.8760 C   0  0  2  0  0  0  0  0  0  0  0  0
   60.4960   30.0720   46.1500 C   0  0  0  0  0  0  0  0  0  0  0  0
   61.5670   30.6730   47.0660 C   0  0  0  0  0  0  0  0  0  0  0  0
   60.8910   31.4160   48.2300 C   0  0  0  0  0  0  0  0  0  0  0  0
   59.7490   30.6520   48.7560 N   0  0  0  0  0  0  0  0  0  0  0  0
   58.7010   31.3210   49.4840 C   0  0  0  0  0  0  0  0  0  0  0  0
   58.1050   30.7220   50.4180 O   0  0  0  0  0  0  0  0  0  0  0  0
   58.2750   32.6420   49.1310 N   0  0  0  0  0  0  0  0  0  0  0  0
   58.5680   33.3050   47.8930 C   0  0  0  0  0  0  0  0  0  0  0  0
   57.7850   33.0180   46.7670 C   0  0  0  0  0  0  0  0  0  0  0  0
   58.0330   33.6640   45.5530 C   0  0  0  0  0  0  0  0  0  0  0  0
   59.0560   34.6120   45.4590 C   0  0  0  0  0  0  0  0  0  0  0  0
   59.8270   34.9210   46.5840 C   0  0  0  0  0  0  0  0  0  0  0  0
   59.5810   34.2770   47.8000 C   0  0  0  0  0  0  0  0  0  0  0  0
   59.6370   29.2250   48.4280 C   0  0  0  0  0  0  0  0  0  0  0  0
   58.1090   29.1640   46.4190 C   0  0  0  0  0  0  0  0  0  0  0  0
   56.0574   28.7504   42.2376 H   0  0  0  0  0  0  0  0  0  0  0  0
   55.9760   30.5432   42.1599 H   0  0  0  0  0  0  0  0  0  0  0  0
   57.5703   29.7157   42.1599 H   0  0  0  0  0  0  0  0  0  0  0  0
   58.6780   28.9460   44.4590 H   0  0  0  0  0  0  0  0  0  0  0  0
   56.5156   27.1111   45.2421 H   0  0  0  0  0  0  0  0  0  0  0  0
   57.5840   27.1449   43.7307 H   0  0  0  0  0  0  0  0  0  0  0  0
   57.9561   25.3282   45.5769 H   0  0  0  0  0  0  0  0  0  0  0  0
   59.3487   26.2281   44.7501 H   0  0  0  0  0  0  0  0  0  0  0  0
   60.9204   27.3001   47.2765 H   0  0  0  0  0  0  0  0  0  0  0  0
   60.4968   27.5228   45.5382 H   0  0  0  0  0  0  0  0  0  0  0  0
   60.9944   29.5911   45.2954 H   0  0  0  0  0  0  0  0  0  0  0  0
   59.8365   30.8922   45.8300 H   0  0  0  0  0  0  0  0  0  0  0  0
   62.2017   29.8679   47.4647 H   0  0  0  0  0  0  0  0  0  0  0  0
   62.1854   31.3786   46.4917 H   0  0  0  0  0  0  0  0  0  0  0  0
   61.6251   31.5646   49.0356 H   0  0  0  0  0  0  0  0  0  0  0  0
   60.5220   32.3835   47.8588 H   0  0  0  0  0  0  0  0  0  0  0  0
   56.9716   32.2810   46.8390 H   0  0  0  0  0  0  0  0  0  0  0  0
   57.4221   33.4261   44.6697 H   0  0  0  0  0  0  0  0  0  0  0  0
   59.2544   35.1145   44.5008 H   0  0  0  0  0  0  0  0  0  0  0  0
   60.6279   35.6716   46.5119 H   0  0  0  0  0  0  0  0  0  0  0  0
   60.1809   34.5308   48.6864 H   0  0  0  0  0  0  0  0  0  0  0  0
   60.5022   28.6910   48.8478 H   0  0  0  0  0  0  0  0  0  0  0  0
   58.6998   28.8406   48.8569 H   0  0  0  0  0  0  0  0  0  0  0  0
   57.4804   28.5638   47.0932 H   0  0  0  0  0  0  0  0  0  0  0  0
   57.8928   30.2418   46.4588 H   0  0  0  0  0  0  0  0  0  0  0  0
  1  2  1  0
  2  3  2  0
  2  4  2  0
  2  5  1  0
  5  6  1  0
  6  7  1  0
  7  8  1  0
  8  9  1  0
 10  9  1  1
 10 11  1  0
 11 12  1  0
 12 13  1  0
 13 14  1  0
 14 15  1  0
 15 16  2  0
 15 17  1  0
 17 18  1  0
 18 19  2  0
 19 20  1  0
 20 21  2  0
 21 22  1  0
 22 23  2  0
 14 24  1  0
 10 25  1  0
 25  5  1  0
 24 10  1  0
 23 18  1  0
  1 26  1  0
  1 27  1  0
  1 28  1  0
  5 29  1  6
  6 30  1  0
  6 31  1  0
  7 32  1  0
  7 33  1  0
  9 34  1  0
  9 35  1  0
 11 36  1  0
 11 37  1  0
 12 38  1  0
 12 39  1  0
 13 40  1  0
 13 41  1  0
 19 42  1  0
 20 43  1  0
 21 44  1  0
 22 45  1  0
 23 46  1  0
 24 47  1  0
 24 48  1  0
 25 49  1  0
 25 50  1  0
M  CHG  2   5   1  17  -1
M  END
>  <UniqueID>  (84) 
73

>  <SMILES>  (84) 
CS(=O)(=O)[N@@H+]1CCOC[C@@]2(CCCN(C(=O)[N-]c3ccccc3)C2)C1

>  <Energy>  (84) 
78.85825903849705

>  <Genealogy>  (84) 
CS(=O)(=O)[NH+]1CCOCC2(CCCN(C(=O)[N-]c3ccccc3)C2)C1 (protonated)
CS(=O)(=O)[N@@H+]1CCOC[C@@]2(CCCN(C(=O)[N-]c3ccccc3)C2)C1 (chirality)
CS(=O)(=O)[N@@H+]1CCOC[C@@]2(CCCN(C(=O)[N-]c3ccccc3)C2)C1 (3D coordinates assigned)
CS(=O)(=O)[N@@H+]1CCOC[C@@]2(CCCN(C(=O)[N-]c3ccccc3)C2)C1 (nonaromatic ring conformer: 78.85825903849705 kcal/mol)

>  <smiles>  (84) 
CS(=O)(=O)N1CCOCC2(CCCN(C(=O)Nc3ccccc3)C2)C1

>  <score_type>  (84) 
oracle

>  <origin>  (84) 
adg

>  <m_score__min__energy>  (84) 
-6.21

>  <m_primary>  (84) 
energy

$$$$
84:0
     RDKit          3D

 52 55  0  0  1  0  0  0  0  0999 V2000
   63.1510   32.2930   49.2190 N   0  0  0  0  0  0  0  0  0  0  0  0
   62.6430   32.3210   47.5710 S   0  0  0  0  0  0  0  0  0  0  0  0
   63.7600   32.9260   46.7600 O   0  0  0  0  0  0  0  0  0  0  0  0
   62.4130   30.9390   47.0680 O   0  0  0  0  0  0  0  0  0  0  0  0
   61.2360   33.3350   47.3840 C   0  0  0  0  0  0  0  0  0  0  0  0
   60.8380   33.8300   46.1400 C   0  0  0  0  0  0  0  0  0  0  0  0
   59.7240   34.6320   46.0010 C   0  0  0  0  0  0  0  0  0  0  0  0
   58.9630   34.9710   47.1050 C   0  0  0  0  0  0  0  0  0  0  0  0
   60.7500   27.1100   47.8990 C   0  0  0  0  0  0  0  0  0  0  0  0
   60.2580   28.2840   48.4290 C   0  0  0  0  0  0  0  0  0  0  0  0
   60.7840   33.2320   49.7820 N   0  0  0  0  0  0  0  0  0  0  0  0
   60.3350   32.1290   50.2630 C   0  0  0  0  0  0  0  0  0  0  0  0
   60.7250   30.9530   49.7690 N   0  0  0  0  0  0  0  0  0  0  0  0
   60.2900   29.7640   50.2320 C   0  0  0  0  0  0  0  0  0  0  0  0
   60.6870   28.6370   49.7330 N   0  0  0  0  0  0  0  0  0  0  0  0
   60.4620   33.6860   48.4700 C   0  0  0  0  0  0  0  0  0  0  0  0
   59.3380   34.4900   48.3540 C   0  0  0  0  0  0  0  0  0  0  0  0
   60.3780   26.7120   46.6500 C   0  0  0  0  0  0  0  0  0  0  0  0
   59.5010   27.5130   45.9440 C   0  0  0  0  0  0  0  0  0  0  0  0
   58.9870   28.6920   46.4390 C   0  0  0  0  0  0  0  0  0  0  0  0
   58.0840   29.5170   45.7130 N   0  0  0  0  0  0  0  0  0  0  0  0
   57.9530   30.9490   45.9650 C   0  0  0  0  0  0  0  0  0  0  0  0
   57.5220   31.5640   44.6290 C   0  0  0  0  0  0  0  0  0  0  0  0
   56.2720   31.1460   44.2380 O   0  0  0  0  0  0  0  0  0  0  0  0
   56.0100   29.8270   44.4990 C   0  0  0  0  0  0  0  0  0  0  0  0
   57.2390   28.9630   44.6720 C   0  0  0  0  0  0  0  0  0  0  0  0
   59.3770   29.0770   47.7040 C   0  0  0  0  0  0  0  0  0  0  0  0
   59.4010   29.7760   51.2630 N   0  0  0  0  0  0  0  0  0  0  0  0
   58.9780   30.9560   51.7970 C   0  0  0  0  0  0  0  0  0  0  0  0
   59.4340   32.1710   51.3120 C   0  0  0  0  0  0  0  0  0  0  0  0
   58.8940   33.6880   51.9910 Cl  0  0  0  0  0  0  0  0  0  0  0  0
   62.6540   31.5410   49.7550 H   0  0  0  0  0  0  0  0  0  0  0  0
   62.9640   33.1870   49.7140 H   0  0  0  0  0  0  0  0  0  0  0  0
   61.4282   33.5737   45.2478 H   0  0  0  0  0  0  0  0  0  0  0  0
   59.4393   35.0042   45.0058 H   0  0  0  0  0  0  0  0  0  0  0  0
   58.0751   35.6111   46.9963 H   0  0  0  0  0  0  0  0  0  0  0  0
   61.4453   26.4925   48.4866 H   0  0  0  0  0  0  0  0  0  0  0  0
   61.4120   30.9360   48.9720 H   0  0  0  0  0  0  0  0  0  0  0  0
   58.7465   34.7457   49.2455 H   0  0  0  0  0  0  0  0  0  0  0  0
   60.7653   25.7785   46.2157 H   0  0  0  0  0  0  0  0  0  0  0  0
   59.1978   27.1935   44.9360 H   0  0  0  0  0  0  0  0  0  0  0  0
   57.1917   31.1351   46.7369 H   0  0  0  0  0  0  0  0  0  0  0  0
   58.8941   31.3862   46.3299 H   0  0  0  0  0  0  0  0  0  0  0  0
   57.5122   32.6592   44.7312 H   0  0  0  0  0  0  0  0  0  0  0  0
   58.2398   31.2368   43.8624 H   0  0  0  0  0  0  0  0  0  0  0  0
   55.4185   29.7714   45.4248 H   0  0  0  0  0  0  0  0  0  0  0  0
   55.4752   29.4359   43.6209 H   0  0  0  0  0  0  0  0  0  0  0  0
   56.9332   27.9444   44.9529 H   0  0  0  0  0  0  0  0  0  0  0  0
   57.7992   28.9330   43.7258 H   0  0  0  0  0  0  0  0  0  0  0  0
   58.9912   30.0108   48.1389 H   0  0  0  0  0  0  0  0  0  0  0  0
   59.0170   28.9120   51.6810 H   0  0  0  0  0  0  0  0  0  0  0  0
   58.2598   30.9437   52.6301 H   0  0  0  0  0  0  0  0  0  0  0  0
  1  2  1  0
  2  3  2  0
  2  4  2  0
  2  5  1  0
  5  6  2  0
  6  7  1  0
  7  8  2  0
  8  9  1  0
  9 10  2  0
 10 11  1  0
 11 12  2  0
 12 13  1  0
 13 14  1  0
 14 15  2  0
 15 16  1  0
 16 17  2  0
 17 18  1  0
 18 19  2  0
 19 20  1  0
 20 21  1  0
 21 22  1  0
 22 23  1  0
 23 24  1  0
 24 25  1  0
 25 26  1  0
 20 27  2  0
 14 28  1  0
 28 29  1  0
 29 30  2  0
 30 31  1  0
 10  5  1  0
 30 12  1  0
 27 16  1  0
 26 21  1  0
  1 32  1  0
  1 33  1  0
  6 34  1  0
  7 35  1  0
  8 36  1  0
  9 37  1  0
 13 38  1  0
 17 39  1  0
 18 40  1  0
 19 41  1  0
 22 42  1  0
 22 43  1  0
 23 44  1  0
 23 45  1  0
 25 46  1  0
 25 47  1  0
 26 48  1  0
 26 49  1  0
 27 50  1  0
 28 51  1  0
 29 52  1  0
M  END
>  <smiles>  (85) 
NS(=O)(=O)c1ccccc1N=c1[nH]c(=Nc2cccc(N3CCOCC3)c2)[nH]cc1Cl

>  <score_type>  (85) 
oracle

>  <origin>  (85) 
adg

>  <m_score__min__energy>  (85) 
-9.7400000000000002

>  <m_primary>  (85) 
energy

$$$$
85:0
     RDKit          3D

 38 40  0  0  0  0  0  0  0  0999 V2000
   58.3640   27.6940   44.2480 O   0  0  0  0  0  0  0  0  0  0  0  0
   57.6950   28.0000   45.2710 C   0  0  0  0  0  0  0  0  0  0  0  0
   57.7340   27.1100   46.4700 C   0  0  0  0  0  0  0  0  0  0  0  0
   57.0450   25.8540   46.1790 N   0  0  0  0  0  0  0  0  0  0  0  0
   57.5950   24.6200   46.1390 C   0  0  0  0  0  0  0  0  0  0  0  0
   58.9480   24.3590   46.3260 O   0  0  0  0  0  0  0  0  0  0  0  0
   56.6220   23.6690   45.9060 C   0  0  0  0  0  0  0  0  0  0  0  0
   55.4220   24.3420   45.8490 C   0  0  0  0  0  0  0  0  0  0  0  0
   55.7170   25.6810   46.0060 C   0  0  0  0  0  0  0  0  0  0  0  0
   54.7860   26.7150   45.9980 O   0  0  0  0  0  0  0  0  0  0  0  0
   54.1030   23.6850   45.5760 C   0  0  0  0  0  0  0  0  0  0  0  0
   54.1910   22.1730   45.8640 C   0  0  0  0  0  0  0  0  0  0  0  0
   55.4730   21.5480   45.2710 C   0  0  0  0  0  0  0  0  0  0  0  0
   56.7470   22.1760   45.8710 C   0  0  0  0  0  0  0  0  0  0  0  0
   56.9910   29.2460   45.3460 N   0  0  0  0  0  0  0  0  0  0  0  0
   57.2700   30.4410   44.6010 C   0  0  0  0  0  0  0  0  0  0  0  0
   57.1280   30.5030   43.2030 C   0  0  0  0  0  0  0  0  0  0  0  0
   57.4000   31.6890   42.5210 C   0  0  0  0  0  0  0  0  0  0  0  0
   57.8000   32.8290   43.2240 C   0  0  0  0  0  0  0  0  0  0  0  0
   57.9210   32.7930   44.6240 C   0  0  0  0  0  0  0  0  0  0  0  0
   58.3300   34.0010   45.3760 C   0  0  0  0  0  0  0  0  0  0  0  0
   59.1170   34.8400   44.8630 O   0  0  0  0  0  0  0  0  0  0  0  0
   57.8470   34.2280   46.6610 O   0  0  0  0  0  0  0  0  0  0  0  0
   57.6470   31.5940   45.3030 C   0  0  0  0  0  0  0  0  0  0  0  0
   58.7808   26.8992   46.7341 H   0  0  0  0  0  0  0  0  0  0  0  0
   57.2327   27.6121   47.3106 H   0  0  0  0  0  0  0  0  0  0  0  0
   53.3333   24.1335   46.2213 H   0  0  0  0  0  0  0  0  0  0  0  0
   53.8401   23.8340   44.5183 H   0  0  0  0  0  0  0  0  0  0  0  0
   54.1904   22.0177   46.9530 H   0  0  0  0  0  0  0  0  0  0  0  0
   53.3245   21.6851   45.3937 H   0  0  0  0  0  0  0  0  0  0  0  0
   55.4741   20.4687   45.4835 H   0  0  0  0  0  0  0  0  0  0  0  0
   55.4761   21.7378   44.1875 H   0  0  0  0  0  0  0  0  0  0  0  0
   56.8901   21.7994   46.8946 H   0  0  0  0  0  0  0  0  0  0  0  0
   57.6099   21.9030   45.2458 H   0  0  0  0  0  0  0  0  0  0  0  0
   56.8012   29.6129   42.6454 H   0  0  0  0  0  0  0  0  0  0  0  0
   57.2994   31.7273   41.4263 H   0  0  0  0  0  0  0  0  0  0  0  0
   58.0211   33.7586   42.6791 H   0  0  0  0  0  0  0  0  0  0  0  0
   57.7294   31.5597   46.3994 H   0  0  0  0  0  0  0  0  0  0  0  0
  1  2  2  0
  2  3  1  0
  3  4  1  0
  4  5  1  0
  5  6  1  0
  5  7  2  0
  7  8  1  0
  8  9  2  0
  9 10  1  0
  8 11  1  0
 11 12  1  0
 12 13  1  0
 13 14  1  0
  2 15  1  0
 15 16  1  0
 16 17  2  0
 17 18  1  0
 18 19  2  0
 19 20  1  0
 20 21  1  0
 21 22  2  0
 21 23  1  0
 20 24  2  0
  9  4  1  0
 24 16  1  0
 14  7  1  0
  3 25  1  0
  3 26  1  0
 11 27  1  0
 11 28  1  0
 12 29  1  0
 12 30  1  0
 13 31  1  0
 13 32  1  0
 14 33  1  0
 14 34  1  0
 17 35  1  0
 18 36  1  0
 19 37  1  0
 24 38  1  0
M  CHG  4   6  -1  10  -1  15  -1  23  -1
M  END
>  <UniqueID>  (86) 
74

>  <SMILES>  (86) 
O=C(Cn1c([O-])c2c(c1[O-])CCCC2)[N-]c1cccc(C(=O)[O-])c1

>  <Energy>  (86) 
70.29956217578058

>  <Genealogy>  (86) 
O=C(Cn1c([O-])c2c(c1[O-])CCCC2)[N-]c1cccc(C(=O)[O-])c1 (protonated)
O=C(Cn1c([O-])c2c(c1[O-])CCCC2)[N-]c1cccc(C(=O)[O-])c1 (3D coordinates assigned)
O=C(Cn1c([O-])c2c(c1[O-])CCCC2)[N-]c1cccc(C(=O)[O-])c1 (nonaromatic ring conformer: 70.29956217578058 kcal/mol)

>  <smiles>  (86) 
O=C(Cn1c(O)c2c(c1O)CCCC2)Nc1cccc(C(=O)O)c1

>  <score_type>  (86) 
oracle

>  <origin>  (86) 
adg

>  <m_score__min__energy>  (86) 
-14.68

>  <m_primary>  (86) 
energy

$$$$
86:0
     RDKit          3D

 25 26  0  0  0  0  0  0  0  0999 V2000
   55.1430   27.9820   44.9480 H   0  0  0  0  0  0  0  0  0  0  0  0
   55.2390   28.9650   44.7280 O   0  0  0  0  0  0  0  0  0  0  0  0
   56.4700   29.6230   44.7630 C   0  0  0  0  0  0  0  0  0  0  0  0
   56.5220   30.9830   44.4450 C   0  0  0  0  0  0  0  0  0  0  0  0
   55.6000   31.5192   44.1759 H   0  0  0  0  0  0  0  0  0  0  0  0
   57.7400   31.6620   44.4680 C   0  0  0  0  0  0  0  0  0  0  0  0
   57.7851   32.7323   44.2182 H   0  0  0  0  0  0  0  0  0  0  0  0
   58.8990   30.9690   44.8110 C   0  0  0  0  0  0  0  0  0  0  0  0
   59.8663   31.4923   44.8327 H   0  0  0  0  0  0  0  0  0  0  0  0
   58.8350   29.6460   45.1190 N   0  0  0  0  0  0  0  0  0  0  0  0
   57.6600   28.9540   45.1130 C   0  0  0  0  0  0  0  0  0  0  0  0
   57.6240   27.6810   45.3960 N   0  0  0  0  0  0  0  0  0  0  0  0
   58.1980   26.9930   46.5210 C   0  0  0  0  0  0  0  0  0  0  0  0
   59.3690   27.3030   46.8710 O   0  0  0  0  0  0  0  0  0  0  0  0
   57.4620   25.9170   47.2830 C   0  0  0  0  0  0  0  0  0  0  0  0
   58.1920   25.2970   47.8241 H   0  0  0  0  0  0  0  0  0  0  0  0
   56.7677   26.4003   47.9861 H   0  0  0  0  0  0  0  0  0  0  0  0
   56.6860   25.0620   46.3760 N   0  0  0  0  0  0  0  0  0  0  0  0
   55.4950   25.4220   45.8130 C   0  0  0  0  0  0  0  0  0  0  0  0
   54.9140   26.6660   46.0250 O   0  0  0  0  0  0  0  0  0  0  0  0
   54.9000   24.4510   45.0140 C   0  0  0  0  0  0  0  0  0  0  0  0
   53.9494   24.5541   44.4702 H   0  0  0  0  0  0  0  0  0  0  0  0
   55.8930   23.0880   45.0260 S   0  0  0  0  0  0  0  0  0  0  0  0
   57.0290   23.7970   46.0400 C   0  0  0  0  0  0  0  0  0  0  0  0
   58.0720   23.2190   46.4460 O   0  0  0  0  0  0  0  0  0  0  0  0
  1  2  1  0
  2  3  1  0
  3  4  2  0
  4  5  1  0
  4  6  1  0
  6  7  1  0
  6  8  2  0
  8  9  1  0
  8 10  1  0
 10 11  1  0
 11 12  2  0
 12 13  1  0
 13 14  2  0
 13 15  1  0
 15 16  1  0
 15 17  1  0
 15 18  1  0
 18 19  1  0
 19 20  1  0
 19 21  2  0
 21 22  1  0
 21 23  1  0
 23 24  1  0
 24 25  2  0
 11  3  1  0
 24 18  1  0
M  CHG  2  10  -1  20  -1
M  END
>  <UniqueID>  (87) 
75

>  <SMILES>  (87) 
O=C(Cn1c([O-])csc1=O)/N=c1\[n-]cccc1O

>  <Energy>  (87) 
62.68608798423191

>  <Genealogy>  (87) 
O=C(Cn1c([O-])csc1=O)N=c1[n-]cccc1O (protonated)
O=C(Cn1c([O-])csc1=O)/N=c1\[n-]cccc1O (cis-trans isomerization)
O=C(Cn1c([O-])csc1=O)/N=c1\[n-]cccc1O (3D coordinates assigned)
O=C(Cn1c([O-])csc1=O)/N=c1\[n-]cccc1O (optimized conformer: 62.68608798423191 kcal/mol)

>  <smiles>  (87) 
O=C(Cn1c(O)csc1=O)N=c1[nH]cccc1O

>  <score_type>  (87) 
oracle

>  <origin>  (87) 
adg

>  <m_score__min__energy>  (87) 
-11.550000000000001

>  <m_primary>  (87) 
energy

$$$$
87:0
     RDKit          3D

 56 58  0  0  0  0  0  0  0  0999 V2000
   61.2390   30.5300   46.7650 C   0  0  0  0  0  0  0  0  0  0  0  0
   61.2540   30.8360   48.2590 C   0  0  0  0  0  0  0  0  0  0  0  0
   59.9050   30.7220   48.8450 N   0  0  0  0  0  0  0  0  0  0  0  0
   59.1600   31.9510   49.1760 C   0  0  0  0  0  0  0  0  0  0  0  0
   59.7640   32.7140   50.3610 C   0  0  0  0  0  0  0  0  0  0  0  0
   59.5720   34.0920   50.2130 O   0  0  0  0  0  0  0  0  0  0  0  0
   59.3710   29.4310   49.2230 C   0  0  0  0  0  0  0  0  0  0  0  0
   58.2720   29.3640   49.8350 O   0  0  0  0  0  0  0  0  0  0  0  0
   60.0420   28.1590   48.8780 C   0  0  0  0  0  0  0  0  0  0  0  0
   59.9020   27.5000   47.7170 C   0  0  0  0  0  0  0  0  0  0  0  0
   58.6110   27.1320   47.1010 C   0  0  0  0  0  0  0  0  0  0  0  0
   58.1520   25.8110   47.2080 C   0  0  0  0  0  0  0  0  0  0  0  0
   56.9290   25.4440   46.6420 C   0  0  0  0  0  0  0  0  0  0  0  0
   56.1690   26.3840   45.9410 C   0  0  0  0  0  0  0  0  0  0  0  0
   56.6460   27.6950   45.7740 C   0  0  0  0  0  0  0  0  0  0  0  0
   55.8940   28.6870   45.0600 N   0  0  0  0  0  0  0  0  0  0  0  0
   56.4130   29.6080   44.0910 C   0  0  0  0  0  0  0  0  0  0  0  0
   56.1450   29.4170   42.8750 O   0  0  0  0  0  0  0  0  0  0  0  0
   57.2050   30.7990   44.4820 C   0  0  0  0  0  0  0  0  0  0  0  0
   57.4090   31.8420   43.5650 C   0  0  0  0  0  0  0  0  0  0  0  0
   58.1580   32.9660   43.9250 C   0  0  0  0  0  0  0  0  0  0  0  0
   58.6930   33.0810   45.2130 C   0  0  0  0  0  0  0  0  0  0  0  0
   59.4770   34.2390   45.5300 N   0  0  0  0  0  0  0  0  0  0  0  0
   59.9700   34.6140   46.8230 C   0  0  0  0  0  0  0  0  0  0  0  0
   59.2790   35.3320   47.5930 O   0  0  0  0  0  0  0  0  0  0  0  0
   61.3160   34.2020   47.2370 C   0  0  0  0  0  0  0  0  0  0  0  0
   62.3390   33.8040   46.3990 C   0  0  0  0  0  0  0  0  0  0  0  0
   63.4020   33.5120   47.2250 C   0  0  0  0  0  0  0  0  0  0  0  0
   62.9650   33.7490   48.5120 C   0  0  0  0  0  0  0  0  0  0  0  0
   61.7180   34.1600   48.4880 O   0  0  0  0  0  0  0  0  0  0  0  0
   58.4960   32.0350   46.1330 C   0  0  0  0  0  0  0  0  0  0  0  0
   57.7480   30.9110   45.7740 C   0  0  0  0  0  0  0  0  0  0  0  0
   57.8630   28.0630   46.3600 C   0  0  0  0  0  0  0  0  0  0  0  0
   61.1856   29.4417   46.6141 H   0  0  0  0  0  0  0  0  0  0  0  0
   60.3632   31.0078   46.3016 H   0  0  0  0  0  0  0  0  0  0  0  0
   62.1573   30.9198   46.3016 H   0  0  0  0  0  0  0  0  0  0  0  0
   61.9246   30.1247   48.7633 H   0  0  0  0  0  0  0  0  0  0  0  0
   61.6056   31.8691   48.3974 H   0  0  0  0  0  0  0  0  0  0  0  0
   59.1624   32.6107   48.2958 H   0  0  0  0  0  0  0  0  0  0  0  0
   58.1404   31.6523   49.4609 H   0  0  0  0  0  0  0  0  0  0  0  0
   59.2793   32.3799   51.2902 H   0  0  0  0  0  0  0  0  0  0  0  0
   60.8443   32.5100   50.3987 H   0  0  0  0  0  0  0  0  0  0  0  0
   59.9550   34.3310   49.3290 H   0  0  0  0  0  0  0  0  0  0  0  0
   60.7091   27.7177   49.6331 H   0  0  0  0  0  0  0  0  0  0  0  0
   60.8196   27.2118   47.1831 H   0  0  0  0  0  0  0  0  0  0  0  0
   58.7571   25.0617   47.7393 H   0  0  0  0  0  0  0  0  0  0  0  0
   56.5631   24.4121   46.7484 H   0  0  0  0  0  0  0  0  0  0  0  0
   55.1947   26.0968   45.5188 H   0  0  0  0  0  0  0  0  0  0  0  0
   56.9764   31.7744   42.5559 H   0  0  0  0  0  0  0  0  0  0  0  0
   58.3282   33.7665   43.1900 H   0  0  0  0  0  0  0  0  0  0  0  0
   62.3109   33.7347   45.3015 H   0  0  0  0  0  0  0  0  0  0  0  0
   64.3987   33.1606   46.9199 H   0  0  0  0  0  0  0  0  0  0  0  0
   63.5698   33.6141   49.4209 H   0  0  0  0  0  0  0  0  0  0  0  0
   58.9332   32.1025   47.1401 H   0  0  0  0  0  0  0  0  0  0  0  0
   57.5827   30.1080   46.5074 H   0  0  0  0  0  0  0  0  0  0  0  0
   58.2373   29.0903   46.2394 H   0  0  0  0  0  0  0  0  0  0  0  0
  1  2  1  0
  2  3  1  0
  3  4  1  0
  4  5  1  0
  5  6  1  0
  3  7  1  0
  7  8  2  0
  7  9  1  0
  9 10  2  3
 10 11  1  0
 11 12  2  0
 12 13  1  0
 13 14  2  0
 14 15  1  0
 15 16  1  0
 16 17  1  0
 17 18  2  0
 17 19  1  0
 19 20  2  0
 20 21  1  0
 21 22  2  0
 22 23  1  0
 23 24  1  0
 24 25  2  0
 24 26  1  0
 26 27  2  0
 27 28  1  0
 28 29  2  0
 29 30  1  0
 22 31  1  0
 31 32  2  0
 15 33  2  0
 33 11  1  0
 32 19  1  0
 30 26  1  0
  1 34  1  0
  1 35  1  0
  1 36  1  0
  2 37  1  0
  2 38  1  0
  4 39  1  0
  4 40  1  0
  5 41  1  0
  5 42  1  0
  6 43  1  0
  9 44  1  0
 10 45  1  0
 12 46  1  0
 13 47  1  0
 14 48  1  0
 20 49  1  0
 21 50  1  0
 27 51  1  0
 28 52  1  0
 29 53  1  0
 31 54  1  0
 32 55  1  0
 33 56  1  0
M  CHG  2  16  -1  23  -1
M  END
>  <UniqueID>  (88) 
76

>  <SMILES>  (88) 
CCN(CCO)C(=O)C=Cc1cccc([N-]C(=O)c2ccc([N-]C(=O)c3ccco3)cc2)c1

>  <Energy>  (88) 
98.07282985821925

>  <Genealogy>  (88) 
CCN(CCO)C(=O)C=Cc1cccc([N-]C(=O)c2ccc([N-]C(=O)c3ccco3)cc2)c1 (protonated)
CCN(CCO)C(=O)C=Cc1cccc([N-]C(=O)c2ccc([N-]C(=O)c3ccco3)cc2)c1 (3D coordinates assigned)
CCN(CCO)C(=O)C=Cc1cccc([N-]C(=O)c2ccc([N-]C(=O)c3ccco3)cc2)c1 (optimized conformer: 98.07282985821925 kcal/mol)

>  <smiles>  (88) 
CCN(CCO)C(=O)C=Cc1cccc(NC(=O)c2ccc(NC(=O)c3ccco3)cc2)c1

>  <score_type>  (88) 
oracle

>  <origin>  (88) 
adg

>  <m_score__min__energy>  (88) 
-11.73

>  <m_primary>  (88) 
energy

$$$$
88:0
     RDKit          3D

 51 54  0  0  0  0  0  0  0  0999 V2000
   63.3140   34.2370   50.3130 O   0  0  0  0  0  0  0  0  0  0  0  0
   62.7770   33.3690   49.5730 C   0  0  0  0  0  0  0  0  0  0  0  0
   62.7680   31.9320   50.0250 C   0  0  0  0  0  0  0  0  0  0  0  0
   61.7240   31.1290   49.3010 C   0  0  0  0  0  0  0  0  0  0  0  0
   60.6080   30.6150   49.9790 C   0  0  0  0  0  0  0  0  0  0  0  0
   59.6900   29.8230   49.2840 C   0  0  0  0  0  0  0  0  0  0  0  0
   59.8860   29.5590   47.9280 C   0  0  0  0  0  0  0  0  0  0  0  0
   60.9970   30.1030   47.2800 C   0  0  0  0  0  0  0  0  0  0  0  0
   61.8820   30.8690   47.9730 N   0  0  0  0  0  0  0  0  0  0  0  0
   62.1810   33.7640   48.3240 N   0  0  0  0  0  0  0  0  0  0  0  0
   60.7970   34.1500   48.0960 C   0  0  0  0  0  0  0  0  0  0  0  0
   60.7170   34.2320   46.5930 C   0  0  0  0  0  0  0  0  0  0  0  0
   59.4680   34.5800   45.8360 C   0  0  0  0  0  0  0  0  0  0  0  0
   58.7940   33.3330   45.3250 C   0  0  0  0  0  0  0  0  0  0  0  0
   58.5510   32.2570   46.1950 C   0  0  0  0  0  0  0  0  0  0  0  0
   57.8340   31.1410   45.7550 C   0  0  0  0  0  0  0  0  0  0  0  0
   57.3630   31.0800   44.4360 C   0  0  0  0  0  0  0  0  0  0  0  0
   56.4680   29.6750   43.8640 S   0  0  0  0  0  0  0  0  0  0  0  0
   55.2670   30.0860   43.0590 O   0  0  0  0  0  0  0  0  0  0  0  0
   57.3780   28.8570   42.9920 O   0  0  0  0  0  0  0  0  0  0  0  0
   55.9590   28.7050   45.2100 N   0  0  0  0  0  0  0  0  0  0  0  0
   56.5430   27.4660   45.6460 C   0  0  0  0  0  0  0  0  0  0  0  0
   57.9410   27.3770   45.6630 C   0  0  0  0  0  0  0  0  0  0  0  0
   58.5760   26.2070   46.0930 C   0  0  0  0  0  0  0  0  0  0  0  0
   57.8160   25.1100   46.4980 C   0  0  0  0  0  0  0  0  0  0  0  0
   56.4210   25.1730   46.4590 C   0  0  0  0  0  0  0  0  0  0  0  0
   55.7780   26.3390   46.0220 C   0  0  0  0  0  0  0  0  0  0  0  0
   54.3930   26.3380   45.9420 O   0  0  0  0  0  0  0  0  0  0  0  0
   57.6030   32.1500   43.5660 C   0  0  0  0  0  0  0  0  0  0  0  0
   58.3080   33.2730   44.0090 C   0  0  0  0  0  0  0  0  0  0  0  0
   61.8380   33.9720   45.9980 N   0  0  0  0  0  0  0  0  0  0  0  0
   62.7590   33.6730   47.0320 C   0  0  0  0  0  0  0  0  0  0  0  0
   63.9570   33.3550   46.8150 O   0  0  0  0  0  0  0  0  0  0  0  0
   63.7564   31.4905   49.8298 H   0  0  0  0  0  0  0  0  0  0  0  0
   62.5329   31.9115   51.0994 H   0  0  0  0  0  0  0  0  0  0  0  0
   60.4573   30.8333   51.0466 H   0  0  0  0  0  0  0  0  0  0  0  0
   58.8144   29.4085   49.8051 H   0  0  0  0  0  0  0  0  0  0  0  0
   59.1732   28.9293   47.3754 H   0  0  0  0  0  0  0  0  0  0  0  0
   61.1565   29.9119   46.2085 H   0  0  0  0  0  0  0  0  0  0  0  0
   60.1041   33.3914   48.4890 H   0  0  0  0  0  0  0  0  0  0  0  0
   60.5176   35.0875   48.5990 H   0  0  0  0  0  0  0  0  0  0  0  0
   58.7779   35.1164   46.5039 H   0  0  0  0  0  0  0  0  0  0  0  0
   59.7375   35.2146   44.9789 H   0  0  0  0  0  0  0  0  0  0  0  0
   58.9271   32.2931   47.2281 H   0  0  0  0  0  0  0  0  0  0  0  0
   57.6386   30.3077   46.4459 H   0  0  0  0  0  0  0  0  0  0  0  0
   58.5454   28.2356   45.3350 H   0  0  0  0  0  0  0  0  0  0  0  0
   59.6745   26.1523   46.1117 H   0  0  0  0  0  0  0  0  0  0  0  0
   58.3153   24.1946   46.8484 H   0  0  0  0  0  0  0  0  0  0  0  0
   55.8246   24.3036   46.7727 H   0  0  0  0  0  0  0  0  0  0  0  0
   57.2356   32.1071   42.5301 H   0  0  0  0  0  0  0  0  0  0  0  0
   58.4830   34.1146   43.3226 H   0  0  0  0  0  0  0  0  0  0  0  0
  1  2  2  0
  2  3  1  0
  3  4  1  0
  4  5  2  0
  5  6  1  0
  6  7  2  0
  7  8  1  0
  8  9  2  0
  2 10  1  0
 10 11  1  0
 11 12  1  0
 12 13  1  0
 13 14  1  0
 14 15  2  0
 15 16  1  0
 16 17  2  0
 17 18  1  0
 18 19  2  0
 18 20  2  0
 18 21  1  0
 21 22  1  0
 22 23  2  0
 23 24  1  0
 24 25  2  0
 25 26  1  0
 26 27  2  0
 27 28  1  0
 17 29  1  0
 29 30  2  0
 12 31  2  0
 31 32  1  0
 32 33  2  0
  9  4  1  0
 32 10  1  0
 30 14  1  0
 27 22  1  0
  3 34  1  0
  3 35  1  0
  5 36  1  0
  6 37  1  0
  7 38  1  0
  8 39  1  0
 11 40  1  0
 11 41  1  0
 13 42  1  0
 13 43  1  0
 15 44  1  0
 16 45  1  0
 23 46  1  0
 24 47  1  0
 25 48  1  0
 26 49  1  0
 29 50  1  0
 30 51  1  0
M  CHG  2  21  -1  28  -1
M  END
>  <UniqueID>  (89) 
77

>  <SMILES>  (89) 
O=C(Cc1ccccn1)N1CC(Cc2ccc(S(=O)(=O)[N-]c3ccccc3[O-])cc2)=NC1=O

>  <Energy>  (89) 
76.13856955974552

>  <Genealogy>  (89) 
O=C(Cc1ccccn1)N1CC(Cc2ccc(S(=O)(=O)[N-]c3ccccc3[O-])cc2)=NC1=O (protonated)
O=C(Cc1ccccn1)N1CC(Cc2ccc(S(=O)(=O)[N-]c3ccccc3[O-])cc2)=NC1=O (3D coordinates assigned)
O=C(Cc1ccccn1)N1CC(Cc2ccc(S(=O)(=O)[N-]c3ccccc3[O-])cc2)=NC1=O (nonaromatic ring conformer: 76.13856955974552 kcal/mol)

>  <smiles>  (89) 
O=C(Cc1ccccn1)N1CC(Cc2ccc(S(=O)(=O)Nc3ccccc3O)cc2)=NC1=O

>  <score_type>  (89) 
oracle

>  <origin>  (89) 
adg

>  <m_score__min__energy>  (89) 
-15.710000000000001

>  <m_primary>  (89) 
energy

$$$$
89:0
     RDKit          3D

 51 53  0  0  0  0  0  0  0  0999 V2000
   57.4850   31.2470   53.9280 C   0  0  0  0  0  0  0  0  0  0  0  0
   57.6890   31.7780   52.5730 N   0  0  0  0  0  0  0  0  0  0  0  0
   57.6980   33.2350   52.3450 C   0  0  0  0  0  0  0  0  0  0  0  0
   59.0910   33.8110   52.2870 C   0  0  0  0  0  0  0  0  0  0  0  0
   59.4680   34.5460   53.2400 O   0  0  0  0  0  0  0  0  0  0  0  0
   60.0220   33.5520   51.1520 C   0  0  0  0  0  0  0  0  0  0  0  0
   61.2270   32.8620   51.3760 C   0  0  0  0  0  0  0  0  0  0  0  0
   62.1170   32.6210   50.3270 C   0  0  0  0  0  0  0  0  0  0  0  0
   61.8210   33.0630   49.0310 C   0  0  0  0  0  0  0  0  0  0  0  0
   62.9560   32.7740   47.7110 S   0  0  0  0  0  0  0  0  0  0  0  0
   62.6450   31.2270   47.0050 N   0  0  0  0  0  0  0  0  0  0  0  0
   62.8050   33.8360   46.6590 O   0  0  0  0  0  0  0  0  0  0  0  0
   64.3630   32.8160   48.2390 O   0  0  0  0  0  0  0  0  0  0  0  0
   60.6260   33.7560   48.7970 C   0  0  0  0  0  0  0  0  0  0  0  0
   60.3220   34.2090   47.5550 F   0  0  0  0  0  0  0  0  0  0  0  0
   59.7350   33.9980   49.8480 C   0  0  0  0  0  0  0  0  0  0  0  0
   58.3170   30.9360   51.5830 C   0  0  0  0  0  0  0  0  0  0  0  0
   58.1370   31.1940   50.2130 C   0  0  0  0  0  0  0  0  0  0  0  0
   58.7530   30.3870   49.2520 C   0  0  0  0  0  0  0  0  0  0  0  0
   59.5530   29.3030   49.6440 C   0  0  0  0  0  0  0  0  0  0  0  0
   60.2470   28.4530   48.6150 C   0  0  0  0  0  0  0  0  0  0  0  0
   59.4090   28.3230   47.4180 N   0  0  0  0  0  0  0  0  0  0  0  0
   58.3550   27.5000   47.4710 N   0  0  0  0  0  0  0  0  0  0  0  0
   57.5390   27.2920   46.4030 C   0  0  0  0  0  0  0  0  0  0  0  0
   56.3950   26.3750   46.5350 C   0  0  0  0  0  0  0  0  0  0  0  0
   56.5140   25.2770   47.1420 O   0  0  0  0  0  0  0  0  0  0  0  0
   55.1650   26.7190   45.9860 O   0  0  0  0  0  0  0  0  0  0  0  0
   57.8130   27.9540   45.2020 C   0  0  0  0  0  0  0  0  0  0  0  0
   58.9110   28.8070   45.1320 C   0  0  0  0  0  0  0  0  0  0  0  0
   59.7140   28.9840   46.2580 C   0  0  0  0  0  0  0  0  0  0  0  0
   60.7140   29.7500   46.1920 O   0  0  0  0  0  0  0  0  0  0  0  0
   59.7430   29.0480   51.0100 C   0  0  0  0  0  0  0  0  0  0  0  0
   59.1290   29.8550   51.9710 C   0  0  0  0  0  0  0  0  0  0  0  0
   57.7770   32.0072   54.6675 H   0  0  0  0  0  0  0  0  0  0  0  0
   56.4242   30.9903   54.0654 H   0  0  0  0  0  0  0  0  0  0  0  0
   58.1010   30.3461   54.0654 H   0  0  0  0  0  0  0  0  0  0  0  0
   57.1916   33.4442   51.3912 H   0  0  0  0  0  0  0  0  0  0  0  0
   57.1811   33.7055   53.1944 H   0  0  0  0  0  0  0  0  0  0  0  0
   61.4711   32.5083   52.3886 H   0  0  0  0  0  0  0  0  0  0  0  0
   63.0558   32.0810   50.5195 H   0  0  0  0  0  0  0  0  0  0  0  0
   62.0160   30.7110   47.6600 H   0  0  0  0  0  0  0  0  0  0  0  0
   62.1000   31.3950   46.1310 H   0  0  0  0  0  0  0  0  0  0  0  0
   58.7995   34.5430   49.6533 H   0  0  0  0  0  0  0  0  0  0  0  0
   57.5066   32.0374   49.8947 H   0  0  0  0  0  0  0  0  0  0  0  0
   58.6098   30.6029   48.1830 H   0  0  0  0  0  0  0  0  0  0  0  0
   61.2030   28.9227   48.3403 H   0  0  0  0  0  0  0  0  0  0  0  0
   60.4279   27.4535   49.0373 H   0  0  0  0  0  0  0  0  0  0  0  0
   57.1688   27.8026   44.3233 H   0  0  0  0  0  0  0  0  0  0  0  0
   59.1431   29.3368   44.1963 H   0  0  0  0  0  0  0  0  0  0  0  0
   60.3789   28.2080   51.3264 H   0  0  0  0  0  0  0  0  0  0  0  0
   59.2818   29.6433   53.0396 H   0  0  0  0  0  0  0  0  0  0  0  0
  1  2  1  0
  2  3  1  0
  3  4  1  0
  4  5  2  0
  4  6  1  0
  6  7  2  0
  7  8  1  0
  8  9  2  0
  9 10  1  0
 10 11  1  0
 10 12  2  0
 10 13  2  0
  9 14  1  0
 14 15  1  0
 14 16  2  0
  2 17  1  0
 17 18  2  0
 18 19  1  0
 19 20  2  0
 20 21  1  0
 21 22  1  0
 22 23  1  0
 23 24  2  0
 24 25  1  0
 25 26  2  0
 25 27  1  0
 24 28  1  0
 28 29  2  0
 29 30  1  0
 30 31  2  0
 20 32  1  0
 32 33  2  0
 16  6  1  0
 33 17  1  0
 30 22  1  0
  1 34  1  0
  1 35  1  0
  1 36  1  0
  3 37  1  0
  3 38  1  0
  7 39  1  0
  8 40  1  0
 11 41  1  0
 11 42  1  0
 16 43  1  0
 18 44  1  0
 19 45  1  0
 21 46  1  0
 21 47  1  0
 28 48  1  0
 29 49  1  0
 32 50  1  0
 33 51  1  0
M  CHG  1  27  -1
M  END
>  <UniqueID>  (90) 
78

>  <SMILES>  (90) 
CN(CC(=O)c1ccc(S(N)(=O)=O)c(F)c1)c1ccc(Cn2nc(C(=O)[O-])ccc2=O)cc1

>  <Energy>  (90) 
59.2575975408877

>  <Genealogy>  (90) 
CN(CC(=O)c1ccc(S(N)(=O)=O)c(F)c1)c1ccc(Cn2nc(C(=O)[O-])ccc2=O)cc1 (protonated)
CN(CC(=O)c1ccc(S(N)(=O)=O)c(F)c1)c1ccc(Cn2nc(C(=O)[O-])ccc2=O)cc1 (3D coordinates assigned)
CN(CC(=O)c1ccc(S(N)(=O)=O)c(F)c1)c1ccc(Cn2nc(C(=O)[O-])ccc2=O)cc1 (optimized conformer: 59.2575975408877 kcal/mol)

>  <smiles>  (90) 
CN(CC(=O)c1ccc(S(N)(=O)=O)c(F)c1)c1ccc(Cn2nc(C(=O)O)ccc2=O)cc1

>  <score_type>  (90) 
oracle

>  <origin>  (90) 
adg

>  <m_score__min__energy>  (90) 
-12.98

>  <m_primary>  (90) 
energy

$$$$
90:0
     RDKit          3D

 34 35  0  0  0  0  0  0  0  0999 V2000
   55.2920   29.5680   43.2730 O   0  0  0  0  0  0  0  0  0  0  0  0
   56.1660   29.8300   44.1420 C   0  0  0  0  0  0  0  0  0  0  0  0
   56.9420   31.1080   44.0470 C   0  0  0  0  0  0  0  0  0  0  0  0
   57.0730   31.7530   45.3560 N   0  0  0  0  0  0  0  0  0  0  0  0
   57.5000   33.1030   45.5420 C   0  0  0  0  0  0  0  0  0  0  0  0
   57.4040   33.9250   44.5910 O   0  0  0  0  0  0  0  0  0  0  0  0
   57.9960   33.5320   46.8140 N   0  0  0  0  0  0  0  0  0  0  0  0
   59.3770   33.7040   47.1500 C   0  0  0  0  0  0  0  0  0  0  0  0
   60.3080   33.8020   46.1080 C   0  0  0  0  0  0  0  0  0  0  0  0
   61.6820   33.8240   46.3770 C   0  0  0  0  0  0  0  0  0  0  0  0
   62.1380   33.7470   47.6950 C   0  0  0  0  0  0  0  0  0  0  0  0
   61.2210   33.6480   48.7440 C   0  0  0  0  0  0  0  0  0  0  0  0
   59.8460   33.6210   48.4800 C   0  0  0  0  0  0  0  0  0  0  0  0
   58.9930   33.4180   49.5100 F   0  0  0  0  0  0  0  0  0  0  0  0
   56.3730   28.9510   45.2540 N   0  0  0  0  0  0  0  0  0  0  0  0
   57.5860   28.2400   45.5610 C   0  0  0  0  0  0  0  0  0  0  0  0
   58.8310   28.9020   45.5240 C   0  0  0  0  0  0  0  0  0  0  0  0
   60.0060   28.2260   45.8550 C   0  0  0  0  0  0  0  0  0  0  0  0
   59.9580   26.8880   46.2400 C   0  0  0  0  0  0  0  0  0  0  0  0
   58.7310   26.2230   46.3110 C   0  0  0  0  0  0  0  0  0  0  0  0
   57.5310   26.8820   45.9760 C   0  0  0  0  0  0  0  0  0  0  0  0
   56.2500   26.1290   46.0780 C   0  0  0  0  0  0  0  0  0  0  0  0
   55.1370   26.7130   45.9800 O   0  0  0  0  0  0  0  0  0  0  0  0
   56.2610   24.7520   46.2710 O   0  0  0  0  0  0  0  0  0  0  0  0
   57.9458   30.8887   43.6541 H   0  0  0  0  0  0  0  0  0  0  0  0
   56.4011   31.7922   43.3767 H   0  0  0  0  0  0  0  0  0  0  0  0
   59.9561   33.8623   45.0676 H   0  0  0  0  0  0  0  0  0  0  0  0
   62.4028   33.9020   45.5497 H   0  0  0  0  0  0  0  0  0  0  0  0
   63.2173   33.7643   47.9065 H   0  0  0  0  0  0  0  0  0  0  0  0
   61.5805   33.5910   49.7820 H   0  0  0  0  0  0  0  0  0  0  0  0
   58.8761   29.9614   45.2314 H   0  0  0  0  0  0  0  0  0  0  0  0
   60.9719   28.7505   45.8119 H   0  0  0  0  0  0  0  0  0  0  0  0
   60.8872   26.3543   46.4884 H   0  0  0  0  0  0  0  0  0  0  0  0
   58.7013   25.1715   46.6325 H   0  0  0  0  0  0  0  0  0  0  0  0
  1  2  2  0
  2  3  1  0
  3  4  1  0
  4  5  1  0
  5  6  2  0
  5  7  1  0
  7  8  1  0
  8  9  2  0
  9 10  1  0
 10 11  2  0
 11 12  1  0
 12 13  2  0
 13 14  1  0
  2 15  1  0
 15 16  1  0
 16 17  2  0
 17 18  1  0
 18 19  2  0
 19 20  1  0
 20 21  2  0
 21 22  1  0
 22 23  2  0
 22 24  1  0
 13  8  1  0
 21 16  1  0
  3 25  1  0
  3 26  1  0
  9 27  1  0
 10 28  1  0
 11 29  1  0
 12 30  1  0
 17 31  1  0
 18 32  1  0
 19 33  1  0
 20 34  1  0
M  CHG  4   4  -1   7  -1  15  -1  24  -1
M  END
>  <UniqueID>  (91) 
79

>  <SMILES>  (91) 
O=C(C[N-]C(=O)[N-]c1ccccc1F)[N-]c1ccccc1C(=O)[O-]

>  <Energy>  (91) 
41.979339484836125

>  <Genealogy>  (91) 
O=C(C[N-]C(=O)[N-]c1ccccc1F)[N-]c1ccccc1C(=O)[O-] (protonated)
O=C(C[N-]C(=O)[N-]c1ccccc1F)[N-]c1ccccc1C(=O)[O-] (3D coordinates assigned)
O=C(C[N-]C(=O)[N-]c1ccccc1F)[N-]c1ccccc1C(=O)[O-] (optimized conformer: 41.979339484836125 kcal/mol)

>  <smiles>  (91) 
O=C(CNC(=O)Nc1ccccc1F)Nc1ccccc1C(=O)O

>  <score_type>  (91) 
oracle

>  <origin>  (91) 
adg

>  <m_score__min__energy>  (91) 
-14.76

>  <m_primary>  (91) 
energy

$$$$
91:0
     RDKit          3D

 50 53  0  0  0  0  0  0  0  0999 V2000
   58.2210   32.2020   48.4160 O   0  0  0  0  0  0  0  0  0  0  0  0
   58.9890   31.8650   49.3060 C   0  0  0  0  0  0  0  0  0  0  0  0
   59.3970   32.8800   50.3450 C   0  0  0  0  0  0  0  0  0  0  0  0
   60.0180   34.1300   49.7110 C   0  0  0  0  0  0  0  0  0  0  0  0
   61.3750   33.8310   49.1050 C   0  0  0  0  0  0  0  0  0  0  0  0
   62.4760   33.7150   49.9720 C   0  0  0  0  0  0  0  0  0  0  0  0
   63.7670   33.5500   49.4690 C   0  0  0  0  0  0  0  0  0  0  0  0
   63.9800   33.5070   48.0920 C   0  0  0  0  0  0  0  0  0  0  0  0
   62.9020   33.6210   47.2150 C   0  0  0  0  0  0  0  0  0  0  0  0
   61.5940   33.7740   47.7040 C   0  0  0  0  0  0  0  0  0  0  0  0
   60.4990   33.8990   46.7270 C   0  0  0  0  0  0  0  0  0  0  0  0
   59.9270   32.8480   46.0230 C   0  0  0  0  0  0  0  0  0  0  0  0
   58.8460   33.2410   45.2120 C   0  0  0  0  0  0  0  0  0  0  0  0
   58.0800   32.2990   44.3570 C   0  0  0  0  0  0  0  0  0  0  0  0
   58.0160   32.4870   42.9630 C   0  0  0  0  0  0  0  0  0  0  0  0
   57.2840   31.6060   42.1610 C   0  0  0  0  0  0  0  0  0  0  0  0
   56.6030   30.5320   42.7400 C   0  0  0  0  0  0  0  0  0  0  0  0
   56.6630   30.3310   44.1200 C   0  0  0  0  0  0  0  0  0  0  0  0
   57.3960   31.2070   44.9270 C   0  0  0  0  0  0  0  0  0  0  0  0
   58.5590   34.6040   45.3090 C   0  0  0  0  0  0  0  0  0  0  0  0
   59.6410   35.3030   46.3890 S   0  0  0  0  0  0  0  0  0  0  0  0
   59.4660   30.4350   49.3640 C   0  0  0  0  0  0  0  0  0  0  0  0
   59.5990   29.8600   48.0150 N   0  0  0  0  0  0  0  0  0  0  0  0
   58.5870   29.0890   47.5110 C   0  0  0  0  0  0  0  0  0  0  0  0
   58.6960   28.5210   46.2440 C   0  0  0  0  0  0  0  0  0  0  0  0
   59.8520   28.7550   45.5060 C   0  0  0  0  0  0  0  0  0  0  0  0
   59.9750   28.2570   44.3540 O   0  0  0  0  0  0  0  0  0  0  0  0
   60.8450   29.5240   46.0260 N   0  0  0  0  0  0  0  0  0  0  0  0
   60.7300   30.0720   47.2690 C   0  0  0  0  0  0  0  0  0  0  0  0
   61.6740   30.7770   47.7220 O   0  0  0  0  0  0  0  0  0  0  0  0
   58.5076   33.1774   50.9199 H   0  0  0  0  0  0  0  0  0  0  0  0
   60.1533   32.4164   50.9955 H   0  0  0  0  0  0  0  0  0  0  0  0
   59.3479   34.5005   48.9213 H   0  0  0  0  0  0  0  0  0  0  0  0
   60.1513   34.8861   50.4988 H   0  0  0  0  0  0  0  0  0  0  0  0
   62.3176   33.7548   51.0598 H   0  0  0  0  0  0  0  0  0  0  0  0
   64.6176   33.4537   50.1598 H   0  0  0  0  0  0  0  0  0  0  0  0
   64.9991   33.3831   47.6971 H   0  0  0  0  0  0  0  0  0  0  0  0
   63.0775   33.5908   46.1295 H   0  0  0  0  0  0  0  0  0  0  0  0
   60.2837   31.8098   46.0923 H   0  0  0  0  0  0  0  0  0  0  0  0
   58.5458   33.3333   42.5014 H   0  0  0  0  0  0  0  0  0  0  0  0
   57.2442   31.7587   41.0724 H   0  0  0  0  0  0  0  0  0  0  0  0
   56.0200   29.8453   42.1087 H   0  0  0  0  0  0  0  0  0  0  0  0
   56.1323   29.4812   44.5741 H   0  0  0  0  0  0  0  0  0  0  0  0
   57.4388   31.0424   46.0138 H   0  0  0  0  0  0  0  0  0  0  0  0
   57.7590   35.1319   44.7692 H   0  0  0  0  0  0  0  0  0  0  0  0
   60.4449   30.4039   49.8648 H   0  0  0  0  0  0  0  0  0  0  0  0
   58.7244   29.8441   49.9216 H   0  0  0  0  0  0  0  0  0  0  0  0
   57.6811   28.9166   48.1107 H   0  0  0  0  0  0  0  0  0  0  0  0
   57.8850   27.9003   45.8353 H   0  0  0  0  0  0  0  0  0  0  0  0
   61.7110   29.6940   45.4650 H   0  0  0  0  0  0  0  0  0  0  0  0
  1  2  2  0
  2  3  1  0
  3  4  1  0
  4  5  1  0
  5  6  2  0
  6  7  1  0
  7  8  2  0
  8  9  1  0
  9 10  2  0
 10 11  1  0
 11 12  2  0
 12 13  1  0
 13 14  1  0
 14 15  2  0
 15 16  1  0
 16 17  2  0
 17 18  1  0
 18 19  2  0
 13 20  2  0
 20 21  1  0
  2 22  1  0
 22 23  1  0
 23 24  1  0
 24 25  2  0
 25 26  1  0
 26 27  2  0
 26 28  1  0
 28 29  1  0
 29 30  2  0
 10  5  1  0
 21 11  1  0
 29 23  1  0
 19 14  1  0
  3 31  1  0
  3 32  1  0
  4 33  1  0
  4 34  1  0
  6 35  1  0
  7 36  1  0
  8 37  1  0
  9 38  1  0
 12 39  1  0
 15 40  1  0
 16 41  1  0
 17 42  1  0
 18 43  1  0
 19 44  1  0
 20 45  1  0
 22 46  1  0
 22 47  1  0
 24 48  1  0
 25 49  1  0
 28 50  1  0
M  END
>  <UniqueID>  (92) 
80

>  <SMILES>  (92) 
O=C(CCc1ccccc1-c1cc(-c2ccccc2)cs1)Cn1ccc(=O)[nH]c1=O

>  <Energy>  (92) 
86.86400738545323

>  <Genealogy>  (92) 
O=C(CCc1ccccc1-c1cc(-c2ccccc2)cs1)Cn1ccc(=O)[nH]c1=O (3D coordinates assigned)
O=C(CCc1ccccc1-c1cc(-c2ccccc2)cs1)Cn1ccc(=O)[nH]c1=O (optimized conformer: 86.86400738545323 kcal/mol)

>  <smiles>  (92) 
O=C(CCc1ccccc1-c1cc(-c2ccccc2)cs1)Cn1ccc(=O)[nH]c1=O

>  <score_type>  (92) 
oracle

>  <origin>  (92) 
adg

>  <m_score__min__energy>  (92) 
-10.800000000000001

>  <m_primary>  (92) 
energy

$$$$
92:0
     RDKit          3D

 47 49  0  0  0  0  0  0  0  0999 V2000
   53.6630   25.5420   45.6100 O   0  0  0  0  0  0  0  0  0  0  0  0
   54.8670   25.5090   45.9810 C   0  0  0  0  0  0  0  0  0  0  0  0
   55.6440   26.7090   46.0040 N   0  0  0  0  0  0  0  0  0  0  0  0
   57.0230   26.7670   46.4800 C   0  0  0  0  0  0  0  0  0  0  0  0
   57.7630   27.8690   45.7730 C   0  0  0  0  0  0  0  0  0  0  0  0
   59.1670   27.8900   45.7700 C   0  0  0  0  0  0  0  0  0  0  0  0
   59.8560   28.9280   45.1370 C   0  0  0  0  0  0  0  0  0  0  0  0
   59.1510   29.9640   44.5200 C   0  0  0  0  0  0  0  0  0  0  0  0
   57.7490   29.9690   44.5360 C   0  0  0  0  0  0  0  0  0  0  0  0
   56.9790   31.0670   43.8630 C   0  0  0  0  0  0  0  0  0  0  0  0
   56.5190   32.0160   44.8760 N   0  0  0  0  0  0  0  0  0  0  0  0
   57.5080   33.4450   44.8830 S   0  0  0  0  0  0  0  0  0  0  0  0
   58.4700   33.4040   43.7270 O   0  0  0  0  0  0  0  0  0  0  0  0
   56.6310   34.6550   44.7360 O   0  0  0  0  0  0  0  0  0  0  0  0
   58.3830   33.5510   46.4090 C   0  0  0  0  0  0  0  0  0  0  0  0
   59.3280   34.5660   46.6250 C   0  0  0  0  0  0  0  0  0  0  0  0
   60.0240   34.6320   47.8360 C   0  0  0  0  0  0  0  0  0  0  0  0
   59.7880   33.6800   48.8320 C   0  0  0  0  0  0  0  0  0  0  0  0
   58.8570   32.6590   48.6150 C   0  0  0  0  0  0  0  0  0  0  0  0
   58.1570   32.5930   47.4070 C   0  0  0  0  0  0  0  0  0  0  0  0
   57.0610   28.9110   45.1500 C   0  0  0  0  0  0  0  0  0  0  0  0
   55.4860   24.2680   46.3330 N   0  0  0  0  0  0  0  0  0  0  0  0
   56.3210   23.4720   45.4780 C   0  0  0  0  0  0  0  0  0  0  0  0
   57.6520   23.1690   45.8210 C   0  0  0  0  0  0  0  0  0  0  0  0
   58.4390   22.3900   44.9690 C   0  0  0  0  0  0  0  0  0  0  0  0
   57.9150   21.9240   43.7610 C   0  0  0  0  0  0  0  0  0  0  0  0
   56.6090   22.2490   43.3960 C   0  0  0  0  0  0  0  0  0  0  0  0
   55.8110   23.0280   44.2470 C   0  0  0  0  0  0  0  0  0  0  0  0
   54.5090   23.3590   43.8790 O   0  0  0  0  0  0  0  0  0  0  0  0
   57.0272   26.9611   47.5627 H   0  0  0  0  0  0  0  0  0  0  0  0
   57.5183   25.8071   46.2723 H   0  0  0  0  0  0  0  0  0  0  0  0
   59.7274   27.0853   46.2684 H   0  0  0  0  0  0  0  0  0  0  0  0
   60.9559   28.9292   45.1246 H   0  0  0  0  0  0  0  0  0  0  0  0
   59.6970   30.7778   44.0204 H   0  0  0  0  0  0  0  0  0  0  0  0
   57.6284   31.5840   43.1412 H   0  0  0  0  0  0  0  0  0  0  0  0
   56.1145   30.6427   43.3314 H   0  0  0  0  0  0  0  0  0  0  0  0
   59.5216   35.3115   45.8396 H   0  0  0  0  0  0  0  0  0  0  0  0
   60.7579   35.4338   48.0050 H   0  0  0  0  0  0  0  0  0  0  0  0
   60.3339   33.7338   49.7855 H   0  0  0  0  0  0  0  0  0  0  0  0
   58.6754   31.9065   49.3965 H   0  0  0  0  0  0  0  0  0  0  0  0
   57.4271   31.7874   47.2391 H   0  0  0  0  0  0  0  0  0  0  0  0
   55.9611   28.8990   45.1425 H   0  0  0  0  0  0  0  0  0  0  0  0
   58.0744   23.5471   46.7637 H   0  0  0  0  0  0  0  0  0  0  0  0
   59.4734   22.1432   45.2501 H   0  0  0  0  0  0  0  0  0  0  0  0
   58.5325   21.3007   43.0976 H   0  0  0  0  0  0  0  0  0  0  0  0
   56.2031   21.8933   42.4375 H   0  0  0  0  0  0  0  0  0  0  0  0
   53.9660   24.0370   44.4010 H   0  0  0  0  0  0  0  0  0  0  0  0
  1  2  2  0
  2  3  1  0
  3  4  1  0
  4  5  1  0
  5  6  2  0
  6  7  1  0
  7  8  2  0
  8  9  1  0
  9 10  1  0
 10 11  1  0
 11 12  1  0
 12 13  2  0
 12 14  2  0
 12 15  1  0
 15 16  2  0
 16 17  1  0
 17 18  2  0
 18 19  1  0
 19 20  2  0
  9 21  2  0
  2 22  1  0
 22 23  1  0
 23 24  2  0
 24 25  1  0
 25 26  2  0
 26 27  1  0
 27 28  2  0
 28 29  1  0
 21  5  1  0
 28 23  1  0
 20 15  1  0
  4 30  1  0
  4 31  1  0
  6 32  1  0
  7 33  1  0
  8 34  1  0
 10 35  1  0
 10 36  1  0
 16 37  1  0
 17 38  1  0
 18 39  1  0
 19 40  1  0
 20 41  1  0
 21 42  1  0
 24 43  1  0
 25 44  1  0
 26 45  1  0
 27 46  1  0
 29 47  1  0
M  CHG  3   3  -1  11  -1  22  -1
M  END
>  <UniqueID>  (93) 
81

>  <SMILES>  (93) 
O=C([N-]Cc1cccc(C[N-]S(=O)(=O)c2ccccc2)c1)[N-]c1ccccc1O

>  <Energy>  (93) 
46.99136781159135

>  <Genealogy>  (93) 
O=C([N-]Cc1cccc(C[N-]S(=O)(=O)c2ccccc2)c1)[N-]c1ccccc1O (protonated)
O=C([N-]Cc1cccc(C[N-]S(=O)(=O)c2ccccc2)c1)[N-]c1ccccc1O (3D coordinates assigned)
O=C([N-]Cc1cccc(C[N-]S(=O)(=O)c2ccccc2)c1)[N-]c1ccccc1O (optimized conformer: 46.99136781159135 kcal/mol)

>  <smiles>  (93) 
O=C(NCc1cccc(CNS(=O)(=O)c2ccccc2)c1)Nc1ccccc1O

>  <score_type>  (93) 
oracle

>  <origin>  (93) 
adg

>  <m_score__min__energy>  (93) 
-14.390000000000001

>  <m_primary>  (93) 
energy

$$$$
93:0
     RDKit          3D

 47 49  0  0  1  0  0  0  0  0999 V2000
   59.3710   33.0560   49.8130 C   0  0  0  0  0  0  0  0  0  0  0  0
   58.4010   32.8150   48.8090 O   0  0  0  0  0  0  0  0  0  0  0  0
   58.5760   33.4610   47.5920 C   0  0  0  0  0  0  0  0  0  0  0  0
   59.3980   34.5890   47.5980 C   0  0  0  0  0  0  0  0  0  0  0  0
   59.6340   35.3070   46.4220 C   0  0  0  0  0  0  0  0  0  0  0  0
   59.0270   34.8410   45.3180 N   0  0  0  0  0  0  0  0  0  0  0  0
   58.2270   33.7380   45.3350 C   0  0  0  0  0  0  0  0  0  0  0  0
   57.7080   33.3990   44.2170 N   0  0  0  0  0  0  0  0  0  0  0  0
   57.5810   32.0450   43.8110 C   0  0  0  0  0  0  0  0  0  0  0  0
   57.9720   31.6060   42.7010 O   0  0  0  0  0  0  0  0  0  0  0  0
   56.9720   31.1400   44.7300 N   0  0  0  0  0  0  0  0  0  0  0  0
   56.7590   29.4540   44.3510 S   0  0  0  0  0  0  0  0  0  0  0  0
   56.6460   29.3180   42.8170 O   0  0  0  0  0  0  0  0  0  0  0  0
   55.5170   28.9120   44.8950 O   0  0  0  0  0  0  0  0  0  0  0  0
   58.2630   28.6460   44.7690 C   0  0  0  0  0  0  0  0  0  0  0  0
   59.0140   29.1620   45.9020 C   0  0  0  0  0  0  0  0  0  0  0  0
   59.8730   30.2450   45.6430 C   0  0  0  0  0  0  0  0  0  0  0  0
   60.6630   30.8200   46.5910 C   0  0  0  0  0  0  0  0  0  0  0  0
   60.6280   30.3270   47.8720 C   0  0  0  0  0  0  0  0  0  0  0  0
   59.8050   29.2830   48.1450 C   0  0  0  0  0  0  0  0  0  0  0  0
   58.9790   28.6690   47.1880 C   0  0  0  0  0  0  0  0  0  0  0  0
   58.1380   27.5780   47.6450 C   0  0  0  0  0  0  0  0  0  0  0  0
   58.2990   26.0420   46.7260 S   0  0  0  0  0  0  0  0  0  0  0  0
   56.7110   25.3200   46.3410 C   0  0  0  0  0  0  0  0  0  0  0  0
   56.3660   24.0780   46.7890 N   0  0  0  0  0  0  0  0  0  0  0  0
   55.1290   23.8250   46.3360 C   0  0  0  0  0  0  0  0  0  0  0  0
   54.7310   24.9170   45.6150 C   0  0  0  0  0  0  0  0  0  0  0  0
   55.6960   25.8260   45.6190 N   0  0  0  0  0  0  0  0  0  0  0  0
   57.9880   33.0350   46.4540 N   0  0  0  0  0  0  0  0  0  0  0  0
   58.9088   32.9412   50.8045 H   0  0  0  0  0  0  0  0  0  0  0  0
   60.1953   32.3353   49.7070 H   0  0  0  0  0  0  0  0  0  0  0  0
   59.7621   34.0786   49.7070 H   0  0  0  0  0  0  0  0  0  0  0  0
   59.8652   34.9166   48.5384 H   0  0  0  0  0  0  0  0  0  0  0  0
   60.2774   36.1990   46.4019 H   0  0  0  0  0  0  0  0  0  0  0  0
   59.1820   35.3610   44.4060 H   0  0  0  0  0  0  0  0  0  0  0  0
   56.6490   31.5350   45.6640 H   0  0  0  0  0  0  0  0  0  0  0  0
   58.0222   27.5947   44.9855 H   0  0  0  0  0  0  0  0  0  0  0  0
   58.9187   28.8118   43.9015 H   0  0  0  0  0  0  0  0  0  0  0  0
   59.9084   30.6488   44.6204 H   0  0  0  0  0  0  0  0  0  0  0  0
   61.3184   31.6655   46.3350 H   0  0  0  0  0  0  0  0  0  0  0  0
   61.2542   30.7692   48.6609 H   0  0  0  0  0  0  0  0  0  0  0  0
   59.7832   28.8952   49.1741 H   0  0  0  0  0  0  0  0  0  0  0  0
   58.3902   27.3726   48.6958 H   0  0  0  0  0  0  0  0  0  0  0  0
   57.1008   27.9125   47.4960 H   0  0  0  0  0  0  0  0  0  0  0  0
   54.5440   22.9102   46.5116 H   0  0  0  0  0  0  0  0  0  0  0  0
   53.7599   25.0244   45.1097 H   0  0  0  0  0  0  0  0  0  0  0  0
   55.7440   26.7670   45.1780 H   0  0  0  0  0  0  0  0  0  0  0  0
  1  2  1  0
  2  3  1  0
  3  4  1  0
  4  5  2  0
  5  6  1  0
  6  7  1  0
  7  8  2  0
  8  9  1  0
  9 10  2  0
  9 11  1  0
 11 12  1  0
 12 13  2  0
 12 14  2  0
 12 15  1  0
 15 16  1  0
 16 17  2  0
 17 18  1  0
 18 19  2  0
 19 20  1  0
 20 21  2  0
 21 22  1  0
 22 23  1  0
 23 24  1  0
 24 25  2  0
 25 26  1  0
 26 27  2  0
 27 28  1  0
  7 29  1  0
 29  3  2  0
 21 16  1  0
 28 24  1  0
  1 30  1  0
  1 31  1  0
  1 32  1  0
  4 33  1  0
  5 34  1  0
  6 35  1  0
 11 36  1  0
 15 37  1  0
 15 38  1  0
 17 39  1  0
 18 40  1  0
 19 41  1  0
 20 42  1  0
 22 43  1  0
 22 44  1  0
 26 45  1  0
 27 46  1  0
 28 47  1  0
M  END
>  <smiles>  (94) 
COc1cc[nH]c(=NC(=O)NS(=O)(=O)Cc2ccccc2CSc2ncc[nH]2)n1

>  <score_type>  (94) 
oracle

>  <origin>  (94) 
adg

>  <m_score__min__energy>  (94) 
-9.0399999999999991

>  <m_primary>  (94) 
energy

$$$$
94:0
     RDKit          3D

 36 37  0  0  0  0  0  0  0  0999 V2000
   55.0440   26.4150   45.9790 N   0  0  0  0  0  0  0  0  0  0  0  0
   56.6290   25.7350   46.0840 S   0  0  0  0  0  0  0  0  0  0  0  0
   56.6740   24.7380   47.2090 O   0  0  0  0  0  0  0  0  0  0  0  0
   56.9570   25.0290   44.8000 O   0  0  0  0  0  0  0  0  0  0  0  0
   57.8000   27.0180   46.3750 C   0  0  0  0  0  0  0  0  0  0  0  0
   58.7450   26.8890   47.4000 C   0  0  0  0  0  0  0  0  0  0  0  0
   59.6620   27.9140   47.6410 C   0  0  0  0  0  0  0  0  0  0  0  0
   59.6460   29.0690   46.8540 C   0  0  0  0  0  0  0  0  0  0  0  0
   58.7240   29.2020   45.8050 C   0  0  0  0  0  0  0  0  0  0  0  0
   58.6990   30.4230   45.0460 N   0  0  0  0  0  0  0  0  0  0  0  0
   57.5130   31.1880   44.7750 C   0  0  0  0  0  0  0  0  0  0  0  0
   56.3830   30.6300   44.7430 O   0  0  0  0  0  0  0  0  0  0  0  0
   57.6150   32.6690   44.5480 C   0  0  0  0  0  0  0  0  0  0  0  0
   57.6500   33.4420   45.8740 C   0  0  0  0  0  0  0  0  0  0  0  0
   58.7530   32.9530   46.7800 C   0  0  0  0  0  0  0  0  0  0  0  0
   60.0890   33.3000   46.5220 C   0  0  0  0  0  0  0  0  0  0  0  0
   61.1030   32.9280   47.4110 C   0  0  0  0  0  0  0  0  0  0  0  0
   62.9060   33.4540   47.0480 Br  0  0  0  0  0  0  0  0  0  0  0  0
   60.7890   32.1930   48.5620 C   0  0  0  0  0  0  0  0  0  0  0  0
   61.7960   31.8230   49.4480 O   0  0  0  0  0  0  0  0  0  0  0  0
   59.4590   31.8350   48.8210 C   0  0  0  0  0  0  0  0  0  0  0  0
   59.0040   30.8420   50.3920 Br  0  0  0  0  0  0  0  0  0  0  0  0
   58.4460   32.2170   47.9350 C   0  0  0  0  0  0  0  0  0  0  0  0
   57.7950   28.1700   45.5770 C   0  0  0  0  0  0  0  0  0  0  0  0
   55.1530   27.4530   46.0230 H   0  0  0  0  0  0  0  0  0  0  0  0
   58.7651   25.9783   48.0167 H   0  0  0  0  0  0  0  0  0  0  0  0
   60.3984   27.8123   48.4518 H   0  0  0  0  0  0  0  0  0  0  0  0
   60.3613   29.8793   47.0586 H   0  0  0  0  0  0  0  0  0  0  0  0
   59.6080   30.8020   44.6960 H   0  0  0  0  0  0  0  0  0  0  0  0
   58.5366   32.8816   43.9863 H   0  0  0  0  0  0  0  0  0  0  0  0
   56.7280   32.9929   43.9838 H   0  0  0  0  0  0  0  0  0  0  0  0
   57.8120   34.5087   45.6599 H   0  0  0  0  0  0  0  0  0  0  0  0
   56.6904   33.2826   46.3876 H   0  0  0  0  0  0  0  0  0  0  0  0
   60.3400   33.8684   45.6143 H   0  0  0  0  0  0  0  0  0  0  0  0
   57.4026   31.9389   48.1448 H   0  0  0  0  0  0  0  0  0  0  0  0
   57.0587   28.2683   44.7657 H   0  0  0  0  0  0  0  0  0  0  0  0
  1  2  1  0
  2  3  2  0
  2  4  2  0
  2  5  1  0
  5  6  2  0
  6  7  1  0
  7  8  2  0
  8  9  1  0
  9 10  1  0
 10 11  1  0
 11 12  2  0
 11 13  1  0
 13 14  1  0
 14 15  1  0
 15 16  2  0
 16 17  1  0
 17 18  1  0
 17 19  2  0
 19 20  1  0
 19 21  1  0
 21 22  1  0
 21 23  2  0
  9 24  2  0
 24  5  1  0
 23 15  1  0
  1 25  1  0
  6 26  1  0
  7 27  1  0
  8 28  1  0
 10 29  1  0
 13 30  1  0
 13 31  1  0
 14 32  1  0
 14 33  1  0
 16 34  1  0
 23 35  1  0
 24 36  1  0
M  CHG  2   1  -1  20  -1
M  END
>  <UniqueID>  (95) 
82

>  <SMILES>  (95) 
[NH-]S(=O)(=O)c1cccc(NC(=O)CCc2cc(Br)c([O-])c(Br)c2)c1

>  <Energy>  (95) 
33.35173176441544

>  <Genealogy>  (95) 
[NH-]S(=O)(=O)c1cccc(NC(=O)CCc2cc(Br)c([O-])c(Br)c2)c1 (protonated)
[NH-]S(=O)(=O)c1cccc(NC(=O)CCc2cc(Br)c([O-])c(Br)c2)c1 (3D coordinates assigned)
[NH-]S(=O)(=O)c1cccc(NC(=O)CCc2cc(Br)c([O-])c(Br)c2)c1 (optimized conformer: 33.35173176441544 kcal/mol)

>  <smiles>  (95) 
NS(=O)(=O)c1cccc(NC(=O)CCc2cc(Br)c(O)c(Br)c2)c1

>  <score_type>  (95) 
oracle

>  <origin>  (95) 
adg

>  <m_score__min__energy>  (95) 
-13.52

>  <m_primary>  (95) 
energy

$$$$
95:0
     RDKit          3D

 38 39  0  0  0  0  0  0  0  0999 V2000
   56.9900   34.0900   45.0060 C   0  0  0  0  0  0  0  0  0  0  0  0
   57.8190   33.0120   45.5290 N   0  0  0  0  0  0  0  0  0  0  0  0
   58.5440   33.1500   46.7610 C   0  0  0  0  0  0  0  0  0  0  0  0
   58.3720   34.1810   47.4700 O   0  0  0  0  0  0  0  0  0  0  0  0
   59.4640   32.0900   47.2320 C   0  0  0  0  0  0  0  0  0  0  0  0
   60.8480   32.1640   47.0070 C   0  0  0  0  0  0  0  0  0  0  0  0
   61.6670   31.1630   47.4280 N   0  0  0  0  0  0  0  0  0  0  0  0
   61.1880   30.0630   48.0620 C   0  0  0  0  0  0  0  0  0  0  0  0
   59.8160   29.9350   48.3130 C   0  0  0  0  0  0  0  0  0  0  0  0
   59.2650   28.6810   48.9400 C   0  0  0  0  0  0  0  0  0  0  0  0
   59.6880   27.4930   48.1990 N   0  0  0  0  0  0  0  0  0  0  0  0
   59.1960   27.0870   46.9130 C   0  0  0  0  0  0  0  0  0  0  0  0
   59.3740   25.8970   46.5400 O   0  0  0  0  0  0  0  0  0  0  0  0
   58.5440   28.0350   45.9930 C   0  0  0  0  0  0  0  0  0  0  0  0
   59.3160   28.9810   45.3070 C   0  0  0  0  0  0  0  0  0  0  0  0
   58.7010   29.9390   44.4970 C   0  0  0  0  0  0  0  0  0  0  0  0
   57.3000   29.9520   44.3500 C   0  0  0  0  0  0  0  0  0  0  0  0
   56.6390   30.9100   43.5660 O   0  0  0  0  0  0  0  0  0  0  0  0
   57.0580   31.3120   42.2650 C   0  0  0  0  0  0  0  0  0  0  0  0
   56.5350   28.9810   45.0110 C   0  0  0  0  0  0  0  0  0  0  0  0
   55.1520   28.9710   44.8690 O   0  0  0  0  0  0  0  0  0  0  0  0
   57.1530   28.0250   45.8240 C   0  0  0  0  0  0  0  0  0  0  0  0
   58.9610   30.9740   47.9200 C   0  0  0  0  0  0  0  0  0  0  0  0
   56.5544   34.6564   45.8424 H   0  0  0  0  0  0  0  0  0  0  0  0
   57.6068   34.7613   44.3904 H   0  0  0  0  0  0  0  0  0  0  0  0
   56.1829   33.6662   44.3904 H   0  0  0  0  0  0  0  0  0  0  0  0
   57.8300   32.1050   45.0130 H   0  0  0  0  0  0  0  0  0  0  0  0
   61.2721   33.0360   46.4876 H   0  0  0  0  0  0  0  0  0  0  0  0
   61.8797   29.2690   48.3800 H   0  0  0  0  0  0  0  0  0  0  0  0
   59.6288   28.6072   49.9755 H   0  0  0  0  0  0  0  0  0  0  0  0
   58.1664   28.7333   48.9194 H   0  0  0  0  0  0  0  0  0  0  0  0
   60.4114   28.9697   45.4064 H   0  0  0  0  0  0  0  0  0  0  0  0
   59.3136   30.6865   43.9717 H   0  0  0  0  0  0  0  0  0  0  0  0
   57.8492   32.0711   42.3529 H   0  0  0  0  0  0  0  0  0  0  0  0
   57.4459   30.4395   41.7188 H   0  0  0  0  0  0  0  0  0  0  0  0
   56.2023   31.7357   41.7188 H   0  0  0  0  0  0  0  0  0  0  0  0
   56.5447   27.2625   46.3326 H   0  0  0  0  0  0  0  0  0  0  0  0
   57.8875   30.9146   48.1524 H   0  0  0  0  0  0  0  0  0  0  0  0
  1  2  1  0
  2  3  1  0
  3  4  2  0
  3  5  1  0
  5  6  2  0
  6  7  1  0
  7  8  2  0
  8  9  1  0
  9 10  1  0
 10 11  1  0
 11 12  1  0
 12 13  2  0
 12 14  1  0
 14 15  2  0
 15 16  1  0
 16 17  2  0
 17 18  1  0
 18 19  1  0
 17 20  1  0
 20 21  1  0
 20 22  2  0
  9 23  2  0
 23  5  1  0
 22 14  1  0
  1 24  1  0
  1 25  1  0
  1 26  1  0
  2 27  1  0
  6 28  1  0
  8 29  1  0
 10 30  1  0
 10 31  1  0
 15 32  1  0
 16 33  1  0
 19 34  1  0
 19 35  1  0
 19 36  1  0
 22 37  1  0
 23 38  1  0
M  CHG  2  11  -1  21  -1
M  END
>  <UniqueID>  (96) 
83

>  <SMILES>  (96) 
CNC(=O)c1cncc(C[N-]C(=O)c2ccc(OC)c([O-])c2)c1

>  <Energy>  (96) 
38.60295277956206

>  <Genealogy>  (96) 
CNC(=O)c1cncc(C[N-]C(=O)c2ccc(OC)c([O-])c2)c1 (protonated)
CNC(=O)c1cncc(C[N-]C(=O)c2ccc(OC)c([O-])c2)c1 (3D coordinates assigned)
CNC(=O)c1cncc(C[N-]C(=O)c2ccc(OC)c([O-])c2)c1 (optimized conformer: 38.60295277956206 kcal/mol)

>  <smiles>  (96) 
CNC(=O)c1cncc(CNC(=O)c2ccc(OC)c(O)c2)c1

>  <score_type>  (96) 
oracle

>  <origin>  (96) 
adg

>  <m_score__min__energy>  (96) 
-11.619999999999999

>  <m_primary>  (96) 
energy

$$$$
