0:0
     RDKit          3D

 64 65  0  0  0  0  0  0  0  0999 V2000
   63.0600   34.3350   50.5010 C   0  0  0  0  0  0  0  0  0  0  0  0
   62.9320   32.9620   49.8520 C   0  0  0  0  0  0  0  0  0  0  0  0
   61.7630   32.8990   48.9580 N   0  0  0  0  0  0  0  0  0  0  0  0
   60.7420   33.9550   49.1000 C   0  0  0  0  0  0  0  0  0  0  0  0
   59.7150   33.9660   47.9720 C   0  0  0  0  0  0  0  0  0  0  0  0
   58.5370   33.2860   48.0210 C   0  0  0  0  0  0  0  0  0  0  0  0
   58.1700   32.3420   49.1370 C   0  0  0  0  0  0  0  0  0  0  0  0
   58.5630   31.0230   48.7720 O   0  0  0  0  0  0  0  0  0  0  0  0
   58.8740   30.0360   49.7070 C   0  0  0  0  0  0  0  0  0  0  0  0
   59.9530   29.3890   49.6210 O   0  0  0  0  0  0  0  0  0  0  0  0
   57.9410   29.7650   50.7590 N   0  0  0  0  0  0  0  0  0  0  0  0
   57.7730   30.5390   51.9900 C   0  0  0  0  0  0  0  0  0  0  0  0
   56.4190   31.2540   52.0180 C   0  0  0  0  0  0  0  0  0  0  0  0
   58.9380   31.5160   52.1860 C   0  0  0  0  0  0  0  0  0  0  0  0
   57.6310   33.3390   46.8090 C   0  0  0  0  0  0  0  0  0  0  0  0
   58.4670   33.1120   45.5350 C   0  0  1  0  0  0  0  0  0  0  0  0
   57.6590   33.1920   44.3870 O   0  0  0  0  0  0  0  0  0  0  0  0
   59.6760   34.0840   45.4340 C   0  0  0  0  0  0  0  0  0  0  0  0
   59.9890   34.8270   46.7510 C   0  0  0  0  0  0  0  0  0  0  0  0
   61.8570   32.1080   47.7550 C   0  0  0  0  0  0  0  0  0  0  0  0
   62.7850   32.3240   46.9280 O   0  0  0  0  0  0  0  0  0  0  0  0
   60.9080   31.0600   47.4970 N   0  0  0  0  0  0  0  0  0  0  0  0
   61.0410   30.1480   46.3630 C   0  0  0  0  0  0  0  0  0  0  0  0
   59.7740   29.3560   46.1840 C   0  0  0  0  0  0  0  0  0  0  0  0
   59.6120   28.1150   46.8200 C   0  0  0  0  0  0  0  0  0  0  0  0
   58.4260   27.3950   46.6630 C   0  0  0  0  0  0  0  0  0  0  0  0
   57.3890   27.9090   45.8810 C   0  0  0  0  0  0  0  0  0  0  0  0
   57.5210   29.1620   45.2570 C   0  0  0  0  0  0  0  0  0  0  0  0
   56.4060   29.6940   44.3910 C   0  0  0  0  0  0  0  0  0  0  0  0
   55.2050   29.1440   44.8040 F   0  0  0  0  0  0  0  0  0  0  0  0
   56.3330   31.0730   44.4970 F   0  0  0  0  0  0  0  0  0  0  0  0
   56.6150   29.3730   43.0600 F   0  0  0  0  0  0  0  0  0  0  0  0
   58.7300   29.8680   45.3950 C   0  0  0  0  0  0  0  0  0  0  0  0
   63.0498   34.2256   51.5955 H   0  0  0  0  0  0  0  0  0  0  0  0
   64.0056   34.8018   50.1880 H   0  0  0  0  0  0  0  0  0  0  0  0
   62.2170   34.9686   50.1880 H   0  0  0  0  0  0  0  0  0  0  0  0
   63.8411   32.7556   49.2681 H   0  0  0  0  0  0  0  0  0  0  0  0
   62.8015   32.2132   50.6471 H   0  0  0  0  0  0  0  0  0  0  0  0
   60.2121   33.8009   50.0515 H   0  0  0  0  0  0  0  0  0  0  0  0
   61.2688   34.9201   49.0666 H   0  0  0  0  0  0  0  0  0  0  0  0
   58.6898   32.6405   50.0593 H   0  0  0  0  0  0  0  0  0  0  0  0
   57.0842   32.3733   49.3103 H   0  0  0  0  0  0  0  0  0  0  0  0
   57.7845   29.8374   52.8372 H   0  0  0  0  0  0  0  0  0  0  0  0
   56.1116   31.4163   53.0616 H   0  0  0  0  0  0  0  0  0  0  0  0
   56.5058   32.2238   51.5062 H   0  0  0  0  0  0  0  0  0  0  0  0
   55.6670   30.6354   51.5062 H   0  0  0  0  0  0  0  0  0  0  0  0
   59.1150   31.6645   53.2615 H   0  0  0  0  0  0  0  0  0  0  0  0
   59.8446   31.1041   51.7186 H   0  0  0  0  0  0  0  0  0  0  0  0
   58.6903   32.4805   51.7186 H   0  0  0  0  0  0  0  0  0  0  0  0
   56.8642   32.5545   46.8894 H   0  0  0  0  0  0  0  0  0  0  0  0
   57.1430   34.3235   46.7577 H   0  0  0  0  0  0  0  0  0  0  0  0
   58.8830   32.0959   45.6017 H   0  0  0  0  0  0  0  0  0  0  0  0
   58.0560   32.5970   43.6990 H   0  0  0  0  0  0  0  0  0  0  0  0
   60.5643   33.5039   45.1434 H   0  0  0  0  0  0  0  0  0  0  0  0
   59.4111   34.8490   44.6893 H   0  0  0  0  0  0  0  0  0  0  0  0
   61.0504   35.1158   46.7516 H   0  0  0  0  0  0  0  0  0  0  0  0
   59.3350   35.7098   46.8055 H   0  0  0  0  0  0  0  0  0  0  0  0
   60.0870   30.9410   48.1270 H   0  0  0  0  0  0  0  0  0  0  0  0
   61.2387   30.7291   45.4502 H   0  0  0  0  0  0  0  0  0  0  0  0
   61.8741   29.4556   46.5541 H   0  0  0  0  0  0  0  0  0  0  0  0
   60.4217   27.7086   47.4438 H   0  0  0  0  0  0  0  0  0  0  0  0
   58.3079   26.4193   47.1570 H   0  0  0  0  0  0  0  0  0  0  0  0
   56.4628   27.3296   45.7525 H   0  0  0  0  0  0  0  0  0  0  0  0
   58.8595   30.8312   44.8797 H   0  0  0  0  0  0  0  0  0  0  0  0
  1  2  1  0
  2  3  1  0
  3  4  1  0
  4  5  1  0
  5  6  2  0
  6  7  1  0
  7  8  1  0
  8  9  1  0
  9 10  2  0
  9 11  1  0
 11 12  1  0
 12 13  1  0
 12 14  1  0
  6 15  1  0
 15 16  1  0
 16 17  1  0
 16 18  1  0
 18 19  1  0
  3 20  1  0
 20 21  2  0
 20 22  1  0
 22 23  1  0
 23 24  1  0
 24 25  2  0
 25 26  1  0
 26 27  2  0
 27 28  1  0
 28 29  1  0
 29 30  1  0
 29 31  1  0
 29 32  1  0
 28 33  2  0
 19  5  1  0
 33 24  1  0
  1 34  1  0
  1 35  1  0
  1 36  1  0
  2 37  1  0
  2 38  1  0
  4 39  1  0
  4 40  1  0
  7 41  1  0
  7 42  1  0
 12 43  1  0
 13 44  1  0
 13 45  1  0
 13 46  1  0
 14 47  1  0
 14 48  1  0
 14 49  1  0
 15 50  1  0
 15 51  1  0
 16 52  1  1
 17 53  1  0
 18 54  1  0
 18 55  1  0
 19 56  1  0
 19 57  1  0
 22 58  1  0
 23 59  1  0
 23 60  1  0
 25 61  1  0
 26 62  1  0
 27 63  1  0
 33 64  1  0
M  CHG  1  11  -1
M  END
>  <UniqueID>  (1) 
1

>  <SMILES>  (1) 
CCN(CC1=C(COC(=O)[N-]C(C)C)C[C@@H](O)CC1)C(=O)NCc1cccc(C(F)(F)F)c1

>  <Energy>  (1) 
52.06125220638426

>  <Genealogy>  (1) 
CCN(CC1=C(COC(=O)[N-]C(C)C)CC(O)CC1)C(=O)NCc1cccc(C(F)(F)F)c1 (protonated)
CCN(CC1=C(COC(=O)[N-]C(C)C)C[C@@H](O)CC1)C(=O)NCc1cccc(C(F)(F)F)c1 (chirality)
CCN(CC1=C(COC(=O)[N-]C(C)C)C[C@@H](O)CC1)C(=O)NCc1cccc(C(F)(F)F)c1 (3D coordinates assigned)
CCN(CC1=C(COC(=O)[N-]C(C)C)C[C@@H](O)CC1)C(=O)NCc1cccc(C(F)(F)F)c1 (nonaromatic ring conformer: 52.06125220638426 kcal/mol)

>  <smiles>  (1) 
CCN(CC1=C(COC(=O)NC(C)C)CC(O)CC1)C(=O)NCc1cccc(C(F)(F)F)c1

>  <score_type>  (1) 
oracle

>  <origin>  (1) 
adg

>  <m_score__min__energy>  (1) 
-10.210000000000001

>  <m_primary>  (1) 
energy

$$$$
1:0
     RDKit          3D

 40 42  0  0  0  0  0  0  0  0999 V2000
   56.6390   30.1530   42.8660 C   0  0  0  0  0  0  0  0  0  0  0  0
   57.2350   30.5750   43.9870 C   0  0  0  0  0  0  0  0  0  0  0  0
   57.1050   31.8470   44.4200 N   0  0  0  0  0  0  0  0  0  0  0  0
   57.7060   31.9320   45.6190 C   0  0  0  0  0  0  0  0  0  0  0  0
   57.7780   33.2030   46.4070 C   0  0  0  0  0  0  0  0  0  0  0  0
   58.2290   30.6990   45.9800 C   0  0  0  0  0  0  0  0  0  0  0  0
   58.9960   30.4050   47.2070 C   0  0  0  0  0  0  0  0  0  0  0  0
   58.4910   29.6310   48.0650 O   0  0  0  0  0  0  0  0  0  0  0  0
   60.2910   30.9920   47.4430 N   0  0  0  0  0  0  0  0  0  0  0  0
   61.3010   30.2630   48.2190 C   0  0  0  0  0  0  0  0  0  0  0  0
   62.1660   31.2510   49.0070 C   0  0  0  0  0  0  0  0  0  0  0  0
   62.6810   32.2590   48.1570 O   0  0  0  0  0  0  0  0  0  0  0  0
   61.6180   33.0430   47.6490 C   0  0  0  0  0  0  0  0  0  0  0  0
   60.7130   32.2080   46.7400 C   0  0  0  0  0  0  0  0  0  0  0  0
   57.9700   29.8250   44.9240 C   0  0  0  0  0  0  0  0  0  0  0  0
   58.3630   28.5330   44.8950 C   0  0  0  0  0  0  0  0  0  0  0  0
   57.6210   27.3970   45.4740 C   0  0  0  0  0  0  0  0  0  0  0  0
   56.2280   27.4620   45.6180 C   0  0  0  0  0  0  0  0  0  0  0  0
   55.5210   28.5710   45.1700 O   0  0  0  0  0  0  0  0  0  0  0  0
   55.5580   26.4300   46.1920 N   0  0  0  0  0  0  0  0  0  0  0  0
   56.2160   25.3340   46.6500 C   0  0  0  0  0  0  0  0  0  0  0  0
   55.5720   24.3880   47.1740 O   0  0  0  0  0  0  0  0  0  0  0  0
   57.5670   25.2590   46.5460 N   0  0  0  0  0  0  0  0  0  0  0  0
   58.2840   26.2650   45.9800 C   0  0  0  0  0  0  0  0  0  0  0  0
   59.5390   26.1720   45.9210 O   0  0  0  0  0  0  0  0  0  0  0  0
   56.7621   29.1107   42.5365 H   0  0  0  0  0  0  0  0  0  0  0  0
   56.0259   30.8483   42.2738 H   0  0  0  0  0  0  0  0  0  0  0  0
   56.6050   32.6240   43.9310 H   0  0  0  0  0  0  0  0  0  0  0  0
   57.7648   32.9693   47.4818 H   0  0  0  0  0  0  0  0  0  0  0  0
   58.7078   33.7360   46.1591 H   0  0  0  0  0  0  0  0  0  0  0  0
   56.9144   33.8376   46.1591 H   0  0  0  0  0  0  0  0  0  0  0  0
   60.7992   29.5787   48.9190 H   0  0  0  0  0  0  0  0  0  0  0  0
   61.9407   29.6892   47.5323 H   0  0  0  0  0  0  0  0  0  0  0  0
   61.5540   31.7194   49.7919 H   0  0  0  0  0  0  0  0  0  0  0  0
   63.0086   30.7028   49.4537 H   0  0  0  0  0  0  0  0  0  0  0  0
   61.0243   33.4332   48.4888 H   0  0  0  0  0  0  0  0  0  0  0  0
   62.0404   33.8713   47.0612 H   0  0  0  0  0  0  0  0  0  0  0  0
   59.8261   32.7980   46.4658 H   0  0  0  0  0  0  0  0  0  0  0  0
   61.2673   31.9293   45.8317 H   0  0  0  0  0  0  0  0  0  0  0  0
   59.3179   28.3087   44.3971 H   0  0  0  0  0  0  0  0  0  0  0  0
  1  2  2  0
  2  3  1  0
  3  4  1  0
  4  5  1  0
  4  6  2  0
  6  7  1  0
  7  8  2  0
  7  9  1  0
  9 10  1  0
 10 11  1  0
 11 12  1  0
 12 13  1  0
 13 14  1  0
  6 15  1  0
 15 16  2  3
 16 17  1  0
 17 18  2  0
 18 19  1  0
 18 20  1  0
 20 21  1  0
 21 22  2  0
 21 23  1  0
 23 24  1  0
 24 25  2  0
 15  2  1  0
 24 17  1  0
 14  9  1  0
  1 26  1  0
  1 27  1  0
  3 28  1  0
  5 29  1  0
  5 30  1  0
  5 31  1  0
 10 32  1  0
 10 33  1  0
 11 34  1  0
 11 35  1  0
 13 36  1  0
 13 37  1  0
 14 38  1  0
 14 39  1  0
 16 40  1  0
M  CHG  3  19  -1  20  -1  23  -1
M  END
>  <UniqueID>  (2) 
2

>  <SMILES>  (2) 
C=c1[nH]c(C)c(C(=O)N2CCOCC2)c1=Cc1c([O-])[n-]c(=O)[n-]c1=O

>  <Energy>  (2) 
90.53116175588235

>  <Genealogy>  (2) 
C=c1[nH]c(C)c(C(=O)N2CCOCC2)c1=Cc1c([O-])[n-]c(=O)[n-]c1=O (protonated)
C=c1[nH]c(C)c(C(=O)N2CCOCC2)c1=Cc1c([O-])[n-]c(=O)[n-]c1=O (3D coordinates assigned)
C=c1[nH]c(C)c(C(=O)N2CCOCC2)c1=Cc1c([O-])[n-]c(=O)[n-]c1=O (nonaromatic ring conformer: 90.53116175588235 kcal/mol)

>  <smiles>  (2) 
C=c1[nH]c(C)c(C(=O)N2CCOCC2)c1=Cc1c(O)[nH]c(=O)[nH]c1=O

>  <score_type>  (2) 
oracle

>  <origin>  (2) 
adg

>  <m_score__min__energy>  (2) 
-14.789999999999999

>  <m_primary>  (2) 
energy

$$$$
2:0
     RDKit          3D

 37 39  0  0  0  0  0  0  0  0999 V2000
   57.9680   28.7010   48.4220 H   0  0  0  0  0  0  0  0  0  0  0  0
   58.2730   29.6620   48.5200 O   0  0  0  0  0  0  0  0  0  0  0  0
   58.9360   30.3290   47.4930 C   0  0  0  0  0  0  0  0  0  0  0  0
   60.1770   31.0490   47.8560 C   0  0  0  0  0  0  0  0  0  0  0  0
   61.3680   30.7940   47.1570 C   0  0  0  0  0  0  0  0  0  0  0  0
   61.3757   30.0640   46.3342 H   0  0  0  0  0  0  0  0  0  0  0  0
   62.5430   31.4650   47.5040 C   0  0  0  0  0  0  0  0  0  0  0  0
   63.4786   31.2464   46.9684 H   0  0  0  0  0  0  0  0  0  0  0  0
   62.5320   32.4150   48.5320 C   0  0  0  0  0  0  0  0  0  0  0  0
   64.1420   33.3170   49.0170 Br  0  0  0  0  0  0  0  0  0  0  0  0
   61.3400   32.7020   49.2030 C   0  0  0  0  0  0  0  0  0  0  0  0
   61.3282   33.4574   50.0025 H   0  0  0  0  0  0  0  0  0  0  0  0
   60.1630   32.0310   48.8600 C   0  0  0  0  0  0  0  0  0  0  0  0
   59.2231   32.2726   49.3778 H   0  0  0  0  0  0  0  0  0  0  0  0
   58.4480   30.2960   46.2200 C   0  0  0  0  0  0  0  0  0  0  0  0
   58.4190   31.3700   45.3020 C   0  0  0  0  0  0  0  0  0  0  0  0
   58.7950   32.6470   45.4760 C   0  0  0  0  0  0  0  0  0  0  0  0
   59.2493   32.9619   46.4270 H   0  0  0  0  0  0  0  0  0  0  0  0
   58.6488   33.3784   44.6675 H   0  0  0  0  0  0  0  0  0  0  0  0
   57.8390   30.8830   44.1390 C   0  0  0  0  0  0  0  0  0  0  0  0
   57.5860   31.6050   42.9170 C   0  0  0  0  0  0  0  0  0  0  0  0
   57.3840   32.1840   41.9350 N   0  0  0  0  0  0  0  0  0  0  0  0
   57.5420   29.5600   44.3680 C   0  0  0  0  0  0  0  0  0  0  0  0
   56.9780   28.6850   43.4410 O   0  0  0  0  0  0  0  0  0  0  0  0
   56.4750   27.8560   43.7360 H   0  0  0  0  0  0  0  0  0  0  0  0
   57.9030   29.1960   45.6140 N   0  0  0  0  0  0  0  0  0  0  0  0
   57.9050   27.8250   46.0500 C   0  0  0  0  0  0  0  0  0  0  0  0
   59.0900   27.2480   46.5320 C   0  0  0  0  0  0  0  0  0  0  0  0
   60.0100   27.8485   46.5865 H   0  0  0  0  0  0  0  0  0  0  0  0
   59.1040   25.9120   46.9430 C   0  0  0  0  0  0  0  0  0  0  0  0
   60.0388   25.4584   47.3041 H   0  0  0  0  0  0  0  0  0  0  0  0
   57.9330   25.1520   46.8960 C   0  0  0  0  0  0  0  0  0  0  0  0
   57.9493   24.0977   47.2094 H   0  0  0  0  0  0  0  0  0  0  0  0
   56.7400   25.7300   46.4510 C   0  0  0  0  0  0  0  0  0  0  0  0
   55.8163   25.1332   46.4255 H   0  0  0  0  0  0  0  0  0  0  0  0
   56.7200   27.0670   46.0380 C   0  0  0  0  0  0  0  0  0  0  0  0
   55.5240   27.6360   45.6150 O   0  0  0  0  0  0  0  0  0  0  0  0
  1  2  1  0
  2  3  1  0
  3  4  1  0
  4  5  2  0
  5  6  1  0
  5  7  1  0
  7  8  1  0
  7  9  2  0
  9 10  1  0
  9 11  1  0
 11 12  1  0
 11 13  2  0
 13 14  1  0
  3 15  2  0
 15 16  1  0
 16 17  2  0
 17 18  1  0
 17 19  1  0
 16 20  1  0
 20 21  1  0
 21 22  3  0
 20 23  2  0
 23 24  1  0
 24 25  1  0
 23 26  1  0
 26 27  1  0
 27 28  2  0
 28 29  1  0
 28 30  1  0
 30 31  1  0
 30 32  2  0
 32 33  1  0
 32 34  1  0
 34 35  1  0
 34 36  2  0
 36 37  1  0
 13  4  1  0
 26 15  1  0
 36 27  1  0
M  CHG  1  37  -1
M  END
>  <UniqueID>  (3) 
3

>  <SMILES>  (3) 
C=c1c(C#N)c(O)n(-c2ccccc2[O-])/c1=C(/O)c1ccc(Br)cc1

>  <Energy>  (3) 
89.30361248437859

>  <Genealogy>  (3) 
C=c1c(C#N)c(O)n(-c2ccccc2[O-])c1=C(O)c1ccc(Br)cc1 (protonated)
C=c1c(C#N)c(O)n(-c2ccccc2[O-])/c1=C(/O)c1ccc(Br)cc1 (cis-trans isomerization)
C=c1c(C#N)c(O)n(-c2ccccc2[O-])/c1=C(/O)c1ccc(Br)cc1 (3D coordinates assigned)
C=c1c(C#N)c(O)n(-c2ccccc2[O-])/c1=C(/O)c1ccc(Br)cc1 (optimized conformer: 89.30361248437859 kcal/mol)

>  <smiles>  (3) 
C=c1c(C#N)c(O)n(-c2ccccc2O)c1=C(O)c1ccc(Br)cc1

>  <score_type>  (3) 
oracle

>  <origin>  (3) 
adg

>  <m_score__min__energy>  (3) 
-10.859999999999999

>  <m_primary>  (3) 
energy

$$$$
3:0
     RDKit          3D

 39 41  0  0  0  0  0  0  0  0999 V2000
   63.4700   33.1030   47.0990 C   0  0  0  0  0  0  0  0  0  0  0  0
   62.0800   33.4720   47.5000 C   0  0  0  0  0  0  0  0  0  0  0  0
   61.7410   33.8320   48.8040 C   0  0  0  0  0  0  0  0  0  0  0  0
   60.0820   34.1090   48.8500 S   0  0  0  0  0  0  0  0  0  0  0  0
   59.8760   33.7590   47.2120 C   0  0  0  0  0  0  0  0  0  0  0  0
   58.7470   33.7500   46.5660 N   0  0  0  0  0  0  0  0  0  0  0  0
   58.6000   33.7860   45.1380 C   0  0  0  0  0  0  0  0  0  0  0  0
   58.9700   34.8200   44.5210 O   0  0  0  0  0  0  0  0  0  0  0  0
   57.9630   32.6780   44.3860 C   0  0  0  0  0  0  0  0  0  0  0  0
   58.0030   32.6450   42.9820 C   0  0  0  0  0  0  0  0  0  0  0  0
   57.3990   31.5990   42.2830 C   0  0  0  0  0  0  0  0  0  0  0  0
   56.7650   30.5650   42.9740 C   0  0  0  0  0  0  0  0  0  0  0  0
   56.7480   30.5610   44.3810 C   0  0  0  0  0  0  0  0  0  0  0  0
   56.0920   29.5290   45.1310 N   0  0  0  0  0  0  0  0  0  0  0  0
   56.6440   28.2580   45.4990 C   0  0  0  0  0  0  0  0  0  0  0  0
   55.9050   27.2440   45.6200 O   0  0  0  0  0  0  0  0  0  0  0  0
   58.1250   28.1280   45.7030 C   0  0  2  0  0  0  0  0  0  0  0  0
   58.5530   28.8340   47.0170 C   0  0  0  0  0  0  0  0  0  0  0  0
   59.1970   30.0580   46.7300 O   0  0  0  0  0  0  0  0  0  0  0  0
   60.3860   29.8100   46.0010 C   0  0  0  0  0  0  0  0  0  0  0  0
   60.1600   28.8220   44.8360 C   0  0  0  0  0  0  0  0  0  0  0  0
   58.7810   28.6770   44.5710 O   0  0  0  0  0  0  0  0  0  0  0  0
   57.3350   31.6260   45.0760 C   0  0  0  0  0  0  0  0  0  0  0  0
   61.0410   33.4180   46.6240 N   0  0  0  0  0  0  0  0  0  0  0  0
   64.0806   32.9409   47.9995 H   0  0  0  0  0  0  0  0  0  0  0  0
   63.4463   32.1800   46.5010 H   0  0  0  0  0  0  0  0  0  0  0  0
   63.9072   33.9162   46.5010 H   0  0  0  0  0  0  0  0  0  0  0  0
   62.4355   33.9194   49.6526 H   0  0  0  0  0  0  0  0  0  0  0  0
   58.5134   33.4483   42.4305 H   0  0  0  0  0  0  0  0  0  0  0  0
   57.4226   31.5893   41.1833 H   0  0  0  0  0  0  0  0  0  0  0  0
   56.2774   29.7512   42.4172 H   0  0  0  0  0  0  0  0  0  0  0  0
   58.4085   27.0698   45.8022 H   0  0  0  0  0  0  0  0  0  0  0  0
   57.6614   29.0286   47.6311 H   0  0  0  0  0  0  0  0  0  0  0  0
   59.2516   28.1819   47.5617 H   0  0  0  0  0  0  0  0  0  0  0  0
   60.7558   30.7617   45.5918 H   0  0  0  0  0  0  0  0  0  0  0  0
   61.1165   29.3596   46.6891 H   0  0  0  0  0  0  0  0  0  0  0  0
   60.6636   29.2031   43.9353 H   0  0  0  0  0  0  0  0  0  0  0  0
   60.5735   27.8418   45.1156 H   0  0  0  0  0  0  0  0  0  0  0  0
   57.3043   31.6396   46.1755 H   0  0  0  0  0  0  0  0  0  0  0  0
  1  2  1  0
  2  3  2  0
  3  4  1  0
  4  5  1  0
  5  6  2  3
  6  7  1  0
  7  8  2  0
  7  9  1  0
  9 10  2  0
 10 11  1  0
 11 12  2  0
 12 13  1  0
 13 14  1  0
 14 15  1  0
 15 16  2  0
 15 17  1  0
 17 18  1  0
 18 19  1  0
 19 20  1  0
 20 21  1  0
 21 22  1  0
 13 23  2  0
  5 24  1  0
 24  2  1  0
 23  9  1  0
 22 17  1  0
  1 25  1  0
  1 26  1  0
  1 27  1  0
  3 28  1  0
 10 29  1  0
 11 30  1  0
 12 31  1  0
 17 32  1  1
 18 33  1  0
 18 34  1  0
 20 35  1  0
 20 36  1  0
 21 37  1  0
 21 38  1  0
 23 39  1  0
M  CHG  2  14  -1  24  -1
M  END
>  <UniqueID>  (4) 
4

>  <SMILES>  (4) 
Cc1csc(=NC(=O)c2cccc([N-]C(=O)[C@@H]3COCCO3)c2)[n-]1

>  <Energy>  (4) 
90.7931905692254

>  <Genealogy>  (4) 
Cc1csc(=NC(=O)c2cccc([N-]C(=O)C3COCCO3)c2)[n-]1 (protonated)
Cc1csc(=NC(=O)c2cccc([N-]C(=O)[C@@H]3COCCO3)c2)[n-]1 (chirality)
Cc1csc(=NC(=O)c2cccc([N-]C(=O)[C@@H]3COCCO3)c2)[n-]1 (3D coordinates assigned)
Cc1csc(=NC(=O)c2cccc([N-]C(=O)[C@@H]3COCCO3)c2)[n-]1 (nonaromatic ring conformer: 90.7931905692254 kcal/mol)

>  <smiles>  (4) 
Cc1csc(=NC(=O)c2cccc(NC(=O)C3COCCO3)c2)[nH]1

>  <score_type>  (4) 
oracle

>  <origin>  (4) 
adg

>  <m_score__min__energy>  (4) 
-11.69

>  <m_primary>  (4) 
energy

$$$$
4:0
     RDKit          3D

 40 42  0  0  0  0  0  0  0  0999 V2000
   58.6065   32.0577   42.4412 H   0  0  0  0  0  0  0  0  0  0  0  0
   57.8800   31.4190   42.9650 C   0  0  0  0  0  0  0  0  0  0  0  0
   58.0260   31.1730   44.2930 N   0  0  0  0  0  0  0  0  0  0  0  0
   57.1600   30.3920   44.9950 C   0  0  0  0  0  0  0  0  0  0  0  0
   57.3940   30.2150   46.2660 N   0  0  0  0  0  0  0  0  0  0  0  0
   58.6390   30.3820   46.9570 C   0  0  0  0  0  0  0  0  0  0  0  0
   59.3030   29.0800   47.7040 S   0  0  0  0  0  0  0  0  0  0  0  0
   59.2540   31.7320   47.0390 C   0  0  0  0  0  0  0  0  0  0  0  0
   60.6560   31.8390   47.0650 C   0  0  0  0  0  0  0  0  0  0  0  0
   61.2700   30.9265   47.0450 H   0  0  0  0  0  0  0  0  0  0  0  0
   61.2820   33.0920   47.1160 C   0  0  0  0  0  0  0  0  0  0  0  0
   63.0420   33.2030   47.1210 S   0  0  0  0  0  0  0  0  0  0  0  0
   63.6140   31.8540   46.7870 O   0  0  0  0  0  0  0  0  0  0  0  0
   63.4790   34.1620   46.0480 O   0  0  0  0  0  0  0  0  0  0  0  0
   63.6770   33.7270   48.6670 N   0  0  0  0  0  0  0  0  0  0  0  0
   62.6210   34.1780   49.5930 C   0  0  0  0  0  0  0  0  0  0  0  0
   63.0709   34.8575   50.3318 H   0  0  0  0  0  0  0  0  0  0  0  0
   61.8483   34.6765   48.9893 H   0  0  0  0  0  0  0  0  0  0  0  0
   61.9350   33.0160   50.3480 C   0  0  0  0  0  0  0  0  0  0  0  0
   61.9417   33.2459   51.4237 H   0  0  0  0  0  0  0  0  0  0  0  0
   60.9132   32.9264   49.9506 H   0  0  0  0  0  0  0  0  0  0  0  0
   62.5730   31.7690   50.1510 O   0  0  0  0  0  0  0  0  0  0  0  0
   63.9570   31.9050   50.3780 C   0  0  0  0  0  0  0  0  0  0  0  0
   64.1178   32.4013   51.3464 H   0  0  0  0  0  0  0  0  0  0  0  0
   64.4164   30.9055   50.3828 H   0  0  0  0  0  0  0  0  0  0  0  0
   64.6060   32.7450   49.2650 C   0  0  0  0  0  0  0  0  0  0  0  0
   65.4636   33.2872   49.6898 H   0  0  0  0  0  0  0  0  0  0  0  0
   64.9125   32.0532   48.4666 H   0  0  0  0  0  0  0  0  0  0  0  0
   60.5020   34.2520   47.1550 C   0  0  0  0  0  0  0  0  0  0  0  0
   60.9872   35.2379   47.2063 H   0  0  0  0  0  0  0  0  0  0  0  0
   59.1100   34.1620   47.1290 C   0  0  0  0  0  0  0  0  0  0  0  0
   58.5025   35.0786   47.1575 H   0  0  0  0  0  0  0  0  0  0  0  0
   58.4820   32.9140   47.0670 C   0  0  0  0  0  0  0  0  0  0  0  0
   57.1290   32.8770   46.9910 F   0  0  0  0  0  0  0  0  0  0  0  0
   56.0650   29.8010   44.3090 C   0  0  0  0  0  0  0  0  0  0  0  0
   55.1530   28.9650   44.9430 O   0  0  0  0  0  0  0  0  0  0  0  0
   55.9030   30.0520   42.9440 C   0  0  0  0  0  0  0  0  0  0  0  0
   55.0551   29.6075   42.4023 H   0  0  0  0  0  0  0  0  0  0  0  0
   56.8110   30.8630   42.2660 C   0  0  0  0  0  0  0  0  0  0  0  0
   56.6851   31.0618   41.1915 H   0  0  0  0  0  0  0  0  0  0  0  0
  1  2  1  0
  2  3  1  0
  3  4  1  0
  4  5  2  0
  5  6  1  0
  6  7  2  0
  6  8  1  0
  8  9  2  0
  9 10  1  0
  9 11  1  0
 11 12  1  0
 12 13  2  0
 12 14  2  0
 12 15  1  0
 15 16  1  0
 16 17  1  0
 16 18  1  0
 16 19  1  0
 19 20  1  0
 19 21  1  0
 19 22  1  0
 22 23  1  0
 23 24  1  0
 23 25  1  0
 23 26  1  0
 26 27  1  0
 26 28  1  0
 11 29  2  0
 29 30  1  0
 29 31  1  0
 31 32  1  0
 31 33  2  0
 33 34  1  0
  4 35  1  0
 35 36  1  0
 35 37  2  0
 37 38  1  0
 37 39  1  0
 39 40  1  0
 39  2  2  0
 33  8  1  0
 26 15  1  0
M  CHG  2   3  -1  36  -1
M  END
>  <UniqueID>  (5) 
5

>  <SMILES>  (5) 
O=S(=O)(c1ccc(F)c(C(=S)/N=c2/[n-]cccc2[O-])c1)N1CCOCC1

>  <Energy>  (5) 
70.31621782288497

>  <Genealogy>  (5) 
O=S(=O)(c1ccc(F)c(C(=S)N=c2[n-]cccc2[O-])c1)N1CCOCC1 (protonated)
O=S(=O)(c1ccc(F)c(C(=S)/N=c2/[n-]cccc2[O-])c1)N1CCOCC1 (cis-trans isomerization)
O=S(=O)(c1ccc(F)c(C(=S)/N=c2/[n-]cccc2[O-])c1)N1CCOCC1 (3D coordinates assigned)
O=S(=O)(c1ccc(F)c(C(=S)/N=c2/[n-]cccc2[O-])c1)N1CCOCC1 (nonaromatic ring conformer: 70.31621782288497 kcal/mol)

>  <smiles>  (5) 
O=S(=O)(c1ccc(F)c(C(=S)N=c2[nH]cccc2O)c1)N1CCOCC1

>  <score_type>  (5) 
oracle

>  <origin>  (5) 
adg

>  <m_score__min__energy>  (5) 
-13.949999999999999

>  <m_primary>  (5) 
energy

$$$$
5:0
     RDKit          3D

 27 28  0  0  0  0  0  0  0  0999 V2000
   58.5790   28.0950   44.1390 C   0  0  0  0  0  0  0  0  0  0  0  0
   57.3940   28.5990   43.8340 C   0  0  0  0  0  0  0  0  0  0  0  0
   56.9910   29.9460   44.1750 C   0  0  0  0  0  0  0  0  0  0  0  0
   55.7960   30.2350   44.5270 O   0  0  0  0  0  0  0  0  0  0  0  0
   57.8920   31.0540   44.1460 N   0  0  0  0  0  0  0  0  0  0  0  0
   57.4110   32.3700   44.5010 C   0  0  0  0  0  0  0  0  0  0  0  0
   58.4170   33.1950   45.1810 C   0  0  0  0  0  0  0  0  0  0  0  0
   58.4270   34.5920   45.2300 C   0  0  0  0  0  0  0  0  0  0  0  0
   59.4940   34.9890   45.9380 N   0  0  0  0  0  0  0  0  0  0  0  0
   60.1240   33.8630   46.3150 C   0  0  0  0  0  0  0  0  0  0  0  0
   61.3620   33.8120   47.1210 C   0  0  0  0  0  0  0  0  0  0  0  0
   62.9970   33.7880   46.4040 S   0  0  0  0  0  0  0  0  0  0  0  0
   63.8090   33.7280   48.0770 C   0  0  0  0  0  0  0  0  0  0  0  0
   62.7780   33.7330   48.9550 C   0  0  0  0  0  0  0  0  0  0  0  0
   61.5350   33.7760   48.4610 C   0  0  0  0  0  0  0  0  0  0  0  0
   59.9690   33.7890   49.6400 Br  0  0  0  0  0  0  0  0  0  0  0  0
   59.5000   32.7870   45.8760 N   0  0  0  0  0  0  0  0  0  0  0  0
   58.8278   27.0625   43.8525 H   0  0  0  0  0  0  0  0  0  0  0  0
   59.3152   28.7085   44.6790 H   0  0  0  0  0  0  0  0  0  0  0  0
   56.6789   27.9613   43.2936 H   0  0  0  0  0  0  0  0  0  0  0  0
   58.8720   30.9290   43.8760 H   0  0  0  0  0  0  0  0  0  0  0  0
   57.0997   32.8872   43.5814 H   0  0  0  0  0  0  0  0  0  0  0  0
   56.5759   32.2317   45.2035 H   0  0  0  0  0  0  0  0  0  0  0  0
   57.6830   35.2554   44.7649 H   0  0  0  0  0  0  0  0  0  0  0  0
   59.7450   35.9940   46.1320 H   0  0  0  0  0  0  0  0  0  0  0  0
   64.8852   33.6957   48.3024 H   0  0  0  0  0  0  0  0  0  0  0  0
   62.9566   33.7027   50.0400 H   0  0  0  0  0  0  0  0  0  0  0  0
  1  2  2  0
  2  3  1  0
  3  4  2  0
  3  5  1  0
  5  6  1  0
  6  7  1  0
  7  8  2  0
  8  9  1  0
  9 10  1  0
 10 11  1  0
 11 12  1  0
 12 13  1  0
 13 14  2  0
 14 15  1  0
 15 16  1  0
 10 17  2  0
 17  7  1  0
 15 11  2  0
  1 18  1  0
  1 19  1  0
  2 20  1  0
  5 21  1  0
  6 22  1  0
  6 23  1  0
  8 24  1  0
  9 25  1  0
 13 26  1  0
 14 27  1  0
M  END
>  <smiles>  (6) 
C=CC(=O)NCc1c[nH]c(-c2sccc2Br)n1

>  <score_type>  (6) 
oracle

>  <origin>  (6) 
adg

>  <m_score__min__energy>  (6) 
-6.7400000000000002

>  <m_primary>  (6) 
energy

$$$$
6:0
     RDKit          3D

 40 42  0  0  0  0  0  0  0  0999 V2000
   55.3090   32.0290   52.3590 O   0  0  0  0  0  0  0  0  0  0  0  0
   55.8810   30.9330   52.1200 C   0  0  0  0  0  0  0  0  0  0  0  0
   55.2090   29.7120   52.4630 N   0  0  0  0  0  0  0  0  0  0  0  0
   53.8970   29.2920   51.9740 C   0  0  0  0  0  0  0  0  0  0  0  0
   52.8930   30.4120   52.0790 C   0  0  0  0  0  0  0  0  0  0  0  0
   52.4030   30.8120   53.3320 C   0  0  0  0  0  0  0  0  0  0  0  0
   51.4500   31.8300   53.4260 C   0  0  0  0  0  0  0  0  0  0  0  0
   50.9880   32.4650   52.2700 C   0  0  0  0  0  0  0  0  0  0  0  0
   50.0380   33.4760   52.3690 O   0  0  0  0  0  0  0  0  0  0  0  0
   51.4830   32.0850   51.0170 C   0  0  0  0  0  0  0  0  0  0  0  0
   51.0300   32.7160   49.8650 O   0  0  0  0  0  0  0  0  0  0  0  0
   52.4370   31.0640   50.9220 C   0  0  0  0  0  0  0  0  0  0  0  0
   57.2000   30.9400   51.4580 C   0  0  0  0  0  0  0  0  0  0  0  0
   57.5610   31.9910   50.6080 C   0  0  0  0  0  0  0  0  0  0  0  0
   58.8320   32.0220   50.0160 C   0  0  0  0  0  0  0  0  0  0  0  0
   59.2310   33.2060   49.1700 C   0  0  0  0  0  0  0  0  0  0  0  0
   58.7900   32.9940   47.7460 C   0  0  0  0  0  0  0  0  0  0  0  0
   58.9430   31.7370   47.1350 C   0  0  0  0  0  0  0  0  0  0  0  0
   58.4730   31.5240   45.8350 C   0  0  0  0  0  0  0  0  0  0  0  0
   57.8400   32.5600   45.1400 C   0  0  0  0  0  0  0  0  0  0  0  0
   57.3800   32.3500   43.8820 F   0  0  0  0  0  0  0  0  0  0  0  0
   57.6790   33.8100   45.7450 C   0  0  0  0  0  0  0  0  0  0  0  0
   58.1480   34.0270   47.0430 C   0  0  0  0  0  0  0  0  0  0  0  0
   59.7270   30.9720   50.2910 C   0  0  0  0  0  0  0  0  0  0  0  0
   60.8860   30.9650   49.7960 O   0  0  0  0  0  0  0  0  0  0  0  0
   59.3460   29.9480   51.1010 N   0  0  0  0  0  0  0  0  0  0  0  0
   58.1190   29.9040   51.6820 C   0  0  0  0  0  0  0  0  0  0  0  0
   57.7970   28.8370   52.5130 O   0  0  0  0  0  0  0  0  0  0  0  0
   53.9869   28.9880   50.9207 H   0  0  0  0  0  0  0  0  0  0  0  0
   53.5475   28.4513   52.5912 H   0  0  0  0  0  0  0  0  0  0  0  0
   52.7711   30.3215   54.2452 H   0  0  0  0  0  0  0  0  0  0  0  0
   51.0633   32.1316   54.4106 H   0  0  0  0  0  0  0  0  0  0  0  0
   52.8305   30.7718   49.9373 H   0  0  0  0  0  0  0  0  0  0  0  0
   56.8430   32.7986   50.4026 H   0  0  0  0  0  0  0  0  0  0  0  0
   58.7548   34.1145   49.5673 H   0  0  0  0  0  0  0  0  0  0  0  0
   60.3252   33.3160   49.1964 H   0  0  0  0  0  0  0  0  0  0  0  0
   59.4341   30.9182   47.6813 H   0  0  0  0  0  0  0  0  0  0  0  0
   58.6012   30.5408   45.3586 H   0  0  0  0  0  0  0  0  0  0  0  0
   57.1819   34.6245   45.1978 H   0  0  0  0  0  0  0  0  0  0  0  0
   58.0140   35.0108   47.5165 H   0  0  0  0  0  0  0  0  0  0  0  0
  1  2  2  0
  2  3  1  0
  3  4  1  0
  4  5  1  0
  5  6  2  0
  6  7  1  0
  7  8  2  0
  8  9  1  0
  8 10  1  0
 10 11  1  0
 10 12  2  0
  2 13  1  0
 13 14  1  0
 14 15  2  0
 15 16  1  0
 16 17  1  0
 17 18  2  0
 18 19  1  0
 19 20  2  0
 20 21  1  0
 20 22  1  0
 22 23  2  0
 15 24  1  0
 24 25  2  0
 24 26  1  0
 26 27  1  0
 27 28  1  0
 12  5  1  0
 27 13  2  0
 23 17  1  0
  4 29  1  0
  4 30  1  0
  6 31  1  0
  7 32  1  0
 12 33  1  0
 14 34  1  0
 16 35  1  0
 16 36  1  0
 18 37  1  0
 19 38  1  0
 22 39  1  0
 23 40  1  0
M  CHG  5   3  -1   9  -1  11  -1  26  -1  28  -1
M  END
>  <UniqueID>  (7) 
6

>  <SMILES>  (7) 
O=C([N-]Cc1ccc([O-])c([O-])c1)c1cc(Cc2ccc(F)cc2)c(=O)[n-]c1[O-]

>  <Energy>  (7) 
43.88021366651512

>  <Genealogy>  (7) 
O=C([N-]Cc1ccc([O-])c([O-])c1)c1cc(Cc2ccc(F)cc2)c(=O)[n-]c1[O-] (protonated)
O=C([N-]Cc1ccc([O-])c([O-])c1)c1cc(Cc2ccc(F)cc2)c(=O)[n-]c1[O-] (3D coordinates assigned)
O=C([N-]Cc1ccc([O-])c([O-])c1)c1cc(Cc2ccc(F)cc2)c(=O)[n-]c1[O-] (optimized conformer: 43.88021366651512 kcal/mol)

>  <smiles>  (7) 
O=C(NCc1ccc(O)c(O)c1)c1cc(Cc2ccc(F)cc2)c(=O)[nH]c1O

>  <score_type>  (7) 
oracle

>  <origin>  (7) 
adg

>  <m_score__min__energy>  (7) 
-19.129999999999999

>  <m_primary>  (7) 
energy

$$$$
7:0
     RDKit          3D

 33 34  0  0  0  0  0  0  0  0999 V2000
   57.4680   31.9600   41.8340 C   0  0  0  0  0  0  0  0  0  0  0  0
   57.6490   31.9280   43.1580 C   0  0  0  0  0  0  0  0  0  0  0  0
   56.7170   31.1740   44.0660 C   0  0  0  0  0  0  0  0  0  0  0  0
   57.3430   29.8800   44.5220 C   0  0  0  0  0  0  0  0  0  0  0  0
   58.7330   29.7080   44.4240 C   0  0  0  0  0  0  0  0  0  0  0  0
   59.3220   28.5040   44.8080 C   0  0  0  0  0  0  0  0  0  0  0  0
   58.5350   27.4630   45.2990 C   0  0  0  0  0  0  0  0  0  0  0  0
   57.1430   27.6120   45.4150 C   0  0  0  0  0  0  0  0  0  0  0  0
   56.3520   26.4900   45.9750 C   0  0  0  0  0  0  0  0  0  0  0  0
   55.0960   26.5890   46.0140 O   0  0  0  0  0  0  0  0  0  0  0  0
   56.9920   25.2060   46.4370 C   0  0  0  0  0  0  0  0  0  0  0  0
   56.8710   24.1380   45.3820 C   0  0  0  0  0  0  0  0  0  0  0  0
   57.9350   23.2630   45.1160 C   0  0  0  0  0  0  0  0  0  0  0  0
   57.8130   22.3000   44.1120 C   0  0  0  0  0  0  0  0  0  0  0  0
   56.6290   22.2230   43.3790 C   0  0  0  0  0  0  0  0  0  0  0  0
   55.6060   23.0780   43.6440 N   0  0  0  0  0  0  0  0  0  0  0  0
   55.7000   24.0230   44.6170 C   0  0  0  0  0  0  0  0  0  0  0  0
   56.5450   28.8210   44.9980 C   0  0  0  0  0  0  0  0  0  0  0  0
   55.1610   28.9670   45.0230 O   0  0  0  0  0  0  0  0  0  0  0  0
   58.1676   32.5207   41.1966 H   0  0  0  0  0  0  0  0  0  0  0  0
   56.6195   31.4256   41.3818 H   0  0  0  0  0  0  0  0  0  0  0  0
   58.5023   32.4675   43.5950 H   0  0  0  0  0  0  0  0  0  0  0  0
   56.4903   31.7944   44.9456 H   0  0  0  0  0  0  0  0  0  0  0  0
   55.7952   30.9434   43.5118 H   0  0  0  0  0  0  0  0  0  0  0  0
   59.3603   30.5271   44.0424 H   0  0  0  0  0  0  0  0  0  0  0  0
   60.4111   28.3750   44.7233 H   0  0  0  0  0  0  0  0  0  0  0  0
   59.0085   26.5163   45.5983 H   0  0  0  0  0  0  0  0  0  0  0  0
   58.0566   25.3883   46.6451 H   0  0  0  0  0  0  0  0  0  0  0  0
   56.4772   24.8629   47.3465 H   0  0  0  0  0  0  0  0  0  0  0  0
   58.8654   23.3355   45.6983 H   0  0  0  0  0  0  0  0  0  0  0  0
   58.6426   21.6090   43.9014 H   0  0  0  0  0  0  0  0  0  0  0  0
   56.5228   21.4691   42.5851 H   0  0  0  0  0  0  0  0  0  0  0  0
   54.8542   24.7006   44.8055 H   0  0  0  0  0  0  0  0  0  0  0  0
  1  2  2  0
  2  3  1  0
  3  4  1  0
  4  5  2  0
  5  6  1  0
  6  7  2  0
  7  8  1  0
  8  9  1  0
  9 10  2  0
  9 11  1  0
 11 12  1  0
 12 13  2  0
 13 14  1  0
 14 15  2  0
 15 16  1  0
 16 17  2  0
  8 18  2  0
 18 19  1  0
 18  4  1  0
 17 12  1  0
  1 20  1  0
  1 21  1  0
  2 22  1  0
  3 23  1  0
  3 24  1  0
  5 25  1  0
  6 26  1  0
  7 27  1  0
 11 28  1  0
 11 29  1  0
 13 30  1  0
 14 31  1  0
 15 32  1  0
 17 33  1  0
M  CHG  1  19  -1
M  END
>  <UniqueID>  (8) 
7

>  <SMILES>  (8) 
C=CCc1cccc(C(=O)Cc2cccnc2)c1[O-]

>  <Energy>  (8) 
35.47382668667408

>  <Genealogy>  (8) 
C=CCc1cccc(C(=O)Cc2cccnc2)c1[O-] (protonated)
C=CCc1cccc(C(=O)Cc2cccnc2)c1[O-] (3D coordinates assigned)
C=CCc1cccc(C(=O)Cc2cccnc2)c1[O-] (optimized conformer: 35.47382668667408 kcal/mol)

>  <smiles>  (8) 
C=CCc1cccc(C(=O)Cc2cccnc2)c1O

>  <score_type>  (8) 
oracle

>  <origin>  (8) 
adg

>  <m_score__min__energy>  (8) 
-11.220000000000001

>  <m_primary>  (8) 
energy

$$$$
8:0
     RDKit          3D

 63 69  0  0  0  0  0  0  0  0999 V2000
   59.1400   29.8900   53.8070 O   0  0  0  0  0  0  0  0  0  0  0  0
   59.6570   29.7730   52.6640 C   0  0  0  0  0  0  0  0  0  0  0  0
   60.9470   29.1430   52.5850 N   0  0  0  0  0  0  0  0  0  0  0  0
   61.7890   28.9870   51.4050 C   0  0  0  0  0  0  0  0  0  0  0  0
   62.1990   30.2970   50.7610 C   0  0  0  0  0  0  0  0  0  0  0  0
   63.1840   29.5360   51.6300 C   0  0  0  0  0  0  0  0  0  0  0  0
   58.8430   30.2310   51.4580 C   0  0  2  0  0  0  0  0  0  0  0  0
   57.3580   30.1190   51.7210 C   0  0  0  0  0  0  0  0  0  0  0  0
   56.7830   29.0730   52.3760 N   0  0  0  0  0  0  0  0  0  0  0  0
   55.4870   29.4120   52.3910 C   0  0  0  0  0  0  0  0  0  0  0  0
   54.4230   28.6860   52.9210 C   0  0  0  0  0  0  0  0  0  0  0  0
   53.1340   29.2380   52.8040 C   0  0  0  0  0  0  0  0  0  0  0  0
   52.9470   30.4820   52.1620 C   0  0  0  0  0  0  0  0  0  0  0  0
   54.0480   31.1850   51.6360 C   0  0  0  0  0  0  0  0  0  0  0  0
   55.3060   30.6110   51.7750 C   0  0  0  0  0  0  0  0  0  0  0  0
   56.4810   31.0890   51.3400 N   0  0  0  0  0  0  0  0  0  0  0  0
   59.1290   29.3130   50.3970 O   0  0  0  0  0  0  0  0  0  0  0  0
   58.9300   29.6380   49.0600 C   0  0  0  0  0  0  0  0  0  0  0  0
   58.7510   28.6230   48.1150 C   0  0  0  0  0  0  0  0  0  0  0  0
   58.5280   28.9500   46.7760 C   0  0  0  0  0  0  0  0  0  0  0  0
   58.4970   30.2880   46.3820 C   0  0  0  0  0  0  0  0  0  0  0  0
   58.7050   31.3030   47.3220 C   0  0  0  0  0  0  0  0  0  0  0  0
   58.9270   30.9860   48.6760 C   0  0  0  0  0  0  0  0  0  0  0  0
   59.2190   32.0190   49.7150 C   0  0  0  0  0  0  0  0  0  0  0  0
   59.5580   33.4370   49.2640 C   0  0  0  0  0  0  0  0  0  0  0  0
   60.9470   33.5940   48.6800 C   0  0  0  0  0  0  0  0  0  0  0  0
   62.1120   33.6210   49.4780 C   0  0  0  0  0  0  0  0  0  0  0  0
   63.3720   33.7440   48.8840 C   0  0  0  0  0  0  0  0  0  0  0  0
   63.4880   33.8360   47.4940 C   0  0  0  0  0  0  0  0  0  0  0  0
   62.3440   33.8020   46.6930 C   0  0  0  0  0  0  0  0  0  0  0  0
   61.0820   33.6760   47.2810 C   0  0  0  0  0  0  0  0  0  0  0  0
   59.2300   31.6630   51.0330 C   0  0  0  0  0  0  0  0  0  0  0  0
   59.5300   32.6720   52.0840 C   0  0  0  0  0  0  0  0  0  0  0  0
   58.5190   33.5390   52.5330 C   0  0  0  0  0  0  0  0  0  0  0  0
   58.7900   34.4800   53.5310 C   0  0  0  0  0  0  0  0  0  0  0  0
   60.0640   34.5500   54.0990 C   0  0  0  0  0  0  0  0  0  0  0  0
   61.0690   33.6780   53.6720 C   0  0  0  0  0  0  0  0  0  0  0  0
   60.8040   32.7370   52.6730 C   0  0  0  0  0  0  0  0  0  0  0  0
   61.3570   28.0477   51.0294 H   0  0  0  0  0  0  0  0  0  0  0  0
   62.3525   30.3509   49.6731 H   0  0  0  0  0  0  0  0  0  0  0  0
   61.7962   31.3206   50.7546 H   0  0  0  0  0  0  0  0  0  0  0  0
   64.0515   29.0384   51.1719 H   0  0  0  0  0  0  0  0  0  0  0  0
   63.7909   29.7796   52.5145 H   0  0  0  0  0  0  0  0  0  0  0  0
   54.5846   27.7158   53.4135 H   0  0  0  0  0  0  0  0  0  0  0  0
   52.2679   28.6981   53.2145 H   0  0  0  0  0  0  0  0  0  0  0  0
   51.9353   30.9043   52.0723 H   0  0  0  0  0  0  0  0  0  0  0  0
   53.9169   32.1543   51.1328 H   0  0  0  0  0  0  0  0  0  0  0  0
   58.7858   27.5685   48.4260 H   0  0  0  0  0  0  0  0  0  0  0  0
   58.3769   28.1535   46.0325 H   0  0  0  0  0  0  0  0  0  0  0  0
   58.3085   30.5456   45.3293 H   0  0  0  0  0  0  0  0  0  0  0  0
   58.6951   32.3552   47.0015 H   0  0  0  0  0  0  0  0  0  0  0  0
   58.8273   33.7384   48.4990 H   0  0  0  0  0  0  0  0  0  0  0  0
   59.5231   34.0688   50.1638 H   0  0  0  0  0  0  0  0  0  0  0  0
   62.0278   33.5449   50.5721 H   0  0  0  0  0  0  0  0  0  0  0  0
   64.2745   33.7684   49.5124 H   0  0  0  0  0  0  0  0  0  0  0  0
   64.4807   33.9352   47.0306 H   0  0  0  0  0  0  0  0  0  0  0  0
   62.4362   33.8744   45.5993 H   0  0  0  0  0  0  0  0  0  0  0  0
   60.1857   33.6406   46.6444 H   0  0  0  0  0  0  0  0  0  0  0  0
   57.5107   33.4770   52.0976 H   0  0  0  0  0  0  0  0  0  0  0  0
   57.9991   35.1657   53.8691 H   0  0  0  0  0  0  0  0  0  0  0  0
   60.2764   35.2919   54.8829 H   0  0  0  0  0  0  0  0  0  0  0  0
   62.0708   33.7323   54.1230 H   0  0  0  0  0  0  0  0  0  0  0  0
   61.5949   32.0455   52.3471 H   0  0  0  0  0  0  0  0  0  0  0  0
  1  2  2  0
  2  3  1  0
  3  4  1  0
  4  5  1  0
  5  6  1  0
  7  2  1  1
  7  8  1  0
  8  9  2  0
  9 10  1  0
 10 11  2  0
 11 12  1  0
 12 13  2  0
 13 14  1  0
 14 15  2  0
 15 16  1  0
  7 17  1  0
 17 18  1  0
 18 19  2  0
 19 20  1  0
 20 21  2  0
 21 22  1  0
 22 23  2  0
 23 24  1  0
 24 25  1  0
 25 26  1  0
 26 27  2  0
 27 28  1  0
 28 29  2  0
 29 30  1  0
 30 31  2  0
 24 32  2  0
 32 33  1  0
 33 34  2  0
 34 35  1  0
 35 36  2  0
 36 37  1  0
 37 38  2  0
  6  4  1  0
 32  7  1  0
 38 33  1  0
 16  8  1  0
 23 18  1  0
 31 26  1  0
 15 10  1  0
  4 39  1  0
  5 40  1  0
  5 41  1  0
  6 42  1  0
  6 43  1  0
 11 44  1  0
 12 45  1  0
 13 46  1  0
 14 47  1  0
 19 48  1  0
 20 49  1  0
 21 50  1  0
 22 51  1  0
 25 52  1  0
 25 53  1  0
 27 54  1  0
 28 55  1  0
 29 56  1  0
 30 57  1  0
 31 58  1  0
 34 59  1  0
 35 60  1  0
 36 61  1  0
 37 62  1  0
 38 63  1  0
M  CHG  2   3  -1  16  -1
M  END
>  <UniqueID>  (9) 
8

>  <SMILES>  (9) 
O=C([N-]C1CC1)[C@]1(c2nc3ccccc3[n-]2)Oc2ccccc2C(Cc2ccccc2)=C1c1ccccc1

>  <Energy>  (9) 
387.78724910363076

>  <Genealogy>  (9) 
O=C([N-]C1CC1)C1(c2nc3ccccc3[n-]2)Oc2ccccc2C(Cc2ccccc2)=C1c1ccccc1 (protonated)
O=C([N-]C1CC1)[C@]1(c2nc3ccccc3[n-]2)Oc2ccccc2C(Cc2ccccc2)=C1c1ccccc1 (chirality)
O=C([N-]C1CC1)[C@]1(c2nc3ccccc3[n-]2)Oc2ccccc2C(Cc2ccccc2)=C1c1ccccc1 (3D coordinates assigned)
O=C([N-]C1CC1)[C@]1(c2nc3ccccc3[n-]2)Oc2ccccc2C(Cc2ccccc2)=C1c1ccccc1 (nonaromatic ring conformer: 387.78724910363076 kcal/mol)

>  <smiles>  (9) 
O=C(NC1CC1)C1(c2nc3ccccc3[nH]2)Oc2ccccc2C(Cc2ccccc2)=C1c1ccccc1

>  <score_type>  (9) 
oracle

>  <origin>  (9) 
adg

>  <m_score__min__energy>  (9) 
-10.460000000000001

>  <m_primary>  (9) 
energy

$$$$
9:0
     RDKit          3D

 50 52  0  0  0  0  0  0  0  0999 V2000
   54.8350   22.1240   48.9680 C   0  0  0  0  0  0  0  0  0  0  0  0
   54.4760   22.9420   47.8160 N   0  0  0  0  0  0  0  0  0  0  0  0
   53.3910   22.5870   46.9480 C   0  0  0  0  0  0  0  0  0  0  0  0
   52.7120   21.5510   47.1840 O   0  0  0  0  0  0  0  0  0  0  0  0
   53.0400   23.4490   45.7990 C   0  0  0  0  0  0  0  0  0  0  0  0
   52.3210   22.9820   44.8770 O   0  0  0  0  0  0  0  0  0  0  0  0
   53.5550   24.7810   45.6590 N   0  0  0  0  0  0  0  0  0  0  0  0
   54.8050   25.1300   45.7490 C   0  0  0  0  0  0  0  0  0  0  0  0
   55.8350   24.2600   45.6620 N   0  0  0  0  0  0  0  0  0  0  0  0
   56.9200   25.0300   45.8450 C   0  0  0  0  0  0  0  0  0  0  0  0
   56.5210   26.3380   46.0460 C   0  0  0  0  0  0  0  0  0  0  0  0
   57.3900   27.5090   46.3190 C   0  0  0  0  0  0  0  0  0  0  0  0
   58.1570   27.5580   47.4950 C   0  0  0  0  0  0  0  0  0  0  0  0
   59.0070   28.6420   47.7210 C   0  0  0  0  0  0  0  0  0  0  0  0
   59.0980   29.6430   46.8080 N   0  0  0  0  0  0  0  0  0  0  0  0
   58.3570   29.6410   45.6670 C   0  0  0  0  0  0  0  0  0  0  0  0
   58.5370   30.7420   44.6610 C   0  0  0  0  0  0  0  0  0  0  0  0
   57.2870   31.5600   44.5780 C   0  0  0  0  0  0  0  0  0  0  0  0
   56.1700   31.0410   44.8490 O   0  0  0  0  0  0  0  0  0  0  0  0
   57.3830   32.9480   44.2540 N   0  0  0  0  0  0  0  0  0  0  0  0
   57.3340   34.0130   45.2430 C   0  0  0  0  0  0  0  0  0  0  0  0
   58.4700   33.8310   46.2080 C   0  0  0  0  0  0  0  0  0  0  0  0
   58.2170   33.3220   47.4910 C   0  0  0  0  0  0  0  0  0  0  0  0
   59.2710   33.1050   48.3820 C   0  0  0  0  0  0  0  0  0  0  0  0
   60.5830   33.3920   47.9990 C   0  0  0  0  0  0  0  0  0  0  0  0
   60.8560   33.8940   46.7220 C   0  0  0  0  0  0  0  0  0  0  0  0
   62.1920   34.1620   46.3850 O   0  0  0  0  0  0  0  0  0  0  0  0
   63.3120   33.4640   46.9210 C   0  0  0  0  0  0  0  0  0  0  0  0
   59.7920   34.1100   45.8230 C   0  0  0  0  0  0  0  0  0  0  0  0
   57.4820   28.5750   45.4090 C   0  0  0  0  0  0  0  0  0  0  0  0
   55.1760   26.4010   45.9930 N   0  0  0  0  0  0  0  0  0  0  0  0
   54.5959   22.6687   49.8933 H   0  0  0  0  0  0  0  0  0  0  0  0
   54.2675   21.1821   48.9400 H   0  0  0  0  0  0  0  0  0  0  0  0
   55.9124   21.9040   48.9400 H   0  0  0  0  0  0  0  0  0  0  0  0
   55.0390   23.8010   47.6190 H   0  0  0  0  0  0  0  0  0  0  0  0
   57.9614   24.6758   45.8363 H   0  0  0  0  0  0  0  0  0  0  0  0
   58.0881   26.7462   48.2341 H   0  0  0  0  0  0  0  0  0  0  0  0
   59.6057   28.6855   48.6428 H   0  0  0  0  0  0  0  0  0  0  0  0
   59.3747   31.3850   44.9689 H   0  0  0  0  0  0  0  0  0  0  0  0
   58.7506   30.3029   43.6753 H   0  0  0  0  0  0  0  0  0  0  0  0
   57.4276   34.9876   44.7416 H   0  0  0  0  0  0  0  0  0  0  0  0
   56.3762   33.9775   45.7828 H   0  0  0  0  0  0  0  0  0  0  0  0
   57.1853   33.0931   47.7962 H   0  0  0  0  0  0  0  0  0  0  0  0
   59.0671   32.7073   49.3871 H   0  0  0  0  0  0  0  0  0  0  0  0
   61.4079   33.2221   48.7066 H   0  0  0  0  0  0  0  0  0  0  0  0
   63.2691   33.4907   48.0198 H   0  0  0  0  0  0  0  0  0  0  0  0
   63.2909   32.4189   46.5785 H   0  0  0  0  0  0  0  0  0  0  0  0
   64.2410   33.9434   46.5785 H   0  0  0  0  0  0  0  0  0  0  0  0
   59.9978   34.4990   44.8149 H   0  0  0  0  0  0  0  0  0  0  0  0
   56.8691   28.5741   44.4956 H   0  0  0  0  0  0  0  0  0  0  0  0
  1  2  1  0
  2  3  1  0
  3  4  2  0
  3  5  1  0
  5  6  2  0
  5  7  1  0
  7  8  2  3
  8  9  1  0
  9 10  1  0
 10 11  2  0
 11 12  1  0
 12 13  2  0
 13 14  1  0
 14 15  2  0
 15 16  1  0
 16 17  1  0
 17 18  1  0
 18 19  2  0
 18 20  1  0
 20 21  1  0
 21 22  1  0
 22 23  2  0
 23 24  1  0
 24 25  2  0
 25 26  1  0
 26 27  1  0
 27 28  1  0
 26 29  2  0
 16 30  2  0
 11 31  1  0
 31  8  1  0
 30 12  1  0
 29 22  1  0
  1 32  1  0
  1 33  1  0
  1 34  1  0
  2 35  1  0
 10 36  1  0
 13 37  1  0
 14 38  1  0
 17 39  1  0
 17 40  1  0
 21 41  1  0
 21 42  1  0
 23 43  1  0
 24 44  1  0
 25 45  1  0
 28 46  1  0
 28 47  1  0
 28 48  1  0
 29 49  1  0
 30 50  1  0
M  CHG  3   9  -1  20  -1  31  -1
M  END
>  <UniqueID>  (10) 
9

>  <SMILES>  (10) 
CNC(=O)C(=O)N=c1[n-]cc(-c2ccnc(CC(=O)[N-]Cc3cccc(OC)c3)c2)[n-]1

>  <Energy>  (10) 
77.91971997619072

>  <Genealogy>  (10) 
CNC(=O)C(=O)N=c1[n-]cc(-c2ccnc(CC(=O)[N-]Cc3cccc(OC)c3)c2)[n-]1 (protonated)
CNC(=O)C(=O)N=c1[n-]cc(-c2ccnc(CC(=O)[N-]Cc3cccc(OC)c3)c2)[n-]1 (3D coordinates assigned)
CNC(=O)C(=O)N=c1[n-]cc(-c2ccnc(CC(=O)[N-]Cc3cccc(OC)c3)c2)[n-]1 (optimized conformer: 77.91971997619072 kcal/mol)

>  <smiles>  (10) 
CNC(=O)C(=O)N=c1[nH]cc(-c2ccnc(CC(=O)NCc3cccc(OC)c3)c2)[nH]1

>  <score_type>  (10) 
oracle

>  <origin>  (10) 
adg

>  <m_score__min__energy>  (10) 
-12.94

>  <m_primary>  (10) 
energy

$$$$
10:0
     RDKit          3D

 45 46  0  0  0  0  0  0  0  0999 V2000
   53.1010   23.6500   45.1890 C   0  0  0  0  0  0  0  0  0  0  0  0
   54.4370   23.6600   45.1510 C   0  0  0  0  0  0  0  0  0  0  0  0
   55.1340   23.3670   43.8490 C   0  0  0  0  0  0  0  0  0  0  0  0
   55.2140   23.9120   46.3980 C   0  0  0  0  0  0  0  0  0  0  0  0
   54.8930   23.3060   47.4600 O   0  0  0  0  0  0  0  0  0  0  0  0
   56.3630   24.8420   46.4310 C   0  0  0  0  0  0  0  0  0  0  0  0
   57.6300   24.4600   46.6950 N   0  0  0  0  0  0  0  0  0  0  0  0
   58.3670   25.5890   46.6470 C   0  0  0  0  0  0  0  0  0  0  0  0
   59.7410   25.6050   46.8640 O   0  0  0  0  0  0  0  0  0  0  0  0
   57.5950   26.7030   46.3590 C   0  0  0  0  0  0  0  0  0  0  0  0
   58.0900   28.0910   46.1980 C   0  0  0  0  0  0  0  0  0  0  0  0
   57.9890   28.8910   47.1690 O   0  0  0  0  0  0  0  0  0  0  0  0
   58.7990   28.5680   44.9600 C   0  0  0  0  0  0  0  0  0  0  0  0
   58.1030   28.0850   43.7130 C   0  0  0  0  0  0  0  0  0  0  0  0
   58.4920   27.0600   43.1650 O   0  0  0  0  0  0  0  0  0  0  0  0
   57.0140   28.9040   43.0570 C   0  0  0  0  0  0  0  0  0  0  0  0
   56.2960   29.8290   44.0520 C   0  0  0  0  0  0  0  0  0  0  0  0
   56.9160   31.1990   44.0870 C   0  0  0  0  0  0  0  0  0  0  0  0
   57.5800   31.5970   43.0930 O   0  0  0  0  0  0  0  0  0  0  0  0
   56.8580   32.0220   45.2610 N   0  0  0  0  0  0  0  0  0  0  0  0
   57.8350   32.9920   45.6550 C   0  0  0  0  0  0  0  0  0  0  0  0
   58.1930   34.0570   44.8080 C   0  0  0  0  0  0  0  0  0  0  0  0
   59.1800   34.9650   45.1980 C   0  0  0  0  0  0  0  0  0  0  0  0
   59.8340   34.8050   46.4250 C   0  0  0  0  0  0  0  0  0  0  0  0
   59.5010   33.7380   47.2630 C   0  0  0  0  0  0  0  0  0  0  0  0
   58.5120   32.8270   46.8740 C   0  0  0  0  0  0  0  0  0  0  0  0
   58.2160   31.7810   47.6830 F   0  0  0  0  0  0  0  0  0  0  0  0
   56.3070   26.2130   46.2410 C   0  0  0  0  0  0  0  0  0  0  0  0
   55.1540   26.9510   45.9970 O   0  0  0  0  0  0  0  0  0  0  0  0
   52.5760   23.8620   46.1321 H   0  0  0  0  0  0  0  0  0  0  0  0
   52.5265   23.4298   44.2772 H   0  0  0  0  0  0  0  0  0  0  0  0
   56.1305   22.9481   44.0527 H   0  0  0  0  0  0  0  0  0  0  0  0
   54.5423   22.6415   43.2715 H   0  0  0  0  0  0  0  0  0  0  0  0
   55.2384   24.2974   43.2715 H   0  0  0  0  0  0  0  0  0  0  0  0
   60.2100   26.4570   47.1480 H   0  0  0  0  0  0  0  0  0  0  0  0
   58.8167   29.6679   44.9579 H   0  0  0  0  0  0  0  0  0  0  0  0
   59.8220   28.1637   44.9668 H   0  0  0  0  0  0  0  0  0  0  0  0
   57.4641   29.5195   42.2642 H   0  0  0  0  0  0  0  0  0  0  0  0
   56.2679   28.2053   42.6506 H   0  0  0  0  0  0  0  0  0  0  0  0
   55.2413   29.9228   43.7539 H   0  0  0  0  0  0  0  0  0  0  0  0
   56.3849   29.3873   45.0555 H   0  0  0  0  0  0  0  0  0  0  0  0
   57.6936   34.1749   43.8350 H   0  0  0  0  0  0  0  0  0  0  0  0
   59.4435   35.8065   44.5403 H   0  0  0  0  0  0  0  0  0  0  0  0
   60.6116   35.5207   46.7301 H   0  0  0  0  0  0  0  0  0  0  0  0
   60.0154   33.6139   48.2274 H   0  0  0  0  0  0  0  0  0  0  0  0
  1  2  2  0
  2  3  1  0
  2  4  1  0
  4  5  2  0
  4  6  1  0
  6  7  1  0
  7  8  1  0
  8  9  1  0
  8 10  2  0
 10 11  1  0
 11 12  2  0
 11 13  1  0
 13 14  1  0
 14 15  2  0
 14 16  1  0
 16 17  1  0
 17 18  1  0
 18 19  2  0
 18 20  1  0
 20 21  1  0
 21 22  2  0
 22 23  1  0
 23 24  2  0
 24 25  1  0
 25 26  2  0
 26 27  1  0
 10 28  1  0
 28 29  1  0
 28  6  2  0
 26 21  1  0
  1 30  1  0
  1 31  1  0
  3 32  1  0
  3 33  1  0
  3 34  1  0
  9 35  1  0
 13 36  1  0
 13 37  1  0
 16 38  1  0
 16 39  1  0
 17 40  1  0
 17 41  1  0
 22 42  1  0
 23 43  1  0
 24 44  1  0
 25 45  1  0
M  CHG  3   7  -1  20  -1  29  -1
M  END
>  <UniqueID>  (11) 
10

>  <SMILES>  (11) 
C=C(C)C(=O)c1[n-]c(O)c(C(=O)CC(=O)CCC(=O)[N-]c2ccccc2F)c1[O-]

>  <Energy>  (11) 
71.84488372183357

>  <Genealogy>  (11) 
C=C(C)C(=O)c1[n-]c(O)c(C(=O)CC(=O)CCC(=O)[N-]c2ccccc2F)c1[O-] (protonated)
C=C(C)C(=O)c1[n-]c(O)c(C(=O)CC(=O)CCC(=O)[N-]c2ccccc2F)c1[O-] (3D coordinates assigned)
C=C(C)C(=O)c1[n-]c(O)c(C(=O)CC(=O)CCC(=O)[N-]c2ccccc2F)c1[O-] (optimized conformer: 71.84488372183357 kcal/mol)

>  <smiles>  (11) 
C=C(C)C(=O)c1[nH]c(O)c(C(=O)CC(=O)CCC(=O)Nc2ccccc2F)c1O

>  <score_type>  (11) 
oracle

>  <origin>  (11) 
adg

>  <m_score__min__energy>  (11) 
-14.48

>  <m_primary>  (11) 
energy

$$$$
11:0
     RDKit          3D

 54 56  0  0  0  0  0  0  0  0999 V2000
   57.3830   32.4980   40.3550 C   0  0  0  0  0  0  0  0  0  0  0  0
   57.4750   32.0260   41.7310 N   0  0  0  0  0  0  0  0  0  0  0  0
   56.8710   30.9330   42.2330 C   0  0  0  0  0  0  0  0  0  0  0  0
   57.1110   30.8460   43.5970 C   0  0  0  0  0  0  0  0  0  0  0  0
   56.6670   29.7520   44.4990 C   0  0  0  0  0  0  0  0  0  0  0  0
   55.4670   29.7030   44.8790 O   0  0  0  0  0  0  0  0  0  0  0  0
   57.5930   28.7040   44.9780 C   0  0  0  0  0  0  0  0  0  0  0  0
   58.9770   28.8310   44.8010 C   0  0  0  0  0  0  0  0  0  0  0  0
   59.8270   27.8500   45.3110 C   0  0  0  0  0  0  0  0  0  0  0  0
   59.3140   26.7830   45.9800 N   0  0  0  0  0  0  0  0  0  0  0  0
   57.9780   26.6200   46.1750 C   0  0  0  0  0  0  0  0  0  0  0  0
   57.5750   25.5770   46.8460 N   0  0  0  0  0  0  0  0  0  0  0  0
   56.2690   24.9810   46.8380 C   0  0  0  0  0  0  0  0  0  0  0  0
   55.9980   23.7860   47.5740 N   0  0  0  0  0  0  0  0  0  0  0  0
   55.3280   25.5700   46.2440 O   0  0  0  0  0  0  0  0  0  0  0  0
   57.0910   27.6040   45.6900 C   0  0  0  0  0  0  0  0  0  0  0  0
   57.8640   31.9750   43.9240 C   0  0  0  0  0  0  0  0  0  0  0  0
   58.3010   32.4350   45.2550 C   0  0  0  0  0  0  0  0  0  0  0  0
   57.7220   33.5750   45.8290 C   0  0  0  0  0  0  0  0  0  0  0  0
   58.1100   33.9950   47.1020 C   0  0  0  0  0  0  0  0  0  0  0  0
   59.0690   33.2750   47.8180 C   0  0  0  0  0  0  0  0  0  0  0  0
   59.6470   32.1160   47.2700 C   0  0  0  0  0  0  0  0  0  0  0  0
   60.6620   31.3470   48.0270 C   0  0  0  0  0  0  0  0  0  0  0  0
   60.2990   30.4180   48.7990 O   0  0  0  0  0  0  0  0  0  0  0  0
   62.0550   31.6660   47.8840 N   0  0  0  0  0  0  0  0  0  0  0  0
   62.6910   32.9720   48.0930 C   0  0  0  0  0  0  0  0  0  0  0  0
   62.6820   33.7150   46.7490 C   0  0  0  0  0  0  0  0  0  0  0  0
   64.1470   32.7860   48.5560 C   0  0  0  0  0  0  0  0  0  0  0  0
   61.8970   33.7940   49.1260 C   0  0  0  0  0  0  0  0  0  0  0  0
   59.2430   31.6960   45.9890 C   0  0  0  0  0  0  0  0  0  0  0  0
   58.0730   32.6720   42.7480 C   0  0  0  0  0  0  0  0  0  0  0  0
   57.1726   33.5777   40.3510 H   0  0  0  0  0  0  0  0  0  0  0  0
   58.3351   32.3081   39.8378 H   0  0  0  0  0  0  0  0  0  0  0  0
   56.5720   31.9644   39.8378 H   0  0  0  0  0  0  0  0  0  0  0  0
   56.2758   30.2156   41.6491 H   0  0  0  0  0  0  0  0  0  0  0  0
   59.3899   29.6977   44.2640 H   0  0  0  0  0  0  0  0  0  0  0  0
   60.9145   27.9395   45.1718 H   0  0  0  0  0  0  0  0  0  0  0  0
   55.0500   23.3500   47.5380 H   0  0  0  0  0  0  0  0  0  0  0  0
   56.7150   23.3790   48.2140 H   0  0  0  0  0  0  0  0  0  0  0  0
   56.0099   27.5093   45.8693 H   0  0  0  0  0  0  0  0  0  0  0  0
   56.9590   34.1407   45.2741 H   0  0  0  0  0  0  0  0  0  0  0  0
   57.6590   34.8962   47.5430 H   0  0  0  0  0  0  0  0  0  0  0  0
   59.3744   33.6170   48.8179 H   0  0  0  0  0  0  0  0  0  0  0  0
   62.6689   34.7999   46.9299 H   0  0  0  0  0  0  0  0  0  0  0  0
   63.5834   33.4495   46.1772 H   0  0  0  0  0  0  0  0  0  0  0  0
   61.7873   33.4277   46.1772 H   0  0  0  0  0  0  0  0  0  0  0  0
   64.1844   32.7812   49.6554 H   0  0  0  0  0  0  0  0  0  0  0  0
   64.5348   31.8310   48.1718 H   0  0  0  0  0  0  0  0  0  0  0  0
   64.7624   33.6128   48.1718 H   0  0  0  0  0  0  0  0  0  0  0  0
   62.1912   33.4895   50.1412 H   0  0  0  0  0  0  0  0  0  0  0  0
   62.1124   34.8637   48.9872 H   0  0  0  0  0  0  0  0  0  0  0  0
   60.8205   33.6158   48.9872 H   0  0  0  0  0  0  0  0  0  0  0  0
   59.6699   30.7785   45.5578 H   0  0  0  0  0  0  0  0  0  0  0  0
   58.6407   33.6099   42.6582 H   0  0  0  0  0  0  0  0  0  0  0  0
  1  2  1  0
  2  3  1  0
  3  4  2  0
  4  5  1  0
  5  6  2  0
  5  7  1  0
  7  8  1  0
  8  9  2  0
  9 10  1  0
 10 11  1  0
 11 12  2  3
 12 13  1  0
 13 14  1  0
 13 15  2  0
 11 16  1  0
  4 17  1  0
 17 18  1  0
 18 19  2  0
 19 20  1  0
 20 21  2  0
 21 22  1  0
 22 23  1  0
 23 24  2  0
 23 25  1  0
 25 26  1  0
 26 27  1  0
 26 28  1  0
 26 29  1  0
 22 30  2  0
 17 31  2  0
 31  2  1  0
 16  7  2  0
 30 18  1  0
  1 32  1  0
  1 33  1  0
  1 34  1  0
  3 35  1  0
  8 36  1  0
  9 37  1  0
 14 38  1  0
 14 39  1  0
 16 40  1  0
 19 41  1  0
 20 42  1  0
 21 43  1  0
 27 44  1  0
 27 45  1  0
 27 46  1  0
 28 47  1  0
 28 48  1  0
 28 49  1  0
 29 50  1  0
 29 51  1  0
 29 52  1  0
 30 53  1  0
 31 54  1  0
M  CHG  2  10  -1  25  -1
M  END
>  <UniqueID>  (12) 
11

>  <SMILES>  (12) 
Cn1cc(C(=O)c2cc[n-]c(=NC(N)=O)c2)c(-c2cccc(C(=O)[N-]C(C)(C)C)c2)c1

>  <Energy>  (12) 
95.417698214336

>  <Genealogy>  (12) 
Cn1cc(C(=O)c2cc[n-]c(=NC(N)=O)c2)c(-c2cccc(C(=O)[N-]C(C)(C)C)c2)c1 (protonated)
Cn1cc(C(=O)c2cc[n-]c(=NC(N)=O)c2)c(-c2cccc(C(=O)[N-]C(C)(C)C)c2)c1 (3D coordinates assigned)
Cn1cc(C(=O)c2cc[n-]c(=NC(N)=O)c2)c(-c2cccc(C(=O)[N-]C(C)(C)C)c2)c1 (optimized conformer: 95.417698214336 kcal/mol)

>  <smiles>  (12) 
Cn1cc(C(=O)c2cc[nH]c(=NC(N)=O)c2)c(-c2cccc(C(=O)NC(C)(C)C)c2)c1

>  <score_type>  (12) 
oracle

>  <origin>  (12) 
adg

>  <m_score__min__energy>  (12) 
-12.710000000000001

>  <m_primary>  (12) 
energy

$$$$
12:0
     RDKit          3D

 71 74  0  0  1  0  0  0  0  0999 V2000
   64.8440   33.1820   49.8560 C   0  0  0  0  0  0  0  0  0  0  0  0
   63.7950   32.8750   48.8290 C   0  0  0  0  0  0  0  0  0  0  0  0
   63.7330   33.7130   47.7300 C   0  0  0  0  0  0  0  0  0  0  0  0
   62.8060   33.4930   46.7460 C   0  0  0  0  0  0  0  0  0  0  0  0
   61.9360   32.4340   46.8470 C   0  0  0  0  0  0  0  0  0  0  0  0
   62.0030   31.5890   47.9620 C   0  0  0  0  0  0  0  0  0  0  0  0
   61.0130   30.4420   48.0480 C   0  0  0  0  0  0  0  0  0  0  0  0
   60.8720   29.9440   46.7370 N   0  0  0  0  0  0  0  0  0  0  0  0
   59.8290   29.4540   46.2070 C   0  0  0  0  0  0  0  0  0  0  0  0
   59.4810   28.1440   46.4310 C   0  0  0  0  0  0  0  0  0  0  0  0
   58.3440   27.5640   45.8590 C   0  0  0  0  0  0  0  0  0  0  0  0
   57.9900   26.2060   46.1050 N   0  0  0  0  0  0  0  0  0  0  0  0
   57.9480   25.6530   47.4620 C   0  0  0  0  0  0  0  0  0  0  0  0
   56.9860   24.4570   47.3820 C   0  0  0  0  0  0  0  0  0  0  0  0
   57.7240   23.4310   46.6380 N   0  0  0  0  0  0  0  0  0  0  0  0
   57.0170   22.1630   46.6230 C   0  0  0  0  0  0  0  0  0  0  0  0
   58.0930   23.8850   45.3370 C   0  0  0  0  0  0  0  0  0  0  0  0
   57.6600   25.3030   45.0260 C   0  0  0  0  0  0  0  0  0  0  0  0
   57.6120   28.3710   45.0750 N   0  0  0  0  0  0  0  0  0  0  0  0
   57.9640   29.6710   44.8570 C   0  0  0  0  0  0  0  0  0  0  0  0
   57.1030   30.5160   43.9920 C   0  0  0  0  0  0  0  0  0  0  0  0
   57.4750   31.9580   44.1040 C   0  0  0  0  0  0  0  0  0  0  0  0
   58.5140   32.2690   43.4060 O   0  0  0  0  0  0  0  0  0  0  0  0
   56.7810   32.9040   44.8830 N   0  0  0  0  0  0  0  0  0  0  0  0
   57.2280   34.3020   44.9170 C   0  0  0  0  0  0  0  0  0  0  0  0
   58.6890   34.3840   45.2390 C   0  0  0  0  0  0  0  0  0  0  0  0
   58.8800   33.9920   46.6780 C   0  0  0  0  0  0  0  0  0  0  0  0
   59.6800   34.8370   47.4420 C   0  0  0  0  0  0  0  0  0  0  0  0
   59.9350   34.5780   48.7730 C   0  0  0  0  0  0  0  0  0  0  0  0
   59.3620   33.4450   49.3040 C   0  0  0  0  0  0  0  0  0  0  0  0
   58.5750   32.6080   48.5620 C   0  0  0  0  0  0  0  0  0  0  0  0
   58.3210   32.8700   47.2360 C   0  0  0  0  0  0  0  0  0  0  0  0
   59.0570   30.2050   45.4150 N   0  0  0  0  0  0  0  0  0  0  0  0
   62.9320   31.7990   48.9650 C   0  0  0  0  0  0  0  0  0  0  0  0
   63.0670   30.9470   50.1590 C   0  0  0  0  0  0  0  0  0  0  0  0
   64.4189   33.0576   50.8629 H   0  0  0  0  0  0  0  0  0  0  0  0
   65.6935   32.4948   49.7292 H   0  0  0  0  0  0  0  0  0  0  0  0
   65.1890   34.2188   49.7292 H   0  0  0  0  0  0  0  0  0  0  0  0
   64.4308   34.5592   47.6461 H   0  0  0  0  0  0  0  0  0  0  0  0
   62.7579   34.1636   45.8754 H   0  0  0  0  0  0  0  0  0  0  0  0
   61.1921   32.2512   46.0576 H   0  0  0  0  0  0  0  0  0  0  0  0
   61.3971   29.6561   48.7150 H   0  0  0  0  0  0  0  0  0  0  0  0
   60.0474   30.7761   48.4555 H   0  0  0  0  0  0  0  0  0  0  0  0
   60.1191   27.5296   47.0832 H   0  0  0  0  0  0  0  0  0  0  0  0
   58.9494   25.3220   47.7745 H   0  0  0  0  0  0  0  0  0  0  0  0
   57.6153   26.3987   48.1990 H   0  0  0  0  0  0  0  0  0  0  0  0
   56.7311   24.0968   48.3896 H   0  0  0  0  0  0  0  0  0  0  0  0
   56.0359   24.7205   46.8942 H   0  0  0  0  0  0  0  0  0  0  0  0
   56.8332   21.8334   47.6562 H   0  0  0  0  0  0  0  0  0  0  0  0
   56.0566   22.2848   46.1007 H   0  0  0  0  0  0  0  0  0  0  0  0
   57.6255   21.4101   46.1007 H   0  0  0  0  0  0  0  0  0  0  0  0
   59.1884   23.8326   45.2516 H   0  0  0  0  0  0  0  0  0  0  0  0
   57.5767   23.2327   44.6173 H   0  0  0  0  0  0  0  0  0  0  0  0
   58.1683   25.6393   44.1103 H   0  0  0  0  0  0  0  0  0  0  0  0
   56.5682   25.3091   44.8924 H   0  0  0  0  0  0  0  0  0  0  0  0
   57.2202   30.1954   42.9463 H   0  0  0  0  0  0  0  0  0  0  0  0
   56.0592   30.3990   44.3188 H   0  0  0  0  0  0  0  0  0  0  0  0
   55.9550   32.5800   45.4250 H   0  0  0  0  0  0  0  0  0  0  0  0
   57.0486   34.7623   43.9342 H   0  0  0  0  0  0  0  0  0  0  0  0
   56.6639   34.8344   45.6969 H   0  0  0  0  0  0  0  0  0  0  0  0
   59.2518   33.6978   44.5891 H   0  0  0  0  0  0  0  0  0  0  0  0
   59.0557   35.4079   45.0741 H   0  0  0  0  0  0  0  0  0  0  0  0
   60.1185   35.7309   46.9743 H   0  0  0  0  0  0  0  0  0  0  0  0
   60.5654   35.2445   49.3800 H   0  0  0  0  0  0  0  0  0  0  0  0
   59.5433   33.2042   50.3619 H   0  0  0  0  0  0  0  0  0  0  0  0
   58.1396   31.7138   49.0318 H   0  0  0  0  0  0  0  0  0  0  0  0
   57.6868   32.1982   46.6389 H   0  0  0  0  0  0  0  0  0  0  0  0
   59.2620   31.2010   45.2160 H   0  0  0  0  0  0  0  0  0  0  0  0
   62.9690   31.5652   51.0636 H   0  0  0  0  0  0  0  0  0  0  0  0
   62.2793   30.1792   50.1525 H   0  0  0  0  0  0  0  0  0  0  0  0
   64.0535   30.4603   50.1525 H   0  0  0  0  0  0  0  0  0  0  0  0
  1  2  1  0
  2  3  2  0
  3  4  1  0
  4  5  2  0
  5  6  1  0
  6  7  1  0
  7  8  1  0
  8  9  2  0
  9 10  1  0
 10 11  2  0
 11 12  1  0
 12 13  1  0
 13 14  1  0
 14 15  1  0
 15 16  1  0
 15 17  1  0
 17 18  1  0
 11 19  1  0
 19 20  2  0
 20 21  1  0
 21 22  1  0
 22 23  2  0
 22 24  1  0
 24 25  1  0
 25 26  1  0
 26 27  1  0
 27 28  2  0
 28 29  1  0
 29 30  2  0
 30 31  1  0
 31 32  2  0
 20 33  1  0
  6 34  2  0
 34 35  1  0
 34  2  1  0
 33  9  1  0
 18 12  1  0
 32 27  1  0
  1 36  1  0
  1 37  1  0
  1 38  1  0
  3 39  1  0
  4 40  1  0
  5 41  1  0
  7 42  1  0
  7 43  1  0
 10 44  1  0
 13 45  1  0
 13 46  1  0
 14 47  1  0
 14 48  1  0
 16 49  1  0
 16 50  1  0
 16 51  1  0
 17 52  1  0
 17 53  1  0
 18 54  1  0
 18 55  1  0
 21 56  1  0
 21 57  1  0
 24 58  1  0
 25 59  1  0
 25 60  1  0
 26 61  1  0
 26 62  1  0
 28 63  1  0
 29 64  1  0
 30 65  1  0
 31 66  1  0
 32 67  1  0
 33 68  1  0
 35 69  1  0
 35 70  1  0
 35 71  1  0
M  END
>  <smiles>  (13) 
Cc1cccc(CN=c2cc(N3CCN(C)CC3)nc(CC(=O)NCCc3ccccc3)[nH]2)c1C

>  <score_type>  (13) 
oracle

>  <origin>  (13) 
adg

>  <m_score__min__energy>  (13) 
-9.1799999999999997

>  <m_primary>  (13) 
energy

$$$$
13:0
     RDKit          3D

 50 52  0  0  0  0  0  0  0  0999 V2000
   56.9780   25.4300   46.3140 C   0  0  0  0  0  0  0  0  0  0  0  0
   56.0380   26.5450   45.9700 C   0  0  0  0  0  0  0  0  0  0  0  0
   54.7980   26.3370   46.0300 O   0  0  0  0  0  0  0  0  0  0  0  0
   56.5060   27.8530   45.6140 N   0  0  0  0  0  0  0  0  0  0  0  0
   57.8100   28.3950   45.8640 C   0  0  0  0  0  0  0  0  0  0  0  0
   58.5000   29.0070   44.8110 C   0  0  0  0  0  0  0  0  0  0  0  0
   59.7790   29.5290   45.0160 C   0  0  0  0  0  0  0  0  0  0  0  0
   60.3910   29.4190   46.2660 C   0  0  0  0  0  0  0  0  0  0  0  0
   59.7330   28.7610   47.3210 C   0  0  0  0  0  0  0  0  0  0  0  0
   60.3390   28.6300   48.6170 N   0  0  0  0  0  0  0  0  0  0  0  0
   59.6790   28.9640   49.8480 C   0  0  0  0  0  0  0  0  0  0  0  0
   58.5410   29.5090   49.8420 O   0  0  0  0  0  0  0  0  0  0  0  0
   60.3710   28.7320   51.1560 C   0  0  0  0  0  0  0  0  0  0  0  0
   62.0150   29.5310   51.1780 S   0  0  0  0  0  0  0  0  0  0  0  0
   61.5160   30.9370   50.1830 C   0  0  0  0  0  0  0  0  0  0  0  0
   62.2570   31.3120   49.0700 C   0  0  0  0  0  0  0  0  0  0  0  0
   61.8540   32.4320   48.3290 C   0  0  0  0  0  0  0  0  0  0  0  0
   62.6710   32.8110   47.1170 C   0  0  0  0  0  0  0  0  0  0  0  0
   60.7200   33.1280   48.7000 N   0  0  0  0  0  0  0  0  0  0  0  0
   60.2730   34.3350   47.9720 C   0  0  0  0  0  0  0  0  0  0  0  0
   59.3150   33.9580   46.8760 C   0  0  0  0  0  0  0  0  0  0  0  0
   58.7050   32.6950   46.8540 C   0  0  0  0  0  0  0  0  0  0  0  0
   57.7980   32.3880   45.8370 C   0  0  0  0  0  0  0  0  0  0  0  0
   57.5050   33.3390   44.8580 C   0  0  0  0  0  0  0  0  0  0  0  0
   58.1260   34.5880   44.9120 C   0  0  0  0  0  0  0  0  0  0  0  0
   59.0050   34.8690   45.9100 N   0  0  0  0  0  0  0  0  0  0  0  0
   60.0110   32.7180   49.8050 C   0  0  0  0  0  0  0  0  0  0  0  0
   58.9760   33.3380   50.1750 O   0  0  0  0  0  0  0  0  0  0  0  0
   60.4120   31.6400   50.5230 N   0  0  0  0  0  0  0  0  0  0  0  0
   58.4380   28.2590   47.1140 C   0  0  0  0  0  0  0  0  0  0  0  0
   57.0546   25.3392   47.4076 H   0  0  0  0  0  0  0  0  0  0  0  0
   56.5981   24.4872   45.8935 H   0  0  0  0  0  0  0  0  0  0  0  0
   57.9714   25.6450   45.8935 H   0  0  0  0  0  0  0  0  0  0  0  0
   58.0327   29.0771   43.8176 H   0  0  0  0  0  0  0  0  0  0  0  0
   60.3060   30.0285   44.1897 H   0  0  0  0  0  0  0  0  0  0  0  0
   61.3910   29.8483   46.4265 H   0  0  0  0  0  0  0  0  0  0  0  0
   61.3550   28.3920   48.6600 H   0  0  0  0  0  0  0  0  0  0  0  0
   59.7568   29.1503   51.9671 H   0  0  0  0  0  0  0  0  0  0  0  0
   60.5058   27.6490   51.2940 H   0  0  0  0  0  0  0  0  0  0  0  0
   63.1477   30.7384   48.7739 H   0  0  0  0  0  0  0  0  0  0  0  0
   63.6245   33.2533   47.4413 H   0  0  0  0  0  0  0  0  0  0  0  0
   62.8698   31.9131   46.5134 H   0  0  0  0  0  0  0  0  0  0  0  0
   62.1139   33.5426   46.5134 H   0  0  0  0  0  0  0  0  0  0  0  0
   59.7712   35.0172   48.6740 H   0  0  0  0  0  0  0  0  0  0  0  0
   61.1490   34.8298   47.5273 H   0  0  0  0  0  0  0  0  0  0  0  0
   58.9390   31.9525   47.6312 H   0  0  0  0  0  0  0  0  0  0  0  0
   57.3160   31.3997   45.8077 H   0  0  0  0  0  0  0  0  0  0  0  0
   56.7925   33.1067   44.0528 H   0  0  0  0  0  0  0  0  0  0  0  0
   57.9038   35.3456   44.1461 H   0  0  0  0  0  0  0  0  0  0  0  0
   57.9105   27.7550   47.9372 H   0  0  0  0  0  0  0  0  0  0  0  0
  1  2  1  0
  2  3  2  0
  2  4  1  0
  4  5  1  0
  5  6  2  0
  6  7  1  0
  7  8  2  0
  8  9  1  0
  9 10  1  0
 10 11  1  0
 11 12  2  0
 11 13  1  0
 13 14  1  0
 14 15  1  0
 15 16  1  0
 16 17  2  0
 17 18  1  0
 17 19  1  0
 19 20  1  0
 20 21  1  0
 21 22  2  0
 22 23  1  0
 23 24  2  0
 24 25  1  0
 25 26  2  0
 19 27  1  0
 27 28  2  0
 27 29  1  0
  9 30  2  0
 30  5  1  0
 29 15  2  0
 26 21  1  0
  1 31  1  0
  1 32  1  0
  1 33  1  0
  6 34  1  0
  7 35  1  0
  8 36  1  0
 10 37  1  0
 13 38  1  0
 13 39  1  0
 16 40  1  0
 18 41  1  0
 18 42  1  0
 18 43  1  0
 20 44  1  0
 20 45  1  0
 22 46  1  0
 23 47  1  0
 24 48  1  0
 25 49  1  0
 30 50  1  0
M  CHG  1   4  -1
M  END
>  <UniqueID>  (14) 
12

>  <SMILES>  (14) 
CC(=O)[N-]c1cccc(NC(=O)CSc2cc(C)n(Cc3ccccn3)c(=O)n2)c1

>  <Energy>  (14) 
58.36995931431254

>  <Genealogy>  (14) 
CC(=O)[N-]c1cccc(NC(=O)CSc2cc(C)n(Cc3ccccn3)c(=O)n2)c1 (protonated)
CC(=O)[N-]c1cccc(NC(=O)CSc2cc(C)n(Cc3ccccn3)c(=O)n2)c1 (3D coordinates assigned)
CC(=O)[N-]c1cccc(NC(=O)CSc2cc(C)n(Cc3ccccn3)c(=O)n2)c1 (optimized conformer: 58.36995931431254 kcal/mol)

>  <smiles>  (14) 
CC(=O)Nc1cccc(NC(=O)CSc2cc(C)n(Cc3ccccn3)c(=O)n2)c1

>  <score_type>  (14) 
oracle

>  <origin>  (14) 
adg

>  <m_score__min__energy>  (14) 
-11.25

>  <m_primary>  (14) 
energy

$$$$
14:0
     RDKit          3D

 60 64  0  0  0  0  0  0  0  0999 V2000
   64.0019   33.6794   46.0205 H   0  0  0  0  0  0  0  0  0  0  0  0
   63.0830   33.4500   46.5800 C   0  0  0  0  0  0  0  0  0  0  0  0
   61.9660   34.1960   46.3830 N   0  0  0  0  0  0  0  0  0  0  0  0
   60.8040   33.9490   47.0440 C   0  0  0  0  0  0  0  0  0  0  0  0
   59.4170   35.0490   46.7370 S   0  0  0  0  0  0  0  0  0  0  0  0
   58.5280   33.8150   45.7970 C   0  0  0  0  0  0  0  0  0  0  0  0
   57.0800   33.1020   46.2710 S   0  0  0  0  0  0  0  0  0  0  0  0
   57.0310   32.1240   44.9060 C   0  0  0  0  0  0  0  0  0  0  0  0
   56.1090   31.2330   44.6950 N   0  0  0  0  0  0  0  0  0  0  0  0
   56.3590   29.8420   44.4670 C   0  0  0  0  0  0  0  0  0  0  0  0
   55.5110   28.9950   44.8550 O   0  0  0  0  0  0  0  0  0  0  0  0
   57.5320   29.4140   43.7630 N   0  0  0  0  0  0  0  0  0  0  0  0
   58.0400   30.1040   43.1640 H   0  0  0  0  0  0  0  0  0  0  0  0
   58.2130   28.1610   44.0840 C   0  0  0  0  0  0  0  0  0  0  0  0
   57.4785   27.3432   44.1247 H   0  0  0  0  0  0  0  0  0  0  0  0
   58.9620   27.9390   43.3096 H   0  0  0  0  0  0  0  0  0  0  0  0
   58.8910   28.2940   45.4180 C   0  0  0  0  0  0  0  0  0  0  0  0
   59.8140   29.3290   45.6390 C   0  0  0  0  0  0  0  0  0  0  0  0
   60.0844   30.0077   44.8167 H   0  0  0  0  0  0  0  0  0  0  0  0
   60.3900   29.4990   46.9010 C   0  0  0  0  0  0  0  0  0  0  0  0
   61.1141   30.3098   47.0692 H   0  0  0  0  0  0  0  0  0  0  0  0
   60.0470   28.6390   47.9520 C   0  0  0  0  0  0  0  0  0  0  0  0
   60.5078   28.7699   48.9422 H   0  0  0  0  0  0  0  0  0  0  0  0
   59.1190   27.6140   47.7430 C   0  0  0  0  0  0  0  0  0  0  0  0
   58.8457   26.9427   48.5704 H   0  0  0  0  0  0  0  0  0  0  0  0
   58.5380   27.4420   46.4820 C   0  0  0  0  0  0  0  0  0  0  0  0
   57.8035   26.6391   46.3213 H   0  0  0  0  0  0  0  0  0  0  0  0
   58.0980   32.3150   44.0950 N   0  0  0  0  0  0  0  0  0  0  0  0
   58.9360   33.2640   44.5890 C   0  0  0  0  0  0  0  0  0  0  0  0
   59.8594   33.5700   44.0755 H   0  0  0  0  0  0  0  0  0  0  0  0
   60.7380   32.8840   47.9690 C   0  0  0  0  0  0  0  0  0  0  0  0
   59.5230   32.5750   48.7550 C   0  0  0  0  0  0  0  0  0  0  0  0
   58.7210   31.7100   48.3130 O   0  0  0  0  0  0  0  0  0  0  0  0
   59.2290   33.1940   50.0120 N   0  0  0  0  0  0  0  0  0  0  0  0
   58.5350   32.6400   51.1420 C   0  0  0  0  0  0  0  0  0  0  0  0
   58.7640   33.2070   52.4020 C   0  0  0  0  0  0  0  0  0  0  0  0
   59.4122   34.0911   52.4926 H   0  0  0  0  0  0  0  0  0  0  0  0
   58.1760   32.6590   53.5450 C   0  0  0  0  0  0  0  0  0  0  0  0
   58.3632   33.1110   54.5302 H   0  0  0  0  0  0  0  0  0  0  0  0
   57.3510   31.5380   53.4370 C   0  0  0  0  0  0  0  0  0  0  0  0
   56.8984   31.1015   54.3396 H   0  0  0  0  0  0  0  0  0  0  0  0
   57.0980   30.9680   52.1850 C   0  0  0  0  0  0  0  0  0  0  0  0
   56.2690   29.8410   52.1050 O   0  0  0  0  0  0  0  0  0  0  0  0
   54.8680   29.8770   52.2130 C   0  0  0  0  0  0  0  0  0  0  0  0
   54.2270   28.9320   53.0270 C   0  0  0  0  0  0  0  0  0  0  0  0
   54.8203   28.1656   53.5472 H   0  0  0  0  0  0  0  0  0  0  0  0
   52.8360   28.9590   53.1810 C   0  0  0  0  0  0  0  0  0  0  0  0
   52.3395   28.2074   53.8124 H   0  0  0  0  0  0  0  0  0  0  0  0
   52.0760   29.9380   52.5350 C   0  0  0  0  0  0  0  0  0  0  0  0
   50.9834   29.9595   52.6606 H   0  0  0  0  0  0  0  0  0  0  0  0
   52.7080   30.8910   51.7280 C   0  0  0  0  0  0  0  0  0  0  0  0
   52.1113   31.6645   51.2224 H   0  0  0  0  0  0  0  0  0  0  0  0
   54.0970   30.8620   51.5630 C   0  0  0  0  0  0  0  0  0  0  0  0
   54.5890   31.6101   50.9241 H   0  0  0  0  0  0  0  0  0  0  0  0
   57.7100   31.5040   51.0400 C   0  0  0  0  0  0  0  0  0  0  0  0
   57.5439   31.0341   50.0594 H   0  0  0  0  0  0  0  0  0  0  0  0
   61.8960   32.1200   48.1900 C   0  0  0  0  0  0  0  0  0  0  0  0
   61.8776   31.2988   48.9217 H   0  0  0  0  0  0  0  0  0  0  0  0
   63.0680   32.3960   47.4880 C   0  0  0  0  0  0  0  0  0  0  0  0
   63.9702   31.7879   47.6499 H   0  0  0  0  0  0  0  0  0  0  0  0
  1  2  1  0
  2  3  2  0
  3  4  1  0
  4  5  1  0
  5  6  1  0
  6  7  1  0
  7  8  1  0
  8  9  2  0
  9 10  1  0
 10 11  2  0
 10 12  1  0
 12 13  1  0
 12 14  1  0
 14 15  1  0
 14 16  1  0
 14 17  1  0
 17 18  2  0
 18 19  1  0
 18 20  1  0
 20 21  1  0
 20 22  2  0
 22 23  1  0
 22 24  1  0
 24 25  1  0
 24 26  2  0
 26 27  1  0
  8 28  1  0
 28 29  1  0
 29 30  1  0
  4 31  2  0
 31 32  1  0
 32 33  2  0
 32 34  1  0
 34 35  1  0
 35 36  2  0
 36 37  1  0
 36 38  1  0
 38 39  1  0
 38 40  2  0
 40 41  1  0
 40 42  1  0
 42 43  1  0
 43 44  1  0
 44 45  2  0
 45 46  1  0
 45 47  1  0
 47 48  1  0
 47 49  2  0
 49 50  1  0
 49 51  1  0
 51 52  1  0
 51 53  2  0
 53 54  1  0
 42 55  2  0
 55 56  1  0
 31 57  1  0
 57 58  1  0
 57 59  2  0
 59 60  1  0
 59  2  1  0
 29  6  2  0
 55 35  1  0
 26 17  1  0
 53 44  1  0
M  CHG  2  28  -1  34  -1
M  END
>  <UniqueID>  (15) 
13

>  <SMILES>  (15) 
O=C(/N=c1\[n-]cc(Sc2ncccc2C(=O)[N-]c2cccc(Oc3ccccc3)c2)s1)NCc1ccccc1

>  <Energy>  (15) 
109.24503913830657

>  <Genealogy>  (15) 
O=C(N=c1[n-]cc(Sc2ncccc2C(=O)[N-]c2cccc(Oc3ccccc3)c2)s1)NCc1ccccc1 (protonated)
O=C(/N=c1\[n-]cc(Sc2ncccc2C(=O)[N-]c2cccc(Oc3ccccc3)c2)s1)NCc1ccccc1 (cis-trans isomerization)
O=C(/N=c1\[n-]cc(Sc2ncccc2C(=O)[N-]c2cccc(Oc3ccccc3)c2)s1)NCc1ccccc1 (3D coordinates assigned)
O=C(/N=c1\[n-]cc(Sc2ncccc2C(=O)[N-]c2cccc(Oc3ccccc3)c2)s1)NCc1ccccc1 (optimized conformer: 109.24503913830657 kcal/mol)

>  <smiles>  (15) 
O=C(N=c1[nH]cc(Sc2ncccc2C(=O)Nc2cccc(Oc3ccccc3)c2)s1)NCc1ccccc1

>  <score_type>  (15) 
oracle

>  <origin>  (15) 
adg

>  <m_score__min__energy>  (15) 
-13.24

>  <m_primary>  (15) 
energy

$$$$
15:0
     RDKit          3D

 49 52  0  0  0  0  0  0  0  0999 V2000
   54.7760   29.2590   42.8630 H   0  0  0  0  0  0  0  0  0  0  0  0
   54.7880   29.3420   43.9050 N   0  0  0  0  0  0  0  0  0  0  0  0
   55.8610   29.6750   44.5430 C   0  0  0  0  0  0  0  0  0  0  0  0
   56.2740   30.9670   44.5410 N   0  0  0  0  0  0  0  0  0  0  0  0
   57.4020   31.3210   45.2080 C   0  0  0  0  0  0  0  0  0  0  0  0
   57.8390   32.6770   45.1990 N   0  0  0  0  0  0  0  0  0  0  0  0
   57.4640   33.9450   45.8490 C   0  0  0  0  0  0  0  0  0  0  0  0
   56.4449   34.2695   45.5919 H   0  0  0  0  0  0  0  0  0  0  0  0
   57.4311   33.9555   46.9485 H   0  0  0  0  0  0  0  0  0  0  0  0
   58.5190   34.7750   45.1890 C   0  0  0  0  0  0  0  0  0  0  0  0
   58.3134   35.7103   44.6477 H   0  0  0  0  0  0  0  0  0  0  0  0
   59.5260   35.2160   46.0990 O   0  0  0  0  0  0  0  0  0  0  0  0
   60.3150   34.3610   46.8820 C   0  0  0  0  0  0  0  0  0  0  0  0
   59.8640   34.0280   48.1660 C   0  0  0  0  0  0  0  0  0  0  0  0
   58.9103   34.4355   48.5326 H   0  0  0  0  0  0  0  0  0  0  0  0
   60.6180   33.1810   48.9850 C   0  0  0  0  0  0  0  0  0  0  0  0
   60.2565   32.9259   49.9921 H   0  0  0  0  0  0  0  0  0  0  0  0
   61.8310   32.6580   48.5250 C   0  0  0  0  0  0  0  0  0  0  0  0
   62.7760   31.5970   49.5530 Cl  0  0  0  0  0  0  0  0  0  0  0  0
   62.2890   32.9830   47.2450 C   0  0  0  0  0  0  0  0  0  0  0  0
   63.2429   32.5720   46.8829 H   0  0  0  0  0  0  0  0  0  0  0  0
   61.5370   33.8300   46.4230 C   0  0  0  0  0  0  0  0  0  0  0  0
   61.9008   34.0819   45.4159 H   0  0  0  0  0  0  0  0  0  0  0  0
   58.8840   33.4800   44.5390 C   0  0  0  0  0  0  0  0  0  0  0  0
   58.7718   33.5070   43.4451 H   0  0  0  0  0  0  0  0  0  0  0  0
   59.9239   33.1386   44.6491 H   0  0  0  0  0  0  0  0  0  0  0  0
   58.1150   30.3820   45.8800 N   0  0  0  0  0  0  0  0  0  0  0  0
   57.7030   29.0900   45.8950 C   0  0  0  0  0  0  0  0  0  0  0  0
   58.4170   28.2040   46.5270 N   0  0  0  0  0  0  0  0  0  0  0  0
   59.1330   28.3920   47.7600 C   0  0  0  0  0  0  0  0  0  0  0  0
   60.0900   27.4660   48.2150 C   0  0  0  0  0  0  0  0  0  0  0  0
   60.3178   26.5731   47.6143 H   0  0  0  0  0  0  0  0  0  0  0  0
   60.7510   27.6770   49.4260 C   0  0  0  0  0  0  0  0  0  0  0  0
   61.5135   26.9611   49.7666 H   0  0  0  0  0  0  0  0  0  0  0  0
   60.4470   28.7950   50.2070 C   0  0  0  0  0  0  0  0  0  0  0  0
   60.9868   28.9662   51.1500 H   0  0  0  0  0  0  0  0  0  0  0  0
   59.4580   29.7000   49.7960 C   0  0  0  0  0  0  0  0  0  0  0  0
   59.1650   30.8470   50.6130 N   0  0  0  0  0  0  0  0  0  0  0  0
   59.9370   31.5310   50.7850 H   0  0  0  0  0  0  0  0  0  0  0  0
   57.9310   31.0210   51.3310 C   0  0  0  0  0  0  0  0  0  0  0  0
   57.2250   30.0170   51.6190 O   0  0  0  0  0  0  0  0  0  0  0  0
   57.4890   32.3480   51.7970 C   0  0  0  0  0  0  0  0  0  0  0  0
   56.4089   32.5445   51.8657 H   0  0  0  0  0  0  0  0  0  0  0  0
   58.3320   33.3210   52.1390 C   0  0  0  0  0  0  0  0  0  0  0  0
   57.9425   34.2916   52.4798 H   0  0  0  0  0  0  0  0  0  0  0  0
   59.4177   33.1539   52.0806 H   0  0  0  0  0  0  0  0  0  0  0  0
   58.8090   29.4930   48.5640 C   0  0  0  0  0  0  0  0  0  0  0  0
   58.0390   30.2034   48.2288 H   0  0  0  0  0  0  0  0  0  0  0  0
   56.5770   28.7380   45.2160 N   0  0  0  0  0  0  0  0  0  0  0  0
  1  2  1  0
  2  3  2  0
  3  4  1  0
  4  5  1  0
  5  6  1  0
  6  7  1  0
  7  8  1  0
  7  9  1  0
  7 10  1  0
 10 11  1  0
 10 12  1  0
 12 13  1  0
 13 14  2  0
 14 15  1  0
 14 16  1  0
 16 17  1  0
 16 18  2  0
 18 19  1  0
 18 20  1  0
 20 21  1  0
 20 22  2  0
 22 23  1  0
 10 24  1  0
 24 25  1  0
 24 26  1  0
  5 27  2  0
 27 28  1  0
 28 29  2  3
 29 30  1  0
 30 31  2  0
 31 32  1  0
 31 33  1  0
 33 34  1  0
 33 35  2  0
 35 36  1  0
 35 37  1  0
 37 38  1  0
 38 39  1  0
 38 40  1  0
 40 41  2  0
 40 42  1  0
 42 43  1  0
 42 44  2  0
 44 45  1  0
 44 46  1  0
 37 47  2  0
 47 48  1  0
 28 49  1  0
 49  3  1  0
 24  6  1  0
 47 30  1  0
 22 13  1  0
M  CHG  2   4  -1  49  -1
M  END
>  <UniqueID>  (16) 
14

>  <SMILES>  (16) 
[H]/N=c1/[n-]c(N2CC(Oc3ccc(Cl)cc3)C2)nc(=Nc2cccc(NC(=O)C=C)c2)[n-]1

>  <Energy>  (16) 
105.59620378681893

>  <Genealogy>  (16) 
C=CC(=O)Nc1cccc(N=c2nc(N3CC(Oc4ccc(Cl)cc4)C3)[n-]c(=N)[n-]2)c1 (protonated)
[H]/N=c1/[n-]c(N2CC(Oc3ccc(Cl)cc3)C2)nc(=Nc2cccc(NC(=O)C=C)c2)[n-]1 (cis-trans isomerization)
[H]/N=c1/[n-]c(N2CC(Oc3ccc(Cl)cc3)C2)nc(=Nc2cccc(NC(=O)C=C)c2)[n-]1 (3D coordinates assigned)
[H]/N=c1/[n-]c(N2CC(Oc3ccc(Cl)cc3)C2)nc(=Nc2cccc(NC(=O)C=C)c2)[n-]1 (nonaromatic ring conformer: 105.59620378681893 kcal/mol)

>  <smiles>  (16) 
C=CC(=O)Nc1cccc(N=c2nc(N3CC(Oc4ccc(Cl)cc4)C3)[nH]c(=N)[nH]2)c1

>  <score_type>  (16) 
oracle

>  <origin>  (16) 
adg

>  <m_score__min__energy>  (16) 
-12.24

>  <m_primary>  (16) 
energy

$$$$
16:0
     RDKit          3D

 47 49  0  0  0  0  0  0  0  0999 V2000
   57.2550   22.2440   43.9040 C   0  0  0  0  0  0  0  0  0  0  0  0
   57.9550   22.7530   45.1680 C   0  0  0  0  0  0  0  0  0  0  0  0
   59.4730   22.5830   45.0560 C   0  0  0  0  0  0  0  0  0  0  0  0
   57.6040   24.2000   45.4200 C   0  0  0  0  0  0  0  0  0  0  0  0
   56.2720   24.5980   45.5890 C   0  0  0  0  0  0  0  0  0  0  0  0
   56.0050   25.9460   45.8300 C   0  0  0  0  0  0  0  0  0  0  0  0
   54.8190   26.3370   45.9910 O   0  0  0  0  0  0  0  0  0  0  0  0
   57.0250   26.8370   45.8940 N   0  0  0  0  0  0  0  0  0  0  0  0
   58.3160   26.4450   45.7200 C   0  0  0  0  0  0  0  0  0  0  0  0
   59.4490   27.4390   45.8300 C   0  0  2  0  0  0  0  0  0  0  0  0
   59.2230   28.3970   47.0120 C   0  0  0  0  0  0  0  0  0  0  0  0
   58.1470   29.4690   46.7280 C   0  0  0  0  0  0  0  0  0  0  0  0
   58.0910   29.9060   45.3040 N   0  0  1  0  0  0  0  0  0  0  0  0
   57.7020   31.3010   45.2170 C   0  0  0  0  0  0  0  0  0  0  0  0
   56.5490   31.6000   44.7960 O   0  0  0  0  0  0  0  0  0  0  0  0
   58.6050   32.3950   45.6560 C   0  0  0  0  0  0  0  0  0  0  0  0
   59.6750   32.0930   46.5170 C   0  0  0  0  0  0  0  0  0  0  0  0
   60.5480   33.0980   46.9450 C   0  0  0  0  0  0  0  0  0  0  0  0
   60.3570   34.4150   46.5280 C   0  0  0  0  0  0  0  0  0  0  0  0
   59.2880   34.7330   45.6880 C   0  0  0  0  0  0  0  0  0  0  0  0
   58.4100   33.7340   45.2540 C   0  0  0  0  0  0  0  0  0  0  0  0
   57.3510   34.0910   44.4850 F   0  0  0  0  0  0  0  0  0  0  0  0
   59.3680   29.6980   44.5930 C   0  0  0  0  0  0  0  0  0  0  0  0
   59.7070   28.1990   44.5020 C   0  0  0  0  0  0  0  0  0  0  0  0
   58.5930   25.1330   45.4950 N   0  0  0  0  0  0  0  0  0  0  0  0
   56.3954   21.6189   44.1874 H   0  0  0  0  0  0  0  0  0  0  0  0
   56.9053   23.1002   43.3085 H   0  0  0  0  0  0  0  0  0  0  0  0
   57.9617   21.6474   43.3085 H   0  0  0  0  0  0  0  0  0  0  0  0
   57.6034   22.1530   46.0202 H   0  0  0  0  0  0  0  0  0  0  0  0
   59.9118   22.5339   46.0635 H   0  0  0  0  0  0  0  0  0  0  0  0
   59.6988   21.6540   44.5120 H   0  0  0  0  0  0  0  0  0  0  0  0
   59.8987   23.4391   44.5120 H   0  0  0  0  0  0  0  0  0  0  0  0
   55.4545   23.8642   45.5330 H   0  0  0  0  0  0  0  0  0  0  0  0
   60.3670   26.8673   46.0313 H   0  0  0  0  0  0  0  0  0  0  0  0
   58.9072   27.8070   47.8850 H   0  0  0  0  0  0  0  0  0  0  0  0
   60.1713   28.9246   47.1918 H   0  0  0  0  0  0  0  0  0  0  0  0
   57.1653   29.0555   47.0023 H   0  0  0  0  0  0  0  0  0  0  0  0
   58.4135   30.3546   47.3236 H   0  0  0  0  0  0  0  0  0  0  0  0
   57.3750   29.3330   44.8020 H   0  0  0  0  0  0  0  0  0  0  0  0
   59.8265   31.0578   46.8566 H   0  0  0  0  0  0  0  0  0  0  0  0
   61.3868   32.8494   47.6117 H   0  0  0  0  0  0  0  0  0  0  0  0
   61.0484   35.2031   46.8608 H   0  0  0  0  0  0  0  0  0  0  0  0
   59.1355   35.7737   45.3660 H   0  0  0  0  0  0  0  0  0  0  0  0
   59.2862   30.1113   43.5769 H   0  0  0  0  0  0  0  0  0  0  0  0
   60.1682   30.2066   45.1507 H   0  0  0  0  0  0  0  0  0  0  0  0
   59.0883   27.7466   43.7130 H   0  0  0  0  0  0  0  0  0  0  0  0
   60.7809   28.1168   44.2783 H   0  0  0  0  0  0  0  0  0  0  0  0
  1  2  1  0
  2  3  1  0
  2  4  1  0
  4  5  2  0
  5  6  1  0
  6  7  2  0
  6  8  1  0
  8  9  1  0
  9 10  1  0
 10 11  1  0
 11 12  1  0
 12 13  1  0
 13 14  1  0
 14 15  2  0
 14 16  1  0
 16 17  2  0
 17 18  1  0
 18 19  2  0
 19 20  1  0
 20 21  2  0
 21 22  1  0
 13 23  1  0
 23 24  1  0
  9 25  2  0
 25  4  1  0
 24 10  1  0
 21 16  1  0
  1 26  1  0
  1 27  1  0
  1 28  1  0
  2 29  1  0
  3 30  1  0
  3 31  1  0
  3 32  1  0
  5 33  1  0
 10 34  1  1
 11 35  1  0
 11 36  1  0
 12 37  1  0
 12 38  1  0
 13 39  1  6
 17 40  1  0
 18 41  1  0
 19 42  1  0
 20 43  1  0
 23 44  1  0
 23 45  1  0
 24 46  1  0
 24 47  1  0
M  CHG  2   8  -1  13   1
M  END
>  <UniqueID>  (17) 
15

>  <SMILES>  (17) 
CC(C)c1cc(=O)[n-]c(C2CC[NH+](C(=O)c3ccccc3F)CC2)n1

>  <Energy>  (17) 
58.8324811257097

>  <Genealogy>  (17) 
CC(C)c1cc(=O)[n-]c(C2CC[NH+](C(=O)c3ccccc3F)CC2)n1 (protonated)
CC(C)c1cc(=O)[n-]c(C2CC[NH+](C(=O)c3ccccc3F)CC2)n1 (3D coordinates assigned)
CC(C)c1cc(=O)[n-]c(C2CC[NH+](C(=O)c3ccccc3F)CC2)n1 (nonaromatic ring conformer: 58.8324811257097 kcal/mol)

>  <smiles>  (17) 
CC(C)c1cc(=O)[nH]c(C2CCN(C(=O)c3ccccc3F)CC2)n1

>  <score_type>  (17) 
oracle

>  <origin>  (17) 
adg

>  <m_score__min__energy>  (17) 
-8.3499999999999996

>  <m_primary>  (17) 
energy

$$$$
17:0
     RDKit          3D

 80 84  0  0  0  0  0  0  0  0999 V2000
   55.1470   29.3350   44.8420 N   0  0  0  0  0  0  0  0  0  0  0  0
   56.5590   29.2900   45.0400 C   0  0  0  0  0  0  0  0  0  0  0  0
   57.0240   29.2700   46.2120 O   0  0  0  0  0  0  0  0  0  0  0  0
   57.4710   29.2400   43.8400 C   0  0  2  0  0  0  0  0  0  0  0  0
   58.1000   27.8410   43.6890 C   0  0  0  0  0  0  0  0  0  0  0  0
   58.4030   27.2160   45.0210 C   0  0  0  0  0  0  0  0  0  0  0  0
   59.5280   27.4410   45.8110 C   0  0  0  0  0  0  0  0  0  0  0  0
   59.4740   26.6850   46.9320 N   0  0  0  0  0  0  0  0  0  0  0  0
   58.3280   25.9840   46.8530 C   0  0  0  0  0  0  0  0  0  0  0  0
   57.8330   25.0720   47.7830 C   0  0  0  0  0  0  0  0  0  0  0  0
   56.6100   24.4430   47.4970 C   0  0  0  0  0  0  0  0  0  0  0  0
   55.9120   24.7390   46.3020 C   0  0  0  0  0  0  0  0  0  0  0  0
   56.4360   25.6690   45.3840 C   0  0  0  0  0  0  0  0  0  0  0  0
   57.6500   26.2780   45.6960 C   0  0  0  0  0  0  0  0  0  0  0  0
   58.4750   30.3120   43.8860 N   0  0  0  0  0  0  0  0  0  0  0  0
   58.4260   31.4920   44.6990 C   0  0  0  0  0  0  0  0  0  0  0  0
   58.1130   32.6010   44.1930 O   0  0  0  0  0  0  0  0  0  0  0  0
   58.7240   31.3860   46.0970 N   0  0  0  0  0  0  0  0  0  0  0  0
   58.6970   32.5270   47.0260 C   0  0  2  0  0  0  0  0  0  0  0  0
   59.8980   33.4860   46.8130 C   0  0  0  0  0  0  0  0  0  0  0  0
   61.0980   33.0580   47.6260 C   0  0  0  0  0  0  0  0  0  0  0  0
   61.9800   32.0900   47.1160 C   0  0  0  0  0  0  0  0  0  0  0  0
   63.1320   31.7420   47.8240 C   0  0  0  0  0  0  0  0  0  0  0  0
   63.4190   32.3530   49.0540 C   0  0  0  0  0  0  0  0  0  0  0  0
   64.6960   32.0300   49.7800 C   0  0  0  0  0  0  0  0  0  0  0  0
   65.6800   33.0790   49.5350 N   0  0  0  0  0  0  0  0  0  0  0  0
   62.5430   33.3260   49.5630 C   0  0  0  0  0  0  0  0  0  0  0  0
   61.3860   33.6690   48.8570 C   0  0  0  0  0  0  0  0  0  0  0  0
   58.6000   32.0440   48.4670 C   0  0  0  0  0  0  0  0  0  0  0  0
   57.7480   32.5970   49.2180 O   0  0  0  0  0  0  0  0  0  0  0  0
   59.4630   31.0220   49.0210 N   0  0  0  0  0  0  0  0  0  0  0  0
   59.7400   31.0390   50.4670 C   0  0  0  0  0  0  0  0  0  0  0  0
   60.9790   30.1900   50.8000 C   0  0  0  0  0  0  0  0  0  0  0  0
   60.8960   28.8090   50.2600 N   0  0  0  0  0  0  0  0  0  0  0  0
   60.6460   27.7730   51.2840 C   0  0  0  0  0  0  0  0  0  0  0  0
   61.9450   27.0890   51.6070 C   0  0  0  0  0  0  0  0  0  0  0  0
   62.0450   25.6860   51.5630 C   0  0  0  0  0  0  0  0  0  0  0  0
   63.2310   25.0500   51.9450 C   0  0  0  0  0  0  0  0  0  0  0  0
   64.3190   25.8100   52.3860 C   0  0  0  0  0  0  0  0  0  0  0  0
   64.2240   27.2030   52.4400 C   0  0  0  0  0  0  0  0  0  0  0  0
   63.0410   27.8410   52.0570 C   0  0  0  0  0  0  0  0  0  0  0  0
   60.0360   28.6480   49.0660 C   0  0  0  0  0  0  0  0  0  0  0  0
   60.0080   29.9200   48.2180 C   0  0  0  0  0  0  0  0  0  0  0  0
   54.4890   29.3490   45.6560 H   0  0  0  0  0  0  0  0  0  0  0  0
   56.8685   29.4195   42.9373 H   0  0  0  0  0  0  0  0  0  0  0  0
   57.3985   27.1928   43.1434 H   0  0  0  0  0  0  0  0  0  0  0  0
   59.0472   27.9506   43.1406 H   0  0  0  0  0  0  0  0  0  0  0  0
   60.3440   28.1344   45.5594 H   0  0  0  0  0  0  0  0  0  0  0  0
   60.1810   26.6550   47.7000 H   0  0  0  0  0  0  0  0  0  0  0  0
   58.3819   24.8519   48.7105 H   0  0  0  0  0  0  0  0  0  0  0  0
   56.1916   23.7148   48.2073 H   0  0  0  0  0  0  0  0  0  0  0  0
   54.9551   24.2399   46.0893 H   0  0  0  0  0  0  0  0  0  0  0  0
   55.9044   25.9071   44.4509 H   0  0  0  0  0  0  0  0  0  0  0  0
   58.7930   30.4170   46.4820 H   0  0  0  0  0  0  0  0  0  0  0  0
   57.7938   33.1150   46.8058 H   0  0  0  0  0  0  0  0  0  0  0  0
   60.1701   33.4872   45.7472 H   0  0  0  0  0  0  0  0  0  0  0  0
   59.5992   34.4924   47.1414 H   0  0  0  0  0  0  0  0  0  0  0  0
   61.7616   31.6038   46.1537 H   0  0  0  0  0  0  0  0  0  0  0  0
   63.8179   30.9852   47.4155 H   0  0  0  0  0  0  0  0  0  0  0  0
   64.4956   31.9615   50.8594 H   0  0  0  0  0  0  0  0  0  0  0  0
   65.0892   31.0695   49.4156 H   0  0  0  0  0  0  0  0  0  0  0  0
   66.0240   32.9780   48.5500 H   0  0  0  0  0  0  0  0  0  0  0  0
   65.1890   34.0020   49.5870 H   0  0  0  0  0  0  0  0  0  0  0  0
   62.7680   33.8196   50.5200 H   0  0  0  0  0  0  0  0  0  0  0  0
   60.6974   34.4218   49.2682 H   0  0  0  0  0  0  0  0  0  0  0  0
   59.9178   32.0762   50.7872 H   0  0  0  0  0  0  0  0  0  0  0  0
   58.8727   30.6164   50.9954 H   0  0  0  0  0  0  0  0  0  0  0  0
   61.8659   30.6810   50.3730 H   0  0  0  0  0  0  0  0  0  0  0  0
   61.0412   30.1127   51.8955 H   0  0  0  0  0  0  0  0  0  0  0  0
   60.2388   28.2413   52.1922 H   0  0  0  0  0  0  0  0  0  0  0  0
   59.9208   27.0385   50.9038 H   0  0  0  0  0  0  0  0  0  0  0  0
   61.1863   25.0864   51.2266 H   0  0  0  0  0  0  0  0  0  0  0  0
   63.3077   23.9537   51.8986 H   0  0  0  0  0  0  0  0  0  0  0  0
   65.2505   25.3106   52.6907 H   0  0  0  0  0  0  0  0  0  0  0  0
   65.0821   27.7987   52.7847 H   0  0  0  0  0  0  0  0  0  0  0  0
   62.9687   28.9374   52.1085 H   0  0  0  0  0  0  0  0  0  0  0  0
   60.4246   27.8199   48.4550 H   0  0  0  0  0  0  0  0  0  0  0  0
   59.0111   28.4378   49.4056 H   0  0  0  0  0  0  0  0  0  0  0  0
   61.0294   30.1698   47.8951 H   0  0  0  0  0  0  0  0  0  0  0  0
   59.3764   29.7602   47.3317 H   0  0  0  0  0  0  0  0  0  0  0  0
  1  2  1  0
  2  3  2  0
  2  4  1  0
  4  5  1  0
  5  6  1  0
  6  7  2  0
  7  8  1  0
  8  9  1  0
  9 10  2  0
 10 11  1  0
 11 12  2  0
 12 13  1  0
 13 14  2  0
  4 15  1  0
 15 16  1  0
 16 17  2  0
 16 18  1  0
 18 19  1  0
 19 20  1  0
 20 21  1  0
 21 22  2  0
 22 23  1  0
 23 24  2  0
 24 25  1  0
 25 26  1  0
 24 27  1  0
 27 28  2  0
 19 29  1  0
 29 30  2  0
 29 31  1  0
 31 32  1  0
 32 33  1  0
 33 34  1  0
 34 35  1  0
 35 36  1  0
 36 37  2  0
 37 38  1  0
 38 39  2  0
 39 40  1  0
 40 41  2  0
 34 42  1  0
 42 43  1  0
 14  6  1  0
 28 21  1  0
 43 31  1  0
 14  9  1  0
 41 36  1  0
  1 44  1  0
  4 45  1  6
  5 46  1  0
  5 47  1  0
  7 48  1  0
  8 49  1  0
 10 50  1  0
 11 51  1  0
 12 52  1  0
 13 53  1  0
 18 54  1  0
 19 55  1  6
 20 56  1  0
 20 57  1  0
 22 58  1  0
 23 59  1  0
 25 60  1  0
 25 61  1  0
 26 62  1  0
 26 63  1  0
 27 64  1  0
 28 65  1  0
 32 66  1  0
 32 67  1  0
 33 68  1  0
 33 69  1  0
 35 70  1  0
 35 71  1  0
 37 72  1  0
 38 73  1  0
 39 74  1  0
 40 75  1  0
 41 76  1  0
 42 77  1  0
 42 78  1  0
 43 79  1  0
 43 80  1  0
M  CHG  2   1  -1  15  -1
M  END
>  <UniqueID>  (18) 
16

>  <SMILES>  (18) 
[NH-]C(=O)[C@H](Cc1c[nH]c2ccccc12)[N-]C(=O)N[C@H](Cc1ccc(CN)cc1)C(=O)N1CCN(Cc2ccccc2)CC1

>  <Energy>  (18) 
122.9067742100537

>  <Genealogy>  (18) 
[NH-]C(=O)C(Cc1c[nH]c2ccccc12)[N-]C(=O)NC(Cc1ccc(CN)cc1)C(=O)N1CCN(Cc2ccccc2)CC1 (protonated)
[NH-]C(=O)[C@H](Cc1c[nH]c2ccccc12)[N-]C(=O)N[C@H](Cc1ccc(CN)cc1)C(=O)N1CCN(Cc2ccccc2)CC1 (chirality)
[NH-]C(=O)[C@H](Cc1c[nH]c2ccccc12)[N-]C(=O)N[C@H](Cc1ccc(CN)cc1)C(=O)N1CCN(Cc2ccccc2)CC1 (3D coordinates assigned)
[NH-]C(=O)[C@H](Cc1c[nH]c2ccccc12)[N-]C(=O)N[C@H](Cc1ccc(CN)cc1)C(=O)N1CCN(Cc2ccccc2)CC1 (nonaromatic ring conformer: 122.9067742100537 kcal/mol)

>  <smiles>  (18) 
NCc1ccc(CC(NC(=O)NC(Cc2c[nH]c3ccccc23)C(N)=O)C(=O)N2CCN(Cc3ccccc3)CC2)cc1

>  <score_type>  (18) 
oracle

>  <origin>  (18) 
adg

>  <m_score__min__energy>  (18) 
-15.84

>  <m_primary>  (18) 
energy

$$$$
18:0
     RDKit          3D

 62 65  0  0  0  0  0  0  0  0999 V2000
   68.1150   33.4200   50.5540 C   0  0  0  0  0  0  0  0  0  0  0  0
   66.7970   32.7500   50.3750 C   0  0  0  0  0  0  0  0  0  0  0  0
   66.3110   31.7120   51.1440 C   0  0  0  0  0  0  0  0  0  0  0  0
   65.0580   31.4310   50.6410 C   0  0  0  0  0  0  0  0  0  0  0  0
   64.8560   32.3250   49.6080 C   0  0  0  0  0  0  0  0  0  0  0  0
   63.6460   32.4060   48.7680 C   0  0  0  0  0  0  0  0  0  0  0  0
   63.5900   31.7060   47.7210 O   0  0  0  0  0  0  0  0  0  0  0  0
   62.5400   33.2710   49.1060 N   0  0  0  0  0  0  0  0  0  0  0  0
   62.2190   33.5840   50.5070 C   0  0  0  0  0  0  0  0  0  0  0  0
   60.7060   33.4900   50.8000 C   0  0  0  0  0  0  0  0  0  0  0  0
   59.8090   33.4870   49.5440 C   0  0  0  0  0  0  0  0  0  0  0  0
   59.5410   32.0700   49.0840 C   0  0  0  0  0  0  0  0  0  0  0  0
   58.4830   31.4750   49.4230 O   0  0  0  0  0  0  0  0  0  0  0  0
   60.4440   31.4330   48.1690 N   0  0  0  0  0  0  0  0  0  0  0  0
   59.9910   30.5220   47.1560 C   0  0  0  0  0  0  0  0  0  0  0  0
   60.6440   29.2990   46.9750 C   0  0  0  0  0  0  0  0  0  0  0  0
   60.2090   28.4060   45.9950 C   0  0  0  0  0  0  0  0  0  0  0  0
   59.1260   28.7280   45.1590 C   0  0  0  0  0  0  0  0  0  0  0  0
   58.6860   27.7280   44.1220 C   0  0  0  0  0  0  0  0  0  0  0  0
   58.4630   29.9680   45.3310 C   0  0  0  0  0  0  0  0  0  0  0  0
   57.0900   30.4510   44.3160 S   0  0  0  0  0  0  0  0  0  0  0  0
   55.8100   29.9110   44.8940 O   0  0  0  0  0  0  0  0  0  0  0  0
   57.2930   29.8880   42.9370 O   0  0  0  0  0  0  0  0  0  0  0  0
   56.9810   32.1950   44.2170 N   0  0  0  0  0  0  0  0  0  0  0  0
   56.7580   32.7660   45.5570 C   0  0  0  0  0  0  0  0  0  0  0  0
   57.1370   34.2550   45.5770 C   0  0  0  0  0  0  0  0  0  0  0  0
   58.4990   34.5110   45.2650 O   0  0  0  0  0  0  0  0  0  0  0  0
   59.1180   33.4750   44.5140 C   0  0  0  0  0  0  0  0  0  0  0  0
   58.1610   32.7730   43.5340 C   0  0  0  0  0  0  0  0  0  0  0  0
   58.9220   30.8600   46.3130 C   0  0  0  0  0  0  0  0  0  0  0  0
   60.4030   34.3870   48.4440 C   0  0  0  0  0  0  0  0  0  0  0  0
   61.8150   33.9490   48.0180 C   0  0  0  0  0  0  0  0  0  0  0  0
   65.9120   33.0950   49.4690 O   0  0  0  0  0  0  0  0  0  0  0  0
   68.3284   33.5285   51.6276 H   0  0  0  0  0  0  0  0  0  0  0  0
   68.9020   32.8126   50.0833 H   0  0  0  0  0  0  0  0  0  0  0  0
   68.0880   34.4138   50.0833 H   0  0  0  0  0  0  0  0  0  0  0  0
   66.8175   31.2129   51.9832 H   0  0  0  0  0  0  0  0  0  0  0  0
   64.3622   30.6541   50.9908 H   0  0  0  0  0  0  0  0  0  0  0  0
   62.7496   32.8736   51.1580 H   0  0  0  0  0  0  0  0  0  0  0  0
   62.5339   34.6202   50.6995 H   0  0  0  0  0  0  0  0  0  0  0  0
   60.5211   32.5592   51.3563 H   0  0  0  0  0  0  0  0  0  0  0  0
   60.4416   34.3924   51.3707 H   0  0  0  0  0  0  0  0  0  0  0  0
   58.8303   33.9206   49.7971 H   0  0  0  0  0  0  0  0  0  0  0  0
   61.4670   31.6320   48.2490 H   0  0  0  0  0  0  0  0  0  0  0  0
   61.5051   29.0395   47.6084 H   0  0  0  0  0  0  0  0  0  0  0  0
   60.7195   27.4390   45.8754 H   0  0  0  0  0  0  0  0  0  0  0  0
   58.2914   26.8311   44.6218 H   0  0  0  0  0  0  0  0  0  0  0  0
   57.9006   28.1731   43.4935 H   0  0  0  0  0  0  0  0  0  0  0  0
   59.5448   27.4496   43.4935 H   0  0  0  0  0  0  0  0  0  0  0  0
   55.6963   32.6590   45.8240 H   0  0  0  0  0  0  0  0  0  0  0  0
   57.3872   32.2288   46.2820 H   0  0  0  0  0  0  0  0  0  0  0  0
   56.5096   34.7811   44.8424 H   0  0  0  0  0  0  0  0  0  0  0  0
   56.9751   34.6098   46.6056 H   0  0  0  0  0  0  0  0  0  0  0  0
   59.9484   33.9102   43.9386 H   0  0  0  0  0  0  0  0  0  0  0  0
   59.4616   32.7154   45.2316 H   0  0  0  0  0  0  0  0  0  0  0  0
   57.8153   33.5065   42.7907 H   0  0  0  0  0  0  0  0  0  0  0  0
   58.7120   31.9481   43.0586 H   0  0  0  0  0  0  0  0  0  0  0  0
   58.4353   31.8403   46.4232 H   0  0  0  0  0  0  0  0  0  0  0  0
   59.7429   34.3508   47.5648 H   0  0  0  0  0  0  0  0  0  0  0  0
   60.4797   35.4053   48.8528 H   0  0  0  0  0  0  0  0  0  0  0  0
   61.7296   33.2590   47.1656 H   0  0  0  0  0  0  0  0  0  0  0  0
   62.3811   34.8524   47.7472 H   0  0  0  0  0  0  0  0  0  0  0  0
  1  2  1  0
  2  3  2  0
  3  4  1  0
  4  5  2  0
  5  6  1  0
  6  7  2  0
  6  8  1  0
  8  9  1  0
  9 10  1  0
 10 11  1  0
 11 12  1  0
 12 13  2  0
 12 14  1  0
 14 15  1  0
 15 16  2  0
 16 17  1  0
 17 18  2  0
 18 19  1  0
 18 20  1  0
 20 21  1  0
 21 22  2  0
 21 23  2  0
 21 24  1  0
 24 25  1  0
 25 26  1  0
 26 27  1  0
 27 28  1  0
 28 29  1  0
 20 30  2  0
 11 31  1  0
 31 32  1  0
  5 33  1  0
 33  2  1  0
 32  8  1  0
 30 15  1  0
 29 24  1  0
  1 34  1  0
  1 35  1  0
  1 36  1  0
  3 37  1  0
  4 38  1  0
  9 39  1  0
  9 40  1  0
 10 41  1  0
 10 42  1  0
 11 43  1  0
 14 44  1  0
 16 45  1  0
 17 46  1  0
 19 47  1  0
 19 48  1  0
 19 49  1  0
 25 50  1  0
 25 51  1  0
 26 52  1  0
 26 53  1  0
 28 54  1  0
 28 55  1  0
 29 56  1  0
 29 57  1  0
 30 58  1  0
 31 59  1  0
 31 60  1  0
 32 61  1  0
 32 62  1  0
M  END
>  <UniqueID>  (19) 
17

>  <SMILES>  (19) 
Cc1ccc(C(=O)N2CCC(C(=O)Nc3ccc(C)c(S(=O)(=O)N4CCOCC4)c3)CC2)o1

>  <Energy>  (19) 
109.47128320153772

>  <Genealogy>  (19) 
Cc1ccc(C(=O)N2CCC(C(=O)Nc3ccc(C)c(S(=O)(=O)N4CCOCC4)c3)CC2)o1 (3D coordinates assigned)
Cc1ccc(C(=O)N2CCC(C(=O)Nc3ccc(C)c(S(=O)(=O)N4CCOCC4)c3)CC2)o1 (nonaromatic ring conformer: 109.47128320153772 kcal/mol)

>  <smiles>  (19) 
Cc1ccc(C(=O)N2CCC(C(=O)Nc3ccc(C)c(S(=O)(=O)N4CCOCC4)c3)CC2)o1

>  <score_type>  (19) 
oracle

>  <origin>  (19) 
adg

>  <m_score__min__energy>  (19) 
-9.8699999999999992

>  <m_primary>  (19) 
energy

$$$$
19:0
     RDKit          3D

 48 50  0  0  0  0  0  0  0  0999 V2000
   55.2260   23.3520   44.0000 C   0  0  0  0  0  0  0  0  0  0  0  0
   54.7990   24.0370   45.3120 C   0  0  0  0  0  0  0  0  0  0  0  0
   53.3140   24.4280   45.2670 C   0  0  0  0  0  0  0  0  0  0  0  0
   55.6410   25.2550   45.6000 C   0  0  0  0  0  0  0  0  0  0  0  0
   55.0930   26.3230   45.9950 O   0  0  0  0  0  0  0  0  0  0  0  0
   57.0420   25.2400   45.3360 N   0  0  0  0  0  0  0  0  0  0  0  0
   58.1750   25.8830   46.4730 S   0  0  0  0  0  0  0  0  0  0  0  0
   57.7640   25.4830   47.8620 O   0  0  0  0  0  0  0  0  0  0  0  0
   59.5440   25.3360   46.1910 O   0  0  0  0  0  0  0  0  0  0  0  0
   58.1770   27.6350   46.3180 C   0  0  0  0  0  0  0  0  0  0  0  0
   58.7190   28.4130   47.3480 C   0  0  0  0  0  0  0  0  0  0  0  0
   58.7840   29.8020   47.2260 C   0  0  0  0  0  0  0  0  0  0  0  0
   58.3090   30.4320   46.0660 C   0  0  0  0  0  0  0  0  0  0  0  0
   58.3890   31.8250   45.9280 C   0  0  0  0  0  0  0  0  0  0  0  0
   57.9210   32.4550   44.7700 C   0  0  0  0  0  0  0  0  0  0  0  0
   58.0330   33.8520   44.6870 O   0  0  0  0  0  0  0  0  0  0  0  0
   59.2420   34.5960   44.8390 C   0  0  0  0  0  0  0  0  0  0  0  0
   59.8340   34.3850   46.2080 C   0  0  0  0  0  0  0  0  0  0  0  0
   59.0840   34.6790   47.3610 C   0  0  0  0  0  0  0  0  0  0  0  0
   59.6350   34.4760   48.6290 C   0  0  0  0  0  0  0  0  0  0  0  0
   60.9310   33.9730   48.7580 C   0  0  0  0  0  0  0  0  0  0  0  0
   61.6800   33.6610   47.6150 C   0  0  0  0  0  0  0  0  0  0  0  0
   63.0070   33.1220   47.7490 C   0  0  0  0  0  0  0  0  0  0  0  0
   64.0750   32.6880   47.8580 N   0  0  0  0  0  0  0  0  0  0  0  0
   61.1310   33.8640   46.3430 C   0  0  0  0  0  0  0  0  0  0  0  0
   57.3570   31.6750   43.7430 C   0  0  0  0  0  0  0  0  0  0  0  0
   57.2760   30.2850   43.8710 C   0  0  0  0  0  0  0  0  0  0  0  0
   57.7520   29.6530   45.0270 C   0  0  0  0  0  0  0  0  0  0  0  0
   57.6860   28.2570   45.1610 C   0  0  0  0  0  0  0  0  0  0  0  0
   55.7949   22.4394   44.2312 H   0  0  0  0  0  0  0  0  0  0  0  0
   54.3318   23.0886   43.4160 H   0  0  0  0  0  0  0  0  0  0  0  0
   55.8562   24.0389   43.4160 H   0  0  0  0  0  0  0  0  0  0  0  0
   54.9534   23.3109   46.1237 H   0  0  0  0  0  0  0  0  0  0  0  0
   52.9302   24.5291   46.2929 H   0  0  0  0  0  0  0  0  0  0  0  0
   53.2029   25.3860   44.7379 H   0  0  0  0  0  0  0  0  0  0  0  0
   52.7456   23.6489   44.7379 H   0  0  0  0  0  0  0  0  0  0  0  0
   59.0962   27.9264   48.2596 H   0  0  0  0  0  0  0  0  0  0  0  0
   59.2091   30.4046   48.0422 H   0  0  0  0  0  0  0  0  0  0  0  0
   58.8241   32.4284   46.7383 H   0  0  0  0  0  0  0  0  0  0  0  0
   59.9657   34.2665   44.0789 H   0  0  0  0  0  0  0  0  0  0  0  0
   59.0149   35.6651   44.7151 H   0  0  0  0  0  0  0  0  0  0  0  0
   58.0604   35.0700   47.2642 H   0  0  0  0  0  0  0  0  0  0  0  0
   59.0464   34.7130   49.5275 H   0  0  0  0  0  0  0  0  0  0  0  0
   61.3647   33.8214   49.7575 H   0  0  0  0  0  0  0  0  0  0  0  0
   61.7176   33.6145   45.4465 H   0  0  0  0  0  0  0  0  0  0  0  0
   56.9772   32.1625   42.8330 H   0  0  0  0  0  0  0  0  0  0  0  0
   56.8366   29.6851   43.0604 H   0  0  0  0  0  0  0  0  0  0  0  0
   57.2477   27.6491   44.3558 H   0  0  0  0  0  0  0  0  0  0  0  0
  1  2  1  0
  2  3  1  0
  2  4  1  0
  4  5  2  0
  4  6  1  0
  6  7  1  0
  7  8  2  0
  7  9  2  0
  7 10  1  0
 10 11  2  0
 11 12  1  0
 12 13  2  0
 13 14  1  0
 14 15  2  0
 15 16  1  0
 16 17  1  0
 17 18  1  0
 18 19  2  0
 19 20  1  0
 20 21  2  0
 21 22  1  0
 22 23  1  0
 23 24  3  0
 22 25  2  0
 15 26  1  0
 26 27  2  0
 27 28  1  0
 28 29  2  0
 29 10  1  0
 28 13  1  0
 25 18  1  0
  1 30  1  0
  1 31  1  0
  1 32  1  0
  2 33  1  0
  3 34  1  0
  3 35  1  0
  3 36  1  0
 11 37  1  0
 12 38  1  0
 14 39  1  0
 17 40  1  0
 17 41  1  0
 19 42  1  0
 20 43  1  0
 21 44  1  0
 25 45  1  0
 26 46  1  0
 27 47  1  0
 29 48  1  0
M  CHG  1   6  -1
M  END
>  <UniqueID>  (20) 
18

>  <SMILES>  (20) 
CC(C)C(=O)[N-]S(=O)(=O)c1ccc2cc(OCc3cccc(C#N)c3)ccc2c1

>  <Energy>  (20) 
55.91883776890902

>  <Genealogy>  (20) 
CC(C)C(=O)[N-]S(=O)(=O)c1ccc2cc(OCc3cccc(C#N)c3)ccc2c1 (protonated)
CC(C)C(=O)[N-]S(=O)(=O)c1ccc2cc(OCc3cccc(C#N)c3)ccc2c1 (3D coordinates assigned)
CC(C)C(=O)[N-]S(=O)(=O)c1ccc2cc(OCc3cccc(C#N)c3)ccc2c1 (optimized conformer: 55.91883776890902 kcal/mol)

>  <smiles>  (20) 
CC(C)C(=O)NS(=O)(=O)c1ccc2cc(OCc3cccc(C#N)c3)ccc2c1

>  <score_type>  (20) 
oracle

>  <origin>  (20) 
adg

>  <m_score__min__energy>  (20) 
-11

>  <m_primary>  (20) 
energy

$$$$
20:0
     RDKit          3D

 41 43  0  0  0  0  0  0  0  0999 V2000
   54.9650   26.3010   45.9930 N   0  0  0  0  0  0  0  0  0  0  0  0
   56.6350   25.8580   46.0700 S   0  0  0  0  0  0  0  0  0  0  0  0
   56.7810   24.6890   47.0010 O   0  0  0  0  0  0  0  0  0  0  0  0
   57.0930   25.4660   44.6940 O   0  0  0  0  0  0  0  0  0  0  0  0
   57.6210   27.2040   46.6620 C   0  0  0  0  0  0  0  0  0  0  0  0
   58.4080   27.0270   47.8060 C   0  0  0  0  0  0  0  0  0  0  0  0
   59.1960   28.0680   48.2950 C   0  0  0  0  0  0  0  0  0  0  0  0
   59.2180   29.3120   47.6480 C   0  0  0  0  0  0  0  0  0  0  0  0
   60.0730   30.3890   48.1930 C   0  0  0  0  0  0  0  0  0  0  0  0
   60.1030   30.5930   49.4380 O   0  0  0  0  0  0  0  0  0  0  0  0
   60.8510   31.2140   47.3110 N   0  0  0  0  0  0  0  0  0  0  0  0
   61.8100   32.1700   47.7840 C   0  0  0  0  0  0  0  0  0  0  0  0
   63.1650   31.9730   47.4830 C   0  0  0  0  0  0  0  0  0  0  0  0
   64.1310   32.8680   47.9490 C   0  0  0  0  0  0  0  0  0  0  0  0
   63.7530   33.9580   48.7350 C   0  0  0  0  0  0  0  0  0  0  0  0
   62.4100   34.1500   49.0650 C   0  0  0  0  0  0  0  0  0  0  0  0
   61.4310   33.2570   48.6040 C   0  0  0  0  0  0  0  0  0  0  0  0
   59.7290   33.5080   49.1330 S   0  0  0  0  0  0  0  0  0  0  0  0
   59.1670   33.9340   47.4860 C   0  0  0  0  0  0  0  0  0  0  0  0
   60.0720   34.4480   46.5480 C   0  0  0  0  0  0  0  0  0  0  0  0
   59.6350   34.7790   45.2610 C   0  0  0  0  0  0  0  0  0  0  0  0
   58.2930   34.6030   44.9110 C   0  0  0  0  0  0  0  0  0  0  0  0
   57.3860   34.0980   45.8490 C   0  0  0  0  0  0  0  0  0  0  0  0
   57.8210   33.7670   47.1360 C   0  0  0  0  0  0  0  0  0  0  0  0
   58.4300   29.5040   46.4920 C   0  0  0  0  0  0  0  0  0  0  0  0
   58.3840   31.0780   45.6890 Cl  0  0  0  0  0  0  0  0  0  0  0  0
   57.6340   28.4500   45.9980 C   0  0  0  0  0  0  0  0  0  0  0  0
   56.6560   28.7010   44.5480 Cl  0  0  0  0  0  0  0  0  0  0  0  0
   54.8190   27.0710   46.6830 H   0  0  0  0  0  0  0  0  0  0  0  0
   58.4047   26.0568   48.3244 H   0  0  0  0  0  0  0  0  0  0  0  0
   59.8062   27.9121   49.1968 H   0  0  0  0  0  0  0  0  0  0  0  0
   60.6560   31.1900   46.2850 H   0  0  0  0  0  0  0  0  0  0  0  0
   63.4695   31.1078   46.8758 H   0  0  0  0  0  0  0  0  0  0  0  0
   65.1904   32.7138   47.6964 H   0  0  0  0  0  0  0  0  0  0  0  0
   64.5139   34.6663   49.0947 H   0  0  0  0  0  0  0  0  0  0  0  0
   62.1177   35.0066   49.6902 H   0  0  0  0  0  0  0  0  0  0  0  0
   61.1271   34.5914   46.8239 H   0  0  0  0  0  0  0  0  0  0  0  0
   60.3476   35.1779   44.5241 H   0  0  0  0  0  0  0  0  0  0  0  0
   57.9502   34.8615   43.8983 H   0  0  0  0  0  0  0  0  0  0  0  0
   56.3298   33.9612   45.5738 H   0  0  0  0  0  0  0  0  0  0  0  0
   57.1057   33.3752   47.8741 H   0  0  0  0  0  0  0  0  0  0  0  0
  1  2  1  0
  2  3  2  0
  2  4  2  0
  2  5  1  0
  5  6  2  0
  6  7  1  0
  7  8  2  0
  8  9  1  0
  9 10  2  0
  9 11  1  0
 11 12  1  0
 12 13  2  0
 13 14  1  0
 14 15  2  0
 15 16  1  0
 16 17  2  0
 17 18  1  0
 18 19  1  0
 19 20  2  0
 20 21  1  0
 21 22  2  0
 22 23  1  0
 23 24  2  0
  8 25  1  0
 25 26  1  0
 25 27  2  0
 27 28  1  0
 27  5  1  0
 17 12  1  0
 24 19  1  0
  1 29  1  0
  6 30  1  0
  7 31  1  0
 11 32  1  0
 13 33  1  0
 14 34  1  0
 15 35  1  0
 16 36  1  0
 20 37  1  0
 21 38  1  0
 22 39  1  0
 23 40  1  0
 24 41  1  0
M  CHG  1   1  -1
M  END
>  <UniqueID>  (21) 
19

>  <SMILES>  (21) 
[NH-]S(=O)(=O)c1ccc(C(=O)Nc2ccccc2Sc2ccccc2)c(Cl)c1Cl

>  <Energy>  (21) 
52.98750792387327

>  <Genealogy>  (21) 
[NH-]S(=O)(=O)c1ccc(C(=O)Nc2ccccc2Sc2ccccc2)c(Cl)c1Cl (protonated)
[NH-]S(=O)(=O)c1ccc(C(=O)Nc2ccccc2Sc2ccccc2)c(Cl)c1Cl (3D coordinates assigned)
[NH-]S(=O)(=O)c1ccc(C(=O)Nc2ccccc2Sc2ccccc2)c(Cl)c1Cl (optimized conformer: 52.98750792387327 kcal/mol)

>  <smiles>  (21) 
NS(=O)(=O)c1ccc(C(=O)Nc2ccccc2Sc2ccccc2)c(Cl)c1Cl

>  <score_type>  (21) 
oracle

>  <origin>  (21) 
adg

>  <m_score__min__energy>  (21) 
-12.300000000000001

>  <m_primary>  (21) 
energy

$$$$
21:0
     RDKit          3D

 38 40  0  0  0  0  0  0  0  0999 V2000
   54.8130   25.4690   45.9690 O   0  0  0  0  0  0  0  0  0  0  0  0
   55.7980   24.7930   46.3760 C   0  0  0  0  0  0  0  0  0  0  0  0
   57.1380   25.2420   46.1070 N   0  0  0  0  0  0  0  0  0  0  0  0
   57.4770   26.5860   45.7270 C   0  0  0  0  0  0  0  0  0  0  0  0
   59.0190   26.8960   45.2560 S   0  0  0  0  0  0  0  0  0  0  0  0
   56.4410   27.5660   45.5400 N   0  0  0  0  0  0  0  0  0  0  0  0
   56.5840   28.8030   45.1620 C   0  0  0  0  0  0  0  0  0  0  0  0
   55.5290   29.5680   44.8120 N   0  0  0  0  0  0  0  0  0  0  0  0
   55.8680   30.8180   44.4940 N   0  0  0  0  0  0  0  0  0  0  0  0
   57.1940   31.0580   44.6100 C   0  0  0  0  0  0  0  0  0  0  0  0
   57.8310   32.3610   44.2480 C   0  0  0  0  0  0  0  0  0  0  0  0
   58.3150   33.0580   45.4890 C   0  0  0  0  0  0  0  0  0  0  0  0
   59.0510   34.2510   45.3900 C   0  0  0  0  0  0  0  0  0  0  0  0
   59.5320   34.8810   46.5420 C   0  0  0  0  0  0  0  0  0  0  0  0
   59.2900   34.3190   47.8030 C   0  0  0  0  0  0  0  0  0  0  0  0
   59.7640   34.9380   48.9580 O   0  0  0  0  0  0  0  0  0  0  0  0
   58.5680   33.1270   47.9060 C   0  0  0  0  0  0  0  0  0  0  0  0
   58.0860   32.4940   46.7550 C   0  0  0  0  0  0  0  0  0  0  0  0
   58.0280   29.6810   45.1070 S   0  0  0  0  0  0  0  0  0  0  0  0
   55.5520   23.5210   47.0980 C   0  0  0  0  0  0  0  0  0  0  0  0
   54.3840   22.7770   46.8400 C   0  0  0  0  0  0  0  0  0  0  0  0
   54.1400   21.5800   47.5190 C   0  0  0  0  0  0  0  0  0  0  0  0
   55.0530   21.1160   48.4690 C   0  0  0  0  0  0  0  0  0  0  0  0
   56.2090   21.8500   48.7440 C   0  0  0  0  0  0  0  0  0  0  0  0
   56.4580   23.0480   48.0660 C   0  0  0  0  0  0  0  0  0  0  0  0
   57.9170   24.5500   46.1830 H   0  0  0  0  0  0  0  0  0  0  0  0
   58.6835   32.1762   43.5778 H   0  0  0  0  0  0  0  0  0  0  0  0
   57.0901   32.9972   43.7417 H   0  0  0  0  0  0  0  0  0  0  0  0
   59.2497   34.6913   44.4017 H   0  0  0  0  0  0  0  0  0  0  0  0
   60.1010   35.8187   46.4585 H   0  0  0  0  0  0  0  0  0  0  0  0
   59.2830   35.7290   49.3710 H   0  0  0  0  0  0  0  0  0  0  0  0
   58.3780   32.6849   48.8952 H   0  0  0  0  0  0  0  0  0  0  0  0
   57.5257   31.5514   46.8418 H   0  0  0  0  0  0  0  0  0  0  0  0
   53.6580   23.1411   46.0981 H   0  0  0  0  0  0  0  0  0  0  0  0
   53.2283   21.0028   47.3052 H   0  0  0  0  0  0  0  0  0  0  0  0
   54.8614   20.1723   49.0007 H   0  0  0  0  0  0  0  0  0  0  0  0
   56.9250   21.4853   49.4952 H   0  0  0  0  0  0  0  0  0  0  0  0
   57.3677   23.6242   48.2907 H   0  0  0  0  0  0  0  0  0  0  0  0
  1  2  2  0
  2  3  1  0
  3  4  1  0
  4  5  2  0
  4  6  1  0
  6  7  2  3
  7  8  1  0
  8  9  1  0
  9 10  2  0
 10 11  1  0
 11 12  1  0
 12 13  2  0
 13 14  1  0
 14 15  2  0
 15 16  1  0
 15 17  1  0
 17 18  2  0
 10 19  1  0
  2 20  1  0
 20 21  2  0
 21 22  1  0
 22 23  2  0
 23 24  1  0
 24 25  2  0
 19  7  1  0
 25 20  1  0
 18 12  1  0
  3 26  1  0
 11 27  1  0
 11 28  1  0
 13 29  1  0
 14 30  1  0
 16 31  1  0
 17 32  1  0
 18 33  1  0
 21 34  1  0
 22 35  1  0
 23 36  1  0
 24 37  1  0
 25 38  1  0
M  CHG  1   8  -1
M  END
>  <UniqueID>  (22) 
20

>  <SMILES>  (22) 
O=C(NC(=S)N=c1[n-]nc(Cc2ccc(O)cc2)s1)c1ccccc1

>  <Energy>  (22) 
82.4655479293567

>  <Genealogy>  (22) 
O=C(NC(=S)N=c1[n-]nc(Cc2ccc(O)cc2)s1)c1ccccc1 (protonated)
O=C(NC(=S)N=c1[n-]nc(Cc2ccc(O)cc2)s1)c1ccccc1 (3D coordinates assigned)
O=C(NC(=S)N=c1[n-]nc(Cc2ccc(O)cc2)s1)c1ccccc1 (optimized conformer: 82.4655479293567 kcal/mol)

>  <smiles>  (22) 
O=C(NC(=S)N=c1[nH]nc(Cc2ccc(O)cc2)s1)c1ccccc1

>  <score_type>  (22) 
oracle

>  <origin>  (22) 
adg

>  <m_score__min__energy>  (22) 
-11.279999999999999

>  <m_primary>  (22) 
energy

$$$$
22:0
     RDKit          3D

 56 59  0  0  0  0  0  0  0  0999 V2000
   60.5730   26.8240   46.3540 C   0  0  0  0  0  0  0  0  0  0  0  0
   60.0910   26.9040   47.5940 C   0  0  0  0  0  0  0  0  0  0  0  0
   58.7870   27.5970   47.8760 C   0  0  0  0  0  0  0  0  0  0  0  0
   58.7260   28.8870   47.1720 N   0  0  0  0  0  0  0  0  0  0  0  0
   59.5100   30.0090   47.3240 C   0  0  0  0  0  0  0  0  0  0  0  0
   60.5080   30.1640   48.1530 N   0  0  0  0  0  0  0  0  0  0  0  0
   60.6240   30.9590   49.3710 C   0  0  0  0  0  0  0  0  0  0  0  0
   60.1820   30.1290   50.5410 C   0  0  0  0  0  0  0  0  0  0  0  0
   61.0830   29.2630   51.1790 C   0  0  0  0  0  0  0  0  0  0  0  0
   60.6650   28.4910   52.2640 C   0  0  0  0  0  0  0  0  0  0  0  0
   59.3420   28.5570   52.7080 C   0  0  0  0  0  0  0  0  0  0  0  0
   58.4150   29.3870   52.0540 C   0  0  0  0  0  0  0  0  0  0  0  0
   57.0510   29.4950   52.5020 N   0  0  0  0  0  0  0  0  0  0  0  0
   56.2110   30.6400   52.2690 C   0  0  0  0  0  0  0  0  0  0  0  0
   56.7330   31.7530   51.9940 O   0  0  0  0  0  0  0  0  0  0  0  0
   54.7370   30.5400   52.3990 C   0  0  0  0  0  0  0  0  0  0  0  0
   54.1450   30.1420   53.6080 C   0  0  0  0  0  0  0  0  0  0  0  0
   52.7560   30.0510   53.7230 C   0  0  0  0  0  0  0  0  0  0  0  0
   51.9400   30.3490   52.6300 C   0  0  0  0  0  0  0  0  0  0  0  0
   52.5060   30.7410   51.4040 C   0  0  0  0  0  0  0  0  0  0  0  0
   51.6380   31.0610   50.2460 C   0  0  0  0  0  0  0  0  0  0  0  0
   51.0200   32.3410   50.1360 N   0  0  0  0  0  0  0  0  0  0  0  0
   51.4320   30.1990   49.3490 O   0  0  0  0  0  0  0  0  0  0  0  0
   53.9080   30.8280   51.2970 C   0  0  0  0  0  0  0  0  0  0  0  0
   58.8480   30.1800   50.9800 C   0  0  0  0  0  0  0  0  0  0  0  0
   59.1900   31.0090   46.4690 N   0  0  0  0  0  0  0  0  0  0  0  0
   58.1920   30.4930   45.7390 C   0  0  0  0  0  0  0  0  0  0  0  0
   57.5330   31.1230   44.6870 C   0  0  0  0  0  0  0  0  0  0  0  0
   56.5440   30.4040   44.0050 C   0  0  0  0  0  0  0  0  0  0  0  0
   56.2440   29.0780   44.3780 C   0  0  0  0  0  0  0  0  0  0  0  0
   56.9210   28.4550   45.4490 C   0  0  0  0  0  0  0  0  0  0  0  0
   56.5690   27.0660   45.7650 C   0  0  0  0  0  0  0  0  0  0  0  0
   55.2040   26.7070   45.9710 N   0  0  0  0  0  0  0  0  0  0  0  0
   57.4640   26.1770   45.7760 O   0  0  0  0  0  0  0  0  0  0  0  0
   57.9060   29.2110   46.1340 C   0  0  0  0  0  0  0  0  0  0  0  0
   61.5290   26.3128   46.1674 H   0  0  0  0  0  0  0  0  0  0  0  0
   60.0148   27.2691   45.5172 H   0  0  0  0  0  0  0  0  0  0  0  0
   60.6563   26.4558   48.4244 H   0  0  0  0  0  0  0  0  0  0  0  0
   57.9575   26.9596   47.5360 H   0  0  0  0  0  0  0  0  0  0  0  0
   58.7074   27.7783   48.9580 H   0  0  0  0  0  0  0  0  0  0  0  0
   61.6705   31.2671   49.5119 H   0  0  0  0  0  0  0  0  0  0  0  0
   59.9912   31.8552   49.2912 H   0  0  0  0  0  0  0  0  0  0  0  0
   62.1214   29.1924   50.8231 H   0  0  0  0  0  0  0  0  0  0  0  0
   61.3805   27.8276   52.7719 H   0  0  0  0  0  0  0  0  0  0  0  0
   59.0243   27.9567   53.5733 H   0  0  0  0  0  0  0  0  0  0  0  0
   56.6670   28.7160   53.0810 H   0  0  0  0  0  0  0  0  0  0  0  0
   54.7806   29.8997   54.4724 H   0  0  0  0  0  0  0  0  0  0  0  0
   52.3037   29.7437   54.6774 H   0  0  0  0  0  0  0  0  0  0  0  0
   50.8468   30.2766   52.7287 H   0  0  0  0  0  0  0  0  0  0  0  0
   51.3390   33.0300   49.4230 H   0  0  0  0  0  0  0  0  0  0  0  0
   54.3616   31.1249   50.3399 H   0  0  0  0  0  0  0  0  0  0  0  0
   58.1350   30.8491   50.4761 H   0  0  0  0  0  0  0  0  0  0  0  0
   57.7820   32.1553   44.4000 H   0  0  0  0  0  0  0  0  0  0  0  0
   55.9986   30.8759   43.1744 H   0  0  0  0  0  0  0  0  0  0  0  0
   55.4718   28.5210   43.8270 H   0  0  0  0  0  0  0  0  0  0  0  0
   54.6660   27.0950   46.7770 H   0  0  0  0  0  0  0  0  0  0  0  0
  1  2  2  0
  2  3  1  0
  3  4  1  0
  4  5  1  0
  5  6  2  3
  6  7  1  0
  7  8  1  0
  8  9  2  0
  9 10  1  0
 10 11  2  0
 11 12  1  0
 12 13  1  0
 13 14  1  0
 14 15  2  0
 14 16  1  0
 16 17  2  0
 17 18  1  0
 18 19  2  0
 19 20  1  0
 20 21  1  0
 21 22  1  0
 21 23  2  0
 20 24  2  0
 12 25  2  0
  5 26  1  0
 26 27  1  0
 27 28  2  0
 28 29  1  0
 29 30  2  0
 30 31  1  0
 31 32  1  0
 32 33  1  0
 32 34  2  0
 31 35  2  0
 35  4  1  0
 25  8  1  0
 35 27  1  0
 24 16  1  0
  1 36  1  0
  1 37  1  0
  2 38  1  0
  3 39  1  0
  3 40  1  0
  7 41  1  0
  7 42  1  0
  9 43  1  0
 10 44  1  0
 11 45  1  0
 13 46  1  0
 17 47  1  0
 18 48  1  0
 19 49  1  0
 22 50  1  0
 24 51  1  0
 25 52  1  0
 28 53  1  0
 29 54  1  0
 30 55  1  0
 33 56  1  0
M  CHG  3  22  -1  26  -1  33  -1
M  END
>  <UniqueID>  (23) 
21

>  <SMILES>  (23) 
C=CCn1c(=NCc2cccc(NC(=O)c3cccc(C([NH-])=O)c3)c2)[n-]c2cccc(C([NH-])=O)c21

>  <Energy>  (23) 
118.48055383670537

>  <Genealogy>  (23) 
C=CCn1c(=NCc2cccc(NC(=O)c3cccc(C([NH-])=O)c3)c2)[n-]c2cccc(C([NH-])=O)c21 (protonated)
C=CCn1c(=NCc2cccc(NC(=O)c3cccc(C([NH-])=O)c3)c2)[n-]c2cccc(C([NH-])=O)c21 (3D coordinates assigned)
C=CCn1c(=NCc2cccc(NC(=O)c3cccc(C([NH-])=O)c3)c2)[n-]c2cccc(C([NH-])=O)c21 (optimized conformer: 118.48055383670537 kcal/mol)

>  <smiles>  (23) 
C=CCn1c(=NCc2cccc(NC(=O)c3cccc(C(N)=O)c3)c2)[nH]c2cccc(C(N)=O)c21

>  <score_type>  (23) 
oracle

>  <origin>  (23) 
adg

>  <m_score__min__energy>  (23) 
-18.780000000000001

>  <m_primary>  (23) 
energy

$$$$
23:0
     RDKit          3D

 71 75  0  0  0  0  0  0  0  0999 V2000
   60.4120   27.6570   48.0580 O   0  0  0  0  0  0  0  0  0  0  0  0
   59.5200   27.9840   47.2280 C   0  0  0  0  0  0  0  0  0  0  0  0
   59.5780   29.2980   46.6520 N   0  0  0  0  0  0  0  0  0  0  0  0
   58.7560   30.4190   47.1010 C   0  0  0  0  0  0  0  0  0  0  0  0
   58.4520   31.3660   45.9610 C   0  0  0  0  0  0  0  0  0  0  0  0
   58.4790   30.8500   44.6530 C   0  0  0  0  0  0  0  0  0  0  0  0
   58.1340   31.6480   43.5630 C   0  0  0  0  0  0  0  0  0  0  0  0
   57.7610   32.9730   43.7610 C   0  0  0  0  0  0  0  0  0  0  0  0
   57.7530   33.5120   45.0460 C   0  0  0  0  0  0  0  0  0  0  0  0
   58.1330   32.7380   46.1590 C   0  0  0  0  0  0  0  0  0  0  0  0
   58.2190   33.4340   47.5120 C   0  0  0  0  0  0  0  0  0  0  0  0
   59.3640   34.3980   47.5710 N   0  0  0  0  0  0  0  0  0  0  0  0
   60.0260   34.4150   48.9030 C   0  0  0  0  0  0  0  0  0  0  0  0
   60.9000   33.1760   49.1410 C   0  0  0  0  0  0  0  0  0  0  0  0
   61.8390   33.0380   48.0270 N   0  0  0  0  0  0  0  0  0  0  0  0
   63.2380   33.3270   48.2020 C   0  0  0  0  0  0  0  0  0  0  0  0
   63.8210   34.1190   47.4100 O   0  0  0  0  0  0  0  0  0  0  0  0
   64.0080   32.6960   49.2860 C   0  0  0  0  0  0  0  0  0  0  0  0
   65.2540   33.0940   49.7340 C   0  0  0  0  0  0  0  0  0  0  0  0
   65.5800   32.2130   50.7460 C   0  0  0  0  0  0  0  0  0  0  0  0
   64.5170   31.3390   50.8560 C   0  0  0  0  0  0  0  0  0  0  0  0
   63.5980   31.6540   49.9710 O   0  0  0  0  0  0  0  0  0  0  0  0
   61.2540   32.9780   46.6880 C   0  0  0  0  0  0  0  0  0  0  0  0
   60.3440   34.1980   46.4730 C   0  0  0  0  0  0  0  0  0  0  0  0
   58.4170   27.0360   46.9160 C   0  0  0  0  0  0  0  0  0  0  0  0
   58.4310   25.7400   47.4690 C   0  0  0  0  0  0  0  0  0  0  0  0
   57.4150   24.8270   47.1780 C   0  0  0  0  0  0  0  0  0  0  0  0
   56.3730   25.1790   46.3090 C   0  0  0  0  0  0  0  0  0  0  0  0
   55.3040   24.1670   45.9610 C   0  0  0  0  0  0  0  0  0  0  0  0
   55.6920   23.2090   44.9000 N   0  0  0  0  0  0  0  0  0  0  0  0
   56.6670   22.1930   45.3320 C   0  0  0  0  0  0  0  0  0  0  0  0
   56.7590   21.0890   44.2540 C   0  0  0  0  0  0  0  0  0  0  0  0
   56.1770   21.4820   43.0190 O   0  0  0  0  0  0  0  0  0  0  0  0
   56.6370   22.7670   42.6490 C   0  0  0  0  0  0  0  0  0  0  0  0
   56.0950   23.8360   43.6230 C   0  0  0  0  0  0  0  0  0  0  0  0
   56.3490   26.4700   45.7550 C   0  0  0  0  0  0  0  0  0  0  0  0
   57.3390   27.4000   46.0820 C   0  0  0  0  0  0  0  0  0  0  0  0
   57.8102   30.0305   47.5066 H   0  0  0  0  0  0  0  0  0  0  0  0
   59.3118   30.9709   47.8734 H   0  0  0  0  0  0  0  0  0  0  0  0
   58.7760   29.8038   44.4878 H   0  0  0  0  0  0  0  0  0  0  0  0
   58.1569   31.2294   42.5460 H   0  0  0  0  0  0  0  0  0  0  0  0
   57.4719   33.5964   42.9021 H   0  0  0  0  0  0  0  0  0  0  0  0
   57.4452   34.5578   45.1930 H   0  0  0  0  0  0  0  0  0  0  0  0
   57.2824   33.9826   47.6902 H   0  0  0  0  0  0  0  0  0  0  0  0
   58.3800   32.6651   48.2819 H   0  0  0  0  0  0  0  0  0  0  0  0
   59.0000   35.3730   47.4320 H   0  0  0  0  0  0  0  0  0  0  0  0
   60.6594   35.3118   48.9707 H   0  0  0  0  0  0  0  0  0  0  0  0
   59.2362   34.4189   49.6687 H   0  0  0  0  0  0  0  0  0  0  0  0
   61.4577   33.2926   50.0819 H   0  0  0  0  0  0  0  0  0  0  0  0
   60.2660   32.2796   49.2076 H   0  0  0  0  0  0  0  0  0  0  0  0
   65.8581   33.9349   49.3626 H   0  0  0  0  0  0  0  0  0  0  0  0
   66.5026   32.2084   51.3450 H   0  0  0  0  0  0  0  0  0  0  0  0
   64.4497   30.5078   51.5733 H   0  0  0  0  0  0  0  0  0  0  0  0
   62.0570   32.9821   45.9362 H   0  0  0  0  0  0  0  0  0  0  0  0
   60.6625   32.0561   46.5865 H   0  0  0  0  0  0  0  0  0  0  0  0
   60.9749   35.0961   46.3997 H   0  0  0  0  0  0  0  0  0  0  0  0
   59.7704   34.0195   45.5515 H   0  0  0  0  0  0  0  0  0  0  0  0
   59.2523   25.4438   48.1381 H   0  0  0  0  0  0  0  0  0  0  0  0
   57.4326   23.8258   47.6334 H   0  0  0  0  0  0  0  0  0  0  0  0
   55.0623   23.5955   46.8693 H   0  0  0  0  0  0  0  0  0  0  0  0
   54.4467   24.7363   45.5724 H   0  0  0  0  0  0  0  0  0  0  0  0
   57.6533   22.6618   45.4641 H   0  0  0  0  0  0  0  0  0  0  0  0
   56.3443   21.7524   46.2868 H   0  0  0  0  0  0  0  0  0  0  0  0
   57.8192   20.8502   44.0838 H   0  0  0  0  0  0  0  0  0  0  0  0
   56.2008   20.2158   44.6227 H   0  0  0  0  0  0  0  0  0  0  0  0
   57.7367   22.7789   42.6736 H   0  0  0  0  0  0  0  0  0  0  0  0
   56.2783   22.9951   41.6345 H   0  0  0  0  0  0  0  0  0  0  0  0
   56.8800   24.5819   43.8167 H   0  0  0  0  0  0  0  0  0  0  0  0
   55.2179   24.3212   43.1700 H   0  0  0  0  0  0  0  0  0  0  0  0
   55.5449   26.7505   45.0588 H   0  0  0  0  0  0  0  0  0  0  0  0
   57.2774   28.4244   45.6859 H   0  0  0  0  0  0  0  0  0  0  0  0
  1  2  2  0
  2  3  1  0
  3  4  1  0
  4  5  1  0
  5  6  2  0
  6  7  1  0
  7  8  2  0
  8  9  1  0
  9 10  2  0
 10 11  1  0
 11 12  1  0
 12 13  1  0
 13 14  1  0
 14 15  1  0
 15 16  1  0
 16 17  2  0
 16 18  1  0
 18 19  2  0
 19 20  1  0
 20 21  2  0
 21 22  1  0
 15 23  1  0
 23 24  1  0
  2 25  1  0
 25 26  2  0
 26 27  1  0
 27 28  2  0
 28 29  1  0
 29 30  1  0
 30 31  1  0
 31 32  1  0
 32 33  1  0
 33 34  1  0
 34 35  1  0
 28 36  1  0
 36 37  2  0
 10  5  1  0
 24 12  1  0
 37 25  1  0
 22 18  1  0
 35 30  1  0
  4 38  1  0
  4 39  1  0
  6 40  1  0
  7 41  1  0
  8 42  1  0
  9 43  1  0
 11 44  1  0
 11 45  1  0
 12 46  1  0
 13 47  1  0
 13 48  1  0
 14 49  1  0
 14 50  1  0
 19 51  1  0
 20 52  1  0
 21 53  1  0
 23 54  1  0
 23 55  1  0
 24 56  1  0
 24 57  1  0
 26 58  1  0
 27 59  1  0
 29 60  1  0
 29 61  1  0
 31 62  1  0
 31 63  1  0
 32 64  1  0
 32 65  1  0
 34 66  1  0
 34 67  1  0
 35 68  1  0
 35 69  1  0
 36 70  1  0
 37 71  1  0
M  CHG  2   3  -1  12   1
M  END
>  <UniqueID>  (24) 
22

>  <SMILES>  (24) 
O=C([N-]Cc1ccccc1C[NH+]1CCN(C(=O)c2ccco2)CC1)c1ccc(CN2CCOCC2)cc1

>  <Energy>  (24) 
135.49151455930067

>  <Genealogy>  (24) 
O=C([N-]Cc1ccccc1C[NH+]1CCN(C(=O)c2ccco2)CC1)c1ccc(CN2CCOCC2)cc1 (protonated)
O=C([N-]Cc1ccccc1C[NH+]1CCN(C(=O)c2ccco2)CC1)c1ccc(CN2CCOCC2)cc1 (3D coordinates assigned)
O=C([N-]Cc1ccccc1C[NH+]1CCN(C(=O)c2ccco2)CC1)c1ccc(CN2CCOCC2)cc1 (nonaromatic ring conformer: 135.49151455930067 kcal/mol)

>  <smiles>  (24) 
O=C(NCc1ccccc1CN1CCN(C(=O)c2ccco2)CC1)c1ccc(CN2CCOCC2)cc1

>  <score_type>  (24) 
oracle

>  <origin>  (24) 
adg

>  <m_score__min__energy>  (24) 
-10.15

>  <m_primary>  (24) 
energy

$$$$
24:0
     RDKit          3D

 47 50  0  0  0  0  0  0  0  0999 V2000
   59.9310   29.0350   46.9170 C   0  0  0  0  0  0  0  0  0  0  0  0
   58.6420   28.5960   46.3020 C   0  0  0  0  0  0  0  0  0  0  0  0
   58.1490   27.3510   46.4350 N   0  0  0  0  0  0  0  0  0  0  0  0
   56.9770   27.3920   45.7640 C   0  0  0  0  0  0  0  0  0  0  0  0
   56.0880   26.2280   45.6400 C   0  0  0  0  0  0  0  0  0  0  0  0
   54.8850   26.3200   45.9990 O   0  0  0  0  0  0  0  0  0  0  0  0
   56.5740   24.9870   45.1260 N   0  0  0  0  0  0  0  0  0  0  0  0
   56.0410   23.6330   44.8990 C   0  0  0  0  0  0  0  0  0  0  0  0
   57.3070   23.0530   44.3600 C   0  0  0  0  0  0  0  0  0  0  0  0
   57.8280   24.4320   44.5870 C   0  0  0  0  0  0  0  0  0  0  0  0
   56.7040   28.5960   45.2170 N   0  0  0  0  0  0  0  0  0  0  0  0
   57.7650   29.3550   45.5470 C   0  0  0  0  0  0  0  0  0  0  0  0
   57.8920   30.7750   45.1600 C   0  0  0  0  0  0  0  0  0  0  0  0
   57.7440   31.1790   43.8230 C   0  0  0  0  0  0  0  0  0  0  0  0
   57.8430   32.5300   43.4820 C   0  0  0  0  0  0  0  0  0  0  0  0
   58.0960   33.4890   44.4670 C   0  0  0  0  0  0  0  0  0  0  0  0
   58.2520   33.1010   45.8090 C   0  0  0  0  0  0  0  0  0  0  0  0
   58.5170   34.0630   46.8440 N   0  0  0  0  0  0  0  0  0  0  0  0
   59.4440   33.7020   48.2680 S   0  0  0  0  0  0  0  0  0  0  0  0
   59.4690   34.8940   49.1850 O   0  0  0  0  0  0  0  0  0  0  0  0
   58.8100   32.5330   48.9700 O   0  0  0  0  0  0  0  0  0  0  0  0
   61.1070   33.3170   47.8170 C   0  0  0  0  0  0  0  0  0  0  0  0
   61.7330   34.0320   46.7840 C   0  0  0  0  0  0  0  0  0  0  0  0
   63.0530   33.7450   46.4250 C   0  0  0  0  0  0  0  0  0  0  0  0
   63.7620   32.7510   47.1050 C   0  0  0  0  0  0  0  0  0  0  0  0
   63.1530   32.0460   48.1460 C   0  0  0  0  0  0  0  0  0  0  0  0
   61.8310   32.3270   48.5070 C   0  0  0  0  0  0  0  0  0  0  0  0
   61.2690   31.6430   49.5350 F   0  0  0  0  0  0  0  0  0  0  0  0
   58.1210   31.7460   46.1490 C   0  0  0  0  0  0  0  0  0  0  0  0
   59.8432   29.0051   48.0131 H   0  0  0  0  0  0  0  0  0  0  0  0
   60.7389   28.3614   46.5953 H   0  0  0  0  0  0  0  0  0  0  0  0
   60.1598   30.0617   46.5953 H   0  0  0  0  0  0  0  0  0  0  0  0
   55.7121   23.1448   45.8282 H   0  0  0  0  0  0  0  0  0  0  0  0
   55.1428   23.5471   44.2699 H   0  0  0  0  0  0  0  0  0  0  0  0
   57.7671   22.2646   44.9737 H   0  0  0  0  0  0  0  0  0  0  0  0
   57.3788   22.5191   43.4009 H   0  0  0  0  0  0  0  0  0  0  0  0
   58.6520   24.4599   45.3151 H   0  0  0  0  0  0  0  0  0  0  0  0
   58.2732   24.9475   43.7232 H   0  0  0  0  0  0  0  0  0  0  0  0
   57.5495   30.4292   43.0420 H   0  0  0  0  0  0  0  0  0  0  0  0
   57.7213   32.8405   42.4338 H   0  0  0  0  0  0  0  0  0  0  0  0
   58.1733   34.5510   44.1910 H   0  0  0  0  0  0  0  0  0  0  0  0
   58.0460   34.9950   46.7990 H   0  0  0  0  0  0  0  0  0  0  0  0
   61.1817   34.8227   46.2540 H   0  0  0  0  0  0  0  0  0  0  0  0
   63.5339   34.3016   45.6071 H   0  0  0  0  0  0  0  0  0  0  0  0
   64.8000   32.5237   46.8204 H   0  0  0  0  0  0  0  0  0  0  0  0
   63.7146   31.2677   48.6834 H   0  0  0  0  0  0  0  0  0  0  0  0
   58.1986   31.4403   47.2028 H   0  0  0  0  0  0  0  0  0  0  0  0
  1  2  1  0
  2  3  1  0
  3  4  1  0
  4  5  1  0
  5  6  2  0
  5  7  1  0
  7  8  1  0
  8  9  1  0
  9 10  1  0
  4 11  2  0
 11 12  1  0
 12 13  1  0
 13 14  2  0
 14 15  1  0
 15 16  2  0
 16 17  1  0
 17 18  1  0
 18 19  1  0
 19 20  2  0
 19 21  2  0
 19 22  1  0
 22 23  2  0
 23 24  1  0
 24 25  2  0
 25 26  1  0
 26 27  2  0
 27 28  1  0
 17 29  2  0
 12  2  2  0
 29 13  1  0
 10  7  1  0
 27 22  1  0
  1 30  1  0
  1 31  1  0
  1 32  1  0
  8 33  1  0
  8 34  1  0
  9 35  1  0
  9 36  1  0
 10 37  1  0
 10 38  1  0
 14 39  1  0
 15 40  1  0
 16 41  1  0
 18 42  1  0
 23 43  1  0
 24 44  1  0
 25 45  1  0
 26 46  1  0
 29 47  1  0
M  CHG  1   3  -1
M  END
>  <UniqueID>  (25) 
23

>  <SMILES>  (25) 
Cc1[n-]c(C(=O)N2CCC2)nc1-c1cccc(NS(=O)(=O)c2ccccc2F)c1

>  <Energy>  (25) 
127.86722532186923

>  <Genealogy>  (25) 
Cc1[n-]c(C(=O)N2CCC2)nc1-c1cccc(NS(=O)(=O)c2ccccc2F)c1 (protonated)
Cc1[n-]c(C(=O)N2CCC2)nc1-c1cccc(NS(=O)(=O)c2ccccc2F)c1 (3D coordinates assigned)
Cc1[n-]c(C(=O)N2CCC2)nc1-c1cccc(NS(=O)(=O)c2ccccc2F)c1 (nonaromatic ring conformer: 127.86722532186923 kcal/mol)

>  <smiles>  (25) 
Cc1[nH]c(C(=O)N2CCC2)nc1-c1cccc(NS(=O)(=O)c2ccccc2F)c1

>  <score_type>  (25) 
oracle

>  <origin>  (25) 
adg

>  <m_score__min__energy>  (25) 
-11.01

>  <m_primary>  (25) 
energy

$$$$
25:0
     RDKit          3D

 58 60  0  0  0  0  0  0  0  0999 V2000
   65.5440   32.7070   49.9740 C   0  0  0  0  0  0  0  0  0  0  0  0
   64.1460   32.4680   49.8410 O   0  0  0  0  0  0  0  0  0  0  0  0
   63.5110   32.3700   48.5950 C   0  0  0  0  0  0  0  0  0  0  0  0
   63.8730   33.1140   47.6400 O   0  0  0  0  0  0  0  0  0  0  0  0
   62.4070   31.4020   48.4060 C   0  0  0  0  0  0  0  0  0  0  0  0
   61.9700   31.0650   47.1130 C   0  0  0  0  0  0  0  0  0  0  0  0
   60.9450   30.1300   46.9340 C   0  0  0  0  0  0  0  0  0  0  0  0
   60.3260   29.5280   48.0350 C   0  0  0  0  0  0  0  0  0  0  0  0
   59.2890   28.5640   47.7920 N   0  0  0  0  0  0  0  0  0  0  0  0
   58.7800   27.9510   46.2480 S   0  0  0  0  0  0  0  0  0  0  0  0
   60.0050   27.6390   45.4340 O   0  0  0  0  0  0  0  0  0  0  0  0
   58.0010   26.6740   46.4020 O   0  0  0  0  0  0  0  0  0  0  0  0
   57.8400   29.1880   45.4040 C   0  0  0  0  0  0  0  0  0  0  0  0
   58.4420   30.4290   45.1370 C   0  0  0  0  0  0  0  0  0  0  0  0
   57.7250   31.4500   44.4940 C   0  0  0  0  0  0  0  0  0  0  0  0
   58.3830   32.7340   44.1760 C   0  0  0  0  0  0  0  0  0  0  0  0
   58.5380   33.0740   42.9710 O   0  0  0  0  0  0  0  0  0  0  0  0
   58.8490   33.6070   45.2190 N   0  0  0  0  0  0  0  0  0  0  0  0
   59.0260   35.0260   44.8940 C   0  0  0  0  0  0  0  0  0  0  0  0
   59.3160   33.0250   46.4960 C   0  0  0  0  0  0  0  0  0  0  0  0
   60.4370   33.8870   47.1370 C   0  0  0  0  0  0  0  0  0  0  0  0
   59.9640   34.6510   48.3900 C   0  0  0  0  0  0  0  0  0  0  0  0
   59.3350   33.7750   49.4160 N   0  0  0  0  0  0  0  0  0  0  0  0
   60.2830   33.4410   50.4920 C   0  0  0  0  0  0  0  0  0  0  0  0
   58.6940   32.5500   48.8810 C   0  0  0  0  0  0  0  0  0  0  0  0
   58.1460   32.7640   47.4670 C   0  0  0  0  0  0  0  0  0  0  0  0
   56.3940   31.2210   44.1180 C   0  0  0  0  0  0  0  0  0  0  0  0
   55.7880   29.9930   44.3830 C   0  0  0  0  0  0  0  0  0  0  0  0
   56.5030   28.9680   45.0180 C   0  0  0  0  0  0  0  0  0  0  0  0
   55.8870   27.7390   45.2560 O   0  0  0  0  0  0  0  0  0  0  0  0
   60.7560   29.8690   49.3340 C   0  0  0  0  0  0  0  0  0  0  0  0
   61.7890   30.7940   49.5160 C   0  0  0  0  0  0  0  0  0  0  0  0
   65.8084   32.7522   51.0408 H   0  0  0  0  0  0  0  0  0  0  0  0
   66.1029   31.8914   49.4920 H   0  0  0  0  0  0  0  0  0  0  0  0
   65.8002   33.6620   49.4920 H   0  0  0  0  0  0  0  0  0  0  0  0
   62.4367   31.5392   46.2371 H   0  0  0  0  0  0  0  0  0  0  0  0
   60.6221   29.8651   45.9164 H   0  0  0  0  0  0  0  0  0  0  0  0
   59.4866   30.6024   45.4351 H   0  0  0  0  0  0  0  0  0  0  0  0
   59.0987   35.6089   45.8240 H   0  0  0  0  0  0  0  0  0  0  0  0
   59.9473   35.1556   44.3071 H   0  0  0  0  0  0  0  0  0  0  0  0
   58.1648   35.3779   44.3071 H   0  0  0  0  0  0  0  0  0  0  0  0
   59.7593   32.0438   46.2708 H   0  0  0  0  0  0  0  0  0  0  0  0
   61.2685   33.2258   47.4222 H   0  0  0  0  0  0  0  0  0  0  0  0
   60.7457   34.6346   46.3915 H   0  0  0  0  0  0  0  0  0  0  0  0
   60.8337   35.1493   48.8432 H   0  0  0  0  0  0  0  0  0  0  0  0
   59.1971   35.3681   48.0620 H   0  0  0  0  0  0  0  0  0  0  0  0
   59.8043   33.6097   51.4679 H   0  0  0  0  0  0  0  0  0  0  0  0
   60.5780   32.3848   50.4060 H   0  0  0  0  0  0  0  0  0  0  0  0
   61.1749   34.0790   50.4060 H   0  0  0  0  0  0  0  0  0  0  0  0
   59.4389   31.7410   48.8552 H   0  0  0  0  0  0  0  0  0  0  0  0
   57.8507   32.2913   49.5382 H   0  0  0  0  0  0  0  0  0  0  0  0
   57.5971   31.8662   47.1467 H   0  0  0  0  0  0  0  0  0  0  0  0
   57.4671   33.6295   47.4640 H   0  0  0  0  0  0  0  0  0  0  0  0
   55.8245   32.0140   43.6113 H   0  0  0  0  0  0  0  0  0  0  0  0
   54.7404   29.8275   44.0913 H   0  0  0  0  0  0  0  0  0  0  0  0
   56.3330   26.8610   45.0090 H   0  0  0  0  0  0  0  0  0  0  0  0
   60.2765   29.4051   50.2086 H   0  0  0  0  0  0  0  0  0  0  0  0
   62.1212   31.0485   50.5333 H   0  0  0  0  0  0  0  0  0  0  0  0
  1  2  1  0
  2  3  1  0
  3  4  2  0
  3  5  1  0
  5  6  2  0
  6  7  1  0
  7  8  2  0
  8  9  1  0
  9 10  1  0
 10 11  2  0
 10 12  2  0
 10 13  1  0
 13 14  2  0
 14 15  1  0
 15 16  1  0
 16 17  2  0
 16 18  1  0
 18 19  1  0
 18 20  1  0
 20 21  1  0
 21 22  1  0
 22 23  1  0
 23 24  1  0
 23 25  1  0
 25 26  1  0
 15 27  2  0
 27 28  1  0
 28 29  2  0
 29 30  1  0
  8 31  1  0
 31 32  2  0
 32  5  1  0
 29 13  1  0
 26 20  1  0
  1 33  1  0
  1 34  1  0
  1 35  1  0
  6 36  1  0
  7 37  1  0
 14 38  1  0
 19 39  1  0
 19 40  1  0
 19 41  1  0
 20 42  1  0
 21 43  1  0
 21 44  1  0
 22 45  1  0
 22 46  1  0
 24 47  1  0
 24 48  1  0
 24 49  1  0
 25 50  1  0
 25 51  1  0
 26 52  1  0
 26 53  1  0
 27 54  1  0
 28 55  1  0
 30 56  1  0
 31 57  1  0
 32 58  1  0
M  CHG  1   9  -1
M  END
>  <UniqueID>  (26) 
24

>  <SMILES>  (26) 
COC(=O)c1ccc([N-]S(=O)(=O)c2cc(C(=O)N(C)C3CCN(C)CC3)ccc2O)cc1

>  <Energy>  (26) 
77.25126472861061

>  <Genealogy>  (26) 
COC(=O)c1ccc([N-]S(=O)(=O)c2cc(C(=O)N(C)C3CCN(C)CC3)ccc2O)cc1 (protonated)
COC(=O)c1ccc([N-]S(=O)(=O)c2cc(C(=O)N(C)C3CCN(C)CC3)ccc2O)cc1 (3D coordinates assigned)
COC(=O)c1ccc([N-]S(=O)(=O)c2cc(C(=O)N(C)C3CCN(C)CC3)ccc2O)cc1 (nonaromatic ring conformer: 77.25126472861061 kcal/mol)

>  <smiles>  (26) 
COC(=O)c1ccc(NS(=O)(=O)c2cc(C(=O)N(C)C3CCN(C)CC3)ccc2O)cc1

>  <score_type>  (26) 
oracle

>  <origin>  (26) 
adg

>  <m_score__min__energy>  (26) 
-10.369999999999999

>  <m_primary>  (26) 
energy

$$$$
26:0
     RDKit          3D

 55 57  0  0  0  0  0  0  0  0999 V2000
   61.1930   32.0340   49.0950 C   0  0  0  0  0  0  0  0  0  0  0  0
   60.7510   33.4220   48.6120 C   0  0  0  0  0  0  0  0  0  0  0  0
   61.5270   33.8500   47.3420 C   0  0  0  0  0  0  0  0  0  0  0  0
   60.7070   33.5880   46.0750 C   0  0  0  0  0  0  0  0  0  0  0  0
   59.4540   34.3770   46.0680 N   0  0  0  0  0  0  0  0  0  0  0  0
   58.3280   33.7170   44.9030 S   0  0  0  0  0  0  0  0  0  0  0  0
   58.9090   33.8340   43.5220 O   0  0  0  0  0  0  0  0  0  0  0  0
   57.0520   34.5110   44.9390 O   0  0  0  0  0  0  0  0  0  0  0  0
   57.9690   32.0220   45.2430 C   0  0  0  0  0  0  0  0  0  0  0  0
   58.6450   31.3480   46.2690 C   0  0  0  0  0  0  0  0  0  0  0  0
   58.3900   29.9950   46.5100 C   0  0  0  0  0  0  0  0  0  0  0  0
   57.4650   29.2950   45.7230 C   0  0  0  0  0  0  0  0  0  0  0  0
   57.2210   27.9050   45.9940 N   0  0  0  0  0  0  0  0  0  0  0  0
   58.1980   26.8660   45.8090 C   0  0  0  0  0  0  0  0  0  0  0  0
   59.3870   27.1460   45.4940 O   0  0  0  0  0  0  0  0  0  0  0  0
   57.8360   25.4420   46.1000 C   0  0  0  0  0  0  0  0  0  0  0  0
   57.0550   24.8940   44.9880 N   0  0  0  0  0  0  0  0  0  0  0  0
   57.6160   24.8590   43.6370 C   0  0  0  0  0  0  0  0  0  0  0  0
   55.8150   24.2200   45.2550 C   0  0  0  0  0  0  0  0  0  0  0  0
   55.7420   22.8200   45.1700 C   0  0  0  0  0  0  0  0  0  0  0  0
   54.5420   22.1590   45.4530 C   0  0  0  0  0  0  0  0  0  0  0  0
   53.4100   22.8920   45.8200 C   0  0  0  0  0  0  0  0  0  0  0  0
   53.4740   24.2860   45.9050 C   0  0  0  0  0  0  0  0  0  0  0  0
   54.6720   24.9520   45.6240 C   0  0  0  0  0  0  0  0  0  0  0  0
   54.7200   26.3400   45.7030 O   0  0  0  0  0  0  0  0  0  0  0  0
   56.7590   29.9830   44.7210 C   0  0  0  0  0  0  0  0  0  0  0  0
   57.0150   31.3360   44.4800 C   0  0  0  0  0  0  0  0  0  0  0  0
   58.8230   34.5510   47.4000 C   0  0  0  0  0  0  0  0  0  0  0  0
   59.2200   33.4520   48.3970 C   0  0  0  0  0  0  0  0  0  0  0  0
   61.1996   32.0134   50.1948 H   0  0  0  0  0  0  0  0  0  0  0  0
   60.4923   31.2743   48.7182 H   0  0  0  0  0  0  0  0  0  0  0  0
   62.2039   31.8194   48.7182 H   0  0  0  0  0  0  0  0  0  0  0  0
   60.9943   34.1586   49.3919 H   0  0  0  0  0  0  0  0  0  0  0  0
   61.7545   34.9243   47.4060 H   0  0  0  0  0  0  0  0  0  0  0  0
   62.4531   33.2592   47.2850 H   0  0  0  0  0  0  0  0  0  0  0  0
   61.3084   33.8641   45.1963 H   0  0  0  0  0  0  0  0  0  0  0  0
   60.4433   32.5204   46.0486 H   0  0  0  0  0  0  0  0  0  0  0  0
   59.3791   31.8858   46.8870 H   0  0  0  0  0  0  0  0  0  0  0  0
   58.9189   29.4759   47.3229 H   0  0  0  0  0  0  0  0  0  0  0  0
   56.3240   27.6490   46.4620 H   0  0  0  0  0  0  0  0  0  0  0  0
   58.7543   24.8502   46.2285 H   0  0  0  0  0  0  0  0  0  0  0  0
   57.2371   25.3994   47.0217 H   0  0  0  0  0  0  0  0  0  0  0  0
   58.7122   24.7906   43.6969 H   0  0  0  0  0  0  0  0  0  0  0  0
   57.2228   23.9836   43.0993 H   0  0  0  0  0  0  0  0  0  0  0  0
   57.3347   25.7764   43.0993 H   0  0  0  0  0  0  0  0  0  0  0  0
   56.6314   22.2413   44.8799 H   0  0  0  0  0  0  0  0  0  0  0  0
   54.4893   21.0623   45.3867 H   0  0  0  0  0  0  0  0  0  0  0  0
   52.4670   22.3711   46.0424 H   0  0  0  0  0  0  0  0  0  0  0  0
   52.5811   24.8601   46.1932 H   0  0  0  0  0  0  0  0  0  0  0  0
   56.0015   29.4543   44.1237 H   0  0  0  0  0  0  0  0  0  0  0  0
   56.4648   31.8645   43.6876 H   0  0  0  0  0  0  0  0  0  0  0  0
   59.1305   35.5245   47.8097 H   0  0  0  0  0  0  0  0  0  0  0  0
   57.7336   34.4919   47.2597 H   0  0  0  0  0  0  0  0  0  0  0  0
   58.7256   33.6453   49.3604 H   0  0  0  0  0  0  0  0  0  0  0  0
   58.9054   32.4801   47.9892 H   0  0  0  0  0  0  0  0  0  0  0  0
  1  2  1  0
  2  3  1  0
  3  4  1  0
  4  5  1  0
  5  6  1  0
  6  7  2  0
  6  8  2  0
  6  9  1  0
  9 10  2  0
 10 11  1  0
 11 12  2  0
 12 13  1  0
 13 14  1  0
 14 15  2  0
 14 16  1  0
 16 17  1  0
 17 18  1  0
 17 19  1  0
 19 20  2  0
 20 21  1  0
 21 22  2  0
 22 23  1  0
 23 24  2  0
 24 25  1  0
 12 26  1  0
 26 27  2  0
  5 28  1  0
 28 29  1  0
 29  2  1  0
 27  9  1  0
 24 19  1  0
  1 30  1  0
  1 31  1  0
  1 32  1  0
  2 33  1  0
  3 34  1  0
  3 35  1  0
  4 36  1  0
  4 37  1  0
 10 38  1  0
 11 39  1  0
 13 40  1  0
 16 41  1  0
 16 42  1  0
 18 43  1  0
 18 44  1  0
 18 45  1  0
 20 46  1  0
 21 47  1  0
 22 48  1  0
 23 49  1  0
 26 50  1  0
 27 51  1  0
 28 52  1  0
 28 53  1  0
 29 54  1  0
 29 55  1  0
M  CHG  1  25  -1
M  END
>  <UniqueID>  (27) 
25

>  <SMILES>  (27) 
CC1CCN(S(=O)(=O)c2ccc(NC(=O)CN(C)c3ccccc3[O-])cc2)CC1

>  <Energy>  (27) 
64.12525269966068

>  <Genealogy>  (27) 
CC1CCN(S(=O)(=O)c2ccc(NC(=O)CN(C)c3ccccc3[O-])cc2)CC1 (protonated)
CC1CCN(S(=O)(=O)c2ccc(NC(=O)CN(C)c3ccccc3[O-])cc2)CC1 (3D coordinates assigned)
CC1CCN(S(=O)(=O)c2ccc(NC(=O)CN(C)c3ccccc3[O-])cc2)CC1 (nonaromatic ring conformer: 64.12525269966068 kcal/mol)

>  <smiles>  (27) 
CC1CCN(S(=O)(=O)c2ccc(NC(=O)CN(C)c3ccccc3O)cc2)CC1

>  <score_type>  (27) 
oracle

>  <origin>  (27) 
adg

>  <m_score__min__energy>  (27) 
-12.289999999999999

>  <m_primary>  (27) 
energy

$$$$
27:0
     RDKit          3D

 66 70  0  0  0  0  0  0  0  0999 V2000
   50.9140   23.3900   44.9060 C   0  0  0  0  0  0  0  0  0  0  0  0
   51.3090   22.9330   46.2870 C   0  0  0  0  0  0  0  0  0  0  0  0
   50.3080   22.8290   47.2690 C   0  0  0  0  0  0  0  0  0  0  0  0
   50.6290   22.4550   48.5750 C   0  0  0  0  0  0  0  0  0  0  0  0
   51.9520   22.1780   48.9190 C   0  0  0  0  0  0  0  0  0  0  0  0
   52.9550   22.2560   47.9520 C   0  0  0  0  0  0  0  0  0  0  0  0
   52.6490   22.6080   46.6260 C   0  0  0  0  0  0  0  0  0  0  0  0
   53.7470   22.6290   45.6340 C   0  0  0  0  0  0  0  0  0  0  0  0
   53.7180   23.4730   44.6980 O   0  0  0  0  0  0  0  0  0  0  0  0
   54.8610   21.7360   45.7580 N   0  0  0  0  0  0  0  0  0  0  0  0
   55.8880   21.6460   44.7200 C   0  0  0  0  0  0  0  0  0  0  0  0
   56.9220   22.7050   44.9190 C   0  0  0  0  0  0  0  0  0  0  0  0
   56.7030   24.0140   44.6760 N   0  0  0  0  0  0  0  0  0  0  0  0
   57.7680   24.7950   45.0190 C   0  0  0  0  0  0  0  0  0  0  0  0
   57.7310   26.2720   44.8380 C   0  0  0  0  0  0  0  0  0  0  0  0
   57.3560   27.1380   45.8840 C   0  0  0  0  0  0  0  0  0  0  0  0
   57.3130   28.5200   45.6820 C   0  0  0  0  0  0  0  0  0  0  0  0
   57.6270   29.0670   44.4300 C   0  0  0  0  0  0  0  0  0  0  0  0
   57.5680   30.5290   44.2210 C   0  0  0  0  0  0  0  0  0  0  0  0
   57.5920   30.9780   43.0430 O   0  0  0  0  0  0  0  0  0  0  0  0
   57.5180   31.4460   45.3330 N   0  0  0  0  0  0  0  0  0  0  0  0
   56.9200   32.7770   45.1670 C   0  0  0  0  0  0  0  0  0  0  0  0
   57.9950   33.8530   45.3590 C   0  0  0  0  0  0  0  0  0  0  0  0
   58.8560   33.5510   46.5130 N   0  0  0  0  0  0  0  0  0  0  0  0
   59.8930   34.4820   46.8720 C   0  0  0  0  0  0  0  0  0  0  0  0
   59.6650   35.7210   46.7930 O   0  0  0  0  0  0  0  0  0  0  0  0
   61.2310   34.0200   47.3060 C   0  0  0  0  0  0  0  0  0  0  0  0
   62.2530   33.8170   46.3620 C   0  0  0  0  0  0  0  0  0  0  0  0
   63.5150   33.3750   46.7700 C   0  0  0  0  0  0  0  0  0  0  0  0
   63.7670   33.1220   48.1210 C   0  0  0  0  0  0  0  0  0  0  0  0
   62.7540   33.3030   49.0650 C   0  0  0  0  0  0  0  0  0  0  0  0
   61.4900   33.7440   48.6620 C   0  0  0  0  0  0  0  0  0  0  0  0
   58.5310   32.4170   47.3920 C   0  0  0  0  0  0  0  0  0  0  0  0
   58.2860   31.1520   46.5570 C   0  0  0  0  0  0  0  0  0  0  0  0
   58.0220   28.2130   43.3910 C   0  0  0  0  0  0  0  0  0  0  0  0
   58.0700   26.8310   43.5920 C   0  0  0  0  0  0  0  0  0  0  0  0
   58.8480   24.0840   45.5580 C   0  0  0  0  0  0  0  0  0  0  0  0
   58.4350   22.4550   45.6020 S   0  0  0  0  0  0  0  0  0  0  0  0
   50.1966   24.2200   44.9857 H   0  0  0  0  0  0  0  0  0  0  0  0
   51.8081   23.7290   44.3623 H   0  0  0  0  0  0  0  0  0  0  0  0
   50.4491   22.5544   44.3623 H   0  0  0  0  0  0  0  0  0  0  0  0
   49.2620   23.0444   47.0056 H   0  0  0  0  0  0  0  0  0  0  0  0
   49.8369   22.3786   49.3344 H   0  0  0  0  0  0  0  0  0  0  0  0
   52.2047   21.8981   49.9524 H   0  0  0  0  0  0  0  0  0  0  0  0
   53.9969   22.0396   48.2305 H   0  0  0  0  0  0  0  0  0  0  0  0
   54.9670   21.1840   46.6380 H   0  0  0  0  0  0  0  0  0  0  0  0
   56.3675   20.6572   44.7690 H   0  0  0  0  0  0  0  0  0  0  0  0
   55.4157   21.7881   43.7368 H   0  0  0  0  0  0  0  0  0  0  0  0
   57.0947   26.7226   46.8685 H   0  0  0  0  0  0  0  0  0  0  0  0
   57.0305   29.1841   46.5121 H   0  0  0  0  0  0  0  0  0  0  0  0
   56.4929   32.8628   44.1569 H   0  0  0  0  0  0  0  0  0  0  0  0
   56.1266   32.9164   45.9161 H   0  0  0  0  0  0  0  0  0  0  0  0
   58.6161   33.9042   44.4526 H   0  0  0  0  0  0  0  0  0  0  0  0
   57.4936   34.8146   45.5432 H   0  0  0  0  0  0  0  0  0  0  0  0
   62.0585   34.0071   45.2962 H   0  0  0  0  0  0  0  0  0  0  0  0
   64.3113   33.2261   46.0259 H   0  0  0  0  0  0  0  0  0  0  0  0
   64.7626   32.7805   48.4406 H   0  0  0  0  0  0  0  0  0  0  0  0
   62.9509   33.0982   50.1277 H   0  0  0  0  0  0  0  0  0  0  0  0
   60.6932   33.8761   49.4088 H   0  0  0  0  0  0  0  0  0  0  0  0
   59.3693   32.2402   48.0820 H   0  0  0  0  0  0  0  0  0  0  0  0
   57.6198   32.6536   47.9609 H   0  0  0  0  0  0  0  0  0  0  0  0
   59.2565   30.7187   46.2733 H   0  0  0  0  0  0  0  0  0  0  0  0
   57.7022   30.4467   47.1667 H   0  0  0  0  0  0  0  0  0  0  0  0
   58.2957   28.6331   42.4119 H   0  0  0  0  0  0  0  0  0  0  0  0
   58.3765   26.1721   42.7662 H   0  0  0  0  0  0  0  0  0  0  0  0
   59.8017   24.5169   45.8944 H   0  0  0  0  0  0  0  0  0  0  0  0
  1  2  1  0
  2  3  2  0
  3  4  1  0
  4  5  2  0
  5  6  1  0
  6  7  2  0
  7  8  1  0
  8  9  2  0
  8 10  1  0
 10 11  1  0
 11 12  1  0
 12 13  2  0
 13 14  1  0
 14 15  1  0
 15 16  2  0
 16 17  1  0
 17 18  2  0
 18 19  1  0
 19 20  2  0
 19 21  1  0
 21 22  1  0
 22 23  1  0
 23 24  1  0
 24 25  1  0
 25 26  2  0
 25 27  1  0
 27 28  2  0
 28 29  1  0
 29 30  2  0
 30 31  1  0
 31 32  2  0
 24 33  1  0
 33 34  1  0
 18 35  1  0
 35 36  2  0
 14 37  2  0
 37 38  1  0
  7  2  1  0
 38 12  1  0
 36 15  1  0
 34 21  1  0
 32 27  1  0
  1 39  1  0
  1 40  1  0
  1 41  1  0
  3 42  1  0
  4 43  1  0
  5 44  1  0
  6 45  1  0
 10 46  1  0
 11 47  1  0
 11 48  1  0
 16 49  1  0
 17 50  1  0
 22 51  1  0
 22 52  1  0
 23 53  1  0
 23 54  1  0
 28 55  1  0
 29 56  1  0
 30 57  1  0
 31 58  1  0
 32 59  1  0
 33 60  1  0
 33 61  1  0
 34 62  1  0
 34 63  1  0
 35 64  1  0
 36 65  1  0
 37 66  1  0
M  END
>  <UniqueID>  (28) 
26

>  <SMILES>  (28) 
Cc1ccccc1C(=O)NCc1nc(-c2ccc(C(=O)N3CCN(C(=O)c4ccccc4)CC3)cc2)cs1

>  <Energy>  (28) 
116.92578597684034

>  <Genealogy>  (28) 
Cc1ccccc1C(=O)NCc1nc(-c2ccc(C(=O)N3CCN(C(=O)c4ccccc4)CC3)cc2)cs1 (3D coordinates assigned)
Cc1ccccc1C(=O)NCc1nc(-c2ccc(C(=O)N3CCN(C(=O)c4ccccc4)CC3)cc2)cs1 (nonaromatic ring conformer: 116.92578597684034 kcal/mol)

>  <smiles>  (28) 
Cc1ccccc1C(=O)NCc1nc(-c2ccc(C(=O)N3CCN(C(=O)c4ccccc4)CC3)cc2)cs1

>  <score_type>  (28) 
oracle

>  <origin>  (28) 
adg

>  <m_score__min__energy>  (28) 
-9.9299999999999997

>  <m_primary>  (28) 
energy

$$$$
28:0
     RDKit          3D

 56 59  0  0  0  0  0  0  0  0999 V2000
   60.3440   29.3480   46.8770 C   0  0  0  0  0  0  0  0  0  0  0  0
   59.2830   29.6960   46.1320 C   0  0  0  0  0  0  0  0  0  0  0  0
   58.5020   28.8380   45.3410 C   0  0  0  0  0  0  0  0  0  0  0  0
   58.4070   27.4960   45.3400 C   0  0  0  0  0  0  0  0  0  0  0  0
   57.1830   26.7310   45.6490 C   0  0  0  0  0  0  0  0  0  0  0  0
   57.1700   25.4970   46.1900 N   0  0  0  0  0  0  0  0  0  0  0  0
   55.8610   25.2870   46.4520 C   0  0  0  0  0  0  0  0  0  0  0  0
   55.4370   24.2200   46.9740 O   0  0  0  0  0  0  0  0  0  0  0  0
   55.0450   26.3150   46.1390 N   0  0  0  0  0  0  0  0  0  0  0  0
   55.9010   27.2270   45.6470 C   0  0  0  0  0  0  0  0  0  0  0  0
   55.5250   28.4960   45.2220 O   0  0  0  0  0  0  0  0  0  0  0  0
   57.7510   29.6500   44.5120 C   0  0  0  0  0  0  0  0  0  0  0  0
   58.0070   30.9520   44.8910 C   0  0  0  0  0  0  0  0  0  0  0  0
   57.3780   32.1540   44.2510 C   0  0  0  0  0  0  0  0  0  0  0  0
   58.9420   30.9860   45.8730 N   0  0  0  0  0  0  0  0  0  0  0  0
   59.4820   32.1690   46.4940 C   0  0  0  0  0  0  0  0  0  0  0  0
   60.8700   32.3110   46.6470 C   0  0  0  0  0  0  0  0  0  0  0  0
   61.4030   33.4100   47.3360 C   0  0  0  0  0  0  0  0  0  0  0  0
   62.8600   33.5970   47.4030 C   0  0  0  0  0  0  0  0  0  0  0  0
   63.3530   34.4970   46.6680 O   0  0  0  0  0  0  0  0  0  0  0  0
   63.6860   32.8870   48.3780 N   0  0  0  0  0  0  0  0  0  0  0  0
   63.0770   31.6020   48.7990 C   0  0  0  0  0  0  0  0  0  0  0  0
   61.8250   31.8200   49.6610 C   0  0  0  0  0  0  0  0  0  0  0  0
   62.1610   32.6220   50.8560 N   0  0  0  0  0  0  0  0  0  0  0  0
   60.9650   32.8250   51.7060 C   0  0  0  0  0  0  0  0  0  0  0  0
   59.8330   33.4550   50.8920 C   0  0  0  0  0  0  0  0  0  0  0  0
   62.7530   33.9170   50.4600 C   0  0  0  0  0  0  0  0  0  0  0  0
   63.9950   33.7030   49.5810 C   0  0  0  0  0  0  0  0  0  0  0  0
   60.5440   34.3910   47.8490 C   0  0  0  0  0  0  0  0  0  0  0  0
   59.1620   34.2760   47.6650 C   0  0  0  0  0  0  0  0  0  0  0  0
   58.6300   33.1730   46.9880 C   0  0  0  0  0  0  0  0  0  0  0  0
   57.2890   33.1070   46.7790 F   0  0  0  0  0  0  0  0  0  0  0  0
   60.8815   30.1112   47.4590 H   0  0  0  0  0  0  0  0  0  0  0  0
   60.6760   28.2997   46.9055 H   0  0  0  0  0  0  0  0  0  0  0  0
   59.3125   26.9240   45.0892 H   0  0  0  0  0  0  0  0  0  0  0  0
   57.0788   29.3216   43.7056 H   0  0  0  0  0  0  0  0  0  0  0  0
   57.0191   32.8399   45.0325 H   0  0  0  0  0  0  0  0  0  0  0  0
   58.1226   32.6682   43.6256 H   0  0  0  0  0  0  0  0  0  0  0  0
   56.5310   31.8354   43.6256 H   0  0  0  0  0  0  0  0  0  0  0  0
   61.5456   31.5536   46.2228 H   0  0  0  0  0  0  0  0  0  0  0  0
   64.5910   32.6480   47.9000 H   0  0  0  0  0  0  0  0  0  0  0  0
   62.7967   31.0300   47.9022 H   0  0  0  0  0  0  0  0  0  0  0  0
   63.8163   31.0544   49.4020 H   0  0  0  0  0  0  0  0  0  0  0  0
   61.0645   32.3507   49.0694 H   0  0  0  0  0  0  0  0  0  0  0  0
   61.4362   30.8426   49.9826 H   0  0  0  0  0  0  0  0  0  0  0  0
   60.6311   31.8537   52.0999 H   0  0  0  0  0  0  0  0  0  0  0  0
   61.2265   33.4992   52.5349 H   0  0  0  0  0  0  0  0  0  0  0  0
   59.0796   33.8743   51.5751 H   0  0  0  0  0  0  0  0  0  0  0  0
   60.2395   34.2566   50.2579 H   0  0  0  0  0  0  0  0  0  0  0  0
   59.3660   32.6870   50.2579 H   0  0  0  0  0  0  0  0  0  0  0  0
   62.0076   34.4969   49.8960 H   0  0  0  0  0  0  0  0  0  0  0  0
   63.0531   34.4600   51.3683 H   0  0  0  0  0  0  0  0  0  0  0  0
   64.3758   34.6832   49.2581 H   0  0  0  0  0  0  0  0  0  0  0  0
   64.7463   33.1634   50.1763 H   0  0  0  0  0  0  0  0  0  0  0  0
   60.9563   35.2515   48.3964 H   0  0  0  0  0  0  0  0  0  0  0  0
   58.4908   35.0558   48.0541 H   0  0  0  0  0  0  0  0  0  0  0  0
  1  2  2  0
  2  3  1  0
  3  4  2  3
  4  5  1  0
  5  6  1  0
  6  7  1  0
  7  8  2  0
  7  9  1  0
  9 10  1  0
 10 11  1  0
  3 12  1  0
 12 13  2  0
 13 14  1  0
 13 15  1  0
 15 16  1  0
 16 17  2  0
 17 18  1  0
 18 19  1  0
 19 20  2  0
 19 21  1  0
 21 22  1  0
 22 23  1  0
 23 24  1  0
 24 25  1  0
 25 26  1  0
 24 27  1  0
 27 28  1  0
 18 29  2  0
 29 30  1  0
 30 31  2  0
 31 32  1  0
 15  2  1  0
 31 16  1  0
 10  5  2  0
 28 21  1  0
  1 33  1  0
  1 34  1  0
  4 35  1  0
 12 36  1  0
 14 37  1  0
 14 38  1  0
 14 39  1  0
 17 40  1  0
 21 41  1  0
 22 42  1  0
 22 43  1  0
 23 44  1  0
 23 45  1  0
 25 46  1  0
 25 47  1  0
 26 48  1  0
 26 49  1  0
 26 50  1  0
 27 51  1  0
 27 52  1  0
 28 53  1  0
 28 54  1  0
 29 55  1  0
 30 56  1  0
M  CHG  4   6  -1   9  -1  11  -1  21   1
M  END
>  <UniqueID>  (29) 
27

>  <SMILES>  (29) 
C=c1c(=Cc2[n-]c(=O)[n-]c2[O-])cc(C)n1-c1cc(C(=O)[NH+]2CCN(CC)CC2)ccc1F

>  <Energy>  (29) 
150.637452239156

>  <Genealogy>  (29) 
C=c1c(=Cc2[n-]c(=O)[n-]c2[O-])cc(C)n1-c1cc(C(=O)[NH+]2CCN(CC)CC2)ccc1F (protonated)
C=c1c(=Cc2[n-]c(=O)[n-]c2[O-])cc(C)n1-c1cc(C(=O)[NH+]2CCN(CC)CC2)ccc1F (3D coordinates assigned)
C=c1c(=Cc2[n-]c(=O)[n-]c2[O-])cc(C)n1-c1cc(C(=O)[NH+]2CCN(CC)CC2)ccc1F (nonaromatic ring conformer: 150.637452239156 kcal/mol)

>  <smiles>  (29) 
C=c1c(=Cc2[nH]c(=O)[nH]c2O)cc(C)n1-c1cc(C(=O)N2CCN(CC)CC2)ccc1F

>  <score_type>  (29) 
oracle

>  <origin>  (29) 
adg

>  <m_score__min__energy>  (29) 
-15.630000000000001

>  <m_primary>  (29) 
energy

$$$$
29:0
     RDKit          3D

 42 43  0  0  0  0  0  0  0  0999 V2000
   58.3910   28.3300   43.8740 O   0  0  0  0  0  0  0  0  0  0  0  0
   57.8200   29.0020   44.7740 C   0  0  0  0  0  0  0  0  0  0  0  0
   58.6170   30.0250   45.5300 C   0  0  0  0  0  0  0  0  0  0  0  0
   58.7890   31.2980   44.6890 C   0  0  0  0  0  0  0  0  0  0  0  0
   57.4370   31.9360   44.3070 C   0  0  0  0  0  0  0  0  0  0  0  0
   57.0000   33.0530   45.2700 C   0  0  0  0  0  0  0  0  0  0  0  0
   58.1420   33.5690   46.1070 C   0  0  0  0  0  0  0  0  0  0  0  0
   58.9950   34.5650   45.6030 C   0  0  0  0  0  0  0  0  0  0  0  0
   60.0260   35.0760   46.3970 C   0  0  0  0  0  0  0  0  0  0  0  0
   60.2110   34.6000   47.6980 C   0  0  0  0  0  0  0  0  0  0  0  0
   59.3650   33.6120   48.2080 C   0  0  0  0  0  0  0  0  0  0  0  0
   58.3340   33.0960   47.4170 C   0  0  0  0  0  0  0  0  0  0  0  0
   56.3870   28.7910   45.0650 C   0  0  0  0  0  0  0  0  0  0  0  0
   55.5690   29.7160   44.8190 O   0  0  0  0  0  0  0  0  0  0  0  0
   55.8870   27.5680   45.6210 N   0  0  0  0  0  0  0  0  0  0  0  0
   56.8390   26.1550   45.9470 S   0  0  0  0  0  0  0  0  0  0  0  0
   56.0650   25.2270   46.8410 O   0  0  0  0  0  0  0  0  0  0  0  0
   57.1310   25.4500   44.6540 O   0  0  0  0  0  0  0  0  0  0  0  0
   58.3690   26.6180   46.6880 C   0  0  0  0  0  0  0  0  0  0  0  0
   59.5760   26.0370   46.2690 C   0  0  0  0  0  0  0  0  0  0  0  0
   60.7800   26.4040   46.8780 C   0  0  0  0  0  0  0  0  0  0  0  0
   60.7860   27.3500   47.9050 C   0  0  0  0  0  0  0  0  0  0  0  0
   59.5870   27.9350   48.3240 C   0  0  0  0  0  0  0  0  0  0  0  0
   58.3810   27.5700   47.7180 C   0  0  0  0  0  0  0  0  0  0  0  0
   58.0922   30.2756   46.4637 H   0  0  0  0  0  0  0  0  0  0  0  0
   59.6102   29.6088   45.7545 H   0  0  0  0  0  0  0  0  0  0  0  0
   59.3733   32.0281   45.2682 H   0  0  0  0  0  0  0  0  0  0  0  0
   59.3037   31.0186   43.7579 H   0  0  0  0  0  0  0  0  0  0  0  0
   57.5240   32.3604   43.2959 H   0  0  0  0  0  0  0  0  0  0  0  0
   56.6757   31.1437   44.3587 H   0  0  0  0  0  0  0  0  0  0  0  0
   56.5888   33.8862   44.6812 H   0  0  0  0  0  0  0  0  0  0  0  0
   56.2472   32.6319   45.9527 H   0  0  0  0  0  0  0  0  0  0  0  0
   58.8512   34.9440   44.5804 H   0  0  0  0  0  0  0  0  0  0  0  0
   60.6928   35.8541   45.9971 H   0  0  0  0  0  0  0  0  0  0  0  0
   61.0231   35.0034   48.3207 H   0  0  0  0  0  0  0  0  0  0  0  0
   59.5102   33.2397   49.2329 H   0  0  0  0  0  0  0  0  0  0  0  0
   57.6707   32.3171   47.8211 H   0  0  0  0  0  0  0  0  0  0  0  0
   59.5748   25.2916   45.4601 H   0  0  0  0  0  0  0  0  0  0  0  0
   61.7242   25.9466   46.5474 H   0  0  0  0  0  0  0  0  0  0  0  0
   61.7340   27.6351   48.3845 H   0  0  0  0  0  0  0  0  0  0  0  0
   59.5926   28.6827   49.1308 H   0  0  0  0  0  0  0  0  0  0  0  0
   57.4389   28.0308   48.0500 H   0  0  0  0  0  0  0  0  0  0  0  0
  1  2  2  0
  2  3  1  0
  3  4  1  0
  4  5  1  0
  5  6  1  0
  6  7  1  0
  7  8  2  0
  8  9  1  0
  9 10  2  0
 10 11  1  0
 11 12  2  0
  2 13  1  0
 13 14  2  0
 13 15  1  0
 15 16  1  0
 16 17  2  0
 16 18  2  0
 16 19  1  0
 19 20  2  0
 20 21  1  0
 21 22  2  0
 22 23  1  0
 23 24  2  0
 12  7  1  0
 24 19  1  0
  3 25  1  0
  3 26  1  0
  4 27  1  0
  4 28  1  0
  5 29  1  0
  5 30  1  0
  6 31  1  0
  6 32  1  0
  8 33  1  0
  9 34  1  0
 10 35  1  0
 11 36  1  0
 12 37  1  0
 20 38  1  0
 21 39  1  0
 22 40  1  0
 23 41  1  0
 24 42  1  0
M  CHG  1  15  -1
M  END
>  <UniqueID>  (30) 
28

>  <SMILES>  (30) 
O=C(CCCCc1ccccc1)C(=O)[N-]S(=O)(=O)c1ccccc1

>  <Energy>  (30) 
38.07835681615093

>  <Genealogy>  (30) 
O=C(CCCCc1ccccc1)C(=O)[N-]S(=O)(=O)c1ccccc1 (protonated)
O=C(CCCCc1ccccc1)C(=O)[N-]S(=O)(=O)c1ccccc1 (3D coordinates assigned)
O=C(CCCCc1ccccc1)C(=O)[N-]S(=O)(=O)c1ccccc1 (optimized conformer: 38.07835681615093 kcal/mol)

>  <smiles>  (30) 
O=C(CCCCc1ccccc1)C(=O)NS(=O)(=O)c1ccccc1

>  <score_type>  (30) 
oracle

>  <origin>  (30) 
adg

>  <m_score__min__energy>  (30) 
-10.199999999999999

>  <m_primary>  (30) 
energy

$$$$
30:0
     RDKit          3D

 56 59  0  0  0  0  0  0  0  0999 V2000
   59.8060   29.3630   49.5650 C   0  0  0  0  0  0  0  0  0  0  0  0
   60.4350   28.6320   48.5190 O   0  0  0  0  0  0  0  0  0  0  0  0
   59.9400   28.6130   47.2110 C   0  0  0  0  0  0  0  0  0  0  0  0
   58.6050   28.2590   46.9830 C   0  0  0  0  0  0  0  0  0  0  0  0
   58.1070   28.2440   45.6720 C   0  0  0  0  0  0  0  0  0  0  0  0
   56.6980   27.8040   45.3920 C   0  0  0  0  0  0  0  0  0  0  0  0
   55.8430   28.9740   45.2510 N   0  0  0  0  0  0  0  0  0  0  0  0
   55.7700   29.7660   44.0610 C   0  0  0  0  0  0  0  0  0  0  0  0
   54.9240   29.4890   43.1690 O   0  0  0  0  0  0  0  0  0  0  0  0
   56.6850   30.9050   43.8720 C   0  0  0  0  0  0  0  0  0  0  0  0
   57.1520   31.6400   44.9720 C   0  0  0  0  0  0  0  0  0  0  0  0
   58.0560   32.6970   44.7700 C   0  0  0  0  0  0  0  0  0  0  0  0
   58.5910   33.4340   45.8380 O   0  0  0  0  0  0  0  0  0  0  0  0
   59.8460   33.1980   46.4170 C   0  0  0  0  0  0  0  0  0  0  0  0
   60.8290   34.1930   46.3500 C   0  0  0  0  0  0  0  0  0  0  0  0
   62.1050   33.9600   46.8740 C   0  0  0  0  0  0  0  0  0  0  0  0
   62.4040   32.7330   47.4890 C   0  0  0  0  0  0  0  0  0  0  0  0
   63.7110   32.4670   48.0240 N   0  0  0  0  0  0  0  0  0  0  0  0
   64.2340   33.1060   49.1950 C   0  0  0  0  0  0  0  0  0  0  0  0
   63.5580   33.9820   49.8000 O   0  0  0  0  0  0  0  0  0  0  0  0
   65.5270   32.7270   49.6790 N   0  0  0  0  0  0  0  0  0  0  0  0
   65.8120   31.6160   50.5410 C   0  0  0  0  0  0  0  0  0  0  0  0
   67.1320   31.2070   50.8170 C   0  0  0  0  0  0  0  0  0  0  0  0
   67.3670   30.0850   51.6150 C   0  0  0  0  0  0  0  0  0  0  0  0
   66.2930   29.3610   52.1380 C   0  0  0  0  0  0  0  0  0  0  0  0
   64.9790   29.7520   51.8560 C   0  0  0  0  0  0  0  0  0  0  0  0
   63.9380   29.0430   52.3550 F   0  0  0  0  0  0  0  0  0  0  0  0
   64.7410   30.8710   51.0540 C   0  0  0  0  0  0  0  0  0  0  0  0
   61.3960   31.7660   47.6170 C   0  0  0  0  0  0  0  0  0  0  0  0
   60.1260   31.9920   47.0770 C   0  0  0  0  0  0  0  0  0  0  0  0
   58.4760   32.9920   43.4710 C   0  0  0  0  0  0  0  0  0  0  0  0
   57.9920   32.2400   42.4000 C   0  0  0  0  0  0  0  0  0  0  0  0
   57.1200   31.2220   42.6220 N   0  0  0  0  0  0  0  0  0  0  0  0
   58.9630   28.5650   44.6090 C   0  0  0  0  0  0  0  0  0  0  0  0
   60.2880   28.9190   44.8760 C   0  0  0  0  0  0  0  0  0  0  0  0
   60.7440   28.9350   46.1570 N   0  0  0  0  0  0  0  0  0  0  0  0
   60.1412   28.9734   50.5376 H   0  0  0  0  0  0  0  0  0  0  0  0
   60.0760   30.4262   49.4831 H   0  0  0  0  0  0  0  0  0  0  0  0
   58.7144   29.2546   49.4831 H   0  0  0  0  0  0  0  0  0  0  0  0
   57.9507   27.9943   47.8267 H   0  0  0  0  0  0  0  0  0  0  0  0
   56.6749   27.2186   44.4610 H   0  0  0  0  0  0  0  0  0  0  0  0
   56.3355   27.1832   46.2246 H   0  0  0  0  0  0  0  0  0  0  0  0
   56.8122   31.3901   45.9879 H   0  0  0  0  0  0  0  0  0  0  0  0
   60.5969   35.1618   45.8835 H   0  0  0  0  0  0  0  0  0  0  0  0
   62.8770   34.7405   46.8042 H   0  0  0  0  0  0  0  0  0  0  0  0
   64.3800   31.9110   47.4430 H   0  0  0  0  0  0  0  0  0  0  0  0
   67.9795   31.7729   50.4029 H   0  0  0  0  0  0  0  0  0  0  0  0
   68.3988   29.7712   51.8318 H   0  0  0  0  0  0  0  0  0  0  0  0
   66.4802   28.4822   52.7725 H   0  0  0  0  0  0  0  0  0  0  0  0
   63.7075   31.1691   50.8238 H   0  0  0  0  0  0  0  0  0  0  0  0
   61.6058   30.8243   48.1453 H   0  0  0  0  0  0  0  0  0  0  0  0
   59.3451   31.2228   47.1699 H   0  0  0  0  0  0  0  0  0  0  0  0
   59.1853   33.8137   43.2931 H   0  0  0  0  0  0  0  0  0  0  0  0
   58.3167   32.4716   41.3749 H   0  0  0  0  0  0  0  0  0  0  0  0
   58.5943   28.5384   43.5730 H   0  0  0  0  0  0  0  0  0  0  0  0
   60.9629   29.1850   44.0491 H   0  0  0  0  0  0  0  0  0  0  0  0
  1  2  1  0
  2  3  1  0
  3  4  2  0
  4  5  1  0
  5  6  1  0
  6  7  1  0
  7  8  1  0
  8  9  2  0
  8 10  1  0
 10 11  2  0
 11 12  1  0
 12 13  1  0
 13 14  1  0
 14 15  2  0
 15 16  1  0
 16 17  2  0
 17 18  1  0
 18 19  1  0
 19 20  2  0
 19 21  1  0
 21 22  1  0
 22 23  2  0
 23 24  1  0
 24 25  2  0
 25 26  1  0
 26 27  1  0
 26 28  2  0
 17 29  1  0
 29 30  2  0
 12 31  2  0
 31 32  1  0
 32 33  2  0
  5 34  2  0
 34 35  1  0
 35 36  2  0
 36  3  1  0
 33 10  1  0
 30 14  1  0
 28 22  1  0
  1 37  1  0
  1 38  1  0
  1 39  1  0
  4 40  1  0
  6 41  1  0
  6 42  1  0
 11 43  1  0
 15 44  1  0
 16 45  1  0
 18 46  1  0
 23 47  1  0
 24 48  1  0
 25 49  1  0
 28 50  1  0
 29 51  1  0
 30 52  1  0
 31 53  1  0
 32 54  1  0
 34 55  1  0
 35 56  1  0
M  CHG  2   7  -1  21  -1
M  END
>  <UniqueID>  (31) 
29

>  <SMILES>  (31) 
COc1cc(C[N-]C(=O)c2cc(Oc3ccc(NC(=O)[N-]c4cccc(F)c4)cc3)ccn2)ccn1

>  <Energy>  (31) 
72.43624863958424

>  <Genealogy>  (31) 
COc1cc(C[N-]C(=O)c2cc(Oc3ccc(NC(=O)[N-]c4cccc(F)c4)cc3)ccn2)ccn1 (protonated)
COc1cc(C[N-]C(=O)c2cc(Oc3ccc(NC(=O)[N-]c4cccc(F)c4)cc3)ccn2)ccn1 (3D coordinates assigned)
COc1cc(C[N-]C(=O)c2cc(Oc3ccc(NC(=O)[N-]c4cccc(F)c4)cc3)ccn2)ccn1 (optimized conformer: 72.43624863958424 kcal/mol)

>  <smiles>  (31) 
COc1cc(CNC(=O)c2cc(Oc3ccc(NC(=O)Nc4cccc(F)c4)cc3)ccn2)ccn1

>  <score_type>  (31) 
oracle

>  <origin>  (31) 
adg

>  <m_score__min__energy>  (31) 
-11.58

>  <m_primary>  (31) 
energy

$$$$
31:0
     RDKit          3D

 60 63  0  0  0  0  0  0  0  0999 V2000
   56.0660   30.1520   44.8520 O   0  0  0  0  0  0  0  0  0  0  0  0
   57.1140   29.8180   44.2340 C   0  0  0  0  0  0  0  0  0  0  0  0
   57.4070   28.4300   44.0650 N   0  0  0  0  0  0  0  0  0  0  0  0
   57.7470   27.5300   45.1350 C   0  0  0  0  0  0  0  0  0  0  0  0
   56.9820   26.3690   45.3710 C   0  0  0  0  0  0  0  0  0  0  0  0
   57.2950   25.5180   46.4360 C   0  0  0  0  0  0  0  0  0  0  0  0
   58.3600   25.8250   47.2870 C   0  0  0  0  0  0  0  0  0  0  0  0
   59.1210   26.9760   47.0670 C   0  0  0  0  0  0  0  0  0  0  0  0
   58.8140   27.8400   46.0010 C   0  0  0  0  0  0  0  0  0  0  0  0
   59.8360   29.2980   45.7380 S   0  0  0  0  0  0  0  0  0  0  0  0
   59.9030   29.7090   47.4830 C   0  0  0  0  0  0  0  0  0  0  0  0
   61.1420   29.9300   48.1040 C   0  0  0  0  0  0  0  0  0  0  0  0
   61.2000   30.2100   49.4720 C   0  0  0  0  0  0  0  0  0  0  0  0
   60.0210   30.2570   50.2280 C   0  0  0  0  0  0  0  0  0  0  0  0
   58.7850   30.0230   49.6110 C   0  0  0  0  0  0  0  0  0  0  0  0
   58.7230   29.7450   48.2430 C   0  0  0  0  0  0  0  0  0  0  0  0
   58.0180   30.8220   43.7430 N   0  0  0  0  0  0  0  0  0  0  0  0
   57.7100   32.2540   43.7700 C   0  0  0  0  0  0  0  0  0  0  0  0
   57.4630   32.7390   45.1790 C   0  0  0  0  0  0  0  0  0  0  0  0
   56.2690   32.8640   45.5770 O   0  0  0  0  0  0  0  0  0  0  0  0
   58.5490   33.0690   46.0730 N   0  0  0  0  0  0  0  0  0  0  0  0
   58.3580   32.8740   47.5160 C   0  0  0  0  0  0  0  0  0  0  0  0
   59.6950   32.9590   48.2590 C   0  0  0  0  0  0  0  0  0  0  0  0
   60.4060   34.2220   47.9520 N   0  0  0  0  0  0  0  0  0  0  0  0
   61.7260   34.2690   48.6380 C   0  0  0  0  0  0  0  0  0  0  0  0
   61.8010   33.4170   49.9160 C   0  0  0  0  0  0  0  0  0  0  0  0
   63.2400   32.9300   49.9690 C   0  0  0  0  0  0  0  0  0  0  0  0
   63.6810   32.7840   48.5120 C   0  0  0  0  0  0  0  0  0  0  0  0
   62.8830   33.8200   47.7270 C   0  0  0  0  0  0  0  0  0  0  0  0
   60.4150   34.6170   46.5130 C   0  0  0  0  0  0  0  0  0  0  0  0
   59.8490   33.5400   45.5710 C   0  0  0  0  0  0  0  0  0  0  0  0
   56.1333   26.1310   44.7130 H   0  0  0  0  0  0  0  0  0  0  0  0
   56.7025   24.6065   46.6038 H   0  0  0  0  0  0  0  0  0  0  0  0
   58.5993   25.1604   48.1302 H   0  0  0  0  0  0  0  0  0  0  0  0
   59.9659   27.2078   47.7322 H   0  0  0  0  0  0  0  0  0  0  0  0
   62.0687   29.8828   47.5132 H   0  0  0  0  0  0  0  0  0  0  0  0
   62.1710   30.3935   49.9552 H   0  0  0  0  0  0  0  0  0  0  0  0
   60.0659   30.4774   51.3048 H   0  0  0  0  0  0  0  0  0  0  0  0
   57.8602   30.0583   50.2056 H   0  0  0  0  0  0  0  0  0  0  0  0
   57.7519   29.5548   47.7626 H   0  0  0  0  0  0  0  0  0  0  0  0
   58.9420   30.5250   43.3580 H   0  0  0  0  0  0  0  0  0  0  0  0
   58.5577   32.8104   43.3436 H   0  0  0  0  0  0  0  0  0  0  0  0
   56.7963   32.4224   43.1811 H   0  0  0  0  0  0  0  0  0  0  0  0
   57.6827   33.6534   47.8988 H   0  0  0  0  0  0  0  0  0  0  0  0
   57.9254   31.8764   47.6824 H   0  0  0  0  0  0  0  0  0  0  0  0
   59.5064   32.9087   49.3415 H   0  0  0  0  0  0  0  0  0  0  0  0
   60.3258   32.1190   47.9326 H   0  0  0  0  0  0  0  0  0  0  0  0
   61.8308   35.3307   48.9062 H   0  0  0  0  0  0  0  0  0  0  0  0
   61.5638   34.0243   50.8019 H   0  0  0  0  0  0  0  0  0  0  0  0
   61.0799   32.5864   49.9063 H   0  0  0  0  0  0  0  0  0  0  0  0
   63.8739   33.6625   50.4901 H   0  0  0  0  0  0  0  0  0  0  0  0
   63.3274   31.9802   50.5169 H   0  0  0  0  0  0  0  0  0  0  0  0
   64.7593   32.9798   48.4173 H   0  0  0  0  0  0  0  0  0  0  0  0
   63.5008   31.7661   48.1359 H   0  0  0  0  0  0  0  0  0  0  0  0
   63.5219   34.6790   47.4742 H   0  0  0  0  0  0  0  0  0  0  0  0
   62.5041   33.3973   46.7848 H   0  0  0  0  0  0  0  0  0  0  0  0
   59.8109   35.5293   46.3998 H   0  0  0  0  0  0  0  0  0  0  0  0
   61.4665   34.7711   46.2291 H   0  0  0  0  0  0  0  0  0  0  0  0
   59.7189   33.9667   44.5655 H   0  0  0  0  0  0  0  0  0  0  0  0
   60.5491   32.6926   45.5275 H   0  0  0  0  0  0  0  0  0  0  0  0
  1  2  2  0
  2  3  1  0
  3  4  1  0
  4  5  2  0
  5  6  1  0
  6  7  2  0
  7  8  1  0
  8  9  2  0
  9 10  1  0
 10 11  1  0
 11 12  2  0
 12 13  1  0
 13 14  2  0
 14 15  1  0
 15 16  2  0
  2 17  1  0
 17 18  1  0
 18 19  1  0
 19 20  2  0
 19 21  1  0
 21 22  1  0
 22 23  1  0
 23 24  1  0
 24 25  1  0
 25 26  1  0
 26 27  1  0
 27 28  1  0
 28 29  1  0
 24 30  1  0
 30 31  1  0
  9  4  1  0
 16 11  1  0
 31 21  1  0
 29 25  1  0
  5 32  1  0
  6 33  1  0
  7 34  1  0
  8 35  1  0
 12 36  1  0
 13 37  1  0
 14 38  1  0
 15 39  1  0
 16 40  1  0
 17 41  1  0
 18 42  1  0
 18 43  1  0
 22 44  1  0
 22 45  1  0
 23 46  1  0
 23 47  1  0
 25 48  1  0
 26 49  1  0
 26 50  1  0
 27 51  1  0
 27 52  1  0
 28 53  1  0
 28 54  1  0
 29 55  1  0
 29 56  1  0
 30 57  1  0
 30 58  1  0
 31 59  1  0
 31 60  1  0
M  CHG  1   3  -1
M  END
>  <UniqueID>  (32) 
30

>  <SMILES>  (32) 
O=C([N-]c1ccccc1Sc1ccccc1)NCC(=O)N1CCN(C2CCCC2)CC1

>  <Energy>  (32) 
71.92112430552457

>  <Genealogy>  (32) 
O=C([N-]c1ccccc1Sc1ccccc1)NCC(=O)N1CCN(C2CCCC2)CC1 (protonated)
O=C([N-]c1ccccc1Sc1ccccc1)NCC(=O)N1CCN(C2CCCC2)CC1 (3D coordinates assigned)
O=C([N-]c1ccccc1Sc1ccccc1)NCC(=O)N1CCN(C2CCCC2)CC1 (nonaromatic ring conformer: 71.92112430552457 kcal/mol)

>  <smiles>  (32) 
O=C(NCC(=O)N1CCN(C2CCCC2)CC1)Nc1ccccc1Sc1ccccc1

>  <score_type>  (32) 
oracle

>  <origin>  (32) 
adg

>  <m_score__min__energy>  (32) 
-11.789999999999999

>  <m_primary>  (32) 
energy

$$$$
32:0
     RDKit          3D

 30 30  0  0  0  0  0  0  0  0999 V2000
   58.1200   26.8800   43.9920 C   0  0  0  0  0  0  0  0  0  0  0  0
   57.7340   27.0220   45.4630 C   0  0  0  0  0  0  0  0  0  0  0  0
   56.2780   27.3680   45.6210 C   0  0  0  0  0  0  0  0  0  0  0  0
   55.4840   26.4870   46.0450 O   0  0  0  0  0  0  0  0  0  0  0  0
   55.7410   28.6260   45.1870 N   0  0  0  0  0  0  0  0  0  0  0  0
   56.4510   29.6670   44.5030 C   0  0  0  0  0  0  0  0  0  0  0  0
   56.2800   29.8130   43.1220 C   0  0  0  0  0  0  0  0  0  0  0  0
   56.9340   30.8390   42.4350 C   0  0  0  0  0  0  0  0  0  0  0  0
   57.7560   31.7330   43.1270 C   0  0  0  0  0  0  0  0  0  0  0  0
   57.9300   31.6090   44.5130 C   0  0  0  0  0  0  0  0  0  0  0  0
   58.7480   32.5630   45.2120 N   0  0  0  0  0  0  0  0  0  0  0  0
   58.3050   33.8700   45.6150 C   0  0  0  0  0  0  0  0  0  0  0  0
   59.3080   34.9770   45.7270 C   0  0  0  0  0  0  0  0  0  0  0  0
   57.0820   34.0640   46.0140 N   0  0  0  0  0  0  0  0  0  0  0  0
   57.2460   30.5910   45.2000 C   0  0  0  0  0  0  0  0  0  0  0  0
   59.1500   26.5011   43.9181 H   0  0  0  0  0  0  0  0  0  0  0  0
   57.4339   26.1754   43.4992 H   0  0  0  0  0  0  0  0  0  0  0  0
   58.0541   27.8612   43.4992 H   0  0  0  0  0  0  0  0  0  0  0  0
   57.9331   26.0707   45.9781 H   0  0  0  0  0  0  0  0  0  0  0  0
   58.3312   27.8363   45.8991 H   0  0  0  0  0  0  0  0  0  0  0  0
   55.6276   29.1168   42.5746 H   0  0  0  0  0  0  0  0  0  0  0  0
   56.8018   30.9433   41.3480 H   0  0  0  0  0  0  0  0  0  0  0  0
   58.2693   32.5384   42.5813 H   0  0  0  0  0  0  0  0  0  0  0  0
   59.7380   32.3000   45.4230 H   0  0  0  0  0  0  0  0  0  0  0  0
   59.5014   35.1905   46.7886 H   0  0  0  0  0  0  0  0  0  0  0  0
   60.2451   34.6736   45.2373 H   0  0  0  0  0  0  0  0  0  0  0  0
   58.9140   35.8797   45.2373 H   0  0  0  0  0  0  0  0  0  0  0  0
   56.8030   33.8730   47.0030 H   0  0  0  0  0  0  0  0  0  0  0  0
   56.3390   34.3850   45.3560 H   0  0  0  0  0  0  0  0  0  0  0  0
   57.3344   30.5176   46.2940 H   0  0  0  0  0  0  0  0  0  0  0  0
  1  2  1  0
  2  3  1  0
  3  4  2  0
  3  5  1  0
  5  6  1  0
  6  7  2  0
  7  8  1  0
  8  9  2  0
  9 10  1  0
 10 11  1  0
 11 12  1  0
 12 13  1  0
 12 14  2  0
 10 15  2  0
 15  6  1  0
  1 16  1  0
  1 17  1  0
  1 18  1  0
  2 19  1  0
  2 20  1  0
  7 21  1  0
  8 22  1  0
  9 23  1  0
 11 24  1  0
 13 25  1  0
 13 26  1  0
 13 27  1  0
 14 28  1  0
 14 29  1  0
 15 30  1  0
M  CHG  2   5  -1  14   1
M  END
>  <UniqueID>  (33) 
31

>  <SMILES>  (33) 
CCC(=O)[N-]c1cccc(NC(C)=[NH2+])c1

>  <Energy>  (33) 
31.07419546241199

>  <Genealogy>  (33) 
CCC(=O)[N-]c1cccc(NC(C)=[NH2+])c1 (protonated)
CCC(=O)[N-]c1cccc(NC(C)=[NH2+])c1 (3D coordinates assigned)
CCC(=O)[N-]c1cccc(NC(C)=[NH2+])c1 (optimized conformer: 31.07419546241199 kcal/mol)

>  <smiles>  (33) 
CCC(=O)Nc1cccc(NC(C)=N)c1

>  <score_type>  (33) 
oracle

>  <origin>  (33) 
adg

>  <m_score__min__energy>  (33) 
-6.4800000000000004

>  <m_primary>  (33) 
energy

$$$$
33:0
     RDKit          3D

 41 44  0  0  1  0  0  0  0  0999 V2000
   55.1790   26.4640   46.0040 O   0  0  0  0  0  0  0  0  0  0  0  0
   56.3690   26.2700   45.6500 C   0  0  0  0  0  0  0  0  0  0  0  0
   56.7440   25.1330   44.8710 N   0  0  0  0  0  0  0  0  0  0  0  0
   55.7850   24.1290   44.4380 C   0  0  0  0  0  0  0  0  0  0  0  0
   56.5440   22.9240   43.9990 C   0  0  0  0  0  0  0  0  0  0  0  0
   56.0660   21.9720   43.1590 N   0  0  0  0  0  0  0  0  0  0  0  0
   57.0200   21.0350   42.9820 C   0  0  0  0  0  0  0  0  0  0  0  0
   58.0940   21.4540   43.7480 C   0  0  0  0  0  0  0  0  0  0  0  0
   57.8100   22.6060   44.3720 N   0  0  0  0  0  0  0  0  0  0  0  0
   57.3940   27.2290   46.0410 C   0  0  0  0  0  0  0  0  0  0  0  0
   58.3820   26.7500   46.9020 C   0  0  0  0  0  0  0  0  0  0  0  0
   59.4100   27.5570   47.3470 C   0  0  0  0  0  0  0  0  0  0  0  0
   59.4410   28.8740   46.9130 C   0  0  0  0  0  0  0  0  0  0  0  0
   58.4590   29.3420   46.0590 C   0  0  0  0  0  0  0  0  0  0  0  0
   58.5420   30.6670   45.6620 C   0  0  0  0  0  0  0  0  0  0  0  0
   57.5710   31.1510   44.8130 C   0  0  0  0  0  0  0  0  0  0  0  0
   57.6630   32.5060   44.4090 N   0  0  0  0  0  0  0  0  0  0  0  0
   58.2730   33.3850   45.1300 C   0  0  0  0  0  0  0  0  0  0  0  0
   57.9360   33.6610   46.4410 C   0  0  0  0  0  0  0  0  0  0  0  0
   58.8260   34.6570   46.8440 C   0  0  0  0  0  0  0  0  0  0  0  0
   59.6320   34.9310   45.7950 N   0  0  0  0  0  0  0  0  0  0  0  0
   59.3110   34.1710   44.7540 N   0  0  0  0  0  0  0  0  0  0  0  0
   56.5380   30.3160   44.3760 C   0  0  0  0  0  0  0  0  0  0  0  0
   56.4570   28.9940   44.7740 C   0  0  0  0  0  0  0  0  0  0  0  0
   57.4400   28.5240   45.6260 C   0  0  0  0  0  0  0  0  0  0  0  0
   57.7740   25.0460   44.6160 H   0  0  0  0  0  0  0  0  0  0  0  0
   55.1178   23.8662   45.2722 H   0  0  0  0  0  0  0  0  0  0  0  0
   55.1737   24.5174   43.6100 H   0  0  0  0  0  0  0  0  0  0  0  0
   56.9577   20.1296   42.3605 H   0  0  0  0  0  0  0  0  0  0  0  0
   59.0495   20.9156   43.8331 H   0  0  0  0  0  0  0  0  0  0  0  0
   58.4530   23.1410   45.0160 H   0  0  0  0  0  0  0  0  0  0  0  0
   58.3408   25.7024   47.2348 H   0  0  0  0  0  0  0  0  0  0  0  0
   60.1823   27.1667   48.0262 H   0  0  0  0  0  0  0  0  0  0  0  0
   60.2456   29.5453   47.2476 H   0  0  0  0  0  0  0  0  0  0  0  0
   59.3593   31.3134   46.0144 H   0  0  0  0  0  0  0  0  0  0  0  0
   57.1380   33.1958   47.0383 H   0  0  0  0  0  0  0  0  0  0  0  0
   58.8644   35.1325   47.8352 H   0  0  0  0  0  0  0  0  0  0  0  0
   60.4230   35.6290   45.7370 H   0  0  0  0  0  0  0  0  0  0  0  0
   59.7490   34.1530   43.8030 H   0  0  0  0  0  0  0  0  0  0  0  0
   55.7711   30.7205   43.6991 H   0  0  0  0  0  0  0  0  0  0  0  0
   55.6424   28.3416   44.4264 H   0  0  0  0  0  0  0  0  0  0  0  0
  1  2  2  0
  2  3  1  0
  3  4  1  0
  4  5  1  0
  5  6  2  0
  6  7  1  0
  7  8  2  0
  8  9  1  0
  2 10  1  0
 10 11  2  0
 11 12  1  0
 12 13  2  0
 13 14  1  0
 14 15  2  0
 15 16  1  0
 16 17  1  0
 17 18  2  0
 18 19  1  0
 19 20  2  0
 20 21  1  0
 21 22  1  0
 16 23  2  0
 23 24  1  0
 24 25  2  0
  9  5  1  0
 25 10  1  0
 25 14  1  0
 22 18  1  0
  3 26  1  0
  4 27  1  0
  4 28  1  0
  7 29  1  0
  8 30  1  0
  9 31  1  0
 11 32  1  0
 12 33  1  0
 13 34  1  0
 15 35  1  0
 19 36  1  0
 20 37  1  0
 21 38  1  0
 22 39  1  0
 23 40  1  0
 24 41  1  0
M  END
>  <smiles>  (34) 
O=C(NCc1ncc[nH]1)c1cccc2cc(N=c3cc[nH][nH]3)ccc12

>  <score_type>  (34) 
oracle

>  <origin>  (34) 
adg

>  <m_score__min__energy>  (34) 
-8.1999999999999993

>  <m_primary>  (34) 
energy

$$$$
34:0
     RDKit          3D

 56 59  0  0  0  0  0  0  0  0999 V2000
   52.7300   24.3780   44.9380 C   0  0  0  0  0  0  0  0  0  0  0  0
   53.3350   22.9470   45.8860 S   0  0  0  0  0  0  0  0  0  0  0  0
   54.8360   23.7800   46.4080 C   0  0  0  0  0  0  0  0  0  0  0  0
   55.5530   23.3030   47.5110 C   0  0  0  0  0  0  0  0  0  0  0  0
   56.7160   23.9580   47.9240 C   0  0  0  0  0  0  0  0  0  0  0  0
   57.1700   25.0830   47.2320 C   0  0  0  0  0  0  0  0  0  0  0  0
   56.4670   25.5640   46.1160 C   0  0  0  0  0  0  0  0  0  0  0  0
   56.9450   26.7390   45.4370 N   0  0  0  0  0  0  0  0  0  0  0  0
   57.8220   27.7110   46.0240 C   0  0  0  0  0  0  0  0  0  0  0  0
   57.9000   27.8130   47.2780 O   0  0  0  0  0  0  0  0  0  0  0  0
   58.6430   28.6140   45.1380 C   0  0  1  0  0  0  0  0  0  0  0  0
   58.0200   28.8040   43.7380 C   0  0  0  0  0  0  0  0  0  0  0  0
   56.9000   29.8640   43.6740 C   0  0  1  0  0  0  0  0  0  0  0  0
   55.5810   29.3420   44.1750 C   0  0  0  0  0  0  0  0  0  0  0  0
   55.5250   28.7070   45.2590 O   0  0  0  0  0  0  0  0  0  0  0  0
   54.4160   29.5330   43.4410 O   0  0  0  0  0  0  0  0  0  0  0  0
   57.2800   31.0860   44.3870 N   0  0  0  0  0  0  0  0  0  0  0  0
   58.2180   31.0970   45.4760 C   0  0  0  0  0  0  0  0  0  0  0  0
   58.4650   32.2920   46.1710 C   0  0  0  0  0  0  0  0  0  0  0  0
   59.3960   32.3270   47.2160 C   0  0  0  0  0  0  0  0  0  0  0  0
   59.6810   33.8240   48.1000 S   0  0  0  0  0  0  0  0  0  0  0  0
   58.8620   34.9290   47.4950 O   0  0  0  0  0  0  0  0  0  0  0  0
   59.2570   33.6450   49.5300 O   0  0  0  0  0  0  0  0  0  0  0  0
   61.3800   34.2170   48.0340 N   0  0  0  0  0  0  0  0  0  0  0  0
   62.1240   33.5270   49.0900 C   0  0  0  0  0  0  0  0  0  0  0  0
   63.5410   33.3400   48.5770 C   0  0  0  0  0  0  0  0  0  0  0  0
   63.4470   33.4890   47.0670 C   0  0  0  0  0  0  0  0  0  0  0  0
   61.9780   33.7660   46.7770 C   0  0  0  0  0  0  0  0  0  0  0  0
   60.0840   31.1610   47.5690 C   0  0  0  0  0  0  0  0  0  0  0  0
   59.8450   29.9700   46.8840 C   0  0  0  0  0  0  0  0  0  0  0  0
   58.9150   29.9270   45.8330 C   0  0  0  0  0  0  0  0  0  0  0  0
   55.2790   24.9170   45.7230 C   0  0  0  0  0  0  0  0  0  0  0  0
   52.3978   25.1638   45.6323 H   0  0  0  0  0  0  0  0  0  0  0  0
   53.5405   24.7673   44.3044 H   0  0  0  0  0  0  0  0  0  0  0  0
   51.8860   24.0678   44.3044 H   0  0  0  0  0  0  0  0  0  0  0  0
   55.2011   22.4127   48.0527 H   0  0  0  0  0  0  0  0  0  0  0  0
   57.2750   23.5870   48.7957 H   0  0  0  0  0  0  0  0  0  0  0  0
   58.0849   25.5958   47.5637 H   0  0  0  0  0  0  0  0  0  0  0  0
   56.5660   26.9490   44.4920 H   0  0  0  0  0  0  0  0  0  0  0  0
   59.6090   28.1187   44.9606 H   0  0  0  0  0  0  0  0  0  0  0  0
   58.8188   29.1060   43.0447 H   0  0  0  0  0  0  0  0  0  0  0  0
   57.5570   27.8432   43.4688 H   0  0  0  0  0  0  0  0  0  0  0  0
   56.7662   30.1105   42.6104 H   0  0  0  0  0  0  0  0  0  0  0  0
   56.7910   31.9730   44.1300 H   0  0  0  0  0  0  0  0  0  0  0  0
   57.9228   33.2076   45.8922 H   0  0  0  0  0  0  0  0  0  0  0  0
   62.1303   34.1339   50.0074 H   0  0  0  0  0  0  0  0  0  0  0  0
   61.6606   32.5592   49.3319 H   0  0  0  0  0  0  0  0  0  0  0  0
   64.2072   34.1070   48.9986 H   0  0  0  0  0  0  0  0  0  0  0  0
   63.9551   32.3629   48.8665 H   0  0  0  0  0  0  0  0  0  0  0  0
   64.0714   34.3270   46.7236 H   0  0  0  0  0  0  0  0  0  0  0  0
   63.8037   32.5890   46.5448 H   0  0  0  0  0  0  0  0  0  0  0  0
   61.8839   34.5487   46.0099 H   0  0  0  0  0  0  0  0  0  0  0  0
   61.4723   32.8654   46.3985 H   0  0  0  0  0  0  0  0  0  0  0  0
   60.8160   31.1838   48.3897 H   0  0  0  0  0  0  0  0  0  0  0  0
   60.3891   29.0575   47.1692 H   0  0  0  0  0  0  0  0  0  0  0  0
   54.6975   25.3069   44.8746 H   0  0  0  0  0  0  0  0  0  0  0  0
  1  2  1  0
  2  3  1  0
  3  4  2  0
  4  5  1  0
  5  6  2  0
  6  7  1  0
  7  8  1  0
  8  9  1  0
  9 10  2  0
  9 11  1  0
 11 12  1  0
 12 13  1  0
 13 14  1  0
 14 15  2  0
 14 16  1  0
 13 17  1  0
 17 18  1  0
 18 19  2  0
 19 20  1  0
 20 21  1  0
 21 22  2  0
 21 23  2  0
 21 24  1  0
 24 25  1  0
 25 26  1  0
 26 27  1  0
 27 28  1  0
 20 29  2  0
 29 30  1  0
 30 31  2  0
  7 32  2  0
 32  3  1  0
 31 11  1  0
 31 18  1  0
 28 24  1  0
  1 33  1  0
  1 34  1  0
  1 35  1  0
  4 36  1  0
  5 37  1  0
  6 38  1  0
  8 39  1  0
 11 40  1  6
 12 41  1  0
 12 42  1  0
 13 43  1  6
 17 44  1  0
 19 45  1  0
 25 46  1  0
 25 47  1  0
 26 48  1  0
 26 49  1  0
 27 50  1  0
 27 51  1  0
 28 52  1  0
 28 53  1  0
 29 54  1  0
 30 55  1  0
 32 56  1  0
M  CHG  1  16  -1
M  END
>  <UniqueID>  (35) 
32

>  <SMILES>  (35) 
CSc1cccc(NC(=O)[C@H]2C[C@@H](C(=O)[O-])Nc3cc(S(=O)(=O)N4CCCC4)ccc32)c1

>  <Energy>  (35) 
59.87887828872215

>  <Genealogy>  (35) 
CSc1cccc(NC(=O)C2CC(C(=O)[O-])Nc3cc(S(=O)(=O)N4CCCC4)ccc32)c1 (protonated)
CSc1cccc(NC(=O)[C@H]2C[C@@H](C(=O)[O-])Nc3cc(S(=O)(=O)N4CCCC4)ccc32)c1 (chirality)
CSc1cccc(NC(=O)[C@H]2C[C@@H](C(=O)[O-])Nc3cc(S(=O)(=O)N4CCCC4)ccc32)c1 (3D coordinates assigned)
CSc1cccc(NC(=O)[C@H]2C[C@@H](C(=O)[O-])Nc3cc(S(=O)(=O)N4CCCC4)ccc32)c1 (nonaromatic ring conformer: 59.87887828872215 kcal/mol)

>  <smiles>  (35) 
CSc1cccc(NC(=O)C2CC(C(=O)O)Nc3cc(S(=O)(=O)N4CCCC4)ccc32)c1

>  <score_type>  (35) 
oracle

>  <origin>  (35) 
adg

>  <m_score__min__energy>  (35) 
-12.18

>  <m_primary>  (35) 
energy

$$$$
35:0
     RDKit          3D

 42 44  0  0  0  0  0  0  0  0999 V2000
   56.8050   30.8630   42.6590 C   0  0  0  0  0  0  0  0  0  0  0  0
   57.0120   30.2020   43.9840 C   0  0  0  0  0  0  0  0  0  0  0  0
   56.6300   28.9770   44.2470 O   0  0  0  0  0  0  0  0  0  0  0  0
   56.9950   28.7130   45.4810 C   0  0  0  0  0  0  0  0  0  0  0  0
   56.7590   27.4180   46.1410 C   0  0  0  0  0  0  0  0  0  0  0  0
   57.6380   26.9580   46.9150 O   0  0  0  0  0  0  0  0  0  0  0  0
   55.5250   26.7010   45.9910 N   0  0  0  0  0  0  0  0  0  0  0  0
   55.3870   25.3190   45.6310 C   0  0  0  0  0  0  0  0  0  0  0  0
   56.5210   24.6080   45.2140 C   0  0  0  0  0  0  0  0  0  0  0  0
   56.4130   23.2640   44.8460 C   0  0  0  0  0  0  0  0  0  0  0  0
   55.1690   22.6270   44.8730 C   0  0  0  0  0  0  0  0  0  0  0  0
   54.0300   23.3370   45.2630 C   0  0  0  0  0  0  0  0  0  0  0  0
   54.1340   24.6810   45.6300 C   0  0  0  0  0  0  0  0  0  0  0  0
   57.6300   29.7490   46.0650 N   0  0  0  0  0  0  0  0  0  0  0  0
   57.6240   30.7100   45.1210 C   0  0  0  0  0  0  0  0  0  0  0  0
   58.2150   32.0500   45.3480 C   0  0  0  0  0  0  0  0  0  0  0  0
   57.7580   33.1880   44.6620 C   0  0  0  0  0  0  0  0  0  0  0  0
   58.3120   34.4420   44.9290 C   0  0  0  0  0  0  0  0  0  0  0  0
   59.3050   34.5800   45.9000 C   0  0  0  0  0  0  0  0  0  0  0  0
   59.7500   33.4650   46.6260 C   0  0  0  0  0  0  0  0  0  0  0  0
   60.7480   33.6440   47.6470 N   0  0  0  0  0  0  0  0  0  0  0  0
   62.4480   33.3980   47.3960 S   0  0  0  0  0  0  0  0  0  0  0  0
   62.8580   31.6730   47.5710 C   0  0  0  0  0  0  0  0  0  0  0  0
   62.8430   33.8930   46.0330 O   0  0  0  0  0  0  0  0  0  0  0  0
   63.2090   34.1740   48.4330 O   0  0  0  0  0  0  0  0  0  0  0  0
   59.2090   32.2000   46.3320 C   0  0  0  0  0  0  0  0  0  0  0  0
   56.4796   31.9022   42.8145 H   0  0  0  0  0  0  0  0  0  0  0  0
   57.7487   30.8550   42.0938 H   0  0  0  0  0  0  0  0  0  0  0  0
   56.0345   30.3182   42.0938 H   0  0  0  0  0  0  0  0  0  0  0  0
   57.4992   25.1097   45.1763 H   0  0  0  0  0  0  0  0  0  0  0  0
   57.3086   22.7064   44.5345 H   0  0  0  0  0  0  0  0  0  0  0  0
   55.0866   21.5679   44.5876 H   0  0  0  0  0  0  0  0  0  0  0  0
   53.0504   22.8369   45.2810 H   0  0  0  0  0  0  0  0  0  0  0  0
   53.2329   25.2418   45.9191 H   0  0  0  0  0  0  0  0  0  0  0  0
   56.9601   33.0908   43.9111 H   0  0  0  0  0  0  0  0  0  0  0  0
   57.9643   35.3244   44.3718 H   0  0  0  0  0  0  0  0  0  0  0  0
   59.7418   35.5700   46.0975 H   0  0  0  0  0  0  0  0  0  0  0  0
   60.4380   33.8150   48.6300 H   0  0  0  0  0  0  0  0  0  0  0  0
   62.9188   31.4171   48.6391 H   0  0  0  0  0  0  0  0  0  0  0  0
   62.0804   31.0608   47.0910 H   0  0  0  0  0  0  0  0  0  0  0  0
   63.8280   31.4761   47.0910 H   0  0  0  0  0  0  0  0  0  0  0  0
   59.5683   31.3160   46.8792 H   0  0  0  0  0  0  0  0  0  0  0  0
  1  2  1  0
  2  3  1  0
  3  4  1  0
  4  5  1  0
  5  6  2  0
  5  7  1  0
  7  8  1  0
  8  9  2  0
  9 10  1  0
 10 11  2  0
 11 12  1  0
 12 13  2  0
  4 14  2  0
 14 15  1  0
 15 16  1  0
 16 17  2  0
 17 18  1  0
 18 19  2  0
 19 20  1  0
 20 21  1  0
 21 22  1  0
 22 23  1  0
 22 24  2  0
 22 25  2  0
 20 26  2  0
 15  2  2  0
 26 16  1  0
 13  8  1  0
  1 27  1  0
  1 28  1  0
  1 29  1  0
  9 30  1  0
 10 31  1  0
 11 32  1  0
 12 33  1  0
 13 34  1  0
 17 35  1  0
 18 36  1  0
 19 37  1  0
 21 38  1  0
 23 39  1  0
 23 40  1  0
 23 41  1  0
 26 42  1  0
M  CHG  1   7  -1
M  END
>  <UniqueID>  (36) 
33

>  <SMILES>  (36) 
Cc1oc(C(=O)[N-]c2ccccc2)nc1-c1cccc(NS(C)(=O)=O)c1

>  <Energy>  (36) 
78.11145798418282

>  <Genealogy>  (36) 
Cc1oc(C(=O)[N-]c2ccccc2)nc1-c1cccc(NS(C)(=O)=O)c1 (protonated)
Cc1oc(C(=O)[N-]c2ccccc2)nc1-c1cccc(NS(C)(=O)=O)c1 (3D coordinates assigned)
Cc1oc(C(=O)[N-]c2ccccc2)nc1-c1cccc(NS(C)(=O)=O)c1 (optimized conformer: 78.11145798418282 kcal/mol)

>  <smiles>  (36) 
Cc1oc(C(=O)Nc2ccccc2)nc1-c1cccc(NS(C)(=O)=O)c1

>  <score_type>  (36) 
oracle

>  <origin>  (36) 
adg

>  <m_score__min__energy>  (36) 
-10.83

>  <m_primary>  (36) 
energy

$$$$
36:0
     RDKit          3D

 63 66  0  0  0  0  0  0  0  0999 V2000
   59.1130   28.6780   47.1440 C   0  0  0  0  0  0  0  0  0  0  0  0
   58.4350   29.0520   46.0470 C   0  0  0  0  0  0  0  0  0  0  0  0
   57.7740   28.2150   45.1350 C   0  0  0  0  0  0  0  0  0  0  0  0
   57.8230   26.8790   44.9670 C   0  0  0  0  0  0  0  0  0  0  0  0
   57.2780   25.8810   45.9010 C   0  0  0  0  0  0  0  0  0  0  0  0
   57.9480   24.8060   46.3520 N   0  0  0  0  0  0  0  0  0  0  0  0
   57.0160   24.1340   47.0630 C   0  0  0  0  0  0  0  0  0  0  0  0
   57.2670   23.0580   47.6640 O   0  0  0  0  0  0  0  0  0  0  0  0
   55.7920   24.7030   47.0710 N   0  0  0  0  0  0  0  0  0  0  0  0
   55.9720   25.8000   46.3190 C   0  0  0  0  0  0  0  0  0  0  0  0
   54.9660   26.7120   46.0180 O   0  0  0  0  0  0  0  0  0  0  0  0
   56.9970   29.0430   44.3400 C   0  0  0  0  0  0  0  0  0  0  0  0
   57.2640   30.3390   44.7320 C   0  0  0  0  0  0  0  0  0  0  0  0
   56.6470   31.5580   44.1170 C   0  0  0  0  0  0  0  0  0  0  0  0
   58.1360   30.3470   45.7660 N   0  0  0  0  0  0  0  0  0  0  0  0
   58.6120   31.5160   46.4550 C   0  0  0  0  0  0  0  0  0  0  0  0
   59.1120   32.6060   45.7290 C   0  0  0  0  0  0  0  0  0  0  0  0
   59.6020   33.7300   46.3970 C   0  0  0  0  0  0  0  0  0  0  0  0
   59.5830   33.7780   47.7940 C   0  0  0  0  0  0  0  0  0  0  0  0
   59.0520   32.7080   48.5310 C   0  0  0  0  0  0  0  0  0  0  0  0
   59.0640   32.7120   49.9630 N   0  0  0  0  0  0  0  0  0  0  0  0
   59.6480   33.7160   50.8040 C   0  0  0  0  0  0  0  0  0  0  0  0
   58.8960   34.6120   51.2700 O   0  0  0  0  0  0  0  0  0  0  0  0
   61.1440   33.7810   51.0140 C   0  0  0  0  0  0  0  0  0  0  0  0
   61.9700   34.1810   49.7690 C   0  0  0  0  0  0  0  0  0  0  0  0
   62.9170   33.1510   49.2800 N   0  0  0  0  0  0  0  0  0  0  0  0
   63.5400   32.2710   50.2880 C   0  0  0  0  0  0  0  0  0  0  0  0
   63.0360   30.8190   50.2120 C   0  0  0  0  0  0  0  0  0  0  0  0
   61.7310   30.7570   49.5310 N   0  0  0  0  0  0  0  0  0  0  0  0
   61.1560   29.3950   49.6040 C   0  0  0  0  0  0  0  0  0  0  0  0
   59.8340   29.3970   50.3710 C   0  0  0  0  0  0  0  0  0  0  0  0
   61.8970   31.1600   48.1200 C   0  0  0  0  0  0  0  0  0  0  0  0
   62.6140   32.5220   47.9810 C   0  0  0  0  0  0  0  0  0  0  0  0
   58.5940   31.5690   47.8580 C   0  0  0  0  0  0  0  0  0  0  0  0
   59.5898   29.4372   47.7814 H   0  0  0  0  0  0  0  0  0  0  0  0
   59.1917   27.6124   47.4053 H   0  0  0  0  0  0  0  0  0  0  0  0
   58.3111   26.5030   44.0557 H   0  0  0  0  0  0  0  0  0  0  0  0
   55.1470   27.4940   45.4000 H   0  0  0  0  0  0  0  0  0  0  0  0
   56.3012   28.7276   43.5486 H   0  0  0  0  0  0  0  0  0  0  0  0
   56.3038   32.2361   44.9122 H   0  0  0  0  0  0  0  0  0  0  0  0
   57.3935   32.0720   43.4936 H   0  0  0  0  0  0  0  0  0  0  0  0
   55.7908   31.2608   43.4936 H   0  0  0  0  0  0  0  0  0  0  0  0
   59.1183   32.5757   44.6294 H   0  0  0  0  0  0  0  0  0  0  0  0
   60.0033   34.5785   45.8234 H   0  0  0  0  0  0  0  0  0  0  0  0
   59.9857   34.6576   48.3176 H   0  0  0  0  0  0  0  0  0  0  0  0
   61.3442   34.5180   51.8057 H   0  0  0  0  0  0  0  0  0  0  0  0
   61.4593   32.7594   51.2725 H   0  0  0  0  0  0  0  0  0  0  0  0
   61.2674   34.4109   48.9544 H   0  0  0  0  0  0  0  0  0  0  0  0
   62.5856   35.0396   50.0752 H   0  0  0  0  0  0  0  0  0  0  0  0
   64.6286   32.2729   50.1302 H   0  0  0  0  0  0  0  0  0  0  0  0
   63.2682   32.6623   51.2795 H   0  0  0  0  0  0  0  0  0  0  0  0
   63.7642   30.2125   49.6535 H   0  0  0  0  0  0  0  0  0  0  0  0
   62.9208   30.4301   51.2345 H   0  0  0  0  0  0  0  0  0  0  0  0
   60.9789   29.0245   48.5835 H   0  0  0  0  0  0  0  0  0  0  0  0
   61.8666   28.7434   50.1336 H   0  0  0  0  0  0  0  0  0  0  0  0
   60.0373   29.3967   51.4520 H   0  0  0  0  0  0  0  0  0  0  0  0
   59.2580   30.2960   50.1065 H   0  0  0  0  0  0  0  0  0  0  0  0
   59.2553   28.4997   50.1065 H   0  0  0  0  0  0  0  0  0  0  0  0
   62.4900   30.3931   47.6002 H   0  0  0  0  0  0  0  0  0  0  0  0
   60.8948   31.2599   47.6778 H   0  0  0  0  0  0  0  0  0  0  0  0
   63.5582   32.3669   47.4383 H   0  0  0  0  0  0  0  0  0  0  0  0
   61.9344   33.1970   47.4401 H   0  0  0  0  0  0  0  0  0  0  0  0
   58.2175   30.7097   48.4323 H   0  0  0  0  0  0  0  0  0  0  0  0
  1  2  2  0
  2  3  1  0
  3  4  2  3
  4  5  1  0
  5  6  1  0
  6  7  1  0
  7  8  2  0
  7  9  1  0
  9 10  1  0
 10 11  1  0
  3 12  1  0
 12 13  2  0
 13 14  1  0
 13 15  1  0
 15 16  1  0
 16 17  2  0
 17 18  1  0
 18 19  2  0
 19 20  1  0
 20 21  1  0
 21 22  1  0
 22 23  2  0
 22 24  1  0
 24 25  1  0
 25 26  1  0
 26 27  1  0
 27 28  1  0
 28 29  1  0
 29 30  1  0
 30 31  1  0
 29 32  1  0
 32 33  1  0
 20 34  2  0
 15  2  1  0
 34 16  1  0
 10  5  2  0
 33 26  1  0
  1 35  1  0
  1 36  1  0
  4 37  1  0
 11 38  1  0
 12 39  1  0
 14 40  1  0
 14 41  1  0
 14 42  1  0
 17 43  1  0
 18 44  1  0
 19 45  1  0
 24 46  1  0
 24 47  1  0
 25 48  1  0
 25 49  1  0
 27 50  1  0
 27 51  1  0
 28 52  1  0
 28 53  1  0
 30 54  1  0
 30 55  1  0
 31 56  1  0
 31 57  1  0
 31 58  1  0
 32 59  1  0
 32 60  1  0
 33 61  1  0
 33 62  1  0
 34 63  1  0
M  CHG  3   6  -1   9  -1  21  -1
M  END
>  <UniqueID>  (37) 
34

>  <SMILES>  (37) 
C=c1c(=Cc2[n-]c(=O)[n-]c2O)cc(C)n1-c1cccc([N-]C(=O)CCN2CCN(CC)CC2)c1

>  <Energy>  (37) 
159.93524779262262

>  <Genealogy>  (37) 
C=c1c(=Cc2[n-]c(=O)[n-]c2O)cc(C)n1-c1cccc([N-]C(=O)CCN2CCN(CC)CC2)c1 (protonated)
C=c1c(=Cc2[n-]c(=O)[n-]c2O)cc(C)n1-c1cccc([N-]C(=O)CCN2CCN(CC)CC2)c1 (3D coordinates assigned)
C=c1c(=Cc2[n-]c(=O)[n-]c2O)cc(C)n1-c1cccc([N-]C(=O)CCN2CCN(CC)CC2)c1 (nonaromatic ring conformer: 159.93524779262262 kcal/mol)

>  <smiles>  (37) 
C=c1c(=Cc2[nH]c(=O)[nH]c2O)cc(C)n1-c1cccc(NC(=O)CCN2CCN(CC)CC2)c1

>  <score_type>  (37) 
oracle

>  <origin>  (37) 
adg

>  <m_score__min__energy>  (37) 
-14.789999999999999

>  <m_primary>  (37) 
energy

$$$$
37:0
     RDKit          3D

 47 49  0  0  0  0  0  0  0  0999 V2000
   54.7630   28.9720   45.4540 H   0  0  0  0  0  0  0  0  0  0  0  0
   55.5920   28.5550   45.0500 O   0  0  0  0  0  0  0  0  0  0  0  0
   56.1880   27.4300   45.6150 C   0  0  0  0  0  0  0  0  0  0  0  0
   55.4980   26.3450   46.0020 N   0  0  0  0  0  0  0  0  0  0  0  0
   56.4570   25.5510   46.5250 C   0  0  0  0  0  0  0  0  0  0  0  0
   56.2060   24.4190   47.0140 O   0  0  0  0  0  0  0  0  0  0  0  0
   57.7030   26.0700   46.4910 N   0  0  0  0  0  0  0  0  0  0  0  0
   57.5300   27.2570   45.8860 C   0  0  0  0  0  0  0  0  0  0  0  0
   58.6100   28.2380   45.7070 C   0  0  0  0  0  0  0  0  0  0  0  0
   59.6395   27.8509   45.6926 H   0  0  0  0  0  0  0  0  0  0  0  0
   58.4540   29.5680   45.5590 C   0  0  0  0  0  0  0  0  0  0  0  0
   58.2080   30.1610   44.3290 C   0  0  0  0  0  0  0  0  0  0  0  0
   58.0750   29.6433   43.3676 H   0  0  0  0  0  0  0  0  0  0  0  0
   58.1620   31.5220   44.5410 C   0  0  0  0  0  0  0  0  0  0  0  0
   57.8470   32.5430   43.4900 C   0  0  0  0  0  0  0  0  0  0  0  0
   57.5555   33.4877   43.9722 H   0  0  0  0  0  0  0  0  0  0  0  0
   58.7354   32.7101   42.8632 H   0  0  0  0  0  0  0  0  0  0  0  0
   57.0189   32.1805   42.8632 H   0  0  0  0  0  0  0  0  0  0  0  0
   58.3410   31.7970   45.8500 N   0  0  0  0  0  0  0  0  0  0  0  0
   58.2360   33.0990   46.4430 C   0  0  0  0  0  0  0  0  0  0  0  0
   57.1060   33.6550   46.5050 O   0  0  0  0  0  0  0  0  0  0  0  0
   59.4030   33.7710   46.9610 N   0  0  0  0  0  0  0  0  0  0  0  0
   59.8650   33.4940   48.3300 C   0  0  0  0  0  0  0  0  0  0  0  0
   59.5989   34.3424   48.9777 H   0  0  0  0  0  0  0  0  0  0  0  0
   59.3802   32.5718   48.6828 H   0  0  0  0  0  0  0  0  0  0  0  0
   61.3580   33.2950   48.3680 C   0  0  0  0  0  0  0  0  0  0  0  0
   61.9950   32.4830   47.4150 C   0  0  0  0  0  0  0  0  0  0  0  0
   61.3988   31.9744   46.6430 H   0  0  0  0  0  0  0  0  0  0  0  0
   63.3840   32.3180   47.4430 C   0  0  0  0  0  0  0  0  0  0  0  0
   63.8779   31.6878   46.6888 H   0  0  0  0  0  0  0  0  0  0  0  0
   64.1440   32.9530   48.4280 C   0  0  0  0  0  0  0  0  0  0  0  0
   65.2366   32.8266   48.4459 H   0  0  0  0  0  0  0  0  0  0  0  0
   63.5170   33.7490   49.3910 C   0  0  0  0  0  0  0  0  0  0  0  0
   64.1163   34.2453   50.1685 H   0  0  0  0  0  0  0  0  0  0  0  0
   62.1290   33.9150   49.3670 C   0  0  0  0  0  0  0  0  0  0  0  0
   61.6381   34.5333   50.1330 H   0  0  0  0  0  0  0  0  0  0  0  0
   60.0320   34.8450   46.1760 C   0  0  0  0  0  0  0  0  0  0  0  0
   60.0846   35.7562   46.7900 H   0  0  0  0  0  0  0  0  0  0  0  0
   61.0411   34.5202   45.8823 H   0  0  0  0  0  0  0  0  0  0  0  0
   59.2280   35.1400   44.9120 C   0  0  0  0  0  0  0  0  0  0  0  0
   58.2289   35.5066   45.1902 H   0  0  0  0  0  0  0  0  0  0  0  0
   59.7473   35.9062   44.3176 H   0  0  0  0  0  0  0  0  0  0  0  0
   59.1286   34.2198   44.3176 H   0  0  0  0  0  0  0  0  0  0  0  0
   58.4900   30.6140   46.4970 C   0  0  0  0  0  0  0  0  0  0  0  0
   58.5550   30.5160   47.8340 C   0  0  0  0  0  0  0  0  0  0  0  0
   58.5768   31.4259   48.4518 H   0  0  0  0  0  0  0  0  0  0  0  0
   58.5865   29.5258   48.3120 H   0  0  0  0  0  0  0  0  0  0  0  0
  1  2  1  0
  2  3  1  0
  3  4  1  0
  4  5  1  0
  5  6  2  0
  5  7  1  0
  7  8  1  0
  8  9  1  0
  9 10  1  0
  9 11  2  0
 11 12  1  0
 12 13  1  0
 12 14  2  0
 14 15  1  0
 15 16  1  0
 15 17  1  0
 15 18  1  0
 14 19  1  0
 19 20  1  0
 20 21  2  0
 20 22  1  0
 22 23  1  0
 23 24  1  0
 23 25  1  0
 23 26  1  0
 26 27  2  0
 27 28  1  0
 27 29  1  0
 29 30  1  0
 29 31  2  0
 31 32  1  0
 31 33  1  0
 33 34  1  0
 33 35  2  0
 35 36  1  0
 22 37  1  0
 37 38  1  0
 37 39  1  0
 37 40  1  0
 40 41  1  0
 40 42  1  0
 40 43  1  0
 19 44  1  0
 44 45  2  0
 45 46  1  0
 45 47  1  0
  8  3  2  0
 44 11  1  0
 35 26  1  0
M  CHG  2   4  -1   7  -1
M  END
>  <UniqueID>  (38) 
35

>  <SMILES>  (38) 
C=c1/c(=C\c2[n-]c(=O)[n-]c2O)cc(C)n1C(=O)N(CC)Cc1ccccc1

>  <Energy>  (38) 
116.48818987900171

>  <Genealogy>  (38) 
C=c1c(=Cc2[n-]c(=O)[n-]c2O)cc(C)n1C(=O)N(CC)Cc1ccccc1 (protonated)
C=c1/c(=C\c2[n-]c(=O)[n-]c2O)cc(C)n1C(=O)N(CC)Cc1ccccc1 (cis-trans isomerization)
C=c1/c(=C\c2[n-]c(=O)[n-]c2O)cc(C)n1C(=O)N(CC)Cc1ccccc1 (3D coordinates assigned)
C=c1/c(=C\c2[n-]c(=O)[n-]c2O)cc(C)n1C(=O)N(CC)Cc1ccccc1 (optimized conformer: 116.48818987900171 kcal/mol)

>  <smiles>  (38) 
C=c1c(=Cc2[nH]c(=O)[nH]c2O)cc(C)n1C(=O)N(CC)Cc1ccccc1

>  <score_type>  (38) 
oracle

>  <origin>  (38) 
adg

>  <m_score__min__energy>  (38) 
-13.029999999999999

>  <m_primary>  (38) 
energy

$$$$
38:0
     RDKit          3D

 39 41  0  0  0  0  0  0  0  0999 V2000
   62.3430   32.2510   51.9120 H   0  0  0  0  0  0  0  0  0  0  0  0
   62.3540   31.6990   51.0630 O   0  0  0  0  0  0  0  0  0  0  0  0
   61.4930   31.9610   49.9980 C   0  0  0  0  0  0  0  0  0  0  0  0
   61.5230   31.1280   48.8790 C   0  0  0  0  0  0  0  0  0  0  0  0
   62.2315   30.2870   48.8514 H   0  0  0  0  0  0  0  0  0  0  0  0
   60.6610   31.3440   47.7810 C   0  0  0  0  0  0  0  0  0  0  0  0
   60.6880   30.4100   46.5790 C   0  0  0  0  0  0  0  0  0  0  0  0
   59.7843   30.5926   45.9790 H   0  0  0  0  0  0  0  0  0  0  0  0
   61.6145   30.6283   46.0278 H   0  0  0  0  0  0  0  0  0  0  0  0
   60.7300   28.9460   46.9390 C   0  0  0  0  0  0  0  0  0  0  0  0
   61.2231   28.6714   47.8831 H   0  0  0  0  0  0  0  0  0  0  0  0
   60.2140   27.9510   46.2000 C   0  0  0  0  0  0  0  0  0  0  0  0
   60.9092   27.3769   45.5699 H   0  0  0  0  0  0  0  0  0  0  0  0
   58.7880   27.5640   46.1640 C   0  0  0  0  0  0  0  0  0  0  0  0
   58.4240   26.2630   46.5440 C   0  0  0  0  0  0  0  0  0  0  0  0
   59.1949   25.5584   46.8895 H   0  0  0  0  0  0  0  0  0  0  0  0
   57.0870   25.8570   46.4860 C   0  0  0  0  0  0  0  0  0  0  0  0
   56.8077   24.8412   46.8024 H   0  0  0  0  0  0  0  0  0  0  0  0
   56.1050   26.7390   46.0270 C   0  0  0  0  0  0  0  0  0  0  0  0
   54.7780   26.3300   45.9740 O   0  0  0  0  0  0  0  0  0  0  0  0
   56.4620   28.0300   45.6170 C   0  0  0  0  0  0  0  0  0  0  0  0
   55.4930   28.9070   45.1460 O   0  0  0  0  0  0  0  0  0  0  0  0
   57.7990   28.4370   45.6760 C   0  0  0  0  0  0  0  0  0  0  0  0
   58.0786   29.4460   45.3387 H   0  0  0  0  0  0  0  0  0  0  0  0
   59.7910   32.4680   47.8090 C   0  0  0  0  0  0  0  0  0  0  0  0
   58.9280   32.8230   46.6540 C   0  0  0  0  0  0  0  0  0  0  0  0
   58.0640   33.8450   46.6270 C   0  0  0  0  0  0  0  0  0  0  0  0
   57.8668   34.5554   47.4434 H   0  0  0  0  0  0  0  0  0  0  0  0
   57.4360   33.8400   45.3180 C   0  0  0  0  0  0  0  0  0  0  0  0
   56.5590   34.6420   44.9000 O   0  0  0  0  0  0  0  0  0  0  0  0
   58.0190   32.7280   44.5990 C   0  0  0  0  0  0  0  0  0  0  0  0
   57.7490   32.3330   43.3590 C   0  0  0  0  0  0  0  0  0  0  0  0
   57.0044   32.8762   42.7586 H   0  0  0  0  0  0  0  0  0  0  0  0
   58.2701   31.4629   42.9332 H   0  0  0  0  0  0  0  0  0  0  0  0
   58.9340   32.1220   45.4430 O   0  0  0  0  0  0  0  0  0  0  0  0
   59.7670   33.2940   48.9490 C   0  0  0  0  0  0  0  0  0  0  0  0
   59.0761   34.1493   48.9845 H   0  0  0  0  0  0  0  0  0  0  0  0
   60.6070   33.0430   50.0340 C   0  0  0  0  0  0  0  0  0  0  0  0
   60.5610   33.8820   51.1430 O   0  0  0  0  0  0  0  0  0  0  0  0
  1  2  1  0
  2  3  1  0
  3  4  2  0
  4  5  1  0
  4  6  1  0
  6  7  1  0
  7  8  1  0
  7  9  1  0
  7 10  1  0
 10 11  1  0
 10 12  2  0
 12 13  1  0
 12 14  1  0
 14 15  2  0
 15 16  1  0
 15 17  1  0
 17 18  1  0
 17 19  2  0
 19 20  1  0
 19 21  1  0
 21 22  1  0
 21 23  2  0
 23 24  1  0
  6 25  2  0
 25 26  1  0
 26 27  2  0
 27 28  1  0
 27 29  1  0
 29 30  2  0
 29 31  1  0
 31 32  2  0
 32 33  1  0
 32 34  1  0
 31 35  1  0
 25 36  1  0
 36 37  1  0
 36 38  2  0
 38 39  1  0
 38  3  1  0
 23 14  1  0
 35 26  1  0
M  CHG  3  20  -1  22  -1  39  -1
M  END
>  <UniqueID>  (39) 
36

>  <SMILES>  (39) 
C=C1OC(c2cc([O-])c(O)cc2C/C=C\c2ccc([O-])c([O-])c2)=CC1=O

>  <Energy>  (39) 
80.70006023127225

>  <Genealogy>  (39) 
C=C1OC(c2cc([O-])c(O)cc2CC=Cc2ccc([O-])c([O-])c2)=CC1=O (protonated)
C=C1OC(c2cc([O-])c(O)cc2C/C=C\c2ccc([O-])c([O-])c2)=CC1=O (cis-trans isomerization)
C=C1OC(c2cc([O-])c(O)cc2C/C=C\c2ccc([O-])c([O-])c2)=CC1=O (3D coordinates assigned)
C=C1OC(c2cc([O-])c(O)cc2C/C=C\c2ccc([O-])c([O-])c2)=CC1=O (nonaromatic ring conformer: 80.70006023127225 kcal/mol)

>  <smiles>  (39) 
C=C1OC(c2cc(O)c(O)cc2CC=Cc2ccc(O)c(O)c2)=CC1=O

>  <score_type>  (39) 
oracle

>  <origin>  (39) 
adg

>  <m_score__min__energy>  (39) 
-16.120000000000001

>  <m_primary>  (39) 
energy

$$$$
39:0
     RDKit          3D

 58 61  0  0  0  0  0  0  0  0999 V2000
   54.4570   28.1470   53.0200 C   0  0  0  0  0  0  0  0  0  0  0  0
   54.8870   29.4050   52.8300 C   0  0  0  0  0  0  0  0  0  0  0  0
   54.2350   30.4180   52.1070 C   0  0  0  0  0  0  0  0  0  0  0  0
   52.9910   30.4820   51.5950 C   0  0  0  0  0  0  0  0  0  0  0  0
   51.8880   31.3010   52.1240 C   0  0  0  0  0  0  0  0  0  0  0  0
   51.4810   31.2910   53.4070 N   0  0  0  0  0  0  0  0  0  0  0  0
   50.5620   32.2790   53.4490 C   0  0  0  0  0  0  0  0  0  0  0  0
   49.9320   32.5730   54.5000 O   0  0  0  0  0  0  0  0  0  0  0  0
   50.3770   32.9330   52.2840 N   0  0  0  0  0  0  0  0  0  0  0  0
   51.2340   32.3110   51.4560 C   0  0  0  0  0  0  0  0  0  0  0  0
   51.4050   32.6680   50.1210 O   0  0  0  0  0  0  0  0  0  0  0  0
   55.1360   31.4630   52.0080 C   0  0  0  0  0  0  0  0  0  0  0  0
   56.2660   31.0870   52.7010 C   0  0  0  0  0  0  0  0  0  0  0  0
   57.4620   31.9370   52.8420 C   0  0  0  0  0  0  0  0  0  0  0  0
   57.7360   32.4030   53.9800 O   0  0  0  0  0  0  0  0  0  0  0  0
   58.2980   32.2630   51.7110 N   0  0  0  0  0  0  0  0  0  0  0  0
   57.7360   32.3520   50.3550 C   0  0  0  0  0  0  0  0  0  0  0  0
   58.7250   31.7850   49.3350 C   0  0  0  0  0  0  0  0  0  0  0  0
   60.0780   32.3250   49.5300 N   0  0  0  0  0  0  0  0  0  0  0  0
   61.0710   32.0640   48.5180 C   0  0  0  0  0  0  0  0  0  0  0  0
   61.0230   30.9840   47.8670 O   0  0  0  0  0  0  0  0  0  0  0  0
   62.1750   33.0450   48.2200 C   0  0  0  0  0  0  0  0  0  0  0  0
   63.2240   33.0080   49.3000 C   0  0  0  0  0  0  0  0  0  0  0  0
   63.3240   34.0630   50.2230 C   0  0  0  0  0  0  0  0  0  0  0  0
   64.3170   34.0460   51.2070 C   0  0  0  0  0  0  0  0  0  0  0  0
   65.2210   32.9820   51.2710 C   0  0  0  0  0  0  0  0  0  0  0  0
   65.1370   31.9350   50.3490 C   0  0  0  0  0  0  0  0  0  0  0  0
   64.1450   31.9490   49.3630 C   0  0  0  0  0  0  0  0  0  0  0  0
   60.3720   33.1900   50.6800 C   0  0  0  0  0  0  0  0  0  0  0  0
   59.6930   32.6620   51.9500 C   0  0  0  0  0  0  0  0  0  0  0  0
   56.1170   29.8420   53.2150 N   0  0  0  0  0  0  0  0  0  0  0  0
   57.0600   29.1590   54.1160 C   0  0  0  0  0  0  0  0  0  0  0  0
   56.9080   29.6800   55.5410 C   0  0  0  0  0  0  0  0  0  0  0  0
   55.0618   27.4421   53.6094 H   0  0  0  0  0  0  0  0  0  0  0  0
   53.5000   27.8215   52.5862 H   0  0  0  0  0  0  0  0  0  0  0  0
   52.7812   29.8699   50.7054 H   0  0  0  0  0  0  0  0  0  0  0  0
   52.3280   32.7440   49.7110 H   0  0  0  0  0  0  0  0  0  0  0  0
   54.9800   32.4136   51.4769 H   0  0  0  0  0  0  0  0  0  0  0  0
   56.7993   31.7769   50.3114 H   0  0  0  0  0  0  0  0  0  0  0  0
   57.5399   33.4077   50.1163 H   0  0  0  0  0  0  0  0  0  0  0  0
   58.7592   30.6908   49.4421 H   0  0  0  0  0  0  0  0  0  0  0  0
   58.3830   32.0727   48.3299 H   0  0  0  0  0  0  0  0  0  0  0  0
   62.6387   32.7855   47.2568 H   0  0  0  0  0  0  0  0  0  0  0  0
   61.7471   34.0574   48.1764 H   0  0  0  0  0  0  0  0  0  0  0  0
   62.6184   34.9053   50.1711 H   0  0  0  0  0  0  0  0  0  0  0  0
   64.3869   34.8708   51.9315 H   0  0  0  0  0  0  0  0  0  0  0  0
   65.9995   32.9686   52.0480 H   0  0  0  0  0  0  0  0  0  0  0  0
   65.8511   31.0998   50.3988 H   0  0  0  0  0  0  0  0  0  0  0  0
   64.0857   31.1275   48.6339 H   0  0  0  0  0  0  0  0  0  0  0  0
   61.4600   33.2200   50.8392 H   0  0  0  0  0  0  0  0  0  0  0  0
   59.9866   34.1984   50.4688 H   0  0  0  0  0  0  0  0  0  0  0  0
   60.2536   31.7884   52.3140 H   0  0  0  0  0  0  0  0  0  0  0  0
   59.6889   33.4738   52.6923 H   0  0  0  0  0  0  0  0  0  0  0  0
   56.8561   28.0782   54.1019 H   0  0  0  0  0  0  0  0  0  0  0  0
   58.0864   29.3553   53.7726 H   0  0  0  0  0  0  0  0  0  0  0  0
   57.1429   28.8749   56.2528 H   0  0  0  0  0  0  0  0  0  0  0  0
   57.5979   30.5220   55.6991 H   0  0  0  0  0  0  0  0  0  0  0  0
   55.8735   30.0189   55.6991 H   0  0  0  0  0  0  0  0  0  0  0  0
  1  2  2  0
  2  3  1  0
  3  4  2  3
  4  5  1  0
  5  6  1  0
  6  7  1  0
  7  8  2  0
  7  9  1  0
  9 10  1  0
 10 11  1  0
  3 12  1  0
 12 13  2  0
 13 14  1  0
 14 15  2  0
 14 16  1  0
 16 17  1  0
 17 18  1  0
 18 19  1  0
 19 20  1  0
 20 21  2  0
 20 22  1  0
 22 23  1  0
 23 24  2  0
 24 25  1  0
 25 26  2  0
 26 27  1  0
 27 28  2  0
 19 29  1  0
 29 30  1  0
 13 31  1  0
 31 32  1  0
 32 33  1  0
 31  2  1  0
 10  5  2  0
 30 16  1  0
 28 23  1  0
  1 34  1  0
  1 35  1  0
  4 36  1  0
 11 37  1  0
 12 38  1  0
 17 39  1  0
 17 40  1  0
 18 41  1  0
 18 42  1  0
 22 43  1  0
 22 44  1  0
 24 45  1  0
 25 46  1  0
 26 47  1  0
 27 48  1  0
 28 49  1  0
 29 50  1  0
 29 51  1  0
 30 52  1  0
 30 53  1  0
 32 54  1  0
 32 55  1  0
 33 56  1  0
 33 57  1  0
 33 58  1  0
M  CHG  2   6  -1   9  -1
M  END
>  <UniqueID>  (40) 
37

>  <SMILES>  (40) 
C=c1c(=Cc2[n-]c(=O)[n-]c2O)cc(C(=O)N2CCN(C(=O)Cc3ccccc3)CC2)n1CC

>  <Energy>  (40) 
133.84912190502405

>  <Genealogy>  (40) 
C=c1c(=Cc2[n-]c(=O)[n-]c2O)cc(C(=O)N2CCN(C(=O)Cc3ccccc3)CC2)n1CC (protonated)
C=c1c(=Cc2[n-]c(=O)[n-]c2O)cc(C(=O)N2CCN(C(=O)Cc3ccccc3)CC2)n1CC (3D coordinates assigned)
C=c1c(=Cc2[n-]c(=O)[n-]c2O)cc(C(=O)N2CCN(C(=O)Cc3ccccc3)CC2)n1CC (nonaromatic ring conformer: 133.84912190502405 kcal/mol)

>  <smiles>  (40) 
C=c1c(=Cc2[nH]c(=O)[nH]c2O)cc(C(=O)N2CCN(C(=O)Cc3ccccc3)CC2)n1CC

>  <score_type>  (40) 
oracle

>  <origin>  (40) 
adg

>  <m_score__min__energy>  (40) 
-13.65

>  <m_primary>  (40) 
energy

$$$$
40:0
     RDKit          3D

 49 51  0  0  0  0  0  0  0  0999 V2000
   55.4387   31.6816   44.1845 H   0  0  0  0  0  0  0  0  0  0  0  0
   55.9760   30.7280   44.2940 C   0  0  0  0  0  0  0  0  0  0  0  0
   55.4270   29.6430   44.9010 N   0  0  0  0  0  0  0  0  0  0  0  0
   56.2750   28.5920   44.9180 C   0  0  0  0  0  0  0  0  0  0  0  0
   55.9640   27.4720   45.5040 N   0  0  0  0  0  0  0  0  0  0  0  0
   56.7230   26.7340   46.4770 C   0  0  0  0  0  0  0  0  0  0  0  0
   56.2740   25.6250   46.8710 O   0  0  0  0  0  0  0  0  0  0  0  0
   58.0660   27.1870   46.9890 C   0  0  0  0  0  0  0  0  0  0  0  0
   58.2965   26.6459   47.9185 H   0  0  0  0  0  0  0  0  0  0  0  0
   58.8216   26.9748   46.2182 H   0  0  0  0  0  0  0  0  0  0  0  0
   58.0730   28.6250   47.2600 N   0  0  0  0  0  0  0  0  0  0  0  0
   59.1440   29.3590   47.3710 C   0  0  0  0  0  0  0  0  0  0  0  0
   59.6790   29.9720   46.2840 N   0  0  0  0  0  0  0  0  0  0  0  0
   60.7670   30.7690   46.3860 C   0  0  0  0  0  0  0  0  0  0  0  0
   61.1835   31.2486   45.4879 H   0  0  0  0  0  0  0  0  0  0  0  0
   61.3640   30.9840   47.6360 C   0  0  0  0  0  0  0  0  0  0  0  0
   62.5490   31.9160   47.7160 C   0  0  0  0  0  0  0  0  0  0  0  0
   62.7936   32.1084   48.7711 H   0  0  0  0  0  0  0  0  0  0  0  0
   63.4136   31.4534   47.2176 H   0  0  0  0  0  0  0  0  0  0  0  0
   62.3032   32.8653   47.2176 H   0  0  0  0  0  0  0  0  0  0  0  0
   60.8630   30.3360   48.7460 N   0  0  0  0  0  0  0  0  0  0  0  0
   61.4530   30.5430   50.0880 C   0  0  0  0  0  0  0  0  0  0  0  0
   61.2972   29.6376   50.6930 H   0  0  0  0  0  0  0  0  0  0  0  0
   62.5274   30.7480   49.9707 H   0  0  0  0  0  0  0  0  0  0  0  0
   60.8160   31.7120   50.7810 C   0  0  0  0  0  0  0  0  0  0  0  0
   60.7340   31.7160   52.0390 O   0  0  0  0  0  0  0  0  0  0  0  0
   60.2990   32.8100   50.0210 N   0  0  0  0  0  0  0  0  0  0  0  0
   58.9250   32.8800   49.5360 C   0  0  0  0  0  0  0  0  0  0  0  0
   58.4792   31.8747   49.5620 H   0  0  0  0  0  0  0  0  0  0  0  0
   58.3521   33.5628   50.1806 H   0  0  0  0  0  0  0  0  0  0  0  0
   58.8960   33.4000   48.1230 C   0  0  0  0  0  0  0  0  0  0  0  0
   59.9040   34.2680   47.6670 C   0  0  0  0  0  0  0  0  0  0  0  0
   60.7019   34.5899   48.3524 H   0  0  0  0  0  0  0  0  0  0  0  0
   59.8950   34.7230   46.3450 C   0  0  0  0  0  0  0  0  0  0  0  0
   60.6942   35.3896   45.9887 H   0  0  0  0  0  0  0  0  0  0  0  0
   58.8730   34.3330   45.4750 C   0  0  0  0  0  0  0  0  0  0  0  0
   58.8652   34.6973   44.4371 H   0  0  0  0  0  0  0  0  0  0  0  0
   57.8610   33.4800   45.9240 C   0  0  0  0  0  0  0  0  0  0  0  0
   57.0548   33.1763   45.2400 H   0  0  0  0  0  0  0  0  0  0  0  0
   57.8720   33.0120   47.2420 C   0  0  0  0  0  0  0  0  0  0  0  0
   57.0760   32.3375   47.5904 H   0  0  0  0  0  0  0  0  0  0  0  0
   59.7460   29.5410   48.6250 C   0  0  0  0  0  0  0  0  0  0  0  0
   59.2450   28.9780   49.6390 O   0  0  0  0  0  0  0  0  0  0  0  0
   57.7540   28.9730   44.1970 S   0  0  0  0  0  0  0  0  0  0  0  0
   57.2710   30.5380   43.8220 C   0  0  0  0  0  0  0  0  0  0  0  0
   58.1320   31.5720   43.1760 C   0  0  0  0  0  0  0  0  0  0  0  0
   58.6307   32.1709   43.9522 H   0  0  0  0  0  0  0  0  0  0  0  0
   58.8901   31.0788   42.5498 H   0  0  0  0  0  0  0  0  0  0  0  0
   57.5097   32.2283   42.5498 H   0  0  0  0  0  0  0  0  0  0  0  0
  1  2  1  0
  2  3  1  0
  3  4  1  0
  4  5  2  0
  5  6  1  0
  6  7  2  0
  6  8  1  0
  8  9  1  0
  8 10  1  0
  8 11  1  0
 11 12  2  3
 12 13  1  0
 13 14  1  0
 14 15  1  0
 14 16  2  0
 16 17  1  0
 17 18  1  0
 17 19  1  0
 17 20  1  0
 16 21  1  0
 21 22  1  0
 22 23  1  0
 22 24  1  0
 22 25  1  0
 25 26  2  0
 25 27  1  0
 27 28  1  0
 28 29  1  0
 28 30  1  0
 28 31  1  0
 31 32  2  0
 32 33  1  0
 32 34  1  0
 34 35  1  0
 34 36  2  0
 36 37  1  0
 36 38  1  0
 38 39  1  0
 38 40  2  0
 40 41  1  0
 21 42  1  0
 42 43  2  0
  4 44  1  0
 44 45  1  0
 45 46  1  0
 46 47  1  0
 46 48  1  0
 46 49  1  0
 45  2  2  0
 42 12  1  0
 40 31  1  0
M  CHG  3   3  -1  13  -1  27  -1
M  END
>  <UniqueID>  (41) 
38

>  <SMILES>  (41) 
Cc1c[n-]/c(=N/C(=O)CN=c2[n-]cc(C)n(CC(=O)[N-]Cc3ccccc3)c2=O)s1

>  <Energy>  (41) 
85.57768279018909

>  <Genealogy>  (41) 
Cc1c[n-]c(=NC(=O)CN=c2[n-]cc(C)n(CC(=O)[N-]Cc3ccccc3)c2=O)s1 (protonated)
Cc1c[n-]/c(=N/C(=O)CN=c2[n-]cc(C)n(CC(=O)[N-]Cc3ccccc3)c2=O)s1 (cis-trans isomerization)
Cc1c[n-]/c(=N/C(=O)CN=c2[n-]cc(C)n(CC(=O)[N-]Cc3ccccc3)c2=O)s1 (3D coordinates assigned)
Cc1c[n-]/c(=N/C(=O)CN=c2[n-]cc(C)n(CC(=O)[N-]Cc3ccccc3)c2=O)s1 (optimized conformer: 85.57768279018909 kcal/mol)

>  <smiles>  (41) 
Cc1c[nH]c(=NC(=O)CN=c2[nH]cc(C)n(CC(=O)NCc3ccccc3)c2=O)s1

>  <score_type>  (41) 
oracle

>  <origin>  (41) 
adg

>  <m_score__min__energy>  (41) 
-12.98

>  <m_primary>  (41) 
energy

$$$$
41:0
     RDKit          3D

 90 93  0  0  0  0  0  0  0  0999 V2000
   58.5440   30.7790   51.4290 C   0  0  0  0  0  0  0  0  0  0  0  0
   59.5570   30.3510   52.4890 C   0  0  0  0  0  0  0  0  0  0  0  0
   59.3880   28.8760   52.8580 C   0  0  0  0  0  0  0  0  0  0  0  0
   60.6380   28.1390   52.6230 N   0  0  0  0  0  0  0  0  0  0  0  0
   61.4840   27.7690   53.7680 C   0  0  0  0  0  0  0  0  0  0  0  0
   62.5580   28.8340   54.0340 C   0  0  0  0  0  0  0  0  0  0  0  0
   63.4260   29.0950   52.8060 C   0  0  0  0  0  0  0  0  0  0  0  0
   60.9270   27.6140   51.3080 C   0  0  0  0  0  0  0  0  0  0  0  0
   61.3590   26.4340   51.1960 O   0  0  0  0  0  0  0  0  0  0  0  0
   60.6870   28.4110   50.0860 C   0  0  0  0  0  0  0  0  0  0  0  0
   59.6750   28.0480   49.1770 C   0  0  0  0  0  0  0  0  0  0  0  0
   59.4320   28.8180   48.0270 C   0  0  0  0  0  0  0  0  0  0  0  0
   58.3510   28.4460   47.0900 C   0  0  0  0  0  0  0  0  0  0  0  0
   57.5620   27.5040   47.3800 O   0  0  0  0  0  0  0  0  0  0  0  0
   58.1860   29.1740   45.8580 N   0  0  0  0  0  0  0  0  0  0  0  0
   57.3340   28.6880   44.7710 C   0  0  2  0  0  0  0  0  0  0  0  0
   58.1630   27.8330   43.7900 C   0  0  0  0  0  0  0  0  0  0  0  0
   58.1320   26.3700   44.1760 C   0  0  0  0  0  0  0  0  0  0  0  0
   57.3980   25.4570   43.3970 C   0  0  0  0  0  0  0  0  0  0  0  0
   57.3110   24.1150   43.7770 C   0  0  0  0  0  0  0  0  0  0  0  0
   57.9600   23.6680   44.9340 C   0  0  0  0  0  0  0  0  0  0  0  0
   58.6910   24.5690   45.7150 C   0  0  0  0  0  0  0  0  0  0  0  0
   58.7760   25.9170   45.3440 C   0  0  0  0  0  0  0  0  0  0  0  0
   56.6630   29.8420   44.0700 C   0  0  0  0  0  0  0  0  0  0  0  0
   56.2340   29.7180   42.8870 O   0  0  0  0  0  0  0  0  0  0  0  0
   56.5940   31.1170   44.7170 N   0  0  0  0  0  0  0  0  0  0  0  0
   57.4470   32.2250   44.3070 C   0  0  0  0  0  0  0  0  0  0  0  0
   58.2060   32.7150   45.5110 C   0  0  0  0  0  0  0  0  0  0  0  0
   57.9590   32.1560   46.7760 C   0  0  0  0  0  0  0  0  0  0  0  0
   58.4980   32.7460   47.9260 C   0  0  0  0  0  0  0  0  0  0  0  0
   59.2890   33.9040   47.8210 C   0  0  0  0  0  0  0  0  0  0  0  0
   59.8360   34.5710   49.0580 C   0  0  0  0  0  0  0  0  0  0  0  0
   59.7560   33.6540   50.1940 N   0  0  0  0  0  0  0  0  0  0  0  0
   59.5760   34.4320   46.5520 C   0  0  0  0  0  0  0  0  0  0  0  0
   59.0190   33.8530   45.4050 C   0  0  0  0  0  0  0  0  0  0  0  0
   60.2330   29.9420   47.7750 C   0  0  0  0  0  0  0  0  0  0  0  0
   61.2460   30.3060   48.6690 C   0  0  0  0  0  0  0  0  0  0  0  0
   62.0940   31.4190   48.3670 N   0  0  0  0  0  0  0  0  0  0  0  0
   61.9070   32.1300   47.0970 C   0  0  0  0  0  0  0  0  0  0  0  0
   63.0930   33.0360   46.7450 C   0  0  0  0  0  0  0  0  0  0  0  0
   63.3690   34.0770   47.8390 C   0  0  0  0  0  0  0  0  0  0  0  0
   64.0290   33.4410   49.0580 C   0  0  0  0  0  0  0  0  0  0  0  0
   63.0240   32.0960   49.6650 S   0  0  0  0  0  0  0  0  0  0  0  0
   63.9240   31.0390   50.2350 O   0  0  0  0  0  0  0  0  0  0  0  0
   62.0990   32.5950   50.7410 O   0  0  0  0  0  0  0  0  0  0  0  0
   61.4560   29.5600   49.8340 C   0  0  0  0  0  0  0  0  0  0  0  0
   57.6378   31.1619   51.9212 H   0  0  0  0  0  0  0  0  0  0  0  0
   58.9819   31.5690   50.8012 H   0  0  0  0  0  0  0  0  0  0  0  0
   58.2828   29.9144   50.8012 H   0  0  0  0  0  0  0  0  0  0  0  0
   60.5729   30.5080   52.0975 H   0  0  0  0  0  0  0  0  0  0  0  0
   59.3896   30.9557   53.3925 H   0  0  0  0  0  0  0  0  0  0  0  0
   59.1163   28.7978   53.9210 H   0  0  0  0  0  0  0  0  0  0  0  0
   58.5959   28.4413   52.2306 H   0  0  0  0  0  0  0  0  0  0  0  0
   60.8519   27.6661   54.6624 H   0  0  0  0  0  0  0  0  0  0  0  0
   61.9868   26.8185   53.5360 H   0  0  0  0  0  0  0  0  0  0  0  0
   62.0626   29.7724   54.3238 H   0  0  0  0  0  0  0  0  0  0  0  0
   63.2113   28.4623   54.8371 H   0  0  0  0  0  0  0  0  0  0  0  0
   64.4336   29.3980   53.1269 H   0  0  0  0  0  0  0  0  0  0  0  0
   63.4936   28.1775   52.2030 H   0  0  0  0  0  0  0  0  0  0  0  0
   62.9764   29.8977   52.2030 H   0  0  0  0  0  0  0  0  0  0  0  0
   59.0676   27.1513   49.3693 H   0  0  0  0  0  0  0  0  0  0  0  0
   58.5930   30.1370   45.7800 H   0  0  0  0  0  0  0  0  0  0  0  0
   56.5425   28.0503   45.1916 H   0  0  0  0  0  0  0  0  0  0  0  0
   57.7482   27.9455   42.7774 H   0  0  0  0  0  0  0  0  0  0  0  0
   59.2065   28.1793   43.8231 H   0  0  0  0  0  0  0  0  0  0  0  0
   56.8900   25.8012   42.4841 H   0  0  0  0  0  0  0  0  0  0  0  0
   56.7311   23.4081   43.1654 H   0  0  0  0  0  0  0  0  0  0  0  0
   57.8952   22.6101   45.2283 H   0  0  0  0  0  0  0  0  0  0  0  0
   59.2011   24.2177   46.6240 H   0  0  0  0  0  0  0  0  0  0  0  0
   59.3464   26.6228   45.9656 H   0  0  0  0  0  0  0  0  0  0  0  0
   58.1539   31.8835   43.5365 H   0  0  0  0  0  0  0  0  0  0  0  0
   56.8341   33.0384   43.8914 H   0  0  0  0  0  0  0  0  0  0  0  0
   57.3397   31.2511   46.8635 H   0  0  0  0  0  0  0  0  0  0  0  0
   58.3023   32.3027   48.9135 H   0  0  0  0  0  0  0  0  0  0  0  0
   60.8863   34.8502   48.8878 H   0  0  0  0  0  0  0  0  0  0  0  0
   59.2429   35.4713   49.2766 H   0  0  0  0  0  0  0  0  0  0  0  0
   60.4220   33.9870   50.9300 H   0  0  0  0  0  0  0  0  0  0  0  0
   60.0970   32.7250   49.8710 H   0  0  0  0  0  0  0  0  0  0  0  0
   60.2407   35.3035   46.4585 H   0  0  0  0  0  0  0  0  0  0  0  0
   59.2199   34.2925   44.4168 H   0  0  0  0  0  0  0  0  0  0  0  0
   60.0635   30.5413   46.8683 H   0  0  0  0  0  0  0  0  0  0  0  0
   61.7802   31.3887   46.2942 H   0  0  0  0  0  0  0  0  0  0  0  0
   61.0195   32.7712   47.2031 H   0  0  0  0  0  0  0  0  0  0  0  0
   63.9895   32.4121   46.6147 H   0  0  0  0  0  0  0  0  0  0  0  0
   62.8442   33.5754   45.8192 H   0  0  0  0  0  0  0  0  0  0  0  0
   64.0359   34.8528   47.4348 H   0  0  0  0  0  0  0  0  0  0  0  0
   62.4089   34.5126   48.1528 H   0  0  0  0  0  0  0  0  0  0  0  0
   65.0204   33.0565   48.7763 H   0  0  0  0  0  0  0  0  0  0  0  0
   64.1333   34.1988   49.8484 H   0  0  0  0  0  0  0  0  0  0  0  0
   62.2254   29.8738   50.5548 H   0  0  0  0  0  0  0  0  0  0  0  0
  1  2  1  0
  2  3  1  0
  3  4  1  0
  4  5  1  0
  5  6  1  0
  6  7  1  0
  4  8  1  0
  8  9  2  0
  8 10  1  0
 10 11  2  0
 11 12  1  0
 12 13  1  0
 13 14  2  0
 13 15  1  0
 15 16  1  0
 16 17  1  0
 17 18  1  0
 18 19  2  0
 19 20  1  0
 20 21  2  0
 21 22  1  0
 22 23  2  0
 16 24  1  0
 24 25  2  0
 24 26  1  0
 26 27  1  0
 27 28  1  0
 28 29  2  0
 29 30  1  0
 30 31  2  0
 31 32  1  0
 32 33  1  0
 31 34  1  0
 34 35  2  0
 12 36  2  0
 36 37  1  0
 37 38  1  0
 38 39  1  0
 39 40  1  0
 40 41  1  0
 41 42  1  0
 42 43  1  0
 43 44  2  0
 43 45  2  0
 37 46  2  0
 46 10  1  0
 23 18  1  0
 35 28  1  0
 43 38  1  0
  1 47  1  0
  1 48  1  0
  1 49  1  0
  2 50  1  0
  2 51  1  0
  3 52  1  0
  3 53  1  0
  5 54  1  0
  5 55  1  0
  6 56  1  0
  6 57  1  0
  7 58  1  0
  7 59  1  0
  7 60  1  0
 11 61  1  0
 15 62  1  0
 16 63  1  1
 17 64  1  0
 17 65  1  0
 19 66  1  0
 20 67  1  0
 21 68  1  0
 22 69  1  0
 23 70  1  0
 27 71  1  0
 27 72  1  0
 29 73  1  0
 30 74  1  0
 32 75  1  0
 32 76  1  0
 33 77  1  0
 33 78  1  0
 34 79  1  0
 35 80  1  0
 36 81  1  0
 39 82  1  0
 39 83  1  0
 40 84  1  0
 40 85  1  0
 41 86  1  0
 41 87  1  0
 42 88  1  0
 42 89  1  0
 46 90  1  0
M  CHG  1  26  -1
M  END
>  <UniqueID>  (42) 
39

>  <SMILES>  (42) 
CCCN(CCC)C(=O)c1cc(C(=O)N[C@H](Cc2ccccc2)C(=O)[N-]Cc2ccc(CN)cc2)cc(N2CCCCS2(=O)=O)c1

>  <Energy>  (42) 
85.1357298863254

>  <Genealogy>  (42) 
CCCN(CCC)C(=O)c1cc(C(=O)NC(Cc2ccccc2)C(=O)[N-]Cc2ccc(CN)cc2)cc(N2CCCCS2(=O)=O)c1 (protonated)
CCCN(CCC)C(=O)c1cc(C(=O)N[C@H](Cc2ccccc2)C(=O)[N-]Cc2ccc(CN)cc2)cc(N2CCCCS2(=O)=O)c1 (chirality)
CCCN(CCC)C(=O)c1cc(C(=O)N[C@H](Cc2ccccc2)C(=O)[N-]Cc2ccc(CN)cc2)cc(N2CCCCS2(=O)=O)c1 (3D coordinates assigned)
CCCN(CCC)C(=O)c1cc(C(=O)N[C@H](Cc2ccccc2)C(=O)[N-]Cc2ccc(CN)cc2)cc(N2CCCCS2(=O)=O)c1 (nonaromatic ring conformer: 85.1357298863254 kcal/mol)

>  <smiles>  (42) 
CCCN(CCC)C(=O)c1cc(C(=O)NC(Cc2ccccc2)C(=O)NCc2ccc(CN)cc2)cc(N2CCCCS2(=O)=O)c1

>  <score_type>  (42) 
oracle

>  <origin>  (42) 
adg

>  <m_score__min__energy>  (42) 
-13.26

>  <m_primary>  (42) 
energy

$$$$
42:0
     RDKit          3D

 44 46  0  0  0  0  0  0  0  0999 V2000
   61.3210   27.1410   50.3620 O   0  0  0  0  0  0  0  0  0  0  0  0
   60.4580   27.7480   49.6740 C   0  0  0  0  0  0  0  0  0  0  0  0
   60.3550   27.4500   48.2760 N   0  0  0  0  0  0  0  0  0  0  0  0
   59.4060   28.0160   47.3620 C   0  0  0  0  0  0  0  0  0  0  0  0
   58.2640   27.3080   46.9510 C   0  0  0  0  0  0  0  0  0  0  0  0
   57.3740   27.8780   46.0360 C   0  0  0  0  0  0  0  0  0  0  0  0
   57.6250   29.1500   45.5060 C   0  0  0  0  0  0  0  0  0  0  0  0
   56.4800   29.8660   44.3750 S   0  0  0  0  0  0  0  0  0  0  0  0
   56.9410   29.6530   42.9590 O   0  0  0  0  0  0  0  0  0  0  0  0
   55.1440   29.2020   44.5480 O   0  0  0  0  0  0  0  0  0  0  0  0
   56.3180   31.5660   44.6890 N   0  0  0  0  0  0  0  0  0  0  0  0
   57.4410   32.2900   44.0990 C   0  0  0  0  0  0  0  0  0  0  0  0
   58.0770   33.1530   45.1500 C   0  0  0  0  0  0  0  0  0  0  0  0
   58.9440   34.1940   44.7790 C   0  0  0  0  0  0  0  0  0  0  0  0
   59.5670   34.9740   45.7590 C   0  0  0  0  0  0  0  0  0  0  0  0
   59.3370   34.7120   47.1130 C   0  0  0  0  0  0  0  0  0  0  0  0
   58.4870   33.6680   47.4890 C   0  0  0  0  0  0  0  0  0  0  0  0
   57.8640   32.8850   46.5130 C   0  0  0  0  0  0  0  0  0  0  0  0
   58.7760   29.8480   45.8980 C   0  0  0  0  0  0  0  0  0  0  0  0
   59.6660   29.2770   46.8130 C   0  0  0  0  0  0  0  0  0  0  0  0
   59.6420   28.7650   50.2750 N   0  0  0  0  0  0  0  0  0  0  0  0
   59.6470   29.0200   51.7130 C   0  0  0  0  0  0  0  0  0  0  0  0
   58.4410   29.8170   52.0980 C   0  0  0  0  0  0  0  0  0  0  0  0
   58.1800   30.3280   53.3530 C   0  0  0  0  0  0  0  0  0  0  0  0
   56.9600   30.9600   53.2480 C   0  0  0  0  0  0  0  0  0  0  0  0
   56.5520   30.7920   51.9400 C   0  0  0  0  0  0  0  0  0  0  0  0
   57.4560   30.1040   51.2790 O   0  0  0  0  0  0  0  0  0  0  0  0
   58.0696   26.3018   47.3506 H   0  0  0  0  0  0  0  0  0  0  0  0
   56.4731   27.3254   45.7311 H   0  0  0  0  0  0  0  0  0  0  0  0
   58.1807   31.5722   43.7148 H   0  0  0  0  0  0  0  0  0  0  0  0
   57.0820   32.9190   43.2710 H   0  0  0  0  0  0  0  0  0  0  0  0
   59.1337   34.3965   43.7146 H   0  0  0  0  0  0  0  0  0  0  0  0
   60.2383   35.7940   45.4641 H   0  0  0  0  0  0  0  0  0  0  0  0
   59.8252   35.3278   47.8827 H   0  0  0  0  0  0  0  0  0  0  0  0
   58.3081   33.4623   48.5547 H   0  0  0  0  0  0  0  0  0  0  0  0
   57.2051   32.0567   46.8126 H   0  0  0  0  0  0  0  0  0  0  0  0
   58.9794   30.8470   45.4849 H   0  0  0  0  0  0  0  0  0  0  0  0
   60.5762   29.8223   47.1032 H   0  0  0  0  0  0  0  0  0  0  0  0
   59.0490   29.3740   49.6690 H   0  0  0  0  0  0  0  0  0  0  0  0
   59.6370   28.0614   52.2525 H   0  0  0  0  0  0  0  0  0  0  0  0
   60.5522   29.5875   51.9748 H   0  0  0  0  0  0  0  0  0  0  0  0
   58.8129   30.2477   54.2491 H   0  0  0  0  0  0  0  0  0  0  0  0
   56.4201   31.4913   54.0457 H   0  0  0  0  0  0  0  0  0  0  0  0
   55.6127   31.1758   51.5153 H   0  0  0  0  0  0  0  0  0  0  0  0
  1  2  2  0
  2  3  1  0
  3  4  1  0
  4  5  2  0
  5  6  1  0
  6  7  2  0
  7  8  1  0
  8  9  2  0
  8 10  2  0
  8 11  1  0
 11 12  1  0
 12 13  1  0
 13 14  2  0
 14 15  1  0
 15 16  2  0
 16 17  1  0
 17 18  2  0
  7 19  1  0
 19 20  2  0
  2 21  1  0
 21 22  1  0
 22 23  1  0
 23 24  2  0
 24 25  1  0
 25 26  2  0
 26 27  1  0
 20  4  1  0
 27 23  1  0
 18 13  1  0
  5 28  1  0
  6 29  1  0
 12 30  1  0
 12 31  1  0
 14 32  1  0
 15 33  1  0
 16 34  1  0
 17 35  1  0
 18 36  1  0
 19 37  1  0
 20 38  1  0
 21 39  1  0
 22 40  1  0
 22 41  1  0
 24 42  1  0
 25 43  1  0
 26 44  1  0
M  CHG  2   3  -1  11  -1
M  END
>  <UniqueID>  (43) 
40

>  <SMILES>  (43) 
O=C([N-]c1ccc(S(=O)(=O)[N-]Cc2ccccc2)cc1)NCc1ccco1

>  <Energy>  (43) 
70.70717347126367

>  <Genealogy>  (43) 
O=C([N-]c1ccc(S(=O)(=O)[N-]Cc2ccccc2)cc1)NCc1ccco1 (protonated)
O=C([N-]c1ccc(S(=O)(=O)[N-]Cc2ccccc2)cc1)NCc1ccco1 (3D coordinates assigned)
O=C([N-]c1ccc(S(=O)(=O)[N-]Cc2ccccc2)cc1)NCc1ccco1 (optimized conformer: 70.70717347126367 kcal/mol)

>  <smiles>  (43) 
O=C(NCc1ccco1)Nc1ccc(S(=O)(=O)NCc2ccccc2)cc1

>  <score_type>  (43) 
oracle

>  <origin>  (43) 
adg

>  <m_score__min__energy>  (43) 
-11.130000000000001

>  <m_primary>  (43) 
energy

$$$$
43:0
     RDKit          3D

 44 47  0  0  0  0  0  0  0  0999 V2000
   57.1374   34.7787   44.4544 H   0  0  0  0  0  0  0  0  0  0  0  0
   57.6500   34.0160   45.0590 C   0  0  0  0  0  0  0  0  0  0  0  0
   58.0820   34.3240   46.3500 C   0  0  0  0  0  0  0  0  0  0  0  0
   57.9102   35.3294   46.7618 H   0  0  0  0  0  0  0  0  0  0  0  0
   58.7320   33.3570   47.1190 C   0  0  0  0  0  0  0  0  0  0  0  0
   59.0658   33.6036   48.1377 H   0  0  0  0  0  0  0  0  0  0  0  0
   58.9630   32.0720   46.6020 C   0  0  0  0  0  0  0  0  0  0  0  0
   59.6450   31.0970   47.4120 N   0  0  0  0  0  0  0  0  0  0  0  0
   61.1080   31.0410   47.4550 C   0  0  0  0  0  0  0  0  0  0  0  0
   61.4686   30.2929   46.7337 H   0  0  0  0  0  0  0  0  0  0  0  0
   61.5227   32.0263   47.1957 H   0  0  0  0  0  0  0  0  0  0  0  0
   61.5570   30.6500   48.8650 C   0  0  0  0  0  0  0  0  0  0  0  0
   62.6447   30.4861   48.8645 H   0  0  0  0  0  0  0  0  0  0  0  0
   61.2923   31.4629   49.5572 H   0  0  0  0  0  0  0  0  0  0  0  0
   60.9090   29.4640   49.2890 O   0  0  0  0  0  0  0  0  0  0  0  0
   59.5170   29.6930   49.4090 C   0  0  0  0  0  0  0  0  0  0  0  0
   59.0384   28.7928   49.8219 H   0  0  0  0  0  0  0  0  0  0  0  0
   59.3590   30.5531   50.0763 H   0  0  0  0  0  0  0  0  0  0  0  0
   58.8950   30.0110   48.0460 C   0  0  0  0  0  0  0  0  0  0  0  0
   58.9334   29.1164   47.4071 H   0  0  0  0  0  0  0  0  0  0  0  0
   57.8475   30.3178   48.1821 H   0  0  0  0  0  0  0  0  0  0  0  0
   58.5440   31.7680   45.2900 C   0  0  0  0  0  0  0  0  0  0  0  0
   58.6780   30.4340   44.7780 N   0  0  0  0  0  0  0  0  0  0  0  0
   57.9610   29.3820   45.0700 C   0  0  0  0  0  0  0  0  0  0  0  0
   58.6150   28.2670   45.4940 N   0  0  0  0  0  0  0  0  0  0  0  0
   57.9610   27.1220   45.8180 C   0  0  0  0  0  0  0  0  0  0  0  0
   58.6700   25.9940   46.2610 C   0  0  0  0  0  0  0  0  0  0  0  0
   60.0690   26.0700   46.3590 O   0  0  0  0  0  0  0  0  0  0  0  0
   60.7660   26.7780   47.3790 C   0  0  0  0  0  0  0  0  0  0  0  0
   60.4243   26.4309   48.3653 H   0  0  0  0  0  0  0  0  0  0  0  0
   61.8461   26.5949   47.2799 H   0  0  0  0  0  0  0  0  0  0  0  0
   60.5660   27.8551   47.2799 H   0  0  0  0  0  0  0  0  0  0  0  0
   57.9550   24.8240   46.5920 C   0  0  0  0  0  0  0  0  0  0  0  0
   58.4970   23.9321   46.9395 H   0  0  0  0  0  0  0  0  0  0  0  0
   56.5610   24.7910   46.4810 C   0  0  0  0  0  0  0  0  0  0  0  0
   56.0126   23.8744   46.7439 H   0  0  0  0  0  0  0  0  0  0  0  0
   55.8620   25.9160   46.0380 C   0  0  0  0  0  0  0  0  0  0  0  0
   54.7660   25.8851   45.9499 H   0  0  0  0  0  0  0  0  0  0  0  0
   56.5590   27.0810   45.7070 C   0  0  0  0  0  0  0  0  0  0  0  0
   55.8940   28.1790   45.2650 N   0  0  0  0  0  0  0  0  0  0  0  0
   56.5480   29.3240   44.9340 C   0  0  0  0  0  0  0  0  0  0  0  0
   55.8810   30.2930   44.4880 O   0  0  0  0  0  0  0  0  0  0  0  0
   57.8680   32.7400   44.5340 C   0  0  0  0  0  0  0  0  0  0  0  0
   57.5086   32.4951   43.5236 H   0  0  0  0  0  0  0  0  0  0  0  0
  1  2  1  0
  2  3  2  0
  3  4  1  0
  3  5  1  0
  5  6  1  0
  5  7  2  0
  7  8  1  0
  8  9  1  0
  9 10  1  0
  9 11  1  0
  9 12  1  0
 12 13  1  0
 12 14  1  0
 12 15  1  0
 15 16  1  0
 16 17  1  0
 16 18  1  0
 16 19  1  0
 19 20  1  0
 19 21  1  0
  7 22  1  0
 22 23  1  0
 23 24  2  0
 24 25  1  0
 25 26  1  0
 26 27  2  0
 27 28  1  0
 28 29  1  0
 29 30  1  0
 29 31  1  0
 29 32  1  0
 27 33  1  0
 33 34  1  0
 33 35  2  0
 35 36  1  0
 35 37  1  0
 37 38  1  0
 37 39  2  0
 39 40  1  0
 40 41  1  0
 41 42  2  0
 22 43  2  0
 43 44  1  0
 43  2  1  0
 19  8  1  0
 41 24  1  0
 39 26  1  0
M  CHG  2  25  -1  40  -1
M  END
>  <UniqueID>  (44) 
41

>  <SMILES>  (44) 
COc1cccc2[n-]c(=O)/c(=N\c3ccccc3N3CCOCC3)[n-]c12

>  <Energy>  (44) 
69.98874785441356

>  <Genealogy>  (44) 
COc1cccc2[n-]c(=O)c(=Nc3ccccc3N3CCOCC3)[n-]c12 (protonated)
COc1cccc2[n-]c(=O)/c(=N\c3ccccc3N3CCOCC3)[n-]c12 (cis-trans isomerization)
COc1cccc2[n-]c(=O)/c(=N\c3ccccc3N3CCOCC3)[n-]c12 (3D coordinates assigned)
COc1cccc2[n-]c(=O)/c(=N\c3ccccc3N3CCOCC3)[n-]c12 (nonaromatic ring conformer: 69.98874785441356 kcal/mol)

>  <smiles>  (44) 
COc1cccc2[nH]c(=O)c(=Nc3ccccc3N3CCOCC3)[nH]c12

>  <score_type>  (44) 
oracle

>  <origin>  (44) 
adg

>  <m_score__min__energy>  (44) 
-10.35

>  <m_primary>  (44) 
energy

$$$$
44:0
     RDKit          3D

 51 54  0  0  0  0  0  0  0  0999 V2000
   59.5172   26.6065   46.6795 H   0  0  0  0  0  0  0  0  0  0  0  0
   59.3410   25.6450   46.1750 C   0  0  0  0  0  0  0  0  0  0  0  0
   60.1615   24.9196   46.0716 H   0  0  0  0  0  0  0  0  0  0  0  0
   58.1210   25.3560   45.6840 C   0  0  0  0  0  0  0  0  0  0  0  0
   56.9740   26.1860   45.9060 C   0  0  0  0  0  0  0  0  0  0  0  0
   57.0290   27.4910   46.2890 C   0  0  0  0  0  0  0  0  0  0  0  0
   56.6044   27.7402   47.2727 H   0  0  0  0  0  0  0  0  0  0  0  0
   57.6050   28.6030   45.5080 C   0  0  0  0  0  0  0  0  0  0  0  0
   56.9800   29.7400   45.3050 O   0  0  0  0  0  0  0  0  0  0  0  0
   57.7320   30.4930   44.5360 C   0  0  0  0  0  0  0  0  0  0  0  0
   57.3610   31.8650   44.0880 C   0  0  0  0  0  0  0  0  0  0  0  0
   57.1883   32.5035   44.9669 H   0  0  0  0  0  0  0  0  0  0  0  0
   58.1774   32.2865   43.4832 H   0  0  0  0  0  0  0  0  0  0  0  0
   56.4434   31.8177   43.4832 H   0  0  0  0  0  0  0  0  0  0  0  0
   58.8940   29.8270   44.2020 C   0  0  0  0  0  0  0  0  0  0  0  0
   59.7150   30.1982   43.5710 H   0  0  0  0  0  0  0  0  0  0  0  0
   58.8110   28.6000   44.8240 C   0  0  0  0  0  0  0  0  0  0  0  0
   59.5496   27.7858   44.7857 H   0  0  0  0  0  0  0  0  0  0  0  0
   55.6970   25.6100   45.6870 C   0  0  0  0  0  0  0  0  0  0  0  0
   54.5380   26.3290   45.9790 O   0  0  0  0  0  0  0  0  0  0  0  0
   55.5780   24.3330   45.1150 C   0  0  0  0  0  0  0  0  0  0  0  0
   54.2530   23.7210   44.8620 C   0  0  0  0  0  0  0  0  0  0  0  0
   53.7540   23.7840   43.7050 O   0  0  0  0  0  0  0  0  0  0  0  0
   53.5040   23.0900   45.9200 N   0  0  0  0  0  0  0  0  0  0  0  0
   54.1650   22.1960   46.8780 C   0  0  0  0  0  0  0  0  0  0  0  0
   53.9629   21.1508   46.6012 H   0  0  0  0  0  0  0  0  0  0  0  0
   55.2490   22.3820   46.8593 H   0  0  0  0  0  0  0  0  0  0  0  0
   53.6320   22.4600   48.2880 C   0  0  0  0  0  0  0  0  0  0  0  0
   53.9565   21.6438   48.9502 H   0  0  0  0  0  0  0  0  0  0  0  0
   54.0301   23.4270   48.6292 H   0  0  0  0  0  0  0  0  0  0  0  0
   52.1620   22.5360   48.3100 N   0  0  0  0  0  0  0  0  0  0  0  0
   51.4670   22.5920   49.5750 C   0  0  0  0  0  0  0  0  0  0  0  0
   50.2390   22.3120   49.6340 O   0  0  0  0  0  0  0  0  0  0  0  0
   52.1970   22.9290   50.8460 C   0  0  0  0  0  0  0  0  0  0  0  0
   53.1546   22.4728   50.5546 H   0  0  0  0  0  0  0  0  0  0  0  0
   51.7700   24.2400   51.4880 C   0  0  0  0  0  0  0  0  0  0  0  0
   52.5136   24.8699   51.9982 H   0  0  0  0  0  0  0  0  0  0  0  0
   51.2452   25.1414   51.1387 H   0  0  0  0  0  0  0  0  0  0  0  0
   51.3410   22.9210   52.1060 C   0  0  0  0  0  0  0  0  0  0  0  0
   51.7743   22.5954   53.0632 H   0  0  0  0  0  0  0  0  0  0  0  0
   50.3778   22.4715   52.3891 H   0  0  0  0  0  0  0  0  0  0  0  0
   51.4010   22.3970   47.0580 C   0  0  0  0  0  0  0  0  0  0  0  0
   51.3900   21.3390   46.7573 H   0  0  0  0  0  0  0  0  0  0  0  0
   50.3748   22.7559   47.2253 H   0  0  0  0  0  0  0  0  0  0  0  0
   52.0410   23.2320   45.9410 C   0  0  0  0  0  0  0  0  0  0  0  0
   51.6375   22.8999   44.9731 H   0  0  0  0  0  0  0  0  0  0  0  0
   51.8038   24.2898   46.1276 H   0  0  0  0  0  0  0  0  0  0  0  0
   56.7380   23.6340   44.7800 C   0  0  0  0  0  0  0  0  0  0  0  0
   56.6601   22.6582   44.2783 H   0  0  0  0  0  0  0  0  0  0  0  0
   57.9610   24.1460   45.0670 N   0  0  0  0  0  0  0  0  0  0  0  0
   58.7900   23.5430   44.8570 H   0  0  0  0  0  0  0  0  0  0  0  0
  1  2  1  0
  2  3  1  0
  2  4  2  0
  4  5  1  0
  5  6  2  0
  6  7  1  0
  6  8  1  0
  8  9  1  0
  9 10  1  0
 10 11  1  0
 11 12  1  0
 11 13  1  0
 11 14  1  0
 10 15  2  0
 15 16  1  0
 15 17  1  0
 17 18  1  0
  5 19  1  0
 19 20  1  0
 19 21  2  0
 21 22  1  0
 22 23  2  0
 22 24  1  0
 24 25  1  0
 25 26  1  0
 25 27  1  0
 25 28  1  0
 28 29  1  0
 28 30  1  0
 28 31  1  0
 31 32  1  0
 32 33  2  0
 32 34  1  0
 34 35  1  0
 34 36  1  0
 36 37  1  0
 36 38  1  0
 36 39  1  0
 39 40  1  0
 39 41  1  0
 31 42  1  0
 42 43  1  0
 42 44  1  0
 42 45  1  0
 45 46  1  0
 45 47  1  0
 21 48  1  0
 48 49  1  0
 48 50  2  0
 50 51  1  0
 50  4  1  0
 17  8  2  0
 45 24  1  0
 39 34  1  0
M  CHG  2  20  -1  50   1
M  END
>  <UniqueID>  (45) 
42

>  <SMILES>  (45) 
C=c1[nH+]cc(C(=O)N2CCN(C(=O)C3CC3)CC2)c([O-])/c1=C/c1ccc(C)o1

>  <Energy>  (45) 
369.4669827499418

>  <Genealogy>  (45) 
C=c1[nH+]cc(C(=O)N2CCN(C(=O)C3CC3)CC2)c([O-])c1=Cc1ccc(C)o1 (protonated)
C=c1[nH+]cc(C(=O)N2CCN(C(=O)C3CC3)CC2)c([O-])/c1=C/c1ccc(C)o1 (cis-trans isomerization)
C=c1[nH+]cc(C(=O)N2CCN(C(=O)C3CC3)CC2)c([O-])/c1=C/c1ccc(C)o1 (3D coordinates assigned)
C=c1[nH+]cc(C(=O)N2CCN(C(=O)C3CC3)CC2)c([O-])/c1=C/c1ccc(C)o1 (nonaromatic ring conformer: 369.4669827499418 kcal/mol)

>  <smiles>  (45) 
C=c1ncc(C(=O)N2CCN(C(=O)C3CC3)CC2)c(O)c1=Cc1ccc(C)o1

>  <score_type>  (45) 
oracle

>  <origin>  (45) 
adg

>  <m_score__min__energy>  (45) 
-10.949999999999999

>  <m_primary>  (45) 
energy

$$$$
45:0
     RDKit          3D

 50 51  0  0  0  0  0  0  0  0999 V2000
   60.0340   28.9610   44.7650 C   0  0  0  0  0  0  0  0  0  0  0  0
   58.5290   28.8340   44.9100 C   0  0  0  0  0  0  0  0  0  0  0  0
   57.9650   27.6490   45.4570 C   0  0  0  0  0  0  0  0  0  0  0  0
   58.7970   26.4780   45.8230 C   0  0  0  0  0  0  0  0  0  0  0  0
   58.4020   25.3160   45.5360 O   0  0  0  0  0  0  0  0  0  0  0  0
   60.0090   26.6700   46.5650 N   0  0  0  0  0  0  0  0  0  0  0  0
   60.1490   27.3880   47.7990 C   0  0  0  0  0  0  0  0  0  0  0  0
   60.6390   26.7760   48.9650 C   0  0  0  0  0  0  0  0  0  0  0  0
   60.7750   27.5170   50.1420 C   0  0  0  0  0  0  0  0  0  0  0  0
   60.4450   28.8740   50.1610 C   0  0  0  0  0  0  0  0  0  0  0  0
   59.9930   29.5100   48.9930 C   0  0  0  0  0  0  0  0  0  0  0  0
   59.6380   30.9500   49.0030 C   0  0  0  0  0  0  0  0  0  0  0  0
   58.5240   31.3010   49.4790 O   0  0  0  0  0  0  0  0  0  0  0  0
   60.5380   31.9560   48.5000 N   0  0  0  0  0  0  0  0  0  0  0  0
   60.5890   33.2630   49.1570 C   0  0  0  0  0  0  0  0  0  0  0  0
   61.3630   31.7190   47.3120 C   0  0  0  0  0  0  0  0  0  0  0  0
   59.8430   28.7560   47.8170 C   0  0  0  0  0  0  0  0  0  0  0  0
   56.5720   27.5710   45.6280 C   0  0  0  0  0  0  0  0  0  0  0  0
   55.9860   26.4330   46.1780 O   0  0  0  0  0  0  0  0  0  0  0  0
   55.7800   28.5960   45.2320 N   0  0  0  0  0  0  0  0  0  0  0  0
   56.2730   29.7200   44.6600 C   0  0  0  0  0  0  0  0  0  0  0  0
   55.4680   30.6150   44.2900 O   0  0  0  0  0  0  0  0  0  0  0  0
   57.6620   29.8760   44.4740 C   0  0  0  0  0  0  0  0  0  0  0  0
   58.1710   31.1460   43.8020 C   0  0  0  0  0  0  0  0  0  0  0  0
   58.4730   32.2770   44.8130 C   0  0  0  0  0  0  0  0  0  0  0  0
   57.6930   33.5610   44.4980 C   0  0  0  0  0  0  0  0  0  0  0  0
   58.1550   31.8110   46.2390 C   0  0  0  0  0  0  0  0  0  0  0  0
   60.4965   29.0000   45.7623 H   0  0  0  0  0  0  0  0  0  0  0  0
   60.4238   28.0926   44.2138 H   0  0  0  0  0  0  0  0  0  0  0  0
   60.2728   29.8825   44.2138 H   0  0  0  0  0  0  0  0  0  0  0  0
   60.9161   25.7116   48.9514 H   0  0  0  0  0  0  0  0  0  0  0  0
   61.1433   27.0297   51.0568 H   0  0  0  0  0  0  0  0  0  0  0  0
   60.5395   29.4474   51.0950 H   0  0  0  0  0  0  0  0  0  0  0  0
   60.5836   33.1253   50.2483 H   0  0  0  0  0  0  0  0  0  0  0  0
   61.5083   33.7880   48.8582 H   0  0  0  0  0  0  0  0  0  0  0  0
   59.7134   33.8580   48.8582 H   0  0  0  0  0  0  0  0  0  0  0  0
   62.3773   31.4276   47.6222 H   0  0  0  0  0  0  0  0  0  0  0  0
   60.9174   30.9125   46.7111 H   0  0  0  0  0  0  0  0  0  0  0  0
   61.4134   32.6390   46.7111 H   0  0  0  0  0  0  0  0  0  0  0  0
   59.4814   29.2445   46.9002 H   0  0  0  0  0  0  0  0  0  0  0  0
   56.4950   25.5590   46.2320 H   0  0  0  0  0  0  0  0  0  0  0  0
   59.0946   30.9081   43.2540 H   0  0  0  0  0  0  0  0  0  0  0  0
   57.3791   31.5055   43.1284 H   0  0  0  0  0  0  0  0  0  0  0  0
   59.5446   32.5107   44.7294 H   0  0  0  0  0  0  0  0  0  0  0  0
   57.3962   34.0496   45.4378 H   0  0  0  0  0  0  0  0  0  0  0  0
   58.3295   34.2431   43.9152 H   0  0  0  0  0  0  0  0  0  0  0  0
   56.7943   33.3105   43.9152 H   0  0  0  0  0  0  0  0  0  0  0  0
   58.6225   32.4961   46.9615 H   0  0  0  0  0  0  0  0  0  0  0  0
   57.0653   31.8076   46.3892 H   0  0  0  0  0  0  0  0  0  0  0  0
   58.5490   30.7950   46.3892 H   0  0  0  0  0  0  0  0  0  0  0  0
  1  2  1  0
  2  3  1  0
  3  4  1  0
  4  5  2  0
  4  6  1  0
  6  7  1  0
  7  8  2  0
  8  9  1  0
  9 10  2  0
 10 11  1  0
 11 12  1  0
 12 13  2  0
 12 14  1  0
 14 15  1  0
 14 16  1  0
 11 17  2  0
  3 18  2  0
 18 19  1  0
 18 20  1  0
 20 21  1  0
 21 22  2  0
 21 23  1  0
 23 24  1  0
 24 25  1  0
 25 26  1  0
 25 27  1  0
 23  2  2  0
 17  7  1  0
  1 28  1  0
  1 29  1  0
  1 30  1  0
  8 31  1  0
  9 32  1  0
 10 33  1  0
 15 34  1  0
 15 35  1  0
 15 36  1  0
 16 37  1  0
 16 38  1  0
 16 39  1  0
 17 40  1  0
 19 41  1  0
 24 42  1  0
 24 43  1  0
 25 44  1  0
 26 45  1  0
 26 46  1  0
 26 47  1  0
 27 48  1  0
 27 49  1  0
 27 50  1  0
M  CHG  2   6  -1  20  -1
M  END
>  <UniqueID>  (46) 
43

>  <SMILES>  (46) 
Cc1c(C(=O)[N-]c2cccc(C(=O)N(C)C)c2)c(O)[n-]c(=O)c1CC(C)C

>  <Energy>  (46) 
62.02201605177985

>  <Genealogy>  (46) 
Cc1c(C(=O)[N-]c2cccc(C(=O)N(C)C)c2)c(O)[n-]c(=O)c1CC(C)C (protonated)
Cc1c(C(=O)[N-]c2cccc(C(=O)N(C)C)c2)c(O)[n-]c(=O)c1CC(C)C (3D coordinates assigned)
Cc1c(C(=O)[N-]c2cccc(C(=O)N(C)C)c2)c(O)[n-]c(=O)c1CC(C)C (optimized conformer: 62.02201605177985 kcal/mol)

>  <smiles>  (46) 
Cc1c(C(=O)Nc2cccc(C(=O)N(C)C)c2)c(O)[nH]c(=O)c1CC(C)C

>  <score_type>  (46) 
oracle

>  <origin>  (46) 
adg

>  <m_score__min__energy>  (46) 
-12.52

>  <m_primary>  (46) 
energy

$$$$
46:0
     RDKit          3D

 58 61  0  0  0  0  0  0  0  0999 V2000
   55.1390   26.5580   45.9970 O   0  0  0  0  0  0  0  0  0  0  0  0
   56.3890   26.4850   45.8560 C   0  0  0  0  0  0  0  0  0  0  0  0
   57.0820   25.3360   46.3590 N   0  0  0  0  0  0  0  0  0  0  0  0
   57.9510   25.3590   47.5300 C   0  0  0  0  0  0  0  0  0  0  0  0
   59.3000   25.9980   47.1830 C   0  0  0  0  0  0  0  0  0  0  0  0
   59.5690   27.2260   48.0170 C   0  0  0  0  0  0  0  0  0  0  0  0
   60.5900   27.2170   48.9890 C   0  0  0  0  0  0  0  0  0  0  0  0
   60.8260   28.3520   49.7670 C   0  0  0  0  0  0  0  0  0  0  0  0
   60.0480   29.5020   49.5850 C   0  0  0  0  0  0  0  0  0  0  0  0
   59.0290   29.5160   48.6300 C   0  0  0  0  0  0  0  0  0  0  0  0
   58.7860   28.3800   47.8510 C   0  0  0  0  0  0  0  0  0  0  0  0
   57.1080   27.6100   45.2390 C   0  0  0  0  0  0  0  0  0  0  0  0
   58.3850   27.4180   44.6840 C   0  0  0  0  0  0  0  0  0  0  0  0
   59.0820   28.5010   44.1440 C   0  0  0  0  0  0  0  0  0  0  0  0
   58.5150   29.7780   44.1610 C   0  0  0  0  0  0  0  0  0  0  0  0
   57.2310   29.9770   44.7020 C   0  0  0  0  0  0  0  0  0  0  0  0
   56.6590   31.2850   44.8230 N   0  0  0  0  0  0  0  0  0  0  0  0
   57.3810   32.5190   44.7890 C   0  0  0  0  0  0  0  0  0  0  0  0
   57.8360   32.9140   43.6840 O   0  0  0  0  0  0  0  0  0  0  0  0
   57.6100   33.3380   46.0490 C   0  0  0  0  0  0  0  0  0  0  0  0
   58.4780   34.5900   45.7890 C   0  0  0  0  0  0  0  0  0  0  0  0
   59.9340   34.2230   45.4640 C   0  0  0  0  0  0  0  0  0  0  0  0
   60.4750   33.3150   46.4850 N   0  0  0  0  0  0  0  0  0  0  0  0
   61.8640   33.4050   46.8480 C   0  0  0  0  0  0  0  0  0  0  0  0
   62.7110   33.8260   46.0080 O   0  0  0  0  0  0  0  0  0  0  0  0
   62.3290   33.0130   48.2150 C   0  0  0  0  0  0  0  0  0  0  0  0
   62.9540   31.6300   48.2990 C   0  0  0  0  0  0  0  0  0  0  0  0
   63.8360   32.8670   48.3390 C   0  0  0  0  0  0  0  0  0  0  0  0
   59.6960   32.1200   46.8430 C   0  0  0  0  0  0  0  0  0  0  0  0
   58.2540   32.5080   47.1810 C   0  0  0  0  0  0  0  0  0  0  0  0
   56.5350   28.8870   45.2390 C   0  0  0  0  0  0  0  0  0  0  0  0
   57.4683   25.9424   48.3279 H   0  0  0  0  0  0  0  0  0  0  0  0
   58.1222   24.3260   47.8671 H   0  0  0  0  0  0  0  0  0  0  0  0
   60.0988   25.2634   47.3628 H   0  0  0  0  0  0  0  0  0  0  0  0
   59.2729   26.3016   46.1261 H   0  0  0  0  0  0  0  0  0  0  0  0
   61.2016   26.3144   49.1347 H   0  0  0  0  0  0  0  0  0  0  0  0
   61.6241   28.3429   50.5239 H   0  0  0  0  0  0  0  0  0  0  0  0
   60.2399   30.3965   50.1957 H   0  0  0  0  0  0  0  0  0  0  0  0
   58.4179   30.4199   48.4905 H   0  0  0  0  0  0  0  0  0  0  0  0
   57.9778   28.3905   47.1049 H   0  0  0  0  0  0  0  0  0  0  0  0
   58.8355   26.4145   44.6750 H   0  0  0  0  0  0  0  0  0  0  0  0
   60.0788   28.3485   43.7046 H   0  0  0  0  0  0  0  0  0  0  0  0
   59.0744   30.6312   43.7499 H   0  0  0  0  0  0  0  0  0  0  0  0
   56.6079   33.6601   46.3686 H   0  0  0  0  0  0  0  0  0  0  0  0
   58.0539   35.1462   44.9400 H   0  0  0  0  0  0  0  0  0  0  0  0
   58.4774   35.2001   46.7043 H   0  0  0  0  0  0  0  0  0  0  0  0
   59.9723   33.7282   44.4823 H   0  0  0  0  0  0  0  0  0  0  0  0
   60.5381   35.1421   45.4486 H   0  0  0  0  0  0  0  0  0  0  0  0
   61.5452   33.5468   48.7723 H   0  0  0  0  0  0  0  0  0  0  0  0
   62.8205   31.0201   49.2046 H   0  0  0  0  0  0  0  0  0  0  0  0
   62.9168   30.7206   47.6812 H   0  0  0  0  0  0  0  0  0  0  0  0
   64.3411   33.1523   49.2736 H   0  0  0  0  0  0  0  0  0  0  0  0
   64.7020   33.2237   47.7620 H   0  0  0  0  0  0  0  0  0  0  0  0
   59.6942   31.4202   45.9943 H   0  0  0  0  0  0  0  0  0  0  0  0
   60.1543   31.6441   47.7225 H   0  0  0  0  0  0  0  0  0  0  0  0
   57.6638   31.5922   47.3327 H   0  0  0  0  0  0  0  0  0  0  0  0
   58.2671   33.1217   48.0938 H   0  0  0  0  0  0  0  0  0  0  0  0
   55.5312   29.0354   45.6637 H   0  0  0  0  0  0  0  0  0  0  0  0
  1  2  2  0
  2  3  1  0
  3  4  1  0
  4  5  1  0
  5  6  1  0
  6  7  2  0
  7  8  1  0
  8  9  2  0
  9 10  1  0
 10 11  2  0
  2 12  1  0
 12 13  2  0
 13 14  1  0
 14 15  2  0
 15 16  1  0
 16 17  1  0
 17 18  1  0
 18 19  2  0
 18 20  1  0
 20 21  1  0
 21 22  1  0
 22 23  1  0
 23 24  1  0
 24 25  2  0
 24 26  1  0
 26 27  1  0
 27 28  1  0
 23 29  1  0
 29 30  1  0
 16 31  2  0
 11  6  1  0
 31 12  1  0
 30 20  1  0
 28 26  1  0
  4 32  1  0
  4 33  1  0
  5 34  1  0
  5 35  1  0
  7 36  1  0
  8 37  1  0
  9 38  1  0
 10 39  1  0
 11 40  1  0
 13 41  1  0
 14 42  1  0
 15 43  1  0
 20 44  1  0
 21 45  1  0
 21 46  1  0
 22 47  1  0
 22 48  1  0
 26 49  1  0
 27 50  1  0
 27 51  1  0
 28 52  1  0
 28 53  1  0
 29 54  1  0
 29 55  1  0
 30 56  1  0
 30 57  1  0
 31 58  1  0
M  CHG  2   3  -1  17  -1
M  END
>  <UniqueID>  (47) 
44

>  <SMILES>  (47) 
O=C([N-]CCc1ccccc1)c1cccc([N-]C(=O)C2CCN(C(=O)C3CC3)CC2)c1

>  <Energy>  (47) 
331.9242291044989

>  <Genealogy>  (47) 
O=C([N-]CCc1ccccc1)c1cccc([N-]C(=O)C2CCN(C(=O)C3CC3)CC2)c1 (protonated)
O=C([N-]CCc1ccccc1)c1cccc([N-]C(=O)C2CCN(C(=O)C3CC3)CC2)c1 (3D coordinates assigned)
O=C([N-]CCc1ccccc1)c1cccc([N-]C(=O)C2CCN(C(=O)C3CC3)CC2)c1 (nonaromatic ring conformer: 331.9242291044989 kcal/mol)

>  <smiles>  (47) 
O=C(NCCc1ccccc1)c1cccc(NC(=O)C2CCN(C(=O)C3CC3)CC2)c1

>  <score_type>  (47) 
oracle

>  <origin>  (47) 
adg

>  <m_score__min__energy>  (47) 
-13.619999999999999

>  <m_primary>  (47) 
energy

$$$$
47:0
     RDKit          3D

 32 34  0  0  0  0  0  0  0  0999 V2000
   55.1590   25.4280   46.3440 O   0  0  0  0  0  0  0  0  0  0  0  0
   56.0780   26.1690   45.9110 C   0  0  0  0  0  0  0  0  0  0  0  0
   57.3330   25.7220   45.6950 N   0  0  0  0  0  0  0  0  0  0  0  0
   57.9660   26.8150   45.2420 C   0  0  0  0  0  0  0  0  0  0  0  0
   59.3030   26.8200   44.8550 O   0  0  0  0  0  0  0  0  0  0  0  0
   57.0920   27.8810   45.1950 C   0  0  0  0  0  0  0  0  0  0  0  0
   57.3970   29.2610   44.7700 C   0  0  0  0  0  0  0  0  0  0  0  0
   56.7250   29.7820   43.6510 C   0  0  0  0  0  0  0  0  0  0  0  0
   57.0020   31.0720   43.1940 C   0  0  0  0  0  0  0  0  0  0  0  0
   57.9530   31.8550   43.8470 C   0  0  0  0  0  0  0  0  0  0  0  0
   58.6230   31.3560   44.9650 C   0  0  0  0  0  0  0  0  0  0  0  0
   58.3530   30.0630   45.4430 C   0  0  0  0  0  0  0  0  0  0  0  0
   59.1770   29.5080   46.9110 S   0  0  0  0  0  0  0  0  0  0  0  0
   58.1510   28.9770   47.8720 O   0  0  0  0  0  0  0  0  0  0  0  0
   60.1470   28.4070   46.5840 O   0  0  0  0  0  0  0  0  0  0  0  0
   60.0840   30.8330   47.6370 C   0  0  0  0  0  0  0  0  0  0  0  0
   59.4170   31.8920   48.2710 C   0  0  0  0  0  0  0  0  0  0  0  0
   60.1450   32.9620   48.8000 C   0  0  0  0  0  0  0  0  0  0  0  0
   61.5400   32.9780   48.7040 C   0  0  0  0  0  0  0  0  0  0  0  0
   62.4510   34.3260   49.3610 Cl  0  0  0  0  0  0  0  0  0  0  0  0
   62.2090   31.9180   48.0830 C   0  0  0  0  0  0  0  0  0  0  0  0
   61.4840   30.8470   47.5540 C   0  0  0  0  0  0  0  0  0  0  0  0
   55.8840   27.4740   45.6230 N   0  0  0  0  0  0  0  0  0  0  0  0
   60.0190   27.2450   45.4320 H   0  0  0  0  0  0  0  0  0  0  0  0
   55.9746   29.1685   43.1309 H   0  0  0  0  0  0  0  0  0  0  0  0
   56.4695   31.4708   42.3180 H   0  0  0  0  0  0  0  0  0  0  0  0
   58.1756   32.8679   43.4803 H   0  0  0  0  0  0  0  0  0  0  0  0
   59.3696   31.9811   45.4767 H   0  0  0  0  0  0  0  0  0  0  0  0
   58.3200   31.8804   48.3520 H   0  0  0  0  0  0  0  0  0  0  0  0
   59.6193   33.7931   49.2928 H   0  0  0  0  0  0  0  0  0  0  0  0
   63.3066   31.9276   48.0111 H   0  0  0  0  0  0  0  0  0  0  0  0
   62.0130   30.0122   47.0709 H   0  0  0  0  0  0  0  0  0  0  0  0
  1  2  2  0
  2  3  1  0
  3  4  1  0
  4  5  1  0
  4  6  2  0
  6  7  1  0
  7  8  2  0
  8  9  1  0
  9 10  2  0
 10 11  1  0
 11 12  2  0
 12 13  1  0
 13 14  2  0
 13 15  2  0
 13 16  1  0
 16 17  2  0
 17 18  1  0
 18 19  2  0
 19 20  1  0
 19 21  1  0
 21 22  2  0
  6 23  1  0
 23  2  1  0
 12  7  1  0
 22 16  1  0
  5 24  1  0
  8 25  1  0
  9 26  1  0
 10 27  1  0
 11 28  1  0
 17 29  1  0
 18 30  1  0
 21 31  1  0
 22 32  1  0
M  CHG  2   3  -1  23  -1
M  END
>  <UniqueID>  (48) 
45

>  <SMILES>  (48) 
O=c1[n-]c(O)c(-c2ccccc2S(=O)(=O)c2ccc(Cl)cc2)[n-]1

>  <Energy>  (48) 
70.84282218867212

>  <Genealogy>  (48) 
O=c1[n-]c(O)c(-c2ccccc2S(=O)(=O)c2ccc(Cl)cc2)[n-]1 (protonated)
O=c1[n-]c(O)c(-c2ccccc2S(=O)(=O)c2ccc(Cl)cc2)[n-]1 (3D coordinates assigned)
O=c1[n-]c(O)c(-c2ccccc2S(=O)(=O)c2ccc(Cl)cc2)[n-]1 (optimized conformer: 70.84282218867212 kcal/mol)

>  <smiles>  (48) 
O=c1[nH]c(O)c(-c2ccccc2S(=O)(=O)c2ccc(Cl)cc2)[nH]1

>  <score_type>  (48) 
oracle

>  <origin>  (48) 
adg

>  <m_score__min__energy>  (48) 
-11.23

>  <m_primary>  (48) 
energy

$$$$
48:0
     RDKit          3D

 43 45  0  0  0  0  0  0  0  0999 V2000
   56.2730   29.5180   42.7090 N   0  0  0  0  0  0  0  0  0  0  0  0
   56.8590   30.8150   42.5870 C   0  0  0  0  0  0  0  0  0  0  0  0
   56.8530   31.3850   41.4620 O   0  0  0  0  0  0  0  0  0  0  0  0
   57.4180   31.5280   43.7620 C   0  0  0  0  0  0  0  0  0  0  0  0
   58.0760   32.7560   43.5580 C   0  0  0  0  0  0  0  0  0  0  0  0
   58.6130   33.4650   44.6350 C   0  0  0  0  0  0  0  0  0  0  0  0
   58.5030   32.9560   45.9290 C   0  0  0  0  0  0  0  0  0  0  0  0
   57.8710   31.7290   46.1490 C   0  0  0  0  0  0  0  0  0  0  0  0
   57.3500   30.9910   45.0710 C   0  0  0  0  0  0  0  0  0  0  0  0
   56.7250   29.7180   45.2990 N   0  0  0  0  0  0  0  0  0  0  0  0
   57.3960   28.4640   45.4780 C   0  0  0  0  0  0  0  0  0  0  0  0
   57.5350   27.7000   44.4860 O   0  0  0  0  0  0  0  0  0  0  0  0
   58.0600   28.1000   46.7770 C   0  0  0  0  0  0  0  0  0  0  0  0
   59.1560   29.0830   47.0810 C   0  0  0  0  0  0  0  0  0  0  0  0
   59.2840   29.6290   48.3670 C   0  0  0  0  0  0  0  0  0  0  0  0
   60.3210   30.5210   48.6560 C   0  0  0  0  0  0  0  0  0  0  0  0
   61.2480   30.8860   47.6630 C   0  0  0  0  0  0  0  0  0  0  0  0
   62.3230   31.8040   47.9580 N   0  0  0  0  0  0  0  0  0  0  0  0
   63.3260   31.5950   48.9950 C   0  0  0  0  0  0  0  0  0  0  0  0
   64.1230   32.9110   49.0920 C   0  0  0  0  0  0  0  0  0  0  0  0
   63.7450   33.7560   47.8640 C   0  0  0  0  0  0  0  0  0  0  0  0
   62.5990   33.0240   47.2870 C   0  0  0  0  0  0  0  0  0  0  0  0
   61.9720   33.4180   46.2650 O   0  0  0  0  0  0  0  0  0  0  0  0
   61.1350   30.3090   46.3840 C   0  0  0  0  0  0  0  0  0  0  0  0
   60.0980   29.4160   46.0960 C   0  0  0  0  0  0  0  0  0  0  0  0
   55.9040   29.0350   41.8570 H   0  0  0  0  0  0  0  0  0  0  0  0
   56.0940   29.0830   43.6450 H   0  0  0  0  0  0  0  0  0  0  0  0
   58.1681   33.1613   42.5396 H   0  0  0  0  0  0  0  0  0  0  0  0
   59.1225   34.4245   44.4627 H   0  0  0  0  0  0  0  0  0  0  0  0
   58.9145   33.5215   46.7781 H   0  0  0  0  0  0  0  0  0  0  0  0
   57.7804   31.3375   47.1730 H   0  0  0  0  0  0  0  0  0  0  0  0
   57.3154   28.1213   47.5864 H   0  0  0  0  0  0  0  0  0  0  0  0
   58.4895   27.0906   46.6953 H   0  0  0  0  0  0  0  0  0  0  0  0
   58.5645   29.3538   49.1522 H   0  0  0  0  0  0  0  0  0  0  0  0
   60.4128   30.9410   49.6685 H   0  0  0  0  0  0  0  0  0  0  0  0
   62.8402   31.3714   49.9562 H   0  0  0  0  0  0  0  0  0  0  0  0
   63.9818   30.7454   48.7538 H   0  0  0  0  0  0  0  0  0  0  0  0
   63.8575   33.4465   50.0155 H   0  0  0  0  0  0  0  0  0  0  0  0
   65.2050   32.7143   49.1156 H   0  0  0  0  0  0  0  0  0  0  0  0
   63.4530   34.7741   48.1611 H   0  0  0  0  0  0  0  0  0  0  0  0
   64.5768   33.8809   47.1551 H   0  0  0  0  0  0  0  0  0  0  0  0
   61.8685   30.5627   45.6045 H   0  0  0  0  0  0  0  0  0  0  0  0
   60.0205   28.9725   45.0923 H   0  0  0  0  0  0  0  0  0  0  0  0
  1  2  1  0
  2  3  2  0
  2  4  1  0
  4  5  2  0
  5  6  1  0
  6  7  2  0
  7  8  1  0
  8  9  2  0
  9 10  1  0
 10 11  1  0
 11 12  2  0
 11 13  1  0
 13 14  1  0
 14 15  2  0
 15 16  1  0
 16 17  2  0
 17 18  1  0
 18 19  1  0
 19 20  1  0
 20 21  1  0
 21 22  1  0
 22 23  2  0
 17 24  1  0
 24 25  2  0
  9  4  1  0
 25 14  1  0
 22 18  1  0
  1 26  1  0
  1 27  1  0
  5 28  1  0
  6 29  1  0
  7 30  1  0
  8 31  1  0
 13 32  1  0
 13 33  1  0
 15 34  1  0
 16 35  1  0
 19 36  1  0
 19 37  1  0
 20 38  1  0
 20 39  1  0
 21 40  1  0
 21 41  1  0
 24 42  1  0
 25 43  1  0
M  CHG  1  10  -1
M  END
>  <UniqueID>  (49) 
46

>  <SMILES>  (49) 
NC(=O)c1ccccc1[N-]C(=O)Cc1ccc(N2CCCC2=O)cc1

>  <Energy>  (49) 
62.465368835605425

>  <Genealogy>  (49) 
NC(=O)c1ccccc1[N-]C(=O)Cc1ccc(N2CCCC2=O)cc1 (protonated)
NC(=O)c1ccccc1[N-]C(=O)Cc1ccc(N2CCCC2=O)cc1 (3D coordinates assigned)
NC(=O)c1ccccc1[N-]C(=O)Cc1ccc(N2CCCC2=O)cc1 (nonaromatic ring conformer: 62.465368835605425 kcal/mol)

>  <smiles>  (49) 
NC(=O)c1ccccc1NC(=O)Cc1ccc(N2CCCC2=O)cc1

>  <score_type>  (49) 
oracle

>  <origin>  (49) 
adg

>  <m_score__min__energy>  (49) 
-10.300000000000001

>  <m_primary>  (49) 
energy

$$$$
49:0
     RDKit          3D

 37 38  0  0  0  0  0  0  0  0999 V2000
   56.6610   21.9500   48.7190 C   0  0  0  0  0  0  0  0  0  0  0  0
   57.3740   21.7680   47.4630 N   0  0  0  0  0  0  0  0  0  0  0  0
   57.0060   22.3750   46.2180 C   0  0  0  0  0  0  0  0  0  0  0  0
   56.1760   21.7860   45.4780 O   0  0  0  0  0  0  0  0  0  0  0  0
   57.5470   23.7130   45.7890 C   0  0  0  0  0  0  0  0  0  0  0  0
   57.5980   24.7110   46.9540 C   0  0  0  0  0  0  0  0  0  0  0  0
   57.4170   26.0990   46.4840 N   0  0  0  0  0  0  0  0  0  0  0  0
   56.1910   26.5490   46.0660 C   0  0  0  0  0  0  0  0  0  0  0  0
   55.1820   25.7910   46.0870 O   0  0  0  0  0  0  0  0  0  0  0  0
   56.0460   27.8200   45.6190 N   0  0  0  0  0  0  0  0  0  0  0  0
   57.1040   28.6670   45.5800 C   0  0  0  0  0  0  0  0  0  0  0  0
   56.9850   29.8820   45.1310 N   0  0  0  0  0  0  0  0  0  0  0  0
   57.7760   31.0240   45.5050 C   0  0  0  0  0  0  0  0  0  0  0  0
   57.8150   32.1930   44.7220 C   0  0  0  0  0  0  0  0  0  0  0  0
   58.5710   33.2940   45.1380 C   0  0  0  0  0  0  0  0  0  0  0  0
   59.2760   33.2500   46.3480 C   0  0  0  0  0  0  0  0  0  0  0  0
   60.2380   34.6330   46.8600 S   0  0  0  0  0  0  0  0  0  0  0  0
   59.6990   36.0490   46.0320 N   0  0  0  0  0  0  0  0  0  0  0  0
   61.6890   34.3930   46.5430 O   0  0  0  0  0  0  0  0  0  0  0  0
   60.0950   34.8290   48.3430 O   0  0  0  0  0  0  0  0  0  0  0  0
   59.2180   32.0960   47.1400 C   0  0  0  0  0  0  0  0  0  0  0  0
   58.4600   30.9960   46.7260 C   0  0  0  0  0  0  0  0  0  0  0  0
   58.3210   28.2250   45.9750 N   0  0  0  0  0  0  0  0  0  0  0  0
   58.4860   26.9570   46.4260 C   0  0  0  0  0  0  0  0  0  0  0  0
   59.6350   26.5820   46.7870 O   0  0  0  0  0  0  0  0  0  0  0  0
   57.3484   21.7745   49.5596 H   0  0  0  0  0  0  0  0  0  0  0  0
   56.2700   22.9767   48.7732 H   0  0  0  0  0  0  0  0  0  0  0  0
   55.8258   21.2363   48.7732 H   0  0  0  0  0  0  0  0  0  0  0  0
   58.5645   23.5751   45.3943 H   0  0  0  0  0  0  0  0  0  0  0  0
   56.8748   24.1214   45.0200 H   0  0  0  0  0  0  0  0  0  0  0  0
   56.7977   24.4680   47.6684 H   0  0  0  0  0  0  0  0  0  0  0  0
   58.5856   24.6339   47.4323 H   0  0  0  0  0  0  0  0  0  0  0  0
   57.2492   32.2410   43.7799 H   0  0  0  0  0  0  0  0  0  0  0  0
   58.6122   34.1980   44.5126 H   0  0  0  0  0  0  0  0  0  0  0  0
   59.6080   36.8040   46.7480 H   0  0  0  0  0  0  0  0  0  0  0  0
   59.7703   32.0549   48.0904 H   0  0  0  0  0  0  0  0  0  0  0  0
   58.4009   30.1023   47.3645 H   0  0  0  0  0  0  0  0  0  0  0  0
  1  2  1  0
  2  3  1  0
  3  4  2  0
  3  5  1  0
  5  6  1  0
  6  7  1  0
  7  8  1  0
  8  9  2  0
  8 10  1  0
 10 11  1  0
 11 12  2  3
 12 13  1  0
 13 14  2  0
 14 15  1  0
 15 16  2  0
 16 17  1  0
 17 18  1  0
 17 19  2  0
 17 20  2  0
 16 21  1  0
 21 22  2  0
 11 23  1  0
 23 24  1  0
 24 25  2  0
 24  7  1  0
 22 13  1  0
  1 26  1  0
  1 27  1  0
  1 28  1  0
  5 29  1  0
  5 30  1  0
  6 31  1  0
  6 32  1  0
 14 33  1  0
 15 34  1  0
 18 35  1  0
 21 36  1  0
 22 37  1  0
M  CHG  4   2  -1  10  -1  18  -1  23  -1
M  END
>  <UniqueID>  (50) 
47

>  <SMILES>  (50) 
C[N-]C(=O)CCn1c(=O)[n-]c(=Nc2ccc(S([NH-])(=O)=O)cc2)[n-]c1=O

>  <Energy>  (50) 
42.194686900351165

>  <Genealogy>  (50) 
C[N-]C(=O)CCn1c(=O)[n-]c(=Nc2ccc(S([NH-])(=O)=O)cc2)[n-]c1=O (protonated)
C[N-]C(=O)CCn1c(=O)[n-]c(=Nc2ccc(S([NH-])(=O)=O)cc2)[n-]c1=O (3D coordinates assigned)
C[N-]C(=O)CCn1c(=O)[n-]c(=Nc2ccc(S([NH-])(=O)=O)cc2)[n-]c1=O (optimized conformer: 42.194686900351165 kcal/mol)

>  <smiles>  (50) 
CNC(=O)CCn1c(=O)[nH]c(=Nc2ccc(S(N)(=O)=O)cc2)[nH]c1=O

>  <score_type>  (50) 
oracle

>  <origin>  (50) 
adg

>  <m_score__min__energy>  (50) 
-12.300000000000001

>  <m_primary>  (50) 
energy

$$$$
50:0
     RDKit          3D

 55 59  0  0  0  0  0  0  0  0999 V2000
   56.7630   29.7480   43.2770 O   0  0  0  0  0  0  0  0  0  0  0  0
   57.1070   30.8630   43.7460 C   0  0  0  0  0  0  0  0  0  0  0  0
   57.7170   31.9350   42.9970 C   0  0  0  0  0  0  0  0  0  0  0  0
   57.9270   32.9260   43.8530 C   0  0  0  0  0  0  0  0  0  0  0  0
   57.4460   32.5550   45.2320 C   0  0  2  0  0  0  0  0  0  0  0  0
   58.5740   32.5850   46.2220 C   0  0  0  0  0  0  0  0  0  0  0  0
   58.8430   33.6630   46.8170 O   0  0  0  0  0  0  0  0  0  0  0  0
   59.3740   31.4140   46.4450 N   0  0  0  0  0  0  0  0  0  0  0  0
   60.5310   31.4370   47.2860 C   0  0  0  0  0  0  0  0  0  0  0  0
   60.8620   30.5700   48.3290 C   0  0  0  0  0  0  0  0  0  0  0  0
   60.1080   29.3820   48.7850 C   0  0  0  0  0  0  0  0  0  0  0  0
   59.4100   29.4400   49.8300 O   0  0  0  0  0  0  0  0  0  0  0  0
   60.1920   28.1340   48.0850 N   0  0  0  0  0  0  0  0  0  0  0  0
   59.0870   27.4330   47.4980 C   0  0  0  0  0  0  0  0  0  0  0  0
   58.9180   26.0510   47.6810 C   0  0  0  0  0  0  0  0  0  0  0  0
   57.8420   25.3870   47.0860 C   0  0  0  0  0  0  0  0  0  0  0  0
   56.9180   26.0960   46.2990 C   0  0  0  0  0  0  0  0  0  0  0  0
   55.7740   25.3960   45.6750 C   0  0  0  0  0  0  0  0  0  0  0  0
   54.6250   25.9160   45.7280 O   0  0  0  0  0  0  0  0  0  0  0  0
   55.9490   24.1270   45.0220 N   0  0  0  0  0  0  0  0  0  0  0  0
   54.8650   23.1400   45.0560 C   0  0  0  0  0  0  0  0  0  0  0  0
   55.4420   21.7320   44.8640 C   0  0  0  0  0  0  0  0  0  0  0  0
   56.2700   21.6700   43.7170 O   0  0  0  0  0  0  0  0  0  0  0  0
   57.3940   22.5130   43.8890 C   0  0  0  0  0  0  0  0  0  0  0  0
   56.9620   23.9780   43.9730 C   0  0  0  0  0  0  0  0  0  0  0  0
   57.1140   27.4720   46.0870 C   0  0  0  0  0  0  0  0  0  0  0  0
   58.1960   28.1320   46.6760 C   0  0  0  0  0  0  0  0  0  0  0  0
   62.0080   30.9540   48.8670 O   0  0  0  0  0  0  0  0  0  0  0  0
   62.4370   32.0060   48.2080 C   0  0  0  0  0  0  0  0  0  0  0  0
   63.6030   32.7350   48.4340 C   0  0  0  0  0  0  0  0  0  0  0  0
   63.8570   33.8410   47.6020 C   0  0  0  0  0  0  0  0  0  0  0  0
   62.9490   34.1900   46.5740 C   0  0  0  0  0  0  0  0  0  0  0  0
   61.7790   33.4340   46.3710 C   0  0  0  0  0  0  0  0  0  0  0  0
   61.5620   32.3420   47.2100 C   0  0  0  0  0  0  0  0  0  0  0  0
   56.9540   31.2280   45.0690 O   0  0  0  0  0  0  0  0  0  0  0  0
   57.9605   31.9310   41.9243 H   0  0  0  0  0  0  0  0  0  0  0  0
   58.3899   33.8890   43.5916 H   0  0  0  0  0  0  0  0  0  0  0  0
   56.6872   33.2510   45.6191 H   0  0  0  0  0  0  0  0  0  0  0  0
   59.2620   30.6030   45.7970 H   0  0  0  0  0  0  0  0  0  0  0  0
   59.6361   25.4884   48.2957 H   0  0  0  0  0  0  0  0  0  0  0  0
   57.7175   24.3042   47.2342 H   0  0  0  0  0  0  0  0  0  0  0  0
   54.3505   23.1951   46.0267 H   0  0  0  0  0  0  0  0  0  0  0  0
   54.1512   23.3547   44.2470 H   0  0  0  0  0  0  0  0  0  0  0  0
   56.0359   21.4637   45.7502 H   0  0  0  0  0  0  0  0  0  0  0  0
   54.6070   21.0287   44.7293 H   0  0  0  0  0  0  0  0  0  0  0  0
   57.9146   22.2360   44.8176 H   0  0  0  0  0  0  0  0  0  0  0  0
   58.0640   22.3904   43.0253 H   0  0  0  0  0  0  0  0  0  0  0  0
   57.8337   24.6046   44.2128 H   0  0  0  0  0  0  0  0  0  0  0  0
   56.5401   24.2929   43.0071 H   0  0  0  0  0  0  0  0  0  0  0  0
   56.4111   28.0328   45.4534 H   0  0  0  0  0  0  0  0  0  0  0  0
   58.3479   29.2059   46.4926 H   0  0  0  0  0  0  0  0  0  0  0  0
   64.3016   32.4551   49.2362 H   0  0  0  0  0  0  0  0  0  0  0  0
   64.7681   34.4389   47.7517 H   0  0  0  0  0  0  0  0  0  0  0  0
   63.1587   35.0568   45.9301 H   0  0  0  0  0  0  0  0  0  0  0  0
   61.0619   33.6955   45.5789 H   0  0  0  0  0  0  0  0  0  0  0  0
  1  2  2  0
  2  3  1  0
  3  4  2  0
  4  5  1  0
  5  6  1  0
  6  7  2  0
  6  8  1  0
  8  9  1  0
  9 10  2  0
 10 11  1  0
 11 12  2  0
 11 13  1  0
 13 14  1  0
 14 15  2  0
 15 16  1  0
 16 17  2  0
 17 18  1  0
 18 19  2  0
 18 20  1  0
 20 21  1  0
 21 22  1  0
 22 23  1  0
 23 24  1  0
 24 25  1  0
 17 26  1  0
 26 27  2  0
 10 28  1  0
 28 29  1  0
 29 30  2  0
 30 31  1  0
 31 32  2  0
 32 33  1  0
 33 34  2  0
  5 35  1  0
 35  2  1  0
 34  9  1  0
 27 14  1  0
 34 29  1  0
 25 20  1  0
  3 36  1  0
  4 37  1  0
  5 38  1  1
  8 39  1  0
 15 40  1  0
 16 41  1  0
 21 42  1  0
 21 43  1  0
 22 44  1  0
 22 45  1  0
 24 46  1  0
 24 47  1  0
 25 48  1  0
 25 49  1  0
 26 50  1  0
 27 51  1  0
 30 52  1  0
 31 53  1  0
 32 54  1  0
 33 55  1  0
M  CHG  1  13  -1
M  END
>  <UniqueID>  (51) 
48

>  <SMILES>  (51) 
O=C1C=C[C@H](C(=O)Nc2c(C(=O)[N-]c3ccc(C(=O)N4CCOCC4)cc3)oc3ccccc23)O1

>  <Energy>  (51) 
128.4687020519797

>  <Genealogy>  (51) 
O=C1C=CC(C(=O)Nc2c(C(=O)[N-]c3ccc(C(=O)N4CCOCC4)cc3)oc3ccccc23)O1 (protonated)
O=C1C=C[C@H](C(=O)Nc2c(C(=O)[N-]c3ccc(C(=O)N4CCOCC4)cc3)oc3ccccc23)O1 (chirality)
O=C1C=C[C@H](C(=O)Nc2c(C(=O)[N-]c3ccc(C(=O)N4CCOCC4)cc3)oc3ccccc23)O1 (3D coordinates assigned)
O=C1C=C[C@H](C(=O)Nc2c(C(=O)[N-]c3ccc(C(=O)N4CCOCC4)cc3)oc3ccccc23)O1 (nonaromatic ring conformer: 128.4687020519797 kcal/mol)

>  <smiles>  (51) 
O=C1C=CC(C(=O)Nc2c(C(=O)Nc3ccc(C(=O)N4CCOCC4)cc3)oc3ccccc23)O1

>  <score_type>  (51) 
oracle

>  <origin>  (51) 
adg

>  <m_score__min__energy>  (51) 
-11.109999999999999

>  <m_primary>  (51) 
energy

$$$$
51:0
     RDKit          3D

 40 41  0  0  0  0  0  0  0  0999 V2000
   55.1390   29.3740   44.8410 O   0  0  0  0  0  0  0  0  0  0  0  0
   56.3600   29.0720   44.9020 C   0  0  0  0  0  0  0  0  0  0  0  0
   57.3980   30.0950   44.5670 C   0  0  0  0  0  0  0  0  0  0  0  0
   56.9140   31.4290   44.9060 N   0  0  0  0  0  0  0  0  0  0  0  0
   57.6140   32.6300   44.5670 C   0  0  0  0  0  0  0  0  0  0  0  0
   58.4480   32.6320   43.6210 O   0  0  0  0  0  0  0  0  0  0  0  0
   57.3440   33.8700   45.3150 C   0  0  0  0  0  0  0  0  0  0  0  0
   56.6410   34.7700   44.7840 O   0  0  0  0  0  0  0  0  0  0  0  0
   57.9020   34.1040   46.6160 N   0  0  0  0  0  0  0  0  0  0  0  0
   59.2670   33.8730   46.9910 C   0  0  0  0  0  0  0  0  0  0  0  0
   60.2750   34.0340   46.0320 C   0  0  0  0  0  0  0  0  0  0  0  0
   61.6160   33.8290   46.3750 C   0  0  0  0  0  0  0  0  0  0  0  0
   61.9590   33.4810   47.6850 C   0  0  0  0  0  0  0  0  0  0  0  0
   63.7880   33.2000   48.1550 Br  0  0  0  0  0  0  0  0  0  0  0  0
   60.9620   33.3470   48.6550 C   0  0  0  0  0  0  0  0  0  0  0  0
   59.6200   33.5520   48.3130 C   0  0  0  0  0  0  0  0  0  0  0  0
   56.7630   27.7430   45.2480 N   0  0  0  0  0  0  0  0  0  0  0  0
   57.5640   27.4320   46.4270 C   0  0  0  0  0  0  0  0  0  0  0  0
   57.1780   26.0580   46.9780 C   0  0  0  0  0  0  0  0  0  0  0  0
   55.9380   25.5810   46.3640 N   0  0  0  0  0  0  0  0  0  0  0  0
   55.7770   24.5060   45.6420 C   0  0  0  0  0  0  0  0  0  0  0  0
   54.9550   23.4330   46.0430 C   0  0  0  0  0  0  0  0  0  0  0  0
   54.8290   22.3140   45.2150 C   0  0  0  0  0  0  0  0  0  0  0  0
   55.4940   22.2620   44.0310 N   0  0  0  0  0  0  0  0  0  0  0  0
   56.2910   23.2820   43.6170 C   0  0  0  0  0  0  0  0  0  0  0  0
   56.4450   24.4190   44.4140 C   0  0  0  0  0  0  0  0  0  0  0  0
   58.3143   29.8843   45.1380 H   0  0  0  0  0  0  0  0  0  0  0  0
   57.6112   30.0523   43.4887 H   0  0  0  0  0  0  0  0  0  0  0  0
   60.0111   34.3231   45.0040 H   0  0  0  0  0  0  0  0  0  0  0  0
   62.4013   33.9418   45.6131 H   0  0  0  0  0  0  0  0  0  0  0  0
   61.2317   33.0804   49.6875 H   0  0  0  0  0  0  0  0  0  0  0  0
   58.8387   33.4615   49.0820 H   0  0  0  0  0  0  0  0  0  0  0  0
   58.6291   27.4276   46.1523 H   0  0  0  0  0  0  0  0  0  0  0  0
   57.3794   28.1939   47.1986 H   0  0  0  0  0  0  0  0  0  0  0  0
   57.9856   25.3430   46.7620 H   0  0  0  0  0  0  0  0  0  0  0  0
   57.0231   26.1445   48.0636 H   0  0  0  0  0  0  0  0  0  0  0  0
   54.4164   23.4762   47.0011 H   0  0  0  0  0  0  0  0  0  0  0  0
   54.1899   21.4732   45.5226 H   0  0  0  0  0  0  0  0  0  0  0  0
   56.8157   23.2122   42.6527 H   0  0  0  0  0  0  0  0  0  0  0  0
   57.0897   25.2444   44.0777 H   0  0  0  0  0  0  0  0  0  0  0  0
  1  2  2  0
  2  3  1  0
  3  4  1  0
  4  5  1  0
  5  6  2  0
  5  7  1  0
  7  8  2  0
  7  9  1  0
  9 10  1  0
 10 11  2  0
 11 12  1  0
 12 13  2  0
 13 14  1  0
 13 15  1  0
 15 16  2  0
  2 17  1  0
 17 18  1  0
 18 19  1  0
 19 20  1  0
 20 21  2  3
 21 22  1  0
 22 23  2  0
 23 24  1  0
 24 25  1  0
 25 26  2  0
 16 10  1  0
 26 21  1  0
  3 27  1  0
  3 28  1  0
 11 29  1  0
 12 30  1  0
 15 31  1  0
 16 32  1  0
 18 33  1  0
 18 34  1  0
 19 35  1  0
 19 36  1  0
 22 37  1  0
 23 38  1  0
 25 39  1  0
 26 40  1  0
M  CHG  4   4  -1   9  -1  17  -1  24  -1
M  END
>  <UniqueID>  (52) 
49

>  <SMILES>  (52) 
O=C(C[N-]C(=O)C(=O)[N-]c1ccc(Br)cc1)[N-]CCN=c1cc[n-]cc1

>  <Energy>  (52) 
38.73867334230478

>  <Genealogy>  (52) 
O=C(C[N-]C(=O)C(=O)[N-]c1ccc(Br)cc1)[N-]CCN=c1cc[n-]cc1 (protonated)
O=C(C[N-]C(=O)C(=O)[N-]c1ccc(Br)cc1)[N-]CCN=c1cc[n-]cc1 (3D coordinates assigned)
O=C(C[N-]C(=O)C(=O)[N-]c1ccc(Br)cc1)[N-]CCN=c1cc[n-]cc1 (optimized conformer: 38.73867334230478 kcal/mol)

>  <smiles>  (52) 
O=C(CNC(=O)C(=O)Nc1ccc(Br)cc1)NCCN=c1cc[nH]cc1

>  <score_type>  (52) 
oracle

>  <origin>  (52) 
adg

>  <m_score__min__energy>  (52) 
-14.35

>  <m_primary>  (52) 
energy

$$$$
52:0
     RDKit          3D

 57 60  0  0  0  0  0  0  0  0999 V2000
   54.4839   29.9752   43.9372 H   0  0  0  0  0  0  0  0  0  0  0  0
   55.5630   30.0640   44.1310 C   0  0  0  0  0  0  0  0  0  0  0  0
   56.0720   31.2290   44.6050 N   0  0  0  0  0  0  0  0  0  0  0  0
   57.3990   31.3900   44.8670 C   0  0  0  0  0  0  0  0  0  0  0  0
   57.9050   32.6880   45.3950 C   0  0  0  0  0  0  0  0  0  0  0  0
   57.4150   33.7610   44.9430 O   0  0  0  0  0  0  0  0  0  0  0  0
   58.9480   32.7680   46.4020 N   0  0  1  0  0  0  0  0  0  0  0  0
   59.3620   31.8050   46.4810 H   0  0  0  0  0  0  0  0  0  0  0  0
   60.0650   33.6710   45.9910 C   0  0  0  0  0  0  0  0  0  0  0  0
   59.7896   34.1488   45.0392 H   0  0  0  0  0  0  0  0  0  0  0  0
   60.9644   33.0431   45.9089 H   0  0  0  0  0  0  0  0  0  0  0  0
   60.3910   34.7790   47.0110 C   0  0  0  0  0  0  0  0  0  0  0  0
   59.6025   35.5441   46.9575 H   0  0  0  0  0  0  0  0  0  0  0  0
   61.3808   35.1798   46.7472 H   0  0  0  0  0  0  0  0  0  0  0  0
   60.4810   34.2700   48.4700 C   0  0  2  0  0  0  0  0  0  0  0  0
   60.1892   35.1168   49.1085 H   0  0  0  0  0  0  0  0  0  0  0  0
   61.9060   33.8890   48.8450 C   0  0  0  0  0  0  0  0  0  0  0  0
   62.8030   33.3730   47.8890 C   0  0  0  0  0  0  0  0  0  0  0  0
   62.4651   33.2134   46.8544 H   0  0  0  0  0  0  0  0  0  0  0  0
   64.1190   33.0620   48.2440 C   0  0  0  0  0  0  0  0  0  0  0  0
   64.8094   32.6554   47.4903 H   0  0  0  0  0  0  0  0  0  0  0  0
   64.5600   33.2670   49.5570 C   0  0  0  0  0  0  0  0  0  0  0  0
   65.9150   32.9490   49.9210 C   0  0  0  0  0  0  0  0  0  0  0  0
   67.0050   32.6930   50.2130 N   0  0  0  0  0  0  0  0  0  0  0  0
   63.6800   33.7840   50.5130 C   0  0  0  0  0  0  0  0  0  0  0  0
   64.0239   33.9449   51.5454 H   0  0  0  0  0  0  0  0  0  0  0  0
   62.3630   34.0970   50.1590 C   0  0  0  0  0  0  0  0  0  0  0  0
   61.6788   34.5095   50.9151 H   0  0  0  0  0  0  0  0  0  0  0  0
   59.4670   33.1440   48.7910 C   0  0  0  0  0  0  0  0  0  0  0  0
   59.0064   33.3463   49.7692 H   0  0  0  0  0  0  0  0  0  0  0  0
   60.0079   32.1862   48.8027 H   0  0  0  0  0  0  0  0  0  0  0  0
   58.3660   33.0600   47.7310 C   0  0  0  0  0  0  0  0  0  0  0  0
   57.8301   34.0197   47.6887 H   0  0  0  0  0  0  0  0  0  0  0  0
   57.6723   32.2503   48.0016 H   0  0  0  0  0  0  0  0  0  0  0  0
   58.2770   30.3160   44.6330 C   0  0  0  0  0  0  0  0  0  0  0  0
   59.3504   30.4253   44.8470 H   0  0  0  0  0  0  0  0  0  0  0  0
   57.7790   29.1000   44.1240 C   0  0  0  0  0  0  0  0  0  0  0  0
   58.5400   28.0630   43.9000 N   0  0  0  0  0  0  0  0  0  0  0  0
   58.4000   26.7430   44.4510 C   0  0  0  0  0  0  0  0  0  0  0  0
   57.7540   25.7330   43.7170 C   0  0  0  0  0  0  0  0  0  0  0  0
   57.3907   25.9432   42.7002 H   0  0  0  0  0  0  0  0  0  0  0  0
   57.5710   24.4650   44.2710 C   0  0  0  0  0  0  0  0  0  0  0  0
   57.0806   23.6743   43.6843 H   0  0  0  0  0  0  0  0  0  0  0  0
   58.0100   24.2000   45.5690 C   0  0  0  0  0  0  0  0  0  0  0  0
   57.8706   23.1983   46.0017 H   0  0  0  0  0  0  0  0  0  0  0  0
   58.6260   25.2040   46.3200 C   0  0  0  0  0  0  0  0  0  0  0  0
   58.9628   24.9912   47.3453 H   0  0  0  0  0  0  0  0  0  0  0  0
   58.8180   26.4850   45.7730 C   0  0  0  0  0  0  0  0  0  0  0  0
   59.5930   27.7590   46.7260 S   0  0  0  0  0  0  0  0  0  0  0  0
   58.5370   28.6970   47.2430 O   0  0  0  0  0  0  0  0  0  0  0  0
   60.3150   27.1340   47.8860 O   0  0  0  0  0  0  0  0  0  0  0  0
   60.7640   28.7080   45.7750 C   0  0  0  0  0  0  0  0  0  0  0  0
   61.4349   29.2517   46.4564 H   0  0  0  0  0  0  0  0  0  0  0  0
   61.3554   28.0313   45.1408 H   0  0  0  0  0  0  0  0  0  0  0  0
   60.2245   29.4268   45.1408 H   0  0  0  0  0  0  0  0  0  0  0  0
   56.4050   28.9790   43.8890 C   0  0  0  0  0  0  0  0  0  0  0  0
   55.9904   28.0314   43.5147 H   0  0  0  0  0  0  0  0  0  0  0  0
  1  2  1  0
  2  3  1  0
  3  4  1  0
  4  5  1  0
  5  6  2  0
  5  7  1  0
  7  8  1  6
  7  9  1  0
  9 10  1  0
  9 11  1  0
  9 12  1  0
 12 13  1  0
 12 14  1  0
 12 15  1  0
 15 16  1  6
 15 17  1  0
 17 18  2  0
 18 19  1  0
 18 20  1  0
 20 21  1  0
 20 22  2  0
 22 23  1  0
 23 24  3  0
 22 25  1  0
 25 26  1  0
 25 27  2  0
 27 28  1  0
 15 29  1  0
 29 30  1  0
 29 31  1  0
 29 32  1  0
 32 33  1  0
 32 34  1  0
  4 35  2  0
 35 36  1  0
 35 37  1  0
 37 38  2  0
 38 39  1  0
 39 40  2  0
 40 41  1  0
 40 42  1  0
 42 43  1  0
 42 44  2  0
 44 45  1  0
 44 46  1  0
 46 47  1  0
 46 48  2  0
 48 49  1  0
 49 50  2  0
 49 51  2  0
 49 52  1  0
 52 53  1  0
 52 54  1  0
 52 55  1  0
 37 56  1  0
 56 57  1  0
 56  2  2  0
 32  7  1  0
 48 39  1  0
 27 17  1  0
M  CHG  2   3  -1   7   1
M  END
>  <UniqueID>  (53) 
50

>  <SMILES>  (53) 
CS(=O)(=O)c1ccccc1/N=c1/cc[n-]c(C(=O)[NH+]2CCC(c3ccc(C#N)cc3)CC2)c1

>  <Energy>  (53) 
83.17922269505458

>  <Genealogy>  (53) 
CS(=O)(=O)c1ccccc1N=c1cc[n-]c(C(=O)[NH+]2CCC(c3ccc(C#N)cc3)CC2)c1 (protonated)
CS(=O)(=O)c1ccccc1/N=c1/cc[n-]c(C(=O)[NH+]2CCC(c3ccc(C#N)cc3)CC2)c1 (cis-trans isomerization)
CS(=O)(=O)c1ccccc1/N=c1/cc[n-]c(C(=O)[NH+]2CCC(c3ccc(C#N)cc3)CC2)c1 (3D coordinates assigned)
CS(=O)(=O)c1ccccc1/N=c1/cc[n-]c(C(=O)[NH+]2CCC(c3ccc(C#N)cc3)CC2)c1 (nonaromatic ring conformer: 83.17922269505458 kcal/mol)

>  <smiles>  (53) 
CS(=O)(=O)c1ccccc1N=c1cc[nH]c(C(=O)N2CCC(c3ccc(C#N)cc3)CC2)c1

>  <score_type>  (53) 
oracle

>  <origin>  (53) 
adg

>  <m_score__min__energy>  (53) 
-10.529999999999999

>  <m_primary>  (53) 
energy

$$$$
53:0
     RDKit          3D

 40 41  0  0  0  0  0  0  0  0999 V2000
   58.0990   32.3910   41.6380 C   0  0  0  0  0  0  0  0  0  0  0  0
   57.4010   31.6050   42.7400 C   0  0  0  0  0  0  0  0  0  0  0  0
   57.8480   32.2260   44.3550 S   0  0  0  0  0  0  0  0  0  0  0  0
   56.6280   32.7580   45.0500 O   0  0  0  0  0  0  0  0  0  0  0  0
   58.8160   33.3650   44.1880 O   0  0  0  0  0  0  0  0  0  0  0  0
   58.6580   30.9250   45.2540 C   0  0  0  0  0  0  0  0  0  0  0  0
   58.2480   29.6180   44.9430 C   0  0  0  0  0  0  0  0  0  0  0  0
   58.7920   28.5080   45.5980 C   0  0  0  0  0  0  0  0  0  0  0  0
   58.3810   27.1390   45.2340 C   0  0  0  0  0  0  0  0  0  0  0  0
   57.8630   26.9370   44.1040 O   0  0  0  0  0  0  0  0  0  0  0  0
   58.5090   26.0360   46.1430 N   0  0  0  0  0  0  0  0  0  0  0  0
   57.5110   25.6080   47.1210 C   0  0  0  0  0  0  0  0  0  0  0  0
   56.1710   25.4480   46.4760 C   0  0  0  0  0  0  0  0  0  0  0  0
   55.3860   26.4830   46.1190 N   0  0  0  0  0  0  0  0  0  0  0  0
   54.2770   25.9630   45.6230 N   0  0  0  0  0  0  0  0  0  0  0  0
   54.4250   24.6310   45.6970 C   0  0  0  0  0  0  0  0  0  0  0  0
   53.5460   23.8160   45.3120 O   0  0  0  0  0  0  0  0  0  0  0  0
   55.6010   24.2510   46.2280 N   0  0  0  0  0  0  0  0  0  0  0  0
   59.7210   28.7060   46.6210 C   0  0  0  0  0  0  0  0  0  0  0  0
   60.1350   29.9930   46.9550 C   0  0  0  0  0  0  0  0  0  0  0  0
   59.6330   31.1190   46.2750 C   0  0  0  0  0  0  0  0  0  0  0  0
   60.1450   32.4710   46.7190 C   0  0  0  0  0  0  0  0  0  0  0  0
   58.9470   33.3410   47.7270 S   0  0  0  0  0  0  0  0  0  0  0  0
   57.8910   34.2900   46.7370 N   0  0  0  0  0  0  0  0  0  0  0  0
   58.1300   32.3320   48.4830 O   0  0  0  0  0  0  0  0  0  0  0  0
   59.6480   34.2310   48.7120 O   0  0  0  0  0  0  0  0  0  0  0  0
   58.7653   33.1413   42.0885 H   0  0  0  0  0  0  0  0  0  0  0  0
   58.6895   31.7033   41.0148 H   0  0  0  0  0  0  0  0  0  0  0  0
   57.3463   32.8961   41.0148 H   0  0  0  0  0  0  0  0  0  0  0  0
   56.3123   31.6932   42.6099 H   0  0  0  0  0  0  0  0  0  0  0  0
   57.7146   30.5529   42.6711 H   0  0  0  0  0  0  0  0  0  0  0  0
   57.4828   29.4640   44.1679 H   0  0  0  0  0  0  0  0  0  0  0  0
   57.8201   24.6453   47.5543 H   0  0  0  0  0  0  0  0  0  0  0  0
   57.4354   26.3743   47.9065 H   0  0  0  0  0  0  0  0  0  0  0  0
   60.1279   27.8414   47.1658 H   0  0  0  0  0  0  0  0  0  0  0  0
   60.8670   30.1323   47.7642 H   0  0  0  0  0  0  0  0  0  0  0  0
   61.0653   32.3280   47.3043 H   0  0  0  0  0  0  0  0  0  0  0  0
   60.3366   33.0750   45.8198 H   0  0  0  0  0  0  0  0  0  0  0  0
   58.1570   34.1050   45.7440 H   0  0  0  0  0  0  0  0  0  0  0  0
   56.9260   33.9140   46.8620 H   0  0  0  0  0  0  0  0  0  0  0  0
  1  2  1  0
  2  3  1  0
  3  4  2  0
  3  5  2  0
  3  6  1  0
  6  7  2  0
  7  8  1  0
  8  9  1  0
  9 10  2  0
  9 11  1  0
 11 12  1  0
 12 13  1  0
 13 14  2  0
 14 15  1  0
 15 16  1  0
 16 17  2  0
 16 18  1  0
  8 19  2  0
 19 20  1  0
 20 21  2  0
 21 22  1  0
 22 23  1  0
 23 24  1  0
 23 25  2  0
 23 26  2  0
 21  6  1  0
 18 13  1  0
  1 27  1  0
  1 28  1  0
  1 29  1  0
  2 30  1  0
  2 31  1  0
  7 32  1  0
 12 33  1  0
 12 34  1  0
 19 35  1  0
 20 36  1  0
 22 37  1  0
 22 38  1  0
 24 39  1  0
 24 40  1  0
M  CHG  3  11  -1  15  -1  18  -1
M  END
>  <UniqueID>  (54) 
51

>  <SMILES>  (54) 
CCS(=O)(=O)c1cc(C(=O)[N-]Cc2n[n-]c(=O)[n-]2)ccc1CS(N)(=O)=O

>  <Energy>  (54) 
68.39184110828329

>  <Genealogy>  (54) 
CCS(=O)(=O)c1cc(C(=O)[N-]Cc2n[n-]c(=O)[n-]2)ccc1CS(N)(=O)=O (protonated)
CCS(=O)(=O)c1cc(C(=O)[N-]Cc2n[n-]c(=O)[n-]2)ccc1CS(N)(=O)=O (3D coordinates assigned)
CCS(=O)(=O)c1cc(C(=O)[N-]Cc2n[n-]c(=O)[n-]2)ccc1CS(N)(=O)=O (optimized conformer: 68.39184110828329 kcal/mol)

>  <smiles>  (54) 
CCS(=O)(=O)c1cc(C(=O)NCc2n[nH]c(=O)[nH]2)ccc1CS(N)(=O)=O

>  <score_type>  (54) 
oracle

>  <origin>  (54) 
adg

>  <m_score__min__energy>  (54) 
-13.800000000000001

>  <m_primary>  (54) 
energy

$$$$
54:0
     RDKit          3D

 26 27  0  0  0  0  0  0  0  0999 V2000
   55.5130   29.0780   45.1860 O   0  0  0  0  0  0  0  0  0  0  0  0
   56.6770   28.6280   44.9990 C   0  0  0  0  0  0  0  0  0  0  0  0
   57.5920   29.3360   44.0320 C   0  0  0  0  0  0  0  0  0  0  0  0
   57.7720   30.7880   44.4080 C   0  0  0  0  0  0  0  0  0  0  0  0
   58.0310   31.1420   45.7400 C   0  0  0  0  0  0  0  0  0  0  0  0
   58.1640   32.4480   46.0850 N   0  0  0  0  0  0  0  0  0  0  0  0
   58.0410   33.4320   45.1580 C   0  0  0  0  0  0  0  0  0  0  0  0
   58.1690   34.6360   45.4980 O   0  0  0  0  0  0  0  0  0  0  0  0
   57.7760   33.1170   43.8640 N   0  0  0  0  0  0  0  0  0  0  0  0
   57.6340   31.8260   43.4690 C   0  0  0  0  0  0  0  0  0  0  0  0
   57.3780   31.5720   42.2620 O   0  0  0  0  0  0  0  0  0  0  0  0
   57.0950   27.3760   45.6820 C   0  0  0  0  0  0  0  0  0  0  0  0
   58.4600   27.0910   45.8670 C   0  0  0  0  0  0  0  0  0  0  0  0
   58.8620   25.9110   46.4970 C   0  0  0  0  0  0  0  0  0  0  0  0
   60.2150   25.6430   46.6700 O   0  0  0  0  0  0  0  0  0  0  0  0
   57.9080   24.9990   46.9480 C   0  0  0  0  0  0  0  0  0  0  0  0
   56.5470   25.2580   46.7740 C   0  0  0  0  0  0  0  0  0  0  0  0
   55.6170   24.3280   47.2350 O   0  0  0  0  0  0  0  0  0  0  0  0
   56.1350   26.4460   46.1410 C   0  0  0  0  0  0  0  0  0  0  0  0
   54.7750   26.7020   45.9870 O   0  0  0  0  0  0  0  0  0  0  0  0
   58.5737   28.8398   44.0392 H   0  0  0  0  0  0  0  0  0  0  0  0
   57.1398   29.2907   43.0303 H   0  0  0  0  0  0  0  0  0  0  0  0
   58.1266   30.3594   46.5071 H   0  0  0  0  0  0  0  0  0  0  0  0
   59.2183   27.8044   45.5120 H   0  0  0  0  0  0  0  0  0  0  0  0
   58.2294   24.0709   47.4433 H   0  0  0  0  0  0  0  0  0  0  0  0
   54.6180   24.4790   47.1570 H   0  0  0  0  0  0  0  0  0  0  0  0
  1  2  2  0
  2  3  1  0
  3  4  1  0
  4  5  2  0
  5  6  1  0
  6  7  1  0
  7  8  2  0
  7  9  1  0
  9 10  1  0
 10 11  2  0
  2 12  1  0
 12 13  2  0
 13 14  1  0
 14 15  1  0
 14 16  2  0
 16 17  1  0
 17 18  1  0
 17 19  2  0
 19 20  1  0
 10  4  1  0
 19 12  1  0
  3 21  1  0
  3 22  1  0
  5 23  1  0
 13 24  1  0
 16 25  1  0
 18 26  1  0
M  CHG  4   6  -1   9  -1  15  -1  20  -1
M  END
>  <UniqueID>  (55) 
52

>  <SMILES>  (55) 
O=C(Cc1c[n-]c(=O)[n-]c1=O)c1cc([O-])cc(O)c1[O-]

>  <Energy>  (55) 
33.06472257271872

>  <Genealogy>  (55) 
O=C(Cc1c[n-]c(=O)[n-]c1=O)c1cc([O-])cc(O)c1[O-] (protonated)
O=C(Cc1c[n-]c(=O)[n-]c1=O)c1cc([O-])cc(O)c1[O-] (3D coordinates assigned)
O=C(Cc1c[n-]c(=O)[n-]c1=O)c1cc([O-])cc(O)c1[O-] (optimized conformer: 33.06472257271872 kcal/mol)

>  <smiles>  (55) 
O=C(Cc1c[nH]c(=O)[nH]c1=O)c1cc(O)cc(O)c1O

>  <score_type>  (55) 
oracle

>  <origin>  (55) 
adg

>  <m_score__min__energy>  (55) 
-14.279999999999999

>  <m_primary>  (55) 
energy

$$$$
55:0
     RDKit          3D

 33 34  0  0  0  0  0  0  0  0999 V2000
   55.4230   29.6430   44.7990 O   0  0  0  0  0  0  0  0  0  0  0  0
   56.4740   29.8760   44.1470 C   0  0  0  0  0  0  0  0  0  0  0  0
   57.0320   28.8000   43.3020 C   0  0  0  0  0  0  0  0  0  0  0  0
   57.9590   27.9120   43.6960 C   0  0  0  0  0  0  0  0  0  0  0  0
   58.4730   27.7820   45.0810 C   0  0  0  0  0  0  0  0  0  0  0  0
   59.6310   28.4910   45.4560 C   0  0  0  0  0  0  0  0  0  0  0  0
   60.0970   28.4480   46.7700 C   0  0  0  0  0  0  0  0  0  0  0  0
   59.4040   27.7180   47.7330 C   0  0  0  0  0  0  0  0  0  0  0  0
   58.2420   27.0260   47.3850 C   0  0  0  0  0  0  0  0  0  0  0  0
   57.7640   27.0420   46.0620 C   0  0  0  0  0  0  0  0  0  0  0  0
   56.5810   26.2850   45.7390 N   0  0  0  0  0  0  0  0  0  0  0  0
   55.4470   26.7110   46.0380 O   0  0  0  0  0  0  0  0  0  0  0  0
   56.6770   25.1610   44.9500 O   0  0  0  0  0  0  0  0  0  0  0  0
   57.0700   31.2230   44.2060 C   0  0  0  0  0  0  0  0  0  0  0  0
   57.3880   31.8220   43.1440 O   0  0  0  0  0  0  0  0  0  0  0  0
   57.3160   31.8250   45.4840 N   0  0  0  0  0  0  0  0  0  0  0  0
   58.2370   32.8910   45.7610 C   0  0  0  0  0  0  0  0  0  0  0  0
   58.3380   34.0160   44.9210 C   0  0  0  0  0  0  0  0  0  0  0  0
   59.2290   35.0480   45.2280 C   0  0  0  0  0  0  0  0  0  0  0  0
   60.0170   34.9750   46.3780 C   0  0  0  0  0  0  0  0  0  0  0  0
   59.9070   33.8730   47.2300 C   0  0  0  0  0  0  0  0  0  0  0  0
   59.0160   32.8370   46.9300 C   0  0  0  0  0  0  0  0  0  0  0  0
   58.9040   31.4630   48.0230 Cl  0  0  0  0  0  0  0  0  0  0  0  0
   56.6591   28.7202   42.2702 H   0  0  0  0  0  0  0  0  0  0  0  0
   58.3674   27.2306   42.9352 H   0  0  0  0  0  0  0  0  0  0  0  0
   60.1732   29.0845   44.7051 H   0  0  0  0  0  0  0  0  0  0  0  0
   61.0128   28.9912   47.0461 H   0  0  0  0  0  0  0  0  0  0  0  0
   59.7726   27.6866   48.7689 H   0  0  0  0  0  0  0  0  0  0  0  0
   57.6942   26.4619   48.1542 H   0  0  0  0  0  0  0  0  0  0  0  0
   57.7126   34.0832   44.0186 H   0  0  0  0  0  0  0  0  0  0  0  0
   59.3096   35.9197   44.5620 H   0  0  0  0  0  0  0  0  0  0  0  0
   60.7239   35.7843   46.6132 H   0  0  0  0  0  0  0  0  0  0  0  0
   60.5231   33.8199   48.1397 H   0  0  0  0  0  0  0  0  0  0  0  0
  1  2  2  0
  2  3  1  0
  3  4  2  3
  4  5  1  0
  5  6  2  0
  6  7  1  0
  7  8  2  0
  8  9  1  0
  9 10  2  0
 10 11  1  0
 11 12  2  0
 11 13  1  0
  2 14  1  0
 14 15  2  0
 14 16  1  0
 16 17  1  0
 17 18  2  0
 18 19  1  0
 19 20  2  0
 20 21  1  0
 21 22  2  0
 22 23  1  0
 10  5  1  0
 22 17  1  0
  3 24  1  0
  4 25  1  0
  6 26  1  0
  7 27  1  0
  8 28  1  0
  9 29  1  0
 18 30  1  0
 19 31  1  0
 20 32  1  0
 21 33  1  0
M  CHG  3  11   1  13  -1  16  -1
M  END
>  <UniqueID>  (56) 
53

>  <SMILES>  (56) 
O=C(C=Cc1ccccc1[N+](=O)[O-])C(=O)[N-]c1ccccc1Cl

>  <Energy>  (56) 
51.28127896961427

>  <Genealogy>  (56) 
O=C(C=Cc1ccccc1[N+](=O)[O-])C(=O)[N-]c1ccccc1Cl (protonated)
O=C(C=Cc1ccccc1[N+](=O)[O-])C(=O)[N-]c1ccccc1Cl (3D coordinates assigned)
O=C(C=Cc1ccccc1[N+](=O)[O-])C(=O)[N-]c1ccccc1Cl (optimized conformer: 51.28127896961427 kcal/mol)

>  <smiles>  (56) 
O=C(C=Cc1ccccc1[N+](=O)[O-])C(=O)Nc1ccccc1Cl

>  <score_type>  (56) 
oracle

>  <origin>  (56) 
adg

>  <m_score__min__energy>  (56) 
-10.07

>  <m_primary>  (56) 
energy

$$$$
56:0
     RDKit          3D

 54 56  0  0  0  0  0  0  0  0999 V2000
   58.1210   27.0300   42.7430 C   0  0  0  0  0  0  0  0  0  0  0  0
   58.3620   28.0990   43.8060 C   0  0  0  0  0  0  0  0  0  0  0  0
   57.2070   28.2160   44.7090 N   0  0  0  0  0  0  0  0  0  0  0  0
   57.0350   27.2110   45.7710 C   0  0  0  0  0  0  0  0  0  0  0  0
   58.3420   26.8270   46.4010 C   0  0  0  0  0  0  0  0  0  0  0  0
   58.9850   25.8220   45.9870 O   0  0  0  0  0  0  0  0  0  0  0  0
   58.8250   27.5960   47.5090 N   0  0  0  0  0  0  0  0  0  0  0  0
   59.1530   28.9930   47.5040 C   0  0  0  0  0  0  0  0  0  0  0  0
   58.8410   29.8390   48.5840 C   0  0  0  0  0  0  0  0  0  0  0  0
   59.2000   31.1910   48.5470 C   0  0  0  0  0  0  0  0  0  0  0  0
   59.8900   31.7070   47.4420 C   0  0  0  0  0  0  0  0  0  0  0  0
   60.3540   33.4050   47.3860 S   0  0  0  0  0  0  0  0  0  0  0  0
   59.2300   34.2620   47.9030 O   0  0  0  0  0  0  0  0  0  0  0  0
   60.6410   33.7780   45.9580 O   0  0  0  0  0  0  0  0  0  0  0  0
   61.7780   33.6550   48.3650 N   0  0  0  0  0  0  0  0  0  0  0  0
   62.8450   32.7300   47.9460 C   0  0  0  0  0  0  0  0  0  0  0  0
   64.1720   33.0940   48.6400 C   0  0  0  0  0  0  0  0  0  0  0  0
   63.9550   33.8420   49.9670 C   0  0  0  0  0  0  0  0  0  0  0  0
   62.7000   33.3390   50.6840 C   0  0  0  0  0  0  0  0  0  0  0  0
   61.4440   33.4650   49.7920 C   0  0  0  0  0  0  0  0  0  0  0  0
   60.2190   30.8610   46.3750 C   0  0  0  0  0  0  0  0  0  0  0  0
   59.8610   29.5110   46.4120 C   0  0  0  0  0  0  0  0  0  0  0  0
   56.3990   29.4170   44.6760 C   0  0  0  0  0  0  0  0  0  0  0  0
   55.1540   29.3330   44.8600 O   0  0  0  0  0  0  0  0  0  0  0  0
   56.9710   30.7540   44.4250 C   0  0  0  0  0  0  0  0  0  0  0  0
   57.5860   31.1780   43.2580 C   0  0  0  0  0  0  0  0  0  0  0  0
   58.0110   32.4670   43.4910 C   0  0  0  0  0  0  0  0  0  0  0  0
   57.6460   32.7500   44.7860 C   0  0  0  0  0  0  0  0  0  0  0  0
   57.8950   33.9580   45.4280 O   0  0  0  0  0  0  0  0  0  0  0  0
   57.0180   31.7130   45.3720 N   0  0  0  0  0  0  0  0  0  0  0  0
   57.9043   26.0688   43.2321 H   0  0  0  0  0  0  0  0  0  0  0  0
   57.2664   27.3230   42.1155 H   0  0  0  0  0  0  0  0  0  0  0  0
   59.0187   26.9279   42.1155 H   0  0  0  0  0  0  0  0  0  0  0  0
   59.2515   27.8277   44.3934 H   0  0  0  0  0  0  0  0  0  0  0  0
   58.5119   29.0655   43.3026 H   0  0  0  0  0  0  0  0  0  0  0  0
   56.3748   27.6248   46.5475 H   0  0  0  0  0  0  0  0  0  0  0  0
   56.5996   26.3088   45.3167 H   0  0  0  0  0  0  0  0  0  0  0  0
   58.3129   29.4361   49.4608 H   0  0  0  0  0  0  0  0  0  0  0  0
   58.9398   31.8507   49.3879 H   0  0  0  0  0  0  0  0  0  0  0  0
   62.5625   31.7026   48.2193 H   0  0  0  0  0  0  0  0  0  0  0  0
   62.9781   32.8073   46.8568 H   0  0  0  0  0  0  0  0  0  0  0  0
   64.7295   32.1679   48.8438 H   0  0  0  0  0  0  0  0  0  0  0  0
   64.7302   33.7612   47.9667 H   0  0  0  0  0  0  0  0  0  0  0  0
   64.8283   33.6821   50.6165 H   0  0  0  0  0  0  0  0  0  0  0  0
   63.8270   34.9123   49.7479 H   0  0  0  0  0  0  0  0  0  0  0  0
   62.8422   32.2818   50.9525 H   0  0  0  0  0  0  0  0  0  0  0  0
   62.5469   33.9560   51.5817 H   0  0  0  0  0  0  0  0  0  0  0  0
   60.8453   32.5479   49.8948 H   0  0  0  0  0  0  0  0  0  0  0  0
   60.8862   34.3527   50.1250 H   0  0  0  0  0  0  0  0  0  0  0  0
   60.7609   31.2609   45.5053 H   0  0  0  0  0  0  0  0  0  0  0  0
   60.1372   28.8499   45.5773 H   0  0  0  0  0  0  0  0  0  0  0  0
   57.7100   30.6001   42.3303 H   0  0  0  0  0  0  0  0  0  0  0  0
   58.5337   33.1318   42.7875 H   0  0  0  0  0  0  0  0  0  0  0  0
   58.8110   34.1610   45.8090 H   0  0  0  0  0  0  0  0  0  0  0  0
  1  2  1  0
  2  3  1  0
  3  4  1  0
  4  5  1  0
  5  6  2  0
  5  7  1  0
  7  8  1  0
  8  9  2  0
  9 10  1  0
 10 11  2  0
 11 12  1  0
 12 13  2  0
 12 14  2  0
 12 15  1  0
 15 16  1  0
 16 17  1  0
 17 18  1  0
 18 19  1  0
 19 20  1  0
 11 21  1  0
 21 22  2  0
  3 23  1  0
 23 24  2  0
 23 25  1  0
 25 26  2  0
 26 27  1  0
 27 28  2  0
 28 29  1  0
 28 30  1  0
 22  8  1  0
 30 25  1  0
 20 15  1  0
  1 31  1  0
  1 32  1  0
  1 33  1  0
  2 34  1  0
  2 35  1  0
  4 36  1  0
  4 37  1  0
  9 38  1  0
 10 39  1  0
 16 40  1  0
 16 41  1  0
 17 42  1  0
 17 43  1  0
 18 44  1  0
 18 45  1  0
 19 46  1  0
 19 47  1  0
 20 48  1  0
 20 49  1  0
 21 50  1  0
 22 51  1  0
 26 52  1  0
 27 53  1  0
 29 54  1  0
M  CHG  2   7  -1  30  -1
M  END
>  <UniqueID>  (57) 
54

>  <SMILES>  (57) 
CCN(CC(=O)[N-]c1ccc(S(=O)(=O)N2CCCCC2)cc1)C(=O)c1ccc(O)[n-]1

>  <Energy>  (57) 
85.44107142148877

>  <Genealogy>  (57) 
CCN(CC(=O)[N-]c1ccc(S(=O)(=O)N2CCCCC2)cc1)C(=O)c1ccc(O)[n-]1 (protonated)
CCN(CC(=O)[N-]c1ccc(S(=O)(=O)N2CCCCC2)cc1)C(=O)c1ccc(O)[n-]1 (3D coordinates assigned)
CCN(CC(=O)[N-]c1ccc(S(=O)(=O)N2CCCCC2)cc1)C(=O)c1ccc(O)[n-]1 (nonaromatic ring conformer: 85.44107142148877 kcal/mol)

>  <smiles>  (57) 
CCN(CC(=O)Nc1ccc(S(=O)(=O)N2CCCCC2)cc1)C(=O)c1ccc(O)[nH]1

>  <score_type>  (57) 
oracle

>  <origin>  (57) 
adg

>  <m_score__min__energy>  (57) 
-13.75

>  <m_primary>  (57) 
energy

$$$$
57:0
     RDKit          3D

 48 50  0  0  0  0  0  0  0  0999 V2000
   58.2750   27.1270   43.3190 C   0  0  0  0  0  0  0  0  0  0  0  0
   58.4270   27.1350   44.6570 C   0  0  0  0  0  0  0  0  0  0  0  0
   58.0620   26.0940   45.5150 C   0  0  0  0  0  0  0  0  0  0  0  0
   57.5700   24.8840   45.1780 C   0  0  0  0  0  0  0  0  0  0  0  0
   56.1760   24.4650   45.4120 C   0  0  0  0  0  0  0  0  0  0  0  0
   55.7320   23.2180   45.1840 N   0  0  0  0  0  0  0  0  0  0  0  0
   54.4100   23.3010   45.4460 C   0  0  0  0  0  0  0  0  0  0  0  0
   53.6370   22.3120   45.3550 O   0  0  0  0  0  0  0  0  0  0  0  0
   53.9790   24.5300   45.8010 N   0  0  0  0  0  0  0  0  0  0  0  0
   55.1060   25.2610   45.7620 C   0  0  0  0  0  0  0  0  0  0  0  0
   55.1480   26.6300   46.0000 O   0  0  0  0  0  0  0  0  0  0  0  0
   58.3530   26.5250   46.7960 C   0  0  0  0  0  0  0  0  0  0  0  0
   58.8630   27.8020   46.6850 C   0  0  0  0  0  0  0  0  0  0  0  0
   59.2310   28.6250   47.8600 C   0  0  0  0  0  0  0  0  0  0  0  0
   60.1290   28.2400   48.6550 O   0  0  0  0  0  0  0  0  0  0  0  0
   58.6170   29.9070   48.0360 N   0  0  0  0  0  0  0  0  0  0  0  0
   59.2220   31.1830   47.7770 C   0  0  0  0  0  0  0  0  0  0  0  0
   60.5730   31.2230   47.4050 C   0  0  0  0  0  0  0  0  0  0  0  0
   61.1930   32.4440   47.1230 C   0  0  0  0  0  0  0  0  0  0  0  0
   60.4620   33.6320   47.1940 C   0  0  0  0  0  0  0  0  0  0  0  0
   59.1090   33.6000   47.5390 C   0  0  0  0  0  0  0  0  0  0  0  0
   58.4850   32.3810   47.8230 C   0  0  0  0  0  0  0  0  0  0  0  0
   58.9420   28.1730   45.3790 N   0  0  0  0  0  0  0  0  0  0  0  0
   59.4880   29.4470   44.8680 C   0  0  0  0  0  0  0  0  0  0  0  0
   58.4470   30.2730   44.0710 C   0  0  0  0  0  0  0  0  0  0  0  0
   57.2280   30.6660   44.8140 N   0  0  0  0  0  0  0  0  0  0  0  0
   56.0170   29.9440   44.3950 C   0  0  0  0  0  0  0  0  0  0  0  0
   57.0090   32.1180   44.8790 C   0  0  0  0  0  0  0  0  0  0  0  0
   58.5931   27.9959   42.7241 H   0  0  0  0  0  0  0  0  0  0  0  0
   57.8327   26.2516   42.8209 H   0  0  0  0  0  0  0  0  0  0  0  0
   58.2512   24.1654   44.6989 H   0  0  0  0  0  0  0  0  0  0  0  0
   54.3410   27.1150   46.3730 H   0  0  0  0  0  0  0  0  0  0  0  0
   58.2059   25.9576   47.7268 H   0  0  0  0  0  0  0  0  0  0  0  0
   61.1487   30.2883   47.3346 H   0  0  0  0  0  0  0  0  0  0  0  0
   62.2570   32.4690   46.8451 H   0  0  0  0  0  0  0  0  0  0  0  0
   60.9519   34.5929   46.9782 H   0  0  0  0  0  0  0  0  0  0  0  0
   58.5328   34.5358   47.5875 H   0  0  0  0  0  0  0  0  0  0  0  0
   57.4163   32.3586   48.0828 H   0  0  0  0  0  0  0  0  0  0  0  0
   59.8337   30.0482   45.7218 H   0  0  0  0  0  0  0  0  0  0  0  0
   60.3106   29.2012   44.1804 H   0  0  0  0  0  0  0  0  0  0  0  0
   58.9409   31.1923   43.7232 H   0  0  0  0  0  0  0  0  0  0  0  0
   58.1022   29.6147   43.2599 H   0  0  0  0  0  0  0  0  0  0  0  0
   55.4614   29.6127   45.2847 H   0  0  0  0  0  0  0  0  0  0  0  0
   55.3820   30.6111   43.7935 H   0  0  0  0  0  0  0  0  0  0  0  0
   56.3019   29.0682   43.7935 H   0  0  0  0  0  0  0  0  0  0  0  0
   56.9612   32.4349   45.9313 H   0  0  0  0  0  0  0  0  0  0  0  0
   57.8390   32.6368   44.3772 H   0  0  0  0  0  0  0  0  0  0  0  0
   56.0628   32.3689   44.3772 H   0  0  0  0  0  0  0  0  0  0  0  0
  1  2  2  0
  2  3  1  0
  3  4  2  3
  4  5  1  0
  5  6  1  0
  6  7  1  0
  7  8  2  0
  7  9  1  0
  9 10  1  0
 10 11  1  0
  3 12  1  0
 12 13  2  0
 13 14  1  0
 14 15  2  0
 14 16  1  0
 16 17  1  0
 17 18  2  0
 18 19  1  0
 19 20  2  0
 20 21  1  0
 21 22  2  0
 13 23  1  0
 23 24  1  0
 24 25  1  0
 25 26  1  0
 26 27  1  0
 26 28  1  0
 23  2  1  0
 10  5  2  0
 22 17  1  0
  1 29  1  0
  1 30  1  0
  4 31  1  0
 11 32  1  0
 12 33  1  0
 18 34  1  0
 19 35  1  0
 20 36  1  0
 21 37  1  0
 22 38  1  0
 24 39  1  0
 24 40  1  0
 25 41  1  0
 25 42  1  0
 27 43  1  0
 27 44  1  0
 27 45  1  0
 28 46  1  0
 28 47  1  0
 28 48  1  0
M  CHG  3   6  -1   9  -1  16  -1
M  END
>  <UniqueID>  (58) 
55

>  <SMILES>  (58) 
C=c1c(=Cc2[n-]c(=O)[n-]c2O)cc(C(=O)[N-]c2ccccc2)n1CCN(C)C

>  <Energy>  (58) 
124.91774453857515

>  <Genealogy>  (58) 
C=c1c(=Cc2[n-]c(=O)[n-]c2O)cc(C(=O)[N-]c2ccccc2)n1CCN(C)C (protonated)
C=c1c(=Cc2[n-]c(=O)[n-]c2O)cc(C(=O)[N-]c2ccccc2)n1CCN(C)C (3D coordinates assigned)
C=c1c(=Cc2[n-]c(=O)[n-]c2O)cc(C(=O)[N-]c2ccccc2)n1CCN(C)C (optimized conformer: 124.91774453857515 kcal/mol)

>  <smiles>  (58) 
C=c1c(=Cc2[nH]c(=O)[nH]c2O)cc(C(=O)Nc2ccccc2)n1CCN(C)C

>  <score_type>  (58) 
oracle

>  <origin>  (58) 
adg

>  <m_score__min__energy>  (58) 
-14.119999999999999

>  <m_primary>  (58) 
energy

$$$$
58:0
     RDKit          3D

 38 40  0  0  0  0  0  0  0  0999 V2000
   58.4295   27.5506   44.1777 H   0  0  0  0  0  0  0  0  0  0  0  0
   58.7190   28.5620   44.4990 C   0  0  0  0  0  0  0  0  0  0  0  0
   58.5552   29.4196   43.8299 H   0  0  0  0  0  0  0  0  0  0  0  0
   59.2700   28.7490   45.7030 C   0  0  0  0  0  0  0  0  0  0  0  0
   59.4520   27.8200   46.7400 C   0  0  0  0  0  0  0  0  0  0  0  0
   59.2670   26.4860   46.7900 C   0  0  0  0  0  0  0  0  0  0  0  0
   60.0847   25.8782   47.2047 H   0  0  0  0  0  0  0  0  0  0  0  0
   58.0600   25.7750   46.3350 C   0  0  0  0  0  0  0  0  0  0  0  0
   58.1820   24.5130   45.7370 C   0  0  0  0  0  0  0  0  0  0  0  0
   59.1716   24.0409   45.6491 H   0  0  0  0  0  0  0  0  0  0  0  0
   57.0490   23.8530   45.2520 C   0  0  0  0  0  0  0  0  0  0  0  0
   57.1469   22.8553   44.7993 H   0  0  0  0  0  0  0  0  0  0  0  0
   55.7920   24.4580   45.3410 C   0  0  0  0  0  0  0  0  0  0  0  0
   54.9011   23.9330   44.9659 H   0  0  0  0  0  0  0  0  0  0  0  0
   55.6670   25.7310   45.9070 C   0  0  0  0  0  0  0  0  0  0  0  0
   54.4200   26.3380   45.9830 O   0  0  0  0  0  0  0  0  0  0  0  0
   56.7990   26.3940   46.3930 C   0  0  0  0  0  0  0  0  0  0  0  0
   56.7022   27.4024   46.8217 H   0  0  0  0  0  0  0  0  0  0  0  0
   59.9000   28.5990   47.7960 C   0  0  0  0  0  0  0  0  0  0  0  0
   60.1850   28.1770   48.9510 O   0  0  0  0  0  0  0  0  0  0  0  0
   60.0220   29.8830   47.4080 N   0  0  0  0  0  0  0  0  0  0  0  0
   60.4510   30.9950   48.2160 C   0  0  0  0  0  0  0  0  0  0  0  0
   59.9580   31.1650   49.3630 O   0  0  0  0  0  0  0  0  0  0  0  0
   61.4360   31.9750   47.7060 C   0  0  0  0  0  0  0  0  0  0  0  0
   62.7920   31.7600   48.0040 C   0  0  0  0  0  0  0  0  0  0  0  0
   63.0937   30.8494   48.5422 H   0  0  0  0  0  0  0  0  0  0  0  0
   63.7590   32.6900   47.6240 C   0  0  0  0  0  0  0  0  0  0  0  0
   64.8174   32.5118   47.8651 H   0  0  0  0  0  0  0  0  0  0  0  0
   63.3860   33.8450   46.9390 C   0  0  0  0  0  0  0  0  0  0  0  0
   64.1484   34.5852   46.6547 H   0  0  0  0  0  0  0  0  0  0  0  0
   62.0460   34.0640   46.6130 C   0  0  0  0  0  0  0  0  0  0  0  0
   61.7609   34.9772   46.0700 H   0  0  0  0  0  0  0  0  0  0  0  0
   61.0560   33.1300   46.9710 C   0  0  0  0  0  0  0  0  0  0  0  0
   59.6610   33.3670   46.5200 C   0  0  0  0  0  0  0  0  0  0  0  0
   59.1260   32.5940   45.6820 O   0  0  0  0  0  0  0  0  0  0  0  0
   58.9110   34.4130   47.0420 O   0  0  0  0  0  0  0  0  0  0  0  0
   59.6420   29.9720   46.1420 N   0  0  0  0  0  0  0  0  0  0  0  0
   59.5850   30.8630   45.5980 H   0  0  0  0  0  0  0  0  0  0  0  0
  1  2  1  0
  2  3  1  0
  2  4  2  0
  4  5  1  0
  5  6  2  0
  6  7  1  0
  6  8  1  0
  8  9  2  0
  9 10  1  0
  9 11  1  0
 11 12  1  0
 11 13  2  0
 13 14  1  0
 13 15  1  0
 15 16  1  0
 15 17  2  0
 17 18  1  0
  5 19  1  0
 19 20  2  0
 19 21  1  0
 21 22  1  0
 22 23  2  0
 22 24  1  0
 24 25  2  0
 25 26  1  0
 25 27  1  0
 27 28  1  0
 27 29  2  0
 29 30  1  0
 29 31  1  0
 31 32  1  0
 31 33  2  0
 33 34  1  0
 34 35  2  0
 34 36  1  0
 21 37  1  0
 37 38  1  0
 37  4  1  0
 17  8  1  0
 33 24  1  0
M  CHG  2  16  -1  36  -1
M  END
>  <UniqueID>  (59) 
56

>  <SMILES>  (59) 
C=c1[nH]n(C(=O)c2ccccc2C(=O)[O-])c(=O)/c1=C/c1cccc([O-])c1

>  <Energy>  (59) 
97.54018025460762

>  <Genealogy>  (59) 
C=c1[nH]n(C(=O)c2ccccc2C(=O)[O-])c(=O)c1=Cc1cccc([O-])c1 (protonated)
C=c1[nH]n(C(=O)c2ccccc2C(=O)[O-])c(=O)/c1=C/c1cccc([O-])c1 (cis-trans isomerization)
C=c1[nH]n(C(=O)c2ccccc2C(=O)[O-])c(=O)/c1=C/c1cccc([O-])c1 (3D coordinates assigned)
C=c1[nH]n(C(=O)c2ccccc2C(=O)[O-])c(=O)/c1=C/c1cccc([O-])c1 (optimized conformer: 97.54018025460762 kcal/mol)

>  <smiles>  (59) 
C=c1[nH]n(C(=O)c2ccccc2C(=O)O)c(=O)c1=Cc1cccc(O)c1

>  <score_type>  (59) 
oracle

>  <origin>  (59) 
adg

>  <m_score__min__energy>  (59) 
-12.890000000000001

>  <m_primary>  (59) 
energy

$$$$
59:0
     RDKit          3D

 57 60  0  0  0  0  0  0  0  0999 V2000
   64.9540   33.4520   49.4390 O   0  0  0  0  0  0  0  0  0  0  0  0
   63.7760   33.0490   49.6400 C   0  0  0  0  0  0  0  0  0  0  0  0
   63.5220   32.0830   50.6670 N   0  0  0  0  0  0  0  0  0  0  0  0
   62.8480   30.8120   50.4280 C   0  0  0  0  0  0  0  0  0  0  0  0
   61.3640   31.0270   50.3130 C   0  0  0  0  0  0  0  0  0  0  0  0
   60.6580   30.5560   49.1930 C   0  0  0  0  0  0  0  0  0  0  0  0
   59.2840   30.7970   49.0740 C   0  0  0  0  0  0  0  0  0  0  0  0
   58.6090   31.5070   50.0690 C   0  0  0  0  0  0  0  0  0  0  0  0
   59.3040   31.9810   51.1850 C   0  0  0  0  0  0  0  0  0  0  0  0
   58.6480   32.6780   52.1460 F   0  0  0  0  0  0  0  0  0  0  0  0
   60.6780   31.7450   51.3070 C   0  0  0  0  0  0  0  0  0  0  0  0
   62.6650   33.5540   48.8010 C   0  0  0  0  0  0  0  0  0  0  0  0
   62.7360   33.4690   47.3990 C   0  0  0  0  0  0  0  0  0  0  0  0
   61.6610   33.8810   46.6090 C   0  0  0  0  0  0  0  0  0  0  0  0
   60.5000   34.3980   47.2040 C   0  0  0  0  0  0  0  0  0  0  0  0
   59.2920   34.7240   46.3640 C   0  0  0  0  0  0  0  0  0  0  0  0
   58.6630   33.4790   45.8890 N   0  0  0  0  0  0  0  0  0  0  0  0
   59.3590   32.3100   46.0070 C   0  0  0  0  0  0  0  0  0  0  0  0
   58.7720   31.0800   45.6800 C   0  0  0  0  0  0  0  0  0  0  0  0
   59.5110   29.8180   45.9330 C   0  0  0  0  0  0  0  0  0  0  0  0
   60.7670   29.7920   45.8100 O   0  0  0  0  0  0  0  0  0  0  0  0
   58.8180   28.6450   46.3710 N   0  0  0  0  0  0  0  0  0  0  0  0
   59.3570   27.2960   46.2350 C   0  0  0  0  0  0  0  0  0  0  0  0
   58.2330   26.3060   46.0990 C   0  0  0  0  0  0  0  0  0  0  0  0
   58.5170   24.9460   45.8950 C   0  0  0  0  0  0  0  0  0  0  0  0
   57.4780   24.0290   45.7180 C   0  0  0  0  0  0  0  0  0  0  0  0
   56.1500   24.4610   45.7380 C   0  0  0  0  0  0  0  0  0  0  0  0
   55.8540   25.8140   45.9340 C   0  0  0  0  0  0  0  0  0  0  0  0
   54.5250   26.2310   45.9510 O   0  0  0  0  0  0  0  0  0  0  0  0
   56.8940   26.7370   46.1120 C   0  0  0  0  0  0  0  0  0  0  0  0
   57.4610   31.1010   45.1760 C   0  0  0  0  0  0  0  0  0  0  0  0
   56.8770   30.0390   44.8320 O   0  0  0  0  0  0  0  0  0  0  0  0
   56.8060   32.2810   45.0490 N   0  0  0  0  0  0  0  0  0  0  0  0
   57.3810   33.4580   45.4040 C   0  0  0  0  0  0  0  0  0  0  0  0
   56.7150   34.5220   45.2870 O   0  0  0  0  0  0  0  0  0  0  0  0
   60.4360   34.5100   48.5990 C   0  0  0  0  0  0  0  0  0  0  0  0
   61.5080   34.0900   49.3930 C   0  0  0  0  0  0  0  0  0  0  0  0
   63.2250   30.3704   49.4937 H   0  0  0  0  0  0  0  0  0  0  0  0
   63.0491   30.1341   51.2706 H   0  0  0  0  0  0  0  0  0  0  0  0
   61.1865   29.9962   48.4073 H   0  0  0  0  0  0  0  0  0  0  0  0
   58.7355   30.4265   48.1955 H   0  0  0  0  0  0  0  0  0  0  0  0
   57.5291   31.6934   49.9743 H   0  0  0  0  0  0  0  0  0  0  0  0
   61.2230   32.1231   52.1845 H   0  0  0  0  0  0  0  0  0  0  0  0
   63.6452   33.0750   46.9213 H   0  0  0  0  0  0  0  0  0  0  0  0
   61.7245   33.7999   45.5138 H   0  0  0  0  0  0  0  0  0  0  0  0
   58.5688   35.2907   46.9689 H   0  0  0  0  0  0  0  0  0  0  0  0
   59.6039   35.3264   45.4981 H   0  0  0  0  0  0  0  0  0  0  0  0
   60.3988   32.3342   46.3651 H   0  0  0  0  0  0  0  0  0  0  0  0
   59.9960   27.2471   45.3410 H   0  0  0  0  0  0  0  0  0  0  0  0
   59.9487   27.0510   47.1294 H   0  0  0  0  0  0  0  0  0  0  0  0
   59.5614   24.6014   45.8745 H   0  0  0  0  0  0  0  0  0  0  0  0
   57.7064   22.9643   45.5625 H   0  0  0  0  0  0  0  0  0  0  0  0
   55.3349   23.7355   45.5993 H   0  0  0  0  0  0  0  0  0  0  0  0
   54.1310   26.7170   46.7490 H   0  0  0  0  0  0  0  0  0  0  0  0
   56.6623   27.8018   46.2623 H   0  0  0  0  0  0  0  0  0  0  0  0
   59.5369   34.9309   49.0728 H   0  0  0  0  0  0  0  0  0  0  0  0
   61.4455   34.1796   50.4876 H   0  0  0  0  0  0  0  0  0  0  0  0
  1  2  2  0
  2  3  1  0
  3  4  1  0
  4  5  1  0
  5  6  2  0
  6  7  1  0
  7  8  2  0
  8  9  1  0
  9 10  1  0
  9 11  2  0
  2 12  1  0
 12 13  2  0
 13 14  1  0
 14 15  2  0
 15 16  1  0
 16 17  1  0
 17 18  1  0
 18 19  2  0
 19 20  1  0
 20 21  2  0
 20 22  1  0
 22 23  1  0
 23 24  1  0
 24 25  2  0
 25 26  1  0
 26 27  2  0
 27 28  1  0
 28 29  1  0
 28 30  2  0
 19 31  1  0
 31 32  2  0
 31 33  1  0
 33 34  1  0
 34 35  2  0
 15 36  1  0
 36 37  2  0
 11  5  1  0
 37 12  1  0
 34 17  1  0
 30 24  1  0
  4 38  1  0
  4 39  1  0
  6 40  1  0
  7 41  1  0
  8 42  1  0
 11 43  1  0
 13 44  1  0
 14 45  1  0
 16 46  1  0
 16 47  1  0
 18 48  1  0
 23 49  1  0
 23 50  1  0
 25 51  1  0
 26 52  1  0
 27 53  1  0
 29 54  1  0
 30 55  1  0
 36 56  1  0
 37 57  1  0
M  CHG  3   3  -1  22  -1  33  -1
M  END
>  <UniqueID>  (60) 
57

>  <SMILES>  (60) 
O=C([N-]Cc1cccc(F)c1)c1ccc(Cn2cc(C(=O)[N-]Cc3cccc(O)c3)c(=O)[n-]c2=O)cc1

>  <Energy>  (60) 
61.857758246273825

>  <Genealogy>  (60) 
O=C([N-]Cc1cccc(F)c1)c1ccc(Cn2cc(C(=O)[N-]Cc3cccc(O)c3)c(=O)[n-]c2=O)cc1 (protonated)
O=C([N-]Cc1cccc(F)c1)c1ccc(Cn2cc(C(=O)[N-]Cc3cccc(O)c3)c(=O)[n-]c2=O)cc1 (3D coordinates assigned)
O=C([N-]Cc1cccc(F)c1)c1ccc(Cn2cc(C(=O)[N-]Cc3cccc(O)c3)c(=O)[n-]c2=O)cc1 (optimized conformer: 61.857758246273825 kcal/mol)

>  <smiles>  (60) 
O=C(NCc1cccc(F)c1)c1ccc(Cn2cc(C(=O)NCc3cccc(O)c3)c(=O)[nH]c2=O)cc1

>  <score_type>  (60) 
oracle

>  <origin>  (60) 
adg

>  <m_score__min__energy>  (60) 
-13.359999999999999

>  <m_primary>  (60) 
energy

$$$$
60:0
     RDKit          3D

 34 36  0  0  0  0  0  0  0  0999 V2000
   57.9773   28.4864   46.2934 H   0  0  0  0  0  0  0  0  0  0  0  0
   57.4630   29.1450   45.5780 C   0  0  0  0  0  0  0  0  0  0  0  0
   58.1030   30.2940   45.1010 C   0  0  0  0  0  0  0  0  0  0  0  0
   59.1169   30.5404   45.4491 H   0  0  0  0  0  0  0  0  0  0  0  0
   57.4570   31.1340   44.1800 C   0  0  0  0  0  0  0  0  0  0  0  0
   58.1290   32.3890   43.6970 C   0  0  0  0  0  0  0  0  0  0  0  0
   57.4307   32.9550   43.0629 H   0  0  0  0  0  0  0  0  0  0  0  0
   59.0243   32.1187   43.1179 H   0  0  0  0  0  0  0  0  0  0  0  0
   58.5350   33.2330   44.8610 C   0  0  0  0  0  0  0  0  0  0  0  0
   59.6190   34.0430   44.8530 N   0  0  0  0  0  0  0  0  0  0  0  0
   59.8280   34.6510   46.0190 N   0  0  0  0  0  0  0  0  0  0  0  0
   58.9160   34.3140   46.9600 C   0  0  0  0  0  0  0  0  0  0  0  0
   58.9100   34.7720   48.1760 N   0  0  0  0  0  0  0  0  0  0  0  0
   59.7600   34.3370   49.2500 C   0  0  0  0  0  0  0  0  0  0  0  0
   59.3230   34.2580   50.4310 O   0  0  0  0  0  0  0  0  0  0  0  0
   61.1580   33.9790   48.9690 C   0  0  0  0  0  0  0  0  0  0  0  0
   62.1580   33.8370   49.9140 C   0  0  0  0  0  0  0  0  0  0  0  0
   62.0627   33.9773   51.0008 H   0  0  0  0  0  0  0  0  0  0  0  0
   63.3000   33.4840   49.2220 C   0  0  0  0  0  0  0  0  0  0  0  0
   64.2930   33.2789   49.6484 H   0  0  0  0  0  0  0  0  0  0  0  0
   62.9460   33.4400   47.8870 C   0  0  0  0  0  0  0  0  0  0  0  0
   63.8450   33.0320   46.7660 C   0  0  0  0  0  0  0  0  0  0  0  0
   64.7744   32.6102   47.1763 H   0  0  0  0  0  0  0  0  0  0  0  0
   63.3401   32.2748   46.1481 H   0  0  0  0  0  0  0  0  0  0  0  0
   64.0825   33.9105   46.1481 H   0  0  0  0  0  0  0  0  0  0  0  0
   61.6400   33.7290   47.7360 N   0  0  0  0  0  0  0  0  0  0  0  0
   61.1070   33.7460   46.8380 H   0  0  0  0  0  0  0  0  0  0  0  0
   57.7840   33.2190   46.3710 S   0  0  0  0  0  0  0  0  0  0  0  0
   56.1530   30.8210   43.7600 C   0  0  0  0  0  0  0  0  0  0  0  0
   55.6320   31.4821   43.0518 H   0  0  0  0  0  0  0  0  0  0  0  0
   55.5150   29.6720   44.2390 C   0  0  0  0  0  0  0  0  0  0  0  0
   54.4968   29.4281   43.9018 H   0  0  0  0  0  0  0  0  0  0  0  0
   56.1700   28.8330   45.1460 C   0  0  0  0  0  0  0  0  0  0  0  0
   55.5350   27.6920   45.6200 O   0  0  0  0  0  0  0  0  0  0  0  0
  1  2  1  0
  2  3  2  0
  3  4  1  0
  3  5  1  0
  5  6  1  0
  6  7  1  0
  6  8  1  0
  6  9  1  0
  9 10  2  0
 10 11  1  0
 11 12  1  0
 12 13  2  0
 13 14  1  0
 14 15  2  0
 14 16  1  0
 16 17  2  0
 17 18  1  0
 17 19  1  0
 19 20  1  0
 19 21  2  0
 21 22  1  0
 22 23  1  0
 22 24  1  0
 22 25  1  0
 21 26  1  0
 26 27  1  0
 12 28  1  0
  5 29  2  0
 29 30  1  0
 29 31  1  0
 31 32  1  0
 31 33  2  0
 33 34  1  0
 33  2  1  0
 28  9  1  0
 26 16  1  0
M  CHG  2  11  -1  34  -1
M  END
>  <UniqueID>  (61) 
58

>  <SMILES>  (61) 
Cc1ccc(C(=O)/N=c2\[n-]nc(Cc3ccc([O-])cc3)s2)[nH]1

>  <Energy>  (61) 
93.45621280847352

>  <Genealogy>  (61) 
Cc1ccc(C(=O)N=c2[n-]nc(Cc3ccc([O-])cc3)s2)[nH]1 (protonated)
Cc1ccc(C(=O)/N=c2\[n-]nc(Cc3ccc([O-])cc3)s2)[nH]1 (cis-trans isomerization)
Cc1ccc(C(=O)/N=c2\[n-]nc(Cc3ccc([O-])cc3)s2)[nH]1 (3D coordinates assigned)
Cc1ccc(C(=O)/N=c2\[n-]nc(Cc3ccc([O-])cc3)s2)[nH]1 (optimized conformer: 93.45621280847352 kcal/mol)

>  <smiles>  (61) 
Cc1ccc(C(=O)N=c2[nH]nc(Cc3ccc(O)cc3)s2)[nH]1

>  <score_type>  (61) 
oracle

>  <origin>  (61) 
adg

>  <m_score__min__energy>  (61) 
-11.9

>  <m_primary>  (61) 
energy

$$$$
61:0
     RDKit          3D

 58 62  0  0  0  0  0  0  0  0999 V2000
   57.7250   34.6790   44.9130 O   0  0  0  0  0  0  0  0  0  0  0  0
   58.2990   34.1200   45.8870 C   0  0  0  0  0  0  0  0  0  0  0  0
   58.8520   34.9940   46.9820 C   0  0  0  0  0  0  0  0  0  0  0  0
   60.0810   34.4210   47.5350 N   0  0  0  0  0  0  0  0  0  0  0  0
   61.1160   33.8980   46.8400 C   0  0  0  0  0  0  0  0  0  0  0  0
   61.1830   33.8500   45.4520 O   0  0  0  0  0  0  0  0  0  0  0  0
   62.0800   33.4130   47.7010 C   0  0  0  0  0  0  0  0  0  0  0  0
   61.6140   33.6330   48.9720 C   0  0  0  0  0  0  0  0  0  0  0  0
   60.3790   34.2430   48.8420 C   0  0  0  0  0  0  0  0  0  0  0  0
   59.5450   34.6210   49.8910 O   0  0  0  0  0  0  0  0  0  0  0  0
   62.3480   33.2350   50.2130 C   0  0  0  0  0  0  0  0  0  0  0  0
   63.6810   32.5870   49.8950 C   0  0  0  0  0  0  0  0  0  0  0  0
   64.1390   32.3720   48.6410 C   0  0  0  0  0  0  0  0  0  0  0  0
   63.3800   32.7490   47.3840 C   0  0  0  0  0  0  0  0  0  0  0  0
   58.3840   32.6350   45.9310 C   0  0  0  0  0  0  0  0  0  0  0  0
   58.6360   31.9470   47.1330 C   0  0  0  0  0  0  0  0  0  0  0  0
   58.6990   30.5510   47.1550 C   0  0  0  0  0  0  0  0  0  0  0  0
   58.5240   29.8110   45.9760 C   0  0  0  0  0  0  0  0  0  0  0  0
   58.5780   28.3730   46.0020 N   0  0  0  0  0  0  0  0  0  0  0  0
   59.1030   27.6220   44.8520 C   0  0  0  0  0  0  0  0  0  0  0  0
   58.0730   26.5820   44.4020 C   0  0  0  0  0  0  0  0  0  0  0  0
   57.5070   25.8620   45.5530 N   0  0  0  0  0  0  0  0  0  0  0  0
   56.3920   24.9780   45.3530 C   0  0  0  0  0  0  0  0  0  0  0  0
   56.6130   23.6720   44.8880 C   0  0  0  0  0  0  0  0  0  0  0  0
   55.5380   22.7970   44.7030 C   0  0  0  0  0  0  0  0  0  0  0  0
   54.2350   23.2220   44.9780 C   0  0  0  0  0  0  0  0  0  0  0  0
   54.0060   24.5220   45.4350 C   0  0  0  0  0  0  0  0  0  0  0  0
   55.0780   25.4040   45.6200 C   0  0  0  0  0  0  0  0  0  0  0  0
   54.8280   26.7020   46.0490 O   0  0  0  0  0  0  0  0  0  0  0  0
   57.9930   26.1340   46.9110 C   0  0  0  0  0  0  0  0  0  0  0  0
   58.0320   27.6470   47.1610 C   0  0  0  0  0  0  0  0  0  0  0  0
   58.2750   30.4920   44.7750 C   0  0  0  0  0  0  0  0  0  0  0  0
   58.2080   31.8880   44.7510 C   0  0  0  0  0  0  0  0  0  0  0  0
   59.0718   35.9906   46.5714 H   0  0  0  0  0  0  0  0  0  0  0  0
   58.1046   35.0669   47.7858 H   0  0  0  0  0  0  0  0  0  0  0  0
   59.1550   35.5550   49.9390 H   0  0  0  0  0  0  0  0  0  0  0  0
   62.5250   34.1317   50.8251 H   0  0  0  0  0  0  0  0  0  0  0  0
   61.7319   32.5020   50.7545 H   0  0  0  0  0  0  0  0  0  0  0  0
   64.3152   32.2721   50.7368 H   0  0  0  0  0  0  0  0  0  0  0  0
   65.1230   31.8941   48.5259 H   0  0  0  0  0  0  0  0  0  0  0  0
   63.9966   33.4386   46.7888 H   0  0  0  0  0  0  0  0  0  0  0  0
   63.1661   31.8270   46.8234 H   0  0  0  0  0  0  0  0  0  0  0  0
   58.7848   32.5137   48.0640 H   0  0  0  0  0  0  0  0  0  0  0  0
   58.8873   30.0283   48.1044 H   0  0  0  0  0  0  0  0  0  0  0  0
   59.3072   28.3166   44.0239 H   0  0  0  0  0  0  0  0  0  0  0  0
   60.0329   27.1118   45.1435 H   0  0  0  0  0  0  0  0  0  0  0  0
   57.2608   27.0913   43.8626 H   0  0  0  0  0  0  0  0  0  0  0  0
   58.5756   25.8539   43.7483 H   0  0  0  0  0  0  0  0  0  0  0  0
   57.6368   23.3353   44.6681 H   0  0  0  0  0  0  0  0  0  0  0  0
   55.7178   21.7740   44.3410 H   0  0  0  0  0  0  0  0  0  0  0  0
   53.3899   22.5327   44.8345 H   0  0  0  0  0  0  0  0  0  0  0  0
   52.9797   24.8542   45.6504 H   0  0  0  0  0  0  0  0  0  0  0  0
   57.3189   25.6615   47.6406 H   0  0  0  0  0  0  0  0  0  0  0  0
   59.0077   25.7237   47.0203 H   0  0  0  0  0  0  0  0  0  0  0  0
   57.0098   28.0032   47.3564 H   0  0  0  0  0  0  0  0  0  0  0  0
   58.6854   27.8366   48.0253 H   0  0  0  0  0  0  0  0  0  0  0  0
   58.1313   29.9228   43.8447 H   0  0  0  0  0  0  0  0  0  0  0  0
   58.0159   32.4078   43.8008 H   0  0  0  0  0  0  0  0  0  0  0  0
  1  2  2  0
  2  3  1  0
  3  4  1  0
  4  5  1  0
  5  6  1  0
  5  7  2  0
  7  8  1  0
  8  9  2  0
  9 10  1  0
  8 11  1  0
 11 12  1  0
 12 13  2  0
 13 14  1  0
  2 15  1  0
 15 16  2  0
 16 17  1  0
 17 18  2  0
 18 19  1  0
 19 20  1  0
 20 21  1  0
 21 22  1  0
 22 23  1  0
 23 24  2  0
 24 25  1  0
 25 26  2  0
 26 27  1  0
 27 28  2  0
 28 29  1  0
 22 30  1  0
 30 31  1  0
 18 32  1  0
 32 33  2  0
  9  4  1  0
 33 15  1  0
 14  7  1  0
 31 19  1  0
 28 23  1  0
  3 34  1  0
  3 35  1  0
 10 36  1  0
 11 37  1  0
 11 38  1  0
 12 39  1  0
 13 40  1  0
 14 41  1  0
 14 42  1  0
 16 43  1  0
 17 44  1  0
 20 45  1  0
 20 46  1  0
 21 47  1  0
 21 48  1  0
 24 49  1  0
 25 50  1  0
 26 51  1  0
 27 52  1  0
 30 53  1  0
 30 54  1  0
 31 55  1  0
 31 56  1  0
 32 57  1  0
 33 58  1  0
M  CHG  2   6  -1  29  -1
M  END
>  <UniqueID>  (62) 
59

>  <SMILES>  (62) 
O=C(Cn1c([O-])c2c(c1O)CC=CC2)c1ccc(N2CCN(c3ccccc3[O-])CC2)cc1

>  <Energy>  (62) 
105.5450153679731

>  <Genealogy>  (62) 
O=C(Cn1c([O-])c2c(c1O)CC=CC2)c1ccc(N2CCN(c3ccccc3[O-])CC2)cc1 (protonated)
O=C(Cn1c([O-])c2c(c1O)CC=CC2)c1ccc(N2CCN(c3ccccc3[O-])CC2)cc1 (3D coordinates assigned)
O=C(Cn1c([O-])c2c(c1O)CC=CC2)c1ccc(N2CCN(c3ccccc3[O-])CC2)cc1 (nonaromatic ring conformer: 105.5450153679731 kcal/mol)

>  <smiles>  (62) 
O=C(Cn1c(O)c2c(c1O)CC=CC2)c1ccc(N2CCN(c3ccccc3O)CC2)cc1

>  <score_type>  (62) 
oracle

>  <origin>  (62) 
adg

>  <m_score__min__energy>  (62) 
-13.44

>  <m_primary>  (62) 
energy

$$$$
62:0
     RDKit          3D

 51 53  0  0  0  0  0  0  0  0999 V2000
   56.9460   20.7640   43.4480 C   0  0  0  0  0  0  0  0  0  0  0  0
   56.5740   22.2160   43.4330 C   0  0  0  0  0  0  0  0  0  0  0  0
   55.8210   22.6320   42.5120 O   0  0  0  0  0  0  0  0  0  0  0  0
   57.0600   23.1400   44.4300 N   0  0  0  0  0  0  0  0  0  0  0  0
   56.3700   24.4330   44.5820 C   0  0  0  0  0  0  0  0  0  0  0  0
   56.8490   25.1910   45.8220 C   0  0  0  0  0  0  0  0  0  0  0  0
   58.3150   25.1980   45.8670 N   0  0  0  0  0  0  0  0  0  0  0  0
   59.0240   26.3670   46.3180 C   0  0  0  0  0  0  0  0  0  0  0  0
   59.9240   26.2430   47.1900 O   0  0  0  0  0  0  0  0  0  0  0  0
   58.7380   27.7080   45.7580 C   0  0  0  0  0  0  0  0  0  0  0  0
   59.7800   28.5380   45.3170 C   0  0  0  0  0  0  0  0  0  0  0  0
   59.5050   29.8060   44.7990 C   0  0  0  0  0  0  0  0  0  0  0  0
   58.1850   30.2760   44.7260 C   0  0  0  0  0  0  0  0  0  0  0  0
   57.9020   31.5780   44.1820 N   0  0  0  0  0  0  0  0  0  0  0  0
   57.6640   31.7400   42.7480 C   0  0  0  0  0  0  0  0  0  0  0  0
   57.8940   32.9860   45.2040 S   0  0  0  0  0  0  0  0  0  0  0  0
   57.9460   34.2360   44.3680 O   0  0  0  0  0  0  0  0  0  0  0  0
   56.6340   32.9990   46.0210 O   0  0  0  0  0  0  0  0  0  0  0  0
   59.3130   32.9590   46.2440 C   0  0  0  0  0  0  0  0  0  0  0  0
   60.3710   33.8440   45.9940 C   0  0  0  0  0  0  0  0  0  0  0  0
   61.5070   33.8300   46.8060 C   0  0  0  0  0  0  0  0  0  0  0  0
   61.5960   32.9260   47.8670 C   0  0  0  0  0  0  0  0  0  0  0  0
   60.5480   32.0350   48.1170 C   0  0  0  0  0  0  0  0  0  0  0  0
   59.4090   32.0490   47.3070 C   0  0  0  0  0  0  0  0  0  0  0  0
   57.1420   29.4500   45.1760 C   0  0  0  0  0  0  0  0  0  0  0  0
   57.4160   28.1810   45.6930 C   0  0  0  0  0  0  0  0  0  0  0  0
   59.0630   23.9560   45.6330 C   0  0  0  0  0  0  0  0  0  0  0  0
   58.1330   22.7660   45.3650 C   0  0  0  0  0  0  0  0  0  0  0  0
   57.0344   20.4189   44.4887 H   0  0  0  0  0  0  0  0  0  0  0  0
   56.1682   20.1809   42.9332 H   0  0  0  0  0  0  0  0  0  0  0  0
   57.9083   20.6267   42.9332 H   0  0  0  0  0  0  0  0  0  0  0  0
   56.5659   25.0479   43.6912 H   0  0  0  0  0  0  0  0  0  0  0  0
   55.2942   24.2347   44.6971 H   0  0  0  0  0  0  0  0  0  0  0  0
   56.4803   26.2266   45.7816 H   0  0  0  0  0  0  0  0  0  0  0  0
   56.4612   24.6934   46.7231 H   0  0  0  0  0  0  0  0  0  0  0  0
   60.8209   28.1877   45.3796 H   0  0  0  0  0  0  0  0  0  0  0  0
   60.3304   30.4413   44.4453 H   0  0  0  0  0  0  0  0  0  0  0  0
   56.7638   32.3528   42.5927 H   0  0  0  0  0  0  0  0  0  0  0  0
   58.5300   32.2370   42.2864 H   0  0  0  0  0  0  0  0  0  0  0  0
   57.5192   30.7521   42.2864 H   0  0  0  0  0  0  0  0  0  0  0  0
   60.3061   34.5523   45.1549 H   0  0  0  0  0  0  0  0  0  0  0  0
   62.3318   34.5309   46.6100 H   0  0  0  0  0  0  0  0  0  0  0  0
   62.4911   32.9151   48.5062 H   0  0  0  0  0  0  0  0  0  0  0  0
   60.6199   31.3224   48.9519 H   0  0  0  0  0  0  0  0  0  0  0  0
   58.5867   31.3453   47.5035 H   0  0  0  0  0  0  0  0  0  0  0  0
   56.1021   29.8045   45.1211 H   0  0  0  0  0  0  0  0  0  0  0  0
   56.5912   27.5477   46.0517 H   0  0  0  0  0  0  0  0  0  0  0  0
   59.7202   24.0961   44.7621 H   0  0  0  0  0  0  0  0  0  0  0  0
   59.6451   23.7344   46.5397 H   0  0  0  0  0  0  0  0  0  0  0  0
   58.7182   21.9419   44.9310 H   0  0  0  0  0  0  0  0  0  0  0  0
   57.6778   22.4537   46.3165 H   0  0  0  0  0  0  0  0  0  0  0  0
  1  2  1  0
  2  3  2  0
  2  4  1  0
  4  5  1  0
  5  6  1  0
  6  7  1  0
  7  8  1  0
  8  9  2  0
  8 10  1  0
 10 11  2  0
 11 12  1  0
 12 13  2  0
 13 14  1  0
 14 15  1  0
 14 16  1  0
 16 17  2  0
 16 18  2  0
 16 19  1  0
 19 20  2  0
 20 21  1  0
 21 22  2  0
 22 23  1  0
 23 24  2  0
 13 25  1  0
 25 26  2  0
  7 27  1  0
 27 28  1  0
 28  4  1  0
 26 10  1  0
 24 19  1  0
  1 29  1  0
  1 30  1  0
  1 31  1  0
  5 32  1  0
  5 33  1  0
  6 34  1  0
  6 35  1  0
 11 36  1  0
 12 37  1  0
 15 38  1  0
 15 39  1  0
 15 40  1  0
 20 41  1  0
 21 42  1  0
 22 43  1  0
 23 44  1  0
 24 45  1  0
 25 46  1  0
 26 47  1  0
 27 48  1  0
 27 49  1  0
 28 50  1  0
 28 51  1  0
M  END
>  <UniqueID>  (63) 
60

>  <SMILES>  (63) 
CC(=O)N1CCN(C(=O)c2ccc(N(C)S(=O)(=O)c3ccccc3)cc2)CC1

>  <Energy>  (63) 
61.20393015938967

>  <Genealogy>  (63) 
CC(=O)N1CCN(C(=O)c2ccc(N(C)S(=O)(=O)c3ccccc3)cc2)CC1 (3D coordinates assigned)
CC(=O)N1CCN(C(=O)c2ccc(N(C)S(=O)(=O)c3ccccc3)cc2)CC1 (nonaromatic ring conformer: 61.20393015938967 kcal/mol)

>  <smiles>  (63) 
CC(=O)N1CCN(C(=O)c2ccc(N(C)S(=O)(=O)c3ccccc3)cc2)CC1

>  <score_type>  (63) 
oracle

>  <origin>  (63) 
adg

>  <m_score__min__energy>  (63) 
-8.5399999999999991

>  <m_primary>  (63) 
energy

$$$$
63:0
     RDKit          3D

 59 63  0  0  0  0  0  0  0  0999 V2000
   60.4800   26.3550   46.4160 C   0  0  0  0  0  0  0  0  0  0  0  0
   59.3760   27.0150   46.0610 C   0  0  0  0  0  0  0  0  0  0  0  0
   59.4350   28.1550   45.4110 O   0  0  0  0  0  0  0  0  0  0  0  0
   58.2240   28.6510   45.2870 C   0  0  0  0  0  0  0  0  0  0  0  0
   57.9350   29.9360   44.6080 C   0  0  0  0  0  0  0  0  0  0  0  0
   57.2840   29.9790   43.3610 C   0  0  0  0  0  0  0  0  0  0  0  0
   57.0210   31.2030   42.7440 C   0  0  0  0  0  0  0  0  0  0  0  0
   57.4040   32.3970   43.3570 C   0  0  0  0  0  0  0  0  0  0  0  0
   58.0690   32.3790   44.5940 C   0  0  0  0  0  0  0  0  0  0  0  0
   58.4700   33.6430   45.2530 C   0  0  0  0  0  0  0  0  0  0  0  0
   58.2910   34.7410   44.6580 O   0  0  0  0  0  0  0  0  0  0  0  0
   59.0740   33.6440   46.5570 N   0  0  0  0  0  0  0  0  0  0  0  0
   60.3330   34.3630   46.7740 C   0  0  0  0  0  0  0  0  0  0  0  0
   60.5630   34.6470   48.2670 C   0  0  0  0  0  0  0  0  0  0  0  0
   60.3950   33.4470   49.1290 N   0  0  0  0  0  0  0  0  0  0  0  0
   61.6460   32.8330   49.6470 C   0  0  0  0  0  0  0  0  0  0  0  0
   62.8800   33.3200   48.8530 C   0  0  0  0  0  0  0  0  0  0  0  0
   64.0560   32.3380   48.9910 C   0  0  0  0  0  0  0  0  0  0  0  0
   64.0060   31.6760   50.2410 O   0  0  0  0  0  0  0  0  0  0  0  0
   62.9410   30.7350   50.2650 C   0  0  0  0  0  0  0  0  0  0  0  0
   61.6060   31.2890   49.7080 C   0  0  0  0  0  0  0  0  0  0  0  0
   59.4250   32.4340   48.6450 C   0  0  0  0  0  0  0  0  0  0  0  0
   58.3850   33.0290   47.6950 C   0  0  0  0  0  0  0  0  0  0  0  0
   58.3210   31.1440   45.2170 C   0  0  0  0  0  0  0  0  0  0  0  0
   57.3110   27.7970   45.8850 C   0  0  0  0  0  0  0  0  0  0  0  0
   58.0390   26.7170   46.3540 C   0  0  0  0  0  0  0  0  0  0  0  0
   57.4760   25.6460   46.9430 C   0  0  0  0  0  0  0  0  0  0  0  0
   56.3510   24.8670   46.4010 C   0  0  0  0  0  0  0  0  0  0  0  0
   56.4000   23.5540   46.1100 N   0  0  0  0  0  0  0  0  0  0  0  0
   55.2060   23.3220   45.5220 C   0  0  0  0  0  0  0  0  0  0  0  0
   54.8630   22.1830   45.1120 O   0  0  0  0  0  0  0  0  0  0  0  0
   54.4150   24.4090   45.3940 N   0  0  0  0  0  0  0  0  0  0  0  0
   55.1620   25.3810   45.9430 C   0  0  0  0  0  0  0  0  0  0  0  0
   54.7680   26.7110   46.0190 O   0  0  0  0  0  0  0  0  0  0  0  0
   60.4002   25.4022   46.9598 H   0  0  0  0  0  0  0  0  0  0  0  0
   61.4699   26.7637   46.1648 H   0  0  0  0  0  0  0  0  0  0  0  0
   56.9807   29.0426   42.8698 H   0  0  0  0  0  0  0  0  0  0  0  0
   56.5096   31.2268   41.7704 H   0  0  0  0  0  0  0  0  0  0  0  0
   57.1838   33.3577   42.8685 H   0  0  0  0  0  0  0  0  0  0  0  0
   61.1648   33.7523   46.3930 H   0  0  0  0  0  0  0  0  0  0  0  0
   60.2805   35.3241   46.2415 H   0  0  0  0  0  0  0  0  0  0  0  0
   61.5867   35.0283   48.3958 H   0  0  0  0  0  0  0  0  0  0  0  0
   59.8042   35.3798   48.5789 H   0  0  0  0  0  0  0  0  0  0  0  0
   61.7336   33.1760   50.6885 H   0  0  0  0  0  0  0  0  0  0  0  0
   62.6102   33.4090   47.7903 H   0  0  0  0  0  0  0  0  0  0  0  0
   63.1915   34.2941   49.2581 H   0  0  0  0  0  0  0  0  0  0  0  0
   64.0013   31.5923   48.1842 H   0  0  0  0  0  0  0  0  0  0  0  0
   64.9987   32.9009   48.9244 H   0  0  0  0  0  0  0  0  0  0  0  0
   63.2341   29.8637   49.6609 H   0  0  0  0  0  0  0  0  0  0  0  0
   62.7657   30.4757   51.3195 H   0  0  0  0  0  0  0  0  0  0  0  0
   61.4426   30.8905   48.6958 H   0  0  0  0  0  0  0  0  0  0  0  0
   60.7864   30.9797   50.3733 H   0  0  0  0  0  0  0  0  0  0  0  0
   59.9756   31.6428   48.1151 H   0  0  0  0  0  0  0  0  0  0  0  0
   58.8906   32.0366   49.5205 H   0  0  0  0  0  0  0  0  0  0  0  0
   57.7165   32.2331   47.3350 H   0  0  0  0  0  0  0  0  0  0  0  0
   57.7904   33.7885   48.2238 H   0  0  0  0  0  0  0  0  0  0  0  0
   58.8267   31.1220   46.1936 H   0  0  0  0  0  0  0  0  0  0  0  0
   56.2246   27.9473   45.9700 H   0  0  0  0  0  0  0  0  0  0  0  0
   57.8912   25.3261   47.9101 H   0  0  0  0  0  0  0  0  0  0  0  0
  1  2  2  0
  2  3  1  0
  3  4  1  0
  4  5  1  0
  5  6  2  0
  6  7  1  0
  7  8  2  0
  8  9  1  0
  9 10  1  0
 10 11  2  0
 10 12  1  0
 12 13  1  0
 13 14  1  0
 14 15  1  0
 15 16  1  0
 16 17  1  0
 17 18  1  0
 18 19  1  0
 19 20  1  0
 20 21  1  0
 15 22  1  0
 22 23  1  0
  9 24  2  0
  4 25  2  0
 25 26  1  0
 26 27  2  3
 27 28  1  0
 28 29  1  0
 29 30  1  0
 30 31  2  0
 30 32  1  0
 32 33  1  0
 33 34  1  0
 26  2  1  0
 33 28  2  0
 24  5  1  0
 23 12  1  0
 21 16  1  0
  1 35  1  0
  1 36  1  0
  6 37  1  0
  7 38  1  0
  8 39  1  0
 13 40  1  0
 13 41  1  0
 14 42  1  0
 14 43  1  0
 16 44  1  0
 17 45  1  0
 17 46  1  0
 18 47  1  0
 18 48  1  0
 20 49  1  0
 20 50  1  0
 21 51  1  0
 21 52  1  0
 22 53  1  0
 22 54  1  0
 23 55  1  0
 23 56  1  0
 24 57  1  0
 25 58  1  0
 27 59  1  0
M  CHG  3  29  -1  32  -1  34  -1
M  END
>  <UniqueID>  (64) 
61

>  <SMILES>  (64) 
C=c1oc(-c2cccc(C(=O)N3CCN(C4CCOCC4)CC3)c2)cc1=Cc1[n-]c(=O)[n-]c1[O-]

>  <Energy>  (64) 
155.9379825631414

>  <Genealogy>  (64) 
C=c1oc(-c2cccc(C(=O)N3CCN(C4CCOCC4)CC3)c2)cc1=Cc1[n-]c(=O)[n-]c1[O-] (protonated)
C=c1oc(-c2cccc(C(=O)N3CCN(C4CCOCC4)CC3)c2)cc1=Cc1[n-]c(=O)[n-]c1[O-] (3D coordinates assigned)
C=c1oc(-c2cccc(C(=O)N3CCN(C4CCOCC4)CC3)c2)cc1=Cc1[n-]c(=O)[n-]c1[O-] (nonaromatic ring conformer: 155.9379825631414 kcal/mol)

>  <smiles>  (64) 
C=c1oc(-c2cccc(C(=O)N3CCN(C4CCOCC4)CC3)c2)cc1=Cc1[nH]c(=O)[nH]c1O

>  <score_type>  (64) 
oracle

>  <origin>  (64) 
adg

>  <m_score__min__energy>  (64) 
-20.050000000000001

>  <m_primary>  (64) 
energy

$$$$
64:0
     RDKit          3D

 52 55  0  0  0  0  0  0  0  0999 V2000
   56.2950   26.3260   46.3710 C   0  0  0  0  0  0  0  0  0  0  0  0
   57.6700   26.9340   46.3300 C   0  0  0  0  0  0  0  0  0  0  0  0
   57.8180   28.3270   46.4370 C   0  0  0  0  0  0  0  0  0  0  0  0
   59.0950   28.9240   46.4010 C   0  0  0  0  0  0  0  0  0  0  0  0
   59.2500   30.3540   46.5620 N   0  0  0  0  0  0  0  0  0  0  0  0
   60.4300   30.9650   47.0810 C   0  0  0  0  0  0  0  0  0  0  0  0
   61.3790   30.2930   47.5630 O   0  0  0  0  0  0  0  0  0  0  0  0
   60.4540   32.4390   47.0880 C   0  0  0  0  0  0  0  0  0  0  0  0
   58.7510   32.9940   46.7680 S   0  0  0  0  0  0  0  0  0  0  0  0
   58.1770   31.3140   46.3070 C   0  0  1  0  0  0  0  0  0  0  0  0
   57.7610   31.2890   44.8530 C   0  0  0  0  0  0  0  0  0  0  0  0
   58.2400   32.2680   43.9670 C   0  0  0  0  0  0  0  0  0  0  0  0
   57.8760   32.2390   42.6140 C   0  0  0  0  0  0  0  0  0  0  0  0
   57.0350   31.2320   42.1340 C   0  0  0  0  0  0  0  0  0  0  0  0
   56.5430   30.2610   43.0080 C   0  0  0  0  0  0  0  0  0  0  0  0
   56.8930   30.2940   44.3650 C   0  0  0  0  0  0  0  0  0  0  0  0
   60.2220   28.1030   46.2120 C   0  0  0  0  0  0  0  0  0  0  0  0
   60.0820   26.7180   46.1200 C   0  0  0  0  0  0  0  0  0  0  0  0
   58.8150   26.1280   46.1620 C   0  0  0  0  0  0  0  0  0  0  0  0
   58.7190   24.7360   46.0540 O   0  0  0  0  0  0  0  0  0  0  0  0
   57.8700   24.0520   45.1670 C   0  0  0  0  0  0  0  0  0  0  0  0
   57.6270   24.6350   43.9170 C   0  0  0  0  0  0  0  0  0  0  0  0
   56.7780   24.0190   42.9970 C   0  0  0  0  0  0  0  0  0  0  0  0
   56.1470   22.8190   43.3240 C   0  0  0  0  0  0  0  0  0  0  0  0
   56.3630   22.2340   44.5710 C   0  0  0  0  0  0  0  0  0  0  0  0
   57.2250   22.8390   45.5050 C   0  0  0  0  0  0  0  0  0  0  0  0
   57.4230   22.2740   46.8060 N   0  0  0  0  0  0  0  0  0  0  0  0
   56.4850   22.6120   48.2230 S   0  0  0  0  0  0  0  0  0  0  0  0
   55.4140   21.2270   48.5320 C   0  0  0  0  0  0  0  0  0  0  0  0
   57.4050   22.7990   49.4070 O   0  0  0  0  0  0  0  0  0  0  0  0
   55.6460   23.8500   48.0160 O   0  0  0  0  0  0  0  0  0  0  0  0
   55.9856   26.1892   47.4177 H   0  0  0  0  0  0  0  0  0  0  0  0
   55.5836   26.9935   45.8626 H   0  0  0  0  0  0  0  0  0  0  0  0
   56.3101   25.3506   45.8626 H   0  0  0  0  0  0  0  0  0  0  0  0
   56.9258   28.9604   46.5504 H   0  0  0  0  0  0  0  0  0  0  0  0
   60.7948   32.8075   48.0668 H   0  0  0  0  0  0  0  0  0  0  0  0
   61.1453   32.8261   46.3249 H   0  0  0  0  0  0  0  0  0  0  0  0
   57.3020   31.0387   46.9142 H   0  0  0  0  0  0  0  0  0  0  0  0
   58.9048   33.0622   44.3374 H   0  0  0  0  0  0  0  0  0  0  0  0
   58.2536   33.0114   41.9279 H   0  0  0  0  0  0  0  0  0  0  0  0
   56.7609   31.2043   41.0690 H   0  0  0  0  0  0  0  0  0  0  0  0
   55.8795   29.4686   42.6312 H   0  0  0  0  0  0  0  0  0  0  0  0
   56.4869   29.5377   45.0528 H   0  0  0  0  0  0  0  0  0  0  0  0
   61.2212   28.5567   46.1362 H   0  0  0  0  0  0  0  0  0  0  0  0
   60.9754   26.0851   46.0136 H   0  0  0  0  0  0  0  0  0  0  0  0
   58.1105   25.5884   43.6579 H   0  0  0  0  0  0  0  0  0  0  0  0
   56.6062   24.4801   42.0132 H   0  0  0  0  0  0  0  0  0  0  0  0
   55.4785   22.3338   42.5976 H   0  0  0  0  0  0  0  0  0  0  0  0
   55.8557   21.2921   44.8270 H   0  0  0  0  0  0  0  0  0  0  0  0
   55.3034   21.0840   49.6170 H   0  0  0  0  0  0  0  0  0  0  0  0
   54.4275   21.4195   48.0851 H   0  0  0  0  0  0  0  0  0  0  0  0
   55.8485   20.3206   48.0851 H   0  0  0  0  0  0  0  0  0  0  0  0
  1  2  1  0
  2  3  2  0
  3  4  1  0
  4  5  1  0
  5  6  1  0
  6  7  2  0
  6  8  1  0
  8  9  1  0
  9 10  1  0
 10 11  1  0
 11 12  2  0
 12 13  1  0
 13 14  2  0
 14 15  1  0
 15 16  2  0
  4 17  2  0
 17 18  1  0
 18 19  2  0
 19 20  1  0
 20 21  1  0
 21 22  2  0
 22 23  1  0
 23 24  2  0
 24 25  1  0
 25 26  2  0
 26 27  1  0
 27 28  1  0
 28 29  1  0
 28 30  2  0
 28 31  2  0
 19  2  1  0
 26 21  1  0
 10  5  1  0
 16 11  1  0
  1 32  1  0
  1 33  1  0
  1 34  1  0
  3 35  1  0
  8 36  1  0
  8 37  1  0
 10 38  1  1
 12 39  1  0
 13 40  1  0
 14 41  1  0
 15 42  1  0
 16 43  1  0
 17 44  1  0
 18 45  1  0
 22 46  1  0
 23 47  1  0
 24 48  1  0
 25 49  1  0
 29 50  1  0
 29 51  1  0
 29 52  1  0
M  CHG  1  27  -1
M  END
>  <UniqueID>  (65) 
62

>  <SMILES>  (65) 
Cc1cc(N2C(=O)CS[C@H]2c2ccccc2)ccc1Oc1ccccc1[N-]S(C)(=O)=O

>  <Energy>  (65) 
65.93519834132648

>  <Genealogy>  (65) 
Cc1cc(N2C(=O)CSC2c2ccccc2)ccc1Oc1ccccc1[N-]S(C)(=O)=O (protonated)
Cc1cc(N2C(=O)CS[C@H]2c2ccccc2)ccc1Oc1ccccc1[N-]S(C)(=O)=O (chirality)
Cc1cc(N2C(=O)CS[C@H]2c2ccccc2)ccc1Oc1ccccc1[N-]S(C)(=O)=O (3D coordinates assigned)
Cc1cc(N2C(=O)CS[C@H]2c2ccccc2)ccc1Oc1ccccc1[N-]S(C)(=O)=O (nonaromatic ring conformer: 65.93519834132648 kcal/mol)

>  <smiles>  (65) 
Cc1cc(N2C(=O)CSC2c2ccccc2)ccc1Oc1ccccc1NS(C)(=O)=O

>  <score_type>  (65) 
oracle

>  <origin>  (65) 
adg

>  <m_score__min__energy>  (65) 
-11.449999999999999

>  <m_primary>  (65) 
energy

$$$$
65:0
     RDKit          3D

 46 48  0  0  0  0  0  0  0  0999 V2000
   51.5710   32.7070   50.1830 O   0  0  0  0  0  0  0  0  0  0  0  0
   51.4010   32.2740   51.3530 C   0  0  0  0  0  0  0  0  0  0  0  0
   50.3280   32.7330   52.1080 O   0  0  0  0  0  0  0  0  0  0  0  0
   52.3310   31.2470   51.9160 C   0  0  0  0  0  0  0  0  0  0  0  0
   53.7040   31.5300   51.5050 N   0  0  0  0  0  0  0  0  0  0  0  0
   54.8370   31.1470   52.3020 C   0  0  0  0  0  0  0  0  0  0  0  0
   54.6620   30.4440   53.3350 O   0  0  0  0  0  0  0  0  0  0  0  0
   56.2140   31.5480   51.9220 C   0  0  0  0  0  0  0  0  0  0  0  0
   56.7360   32.7680   52.3780 C   0  0  0  0  0  0  0  0  0  0  0  0
   58.0270   33.1600   52.0280 C   0  0  0  0  0  0  0  0  0  0  0  0
   58.8230   32.3480   51.2100 C   0  0  0  0  0  0  0  0  0  0  0  0
   60.1240   32.8200   50.8300 N   0  0  0  0  0  0  0  0  0  0  0  0
   61.2500   32.6040   51.7490 C   0  0  0  0  0  0  0  0  0  0  0  0
   62.5660   32.5000   50.9790 C   0  0  0  0  0  0  0  0  0  0  0  0
   62.7160   33.6970   50.1020 C   0  0  0  0  0  0  0  0  0  0  0  0
   63.8570   34.1540   49.8330 O   0  0  0  0  0  0  0  0  0  0  0  0
   61.5530   34.3230   49.5610 N   0  0  0  0  0  0  0  0  0  0  0  0
   60.2260   33.7180   49.6670 C   0  0  0  0  0  0  0  0  0  0  0  0
   58.3170   31.1120   50.7400 C   0  0  0  0  0  0  0  0  0  0  0  0
   59.1320   30.1930   49.9060 C   0  0  0  0  0  0  0  0  0  0  0  0
   60.3440   29.9830   50.1830 O   0  0  0  0  0  0  0  0  0  0  0  0
   58.5360   29.5200   48.7890 N   0  0  0  0  0  0  0  0  0  0  0  0
   59.2310   29.2690   47.5330 C   0  0  0  0  0  0  0  0  0  0  0  0
   58.2550   28.8470   46.4790 C   0  0  0  0  0  0  0  0  0  0  0  0
   58.4640   27.8390   45.5550 C   0  0  0  0  0  0  0  0  0  0  0  0
   57.3080   27.7540   44.8130 C   0  0  0  0  0  0  0  0  0  0  0  0
   56.4620   28.7100   45.3320 C   0  0  0  0  0  0  0  0  0  0  0  0
   55.1770   28.9600   44.8710 O   0  0  0  0  0  0  0  0  0  0  0  0
   57.0250   29.3840   46.3530 N   0  0  0  0  0  0  0  0  0  0  0  0
   57.0070   30.7330   51.0960 C   0  0  0  0  0  0  0  0  0  0  0  0
   52.2696   31.2643   53.0141 H   0  0  0  0  0  0  0  0  0  0  0  0
   52.0408   30.2551   51.5391 H   0  0  0  0  0  0  0  0  0  0  0  0
   53.8480   31.9760   50.5730 H   0  0  0  0  0  0  0  0  0  0  0  0
   56.1218   33.4200   53.0165 H   0  0  0  0  0  0  0  0  0  0  0  0
   58.4247   34.1166   52.3979 H   0  0  0  0  0  0  0  0  0  0  0  0
   61.3090   33.4481   52.4518 H   0  0  0  0  0  0  0  0  0  0  0  0
   61.0849   31.6630   52.2942 H   0  0  0  0  0  0  0  0  0  0  0  0
   63.4053   32.4562   51.6888 H   0  0  0  0  0  0  0  0  0  0  0  0
   62.5634   31.5884   50.3634 H   0  0  0  0  0  0  0  0  0  0  0  0
   59.4775   34.5177   49.7682 H   0  0  0  0  0  0  0  0  0  0  0  0
   60.0490   33.1223   48.7593 H   0  0  0  0  0  0  0  0  0  0  0  0
   59.7407   30.1885   47.2094 H   0  0  0  0  0  0  0  0  0  0  0  0
   59.9671   28.4656   47.6837 H   0  0  0  0  0  0  0  0  0  0  0  0
   59.3713   27.2284   45.4371 H   0  0  0  0  0  0  0  0  0  0  0  0
   57.1023   27.0663   43.9795 H   0  0  0  0  0  0  0  0  0  0  0  0
   56.5983   29.7831   50.7210 H   0  0  0  0  0  0  0  0  0  0  0  0
  1  2  2  0
  2  3  1  0
  2  4  1  0
  4  5  1  0
  5  6  1  0
  6  7  2  0
  6  8  1  0
  8  9  2  0
  9 10  1  0
 10 11  2  0
 11 12  1  0
 12 13  1  0
 13 14  1  0
 14 15  1  0
 15 16  2  0
 15 17  1  0
 17 18  1  0
 11 19  1  0
 19 20  1  0
 20 21  2  0
 20 22  1  0
 22 23  1  0
 23 24  1  0
 24 25  2  0
 25 26  1  0
 26 27  2  0
 27 28  1  0
 27 29  1  0
 19 30  2  0
 30  8  1  0
 18 12  1  0
 29 24  1  0
  4 31  1  0
  4 32  1  0
  5 33  1  0
  9 34  1  0
 10 35  1  0
 13 36  1  0
 13 37  1  0
 14 38  1  0
 14 39  1  0
 18 40  1  0
 18 41  1  0
 23 42  1  0
 23 43  1  0
 25 44  1  0
 26 45  1  0
 30 46  1  0
M  CHG  5   3  -1  17  -1  22  -1  28  -1  29  -1
M  END
>  <UniqueID>  (66) 
63

>  <SMILES>  (66) 
O=C([O-])CNC(=O)c1ccc(N2CCC(=O)[N-]C2)c(C(=O)[N-]Cc2ccc([O-])[n-]2)c1

>  <Energy>  (66) 
77.64281108201347

>  <Genealogy>  (66) 
O=C([O-])CNC(=O)c1ccc(N2CCC(=O)[N-]C2)c(C(=O)[N-]Cc2ccc([O-])[n-]2)c1 (protonated)
O=C([O-])CNC(=O)c1ccc(N2CCC(=O)[N-]C2)c(C(=O)[N-]Cc2ccc([O-])[n-]2)c1 (3D coordinates assigned)
O=C([O-])CNC(=O)c1ccc(N2CCC(=O)[N-]C2)c(C(=O)[N-]Cc2ccc([O-])[n-]2)c1 (nonaromatic ring conformer: 77.64281108201347 kcal/mol)

>  <smiles>  (66) 
O=C(O)CNC(=O)c1ccc(N2CCC(=O)NC2)c(C(=O)NCc2ccc(O)[nH]2)c1

>  <score_type>  (66) 
oracle

>  <origin>  (66) 
adg

>  <m_score__min__energy>  (66) 
-17.059999999999999

>  <m_primary>  (66) 
energy

$$$$
66:0
     RDKit          3D

 40 42  0  0  0  0  0  0  0  0999 V2000
   61.1750   32.8910   52.4150 C   0  0  0  0  0  0  0  0  0  0  0  0
   60.8210   33.2250   50.9920 C   0  0  0  0  0  0  0  0  0  0  0  0
   61.7560   33.8840   50.1790 C   0  0  0  0  0  0  0  0  0  0  0  0
   61.4420   34.2080   48.8560 C   0  0  0  0  0  0  0  0  0  0  0  0
   60.1850   33.8870   48.3360 C   0  0  0  0  0  0  0  0  0  0  0  0
   59.7930   34.2980   46.6760 Cl  0  0  0  0  0  0  0  0  0  0  0  0
   59.2390   33.2460   49.1410 C   0  0  0  0  0  0  0  0  0  0  0  0
   59.5440   32.9200   50.4700 C   0  0  0  0  0  0  0  0  0  0  0  0
   58.5520   32.2740   51.2810 N   0  0  0  0  0  0  0  0  0  0  0  0
   58.6580   30.8380   51.5560 C   0  0  0  0  0  0  0  0  0  0  0  0
   57.2730   30.1830   51.4680 C   0  0  0  0  0  0  0  0  0  0  0  0
   56.2310   31.0080   52.1010 N   0  0  0  0  0  0  0  0  0  0  0  0
   54.8630   30.5550   52.0480 C   0  0  0  0  0  0  0  0  0  0  0  0
   54.6240   29.3200   51.9390 O   0  0  0  0  0  0  0  0  0  0  0  0
   53.7110   31.5240   52.1460 C   0  0  0  0  0  0  0  0  0  0  0  0
   52.6980   31.2980   51.0630 C   0  0  0  0  0  0  0  0  0  0  0  0
   52.7630   30.2980   50.1660 N   0  0  0  0  0  0  0  0  0  0  0  0
   51.6310   30.4570   49.4440 C   0  0  0  0  0  0  0  0  0  0  0  0
   51.3290   29.7000   48.4850 O   0  0  0  0  0  0  0  0  0  0  0  0
   50.8480   31.4860   49.8340 N   0  0  0  0  0  0  0  0  0  0  0  0
   51.5360   32.0030   50.8640 C   0  0  0  0  0  0  0  0  0  0  0  0
   51.1060   33.0930   51.6120 O   0  0  0  0  0  0  0  0  0  0  0  0
   56.6170   32.2320   52.8220 C   0  0  0  0  0  0  0  0  0  0  0  0
   57.5210   33.0910   51.9350 C   0  0  0  0  0  0  0  0  0  0  0  0
   60.5476   33.4830   53.0976 H   0  0  0  0  0  0  0  0  0  0  0  0
   61.0018   31.8196   52.5941 H   0  0  0  0  0  0  0  0  0  0  0  0
   62.2345   33.1261   52.5941 H   0  0  0  0  0  0  0  0  0  0  0  0
   62.7434   34.1475   50.5859 H   0  0  0  0  0  0  0  0  0  0  0  0
   62.1849   34.7161   48.2235 H   0  0  0  0  0  0  0  0  0  0  0  0
   58.2499   32.9960   48.7296 H   0  0  0  0  0  0  0  0  0  0  0  0
   59.3279   30.3741   50.8171 H   0  0  0  0  0  0  0  0  0  0  0  0
   59.0621   30.6932   52.5688 H   0  0  0  0  0  0  0  0  0  0  0  0
   57.0157   30.0375   50.4084 H   0  0  0  0  0  0  0  0  0  0  0  0
   57.3170   29.2226   52.0025 H   0  0  0  0  0  0  0  0  0  0  0  0
   53.2217   31.3975   53.1230 H   0  0  0  0  0  0  0  0  0  0  0  0
   54.1108   32.5424   52.0324 H   0  0  0  0  0  0  0  0  0  0  0  0
   55.7135   32.8022   53.0839 H   0  0  0  0  0  0  0  0  0  0  0  0
   57.1603   31.9584   53.7385 H   0  0  0  0  0  0  0  0  0  0  0  0
   56.9076   33.5800   51.1639 H   0  0  0  0  0  0  0  0  0  0  0  0
   58.0189   33.8413   52.5668 H   0  0  0  0  0  0  0  0  0  0  0  0
  1  2  1  0
  2  3  2  0
  3  4  1  0
  4  5  2  0
  5  6  1  0
  5  7  1  0
  7  8  2  0
  8  9  1  0
  9 10  1  0
 10 11  1  0
 11 12  1  0
 12 13  1  0
 13 14  2  0
 13 15  1  0
 15 16  1  0
 16 17  1  0
 17 18  1  0
 18 19  2  0
 18 20  1  0
 20 21  1  0
 21 22  1  0
 12 23  1  0
 23 24  1  0
  8  2  1  0
 24  9  1  0
 21 16  2  0
  1 25  1  0
  1 26  1  0
  1 27  1  0
  3 28  1  0
  4 29  1  0
  7 30  1  0
 10 31  1  0
 10 32  1  0
 11 33  1  0
 11 34  1  0
 15 35  1  0
 15 36  1  0
 23 37  1  0
 23 38  1  0
 24 39  1  0
 24 40  1  0
M  CHG  3  17  -1  20  -1  22  -1
M  END
>  <UniqueID>  (67) 
64

>  <SMILES>  (67) 
Cc1ccc(Cl)cc1N1CCN(C(=O)Cc2[n-]c(=O)[n-]c2[O-])CC1

>  <Energy>  (67) 
76.34614758687268

>  <Genealogy>  (67) 
Cc1ccc(Cl)cc1N1CCN(C(=O)Cc2[n-]c(=O)[n-]c2[O-])CC1 (protonated)
Cc1ccc(Cl)cc1N1CCN(C(=O)Cc2[n-]c(=O)[n-]c2[O-])CC1 (3D coordinates assigned)
Cc1ccc(Cl)cc1N1CCN(C(=O)Cc2[n-]c(=O)[n-]c2[O-])CC1 (nonaromatic ring conformer: 76.34614758687268 kcal/mol)

>  <smiles>  (67) 
Cc1ccc(Cl)cc1N1CCN(C(=O)Cc2[nH]c(=O)[nH]c2O)CC1

>  <score_type>  (67) 
oracle

>  <origin>  (67) 
adg

>  <m_score__min__energy>  (67) 
-15.44

>  <m_primary>  (67) 
energy

$$$$
67:0
     RDKit          3D

 46 48  0  0  0  0  0  0  0  0999 V2000
   59.1250   21.8500   45.2240 C   0  0  0  0  0  0  0  0  0  0  0  0
   57.8640   22.5000   44.7240 C   0  0  0  0  0  0  0  0  0  0  0  0
   57.3770   22.1670   43.4490 C   0  0  0  0  0  0  0  0  0  0  0  0
   56.2060   22.7480   42.9650 C   0  0  0  0  0  0  0  0  0  0  0  0
   55.5130   23.6770   43.7390 C   0  0  0  0  0  0  0  0  0  0  0  0
   55.9890   24.0440   45.0070 C   0  0  0  0  0  0  0  0  0  0  0  0
   55.2490   25.0680   45.7830 C   0  0  0  0  0  0  0  0  0  0  0  0
   54.0020   25.1680   45.6350 O   0  0  0  0  0  0  0  0  0  0  0  0
   55.9010   25.9350   46.7220 N   0  0  0  0  0  0  0  0  0  0  0  0
   57.0540   26.7520   46.4720 C   0  0  0  0  0  0  0  0  0  0  0  0
   58.1470   26.6620   47.3410 C   0  0  0  0  0  0  0  0  0  0  0  0
   59.2880   27.4390   47.1230 C   0  0  0  0  0  0  0  0  0  0  0  0
   59.3400   28.3220   46.0410 C   0  0  0  0  0  0  0  0  0  0  0  0
   58.2400   28.4410   45.1730 C   0  0  0  0  0  0  0  0  0  0  0  0
   58.2460   29.3350   44.0530 N   0  0  0  0  0  0  0  0  0  0  0  0
   56.9900   30.4660   43.6640 S   0  0  0  0  0  0  0  0  0  0  0  0
   56.2970   30.0420   42.4000 O   0  0  0  0  0  0  0  0  0  0  0  0
   56.0010   30.5350   44.7930 O   0  0  0  0  0  0  0  0  0  0  0  0
   57.7130   32.0790   43.4300 C   0  0  0  0  0  0  0  0  0  0  0  0
   58.1090   32.6700   44.7540 C   0  0  0  0  0  0  0  0  0  0  0  0
   58.3520   34.0490   44.8700 C   0  0  0  0  0  0  0  0  0  0  0  0
   58.7580   34.5920   46.0930 C   0  0  0  0  0  0  0  0  0  0  0  0
   58.9300   33.7630   47.2050 C   0  0  0  0  0  0  0  0  0  0  0  0
   58.7010   32.3890   47.0940 C   0  0  0  0  0  0  0  0  0  0  0  0
   58.2950   31.8420   45.8730 C   0  0  0  0  0  0  0  0  0  0  0  0
   57.0980   27.6660   45.4030 C   0  0  0  0  0  0  0  0  0  0  0  0
   57.1540   23.4320   45.5180 C   0  0  0  0  0  0  0  0  0  0  0  0
   57.5780   23.7480   46.8130 O   0  0  0  0  0  0  0  0  0  0  0  0
   59.1260   21.8495   46.3240 H   0  0  0  0  0  0  0  0  0  0  0  0
   59.1741   20.8143   44.8568 H   0  0  0  0  0  0  0  0  0  0  0  0
   59.9971   22.4109   44.8568 H   0  0  0  0  0  0  0  0  0  0  0  0
   57.9239   21.4423   42.8279 H   0  0  0  0  0  0  0  0  0  0  0  0
   55.8279   22.4725   41.9695 H   0  0  0  0  0  0  0  0  0  0  0  0
   54.5859   24.1259   43.3530 H   0  0  0  0  0  0  0  0  0  0  0  0
   58.1080   25.9762   48.2001 H   0  0  0  0  0  0  0  0  0  0  0  0
   60.1472   27.3554   47.8047 H   0  0  0  0  0  0  0  0  0  0  0  0
   60.2434   28.9253   45.8679 H   0  0  0  0  0  0  0  0  0  0  0  0
   58.6045   31.9880   42.7920 H   0  0  0  0  0  0  0  0  0  0  0  0
   56.9727   32.7370   42.9514 H   0  0  0  0  0  0  0  0  0  0  0  0
   58.2224   34.7038   43.9957 H   0  0  0  0  0  0  0  0  0  0  0  0
   58.9422   35.6730   46.1800 H   0  0  0  0  0  0  0  0  0  0  0  0
   59.2456   34.1921   48.1674 H   0  0  0  0  0  0  0  0  0  0  0  0
   58.8404   31.7367   47.9687 H   0  0  0  0  0  0  0  0  0  0  0  0
   58.1206   30.7592   45.7885 H   0  0  0  0  0  0  0  0  0  0  0  0
   56.2257   27.7723   44.7414 H   0  0  0  0  0  0  0  0  0  0  0  0
   57.1570   24.4770   47.3740 H   0  0  0  0  0  0  0  0  0  0  0  0
  1  2  1  0
  2  3  2  0
  3  4  1  0
  4  5  2  0
  5  6  1  0
  6  7  1  0
  7  8  2  0
  7  9  1  0
  9 10  1  0
 10 11  2  0
 11 12  1  0
 12 13  2  0
 13 14  1  0
 14 15  1  0
 15 16  1  0
 16 17  2  0
 16 18  2  0
 16 19  1  0
 19 20  1  0
 20 21  2  0
 21 22  1  0
 22 23  2  0
 23 24  1  0
 24 25  2  0
 14 26  2  0
  6 27  2  0
 27 28  1  0
 27  2  1  0
 26 10  1  0
 25 20  1  0
  1 29  1  0
  1 30  1  0
  1 31  1  0
  3 32  1  0
  4 33  1  0
  5 34  1  0
 11 35  1  0
 12 36  1  0
 13 37  1  0
 19 38  1  0
 19 39  1  0
 21 40  1  0
 22 41  1  0
 23 42  1  0
 24 43  1  0
 25 44  1  0
 26 45  1  0
 28 46  1  0
M  CHG  2   9  -1  15  -1
M  END
>  <UniqueID>  (68) 
65

>  <SMILES>  (68) 
Cc1cccc(C(=O)[N-]c2cccc([N-]S(=O)(=O)Cc3ccccc3)c2)c1O

>  <Energy>  (68) 
54.96450700493448

>  <Genealogy>  (68) 
Cc1cccc(C(=O)[N-]c2cccc([N-]S(=O)(=O)Cc3ccccc3)c2)c1O (protonated)
Cc1cccc(C(=O)[N-]c2cccc([N-]S(=O)(=O)Cc3ccccc3)c2)c1O (3D coordinates assigned)
Cc1cccc(C(=O)[N-]c2cccc([N-]S(=O)(=O)Cc3ccccc3)c2)c1O (optimized conformer: 54.96450700493448 kcal/mol)

>  <smiles>  (68) 
Cc1cccc(C(=O)Nc2cccc(NS(=O)(=O)Cc3ccccc3)c2)c1O

>  <score_type>  (68) 
oracle

>  <origin>  (68) 
adg

>  <m_score__min__energy>  (68) 
-12.69

>  <m_primary>  (68) 
energy

$$$$
68:0
     RDKit          3D

 53 56  0  0  0  0  0  0  0  0999 V2000
   58.2330   34.7870   45.2770 O   0  0  0  0  0  0  0  0  0  0  0  0
   58.6270   33.6000   45.4430 C   0  0  0  0  0  0  0  0  0  0  0  0
   58.0290   32.5210   44.6300 C   0  0  0  0  0  0  0  0  0  0  0  0
   58.0890   32.5710   43.2270 C   0  0  0  0  0  0  0  0  0  0  0  0
   57.4740   31.5760   42.4580 C   0  0  0  0  0  0  0  0  0  0  0  0
   56.8130   30.5110   43.0850 C   0  0  0  0  0  0  0  0  0  0  0  0
   56.2000   29.5190   42.3150 O   0  0  0  0  0  0  0  0  0  0  0  0
   56.7870   30.4280   44.4910 C   0  0  0  0  0  0  0  0  0  0  0  0
   56.1570   29.3030   45.1200 N   0  0  0  0  0  0  0  0  0  0  0  0
   56.9150   27.7470   45.2570 S   0  0  0  0  0  0  0  0  0  0  0  0
   57.4060   27.3230   43.8970 O   0  0  0  0  0  0  0  0  0  0  0  0
   55.9470   26.7130   45.7640 O   0  0  0  0  0  0  0  0  0  0  0  0
   58.2930   27.9080   46.3470 C   0  0  0  0  0  0  0  0  0  0  0  0
   58.4880   26.9560   47.3700 C   0  0  0  0  0  0  0  0  0  0  0  0
   59.6430   26.9970   48.1670 C   0  0  0  0  0  0  0  0  0  0  0  0
   60.6070   27.9930   47.9560 C   0  0  0  0  0  0  0  0  0  0  0  0
   60.4150   28.9480   46.9450 C   0  0  0  0  0  0  0  0  0  0  0  0
   59.2630   28.9050   46.1390 C   0  0  0  0  0  0  0  0  0  0  0  0
   57.3910   31.4410   45.2550 C   0  0  0  0  0  0  0  0  0  0  0  0
   59.6280   33.3090   46.4380 N   0  0  0  0  0  0  0  0  0  0  0  0
   59.5070   32.0830   47.2500 C   0  0  0  0  0  0  0  0  0  0  0  0
   60.5660   32.0300   48.3540 C   0  0  0  0  0  0  0  0  0  0  0  0
   60.6740   33.3400   49.0070 N   0  0  0  0  0  0  0  0  0  0  0  0
   60.5110   33.4410   50.4270 C   0  0  0  0  0  0  0  0  0  0  0  0
   59.2310   33.6240   50.9780 C   0  0  0  0  0  0  0  0  0  0  0  0
   59.0670   33.7260   52.3660 C   0  0  0  0  0  0  0  0  0  0  0  0
   60.1780   33.6410   53.2100 C   0  0  0  0  0  0  0  0  0  0  0  0
   61.4580   33.4690   52.6660 C   0  0  0  0  0  0  0  0  0  0  0  0
   61.6280   33.3690   51.2800 C   0  0  0  0  0  0  0  0  0  0  0  0
   62.8800   33.1950   50.7720 F   0  0  0  0  0  0  0  0  0  0  0  0
   60.7950   34.5690   48.2120 C   0  0  0  0  0  0  0  0  0  0  0  0
   60.7160   34.2670   46.7070 C   0  0  0  0  0  0  0  0  0  0  0  0
   58.6216   33.3957   42.7308 H   0  0  0  0  0  0  0  0  0  0  0  0
   57.5096   31.6301   41.3599 H   0  0  0  0  0  0  0  0  0  0  0  0
   56.1460   28.5520   42.6270 H   0  0  0  0  0  0  0  0  0  0  0  0
   57.7308   26.1773   47.5440 H   0  0  0  0  0  0  0  0  0  0  0  0
   59.7918   26.2470   48.9578 H   0  0  0  0  0  0  0  0  0  0  0  0
   61.5115   28.0261   48.5811 H   0  0  0  0  0  0  0  0  0  0  0  0
   61.1683   29.7329   46.7825 H   0  0  0  0  0  0  0  0  0  0  0  0
   59.1205   29.6524   45.3446 H   0  0  0  0  0  0  0  0  0  0  0  0
   57.3628   31.3858   46.3533 H   0  0  0  0  0  0  0  0  0  0  0  0
   58.5089   32.0579   47.7116 H   0  0  0  0  0  0  0  0  0  0  0  0
   59.6566   31.2168   46.5887 H   0  0  0  0  0  0  0  0  0  0  0  0
   60.2783   31.2738   49.0992 H   0  0  0  0  0  0  0  0  0  0  0  0
   61.5375   31.7653   47.9111 H   0  0  0  0  0  0  0  0  0  0  0  0
   58.3542   33.6874   50.3169 H   0  0  0  0  0  0  0  0  0  0  0  0
   58.0634   33.8730   52.7916 H   0  0  0  0  0  0  0  0  0  0  0  0
   60.0477   33.7090   54.3001 H   0  0  0  0  0  0  0  0  0  0  0  0
   62.3326   33.4123   53.3307 H   0  0  0  0  0  0  0  0  0  0  0  0
   59.9785   35.2541   48.4839 H   0  0  0  0  0  0  0  0  0  0  0  0
   61.7723   35.0269   48.4247 H   0  0  0  0  0  0  0  0  0  0  0  0
   60.5224   35.2006   46.1584 H   0  0  0  0  0  0  0  0  0  0  0  0
   61.6700   33.8296   46.3774 H   0  0  0  0  0  0  0  0  0  0  0  0
  1  2  2  0
  2  3  1  0
  3  4  2  0
  4  5  1  0
  5  6  2  0
  6  7  1  0
  6  8  1  0
  8  9  1  0
  9 10  1  0
 10 11  2  0
 10 12  2  0
 10 13  1  0
 13 14  2  0
 14 15  1  0
 15 16  2  0
 16 17  1  0
 17 18  2  0
  8 19  2  0
  2 20  1  0
 20 21  1  0
 21 22  1  0
 22 23  1  0
 23 24  1  0
 24 25  2  0
 25 26  1  0
 26 27  2  0
 27 28  1  0
 28 29  2  0
 29 30  1  0
 23 31  1  0
 31 32  1  0
 19  3  1  0
 32 20  1  0
 18 13  1  0
 29 24  1  0
  4 33  1  0
  5 34  1  0
  7 35  1  0
 14 36  1  0
 15 37  1  0
 16 38  1  0
 17 39  1  0
 18 40  1  0
 19 41  1  0
 21 42  1  0
 21 43  1  0
 22 44  1  0
 22 45  1  0
 25 46  1  0
 26 47  1  0
 27 48  1  0
 28 49  1  0
 31 50  1  0
 31 51  1  0
 32 52  1  0
 32 53  1  0
M  CHG  1   9  -1
M  END
>  <UniqueID>  (69) 
66

>  <SMILES>  (69) 
O=C(c1ccc(O)c([N-]S(=O)(=O)c2ccccc2)c1)N1CCN(c2ccccc2F)CC1

>  <Energy>  (69) 
74.51682289559224

>  <Genealogy>  (69) 
O=C(c1ccc(O)c([N-]S(=O)(=O)c2ccccc2)c1)N1CCN(c2ccccc2F)CC1 (protonated)
O=C(c1ccc(O)c([N-]S(=O)(=O)c2ccccc2)c1)N1CCN(c2ccccc2F)CC1 (3D coordinates assigned)
O=C(c1ccc(O)c([N-]S(=O)(=O)c2ccccc2)c1)N1CCN(c2ccccc2F)CC1 (nonaromatic ring conformer: 74.51682289559224 kcal/mol)

>  <smiles>  (69) 
O=C(c1ccc(O)c(NS(=O)(=O)c2ccccc2)c1)N1CCN(c2ccccc2F)CC1

>  <score_type>  (69) 
oracle

>  <origin>  (69) 
adg

>  <m_score__min__energy>  (69) 
-11.26

>  <m_primary>  (69) 
energy

$$$$
69:0
     RDKit          3D

 40 42  0  0  0  0  0  0  0  0999 V2000
   56.6720   31.1140   44.4340 O   0  0  0  0  0  0  0  0  0  0  0  0
   57.1200   30.2440   45.2270 C   0  0  0  0  0  0  0  0  0  0  0  0
   56.5320   28.9390   45.2300 N   0  0  0  0  0  0  0  0  0  0  0  0
   57.0360   27.8280   45.6950 C   0  0  0  0  0  0  0  0  0  0  0  0
   58.3850   27.7710   45.8720 N   0  0  0  0  0  0  0  0  0  0  0  0
   59.0160   26.6640   46.3430 C   0  0  0  0  0  0  0  0  0  0  0  0
   58.2790   25.5270   46.6690 C   0  0  0  0  0  0  0  0  0  0  0  0
   56.8930   25.5510   46.5280 C   0  0  0  0  0  0  0  0  0  0  0  0
   56.2530   26.7010   46.0580 C   0  0  0  0  0  0  0  0  0  0  0  0
   54.8640   26.7100   46.0070 O   0  0  0  0  0  0  0  0  0  0  0  0
   58.1640   30.5670   46.1610 N   0  0  0  0  0  0  0  0  0  0  0  0
   58.8290   31.8400   46.2210 C   0  0  0  0  0  0  0  0  0  0  0  0
   58.1340   33.0440   46.0090 C   0  0  0  0  0  0  0  0  0  0  0  0
   58.8040   34.2680   46.0940 C   0  0  0  0  0  0  0  0  0  0  0  0
   60.1650   34.3040   46.4060 C   0  0  0  0  0  0  0  0  0  0  0  0
   60.8610   33.1130   46.6470 C   0  0  0  0  0  0  0  0  0  0  0  0
   62.5700   33.1480   47.0740 S   0  0  0  0  0  0  0  0  0  0  0  0
   63.3890   33.7230   45.9520 O   0  0  0  0  0  0  0  0  0  0  0  0
   63.0300   31.7450   47.3480 O   0  0  0  0  0  0  0  0  0  0  0  0
   62.8030   34.1110   48.4970 N   0  0  0  0  0  0  0  0  0  0  0  0
   62.2330   33.8350   49.7830 C   0  0  0  0  0  0  0  0  0  0  0  0
   63.0840   33.7700   50.8950 C   0  0  0  0  0  0  0  0  0  0  0  0
   62.5710   33.4920   52.1650 C   0  0  0  0  0  0  0  0  0  0  0  0
   61.2010   33.2750   52.3340 C   0  0  0  0  0  0  0  0  0  0  0  0
   60.3410   33.3420   51.2330 C   0  0  0  0  0  0  0  0  0  0  0  0
   58.6220   33.0690   51.4460 Cl  0  0  0  0  0  0  0  0  0  0  0  0
   60.8520   33.6250   49.9610 C   0  0  0  0  0  0  0  0  0  0  0  0
   60.1900   31.8860   46.5580 C   0  0  0  0  0  0  0  0  0  0  0  0
   60.1090   26.6651   46.4671 H   0  0  0  0  0  0  0  0  0  0  0  0
   58.7856   24.6211   47.0334 H   0  0  0  0  0  0  0  0  0  0  0  0
   56.3003   24.6614   46.7876 H   0  0  0  0  0  0  0  0  0  0  0  0
   58.5410   29.7940   46.7530 H   0  0  0  0  0  0  0  0  0  0  0  0
   57.0593   33.0226   45.7754 H   0  0  0  0  0  0  0  0  0  0  0  0
   58.2576   35.2057   45.9146 H   0  0  0  0  0  0  0  0  0  0  0  0
   60.6905   35.2687   46.4624 H   0  0  0  0  0  0  0  0  0  0  0  0
   64.1634   33.9390   50.7671 H   0  0  0  0  0  0  0  0  0  0  0  0
   63.2462   33.4440   53.0321 H   0  0  0  0  0  0  0  0  0  0  0  0
   60.7988   33.0514   53.3331 H   0  0  0  0  0  0  0  0  0  0  0  0
   60.1727   33.6835   49.0978 H   0  0  0  0  0  0  0  0  0  0  0  0
   60.7351   30.9509   46.7541 H   0  0  0  0  0  0  0  0  0  0  0  0
  1  2  2  0
  2  3  1  0
  3  4  2  3
  4  5  1  0
  5  6  1  0
  6  7  2  0
  7  8  1  0
  8  9  2  0
  9 10  1  0
  2 11  1  0
 11 12  1  0
 12 13  2  0
 13 14  1  0
 14 15  2  0
 15 16  1  0
 16 17  1  0
 17 18  2  0
 17 19  2  0
 17 20  1  0
 20 21  1  0
 21 22  2  0
 22 23  1  0
 23 24  2  0
 24 25  1  0
 25 26  1  0
 25 27  2  0
 16 28  2  0
  9  4  1  0
 28 12  1  0
 27 21  1  0
  6 29  1  0
  7 30  1  0
  8 31  1  0
 11 32  1  0
 13 33  1  0
 14 34  1  0
 15 35  1  0
 22 36  1  0
 23 37  1  0
 24 38  1  0
 27 39  1  0
 28 40  1  0
M  CHG  3   5  -1  10  -1  20  -1
M  END
>  <UniqueID>  (70) 
67

>  <SMILES>  (70) 
O=C(N=c1[n-]cccc1[O-])Nc1cccc(S(=O)(=O)[N-]c2cccc(Cl)c2)c1

>  <Energy>  (70) 
62.060068482839746

>  <Genealogy>  (70) 
O=C(N=c1[n-]cccc1[O-])Nc1cccc(S(=O)(=O)[N-]c2cccc(Cl)c2)c1 (protonated)
O=C(N=c1[n-]cccc1[O-])Nc1cccc(S(=O)(=O)[N-]c2cccc(Cl)c2)c1 (3D coordinates assigned)
O=C(N=c1[n-]cccc1[O-])Nc1cccc(S(=O)(=O)[N-]c2cccc(Cl)c2)c1 (optimized conformer: 62.060068482839746 kcal/mol)

>  <smiles>  (70) 
O=C(N=c1[nH]cccc1O)Nc1cccc(S(=O)(=O)Nc2cccc(Cl)c2)c1

>  <score_type>  (70) 
oracle

>  <origin>  (70) 
adg

>  <m_score__min__energy>  (70) 
-15.470000000000001

>  <m_primary>  (70) 
energy

$$$$
70:0
     RDKit          3D

 52 54  0  0  0  0  0  0  0  0999 V2000
   57.3220   28.1890   43.2830 N   0  0  0  0  0  0  0  0  0  0  0  0
   56.6170   29.2690   42.5990 C   0  0  0  0  0  0  0  0  0  0  0  0
   56.9880   30.5930   43.2110 C   0  0  0  0  0  0  0  0  0  0  0  0
   56.6860   30.8580   44.5530 C   0  0  0  0  0  0  0  0  0  0  0  0
   57.0520   32.0770   45.1320 C   0  0  0  0  0  0  0  0  0  0  0  0
   57.7410   33.0480   44.3860 C   0  0  0  0  0  0  0  0  0  0  0  0
   58.0890   34.3310   45.0500 C   0  0  0  0  0  0  0  0  0  0  0  0
   59.1470   34.5050   45.8550 C   0  0  0  0  0  0  0  0  0  0  0  0
   59.3140   33.7410   47.1030 C   0  0  0  0  0  0  0  0  0  0  0  0
   58.6080   34.0000   48.1170 O   0  0  0  0  0  0  0  0  0  0  0  0
   60.2880   32.6940   47.1550 N   0  0  0  0  0  0  0  0  0  0  0  0
   60.4180   31.7670   48.2730 C   0  0  0  0  0  0  0  0  0  0  0  0
   59.9180   30.4040   47.8760 C   0  0  0  0  0  0  0  0  0  0  0  0
   58.6930   30.2610   47.2130 C   0  0  0  0  0  0  0  0  0  0  0  0
   58.2600   29.0010   46.7980 C   0  0  0  0  0  0  0  0  0  0  0  0
   59.0400   27.8570   47.0440 C   0  0  0  0  0  0  0  0  0  0  0  0
   58.5300   26.5070   46.5970 C   0  0  0  0  0  0  0  0  0  0  0  0
   57.4690   26.6580   45.6020 N   0  0  0  0  0  0  0  0  0  0  0  0
   57.0390   25.6400   44.6890 C   0  0  0  0  0  0  0  0  0  0  0  0
   57.7300   25.4090   43.6640 O   0  0  0  0  0  0  0  0  0  0  0  0
   55.8230   24.8400   44.9300 C   0  0  0  0  0  0  0  0  0  0  0  0
   54.7280   25.3950   45.6110 C   0  0  0  0  0  0  0  0  0  0  0  0
   54.7720   26.7030   46.0760 O   0  0  0  0  0  0  0  0  0  0  0  0
   53.6040   24.6570   45.8050 N   0  0  0  0  0  0  0  0  0  0  0  0
   53.5210   23.3780   45.3580 C   0  0  0  0  0  0  0  0  0  0  0  0
   52.4690   22.7150   45.5410 O   0  0  0  0  0  0  0  0  0  0  0  0
   54.5730   22.8130   44.7140 N   0  0  0  0  0  0  0  0  0  0  0  0
   55.7200   23.5080   44.4970 C   0  0  0  0  0  0  0  0  0  0  0  0
   56.6880   22.9430   43.9190 O   0  0  0  0  0  0  0  0  0  0  0  0
   60.2780   28.0000   47.7130 C   0  0  0  0  0  0  0  0  0  0  0  0
   61.1050   26.9100   47.9890 O   0  0  0  0  0  0  0  0  0  0  0  0
   60.7070   29.2710   48.1150 C   0  0  0  0  0  0  0  0  0  0  0  0
   58.0480   32.7730   43.0370 C   0  0  0  0  0  0  0  0  0  0  0  0
   57.6810   31.5530   42.4610 C   0  0  0  0  0  0  0  0  0  0  0  0
   56.8400   28.0210   44.1950 H   0  0  0  0  0  0  0  0  0  0  0  0
   57.2060   27.3160   42.7200 H   0  0  0  0  0  0  0  0  0  0  0  0
   56.8947   29.2689   41.5346 H   0  0  0  0  0  0  0  0  0  0  0  0
   55.5327   29.1146   42.7011 H   0  0  0  0  0  0  0  0  0  0  0  0
   56.1582   30.1032   45.1544 H   0  0  0  0  0  0  0  0  0  0  0  0
   56.7977   32.2780   46.1832 H   0  0  0  0  0  0  0  0  0  0  0  0
   57.4345   35.1963   44.8689 H   0  0  0  0  0  0  0  0  0  0  0  0
   59.9144   35.2415   45.5745 H   0  0  0  0  0  0  0  0  0  0  0  0
   61.4761   31.6955   48.5651 H   0  0  0  0  0  0  0  0  0  0  0  0
   59.8202   32.1373   49.1189 H   0  0  0  0  0  0  0  0  0  0  0  0
   58.0692   31.1459   47.0184 H   0  0  0  0  0  0  0  0  0  0  0  0
   57.2985   28.9016   46.2730 H   0  0  0  0  0  0  0  0  0  0  0  0
   59.3600   25.9356   46.1558 H   0  0  0  0  0  0  0  0  0  0  0  0
   58.1226   25.9764   47.4702 H   0  0  0  0  0  0  0  0  0  0  0  0
   61.4530   26.2840   47.2750 H   0  0  0  0  0  0  0  0  0  0  0  0
   61.6755   29.3813   48.6248 H   0  0  0  0  0  0  0  0  0  0  0  0
   58.5799   33.5236   42.4339 H   0  0  0  0  0  0  0  0  0  0  0  0
   57.9380   31.3452   41.4118 H   0  0  0  0  0  0  0  0  0  0  0  0
  1  2  1  0
  2  3  1  0
  3  4  2  0
  4  5  1  0
  5  6  2  0
  6  7  1  0
  7  8  2  3
  8  9  1  0
  9 10  2  0
  9 11  1  0
 11 12  1  0
 12 13  1  0
 13 14  2  0
 14 15  1  0
 15 16  2  0
 16 17  1  0
 17 18  1  0
 18 19  1  0
 19 20  2  0
 19 21  1  0
 21 22  2  0
 22 23  1  0
 22 24  1  0
 24 25  1  0
 25 26  2  0
 25 27  1  0
 27 28  1  0
 28 29  2  0
 16 30  1  0
 30 31  1  0
 30 32  2  0
  6 33  1  0
 33 34  2  0
 34  3  1  0
 32 13  1  0
 28 21  1  0
  1 35  1  0
  1 36  1  0
  2 37  1  0
  2 38  1  0
  4 39  1  0
  5 40  1  0
  7 41  1  0
  8 42  1  0
 12 43  1  0
 12 44  1  0
 14 45  1  0
 15 46  1  0
 17 47  1  0
 17 48  1  0
 31 49  1  0
 32 50  1  0
 33 51  1  0
 34 52  1  0
M  CHG  5  11  -1  18  -1  23  -1  24  -1  27  -1
M  END
>  <UniqueID>  (71) 
68

>  <SMILES>  (71) 
NCc1ccc(C=CC(=O)[N-]Cc2ccc(C[N-]C(=O)c3c([O-])[n-]c(=O)[n-]c3=O)c(O)c2)cc1

>  <Energy>  (71) 
58.50873686870572

>  <Genealogy>  (71) 
NCc1ccc(C=CC(=O)[N-]Cc2ccc(C[N-]C(=O)c3c([O-])[n-]c(=O)[n-]c3=O)c(O)c2)cc1 (protonated)
NCc1ccc(C=CC(=O)[N-]Cc2ccc(C[N-]C(=O)c3c([O-])[n-]c(=O)[n-]c3=O)c(O)c2)cc1 (3D coordinates assigned)
NCc1ccc(C=CC(=O)[N-]Cc2ccc(C[N-]C(=O)c3c([O-])[n-]c(=O)[n-]c3=O)c(O)c2)cc1 (optimized conformer: 58.50873686870572 kcal/mol)

>  <smiles>  (71) 
NCc1ccc(C=CC(=O)NCc2ccc(CNC(=O)c3c(O)[nH]c(=O)[nH]c3=O)c(O)c2)cc1

>  <score_type>  (71) 
oracle

>  <origin>  (71) 
adg

>  <m_score__min__energy>  (71) 
-19.969999999999999

>  <m_primary>  (71) 
energy

$$$$
71:0
     RDKit          3D

 49 51  0  0  0  0  0  0  0  0999 V2000
   55.1120   29.3720   44.7580 O   0  0  0  0  0  0  0  0  0  0  0  0
   56.2540   29.8430   44.5130 C   0  0  0  0  0  0  0  0  0  0  0  0
   57.2970   28.9410   43.9070 C   0  0  0  0  0  0  0  0  0  0  0  0
   57.5430   27.7950   44.7750 N   0  0  0  0  0  0  0  0  0  0  0  0
   58.0470   27.9100   46.1110 C   0  0  0  0  0  0  0  0  0  0  0  0
   58.6700   28.9480   46.4710 O   0  0  0  0  0  0  0  0  0  0  0  0
   57.7640   26.8160   47.0950 C   0  0  0  0  0  0  0  0  0  0  0  0
   57.1890   25.5920   46.4200 C   0  0  0  0  0  0  0  0  0  0  0  0
   58.0020   24.4520   46.2640 C   0  0  0  0  0  0  0  0  0  0  0  0
   57.5070   23.3030   45.6420 C   0  0  0  0  0  0  0  0  0  0  0  0
   56.1990   23.2830   45.1520 C   0  0  0  0  0  0  0  0  0  0  0  0
   55.3840   24.4100   45.2850 C   0  0  0  0  0  0  0  0  0  0  0  0
   55.8670   25.5680   45.9090 C   0  0  0  0  0  0  0  0  0  0  0  0
   55.0190   26.6720   45.9910 O   0  0  0  0  0  0  0  0  0  0  0  0
   56.5110   31.2220   44.8170 N   0  0  0  0  0  0  0  0  0  0  0  0
   57.5230   32.0650   44.1900 C   0  0  0  0  0  0  0  0  0  0  0  0
   58.2280   32.8860   45.2210 C   0  0  0  0  0  0  0  0  0  0  0  0
   58.2590   32.5670   46.5320 N   0  0  0  0  0  0  0  0  0  0  0  0
   58.9840   33.4580   47.2610 C   0  0  0  0  0  0  0  0  0  0  0  0
   59.1450   33.3370   48.7280 C   0  0  0  0  0  0  0  0  0  0  0  0
   59.6420   34.3070   49.3660 O   0  0  0  0  0  0  0  0  0  0  0  0
   58.7420   32.1530   49.4490 N   0  0  0  0  0  0  0  0  0  0  0  0
   58.0950   32.2900   50.7590 C   0  0  0  0  0  0  0  0  0  0  0  0
   58.4020   31.0690   51.6330 C   0  0  0  0  0  0  0  0  0  0  0  0
   58.1110   29.8700   50.9400 O   0  0  0  0  0  0  0  0  0  0  0  0
   58.9880   29.7360   49.8390 C   0  0  0  0  0  0  0  0  0  0  0  0
   58.7240   30.8340   48.8030 C   0  0  0  0  0  0  0  0  0  0  0  0
   59.5370   34.5040   46.5210 C   0  0  0  0  0  0  0  0  0  0  0  0
   59.1110   34.2810   44.9090 S   0  0  0  0  0  0  0  0  0  0  0  0
   56.9440   28.5851   42.9278 H   0  0  0  0  0  0  0  0  0  0  0  0
   58.2330   29.5066   43.7881 H   0  0  0  0  0  0  0  0  0  0  0  0
   58.7017   26.5380   47.5985 H   0  0  0  0  0  0  0  0  0  0  0  0
   57.0236   27.1884   47.8183 H   0  0  0  0  0  0  0  0  0  0  0  0
   59.0372   24.4667   46.6357 H   0  0  0  0  0  0  0  0  0  0  0  0
   58.1471   22.4144   45.5382 H   0  0  0  0  0  0  0  0  0  0  0  0
   55.8102   22.3788   44.6608 H   0  0  0  0  0  0  0  0  0  0  0  0
   54.3550   24.3881   44.8968 H   0  0  0  0  0  0  0  0  0  0  0  0
   55.1450   27.5100   45.4410 H   0  0  0  0  0  0  0  0  0  0  0  0
   58.2546   31.4282   43.6712 H   0  0  0  0  0  0  0  0  0  0  0  0
   57.0320   32.7383   43.4719 H   0  0  0  0  0  0  0  0  0  0  0  0
   58.4707   33.1963   51.2565 H   0  0  0  0  0  0  0  0  0  0  0  0
   57.0069   32.3632   50.6153 H   0  0  0  0  0  0  0  0  0  0  0  0
   59.4678   31.0789   51.9051 H   0  0  0  0  0  0  0  0  0  0  0  0
   57.7762   31.1153   52.5364 H   0  0  0  0  0  0  0  0  0  0  0  0
   60.0267   29.8145   50.1924 H   0  0  0  0  0  0  0  0  0  0  0  0
   58.8195   28.7562   49.3683 H   0  0  0  0  0  0  0  0  0  0  0  0
   59.5038   30.7979   48.0280 H   0  0  0  0  0  0  0  0  0  0  0  0
   57.7360   30.6695   48.3482 H   0  0  0  0  0  0  0  0  0  0  0  0
   60.1445   35.3290   46.9213 H   0  0  0  0  0  0  0  0  0  0  0  0
  1  2  2  0
  2  3  1  0
  3  4  1  0
  4  5  1  0
  5  6  2  0
  5  7  1  0
  7  8  1  0
  8  9  2  0
  9 10  1  0
 10 11  2  0
 11 12  1  0
 12 13  2  0
 13 14  1  0
  2 15  1  0
 15 16  1  0
 16 17  1  0
 17 18  2  0
 18 19  1  0
 19 20  1  0
 20 21  2  0
 20 22  1  0
 22 23  1  0
 23 24  1  0
 24 25  1  0
 25 26  1  0
 26 27  1  0
 19 28  2  0
 28 29  1  0
 13  8  1  0
 29 17  1  0
 27 22  1  0
  3 30  1  0
  3 31  1  0
  7 32  1  0
  7 33  1  0
  9 34  1  0
 10 35  1  0
 11 36  1  0
 12 37  1  0
 14 38  1  0
 16 39  1  0
 16 40  1  0
 23 41  1  0
 23 42  1  0
 24 43  1  0
 24 44  1  0
 26 45  1  0
 26 46  1  0
 27 47  1  0
 27 48  1  0
 28 49  1  0
M  CHG  2   4  -1  15  -1
M  END
>  <UniqueID>  (72) 
69

>  <SMILES>  (72) 
O=C(C[N-]C(=O)Cc1ccccc1O)[N-]Cc1nc(C(=O)N2CCOCC2)cs1

>  <Energy>  (72) 
79.21155127024566

>  <Genealogy>  (72) 
O=C(C[N-]C(=O)Cc1ccccc1O)[N-]Cc1nc(C(=O)N2CCOCC2)cs1 (protonated)
O=C(C[N-]C(=O)Cc1ccccc1O)[N-]Cc1nc(C(=O)N2CCOCC2)cs1 (3D coordinates assigned)
O=C(C[N-]C(=O)Cc1ccccc1O)[N-]Cc1nc(C(=O)N2CCOCC2)cs1 (nonaromatic ring conformer: 79.21155127024566 kcal/mol)

>  <smiles>  (72) 
O=C(CNC(=O)Cc1ccccc1O)NCc1nc(C(=O)N2CCOCC2)cs1

>  <score_type>  (72) 
oracle

>  <origin>  (72) 
adg

>  <m_score__min__energy>  (72) 
-13.91

>  <m_primary>  (72) 
energy

$$$$
72:0
     RDKit          3D

 50 53  0  0  0  0  0  0  0  0999 V2000
   54.4010   26.7170   46.7590 H   0  0  0  0  0  0  0  0  0  0  0  0
   54.7050   26.3210   45.8780 O   0  0  0  0  0  0  0  0  0  0  0  0
   54.3880   25.0100   45.5410 C   0  0  0  0  0  0  0  0  0  0  0  0
   53.1600   24.4810   45.6790 N   0  0  0  0  0  0  0  0  0  0  0  0
   53.3470   23.1980   45.3030 C   0  0  0  0  0  0  0  0  0  0  0  0
   52.4160   22.3500   45.2980 O   0  0  0  0  0  0  0  0  0  0  0  0
   54.6120   22.8900   44.9430 N   0  0  0  0  0  0  0  0  0  0  0  0
   55.2660   24.0580   45.0730 C   0  0  0  0  0  0  0  0  0  0  0  0
   56.7190   24.1970   44.8640 C   0  0  0  0  0  0  0  0  0  0  0  0
   57.2461   23.3819   44.3466 H   0  0  0  0  0  0  0  0  0  0  0  0
   57.4420   25.2620   45.2680 C   0  0  0  0  0  0  0  0  0  0  0  0
   57.7640   25.5840   46.5760 C   0  0  0  0  0  0  0  0  0  0  0  0
   57.5108   25.0025   47.4748 H   0  0  0  0  0  0  0  0  0  0  0  0
   58.4640   26.7750   46.5370 C   0  0  0  0  0  0  0  0  0  0  0  0
   58.9320   27.4810   47.7500 C   0  0  0  0  0  0  0  0  0  0  0  0
   59.6970   26.8880   48.5580 O   0  0  0  0  0  0  0  0  0  0  0  0
   58.4840   28.8070   48.0380 N   0  0  0  0  0  0  0  0  0  0  0  0
   59.0410   29.6270   49.1050 C   0  0  0  0  0  0  0  0  0  0  0  0
   58.2353   29.9509   49.7803 H   0  0  0  0  0  0  0  0  0  0  0  0
   59.7778   29.0435   49.6765 H   0  0  0  0  0  0  0  0  0  0  0  0
   59.7050   30.8300   48.5000 C   0  0  0  0  0  0  0  0  0  0  0  0
   59.0650   32.0800   48.5280 C   0  0  0  0  0  0  0  0  0  0  0  0
   58.0566   32.1697   48.9582 H   0  0  0  0  0  0  0  0  0  0  0  0
   59.7050   33.2110   48.0110 C   0  0  0  0  0  0  0  0  0  0  0  0
   59.1966   34.1863   48.0286 H   0  0  0  0  0  0  0  0  0  0  0  0
   60.9900   33.1030   47.4720 C   0  0  0  0  0  0  0  0  0  0  0  0
   61.6120   34.2020   46.9770 F   0  0  0  0  0  0  0  0  0  0  0  0
   61.6400   31.8650   47.4570 C   0  0  0  0  0  0  0  0  0  0  0  0
   62.6530   31.7815   47.0364 H   0  0  0  0  0  0  0  0  0  0  0  0
   61.0040   30.7330   47.9760 C   0  0  0  0  0  0  0  0  0  0  0  0
   61.5231   29.7632   47.9738 H   0  0  0  0  0  0  0  0  0  0  0  0
   58.6070   27.1960   45.2540 N   0  0  0  0  0  0  0  0  0  0  0  0
   59.3820   28.3640   44.7990 C   0  0  0  0  0  0  0  0  0  0  0  0
   60.2067   28.5362   45.5063 H   0  0  0  0  0  0  0  0  0  0  0  0
   59.7529   28.1427   43.7873 H   0  0  0  0  0  0  0  0  0  0  0  0
   58.5470   29.6220   44.7140 C   0  0  0  0  0  0  0  0  0  0  0  0
   59.0660   30.8150   45.2460 C   0  0  0  0  0  0  0  0  0  0  0  0
   60.0530   30.8119   45.7315 H   0  0  0  0  0  0  0  0  0  0  0  0
   58.3380   32.0050   45.1630 C   0  0  0  0  0  0  0  0  0  0  0  0
   58.7525   32.9325   45.5848 H   0  0  0  0  0  0  0  0  0  0  0  0
   57.0860   32.0190   44.5460 C   0  0  0  0  0  0  0  0  0  0  0  0
   56.5081   32.9535   44.4939 H   0  0  0  0  0  0  0  0  0  0  0  0
   56.5680   30.8450   43.9950 C   0  0  0  0  0  0  0  0  0  0  0  0
   55.5842   30.8575   43.5031 H   0  0  0  0  0  0  0  0  0  0  0  0
   57.2970   29.6530   44.0670 C   0  0  0  0  0  0  0  0  0  0  0  0
   56.8914   28.7354   43.6158 H   0  0  0  0  0  0  0  0  0  0  0  0
   57.9590   26.2890   44.4720 C   0  0  0  0  0  0  0  0  0  0  0  0
   57.8270   26.3940   43.1390 C   0  0  0  0  0  0  0  0  0  0  0  0
   58.2751   27.2464   42.6074 H   0  0  0  0  0  0  0  0  0  0  0  0
   57.2708   25.6276   42.5793 H   0  0  0  0  0  0  0  0  0  0  0  0
  1  2  1  0
  2  3  1  0
  3  4  1  0
  4  5  1  0
  5  6  2  0
  5  7  1  0
  7  8  1  0
  8  9  1  0
  9 10  1  0
  9 11  2  0
 11 12  1  0
 12 13  1  0
 12 14  2  0
 14 15  1  0
 15 16  2  0
 15 17  1  0
 17 18  1  0
 18 19  1  0
 18 20  1  0
 18 21  1  0
 21 22  2  0
 22 23  1  0
 22 24  1  0
 24 25  1  0
 24 26  2  0
 26 27  1  0
 26 28  1  0
 28 29  1  0
 28 30  2  0
 30 31  1  0
 14 32  1  0
 32 33  1  0
 33 34  1  0
 33 35  1  0
 33 36  1  0
 36 37  2  0
 37 38  1  0
 37 39  1  0
 39 40  1  0
 39 41  2  0
 41 42  1  0
 41 43  1  0
 43 44  1  0
 43 45  2  0
 45 46  1  0
 32 47  1  0
 47 48  2  0
 48 49  1  0
 48 50  1  0
  8  3  2  0
 47 11  1  0
 30 21  1  0
 45 36  1  0
M  CHG  3   4  -1   7  -1  17  -1
M  END
>  <UniqueID>  (73) 
70

>  <SMILES>  (73) 
C=c1/c(=C/c2[n-]c(=O)[n-]c2O)cc(C(=O)[N-]Cc2ccc(F)cc2)n1Cc1ccccc1

>  <Energy>  (73) 
115.69003658238869

>  <Genealogy>  (73) 
C=c1c(=Cc2[n-]c(=O)[n-]c2O)cc(C(=O)[N-]Cc2ccc(F)cc2)n1Cc1ccccc1 (protonated)
C=c1/c(=C/c2[n-]c(=O)[n-]c2O)cc(C(=O)[N-]Cc2ccc(F)cc2)n1Cc1ccccc1 (cis-trans isomerization)
C=c1/c(=C/c2[n-]c(=O)[n-]c2O)cc(C(=O)[N-]Cc2ccc(F)cc2)n1Cc1ccccc1 (3D coordinates assigned)
C=c1/c(=C/c2[n-]c(=O)[n-]c2O)cc(C(=O)[N-]Cc2ccc(F)cc2)n1Cc1ccccc1 (optimized conformer: 115.69003658238869 kcal/mol)

>  <smiles>  (73) 
C=c1c(=Cc2[nH]c(=O)[nH]c2O)cc(C(=O)NCc2ccc(F)cc2)n1Cc1ccccc1

>  <score_type>  (73) 
oracle

>  <origin>  (73) 
adg

>  <m_score__min__energy>  (73) 
-14.789999999999999

>  <m_primary>  (73) 
energy

$$$$
73:0
     RDKit          3D

 51 53  0  0  0  0  0  0  0  0999 V2000
   63.2970   31.5440   47.4140 N   0  0  0  0  0  0  0  0  0  0  0  0
   63.0770   33.2430   47.6500 S   0  0  0  0  0  0  0  0  0  0  0  0
   64.3830   33.8660   48.0540 O   0  0  0  0  0  0  0  0  0  0  0  0
   62.6170   33.8750   46.3660 O   0  0  0  0  0  0  0  0  0  0  0  0
   61.8690   33.5070   48.9020 C   0  0  0  0  0  0  0  0  0  0  0  0
   60.5140   33.5900   48.5540 C   0  0  0  0  0  0  0  0  0  0  0  0
   59.5410   33.7370   49.5450 C   0  0  0  0  0  0  0  0  0  0  0  0
   59.9110   33.8060   50.8970 C   0  0  0  0  0  0  0  0  0  0  0  0
   58.8630   33.8550   51.9750 C   0  0  0  0  0  0  0  0  0  0  0  0
   57.9670   32.7130   51.8430 N   0  0  0  0  0  0  0  0  0  0  0  0
   58.3920   31.3540   51.9920 C   0  0  0  0  0  0  0  0  0  0  0  0
   58.8550   30.9470   53.0930 O   0  0  0  0  0  0  0  0  0  0  0  0
   58.2910   30.4160   50.8290 C   0  0  0  0  0  0  0  0  0  0  0  0
   59.6100   30.2810   50.1220 C   0  0  0  0  0  0  0  0  0  0  0  0
   60.7760   30.7030   50.6440 N   0  0  0  0  0  0  0  0  0  0  0  0
   61.6760   30.3940   49.6880 C   0  0  0  0  0  0  0  0  0  0  0  0
   62.9050   30.6360   49.8100 O   0  0  0  0  0  0  0  0  0  0  0  0
   61.1570   29.8020   48.5940 N   0  0  0  0  0  0  0  0  0  0  0  0
   59.8410   29.7450   48.8670 C   0  0  0  0  0  0  0  0  0  0  0  0
   58.8370   29.0920   47.9640 C   0  0  0  0  0  0  0  0  0  0  0  0
   59.1360   29.3550   46.5940 O   0  0  0  0  0  0  0  0  0  0  0  0
   58.7630   30.5130   45.8890 C   0  0  0  0  0  0  0  0  0  0  0  0
   59.1470   31.8010   46.3140 C   0  0  0  0  0  0  0  0  0  0  0  0
   58.7460   32.9310   45.5980 C   0  0  0  0  0  0  0  0  0  0  0  0
   57.9590   32.7950   44.4570 C   0  0  0  0  0  0  0  0  0  0  0  0
   57.5710   31.5280   44.0240 C   0  0  0  0  0  0  0  0  0  0  0  0
   57.9760   30.3790   44.7260 C   0  0  0  0  0  0  0  0  0  0  0  0
   57.5170   29.0200   44.2540 C   0  0  0  0  0  0  0  0  0  0  0  0
   56.2390   28.6110   44.9240 C   0  0  0  0  0  0  0  0  0  0  0  0
   56.1760   27.5430   45.5920 O   0  0  0  0  0  0  0  0  0  0  0  0
   55.1340   29.4500   44.8700 O   0  0  0  0  0  0  0  0  0  0  0  0
   61.2700   33.7270   51.2430 C   0  0  0  0  0  0  0  0  0  0  0  0
   62.2430   33.5770   50.2510 C   0  0  0  0  0  0  0  0  0  0  0  0
   62.4250   31.0750   47.7480 H   0  0  0  0  0  0  0  0  0  0  0  0
   64.0620   31.2420   48.0600 H   0  0  0  0  0  0  0  0  0  0  0  0
   60.2157   33.5392   47.4964 H   0  0  0  0  0  0  0  0  0  0  0  0
   58.4792   33.7990   49.2644 H   0  0  0  0  0  0  0  0  0  0  0  0
   59.3508   33.8248   52.9605 H   0  0  0  0  0  0  0  0  0  0  0  0
   58.2838   34.7850   51.8772 H   0  0  0  0  0  0  0  0  0  0  0  0
   57.9761   29.4267   51.1925 H   0  0  0  0  0  0  0  0  0  0  0  0
   57.5554   30.8210   50.1184 H   0  0  0  0  0  0  0  0  0  0  0  0
   58.8533   28.0053   48.1338 H   0  0  0  0  0  0  0  0  0  0  0  0
   57.8418   29.5020   48.1910 H   0  0  0  0  0  0  0  0  0  0  0  0
   59.7666   31.9168   47.2155 H   0  0  0  0  0  0  0  0  0  0  0  0
   59.0527   33.9317   45.9363 H   0  0  0  0  0  0  0  0  0  0  0  0
   57.6434   33.6878   43.8972 H   0  0  0  0  0  0  0  0  0  0  0  0
   56.9433   31.4264   43.1264 H   0  0  0  0  0  0  0  0  0  0  0  0
   57.3558   29.0545   43.1664 H   0  0  0  0  0  0  0  0  0  0  0  0
   58.2933   28.2840   44.5104 H   0  0  0  0  0  0  0  0  0  0  0  0
   61.5699   33.7835   52.2998 H   0  0  0  0  0  0  0  0  0  0  0  0
   63.3052   33.5137   50.5297 H   0  0  0  0  0  0  0  0  0  0  0  0
  1  2  1  0
  2  3  2  0
  2  4  2  0
  2  5  1  0
  5  6  2  0
  6  7  1  0
  7  8  2  0
  8  9  1  0
  9 10  1  0
 10 11  1  0
 11 12  2  0
 11 13  1  0
 13 14  1  0
 14 15  1  0
 15 16  1  0
 16 17  2  0
 16 18  1  0
 18 19  1  0
 19 20  1  0
 20 21  1  0
 21 22  1  0
 22 23  2  0
 23 24  1  0
 24 25  2  0
 25 26  1  0
 26 27  2  0
 27 28  1  0
 28 29  1  0
 29 30  2  0
 29 31  1  0
  8 32  1  0
 32 33  2  0
 33  5  1  0
 19 14  2  0
 27 22  1  0
  1 34  1  0
  1 35  1  0
  6 36  1  0
  7 37  1  0
  9 38  1  0
  9 39  1  0
 13 40  1  0
 13 41  1  0
 20 42  1  0
 20 43  1  0
 23 44  1  0
 24 45  1  0
 25 46  1  0
 26 47  1  0
 28 48  1  0
 28 49  1  0
 32 50  1  0
 33 51  1  0
M  CHG  4  10  -1  15  -1  18  -1  31  -1
M  END
>  <UniqueID>  (74) 
71

>  <SMILES>  (74) 
NS(=O)(=O)c1ccc(C[N-]C(=O)Cc2[n-]c(=O)[n-]c2COc2ccccc2CC(=O)[O-])cc1

>  <Energy>  (74) 
70.32197719622079

>  <Genealogy>  (74) 
NS(=O)(=O)c1ccc(C[N-]C(=O)Cc2[n-]c(=O)[n-]c2COc2ccccc2CC(=O)[O-])cc1 (protonated)
NS(=O)(=O)c1ccc(C[N-]C(=O)Cc2[n-]c(=O)[n-]c2COc2ccccc2CC(=O)[O-])cc1 (3D coordinates assigned)
NS(=O)(=O)c1ccc(C[N-]C(=O)Cc2[n-]c(=O)[n-]c2COc2ccccc2CC(=O)[O-])cc1 (optimized conformer: 70.32197719622079 kcal/mol)

>  <smiles>  (74) 
NS(=O)(=O)c1ccc(CNC(=O)Cc2[nH]c(=O)[nH]c2COc2ccccc2CC(=O)O)cc1

>  <score_type>  (74) 
oracle

>  <origin>  (74) 
adg

>  <m_score__min__energy>  (74) 
-15.34

>  <m_primary>  (74) 
energy

$$$$
74:0
     RDKit          3D

 55 57  0  0  0  0  0  0  0  0999 V2000
   58.9840   32.2700   50.8890 C   0  0  0  0  0  0  0  0  0  0  0  0
   58.4850   31.3170   50.0970 C   0  0  0  0  0  0  0  0  0  0  0  0
   59.0180   29.9090   50.1090 C   0  0  0  0  0  0  0  0  0  0  0  0
   59.8270   29.6600   48.9090 N   0  0  0  0  0  0  0  0  0  0  0  0
   59.9060   28.3260   48.3520 C   0  0  0  0  0  0  0  0  0  0  0  0
   60.7620   27.5120   48.7980 O   0  0  0  0  0  0  0  0  0  0  0  0
   59.0290   27.8940   47.2390 C   0  0  0  0  0  0  0  0  0  0  0  0
   58.1290   28.8050   46.6670 C   0  0  0  0  0  0  0  0  0  0  0  0
   57.2600   28.4030   45.6390 C   0  0  0  0  0  0  0  0  0  0  0  0
   56.3050   29.3670   45.0500 C   0  0  0  0  0  0  0  0  0  0  0  0
   55.1480   29.0000   44.7130 O   0  0  0  0  0  0  0  0  0  0  0  0
   56.6730   30.6950   44.8590 O   0  0  0  0  0  0  0  0  0  0  0  0
   57.3060   27.0730   45.1840 C   0  0  0  0  0  0  0  0  0  0  0  0
   58.2170   26.1550   45.7350 C   0  0  0  0  0  0  0  0  0  0  0  0
   58.2560   24.7510   45.2580 C   0  0  0  0  0  0  0  0  0  0  0  0
   59.3050   23.8960   45.6390 C   0  0  0  0  0  0  0  0  0  0  0  0
   59.3330   22.5720   45.1970 C   0  0  0  0  0  0  0  0  0  0  0  0
   58.3190   22.0830   44.3730 C   0  0  0  0  0  0  0  0  0  0  0  0
   57.2580   22.9160   43.9790 C   0  0  0  0  0  0  0  0  0  0  0  0
   56.2100   22.4080   43.1330 N   0  0  0  0  0  0  0  0  0  0  0  0
   56.2700   21.2500   42.6690 O   0  0  0  0  0  0  0  0  0  0  0  0
   55.1210   23.1910   42.8220 O   0  0  0  0  0  0  0  0  0  0  0  0
   57.2350   24.2510   44.4270 C   0  0  0  0  0  0  0  0  0  0  0  0
   59.0860   26.5810   46.7530 C   0  0  0  0  0  0  0  0  0  0  0  0
   60.6300   30.7320   48.3720 C   0  0  0  0  0  0  0  0  0  0  0  0
   60.1180   31.6170   47.3960 C   0  0  0  0  0  0  0  0  0  0  0  0
   58.8250   31.3490   46.8220 N   0  0  0  0  0  0  0  0  0  0  0  0
   60.8770   32.6930   46.9810 N   0  0  0  0  0  0  0  0  0  0  0  0
   60.3570   33.6530   45.9830 C   0  0  0  0  0  0  0  0  0  0  0  0
   59.3280   34.5640   46.5980 C   0  0  0  0  0  0  0  0  0  0  0  0
   59.2550   34.7480   47.9180 C   0  0  0  0  0  0  0  0  0  0  0  0
   62.1490   32.8580   47.4800 C   0  0  0  0  0  0  0  0  0  0  0  0
   62.8770   33.8150   47.0980 O   0  0  0  0  0  0  0  0  0  0  0  0
   62.6490   31.9900   48.3920 N   0  0  0  0  0  0  0  0  0  0  0  0
   61.9270   30.9440   48.8480 C   0  0  0  0  0  0  0  0  0  0  0  0
   62.4260   30.1820   49.7190 O   0  0  0  0  0  0  0  0  0  0  0  0
   58.5692   33.2881   50.8529 H   0  0  0  0  0  0  0  0  0  0  0  0
   59.8097   32.0366   51.5772 H   0  0  0  0  0  0  0  0  0  0  0  0
   57.6593   31.5687   49.4151 H   0  0  0  0  0  0  0  0  0  0  0  0
   59.6418   29.7647   51.0035 H   0  0  0  0  0  0  0  0  0  0  0  0
   58.1719   29.2062   50.1222 H   0  0  0  0  0  0  0  0  0  0  0  0
   58.1033   29.8442   47.0268 H   0  0  0  0  0  0  0  0  0  0  0  0
   56.6209   26.7472   44.3874 H   0  0  0  0  0  0  0  0  0  0  0  0
   60.1084   24.2725   46.2892 H   0  0  0  0  0  0  0  0  0  0  0  0
   60.1586   21.9112   45.4999 H   0  0  0  0  0  0  0  0  0  0  0  0
   58.3502   21.0385   44.0294 H   0  0  0  0  0  0  0  0  0  0  0  0
   56.4091   24.9114   44.1240 H   0  0  0  0  0  0  0  0  0  0  0  0
   59.8189   25.8765   47.1731 H   0  0  0  0  0  0  0  0  0  0  0  0
   58.7130   31.1710   45.8000 H   0  0  0  0  0  0  0  0  0  0  0  0
   57.9400   31.3680   47.3730 H   0  0  0  0  0  0  0  0  0  0  0  0
   61.1904   34.2591   45.5982 H   0  0  0  0  0  0  0  0  0  0  0  0
   59.8830   33.0885   45.1665 H   0  0  0  0  0  0  0  0  0  0  0  0
   58.6186   35.0911   45.9431 H   0  0  0  0  0  0  0  0  0  0  0  0
   58.4922   35.4200   48.3383 H   0  0  0  0  0  0  0  0  0  0  0  0
   59.9576   34.2277   48.5855 H   0  0  0  0  0  0  0  0  0  0  0  0
  1  2  2  0
  2  3  1  0
  3  4  1  0
  4  5  1  0
  5  6  2  0
  5  7  1  0
  7  8  2  0
  8  9  1  0
  9 10  1  0
 10 11  2  0
 10 12  1  0
  9 13  2  0
 13 14  1  0
 14 15  1  0
 15 16  2  0
 16 17  1  0
 17 18  2  0
 18 19  1  0
 19 20  1  0
 20 21  2  0
 20 22  1  0
 19 23  2  0
 14 24  2  0
  4 25  1  0
 25 26  2  0
 26 27  1  0
 26 28  1  0
 28 29  1  0
 29 30  1  0
 30 31  2  0
 28 32  1  0
 32 33  2  0
 32 34  1  0
 34 35  1  0
 35 36  2  0
 24  7  1  0
 35 25  1  0
 23 15  1  0
  1 37  1  0
  1 38  1  0
  2 39  1  0
  3 40  1  0
  3 41  1  0
  8 42  1  0
 13 43  1  0
 16 44  1  0
 17 45  1  0
 18 46  1  0
 23 47  1  0
 24 48  1  0
 27 49  1  0
 27 50  1  0
 29 51  1  0
 29 52  1  0
 30 53  1  0
 31 54  1  0
 31 55  1  0
M  CHG  4  12  -1  20   1  22  -1  34  -1
M  END
>  <UniqueID>  (75) 
72

>  <SMILES>  (75) 
C=CCN(C(=O)c1cc(C(=O)[O-])cc(-c2cccc([N+](=O)[O-])c2)c1)c1c(N)n(CC=C)c(=O)[n-]c1=O

>  <Energy>  (75) 
76.24338718931794

>  <Genealogy>  (75) 
C=CCN(C(=O)c1cc(C(=O)[O-])cc(-c2cccc([N+](=O)[O-])c2)c1)c1c(N)n(CC=C)c(=O)[n-]c1=O (protonated)
C=CCN(C(=O)c1cc(C(=O)[O-])cc(-c2cccc([N+](=O)[O-])c2)c1)c1c(N)n(CC=C)c(=O)[n-]c1=O (3D coordinates assigned)
C=CCN(C(=O)c1cc(C(=O)[O-])cc(-c2cccc([N+](=O)[O-])c2)c1)c1c(N)n(CC=C)c(=O)[n-]c1=O (optimized conformer: 76.24338718931794 kcal/mol)

>  <smiles>  (75) 
C=CCN(C(=O)c1cc(C(=O)O)cc(-c2cccc([N+](=O)[O-])c2)c1)c1c(N)n(CC=C)c(=O)[nH]c1=O

>  <score_type>  (75) 
oracle

>  <origin>  (75) 
adg

>  <m_score__min__energy>  (75) 
-12.039999999999999

>  <m_primary>  (75) 
energy

$$$$
75:0
     RDKit          3D

 65 68  0  0  0  0  0  0  0  0999 V2000
   66.7070   33.0560   49.8060 C   0  0  0  0  0  0  0  0  0  0  0  0
   65.4450   32.4400   50.2490 N   0  0  0  0  0  0  0  0  0  0  0  0
   64.6320   33.4170   51.0190 C   0  0  0  0  0  0  0  0  0  0  0  0
   63.7020   32.7440   52.0490 C   0  0  0  0  0  0  0  0  0  0  0  0
   63.2810   31.4160   51.5630 N   0  0  0  0  0  0  0  0  0  0  0  0
   62.1660   30.8190   52.3300 C   0  0  0  0  0  0  0  0  0  0  0  0
   62.1060   29.3070   52.3150 C   0  0  0  0  0  0  0  0  0  0  0  0
   61.9770   28.6450   53.3790 O   0  0  0  0  0  0  0  0  0  0  0  0
   62.1790   28.6300   51.0540 N   0  0  0  0  0  0  0  0  0  0  0  0
   61.1370   28.5800   50.0680 C   0  0  0  0  0  0  0  0  0  0  0  0
   60.3070   29.6830   49.8130 C   0  0  0  0  0  0  0  0  0  0  0  0
   59.2870   29.5950   48.8610 C   0  0  0  0  0  0  0  0  0  0  0  0
   59.0590   28.3930   48.1650 C   0  0  0  0  0  0  0  0  0  0  0  0
   57.9910   28.2870   47.1370 C   0  0  0  0  0  0  0  0  0  0  0  0
   57.2660   27.0990   46.9490 C   0  0  0  0  0  0  0  0  0  0  0  0
   56.2640   27.0710   45.9770 C   0  0  0  0  0  0  0  0  0  0  0  0
   55.6030   26.0160   45.7800 O   0  0  0  0  0  0  0  0  0  0  0  0
   56.0060   28.1780   45.2380 N   0  0  0  0  0  0  0  0  0  0  0  0
   56.7190   29.3240   45.4180 C   0  0  0  0  0  0  0  0  0  0  0  0
   56.4760   30.3820   44.7030 N   0  0  0  0  0  0  0  0  0  0  0  0
   57.4430   31.4410   44.4230 C   0  0  0  0  0  0  0  0  0  0  0  0
   57.3690   32.5250   45.4990 C   0  0  0  0  0  0  0  0  0  0  0  0
   58.7240   32.7750   46.1040 C   0  0  0  0  0  0  0  0  0  0  0  0
   59.6150   31.7100   46.3100 C   0  0  0  0  0  0  0  0  0  0  0  0
   60.8790   31.9450   46.8570 C   0  0  0  0  0  0  0  0  0  0  0  0
   61.2670   33.2450   47.2050 C   0  0  0  0  0  0  0  0  0  0  0  0
   62.8630   33.5310   47.8940 S   0  0  0  0  0  0  0  0  0  0  0  0
   63.5420   32.0320   48.4180 N   0  0  0  0  0  0  0  0  0  0  0  0
   63.7650   34.1570   46.8650 O   0  0  0  0  0  0  0  0  0  0  0  0
   62.7440   34.4660   49.0640 O   0  0  0  0  0  0  0  0  0  0  0  0
   60.3870   34.3130   46.9850 C   0  0  0  0  0  0  0  0  0  0  0  0
   59.1240   34.0790   46.4350 C   0  0  0  0  0  0  0  0  0  0  0  0
   57.7010   29.3650   46.3560 N   0  0  0  0  0  0  0  0  0  0  0  0
   59.8940   27.2920   48.4280 C   0  0  0  0  0  0  0  0  0  0  0  0
   60.9110   27.3830   49.3820 C   0  0  0  0  0  0  0  0  0  0  0  0
   64.3980   30.4810   51.3020 C   0  0  0  0  0  0  0  0  0  0  0  0
   65.7180   31.2190   51.0260 C   0  0  0  0  0  0  0  0  0  0  0  0
   67.3016   33.3462   50.6847 H   0  0  0  0  0  0  0  0  0  0  0  0
   67.2750   32.3338   49.2012 H   0  0  0  0  0  0  0  0  0  0  0  0
   66.4871   33.9481   49.2012 H   0  0  0  0  0  0  0  0  0  0  0  0
   65.3126   34.0970   51.5522 H   0  0  0  0  0  0  0  0  0  0  0  0
   63.9953   33.9550   50.3013 H   0  0  0  0  0  0  0  0  0  0  0  0
   64.2384   32.6289   53.0024 H   0  0  0  0  0  0  0  0  0  0  0  0
   62.8110   33.3728   52.1933 H   0  0  0  0  0  0  0  0  0  0  0  0
   62.2608   31.1448   53.3764 H   0  0  0  0  0  0  0  0  0  0  0  0
   61.2426   31.1644   51.8422 H   0  0  0  0  0  0  0  0  0  0  0  0
   60.4600   30.6219   50.3654 H   0  0  0  0  0  0  0  0  0  0  0  0
   58.6571   30.4728   48.6541 H   0  0  0  0  0  0  0  0  0  0  0  0
   57.4834   26.2077   47.5559 H   0  0  0  0  0  0  0  0  0  0  0  0
   58.4561   31.0128   44.4083 H   0  0  0  0  0  0  0  0  0  0  0  0
   57.2095   31.8898   43.4462 H   0  0  0  0  0  0  0  0  0  0  0  0
   56.9992   33.4569   45.0464 H   0  0  0  0  0  0  0  0  0  0  0  0
   56.6870   32.1861   46.2927 H   0  0  0  0  0  0  0  0  0  0  0  0
   59.3168   30.6863   46.0397 H   0  0  0  0  0  0  0  0  0  0  0  0
   61.5722   31.1056   47.0150 H   0  0  0  0  0  0  0  0  0  0  0  0
   63.4670   32.0060   49.4610 H   0  0  0  0  0  0  0  0  0  0  0  0
   64.5630   32.0580   48.1830 H   0  0  0  0  0  0  0  0  0  0  0  0
   60.6910   35.3375   47.2457 H   0  0  0  0  0  0  0  0  0  0  0  0
   58.4391   34.9218   46.2604 H   0  0  0  0  0  0  0  0  0  0  0  0
   59.7451   26.3511   47.8779 H   0  0  0  0  0  0  0  0  0  0  0  0
   61.5390   26.5054   49.5950 H   0  0  0  0  0  0  0  0  0  0  0  0
   64.5310   29.8332   52.1810 H   0  0  0  0  0  0  0  0  0  0  0  0
   64.1453   29.8931   50.4073 H   0  0  0  0  0  0  0  0  0  0  0  0
   66.1928   31.4903   51.9804 H   0  0  0  0  0  0  0  0  0  0  0  0
   66.3917   30.5637   50.4544 H   0  0  0  0  0  0  0  0  0  0  0  0
  1  2  1  0
  2  3  1  0
  3  4  1  0
  4  5  1  0
  5  6  1  0
  6  7  1  0
  7  8  2  0
  7  9  1  0
  9 10  1  0
 10 11  2  0
 11 12  1  0
 12 13  2  0
 13 14  1  0
 14 15  2  0
 15 16  1  0
 16 17  2  0
 16 18  1  0
 18 19  1  0
 19 20  2  3
 20 21  1  0
 21 22  1  0
 22 23  1  0
 23 24  2  0
 24 25  1  0
 25 26  2  0
 26 27  1  0
 27 28  1  0
 27 29  2  0
 27 30  2  0
 26 31  1  0
 31 32  2  0
 19 33  1  0
 13 34  1  0
 34 35  2  0
  5 36  1  0
 36 37  1  0
 37  2  1  0
 35 10  1  0
 33 14  1  0
 32 23  1  0
  1 38  1  0
  1 39  1  0
  1 40  1  0
  3 41  1  0
  3 42  1  0
  4 43  1  0
  4 44  1  0
  6 45  1  0
  6 46  1  0
 11 47  1  0
 12 48  1  0
 15 49  1  0
 21 50  1  0
 21 51  1  0
 22 52  1  0
 22 53  1  0
 24 54  1  0
 25 55  1  0
 28 56  1  0
 28 57  1  0
 31 58  1  0
 32 59  1  0
 34 60  1  0
 35 61  1  0
 36 62  1  0
 36 63  1  0
 37 64  1  0
 37 65  1  0
M  CHG  3   9  -1  18  -1  33  -1
M  END
>  <UniqueID>  (76) 
73

>  <SMILES>  (76) 
CN1CCN(CC(=O)[N-]c2ccc(-c3cc(=O)[n-]c(=NCCc4ccc(S(N)(=O)=O)cc4)[n-]3)cc2)CC1

>  <Energy>  (76) 
86.43931621627061

>  <Genealogy>  (76) 
CN1CCN(CC(=O)[N-]c2ccc(-c3cc(=O)[n-]c(=NCCc4ccc(S(N)(=O)=O)cc4)[n-]3)cc2)CC1 (protonated)
CN1CCN(CC(=O)[N-]c2ccc(-c3cc(=O)[n-]c(=NCCc4ccc(S(N)(=O)=O)cc4)[n-]3)cc2)CC1 (3D coordinates assigned)
CN1CCN(CC(=O)[N-]c2ccc(-c3cc(=O)[n-]c(=NCCc4ccc(S(N)(=O)=O)cc4)[n-]3)cc2)CC1 (nonaromatic ring conformer: 86.43931621627061 kcal/mol)

>  <smiles>  (76) 
CN1CCN(CC(=O)Nc2ccc(-c3cc(=O)[nH]c(=NCCc4ccc(S(N)(=O)=O)cc4)[nH]3)cc2)CC1

>  <score_type>  (76) 
oracle

>  <origin>  (76) 
adg

>  <m_score__min__energy>  (76) 
-13.9

>  <m_primary>  (76) 
energy

$$$$
76:0
     RDKit          3D

 70 74  0  0  0  0  0  0  0  0999 V2000
   52.4540   24.1000   55.5040 C   0  0  0  0  0  0  0  0  0  0  0  0
   53.0430   24.7630   54.3290 N   0  0  0  0  0  0  0  0  0  0  0  0
   54.4980   24.4830   54.2220 C   0  0  0  0  0  0  0  0  0  0  0  0
   55.3570   25.6510   54.7310 C   0  0  0  0  0  0  0  0  0  0  0  0
   55.0840   26.8850   53.9590 N   0  0  0  0  0  0  0  0  0  0  0  0
   55.6370   28.1130   54.5750 C   0  0  0  0  0  0  0  0  0  0  0  0
   56.1510   29.1230   53.5690 C   0  0  0  0  0  0  0  0  0  0  0  0
   57.5220   29.2130   53.2750 C   0  0  0  0  0  0  0  0  0  0  0  0
   57.9810   30.1090   52.3060 C   0  0  0  0  0  0  0  0  0  0  0  0
   57.0790   30.9470   51.6320 C   0  0  0  0  0  0  0  0  0  0  0  0
   57.5370   31.8660   50.6290 N   0  0  0  0  0  0  0  0  0  0  0  0
   58.5470   31.5230   49.6680 C   0  0  0  0  0  0  0  0  0  0  0  0
   58.8600   30.3130   49.4890 O   0  0  0  0  0  0  0  0  0  0  0  0
   59.1940   32.5700   48.8490 C   0  0  0  0  0  0  0  0  0  0  0  0
   60.4670   33.0590   49.1860 C   0  0  0  0  0  0  0  0  0  0  0  0
   61.0870   34.0210   48.3860 C   0  0  0  0  0  0  0  0  0  0  0  0
   60.4410   34.5120   47.2480 C   0  0  0  0  0  0  0  0  0  0  0  0
   59.1590   34.0520   46.9090 C   0  0  0  0  0  0  0  0  0  0  0  0
   58.4650   34.5840   45.6860 C   0  0  0  0  0  0  0  0  0  0  0  0
   57.4740   33.6270   45.2050 N   0  0  0  0  0  0  0  0  0  0  0  0
   57.7730   32.5510   44.3080 C   0  0  0  0  0  0  0  0  0  0  0  0
   58.1610   32.8040   43.1350 O   0  0  0  0  0  0  0  0  0  0  0  0
   57.6530   31.1460   44.7590 C   0  0  0  0  0  0  0  0  0  0  0  0
   56.7850   30.2540   44.1080 C   0  0  0  0  0  0  0  0  0  0  0  0
   56.6960   28.9260   44.5240 C   0  0  0  0  0  0  0  0  0  0  0  0
   57.4750   28.4840   45.6060 C   0  0  0  0  0  0  0  0  0  0  0  0
   57.4490   27.1140   46.0460 N   0  0  0  0  0  0  0  0  0  0  0  0
   58.6280   26.3650   46.4660 C   0  0  0  0  0  0  0  0  0  0  0  0
   58.1300   24.9270   46.7470 C   0  0  0  0  0  0  0  0  0  0  0  0
   56.6800   24.9550   46.5990 N   0  0  0  0  0  0  0  0  0  0  0  0
   56.3310   26.2560   46.1830 C   0  0  0  0  0  0  0  0  0  0  0  0
   55.1360   26.6200   46.0240 O   0  0  0  0  0  0  0  0  0  0  0  0
   58.3090   29.3660   46.2240 N   0  0  0  0  0  0  0  0  0  0  0  0
   58.4090   30.6650   45.8400 C   0  0  0  0  0  0  0  0  0  0  0  0
   58.5470   33.0710   47.7070 C   0  0  0  0  0  0  0  0  0  0  0  0
   55.7210   30.9070   51.9710 C   0  0  0  0  0  0  0  0  0  0  0  0
   55.2580   29.9980   52.9270 C   0  0  0  0  0  0  0  0  0  0  0  0
   53.6880   27.0120   53.4730 C   0  0  0  0  0  0  0  0  0  0  0  0
   52.7100   26.2080   54.3410 C   0  0  0  0  0  0  0  0  0  0  0  0
   52.8571   24.5537   56.4214 H   0  0  0  0  0  0  0  0  0  0  0  0
   51.3610   24.2219   55.4843 H   0  0  0  0  0  0  0  0  0  0  0  0
   52.7039   23.0289   55.4843 H   0  0  0  0  0  0  0  0  0  0  0  0
   54.7304   23.5876   54.8173 H   0  0  0  0  0  0  0  0  0  0  0  0
   54.7336   24.3314   53.1583 H   0  0  0  0  0  0  0  0  0  0  0  0
   55.1270   25.8316   55.7914 H   0  0  0  0  0  0  0  0  0  0  0  0
   56.4176   25.3868   54.6069 H   0  0  0  0  0  0  0  0  0  0  0  0
   54.8445   28.5893   55.1709 H   0  0  0  0  0  0  0  0  0  0  0  0
   56.4968   27.8050   55.1881 H   0  0  0  0  0  0  0  0  0  0  0  0
   58.2388   28.5738   53.8113 H   0  0  0  0  0  0  0  0  0  0  0  0
   59.0543   30.1579   52.0703 H   0  0  0  0  0  0  0  0  0  0  0  0
   57.0030   32.7530   50.4880 H   0  0  0  0  0  0  0  0  0  0  0  0
   60.9779   32.6823   50.0844 H   0  0  0  0  0  0  0  0  0  0  0  0
   62.0871   34.3936   48.6523 H   0  0  0  0  0  0  0  0  0  0  0  0
   60.9391   35.2617   46.6157 H   0  0  0  0  0  0  0  0  0  0  0  0
   57.9629   35.5299   45.9372 H   0  0  0  0  0  0  0  0  0  0  0  0
   59.2124   34.7501   44.8962 H   0  0  0  0  0  0  0  0  0  0  0  0
   56.1718   30.6051   43.2650 H   0  0  0  0  0  0  0  0  0  0  0  0
   56.0197   28.2287   44.0078 H   0  0  0  0  0  0  0  0  0  0  0  0
   59.3843   26.3601   45.6673 H   0  0  0  0  0  0  0  0  0  0  0  0
   59.0996   26.8128   47.3532 H   0  0  0  0  0  0  0  0  0  0  0  0
   58.5721   24.2239   46.0257 H   0  0  0  0  0  0  0  0  0  0  0  0
   58.4208   24.5950   47.7546 H   0  0  0  0  0  0  0  0  0  0  0  0
   59.0861   31.3440   46.3790 H   0  0  0  0  0  0  0  0  0  0  0  0
   57.5511   32.6913   47.4349 H   0  0  0  0  0  0  0  0  0  0  0  0
   55.0147   31.5944   51.4825 H   0  0  0  0  0  0  0  0  0  0  0  0
   54.1875   29.9674   53.1784 H   0  0  0  0  0  0  0  0  0  0  0  0
   53.3971   28.0726   53.4970 H   0  0  0  0  0  0  0  0  0  0  0  0
   53.6439   26.6146   52.4482 H   0  0  0  0  0  0  0  0  0  0  0  0
   52.7604   26.5789   55.3753 H   0  0  0  0  0  0  0  0  0  0  0  0
   51.6969   26.3347   53.9316 H   0  0  0  0  0  0  0  0  0  0  0  0
  1  2  1  0
  2  3  1  0
  3  4  1  0
  4  5  1  0
  5  6  1  0
  6  7  1  0
  7  8  2  0
  8  9  1  0
  9 10  2  0
 10 11  1  0
 11 12  1  0
 12 13  2  0
 12 14  1  0
 14 15  2  0
 15 16  1  0
 16 17  2  0
 17 18  1  0
 18 19  1  0
 19 20  1  0
 20 21  1  0
 21 22  2  0
 21 23  1  0
 23 24  2  0
 24 25  1  0
 25 26  2  0
 26 27  1  0
 27 28  1  0
 28 29  1  0
 29 30  1  0
 30 31  1  0
 31 32  2  0
 26 33  1  0
 33 34  2  0
 18 35  2  0
 10 36  1  0
 36 37  2  0
  5 38  1  0
 38 39  1  0
 39  2  1  0
 37  7  1  0
 35 14  1  0
 34 23  1  0
 31 27  1  0
  1 40  1  0
  1 41  1  0
  1 42  1  0
  3 43  1  0
  3 44  1  0
  4 45  1  0
  4 46  1  0
  6 47  1  0
  6 48  1  0
  8 49  1  0
  9 50  1  0
 11 51  1  0
 15 52  1  0
 16 53  1  0
 17 54  1  0
 19 55  1  0
 19 56  1  0
 24 57  1  0
 25 58  1  0
 28 59  1  0
 28 60  1  0
 29 61  1  0
 29 62  1  0
 34 63  1  0
 35 64  1  0
 36 65  1  0
 37 66  1  0
 38 67  1  0
 38 68  1  0
 39 69  1  0
 39 70  1  0
M  CHG  2  20  -1  30  -1
M  END
>  <UniqueID>  (77) 
74

>  <SMILES>  (77) 
CN1CCN(Cc2ccc(NC(=O)c3cccc(C[N-]C(=O)c4ccc(N5CC[N-]C5=O)nc4)c3)cc2)CC1

>  <Energy>  (77) 
110.76536923242516

>  <Genealogy>  (77) 
CN1CCN(Cc2ccc(NC(=O)c3cccc(C[N-]C(=O)c4ccc(N5CC[N-]C5=O)nc4)c3)cc2)CC1 (protonated)
CN1CCN(Cc2ccc(NC(=O)c3cccc(C[N-]C(=O)c4ccc(N5CC[N-]C5=O)nc4)c3)cc2)CC1 (3D coordinates assigned)
CN1CCN(Cc2ccc(NC(=O)c3cccc(C[N-]C(=O)c4ccc(N5CC[N-]C5=O)nc4)c3)cc2)CC1 (nonaromatic ring conformer: 110.76536923242516 kcal/mol)

>  <smiles>  (77) 
CN1CCN(Cc2ccc(NC(=O)c3cccc(CNC(=O)c4ccc(N5CCNC5=O)nc4)c3)cc2)CC1

>  <score_type>  (77) 
oracle

>  <origin>  (77) 
adg

>  <m_score__min__energy>  (77) 
-12.19

>  <m_primary>  (77) 
energy

$$$$
77:0
     RDKit          3D

 51 53  0  0  0  0  0  0  0  0999 V2000
   57.6900   23.8330   44.2380 C   0  0  0  0  0  0  0  0  0  0  0  0
   58.4630   23.7180   45.3220 C   0  0  0  0  0  0  0  0  0  0  0  0
   58.5440   24.8080   46.3550 C   0  0  0  0  0  0  0  0  0  0  0  0
   57.6850   25.9490   45.9770 N   0  0  0  0  0  0  0  0  0  0  0  0
   56.3310   25.8810   46.1920 C   0  0  0  0  0  0  0  0  0  0  0  0
   55.8120   24.8640   46.7260 O   0  0  0  0  0  0  0  0  0  0  0  0
   55.5260   26.9090   45.8230 N   0  0  0  0  0  0  0  0  0  0  0  0
   56.0220   28.0280   45.2460 C   0  0  0  0  0  0  0  0  0  0  0  0
   55.1540   29.0530   44.8870 O   0  0  0  0  0  0  0  0  0  0  0  0
   57.3960   28.1470   45.0250 C   0  0  0  0  0  0  0  0  0  0  0  0
   57.9340   29.3610   44.3690 C   0  0  0  0  0  0  0  0  0  0  0  0
   58.2730   30.4790   45.0400 C   0  0  0  0  0  0  0  0  0  0  0  0
   57.6230   31.7020   44.9680 C   0  0  0  0  0  0  0  0  0  0  0  0
   58.3260   32.5720   45.7750 C   0  0  0  0  0  0  0  0  0  0  0  0
   57.9920   34.0220   45.9530 C   0  0  0  0  0  0  0  0  0  0  0  0
   59.3760   31.9430   46.3530 N   0  0  0  0  0  0  0  0  0  0  0  0
   60.3720   32.5820   47.2270 C   0  0  0  0  0  0  0  0  0  0  0  0
   59.7500   32.9290   48.5520 C   0  0  0  0  0  0  0  0  0  0  0  0
   59.8170   34.1230   48.9540 O   0  0  0  0  0  0  0  0  0  0  0  0
   59.0660   31.9470   49.3590 N   0  0  0  0  0  0  0  0  0  0  0  0
   59.3750   30.5170   49.2380 C   0  0  0  0  0  0  0  0  0  0  0  0
   59.0520   29.7910   50.5470 C   0  0  0  0  0  0  0  0  0  0  0  0
   57.7380   30.0880   50.9770 O   0  0  0  0  0  0  0  0  0  0  0  0
   57.6490   31.4590   51.3100 C   0  0  0  0  0  0  0  0  0  0  0  0
   57.8410   32.3330   50.0680 C   0  0  0  0  0  0  0  0  0  0  0  0
   59.3660   30.6620   45.8950 C   0  0  0  0  0  0  0  0  0  0  0  0
   60.2830   29.7350   46.2130 C   0  0  0  0  0  0  0  0  0  0  0  0
   58.2220   27.0630   45.3780 C   0  0  0  0  0  0  0  0  0  0  0  0
   59.4580   27.1170   45.1230 O   0  0  0  0  0  0  0  0  0  0  0  0
   57.6523   23.0178   43.5004 H   0  0  0  0  0  0  0  0  0  0  0  0
   57.0914   24.7428   44.0833 H   0  0  0  0  0  0  0  0  0  0  0  0
   59.0556   22.8020   45.4624 H   0  0  0  0  0  0  0  0  0  0  0  0
   58.2114   24.4114   47.3256 H   0  0  0  0  0  0  0  0  0  0  0  0
   59.5854   25.1557   46.4220 H   0  0  0  0  0  0  0  0  0  0  0  0
   58.0636   29.3492   43.2767 H   0  0  0  0  0  0  0  0  0  0  0  0
   56.7218   31.9333   44.3812 H   0  0  0  0  0  0  0  0  0  0  0  0
   57.9379   34.2567   47.0263 H   0  0  0  0  0  0  0  0  0  0  0  0
   58.7717   34.6384   45.4817 H   0  0  0  0  0  0  0  0  0  0  0  0
   57.0212   34.2352   45.4817 H   0  0  0  0  0  0  0  0  0  0  0  0
   61.2113   31.8897   47.3892 H   0  0  0  0  0  0  0  0  0  0  0  0
   60.7342   33.5031   46.7470 H   0  0  0  0  0  0  0  0  0  0  0  0
   58.7743   30.0835   48.4248 H   0  0  0  0  0  0  0  0  0  0  0  0
   60.4465   30.3997   49.0187 H   0  0  0  0  0  0  0  0  0  0  0  0
   59.1429   28.7062   50.3892 H   0  0  0  0  0  0  0  0  0  0  0  0
   59.7593   30.1271   51.3195 H   0  0  0  0  0  0  0  0  0  0  0  0
   56.6586   31.6613   51.7439 H   0  0  0  0  0  0  0  0  0  0  0  0
   58.4406   31.6980   52.0355 H   0  0  0  0  0  0  0  0  0  0  0  0
   56.9782   32.2057   49.3977 H   0  0  0  0  0  0  0  0  0  0  0  0
   57.9238   33.3847   50.3795 H   0  0  0  0  0  0  0  0  0  0  0  0
   60.2039   28.7187   45.7997 H   0  0  0  0  0  0  0  0  0  0  0  0
   61.1136   29.9916   46.8870 H   0  0  0  0  0  0  0  0  0  0  0  0
  1  2  2  0
  2  3  1  0
  3  4  1  0
  4  5  1  0
  5  6  2  0
  5  7  1  0
  7  8  1  0
  8  9  1  0
  8 10  2  0
 10 11  1  0
 11 12  2  3
 12 13  1  0
 13 14  2  0
 14 15  1  0
 14 16  1  0
 16 17  1  0
 17 18  1  0
 18 19  2  0
 18 20  1  0
 20 21  1  0
 21 22  1  0
 22 23  1  0
 23 24  1  0
 24 25  1  0
 16 26  1  0
 26 27  2  0
 10 28  1  0
 28 29  2  0
 28  4  1  0
 26 12  1  0
 25 20  1  0
  1 30  1  0
  1 31  1  0
  2 32  1  0
  3 33  1  0
  3 34  1  0
 11 35  1  0
 13 36  1  0
 15 37  1  0
 15 38  1  0
 15 39  1  0
 17 40  1  0
 17 41  1  0
 21 42  1  0
 21 43  1  0
 22 44  1  0
 22 45  1  0
 24 46  1  0
 24 47  1  0
 25 48  1  0
 25 49  1  0
 27 50  1  0
 27 51  1  0
M  CHG  2   7  -1   9  -1
M  END
>  <UniqueID>  (78) 
75

>  <SMILES>  (78) 
C=CCn1c(=O)[n-]c([O-])c(C=c2cc(C)n(CC(=O)N3CCOCC3)c2=C)c1=O

>  <Energy>  (78) 
92.98422771577887

>  <Genealogy>  (78) 
C=CCn1c(=O)[n-]c([O-])c(C=c2cc(C)n(CC(=O)N3CCOCC3)c2=C)c1=O (protonated)
C=CCn1c(=O)[n-]c([O-])c(C=c2cc(C)n(CC(=O)N3CCOCC3)c2=C)c1=O (3D coordinates assigned)
C=CCn1c(=O)[n-]c([O-])c(C=c2cc(C)n(CC(=O)N3CCOCC3)c2=C)c1=O (nonaromatic ring conformer: 92.98422771577887 kcal/mol)

>  <smiles>  (78) 
C=CCn1c(=O)[nH]c(O)c(C=c2cc(C)n(CC(=O)N3CCOCC3)c2=C)c1=O

>  <score_type>  (78) 
oracle

>  <origin>  (78) 
adg

>  <m_score__min__energy>  (78) 
-13.720000000000001

>  <m_primary>  (78) 
energy

$$$$
78:0
     RDKit          3D

 63 67  0  0  0  0  0  0  0  0999 V2000
   58.1080   27.0560   42.8950 C   0  0  0  0  0  0  0  0  0  0  0  0
   58.1460   27.3580   44.3920 C   0  0  0  0  0  0  0  0  0  0  0  0
   56.9930   28.2600   44.8540 C   0  0  0  0  0  0  0  0  0  0  0  0
   56.6640   29.4370   43.9060 C   0  0  0  0  0  0  0  0  0  0  0  0
   57.8520   30.1560   43.3900 N   0  0  0  0  0  0  0  0  0  0  0  0
   58.1680   31.3810   44.1170 C   0  0  0  0  0  0  0  0  0  0  0  0
   58.0880   32.6170   43.4360 C   0  0  0  0  0  0  0  0  0  0  0  0
   57.8830   32.6680   42.0630 O   0  0  0  0  0  0  0  0  0  0  0  0
   58.2030   33.8170   44.1250 C   0  0  0  0  0  0  0  0  0  0  0  0
   58.4470   33.8260   45.4890 C   0  0  0  0  0  0  0  0  0  0  0  0
   58.6690   32.6270   46.1920 C   0  0  0  0  0  0  0  0  0  0  0  0
   59.0360   32.6420   47.5660 C   0  0  0  0  0  0  0  0  0  0  0  0
   59.6180   33.9050   48.2040 C   0  0  0  0  0  0  0  0  0  0  0  0
   61.0710   33.7150   48.5820 C   0  0  0  0  0  0  0  0  0  0  0  0
   61.4830   33.8740   49.9200 C   0  0  0  0  0  0  0  0  0  0  0  0
   62.8210   33.6810   50.2750 C   0  0  0  0  0  0  0  0  0  0  0  0
   63.7730   33.3500   49.2990 C   0  0  0  0  0  0  0  0  0  0  0  0
   65.1950   33.0900   49.6940 C   0  0  0  0  0  0  0  0  0  0  0  0
   63.3670   33.1980   47.9640 C   0  0  0  0  0  0  0  0  0  0  0  0
   62.0290   33.3910   47.6050 C   0  0  0  0  0  0  0  0  0  0  0  0
   59.0650   31.4070   48.2620 C   0  0  0  0  0  0  0  0  0  0  0  0
   59.1480   30.2400   47.5480 N   0  0  0  0  0  0  0  0  0  0  0  0
   58.9010   30.2180   46.2070 C   0  0  0  0  0  0  0  0  0  0  0  0
   58.5530   31.3890   45.5010 C   0  0  0  0  0  0  0  0  0  0  0  0
   59.4300   28.9550   48.2260 C   0  0  0  0  0  0  0  0  0  0  0  0
   60.2890   29.1510   49.4790 C   0  0  0  0  0  0  0  0  0  0  0  0
   59.6590   30.1910   50.3540 C   0  0  0  0  0  0  0  0  0  0  0  0
   59.6610   30.0530   51.7510 C   0  0  0  0  0  0  0  0  0  0  0  0
   59.0330   31.0120   52.5490 C   0  0  0  0  0  0  0  0  0  0  0  0
   58.3860   32.0990   51.9590 C   0  0  0  0  0  0  0  0  0  0  0  0
   58.3810   32.2400   50.5680 C   0  0  0  0  0  0  0  0  0  0  0  0
   59.0700   31.3210   49.7550 C   0  0  0  0  0  0  0  0  0  0  0  0
   57.9720   25.9752   42.7423 H   0  0  0  0  0  0  0  0  0  0  0  0
   57.2712   27.5998   42.4324 H   0  0  0  0  0  0  0  0  0  0  0  0
   59.0534   27.3756   42.4324 H   0  0  0  0  0  0  0  0  0  0  0  0
   58.0889   26.4073   44.9424 H   0  0  0  0  0  0  0  0  0  0  0  0
   59.0842   27.8955   44.5944 H   0  0  0  0  0  0  0  0  0  0  0  0
   56.0910   27.6379   44.9515 H   0  0  0  0  0  0  0  0  0  0  0  0
   57.3170   28.7112   45.8035 H   0  0  0  0  0  0  0  0  0  0  0  0
   56.1016   29.0409   43.0476 H   0  0  0  0  0  0  0  0  0  0  0  0
   56.0878   30.1647   44.4963 H   0  0  0  0  0  0  0  0  0  0  0  0
   58.6240   29.4620   43.3870 H   0  0  0  0  0  0  0  0  0  0  0  0
   57.6870   30.4090   42.3870 H   0  0  0  0  0  0  0  0  0  0  0  0
   58.0995   34.7688   43.5833 H   0  0  0  0  0  0  0  0  0  0  0  0
   58.4675   34.7836   46.0299 H   0  0  0  0  0  0  0  0  0  0  0  0
   59.5406   34.7359   47.4874 H   0  0  0  0  0  0  0  0  0  0  0  0
   59.0485   34.1237   49.1193 H   0  0  0  0  0  0  0  0  0  0  0  0
   60.7475   34.1516   50.6894 H   0  0  0  0  0  0  0  0  0  0  0  0
   63.1293   33.7892   51.3253 H   0  0  0  0  0  0  0  0  0  0  0  0
   65.2740   33.0756   50.7911 H   0  0  0  0  0  0  0  0  0  0  0  0
   65.5158   32.1183   49.2904 H   0  0  0  0  0  0  0  0  0  0  0  0
   65.8389   33.8853   49.2904 H   0  0  0  0  0  0  0  0  0  0  0  0
   64.1054   32.9255   47.1956 H   0  0  0  0  0  0  0  0  0  0  0  0
   61.7246   33.2888   46.5529 H   0  0  0  0  0  0  0  0  0  0  0  0
   58.9748   29.2648   45.6629 H   0  0  0  0  0  0  0  0  0  0  0  0
   58.4770   28.4889   48.5167 H   0  0  0  0  0  0  0  0  0  0  0  0
   59.9860   28.3135   47.5265 H   0  0  0  0  0  0  0  0  0  0  0  0
   60.3584   28.2010   50.0292 H   0  0  0  0  0  0  0  0  0  0  0  0
   61.2978   29.4777   49.1865 H   0  0  0  0  0  0  0  0  0  0  0  0
   60.1574   29.1892   52.2174 H   0  0  0  0  0  0  0  0  0  0  0  0
   59.0483   30.9105   53.6442 H   0  0  0  0  0  0  0  0  0  0  0  0
   57.8797   32.8452   52.5889 H   0  0  0  0  0  0  0  0  0  0  0  0
   57.8346   33.0753   50.1058 H   0  0  0  0  0  0  0  0  0  0  0  0
  1  2  1  0
  2  3  1  0
  3  4  1  0
  4  5  1  0
  5  6  1  0
  6  7  2  0
  7  8  1  0
  7  9  1  0
  9 10  2  0
 10 11  1  0
 11 12  2  0
 12 13  1  0
 13 14  1  0
 14 15  2  0
 15 16  1  0
 16 17  2  0
 17 18  1  0
 17 19  1  0
 19 20  2  0
 12 21  1  0
 21 22  2  0
 22 23  1  0
 23 24  2  0
 22 25  1  0
 25 26  1  0
 26 27  1  0
 27 28  2  0
 28 29  1  0
 29 30  2  0
 30 31  1  0
 31 32  2  0
 24  6  1  0
 32 27  1  0
 24 11  1  0
 20 14  1  0
 32 21  1  0
  1 33  1  0
  1 34  1  0
  1 35  1  0
  2 36  1  0
  2 37  1  0
  3 38  1  0
  3 39  1  0
  4 40  1  0
  4 41  1  0
  5 42  1  0
  5 43  1  0
  9 44  1  0
 10 45  1  0
 13 46  1  0
 13 47  1  0
 15 48  1  0
 16 49  1  0
 18 50  1  0
 18 51  1  0
 18 52  1  0
 19 53  1  0
 20 54  1  0
 23 55  1  0
 25 56  1  0
 25 57  1  0
 26 58  1  0
 26 59  1  0
 28 60  1  0
 29 61  1  0
 30 62  1  0
 31 63  1  0
M  CHG  3   5   1   8  -1  22   1
M  END
>  <UniqueID>  (79) 
76

>  <SMILES>  (79) 
CCCC[NH2+]c1c([O-])ccc2c(Cc3ccc(C)cc3)c3[n+](cc12)CCc1ccccc1-3

>  <Energy>  (79) 
96.8811673733641

>  <Genealogy>  (79) 
CCCC[NH2+]c1c([O-])ccc2c(Cc3ccc(C)cc3)c3[n+](cc12)CCc1ccccc1-3 (protonated)
CCCC[NH2+]c1c([O-])ccc2c(Cc3ccc(C)cc3)c3[n+](cc12)CCc1ccccc1-3 (3D coordinates assigned)
CCCC[NH2+]c1c([O-])ccc2c(Cc3ccc(C)cc3)c3[n+](cc12)CCc1ccccc1-3 (nonaromatic ring conformer: 96.8811673733641 kcal/mol)

>  <smiles>  (79) 
CCCCNc1c(O)ccc2c(Cc3ccc(C)cc3)c3[n+](cc12)CCc1ccccc1-3

>  <score_type>  (79) 
oracle

>  <origin>  (79) 
adg

>  <m_score__min__energy>  (79) 
-8.6099999999999994

>  <m_primary>  (79) 
energy

$$$$
79:0
     RDKit          3D

 49 51  0  0  0  0  0  0  0  0999 V2000
   57.5480   20.8550   43.9650 N   0  0  0  0  0  0  0  0  0  0  0  0
   56.6800   21.9450   43.6440 C   0  0  0  0  0  0  0  0  0  0  0  0
   55.9150   21.8400   42.6470 O   0  0  0  0  0  0  0  0  0  0  0  0
   56.6730   23.1930   44.4450 C   0  0  0  0  0  0  0  0  0  0  0  0
   55.4530   23.7420   44.8810 C   0  0  0  0  0  0  0  0  0  0  0  0
   55.4330   24.9190   45.6350 C   0  0  0  0  0  0  0  0  0  0  0  0
   56.6290   25.5750   45.9540 C   0  0  0  0  0  0  0  0  0  0  0  0
   56.6330   26.7740   46.7360 N   0  0  0  0  0  0  0  0  0  0  0  0
   57.7670   27.6220   46.9640 C   0  0  0  0  0  0  0  0  0  0  0  0
   58.1490   27.8170   48.1480 O   0  0  0  0  0  0  0  0  0  0  0  0
   58.5830   28.1960   45.8260 C   0  0  0  0  0  0  0  0  0  0  0  0
   58.0080   29.4320   45.2570 N   0  0  0  0  0  0  0  0  0  0  0  0
   58.7520   29.9530   44.1050 C   0  0  0  0  0  0  0  0  0  0  0  0
   58.3240   31.4050   43.8190 C   0  0  0  0  0  0  0  0  0  0  0  0
   57.0020   31.7520   44.3910 N   0  0  0  0  0  0  0  0  0  0  0  0
   57.0300   32.5820   45.6180 C   0  0  0  0  0  0  0  0  0  0  0  0
   58.4260   32.9020   46.1040 C   0  0  0  0  0  0  0  0  0  0  0  0
   59.0570   34.1000   45.7240 C   0  0  0  0  0  0  0  0  0  0  0  0
   60.3730   34.3580   46.1170 C   0  0  0  0  0  0  0  0  0  0  0  0
   61.0670   33.4300   46.9000 C   0  0  0  0  0  0  0  0  0  0  0  0
   62.7260   33.7450   47.3720 Cl  0  0  0  0  0  0  0  0  0  0  0  0
   60.4380   32.2480   47.3020 C   0  0  0  0  0  0  0  0  0  0  0  0
   59.1210   31.9870   46.9130 C   0  0  0  0  0  0  0  0  0  0  0  0
   56.0140   30.6520   44.3920 C   0  0  0  0  0  0  0  0  0  0  0  0
   56.5720   29.3220   44.9460 C   0  0  0  0  0  0  0  0  0  0  0  0
   57.8480   25.0100   45.5640 C   0  0  0  0  0  0  0  0  0  0  0  0
   57.8720   23.8340   44.8090 C   0  0  0  0  0  0  0  0  0  0  0  0
   58.3060   20.9470   44.6760 H   0  0  0  0  0  0  0  0  0  0  0  0
   57.4910   19.9660   43.4200 H   0  0  0  0  0  0  0  0  0  0  0  0
   54.5074   23.2410   44.6265 H   0  0  0  0  0  0  0  0  0  0  0  0
   54.4735   25.3321   45.9795 H   0  0  0  0  0  0  0  0  0  0  0  0
   59.5927   28.4211   46.1999 H   0  0  0  0  0  0  0  0  0  0  0  0
   58.5949   27.4439   45.0233 H   0  0  0  0  0  0  0  0  0  0  0  0
   59.8296   29.9266   44.3243 H   0  0  0  0  0  0  0  0  0  0  0  0
   58.5372   29.3313   43.2233 H   0  0  0  0  0  0  0  0  0  0  0  0
   59.0779   32.0817   44.2476 H   0  0  0  0  0  0  0  0  0  0  0  0
   58.2434   31.5108   42.7271 H   0  0  0  0  0  0  0  0  0  0  0  0
   56.5096   33.5283   45.4090 H   0  0  0  0  0  0  0  0  0  0  0  0
   56.5391   31.9993   46.4114 H   0  0  0  0  0  0  0  0  0  0  0  0
   58.5126   34.8368   45.1151 H   0  0  0  0  0  0  0  0  0  0  0  0
   60.8641   35.2931   45.8098 H   0  0  0  0  0  0  0  0  0  0  0  0
   60.9804   31.5221   47.9255 H   0  0  0  0  0  0  0  0  0  0  0  0
   58.6264   31.0611   47.2417 H   0  0  0  0  0  0  0  0  0  0  0  0
   55.1568   30.9547   45.0113 H   0  0  0  0  0  0  0  0  0  0  0  0
   55.7296   30.4720   43.3448 H   0  0  0  0  0  0  0  0  0  0  0  0
   56.0257   29.0589   45.8638 H   0  0  0  0  0  0  0  0  0  0  0  0
   56.4415   28.5444   44.1789 H   0  0  0  0  0  0  0  0  0  0  0  0
   58.7926   25.4939   45.8531 H   0  0  0  0  0  0  0  0  0  0  0  0
   58.8360   23.4059   44.4967 H   0  0  0  0  0  0  0  0  0  0  0  0
  1  2  1  0
  2  3  2  0
  2  4  1  0
  4  5  2  0
  5  6  1  0
  6  7  2  0
  7  8  1  0
  8  9  1  0
  9 10  2  0
  9 11  1  0
 11 12  1  0
 12 13  1  0
 13 14  1  0
 14 15  1  0
 15 16  1  0
 16 17  1  0
 17 18  2  0
 18 19  1  0
 19 20  2  0
 20 21  1  0
 20 22  1  0
 22 23  2  0
 15 24  1  0
 24 25  1  0
  7 26  1  0
 26 27  2  0
 27  4  1  0
 25 12  1  0
 23 17  1  0
  1 28  1  0
  1 29  1  0
  5 30  1  0
  6 31  1  0
 11 32  1  0
 11 33  1  0
 13 34  1  0
 13 35  1  0
 14 36  1  0
 14 37  1  0
 16 38  1  0
 16 39  1  0
 18 40  1  0
 19 41  1  0
 22 42  1  0
 23 43  1  0
 24 44  1  0
 24 45  1  0
 25 46  1  0
 25 47  1  0
 26 48  1  0
 27 49  1  0
M  CHG  1   8  -1
M  END
>  <UniqueID>  (80) 
77

>  <SMILES>  (80) 
NC(=O)c1ccc([N-]C(=O)CN2CCN(Cc3ccc(Cl)cc3)CC2)cc1

>  <Energy>  (80) 
71.30864820369608

>  <Genealogy>  (80) 
NC(=O)c1ccc([N-]C(=O)CN2CCN(Cc3ccc(Cl)cc3)CC2)cc1 (protonated)
NC(=O)c1ccc([N-]C(=O)CN2CCN(Cc3ccc(Cl)cc3)CC2)cc1 (3D coordinates assigned)
NC(=O)c1ccc([N-]C(=O)CN2CCN(Cc3ccc(Cl)cc3)CC2)cc1 (nonaromatic ring conformer: 71.30864820369608 kcal/mol)

>  <smiles>  (80) 
NC(=O)c1ccc(NC(=O)CN2CCN(Cc3ccc(Cl)cc3)CC2)cc1

>  <score_type>  (80) 
oracle

>  <origin>  (80) 
adg

>  <m_score__min__energy>  (80) 
-10.869999999999999

>  <m_primary>  (80) 
energy

$$$$
80:0
     RDKit          3D

 40 42  0  0  0  0  0  0  0  0999 V2000
   59.4730   34.3550   44.1830 O   0  0  0  0  0  0  0  0  0  0  0  0
   58.6590   33.6720   44.8630 C   0  0  0  0  0  0  0  0  0  0  0  0
   58.3720   34.0020   46.1940 O   0  0  0  0  0  0  0  0  0  0  0  0
   59.0380   33.5110   47.3270 C   0  0  0  0  0  0  0  0  0  0  0  0
   58.3700   32.7780   48.3280 C   0  0  0  0  0  0  0  0  0  0  0  0
   59.0660   32.3220   49.4510 C   0  0  0  0  0  0  0  0  0  0  0  0
   60.4260   32.6000   49.5940 C   0  0  0  0  0  0  0  0  0  0  0  0
   61.0930   33.3440   48.6180 C   0  0  0  0  0  0  0  0  0  0  0  0
   60.4060   33.8060   47.4900 C   0  0  0  0  0  0  0  0  0  0  0  0
   61.0970   34.5600   46.5410 O   0  0  0  0  0  0  0  0  0  0  0  0
   57.9670   32.5340   44.2510 C   0  0  0  0  0  0  0  0  0  0  0  0
   58.1880   31.9930   42.9990 C   0  0  0  0  0  0  0  0  0  0  0  0
   57.4040   30.9120   42.8280 N   0  0  0  0  0  0  0  0  0  0  0  0
   56.7040   30.7530   43.9690 C   0  0  0  0  0  0  0  0  0  0  0  0
   55.7330   29.6730   44.1940 C   0  0  0  0  0  0  0  0  0  0  0  0
   54.7400   29.5780   43.4270 O   0  0  0  0  0  0  0  0  0  0  0  0
   55.8920   28.7100   45.2460 N   0  0  0  0  0  0  0  0  0  0  0  0
   57.0000   27.7630   45.3650 C   0  0  0  0  0  0  0  0  0  0  0  0
   58.3080   28.4610   45.6290 C   0  0  0  0  0  0  0  0  0  0  0  0
   59.3960   28.2930   44.7550 C   0  0  0  0  0  0  0  0  0  0  0  0
   60.6150   28.9280   45.0160 C   0  0  0  0  0  0  0  0  0  0  0  0
   60.7520   29.7450   46.1420 C   0  0  0  0  0  0  0  0  0  0  0  0
   59.6670   29.9420   47.0000 C   0  0  0  0  0  0  0  0  0  0  0  0
   58.4460   29.3100   46.7420 C   0  0  0  0  0  0  0  0  0  0  0  0
   57.0030   31.7600   44.8620 C   0  0  0  0  0  0  0  0  0  0  0  0
   57.2960   32.5637   48.2251 H   0  0  0  0  0  0  0  0  0  0  0  0
   58.5403   31.7424   50.2242 H   0  0  0  0  0  0  0  0  0  0  0  0
   60.9727   32.2333   50.4753 H   0  0  0  0  0  0  0  0  0  0  0  0
   62.1634   33.5678   48.7367 H   0  0  0  0  0  0  0  0  0  0  0  0
   60.6510   34.9160   45.7040 H   0  0  0  0  0  0  0  0  0  0  0  0
   58.8967   32.3858   42.2551 H   0  0  0  0  0  0  0  0  0  0  0  0
   57.3690   30.2990   41.9840 H   0  0  0  0  0  0  0  0  0  0  0  0
   56.7908   27.0731   46.1959 H   0  0  0  0  0  0  0  0  0  0  0  0
   57.0889   27.2202   44.4124 H   0  0  0  0  0  0  0  0  0  0  0  0
   59.2885   27.6596   43.8621 H   0  0  0  0  0  0  0  0  0  0  0  0
   61.4664   28.7842   44.3345 H   0  0  0  0  0  0  0  0  0  0  0  0
   61.7149   30.2333   46.3527 H   0  0  0  0  0  0  0  0  0  0  0  0
   59.7730   30.5946   47.8791 H   0  0  0  0  0  0  0  0  0  0  0  0
   57.5901   29.4777   47.4124 H   0  0  0  0  0  0  0  0  0  0  0  0
   56.5627   31.9144   45.8581 H   0  0  0  0  0  0  0  0  0  0  0  0
  1  2  2  0
  2  3  1  0
  3  4  1  0
  4  5  2  0
  5  6  1  0
  6  7  2  0
  7  8  1  0
  8  9  2  0
  9 10  1  0
  2 11  1  0
 11 12  2  0
 12 13  1  0
 13 14  1  0
 14 15  1  0
 15 16  2  0
 15 17  1  0
 17 18  1  0
 18 19  1  0
 19 20  2  0
 20 21  1  0
 21 22  2  0
 22 23  1  0
 23 24  2  0
 14 25  2  0
  9  4  1  0
 25 11  1  0
 24 19  1  0
  5 26  1  0
  6 27  1  0
  7 28  1  0
  8 29  1  0
 10 30  1  0
 12 31  1  0
 13 32  1  0
 18 33  1  0
 18 34  1  0
 20 35  1  0
 21 36  1  0
 22 37  1  0
 23 38  1  0
 24 39  1  0
 25 40  1  0
M  CHG  1  17  -1
M  END
>  <UniqueID>  (81) 
78

>  <SMILES>  (81) 
O=C(Oc1ccccc1O)c1c[nH]c(C(=O)[N-]Cc2ccccc2)c1

>  <Energy>  (81) 
73.64195498421198

>  <Genealogy>  (81) 
O=C(Oc1ccccc1O)c1c[nH]c(C(=O)[N-]Cc2ccccc2)c1 (protonated)
O=C(Oc1ccccc1O)c1c[nH]c(C(=O)[N-]Cc2ccccc2)c1 (3D coordinates assigned)
O=C(Oc1ccccc1O)c1c[nH]c(C(=O)[N-]Cc2ccccc2)c1 (optimized conformer: 73.64195498421198 kcal/mol)

>  <smiles>  (81) 
O=C(Oc1ccccc1O)c1c[nH]c(C(=O)NCc2ccccc2)c1

>  <score_type>  (81) 
oracle

>  <origin>  (81) 
adg

>  <m_score__min__energy>  (81) 
-10.609999999999999

>  <m_primary>  (81) 
energy

$$$$
81:0
     RDKit          3D

 55 58  0  0  1  0  0  0  0  0999 V2000
   57.7380   27.8170   43.9050 C   0  0  0  0  0  0  0  0  0  0  0  0
   57.3990   28.7090   45.0430 C   0  0  0  0  0  0  0  0  0  0  0  0
   56.2030   29.0750   45.1620 O   0  0  0  0  0  0  0  0  0  0  0  0
   58.4470   29.1260   45.9690 C   0  0  0  0  0  0  0  0  0  0  0  0
   59.5430   29.7250   45.4740 N   0  0  0  0  0  0  0  0  0  0  0  0
   60.5580   30.1460   46.2710 C   0  0  0  0  0  0  0  0  0  0  0  0
   60.4970   29.9680   47.6540 C   0  0  0  0  0  0  0  0  0  0  0  0
   61.6060   30.4430   48.4890 C   0  0  0  0  0  0  0  0  0  0  0  0
   61.7900   31.8200   48.6230 N   0  0  0  0  0  0  0  0  0  0  0  0
   62.4950   32.5470   47.6360 C   0  0  0  0  0  0  0  0  0  0  0  0
   61.7240   33.8480   47.4240 C   0  0  0  0  0  0  0  0  0  0  0  0
   61.0270   34.2750   48.5680 N   0  0  0  0  0  0  0  0  0  0  0  0
   59.6490   34.5710   48.4730 C   0  0  0  0  0  0  0  0  0  0  0  0
   59.1000   34.1840   47.1620 C   0  0  0  0  0  0  0  0  0  0  0  0
   59.3620   35.0310   46.0860 C   0  0  0  0  0  0  0  0  0  0  0  0
   58.8940   34.7840   44.8160 C   0  0  0  0  0  0  0  0  0  0  0  0
   58.1410   33.6460   44.6290 C   0  0  0  0  0  0  0  0  0  0  0  0
   57.8540   32.7770   45.6550 C   0  0  0  0  0  0  0  0  0  0  0  0
   57.0880   31.6420   45.4170 O   0  0  0  0  0  0  0  0  0  0  0  0
   58.3450   33.0680   46.9180 C   0  0  0  0  0  0  0  0  0  0  0  0
   61.5070   33.8550   49.8480 C   0  0  0  0  0  0  0  0  0  0  0  0
   61.9390   32.4050   49.8970 C   0  0  0  0  0  0  0  0  0  0  0  0
   59.3600   29.3510   48.1290 C   0  0  0  0  0  0  0  0  0  0  0  0
   59.2740   29.1760   49.4030 N   0  0  0  0  0  0  0  0  0  0  0  0
   58.4750   30.0740   50.1740 C   0  0  0  0  0  0  0  0  0  0  0  0
   58.5420   31.5410   50.0590 C   0  0  0  0  0  0  0  0  0  0  0  0
   59.3190   30.9240   51.1550 C   0  0  0  0  0  0  0  0  0  0  0  0
   58.3620   28.9420   47.2970 N   0  0  0  0  0  0  0  0  0  0  0  0
   58.1040   26.8539   44.2904 H   0  0  0  0  0  0  0  0  0  0  0  0
   56.8410   27.6491   43.2909 H   0  0  0  0  0  0  0  0  0  0  0  0
   58.5201   28.2873   43.2909 H   0  0  0  0  0  0  0  0  0  0  0  0
   61.4370   30.6321   45.8226 H   0  0  0  0  0  0  0  0  0  0  0  0
   61.4514   30.0352   49.4988 H   0  0  0  0  0  0  0  0  0  0  0  0
   62.5088   30.0981   47.9636 H   0  0  0  0  0  0  0  0  0  0  0  0
   63.5172   32.7626   47.9803 H   0  0  0  0  0  0  0  0  0  0  0  0
   62.5745   31.9742   46.7003 H   0  0  0  0  0  0  0  0  0  0  0  0
   62.4380   34.6339   47.1367 H   0  0  0  0  0  0  0  0  0  0  0  0
   60.9767   33.6593   46.6392 H   0  0  0  0  0  0  0  0  0  0  0  0
   59.1112   34.0233   49.2609 H   0  0  0  0  0  0  0  0  0  0  0  0
   59.5215   35.6571   48.5922 H   0  0  0  0  0  0  0  0  0  0  0  0
   59.9672   35.9330   46.2594 H   0  0  0  0  0  0  0  0  0  0  0  0
   59.1126   35.4683   43.9830 H   0  0  0  0  0  0  0  0  0  0  0  0
   57.7555   33.4245   43.6229 H   0  0  0  0  0  0  0  0  0  0  0  0
   57.0200   30.9050   46.1230 H   0  0  0  0  0  0  0  0  0  0  0  0
   58.1216   32.3824   47.7487 H   0  0  0  0  0  0  0  0  0  0  0  0
   62.3695   34.4824   50.1171 H   0  0  0  0  0  0  0  0  0  0  0  0
   60.6696   33.9621   50.5532 H   0  0  0  0  0  0  0  0  0  0  0  0
   62.9937   32.3482   50.2040 H   0  0  0  0  0  0  0  0  0  0  0  0
   61.3129   31.8633   50.6213 H   0  0  0  0  0  0  0  0  0  0  0  0
   57.6146   29.3887   50.1623 H   0  0  0  0  0  0  0  0  0  0  0  0
   59.0726   31.9930   49.2080 H   0  0  0  0  0  0  0  0  0  0  0  0
   57.7806   32.3340   50.0228 H   0  0  0  0  0  0  0  0  0  0  0  0
   60.4177   30.8967   51.1093 H   0  0  0  0  0  0  0  0  0  0  0  0
   59.3744   31.0446   52.2470 H   0  0  0  0  0  0  0  0  0  0  0  0
   57.5020   28.4770   47.6570 H   0  0  0  0  0  0  0  0  0  0  0  0
  1  2  1  0
  2  3  2  0
  2  4  1  0
  4  5  2  0
  5  6  1  0
  6  7  2  0
  7  8  1  0
  8  9  1  0
  9 10  1  0
 10 11  1  0
 11 12  1  0
 12 13  1  0
 13 14  1  0
 14 15  2  0
 15 16  1  0
 16 17  2  0
 17 18  1  0
 18 19  1  0
 18 20  2  0
 12 21  1  0
 21 22  1  0
  7 23  1  0
 23 24  2  0
 24 25  1  0
 25 26  1  0
 26 27  1  0
 23 28  1  0
 28  4  1  0
 22  9  1  0
 27 25  1  0
 20 14  1  0
  1 29  1  0
  1 30  1  0
  1 31  1  0
  6 32  1  0
  8 33  1  0
  8 34  1  0
 10 35  1  0
 10 36  1  0
 11 37  1  0
 11 38  1  0
 13 39  1  0
 13 40  1  0
 15 41  1  0
 16 42  1  0
 17 43  1  0
 19 44  1  0
 20 45  1  0
 21 46  1  0
 21 47  1  0
 22 48  1  0
 22 49  1  0
 25 50  1  0
 26 51  1  0
 26 52  1  0
 27 53  1  0
 27 54  1  0
 28 55  1  0
M  END
>  <smiles>  (82) 
CC(=O)c1ncc(CN2CCN(Cc3cccc(O)c3)CC2)c(=NC2CC2)[nH]1

>  <score_type>  (82) 
oracle

>  <origin>  (82) 
adg

>  <m_score__min__energy>  (82) 
-9.8000000000000007

>  <m_primary>  (82) 
energy

$$$$
82:0
     RDKit          3D

 54 57  0  0  0  0  0  0  0  0999 V2000
   57.7980   26.5700   43.8630 C   0  0  0  0  0  0  0  0  0  0  0  0
   57.8400   28.0330   43.9640 N   0  0  0  0  0  0  0  0  0  0  0  0
   57.0290   28.8460   43.0400 C   0  0  0  0  0  0  0  0  0  0  0  0
   56.0680   29.7580   43.8060 C   0  0  0  0  0  0  0  0  0  0  0  0
   55.4640   29.0440   44.8490 O   0  0  0  0  0  0  0  0  0  0  0  0
   58.6580   28.6530   44.9840 C   0  0  0  0  0  0  0  0  0  0  0  0
   58.1800   28.8050   46.2980 C   0  0  0  0  0  0  0  0  0  0  0  0
   58.9740   29.4030   47.2800 C   0  0  0  0  0  0  0  0  0  0  0  0
   60.2690   29.8580   46.9750 C   0  0  0  0  0  0  0  0  0  0  0  0
   61.0990   30.4980   48.0220 C   0  0  0  0  0  0  0  0  0  0  0  0
   61.0550   30.0620   49.2050 O   0  0  0  0  0  0  0  0  0  0  0  0
   61.9660   31.5990   47.7050 N   0  0  0  0  0  0  0  0  0  0  0  0
   62.6210   32.3640   48.7250 C   0  0  0  0  0  0  0  0  0  0  0  0
   64.0180   32.2980   48.8300 C   0  0  0  0  0  0  0  0  0  0  0  0
   64.6880   33.0400   49.8040 C   0  0  0  0  0  0  0  0  0  0  0  0
   66.0410   32.9700   49.9210 N   0  0  0  0  0  0  0  0  0  0  0  0
   66.7010   33.6850   50.8710 C   0  0  0  0  0  0  0  0  0  0  0  0
   67.9540   33.6060   50.9610 O   0  0  0  0  0  0  0  0  0  0  0  0
   65.9800   34.5080   51.7420 C   0  0  0  0  0  0  0  0  0  0  0  0
   64.6270   34.5810   51.6280 N   0  0  0  0  0  0  0  0  0  0  0  0
   63.9620   33.8680   50.6800 C   0  0  0  0  0  0  0  0  0  0  0  0
   62.5730   33.9580   50.5670 C   0  0  0  0  0  0  0  0  0  0  0  0
   61.8920   33.2260   49.5760 C   0  0  0  0  0  0  0  0  0  0  0  0
   60.4650   33.3600   49.4370 N   0  0  0  0  0  0  0  0  0  0  0  0
   59.8010   33.5990   48.1830 C   0  0  0  0  0  0  0  0  0  0  0  0
   60.3150   34.5660   47.3040 C   0  0  0  0  0  0  0  0  0  0  0  0
   59.6730   34.8320   46.0910 C   0  0  0  0  0  0  0  0  0  0  0  0
   58.5050   34.1430   45.7520 C   0  0  0  0  0  0  0  0  0  0  0  0
   57.9740   33.1930   46.6270 C   0  0  0  0  0  0  0  0  0  0  0  0
   58.6140   32.9250   47.8410 C   0  0  0  0  0  0  0  0  0  0  0  0
   60.7430   29.7180   45.6600 C   0  0  0  0  0  0  0  0  0  0  0  0
   59.9480   29.1210   44.6780 C   0  0  0  0  0  0  0  0  0  0  0  0
   57.7855   26.1330   44.8724 H   0  0  0  0  0  0  0  0  0  0  0  0
   56.8908   26.2658   43.3204 H   0  0  0  0  0  0  0  0  0  0  0  0
   58.6863   26.2143   43.3204 H   0  0  0  0  0  0  0  0  0  0  0  0
   57.6982   29.4653   42.4247 H   0  0  0  0  0  0  0  0  0  0  0  0
   56.4373   28.1687   42.4066 H   0  0  0  0  0  0  0  0  0  0  0  0
   56.6265   30.6094   44.2221 H   0  0  0  0  0  0  0  0  0  0  0  0
   55.2905   30.1240   43.1193 H   0  0  0  0  0  0  0  0  0  0  0  0
   55.8720   28.1400   44.8340 H   0  0  0  0  0  0  0  0  0  0  0  0
   57.1712   28.4496   46.5551 H   0  0  0  0  0  0  0  0  0  0  0  0
   58.5823   29.5189   48.3013 H   0  0  0  0  0  0  0  0  0  0  0  0
   62.3250   31.6880   46.7290 H   0  0  0  0  0  0  0  0  0  0  0  0
   64.5887   31.6580   48.1410 H   0  0  0  0  0  0  0  0  0  0  0  0
   66.5035   35.0918   52.5134 H   0  0  0  0  0  0  0  0  0  0  0  0
   62.0084   34.6039   51.2556 H   0  0  0  0  0  0  0  0  0  0  0  0
   59.8720   33.3020   50.2940 H   0  0  0  0  0  0  0  0  0  0  0  0
   61.2284   35.1175   47.5715 H   0  0  0  0  0  0  0  0  0  0  0  0
   60.0871   35.5838   45.4030 H   0  0  0  0  0  0  0  0  0  0  0  0
   58.0036   34.3493   44.7949 H   0  0  0  0  0  0  0  0  0  0  0  0
   57.0519   32.6553   46.3611 H   0  0  0  0  0  0  0  0  0  0  0  0
   58.1873   32.1834   48.5323 H   0  0  0  0  0  0  0  0  0  0  0  0
   61.7485   30.0814   45.4011 H   0  0  0  0  0  0  0  0  0  0  0  0
   60.3359   29.0160   43.6540 H   0  0  0  0  0  0  0  0  0  0  0  0
  1  2  1  0
  2  3  1  0
  3  4  1  0
  4  5  1  0
  2  6  1  0
  6  7  2  0
  7  8  1  0
  8  9  2  0
  9 10  1  0
 10 11  2  0
 10 12  1  0
 12 13  1  0
 13 14  2  0
 14 15  1  0
 15 16  1  0
 16 17  1  0
 17 18  2  0
 17 19  1  0
 19 20  2  0
 20 21  1  0
 21 22  1  0
 22 23  2  0
 23 24  1  0
 24 25  1  0
 25 26  2  0
 26 27  1  0
 27 28  2  0
 28 29  1  0
 29 30  2  0
  9 31  1  0
 31 32  2  0
 32  6  1  0
 23 13  1  0
 30 25  1  0
 21 15  2  0
  1 33  1  0
  1 34  1  0
  1 35  1  0
  3 36  1  0
  3 37  1  0
  4 38  1  0
  4 39  1  0
  5 40  1  0
  7 41  1  0
  8 42  1  0
 12 43  1  0
 14 44  1  0
 19 45  1  0
 22 46  1  0
 24 47  1  0
 26 48  1  0
 27 49  1  0
 28 50  1  0
 29 51  1  0
 30 52  1  0
 31 53  1  0
 32 54  1  0
M  CHG  1  16  -1
M  END
>  <UniqueID>  (83) 
79

>  <SMILES>  (83) 
CN(CCO)c1ccc(C(=O)Nc2cc3[n-]c(=O)cnc3cc2Nc2ccccc2)cc1

>  <Energy>  (83) 
76.73803737344069

>  <Genealogy>  (83) 
CN(CCO)c1ccc(C(=O)Nc2cc3[n-]c(=O)cnc3cc2Nc2ccccc2)cc1 (protonated)
CN(CCO)c1ccc(C(=O)Nc2cc3[n-]c(=O)cnc3cc2Nc2ccccc2)cc1 (3D coordinates assigned)
CN(CCO)c1ccc(C(=O)Nc2cc3[n-]c(=O)cnc3cc2Nc2ccccc2)cc1 (optimized conformer: 76.73803737344069 kcal/mol)

>  <smiles>  (83) 
CN(CCO)c1ccc(C(=O)Nc2cc3[nH]c(=O)cnc3cc2Nc2ccccc2)cc1

>  <score_type>  (83) 
oracle

>  <origin>  (83) 
adg

>  <m_score__min__energy>  (83) 
-9.4600000000000009

>  <m_primary>  (83) 
energy

$$$$
83:0
     RDKit          3D

 49 52  0  0  0  0  0  0  0  0999 V2000
   62.2920   32.2030   46.9930 O   0  0  0  0  0  0  0  0  0  0  0  0
   62.4300   33.1070   47.8610 C   0  0  0  0  0  0  0  0  0  0  0  0
   63.8030   33.6120   48.1810 C   0  0  0  0  0  0  0  0  0  0  0  0
   64.4000   32.8050   49.3000 C   0  0  0  0  0  0  0  0  0  0  0  0
   63.6850   31.7320   49.8570 C   0  0  0  0  0  0  0  0  0  0  0  0
   64.2490   30.9660   50.8820 C   0  0  0  0  0  0  0  0  0  0  0  0
   65.5330   31.2580   51.3480 C   0  0  0  0  0  0  0  0  0  0  0  0
   66.2580   32.3120   50.7850 C   0  0  0  0  0  0  0  0  0  0  0  0
   65.6950   33.0850   49.7650 C   0  0  0  0  0  0  0  0  0  0  0  0
   61.3220   33.5470   48.6600 N   0  0  0  0  0  0  0  0  0  0  0  0
   60.5390   32.8260   49.4120 C   0  0  0  0  0  0  0  0  0  0  0  0
   60.5360   31.4720   49.4770 N   0  0  0  0  0  0  0  0  0  0  0  0
   59.5850   31.0050   50.3360 C   0  0  0  0  0  0  0  0  0  0  0  0
   59.4060   29.5430   50.6110 C   0  0  0  0  0  0  0  0  0  0  0  0
   60.5290   28.5480   49.5720 S   0  0  0  0  0  0  0  0  0  0  0  0
   59.4820   28.6010   48.1170 C   0  0  0  0  0  0  0  0  0  0  0  0
   58.5610   27.6320   47.7470 C   0  0  0  0  0  0  0  0  0  0  0  0
   57.9130   27.8880   46.5790 N   0  0  0  0  0  0  0  0  0  0  0  0
   58.3210   29.0560   46.0300 C   0  0  0  0  0  0  0  0  0  0  0  0
   57.8710   29.5350   44.9080 N   0  0  0  0  0  0  0  0  0  0  0  0
   56.6190   30.2120   44.7180 C   0  0  0  0  0  0  0  0  0  0  0  0
   55.5290   29.5790   44.7910 O   0  0  0  0  0  0  0  0  0  0  0  0
   56.6390   31.5960   44.4910 O   0  0  0  0  0  0  0  0  0  0  0  0
   57.4960   32.5330   45.0950 C   0  0  0  0  0  0  0  0  0  0  0  0
   58.3600   33.2600   44.2660 C   0  0  0  0  0  0  0  0  0  0  0  0
   59.2280   34.2160   44.8030 C   0  0  0  0  0  0  0  0  0  0  0  0
   59.2390   34.4540   46.1810 C   0  0  0  0  0  0  0  0  0  0  0  0
   58.3730   33.7470   47.0180 C   0  0  0  0  0  0  0  0  0  0  0  0
   57.4930   32.8010   46.4830 C   0  0  0  0  0  0  0  0  0  0  0  0
   59.5000   29.8180   46.9550 S   0  0  0  0  0  0  0  0  0  0  0  0
   58.8200   31.9910   50.9580 C   0  0  0  0  0  0  0  0  0  0  0  0
   59.3560   33.4870   50.4030 S   0  0  0  0  0  0  0  0  0  0  0  0
   64.4403   33.5247   47.2887 H   0  0  0  0  0  0  0  0  0  0  0  0
   63.7371   34.6654   48.4909 H   0  0  0  0  0  0  0  0  0  0  0  0
   62.6775   31.4933   49.4855 H   0  0  0  0  0  0  0  0  0  0  0  0
   63.6811   30.1328   51.3216 H   0  0  0  0  0  0  0  0  0  0  0  0
   65.9736   30.6584   52.1581 H   0  0  0  0  0  0  0  0  0  0  0  0
   67.2735   32.5338   51.1451 H   0  0  0  0  0  0  0  0  0  0  0  0
   66.2681   33.9147   49.3256 H   0  0  0  0  0  0  0  0  0  0  0  0
   61.1530   30.8360   48.9270 H   0  0  0  0  0  0  0  0  0  0  0  0
   59.6250   29.3456   51.6708 H   0  0  0  0  0  0  0  0  0  0  0  0
   58.3680   29.2639   50.3770 H   0  0  0  0  0  0  0  0  0  0  0  0
   58.3705   26.7310   48.3486 H   0  0  0  0  0  0  0  0  0  0  0  0
   58.3557   33.0770   43.1813 H   0  0  0  0  0  0  0  0  0  0  0  0
   59.9018   34.7805   44.1417 H   0  0  0  0  0  0  0  0  0  0  0  0
   59.9294   35.1977   46.6055 H   0  0  0  0  0  0  0  0  0  0  0  0
   58.3831   33.9349   48.1018 H   0  0  0  0  0  0  0  0  0  0  0  0
   56.7967   32.2640   47.1439 H   0  0  0  0  0  0  0  0  0  0  0  0
   58.0100   31.8213   51.6827 H   0  0  0  0  0  0  0  0  0  0  0  0
  1  2  2  0
  2  3  1  0
  3  4  1  0
  4  5  2  0
  5  6  1  0
  6  7  2  0
  7  8  1  0
  8  9  2  0
  2 10  1  0
 10 11  2  3
 11 12  1  0
 12 13  1  0
 13 14  1  0
 14 15  1  0
 15 16  1  0
 16 17  2  0
 17 18  1  0
 18 19  1  0
 19 20  2  3
 20 21  1  0
 21 22  2  0
 21 23  1  0
 23 24  1  0
 24 25  2  0
 25 26  1  0
 26 27  2  0
 27 28  1  0
 28 29  2  0
 19 30  1  0
 13 31  2  0
 31 32  1  0
  9  4  1  0
 32 11  1  0
 30 16  1  0
 29 24  1  0
  3 33  1  0
  3 34  1  0
  5 35  1  0
  6 36  1  0
  7 37  1  0
  8 38  1  0
  9 39  1  0
 12 40  1  0
 14 41  1  0
 14 42  1  0
 17 43  1  0
 25 44  1  0
 26 45  1  0
 27 46  1  0
 28 47  1  0
 29 48  1  0
 31 49  1  0
M  CHG  1  18  -1
M  END
>  <UniqueID>  (84) 
80

>  <SMILES>  (84) 
O=C(Cc1ccccc1)N=c1[nH]c(CSc2c[n-]c(=NC(=O)Oc3ccccc3)s2)cs1

>  <Energy>  (84) 
117.06409340319186

>  <Genealogy>  (84) 
O=C(Cc1ccccc1)N=c1[nH]c(CSc2c[n-]c(=NC(=O)Oc3ccccc3)s2)cs1 (protonated)
O=C(Cc1ccccc1)N=c1[nH]c(CSc2c[n-]c(=NC(=O)Oc3ccccc3)s2)cs1 (3D coordinates assigned)
O=C(Cc1ccccc1)N=c1[nH]c(CSc2c[n-]c(=NC(=O)Oc3ccccc3)s2)cs1 (optimized conformer: 117.06409340319186 kcal/mol)

>  <smiles>  (84) 
O=C(Cc1ccccc1)N=c1[nH]c(CSc2c[nH]c(=NC(=O)Oc3ccccc3)s2)cs1

>  <score_type>  (84) 
oracle

>  <origin>  (84) 
adg

>  <m_score__min__energy>  (84) 
-11.369999999999999

>  <m_primary>  (84) 
energy

$$$$
84:0
     RDKit          3D

 36 38  0  0  0  0  0  0  0  0999 V2000
   58.4292   34.0683   43.8058 H   0  0  0  0  0  0  0  0  0  0  0  0
   58.0600   33.3740   44.5750 C   0  0  0  0  0  0  0  0  0  0  0  0
   58.0938   33.6606   45.6365 H   0  0  0  0  0  0  0  0  0  0  0  0
   57.5720   32.1860   44.2210 C   0  0  0  0  0  0  0  0  0  0  0  0
   57.1140   31.3060   45.0810 O   0  0  0  0  0  0  0  0  0  0  0  0
   56.7070   30.2470   44.4150 C   0  0  0  0  0  0  0  0  0  0  0  0
   56.1920   29.1480   44.9780 C   0  0  0  0  0  0  0  0  0  0  0  0
   55.1159   29.1296   45.2054 H   0  0  0  0  0  0  0  0  0  0  0  0
   57.0050   27.9550   45.3090 C   0  0  0  0  0  0  0  0  0  0  0  0
   56.4300   26.7840   45.8320 C   0  0  0  0  0  0  0  0  0  0  0  0
   55.0480   26.7070   46.0000 O   0  0  0  0  0  0  0  0  0  0  0  0
   57.2150   25.7040   46.1380 N   0  0  0  0  0  0  0  0  0  0  0  0
   56.6150   24.5220   46.7040 C   0  0  0  0  0  0  0  0  0  0  0  0
   55.6610   23.7940   45.9730 C   0  0  0  0  0  0  0  0  0  0  0  0
   55.3696   24.1280   44.9662 H   0  0  0  0  0  0  0  0  0  0  0  0
   55.0810   22.6460   46.5220 C   0  0  0  0  0  0  0  0  0  0  0  0
   54.3335   22.0801   45.9467 H   0  0  0  0  0  0  0  0  0  0  0  0
   55.4490   22.2160   47.8000 C   0  0  0  0  0  0  0  0  0  0  0  0
   54.9925   21.3118   48.2291 H   0  0  0  0  0  0  0  0  0  0  0  0
   56.3980   22.9360   48.5330 C   0  0  0  0  0  0  0  0  0  0  0  0
   56.6860   22.5986   49.5396 H   0  0  0  0  0  0  0  0  0  0  0  0
   56.9810   24.0840   47.9880 C   0  0  0  0  0  0  0  0  0  0  0  0
   57.7288   24.6463   48.5664 H   0  0  0  0  0  0  0  0  0  0  0  0
   58.5640   25.7470   45.8980 C   0  0  0  0  0  0  0  0  0  0  0  0
   59.2980   24.7620   46.1870 O   0  0  0  0  0  0  0  0  0  0  0  0
   59.1280   26.8570   45.3500 N   0  0  0  0  0  0  0  0  0  0  0  0
   60.1570   26.8710   45.1660 H   0  0  0  0  0  0  0  0  0  0  0  0
   58.3820   27.9520   45.0500 C   0  0  0  0  0  0  0  0  0  0  0  0
   58.9420   28.9660   44.5510 O   0  0  0  0  0  0  0  0  0  0  0  0
   56.9080   30.4270   43.0580 C   0  0  0  0  0  0  0  0  0  0  0  0
   56.6732   29.7191   42.2495 H   0  0  0  0  0  0  0  0  0  0  0  0
   57.4660   31.6840   42.9340 C   0  0  0  0  0  0  0  0  0  0  0  0
   57.8710   32.3500   41.6560 C   0  0  0  0  0  0  0  0  0  0  0  0
   58.4302   33.2696   41.8830 H   0  0  0  0  0  0  0  0  0  0  0  0
   58.5076   31.6682   41.0729 H   0  0  0  0  0  0  0  0  0  0  0  0
   56.9728   32.6015   41.0729 H   0  0  0  0  0  0  0  0  0  0  0  0
  1  2  1  0
  2  3  1  0
  2  4  2  0
  4  5  1  0
  5  6  1  0
  6  7  2  0
  7  8  1  0
  7  9  1  0
  9 10  2  0
 10 11  1  0
 10 12  1  0
 12 13  1  0
 13 14  2  0
 14 15  1  0
 14 16  1  0
 16 17  1  0
 16 18  2  0
 18 19  1  0
 18 20  1  0
 20 21  1  0
 20 22  2  0
 22 23  1  0
 12 24  1  0
 24 25  2  0
 24 26  1  0
 26 27  1  0
 26 28  1  0
 28 29  2  0
  6 30  1  0
 30 31  1  0
 30 32  2  0
 32 33  1  0
 33 34  1  0
 33 35  1  0
 33 36  1  0
 32  4  1  0
 28  9  1  0
 22 13  1  0
M  CHG  1  11  -1
M  END
>  <UniqueID>  (85) 
81

>  <SMILES>  (85) 
C=c1o/c(=C\c2c([O-])n(-c3ccccc3)c(=O)[nH]c2=O)cc1C

>  <Energy>  (85) 
80.6957549442662

>  <Genealogy>  (85) 
C=c1oc(=Cc2c([O-])n(-c3ccccc3)c(=O)[nH]c2=O)cc1C (protonated)
C=c1o/c(=C\c2c([O-])n(-c3ccccc3)c(=O)[nH]c2=O)cc1C (cis-trans isomerization)
C=c1o/c(=C\c2c([O-])n(-c3ccccc3)c(=O)[nH]c2=O)cc1C (3D coordinates assigned)
C=c1o/c(=C\c2c([O-])n(-c3ccccc3)c(=O)[nH]c2=O)cc1C (optimized conformer: 80.6957549442662 kcal/mol)

>  <smiles>  (85) 
C=c1oc(=Cc2c(O)n(-c3ccccc3)c(=O)[nH]c2=O)cc1C

>  <score_type>  (85) 
oracle

>  <origin>  (85) 
adg

>  <m_score__min__energy>  (85) 
-11.08

>  <m_primary>  (85) 
energy

$$$$
85:0
     RDKit          3D

 61 64  0  0  0  0  0  0  0  0999 V2000
   59.7760   29.7030   44.8500 C   0  0  0  0  0  0  0  0  0  0  0  0
   58.3240   29.8110   44.9740 N   0  0  0  0  0  0  0  0  0  0  0  0
   57.5310   30.8470   44.6220 C   0  0  0  0  0  0  0  0  0  0  0  0
   58.0100   32.1710   44.1070 C   0  0  0  0  0  0  0  0  0  0  0  0
   58.9460   32.8430   45.1110 C   0  0  0  0  0  0  0  0  0  0  0  0
   58.0260   33.7830   46.3230 S   0  0  0  0  0  0  0  0  0  0  0  0
   59.0840   34.9410   47.1700 C   0  0  0  0  0  0  0  0  0  0  0  0
   57.4370   32.8380   47.3330 O   0  0  0  0  0  0  0  0  0  0  0  0
   56.9130   34.5260   45.6370 O   0  0  0  0  0  0  0  0  0  0  0  0
   56.2270   30.5410   44.7740 N   0  0  0  0  0  0  0  0  0  0  0  0
   56.1700   29.2850   45.1910 N   0  0  0  0  0  0  0  0  0  0  0  0
   57.4380   28.8470   45.3000 C   0  0  0  0  0  0  0  0  0  0  0  0
   57.8570   27.1470   45.7050 S   0  0  0  0  0  0  0  0  0  0  0  0
   58.7760   27.6550   47.1580 C   0  0  0  0  0  0  0  0  0  0  0  0
   60.0040   27.0650   47.4540 C   0  0  0  0  0  0  0  0  0  0  0  0
   60.7930   27.5770   48.4840 C   0  0  0  0  0  0  0  0  0  0  0  0
   60.3640   28.6870   49.2280 C   0  0  0  0  0  0  0  0  0  0  0  0
   61.5620   29.4390   50.3440 S   0  0  0  0  0  0  0  0  0  0  0  0
   61.7050   30.9050   49.3160 C   0  0  0  0  0  0  0  0  0  0  0  0
   61.9630   32.1540   49.9010 C   0  0  0  0  0  0  0  0  0  0  0  0
   62.0130   33.3020   49.1020 C   0  0  0  0  0  0  0  0  0  0  0  0
   61.8180   33.2050   47.7220 C   0  0  0  0  0  0  0  0  0  0  0  0
   61.5720   31.9600   47.1370 C   0  0  0  0  0  0  0  0  0  0  0  0
   61.5200   30.8100   47.9310 C   0  0  0  0  0  0  0  0  0  0  0  0
   59.0720   29.2320   49.0000 C   0  0  0  0  0  0  0  0  0  0  0  0
   58.5070   30.3560   49.7980 C   0  0  0  0  0  0  0  0  0  0  0  0
   58.7490   31.5480   49.4600 O   0  0  0  0  0  0  0  0  0  0  0  0
   57.6630   30.1050   50.9250 N   0  0  0  0  0  0  0  0  0  0  0  0
   57.1470   31.1600   51.7850 C   0  0  0  0  0  0  0  0  0  0  0  0
   58.2950   31.9590   52.3310 C   0  0  0  0  0  0  0  0  0  0  0  0
   59.4350   31.3140   52.8420 C   0  0  0  0  0  0  0  0  0  0  0  0
   60.4910   32.0660   53.3660 C   0  0  0  0  0  0  0  0  0  0  0  0
   60.4100   33.4620   53.4000 C   0  0  0  0  0  0  0  0  0  0  0  0
   61.4330   34.1880   53.9150 F   0  0  0  0  0  0  0  0  0  0  0  0
   59.2740   34.1100   52.9020 C   0  0  0  0  0  0  0  0  0  0  0  0
   58.2190   33.3620   52.3710 C   0  0  0  0  0  0  0  0  0  0  0  0
   58.2950   28.7000   47.9530 C   0  0  0  0  0  0  0  0  0  0  0  0
   60.2281   29.6694   45.8522 H   0  0  0  0  0  0  0  0  0  0  0  0
   60.0298   28.7835   44.3022 H   0  0  0  0  0  0  0  0  0  0  0  0
   60.1631   30.5748   44.3022 H   0  0  0  0  0  0  0  0  0  0  0  0
   58.5492   32.0153   43.1610 H   0  0  0  0  0  0  0  0  0  0  0  0
   57.1377   32.8226   43.9506 H   0  0  0  0  0  0  0  0  0  0  0  0
   59.5336   32.0695   45.6272 H   0  0  0  0  0  0  0  0  0  0  0  0
   59.6071   33.5316   44.5644 H   0  0  0  0  0  0  0  0  0  0  0  0
   58.9692   34.8154   48.2568 H   0  0  0  0  0  0  0  0  0  0  0  0
   60.1309   34.7553   46.8879 H   0  0  0  0  0  0  0  0  0  0  0  0
   58.8047   35.9669   46.8879 H   0  0  0  0  0  0  0  0  0  0  0  0
   60.3506   26.1960   46.8754 H   0  0  0  0  0  0  0  0  0  0  0  0
   61.7601   27.1066   48.7152 H   0  0  0  0  0  0  0  0  0  0  0  0
   62.1258   32.2308   50.9862 H   0  0  0  0  0  0  0  0  0  0  0  0
   62.2062   34.2826   49.5615 H   0  0  0  0  0  0  0  0  0  0  0  0
   61.8581   34.1086   47.0960 H   0  0  0  0  0  0  0  0  0  0  0  0
   61.4190   31.8844   46.0503 H   0  0  0  0  0  0  0  0  0  0  0  0
   61.3336   29.8300   47.4674 H   0  0  0  0  0  0  0  0  0  0  0  0
   56.4849   31.8180   51.2030 H   0  0  0  0  0  0  0  0  0  0  0  0
   56.5792   30.7148   52.6153 H   0  0  0  0  0  0  0  0  0  0  0  0
   59.4963   30.2158   52.8296 H   0  0  0  0  0  0  0  0  0  0  0  0
   61.3873   31.5587   53.7523 H   0  0  0  0  0  0  0  0  0  0  0  0
   59.2112   35.2079   52.9284 H   0  0  0  0  0  0  0  0  0  0  0  0
   57.3258   33.8735   51.9829 H   0  0  0  0  0  0  0  0  0  0  0  0
   57.2943   29.1128   47.7575 H   0  0  0  0  0  0  0  0  0  0  0  0
  1  2  1  0
  2  3  1  0
  3  4  1  0
  4  5  1  0
  5  6  1  0
  6  7  1  0
  6  8  2  0
  6  9  2  0
  3 10  2  0
 10 11  1  0
 11 12  2  0
 12 13  1  0
 13 14  1  0
 14 15  2  0
 15 16  1  0
 16 17  2  0
 17 18  1  0
 18 19  1  0
 19 20  2  0
 20 21  1  0
 21 22  2  0
 22 23  1  0
 23 24  2  0
 17 25  1  0
 25 26  1  0
 26 27  2  0
 26 28  1  0
 28 29  1  0
 29 30  1  0
 30 31  2  0
 31 32  1  0
 32 33  2  0
 33 34  1  0
 33 35  1  0
 35 36  2  0
 25 37  2  0
 12  2  1  0
 37 14  1  0
 24 19  1  0
 36 30  1  0
  1 38  1  0
  1 39  1  0
  1 40  1  0
  4 41  1  0
  4 42  1  0
  5 43  1  0
  5 44  1  0
  7 45  1  0
  7 46  1  0
  7 47  1  0
 15 48  1  0
 16 49  1  0
 20 50  1  0
 21 51  1  0
 22 52  1  0
 23 53  1  0
 24 54  1  0
 29 55  1  0
 29 56  1  0
 31 57  1  0
 32 58  1  0
 35 59  1  0
 36 60  1  0
 37 61  1  0
M  CHG  1  28  -1
M  END
>  <UniqueID>  (86) 
82

>  <SMILES>  (86) 
Cn1c(CCS(C)(=O)=O)nnc1Sc1ccc(Sc2ccccc2)c(C(=O)[N-]Cc2ccc(F)cc2)c1

>  <Energy>  (86) 
81.14499666774171

>  <Genealogy>  (86) 
Cn1c(CCS(C)(=O)=O)nnc1Sc1ccc(Sc2ccccc2)c(C(=O)[N-]Cc2ccc(F)cc2)c1 (protonated)
Cn1c(CCS(C)(=O)=O)nnc1Sc1ccc(Sc2ccccc2)c(C(=O)[N-]Cc2ccc(F)cc2)c1 (3D coordinates assigned)
Cn1c(CCS(C)(=O)=O)nnc1Sc1ccc(Sc2ccccc2)c(C(=O)[N-]Cc2ccc(F)cc2)c1 (optimized conformer: 81.14499666774171 kcal/mol)

>  <smiles>  (86) 
Cn1c(CCS(C)(=O)=O)nnc1Sc1ccc(Sc2ccccc2)c(C(=O)NCc2ccc(F)cc2)c1

>  <score_type>  (86) 
oracle

>  <origin>  (86) 
adg

>  <m_score__min__energy>  (86) 
-11.789999999999999

>  <m_primary>  (86) 
energy

$$$$
86:0
     RDKit          3D

 36 38  0  0  0  0  0  0  0  0999 V2000
   56.1270   31.1000   44.5240 O   0  0  0  0  0  0  0  0  0  0  0  0
   57.3630   31.3420   44.4540 C   0  0  0  0  0  0  0  0  0  0  0  0
   57.8190   32.7020   44.0280 C   0  0  0  0  0  0  0  0  0  0  0  0
   57.6450   33.6250   45.0990 O   0  0  0  0  0  0  0  0  0  0  0  0
   58.4570   33.6430   46.2380 C   0  0  0  0  0  0  0  0  0  0  0  0
   58.0130   32.7200   47.5170 S   0  0  0  0  0  0  0  0  0  0  0  0
   59.6110   34.4980   46.3120 N   0  0  0  0  0  0  0  0  0  0  0  0
   60.8000   34.1890   47.0600 C   0  0  0  0  0  0  0  0  0  0  0  0
   61.9580   33.7850   46.3790 C   0  0  0  0  0  0  0  0  0  0  0  0
   63.1180   33.4540   47.0880 C   0  0  0  0  0  0  0  0  0  0  0  0
   63.1250   33.5100   48.4850 C   0  0  0  0  0  0  0  0  0  0  0  0
   64.5790   33.0940   49.3730 Cl  0  0  0  0  0  0  0  0  0  0  0  0
   61.9680   33.8900   49.1730 C   0  0  0  0  0  0  0  0  0  0  0  0
   60.8070   34.2210   48.4660 C   0  0  0  0  0  0  0  0  0  0  0  0
   58.3240   30.3610   44.8740 N   0  0  0  0  0  0  0  0  0  0  0  0
   58.0130   28.9770   45.1060 C   0  0  0  0  0  0  0  0  0  0  0  0
   59.0270   27.9770   45.0880 C   0  0  0  0  0  0  0  0  0  0  0  0
   58.7090   26.6290   45.3400 C   0  0  0  0  0  0  0  0  0  0  0  0
   57.3830   26.3170   45.6190 C   0  0  0  0  0  0  0  0  0  0  0  0
   56.8650   25.1100   45.8900 N   0  0  0  0  0  0  0  0  0  0  0  0
   55.5540   25.4030   46.0870 C   0  0  0  0  0  0  0  0  0  0  0  0
   54.7010   24.5230   46.3710 O   0  0  0  0  0  0  0  0  0  0  0  0
   55.2280   26.7150   45.9570 N   0  0  0  0  0  0  0  0  0  0  0  0
   56.4120   27.2690   45.6580 C   0  0  0  0  0  0  0  0  0  0  0  0
   56.6850   28.6120   45.4150 C   0  0  0  0  0  0  0  0  0  0  0  0
   58.8826   32.6605   43.7504 H   0  0  0  0  0  0  0  0  0  0  0  0
   57.2237   33.0312   43.1636 H   0  0  0  0  0  0  0  0  0  0  0  0
   59.5640   35.4280   45.8400 H   0  0  0  0  0  0  0  0  0  0  0  0
   61.9541   33.7281   45.2805 H   0  0  0  0  0  0  0  0  0  0  0  0
   64.0253   33.1494   46.5457 H   0  0  0  0  0  0  0  0  0  0  0  0
   61.9709   33.9287   50.2723 H   0  0  0  0  0  0  0  0  0  0  0  0
   59.8960   34.5074   49.0120 H   0  0  0  0  0  0  0  0  0  0  0  0
   59.2890   30.6920   45.1040 H   0  0  0  0  0  0  0  0  0  0  0  0
   60.0683   28.2606   44.8752 H   0  0  0  0  0  0  0  0  0  0  0  0
   59.4837   25.8485   45.3170 H   0  0  0  0  0  0  0  0  0  0  0  0
   55.8876   29.3683   45.4625 H   0  0  0  0  0  0  0  0  0  0  0  0
  1  2  2  0
  2  3  1  0
  3  4  1  0
  4  5  1  0
  5  6  2  0
  5  7  1  0
  7  8  1  0
  8  9  2  0
  9 10  1  0
 10 11  2  0
 11 12  1  0
 11 13  1  0
 13 14  2  0
  2 15  1  0
 15 16  1  0
 16 17  2  0
 17 18  1  0
 18 19  2  0
 19 20  1  0
 20 21  1  0
 21 22  2  0
 21 23  1  0
 23 24  1  0
 24 25  2  0
 14  8  1  0
 25 16  1  0
 24 19  1  0
  3 26  1  0
  3 27  1  0
  7 28  1  0
  9 29  1  0
 10 30  1  0
 13 31  1  0
 14 32  1  0
 15 33  1  0
 17 34  1  0
 18 35  1  0
 25 36  1  0
M  CHG  2  20  -1  23  -1
M  END
>  <UniqueID>  (87) 
83

>  <SMILES>  (87) 
O=C(COC(=S)Nc1ccc(Cl)cc1)Nc1ccc2[n-]c(=O)[n-]c2c1

>  <Energy>  (87) 
79.7294289092907

>  <Genealogy>  (87) 
O=C(COC(=S)Nc1ccc(Cl)cc1)Nc1ccc2[n-]c(=O)[n-]c2c1 (protonated)
O=C(COC(=S)Nc1ccc(Cl)cc1)Nc1ccc2[n-]c(=O)[n-]c2c1 (3D coordinates assigned)
O=C(COC(=S)Nc1ccc(Cl)cc1)Nc1ccc2[n-]c(=O)[n-]c2c1 (optimized conformer: 79.7294289092907 kcal/mol)

>  <smiles>  (87) 
O=C(COC(=S)Nc1ccc(Cl)cc1)Nc1ccc2[nH]c(=O)[nH]c2c1

>  <score_type>  (87) 
oracle

>  <origin>  (87) 
adg

>  <m_score__min__energy>  (87) 
-12.57

>  <m_primary>  (87) 
energy

$$$$
87:0
     RDKit          3D

 63 66  0  0  0  0  0  0  0  0999 V2000
   67.1290   30.8880   52.0200 C   0  0  0  0  0  0  0  0  0  0  0  0
   66.0410   31.5120   51.1950 C   0  0  0  0  0  0  0  0  0  0  0  0
   66.2740   32.6210   50.6400 O   0  0  0  0  0  0  0  0  0  0  0  0
   64.7500   30.8820   51.0330 N   0  0  0  0  0  0  0  0  0  0  0  0
   63.9180   31.2130   49.8630 C   0  0  0  0  0  0  0  0  0  0  0  0
   62.4370   31.2410   50.2440 C   0  0  0  0  0  0  0  0  0  0  0  0
   62.0840   30.0450   51.0140 N   0  0  0  0  0  0  0  0  0  0  0  0
   60.7200   29.5990   50.9980 C   0  0  0  0  0  0  0  0  0  0  0  0
   59.9980   29.8040   52.0110 O   0  0  0  0  0  0  0  0  0  0  0  0
   60.1750   28.8540   49.8370 C   0  0  0  0  0  0  0  0  0  0  0  0
   60.7770   27.6520   49.4150 C   0  0  0  0  0  0  0  0  0  0  0  0
   60.2990   26.9750   48.2890 C   0  0  0  0  0  0  0  0  0  0  0  0
   59.1900   27.4720   47.5790 C   0  0  0  0  0  0  0  0  0  0  0  0
   58.6810   26.8510   46.3900 N   0  0  0  0  0  0  0  0  0  0  0  0
   57.6450   27.2990   45.5060 C   0  0  0  0  0  0  0  0  0  0  0  0
   56.4560   27.3110   45.9270 O   0  0  0  0  0  0  0  0  0  0  0  0
   57.9270   27.6820   44.1890 O   0  0  0  0  0  0  0  0  0  0  0  0
   57.3990   28.8660   43.5880 C   0  0  0  0  0  0  0  0  0  0  0  0
   57.8070   30.0800   44.3670 C   0  0  0  0  0  0  0  0  0  0  0  0
   56.9920   31.2300   44.3720 C   0  0  0  0  0  0  0  0  0  0  0  0
   57.3890   32.3380   45.1330 C   0  0  0  0  0  0  0  0  0  0  0  0
   56.6680   33.3710   45.1760 O   0  0  0  0  0  0  0  0  0  0  0  0
   58.5570   32.2720   45.8240 N   0  0  0  0  0  0  0  0  0  0  0  0
   59.0360   33.2430   46.5930 N   0  0  0  0  0  0  0  0  0  0  0  0
   60.2300   32.9140   47.1480 C   0  0  0  0  0  0  0  0  0  0  0  0
   60.9860   33.7940   48.0990 C   0  0  0  0  0  0  0  0  0  0  0  0
   62.4950   33.4750   48.1380 C   0  0  0  0  0  0  0  0  0  0  0  0
   63.1330   33.8040   46.7820 C   0  0  0  0  0  0  0  0  0  0  0  0
   63.2050   34.2600   49.2530 C   0  0  0  0  0  0  0  0  0  0  0  0
   60.7120   31.3450   46.7200 S   0  0  0  0  0  0  0  0  0  0  0  0
   59.3320   31.1680   45.7840 C   0  0  0  0  0  0  0  0  0  0  0  0
   58.9750   30.0700   45.0740 N   0  0  0  0  0  0  0  0  0  0  0  0
   58.5970   28.6680   48.0000 C   0  0  0  0  0  0  0  0  0  0  0  0
   59.0810   29.3540   49.1130 C   0  0  0  0  0  0  0  0  0  0  0  0
   62.9120   29.6970   52.1730 C   0  0  0  0  0  0  0  0  0  0  0  0
   64.3940   29.6720   51.7900 C   0  0  0  0  0  0  0  0  0  0  0  0
   66.9003   31.0191   53.0880 H   0  0  0  0  0  0  0  0  0  0  0  0
   67.1951   29.8147   51.7883 H   0  0  0  0  0  0  0  0  0  0  0  0
   68.0888   31.3729   51.7883 H   0  0  0  0  0  0  0  0  0  0  0  0
   64.2110   32.2014   49.4794 H   0  0  0  0  0  0  0  0  0  0  0  0
   64.0704   30.4440   49.0914 H   0  0  0  0  0  0  0  0  0  0  0  0
   62.2361   32.1355   50.8518 H   0  0  0  0  0  0  0  0  0  0  0  0
   61.8329   31.2644   49.3250 H   0  0  0  0  0  0  0  0  0  0  0  0
   61.6301   27.2429   49.9761 H   0  0  0  0  0  0  0  0  0  0  0  0
   60.7920   26.0496   47.9564 H   0  0  0  0  0  0  0  0  0  0  0  0
   57.7810   28.9509   42.5600 H   0  0  0  0  0  0  0  0  0  0  0  0
   56.3009   28.8012   43.5817 H   0  0  0  0  0  0  0  0  0  0  0  0
   56.0600   31.2574   43.7884 H   0  0  0  0  0  0  0  0  0  0  0  0
   60.8561   34.8410   47.7878 H   0  0  0  0  0  0  0  0  0  0  0  0
   60.5836   33.6149   49.1069 H   0  0  0  0  0  0  0  0  0  0  0  0
   62.6106   32.4018   48.3497 H   0  0  0  0  0  0  0  0  0  0  0  0
   64.1001   34.3027   46.9432 H   0  0  0  0  0  0  0  0  0  0  0  0
   63.2898   32.8743   46.2153 H   0  0  0  0  0  0  0  0  0  0  0  0
   62.4665   34.4708   46.2153 H   0  0  0  0  0  0  0  0  0  0  0  0
   62.8698   33.8894   50.2329 H   0  0  0  0  0  0  0  0  0  0  0  0
   64.2927   34.1237   49.1619 H   0  0  0  0  0  0  0  0  0  0  0  0
   62.9605   35.3286   49.1619 H   0  0  0  0  0  0  0  0  0  0  0  0
   57.7374   29.0721   47.4451 H   0  0  0  0  0  0  0  0  0  0  0  0
   58.6024   30.2936   49.4261 H   0  0  0  0  0  0  0  0  0  0  0  0
   62.7562   30.4437   52.9656 H   0  0  0  0  0  0  0  0  0  0  0  0
   62.6213   28.6975   52.5286 H   0  0  0  0  0  0  0  0  0  0  0  0
   65.0036   29.6244   52.7044 H   0  0  0  0  0  0  0  0  0  0  0  0
   64.5846   28.7897   51.1614 H   0  0  0  0  0  0  0  0  0  0  0  0
  1  2  1  0
  2  3  2  0
  2  4  1  0
  4  5  1  0
  5  6  1  0
  6  7  1  0
  7  8  1  0
  8  9  2  0
  8 10  1  0
 10 11  2  0
 11 12  1  0
 12 13  2  0
 13 14  1  0
 14 15  1  0
 15 16  2  0
 15 17  1  0
 17 18  1  0
 18 19  1  0
 19 20  2  0
 20 21  1  0
 21 22  2  0
 21 23  1  0
 23 24  1  0
 24 25  2  0
 25 26  1  0
 26 27  1  0
 27 28  1  0
 27 29  1  0
 25 30  1  0
 30 31  1  0
 31 32  2  0
 13 33  1  0
 33 34  2  0
  7 35  1  0
 35 36  1  0
 36  4  1  0
 34 10  1  0
 32 19  1  0
 31 23  1  0
  1 37  1  0
  1 38  1  0
  1 39  1  0
  5 40  1  0
  5 41  1  0
  6 42  1  0
  6 43  1  0
 11 44  1  0
 12 45  1  0
 18 46  1  0
 18 47  1  0
 20 48  1  0
 26 49  1  0
 26 50  1  0
 27 51  1  0
 28 52  1  0
 28 53  1  0
 28 54  1  0
 29 55  1  0
 29 56  1  0
 29 57  1  0
 33 58  1  0
 34 59  1  0
 35 60  1  0
 35 61  1  0
 36 62  1  0
 36 63  1  0
M  CHG  1  14  -1
M  END
>  <UniqueID>  (88) 
84

>  <SMILES>  (88) 
CC(=O)N1CCN(C(=O)c2ccc([N-]C(=O)OCc3cc(=O)n4nc(CC(C)C)sc4n3)cc2)CC1

>  <Energy>  (88) 
103.9835685381563

>  <Genealogy>  (88) 
CC(=O)N1CCN(C(=O)c2ccc([N-]C(=O)OCc3cc(=O)n4nc(CC(C)C)sc4n3)cc2)CC1 (protonated)
CC(=O)N1CCN(C(=O)c2ccc([N-]C(=O)OCc3cc(=O)n4nc(CC(C)C)sc4n3)cc2)CC1 (3D coordinates assigned)
CC(=O)N1CCN(C(=O)c2ccc([N-]C(=O)OCc3cc(=O)n4nc(CC(C)C)sc4n3)cc2)CC1 (nonaromatic ring conformer: 103.9835685381563 kcal/mol)

>  <smiles>  (88) 
CC(=O)N1CCN(C(=O)c2ccc(NC(=O)OCc3cc(=O)n4nc(CC(C)C)sc4n3)cc2)CC1

>  <score_type>  (88) 
oracle

>  <origin>  (88) 
adg

>  <m_score__min__energy>  (88) 
-10.27

>  <m_primary>  (88) 
energy

$$$$
88:0
     RDKit          3D

 67 72  0  0  0  0  0  0  0  0999 V2000
   55.1530   28.7990   45.2120 H   0  0  0  0  0  0  0  0  0  0  0  0
   55.9840   29.4330   45.1760 N   0  0  0  0  0  0  0  0  0  0  0  0
   57.0360   29.2170   45.9000 C   0  0  0  0  0  0  0  0  0  0  0  0
   57.8770   30.2520   46.1730 N   0  0  0  0  0  0  0  0  0  0  0  0
   59.0020   30.1050   46.9250 C   0  0  0  0  0  0  0  0  0  0  0  0
   59.9760   31.2520   47.0730 C   0  0  0  0  0  0  0  0  0  0  0  0
   60.9882   30.8477   46.9246 H   0  0  0  0  0  0  0  0  0  0  0  0
   59.9430   31.8670   48.4810 C   0  0  0  0  0  0  0  0  0  0  0  0
   58.9475   32.2969   48.6657 H   0  0  0  0  0  0  0  0  0  0  0  0
   60.1574   31.0805   49.2196 H   0  0  0  0  0  0  0  0  0  0  0  0
   61.0080   32.9770   48.6070 C   0  0  0  0  0  0  0  0  0  0  0  0
   60.7308   33.6249   49.4517 H   0  0  0  0  0  0  0  0  0  0  0  0
   61.9731   32.4697   48.7528 H   0  0  0  0  0  0  0  0  0  0  0  0
   61.1570   33.8320   47.3930 N   0  0  0  0  0  0  0  0  0  0  0  0
   62.4210   33.5650   46.6690 C   0  0  0  0  0  0  0  0  0  0  0  0
   62.0823   33.7731   45.6433 H   0  0  0  0  0  0  0  0  0  0  0  0
   63.6360   34.2040   47.3120 C   0  0  0  0  0  0  0  0  0  0  0  0
   64.2527   34.7785   46.6052 H   0  0  0  0  0  0  0  0  0  0  0  0
   63.4829   34.9568   48.0993 H   0  0  0  0  0  0  0  0  0  0  0  0
   64.1980   32.9640   47.6630 O   0  0  0  0  0  0  0  0  0  0  0  0
   63.1020   32.2820   47.1070 C   0  0  0  0  0  0  0  0  0  0  0  0
   63.3761   31.6248   46.2686 H   0  0  0  0  0  0  0  0  0  0  0  0
   62.5432   31.5755   47.7383 H   0  0  0  0  0  0  0  0  0  0  0  0
   59.9850   33.7620   46.4930 C   0  0  0  0  0  0  0  0  0  0  0  0
   59.1025   34.1325   47.0351 H   0  0  0  0  0  0  0  0  0  0  0  0
   60.2079   34.3777   45.6091 H   0  0  0  0  0  0  0  0  0  0  0  0
   59.6960   32.3280   46.0010 C   0  0  0  0  0  0  0  0  0  0  0  0
   58.6372   32.2646   45.7094 H   0  0  0  0  0  0  0  0  0  0  0  0
   60.3690   32.1299   45.1537 H   0  0  0  0  0  0  0  0  0  0  0  0
   59.3240   28.8440   47.4360 C   0  0  0  0  0  0  0  0  0  0  0  0
   60.2273   28.7096   48.0491 H   0  0  0  0  0  0  0  0  0  0  0  0
   58.4940   27.7590   47.1640 C   0  0  0  0  0  0  0  0  0  0  0  0
   58.7449   26.7669   47.5676 H   0  0  0  0  0  0  0  0  0  0  0  0
   57.3390   27.9190   46.3790 C   0  0  0  0  0  0  0  0  0  0  0  0
   56.5310   26.7210   46.0230 C   0  0  0  0  0  0  0  0  0  0  0  0
   55.1900   26.6290   46.2320 N   0  0  0  0  0  0  0  0  0  0  0  0
   54.8880   25.4340   45.7080 C   0  0  0  0  0  0  0  0  0  0  0  0
   53.6300   24.8420   45.6000 C   0  0  0  0  0  0  0  0  0  0  0  0
   52.7391   25.3218   46.0314 H   0  0  0  0  0  0  0  0  0  0  0  0
   53.5340   23.6060   44.9190 C   0  0  0  0  0  0  0  0  0  0  0  0
   52.2180   22.9690   44.7210 C   0  0  0  0  0  0  0  0  0  0  0  0
   51.4000   23.4640   43.9000 O   0  0  0  0  0  0  0  0  0  0  0  0
   51.8680   21.7990   45.4700 N   0  0  0  0  0  0  0  0  0  0  0  0
   51.9320   21.6920   46.9260 C   0  0  0  0  0  0  0  0  0  0  0  0
   51.3816   22.5335   47.3720 H   0  0  0  0  0  0  0  0  0  0  0  0
   51.4835   20.7330   47.2246 H   0  0  0  0  0  0  0  0  0  0  0  0
   53.3600   21.7240   47.4140 C   0  0  0  0  0  0  0  0  0  0  0  0
   54.3170   20.8620   46.8590 C   0  0  0  0  0  0  0  0  0  0  0  0
   54.0359   20.1864   46.0377 H   0  0  0  0  0  0  0  0  0  0  0  0
   55.6280   20.8590   47.3470 C   0  0  0  0  0  0  0  0  0  0  0  0
   56.3721   20.1795   46.9058 H   0  0  0  0  0  0  0  0  0  0  0  0
   56.0020   21.7130   48.3920 C   0  0  0  0  0  0  0  0  0  0  0  0
   57.3260   21.6600   48.8530 O   0  0  0  0  0  0  0  0  0  0  0  0
   57.6990   21.4880   50.2170 C   0  0  0  0  0  0  0  0  0  0  0  0
   56.8932   21.8596   50.8671 H   0  0  0  0  0  0  0  0  0  0  0  0
   57.8698   20.4202   50.4186 H   0  0  0  0  0  0  0  0  0  0  0  0
   58.6220   22.0514   50.4186 H   0  0  0  0  0  0  0  0  0  0  0  0
   55.0470   22.5900   48.9410 C   0  0  0  0  0  0  0  0  0  0  0  0
   55.3317   23.2732   49.7548 H   0  0  0  0  0  0  0  0  0  0  0  0
   53.7360   22.5930   48.4520 C   0  0  0  0  0  0  0  0  0  0  0  0
   52.9941   23.2810   48.8835 H   0  0  0  0  0  0  0  0  0  0  0  0
   54.7100   23.0050   44.3920 C   0  0  0  0  0  0  0  0  0  0  0  0
   54.6392   22.0432   43.8628 H   0  0  0  0  0  0  0  0  0  0  0  0
   55.9630   23.6270   44.5400 C   0  0  0  0  0  0  0  0  0  0  0  0
   56.8784   23.1636   44.1434 H   0  0  0  0  0  0  0  0  0  0  0  0
   56.0050   24.8480   45.2050 C   0  0  0  0  0  0  0  0  0  0  0  0
   57.0690   25.6410   45.3940 N   0  0  0  0  0  0  0  0  0  0  0  0
  1  2  1  0
  2  3  2  0
  3  4  1  0
  4  5  1  0
  5  6  1  0
  6  7  1  0
  6  8  1  0
  8  9  1  0
  8 10  1  0
  8 11  1  0
 11 12  1  0
 11 13  1  0
 11 14  1  0
 14 15  1  0
 15 16  1  0
 15 17  1  0
 17 18  1  0
 17 19  1  0
 17 20  1  0
 20 21  1  0
 21 22  1  0
 21 23  1  0
 14 24  1  0
 24 25  1  0
 24 26  1  0
 24 27  1  0
 27 28  1  0
 27 29  1  0
  5 30  2  0
 30 31  1  0
 30 32  1  0
 32 33  1  0
 32 34  2  0
 34 35  1  0
 35 36  2  0
 36 37  1  0
 37 38  2  0
 38 39  1  0
 38 40  1  0
 40 41  1  0
 41 42  2  0
 41 43  1  0
 43 44  1  0
 44 45  1  0
 44 46  1  0
 44 47  1  0
 47 48  2  0
 48 49  1  0
 48 50  1  0
 50 51  1  0
 50 52  2  0
 52 53  1  0
 53 54  1  0
 54 55  1  0
 54 56  1  0
 54 57  1  0
 52 58  1  0
 58 59  1  0
 58 60  2  0
 60 61  1  0
 40 62  2  0
 62 63  1  0
 62 64  1  0
 64 65  1  0
 64 66  2  0
 66 67  1  0
 34  3  1  0
 67 35  1  0
 27  6  1  0
 66 37  1  0
 21 15  1  0
 60 47  1  0
M  CHG  3   4  -1  43  -1  67  -1
M  END
>  <UniqueID>  (89) 
85

>  <SMILES>  (89) 
[H]/N=c1\[n-]c(C2CCN(C3COC3)CC2)ccc1-c1nc2cc(C(=O)[N-]Cc3ccc(OC)cc3)ccc2[n-]1

>  <Energy>  (89) 
185.36869519610116

>  <Genealogy>  (89) 
COc1ccc(C[N-]C(=O)c2ccc3[n-]c(-c4ccc(C5CCN(C6COC6)CC5)[n-]c4=N)nc3c2)cc1 (protonated)
[H]/N=c1\[n-]c(C2CCN(C3COC3)CC2)ccc1-c1nc2cc(C(=O)[N-]Cc3ccc(OC)cc3)ccc2[n-]1 (cis-trans isomerization)
[H]/N=c1\[n-]c(C2CCN(C3COC3)CC2)ccc1-c1nc2cc(C(=O)[N-]Cc3ccc(OC)cc3)ccc2[n-]1 (3D coordinates assigned)
[H]/N=c1\[n-]c(C2CCN(C3COC3)CC2)ccc1-c1nc2cc(C(=O)[N-]Cc3ccc(OC)cc3)ccc2[n-]1 (nonaromatic ring conformer: 185.36869519610116 kcal/mol)

>  <smiles>  (89) 
COc1ccc(CNC(=O)c2ccc3[nH]c(-c4ccc(C5CCN(C6COC6)CC5)[nH]c4=N)nc3c2)cc1

>  <score_type>  (89) 
oracle

>  <origin>  (89) 
adg

>  <m_score__min__energy>  (89) 
-12.91

>  <m_primary>  (89) 
energy

$$$$
