0:0
     RDKit          3D

 47 49  0  0  0  0  0  0  0  0999 V2000
   57.8630   35.2207   44.7752 H   0  0  0  0  0  0  0  0  0  0  0  0
   57.9560   34.2290   45.2420 C   0  0  0  0  0  0  0  0  0  0  0  0
   57.2580   33.1750   44.7450 N   0  0  0  0  0  0  0  0  0  0  0  0
   57.3610   31.9360   45.3030 C   0  0  0  0  0  0  0  0  0  0  0  0
   56.6760   30.9290   44.8460 N   0  0  0  0  0  0  0  0  0  0  0  0
   57.1460   29.5840   44.6560 C   0  0  0  0  0  0  0  0  0  0  0  0
   57.3360   29.1160   43.3520 C   0  0  0  0  0  0  0  0  0  0  0  0
   57.1438   29.7830   42.4987 H   0  0  0  0  0  0  0  0  0  0  0  0
   57.7680   27.8080   43.1260 C   0  0  0  0  0  0  0  0  0  0  0  0
   57.9324   27.4547   42.0973 H   0  0  0  0  0  0  0  0  0  0  0  0
   57.9920   26.9470   44.2020 C   0  0  0  0  0  0  0  0  0  0  0  0
   58.3459   25.9220   44.0174 H   0  0  0  0  0  0  0  0  0  0  0  0
   57.7680   27.3820   45.5200 C   0  0  0  0  0  0  0  0  0  0  0  0
   57.9830   26.4880   46.6320 N   0  0  0  0  0  0  0  0  0  0  0  0
   58.9960   26.7960   47.6400 C   0  0  0  0  0  0  0  0  0  0  0  0
   58.5659   26.6652   48.6439 H   0  0  0  0  0  0  0  0  0  0  0  0
   59.8534   26.1180   47.5173 H   0  0  0  0  0  0  0  0  0  0  0  0
   59.3309   27.8366   47.5173 H   0  0  0  0  0  0  0  0  0  0  0  0
   57.0150   25.0540   46.8270 S   0  0  0  0  0  0  0  0  0  0  0  0
   57.1490   24.5270   48.2280 O   0  0  0  0  0  0  0  0  0  0  0  0
   55.5710   25.3890   46.5790 O   0  0  0  0  0  0  0  0  0  0  0  0
   57.5410   23.8090   45.6700 C   0  0  0  0  0  0  0  0  0  0  0  0
   57.9119   22.9312   46.2194 H   0  0  0  0  0  0  0  0  0  0  0  0
   56.6908   23.5135   45.0376 H   0  0  0  0  0  0  0  0  0  0  0  0
   58.3455   24.2126   45.0376 H   0  0  0  0  0  0  0  0  0  0  0  0
   57.3400   28.7040   45.7370 C   0  0  0  0  0  0  0  0  0  0  0  0
   57.1548   29.0541   46.7632 H   0  0  0  0  0  0  0  0  0  0  0  0
   58.1620   31.7550   46.3860 N   0  0  0  0  0  0  0  0  0  0  0  0
   58.8890   32.7810   46.9110 C   0  0  0  0  0  0  0  0  0  0  0  0
   59.7010   32.5930   48.0360 O   0  0  0  0  0  0  0  0  0  0  0  0
   61.0870   32.8100   48.0820 C   0  0  0  0  0  0  0  0  0  0  0  0
   61.6450   33.8920   48.7880 C   0  0  0  0  0  0  0  0  0  0  0  0
   60.9872   34.6005   49.3127 H   0  0  0  0  0  0  0  0  0  0  0  0
   63.0300   34.0710   48.8260 C   0  0  0  0  0  0  0  0  0  0  0  0
   63.4595   34.9243   49.3713 H   0  0  0  0  0  0  0  0  0  0  0  0
   63.8690   33.1670   48.1720 C   0  0  0  0  0  0  0  0  0  0  0  0
   64.9590   33.3124   48.1981 H   0  0  0  0  0  0  0  0  0  0  0  0
   63.3280   32.0790   47.4850 C   0  0  0  0  0  0  0  0  0  0  0  0
   63.9939   31.3661   46.9767 H   0  0  0  0  0  0  0  0  0  0  0  0
   61.9310   31.8900   47.4400 C   0  0  0  0  0  0  0  0  0  0  0  0
   61.3470   30.8060   46.7630 O   0  0  0  0  0  0  0  0  0  0  0  0
   60.5550   29.8000   47.3870 C   0  0  0  0  0  0  0  0  0  0  0  0
   60.6322   29.8980   48.4799 H   0  0  0  0  0  0  0  0  0  0  0  0
   59.5049   29.9181   47.0815 H   0  0  0  0  0  0  0  0  0  0  0  0
   60.9163   28.8069   47.0815 H   0  0  0  0  0  0  0  0  0  0  0  0
   58.7900   34.0520   46.3440 C   0  0  0  0  0  0  0  0  0  0  0  0
   59.3589   34.8972   46.7586 H   0  0  0  0  0  0  0  0  0  0  0  0
  1  2  1  0
  2  3  1  0
  3  4  1  0
  4  5  2  0
  5  6  1  0
  6  7  2  0
  7  8  1  0
  7  9  1  0
  9 10  1  0
  9 11  2  0
 11 12  1  0
 11 13  1  0
 13 14  1  0
 14 15  1  0
 15 16  1  0
 15 17  1  0
 15 18  1  0
 14 19  1  0
 19 20  2  0
 19 21  2  0
 19 22  1  0
 22 23  1  0
 22 24  1  0
 22 25  1  0
 13 26  2  0
 26 27  1  0
  4 28  1  0
 28 29  2  0
 29 30  1  0
 30 31  1  0
 31 32  2  0
 32 33  1  0
 32 34  1  0
 34 35  1  0
 34 36  2  0
 36 37  1  0
 36 38  1  0
 38 39  1  0
 38 40  2  0
 40 41  1  0
 41 42  1  0
 42 43  1  0
 42 44  1  0
 42 45  1  0
 29 46  1  0
 46 47  1  0
 46  2  2  0
 26  6  1  0
 40 31  1  0
M  CHG  1   3  -1
M  END
>  <UniqueID>  (1) 
1

>  <SMILES>  (1) 
COc1ccccc1Oc1cc[n-]/c(=N/c2cccc(N(C)S(C)(=O)=O)c2)n1

>  <Energy>  (1) 
60.494455280910564

>  <Genealogy>  (1) 
COc1ccccc1Oc1cc[n-]c(=Nc2cccc(N(C)S(C)(=O)=O)c2)n1 (protonated)
COc1ccccc1Oc1cc[n-]/c(=N/c2cccc(N(C)S(C)(=O)=O)c2)n1 (cis-trans isomerization)
COc1ccccc1Oc1cc[n-]/c(=N/c2cccc(N(C)S(C)(=O)=O)c2)n1 (3D coordinates assigned)
COc1ccccc1Oc1cc[n-]/c(=N/c2cccc(N(C)S(C)(=O)=O)c2)n1 (optimized conformer: 60.494455280910564 kcal/mol)

>  <smiles>  (1) 
COc1ccccc1Oc1cc[nH]c(=Nc2cccc(N(C)S(C)(=O)=O)c2)n1

>  <score_type>  (1) 
oracle

>  <origin>  (1) 
adg

>  <m_score__min__energy>  (1) 
-10.880000000000001

>  <m_primary>  (1) 
energy

$$$$
1:0
     RDKit          3D

 39 41  0  0  0  0  0  0  0  0999 V2000
   54.5780   27.0910   46.7410 H   0  0  0  0  0  0  0  0  0  0  0  0
   55.1460   26.6340   45.9940 N   0  0  0  0  0  0  0  0  0  0  0  0
   56.4990   26.2550   46.2320 C   0  0  0  0  0  0  0  0  0  0  0  0
   56.7620   25.3830   47.1030 O   0  0  0  0  0  0  0  0  0  0  0  0
   57.5970   26.8570   45.4170 C   0  0  0  0  0  0  0  0  0  0  0  0
   58.4363   26.1485   45.3572 H   0  0  0  0  0  0  0  0  0  0  0  0
   57.2185   27.0745   44.4073 H   0  0  0  0  0  0  0  0  0  0  0  0
   58.0690   28.1340   46.0510 C   0  0  0  0  0  0  0  0  0  0  0  0
   57.6710   29.4380   45.7420 C   0  0  0  0  0  0  0  0  0  0  0  0
   56.7280   29.8220   44.6790 C   0  0  0  0  0  0  0  0  0  0  0  0
   56.2782   29.0486   44.0390 H   0  0  0  0  0  0  0  0  0  0  0  0
   56.4260   31.0700   44.4950 N   0  0  0  0  0  0  0  0  0  0  0  0
   57.3720   32.1310   44.2910 C   0  0  0  0  0  0  0  0  0  0  0  0
   57.9120   32.2400   43.1580 O   0  0  0  0  0  0  0  0  0  0  0  0
   57.6950   33.1250   45.3430 C   0  0  0  0  0  0  0  0  0  0  0  0
   56.9980   33.1890   46.3900 O   0  0  0  0  0  0  0  0  0  0  0  0
   58.7930   34.1290   45.1430 C   0  0  0  0  0  0  0  0  0  0  0  0
   59.3438   33.8863   44.2223 H   0  0  0  0  0  0  0  0  0  0  0  0
   58.3506   35.1329   45.0630 H   0  0  0  0  0  0  0  0  0  0  0  0
   59.7360   34.1030   46.3040 C   0  0  0  0  0  0  0  0  0  0  0  0
   59.3690   34.5930   47.8690 S   0  0  0  0  0  0  0  0  0  0  0  0
   60.8580   34.1870   48.5400 C   0  0  0  0  0  0  0  0  0  0  0  0
   61.1495   34.3241   49.5918 H   0  0  0  0  0  0  0  0  0  0  0  0
   61.6560   33.6490   47.5380 C   0  0  0  0  0  0  0  0  0  0  0  0
   62.6842   33.2984   47.7110 H   0  0  0  0  0  0  0  0  0  0  0  0
   61.0290   33.5950   46.2880 C   0  0  0  0  0  0  0  0  0  0  0  0
   61.5107   33.1916   45.3851 H   0  0  0  0  0  0  0  0  0  0  0  0
   58.2640   30.3270   46.5760 N   0  0  0  0  0  0  0  0  0  0  0  0
   58.1470   31.3650   46.5820 H   0  0  0  0  0  0  0  0  0  0  0  0
   59.0160   29.5980   47.4180 C   0  0  0  0  0  0  0  0  0  0  0  0
   59.7980   30.0690   48.4720 C   0  0  0  0  0  0  0  0  0  0  0  0
   59.8683   31.1450   48.6896 H   0  0  0  0  0  0  0  0  0  0  0  0
   60.4940   29.1250   49.2480 C   0  0  0  0  0  0  0  0  0  0  0  0
   61.1229   29.4629   50.0849 H   0  0  0  0  0  0  0  0  0  0  0  0
   60.3910   27.7450   48.9600 C   0  0  0  0  0  0  0  0  0  0  0  0
   60.9387   27.0160   49.5753 H   0  0  0  0  0  0  0  0  0  0  0  0
   59.5930   27.2980   47.8920 C   0  0  0  0  0  0  0  0  0  0  0  0
   59.5023   26.2264   47.6607 H   0  0  0  0  0  0  0  0  0  0  0  0
   58.9190   28.2590   47.1340 C   0  0  0  0  0  0  0  0  0  0  0  0
  1  2  1  0
  2  3  1  0
  3  4  2  0
  3  5  1  0
  5  6  1  0
  5  7  1  0
  5  8  1  0
  8  9  2  0
  9 10  1  0
 10 11  1  0
 10 12  2  0
 12 13  1  0
 13 14  2  0
 13 15  1  0
 15 16  2  0
 15 17  1  0
 17 18  1  0
 17 19  1  0
 17 20  1  0
 20 21  1  0
 21 22  1  0
 22 23  1  0
 22 24  2  0
 24 25  1  0
 24 26  1  0
 26 27  1  0
  9 28  1  0
 28 29  1  0
 28 30  1  0
 30 31  2  0
 31 32  1  0
 31 33  1  0
 33 34  1  0
 33 35  2  0
 35 36  1  0
 35 37  1  0
 37 38  1  0
 37 39  2  0
 39  8  1  0
 26 20  2  0
 39 30  1  0
M  CHG  1   2  -1
M  END
>  <UniqueID>  (2) 
2

>  <SMILES>  (2) 
[NH-]C(=O)Cc1c(/C=N\C(=O)C(=O)Cc2cccs2)[nH]c2ccccc12

>  <Energy>  (2) 
96.97537339656124

>  <Genealogy>  (2) 
[NH-]C(=O)Cc1c(C=NC(=O)C(=O)Cc2cccs2)[nH]c2ccccc12 (protonated)
[NH-]C(=O)Cc1c(/C=N\C(=O)C(=O)Cc2cccs2)[nH]c2ccccc12 (cis-trans isomerization)
[NH-]C(=O)Cc1c(/C=N\C(=O)C(=O)Cc2cccs2)[nH]c2ccccc12 (3D coordinates assigned)
[NH-]C(=O)Cc1c(/C=N\C(=O)C(=O)Cc2cccs2)[nH]c2ccccc12 (optimized conformer: 96.97537339656124 kcal/mol)

>  <smiles>  (2) 
NC(=O)Cc1c(C=NC(=O)C(=O)Cc2cccs2)[nH]c2ccccc12

>  <score_type>  (2) 
oracle

>  <origin>  (2) 
adg

>  <m_score__min__energy>  (2) 
-11.529999999999999

>  <m_primary>  (2) 
energy

$$$$
2:0
     RDKit          3D

 35 36  0  0  0  0  0  0  0  0999 V2000
   59.8178   26.9696   46.3922 H   0  0  0  0  0  0  0  0  0  0  0  0
   58.7300   26.8280   46.3110 C   0  0  0  0  0  0  0  0  0  0  0  0
   57.9580   27.8020   45.7610 N   0  0  0  0  0  0  0  0  0  0  0  0
   56.6050   27.6710   45.6380 C   0  0  0  0  0  0  0  0  0  0  0  0
   55.8800   28.6160   45.1100 N   0  0  0  0  0  0  0  0  0  0  0  0
   56.3020   29.9480   44.7770 C   0  0  0  0  0  0  0  0  0  0  0  0
   55.5630   30.7130   44.0980 O   0  0  0  0  0  0  0  0  0  0  0  0
   57.5810   30.4050   45.2310 N   0  0  0  0  0  0  0  0  0  0  0  0
   58.1390   29.7840   45.8600 H   0  0  0  0  0  0  0  0  0  0  0  0
   58.1210   31.7210   44.8900 C   0  0  0  0  0  0  0  0  0  0  0  0
   57.9297   31.9223   43.8256 H   0  0  0  0  0  0  0  0  0  0  0  0
   59.2014   31.7178   45.0966 H   0  0  0  0  0  0  0  0  0  0  0  0
   57.4690   32.8250   45.7330 C   0  0  0  0  0  0  0  0  0  0  0  0
   56.5707   32.4179   46.2202 H   0  0  0  0  0  0  0  0  0  0  0  0
   57.2111   33.6596   45.0645 H   0  0  0  0  0  0  0  0  0  0  0  0
   58.4110   33.3470   46.7980 C   0  0  0  0  0  0  0  0  0  0  0  0
   58.4130   32.7210   48.0580 C   0  0  0  0  0  0  0  0  0  0  0  0
   57.7536   31.8593   48.2387 H   0  0  0  0  0  0  0  0  0  0  0  0
   59.2430   33.1820   49.0810 C   0  0  0  0  0  0  0  0  0  0  0  0
   59.2346   32.6842   50.0619 H   0  0  0  0  0  0  0  0  0  0  0  0
   60.0820   34.2720   48.8610 C   0  0  0  0  0  0  0  0  0  0  0  0
   60.7373   34.6310   49.6683 H   0  0  0  0  0  0  0  0  0  0  0  0
   60.0940   34.9100   47.6200 C   0  0  0  0  0  0  0  0  0  0  0  0
   60.7637   35.7666   47.4537 H   0  0  0  0  0  0  0  0  0  0  0  0
   59.2570   34.4670   46.5800 C   0  0  0  0  0  0  0  0  0  0  0  0
   59.3210   35.1660   45.2460 C   0  0  0  0  0  0  0  0  0  0  0  0
   59.4202   36.2500   45.4044 H   0  0  0  0  0  0  0  0  0  0  0  0
   60.1891   34.7972   44.6800 H   0  0  0  0  0  0  0  0  0  0  0  0
   58.4003   34.9609   44.6800 H   0  0  0  0  0  0  0  0  0  0  0  0
   55.9840   26.4980   46.0950 C   0  0  0  0  0  0  0  0  0  0  0  0
   54.6070   26.3340   45.9860 O   0  0  0  0  0  0  0  0  0  0  0  0
   56.7630   25.4850   46.6630 C   0  0  0  0  0  0  0  0  0  0  0  0
   56.2873   24.5607   47.0226 H   0  0  0  0  0  0  0  0  0  0  0  0
   58.1440   25.6480   46.7730 C   0  0  0  0  0  0  0  0  0  0  0  0
   58.7640   24.8561   47.2185 H   0  0  0  0  0  0  0  0  0  0  0  0
  1  2  1  0
  2  3  1  0
  3  4  1  0
  4  5  2  0
  5  6  1  0
  6  7  2  0
  6  8  1  0
  8  9  1  0
  8 10  1  0
 10 11  1  0
 10 12  1  0
 10 13  1  0
 13 14  1  0
 13 15  1  0
 13 16  1  0
 16 17  2  0
 17 18  1  0
 17 19  1  0
 19 20  1  0
 19 21  2  0
 21 22  1  0
 21 23  1  0
 23 24  1  0
 23 25  2  0
 25 26  1  0
 26 27  1  0
 26 28  1  0
 26 29  1  0
  4 30  1  0
 30 31  1  0
 30 32  2  0
 32 33  1  0
 32 34  1  0
 34 35  1  0
 34  2  2  0
 25 16  1  0
M  CHG  2   3  -1  31  -1
M  END
>  <UniqueID>  (3) 
3

>  <SMILES>  (3) 
Cc1ccccc1CCNC(=O)/N=c1\[n-]cccc1[O-]

>  <Energy>  (3) 
35.06941189172344

>  <Genealogy>  (3) 
Cc1ccccc1CCNC(=O)N=c1[n-]cccc1[O-] (protonated)
Cc1ccccc1CCNC(=O)/N=c1\[n-]cccc1[O-] (cis-trans isomerization)
Cc1ccccc1CCNC(=O)/N=c1\[n-]cccc1[O-] (3D coordinates assigned)
Cc1ccccc1CCNC(=O)/N=c1\[n-]cccc1[O-] (optimized conformer: 35.06941189172344 kcal/mol)

>  <smiles>  (3) 
Cc1ccccc1CCNC(=O)N=c1[nH]cccc1O

>  <score_type>  (3) 
oracle

>  <origin>  (3) 
adg

>  <m_score__min__energy>  (3) 
-12.880000000000001

>  <m_primary>  (3) 
energy

$$$$
3:0
     RDKit          3D

 31 33  0  0  0  0  0  0  0  0999 V2000
   54.1353   24.2334   46.4424 H   0  0  0  0  0  0  0  0  0  0  0  0
   54.9150   24.0560   45.6870 C   0  0  0  0  0  0  0  0  0  0  0  0
   54.8960   22.8770   44.9350 C   0  0  0  0  0  0  0  0  0  0  0  0
   54.0937   22.1405   45.0899 H   0  0  0  0  0  0  0  0  0  0  0  0
   55.9010   22.6300   43.9800 C   0  0  0  0  0  0  0  0  0  0  0  0
   55.9260   21.4650   43.1990 O   0  0  0  0  0  0  0  0  0  0  0  0
   57.1090   20.8830   42.6600 C   0  0  0  0  0  0  0  0  0  0  0  0
   57.7657   20.5599   43.4812 H   0  0  0  0  0  0  0  0  0  0  0  0
   56.8410   20.0139   42.0413 H   0  0  0  0  0  0  0  0  0  0  0  0
   57.6339   21.6257   42.0413 H   0  0  0  0  0  0  0  0  0  0  0  0
   56.9180   23.5730   43.8010 C   0  0  0  0  0  0  0  0  0  0  0  0
   57.7110   23.3857   43.0620 H   0  0  0  0  0  0  0  0  0  0  0  0
   56.9360   24.7520   44.5530 C   0  0  0  0  0  0  0  0  0  0  0  0
   57.7500   25.4786   44.4135 H   0  0  0  0  0  0  0  0  0  0  0  0
   55.9170   25.0120   45.4870 C   0  0  0  0  0  0  0  0  0  0  0  0
   55.9120   26.1950   46.3050 N   0  0  0  0  0  0  0  0  0  0  0  0
   56.4150   27.3540   45.9950 C   0  0  0  0  0  0  0  0  0  0  0  0
   57.6200   27.7080   46.5110 N   0  0  0  0  0  0  0  0  0  0  0  0
   58.1700   28.9150   46.2210 C   0  0  0  0  0  0  0  0  0  0  0  0
   59.4140   29.2710   46.7540 C   0  0  0  0  0  0  0  0  0  0  0  0
   59.9514   28.5718   47.4116 H   0  0  0  0  0  0  0  0  0  0  0  0
   59.9740   30.5170   46.4500 C   0  0  0  0  0  0  0  0  0  0  0  0
   61.5340   30.9620   47.1180 Cl  0  0  0  0  0  0  0  0  0  0  0  0
   59.2910   31.4090   45.6160 C   0  0  0  0  0  0  0  0  0  0  0  0
   59.7339   32.3881   45.3810 H   0  0  0  0  0  0  0  0  0  0  0  0
   58.0470   31.0600   45.0800 C   0  0  0  0  0  0  0  0  0  0  0  0
   57.5134   31.7628   44.4232 H   0  0  0  0  0  0  0  0  0  0  0  0
   57.4800   29.8100   45.3820 C   0  0  0  0  0  0  0  0  0  0  0  0
   56.2360   29.3960   44.8820 C   0  0  0  0  0  0  0  0  0  0  0  0
   55.5610   30.1460   44.1270 O   0  0  0  0  0  0  0  0  0  0  0  0
   55.7550   28.2000   45.2060 O   0  0  0  0  0  0  0  0  0  0  0  0
  1  2  1  0
  2  3  2  0
  3  4  1  0
  3  5  1  0
  5  6  1  0
  6  7  1  0
  7  8  1  0
  7  9  1  0
  7 10  1  0
  5 11  2  0
 11 12  1  0
 11 13  1  0
 13 14  1  0
 13 15  2  0
 15 16  1  0
 16 17  2  0
 17 18  1  0
 18 19  1  0
 19 20  2  0
 20 21  1  0
 20 22  1  0
 22 23  1  0
 22 24  2  0
 24 25  1  0
 24 26  1  0
 26 27  1  0
 26 28  2  0
 28 29  1  0
 29 30  2  0
 29 31  1  0
 15  2  1  0
 31 17  1  0
 28 19  1  0
M  CHG  1  18  -1
M  END
>  <UniqueID>  (4) 
4

>  <SMILES>  (4) 
COc1ccc(/N=c2/[n-]c3cc(Cl)ccc3c(=O)o2)cc1

>  <Energy>  (4) 
43.679977855412815

>  <Genealogy>  (4) 
COc1ccc(N=c2[n-]c3cc(Cl)ccc3c(=O)o2)cc1 (protonated)
COc1ccc(/N=c2/[n-]c3cc(Cl)ccc3c(=O)o2)cc1 (cis-trans isomerization)
COc1ccc(/N=c2/[n-]c3cc(Cl)ccc3c(=O)o2)cc1 (3D coordinates assigned)
COc1ccc(/N=c2/[n-]c3cc(Cl)ccc3c(=O)o2)cc1 (optimized conformer: 43.679977855412815 kcal/mol)

>  <smiles>  (4) 
COc1ccc(N=c2[nH]c3cc(Cl)ccc3c(=O)o2)cc1

>  <score_type>  (4) 
oracle

>  <origin>  (4) 
adg

>  <m_score__min__energy>  (4) 
-8.7400000000000002

>  <m_primary>  (4) 
energy

$$$$
4:0
     RDKit          3D

 46 48  0  0  0  0  0  0  0  0999 V2000
   56.6410   29.3090   42.6400 C   0  0  0  0  0  0  0  0  0  0  0  0
   55.5300   29.7300   43.5860 C   0  0  0  0  0  0  0  0  0  0  0  0
   56.0350   30.6760   44.5220 O   0  0  0  0  0  0  0  0  0  0  0  0
   57.2650   31.3180   44.3600 C   0  0  0  0  0  0  0  0  0  0  0  0
   57.5950   31.7820   43.2340 O   0  0  0  0  0  0  0  0  0  0  0  0
   58.1810   31.4570   45.5120 C   0  0  0  0  0  0  0  0  0  0  0  0
   58.3820   30.4540   46.4670 C   0  0  0  0  0  0  0  0  0  0  0  0
   57.8350   29.1290   46.4560 N   0  0  0  0  0  0  0  0  0  0  0  0
   58.1120   28.1860   45.4100 C   0  0  0  0  0  0  0  0  0  0  0  0
   59.0040   28.4340   44.5540 O   0  0  0  0  0  0  0  0  0  0  0  0
   57.3850   26.9090   45.3290 C   0  0  0  0  0  0  0  0  0  0  0  0
   57.7730   25.7800   44.6290 C   0  0  0  0  0  0  0  0  0  0  0  0
   56.7870   24.8450   44.8580 C   0  0  0  0  0  0  0  0  0  0  0  0
   55.8620   25.4550   45.6800 C   0  0  0  0  0  0  0  0  0  0  0  0
   56.2470   26.6830   45.9440 O   0  0  0  0  0  0  0  0  0  0  0  0
   59.4240   31.0110   47.6550 S   0  0  0  0  0  0  0  0  0  0  0  0
   59.6620   32.5370   46.9880 C   0  0  0  0  0  0  0  0  0  0  0  0
   60.6070   33.5420   47.5200 C   0  0  0  0  0  0  0  0  0  0  0  0
   60.2000   34.7210   47.7040 O   0  0  0  0  0  0  0  0  0  0  0  0
   61.9780   33.2150   47.8170 N   0  0  0  0  0  0  0  0  0  0  0  0
   62.4860   31.8610   47.9670 C   0  0  0  0  0  0  0  0  0  0  0  0
   63.8290   32.0050   48.6730 C   0  0  0  0  0  0  0  0  0  0  0  0
   64.2420   33.4590   48.4800 C   0  0  0  0  0  0  0  0  0  0  0  0
   62.9510   34.2200   48.2090 C   0  0  0  0  0  0  0  0  0  0  0  0
   58.9040   32.6380   45.8110 C   0  0  0  0  0  0  0  0  0  0  0  0
   58.8330   33.8910   44.9800 C   0  0  0  0  0  0  0  0  0  0  0  0
   57.5133   28.9784   43.2229 H   0  0  0  0  0  0  0  0  0  0  0  0
   56.2889   28.4819   42.0059 H   0  0  0  0  0  0  0  0  0  0  0  0
   56.9254   30.1617   42.0059 H   0  0  0  0  0  0  0  0  0  0  0  0
   54.7113   30.1858   43.0099 H   0  0  0  0  0  0  0  0  0  0  0  0
   55.1536   28.8476   44.1242 H   0  0  0  0  0  0  0  0  0  0  0  0
   57.4030   28.7840   47.3410 H   0  0  0  0  0  0  0  0  0  0  0  0
   58.6789   25.6551   44.0177 H   0  0  0  0  0  0  0  0  0  0  0  0
   56.7457   23.8186   44.4645 H   0  0  0  0  0  0  0  0  0  0  0  0
   54.9419   24.9846   46.0571 H   0  0  0  0  0  0  0  0  0  0  0  0
   61.7957   31.2566   48.5738 H   0  0  0  0  0  0  0  0  0  0  0  0
   62.5880   31.3538   46.9962 H   0  0  0  0  0  0  0  0  0  0  0  0
   63.7263   31.7743   49.7436 H   0  0  0  0  0  0  0  0  0  0  0  0
   64.5791   31.3120   48.2642 H   0  0  0  0  0  0  0  0  0  0  0  0
   64.7305   33.8429   49.3877 H   0  0  0  0  0  0  0  0  0  0  0  0
   64.9610   33.5714   47.6552 H   0  0  0  0  0  0  0  0  0  0  0  0
   62.6169   34.7441   49.1166 H   0  0  0  0  0  0  0  0  0  0  0  0
   63.0851   34.9823   47.4274 H   0  0  0  0  0  0  0  0  0  0  0  0
   58.7833   34.7679   45.6423 H   0  0  0  0  0  0  0  0  0  0  0  0
   59.7286   33.9612   44.3452 H   0  0  0  0  0  0  0  0  0  0  0  0
   57.9352   33.8596   44.3452 H   0  0  0  0  0  0  0  0  0  0  0  0
  1  2  1  0
  2  3  1  0
  3  4  1  0
  4  5  2  0
  4  6  1  0
  6  7  2  0
  7  8  1  0
  8  9  1  0
  9 10  2  0
  9 11  1  0
 11 12  2  0
 12 13  1  0
 13 14  2  0
 14 15  1  0
  7 16  1  0
 16 17  1  0
 17 18  1  0
 18 19  2  0
 18 20  1  0
 20 21  1  0
 21 22  1  0
 22 23  1  0
 23 24  1  0
 17 25  2  0
 25 26  1  0
 25  6  1  0
 15 11  1  0
 24 20  1  0
  1 27  1  0
  1 28  1  0
  1 29  1  0
  2 30  1  0
  2 31  1  0
  8 32  1  0
 12 33  1  0
 13 34  1  0
 14 35  1  0
 21 36  1  0
 21 37  1  0
 22 38  1  0
 22 39  1  0
 23 40  1  0
 23 41  1  0
 24 42  1  0
 24 43  1  0
 26 44  1  0
 26 45  1  0
 26 46  1  0
M  END
>  <UniqueID>  (5) 
5

>  <SMILES>  (5) 
CCOC(=O)c1c(NC(=O)c2ccco2)sc(C(=O)N2CCCC2)c1C

>  <Energy>  (5) 
103.98628805203538

>  <Genealogy>  (5) 
CCOC(=O)c1c(NC(=O)c2ccco2)sc(C(=O)N2CCCC2)c1C (3D coordinates assigned)
CCOC(=O)c1c(NC(=O)c2ccco2)sc(C(=O)N2CCCC2)c1C (nonaromatic ring conformer: 103.98628805203538 kcal/mol)

>  <smiles>  (5) 
CCOC(=O)c1c(NC(=O)c2ccco2)sc(C(=O)N2CCCC2)c1C

>  <score_type>  (5) 
oracle

>  <origin>  (5) 
adg

>  <m_score__min__energy>  (5) 
-7.5499999999999998

>  <m_primary>  (5) 
energy

$$$$
5:0
     RDKit          3D

 41 43  0  0  0  0  0  0  0  0999 V2000
   54.1840   25.2140   45.6160 C   0  0  0  0  0  0  0  0  0  0  0  0
   55.2250   26.0970   45.9390 O   0  0  0  0  0  0  0  0  0  0  0  0
   56.5700   25.7930   45.9790 C   0  0  0  0  0  0  0  0  0  0  0  0
   56.8470   24.4450   46.2510 C   0  0  0  0  0  0  0  0  0  0  0  0
   58.1290   23.9610   46.3300 C   0  0  0  0  0  0  0  0  0  0  0  0
   59.1420   24.8650   46.1280 C   0  0  0  0  0  0  0  0  0  0  0  0
   58.8670   26.2030   45.8580 C   0  0  0  0  0  0  0  0  0  0  0  0
   57.5890   26.7090   45.7750 C   0  0  0  0  0  0  0  0  0  0  0  0
   57.2580   28.0910   45.4790 C   0  0  0  0  0  0  0  0  0  0  0  0
   56.0430   28.5250   45.1120 N   0  0  0  0  0  0  0  0  0  0  0  0
   56.0490   29.8590   44.9430 N   0  0  0  0  0  0  0  0  0  0  0  0
   57.2600   30.3410   45.1900 C   0  0  0  0  0  0  0  0  0  0  0  0
   58.0490   29.2270   45.5340 C   0  0  0  0  0  0  0  0  0  0  0  0
   59.4740   29.3890   45.8650 C   0  0  0  0  0  0  0  0  0  0  0  0
   59.9310   30.7730   45.7080 N   0  0  0  0  0  0  0  0  0  0  0  0
   60.5140   31.2200   46.9360 C   0  0  0  0  0  0  0  0  0  0  0  0
   60.3630   32.7000   47.1860 C   0  0  0  0  0  0  0  0  0  0  0  0
   59.1620   33.1360   46.4640 N   0  0  0  0  0  0  0  0  0  0  0  0
   57.9110   33.1890   47.0170 C   0  0  0  0  0  0  0  0  0  0  0  0
   57.0790   33.6480   46.0080 C   0  0  0  0  0  0  0  0  0  0  0  0
   57.8320   33.8630   44.8730 C   0  0  0  0  0  0  0  0  0  0  0  0
   59.1070   33.5320   45.2100 N   0  0  0  0  0  0  0  0  0  0  0  0
   53.7298   24.8287   46.5408 H   0  0  0  0  0  0  0  0  0  0  0  0
   53.4220   25.7454   45.0270 H   0  0  0  0  0  0  0  0  0  0  0  0
   54.5839   24.3755   45.0270 H   0  0  0  0  0  0  0  0  0  0  0  0
   56.0074   23.7515   46.4064 H   0  0  0  0  0  0  0  0  0  0  0  0
   58.3343   22.9018   46.5444 H   0  0  0  0  0  0  0  0  0  0  0  0
   60.1875   24.5271   46.1802 H   0  0  0  0  0  0  0  0  0  0  0  0
   59.7123   26.8897   45.7034 H   0  0  0  0  0  0  0  0  0  0  0  0
   55.1400   28.0260   44.9400 H   0  0  0  0  0  0  0  0  0  0  0  0
   57.5807   31.3919   45.1371 H   0  0  0  0  0  0  0  0  0  0  0  0
   59.6311   29.0816   46.9094 H   0  0  0  0  0  0  0  0  0  0  0  0
   60.0528   28.7640   45.1691 H   0  0  0  0  0  0  0  0  0  0  0  0
   59.1670   31.3850   45.3570 H   0  0  0  0  0  0  0  0  0  0  0  0
   60.0329   30.6788   47.7641 H   0  0  0  0  0  0  0  0  0  0  0  0
   61.5931   31.0182   46.8671 H   0  0  0  0  0  0  0  0  0  0  0  0
   60.2468   32.8914   48.2630 H   0  0  0  0  0  0  0  0  0  0  0  0
   61.2508   33.2495   46.8397 H   0  0  0  0  0  0  0  0  0  0  0  0
   57.6260   32.9232   48.0457 H   0  0  0  0  0  0  0  0  0  0  0  0
   55.9953   33.8137   46.0979 H   0  0  0  0  0  0  0  0  0  0  0  0
   57.4754   34.2266   43.8980 H   0  0  0  0  0  0  0  0  0  0  0  0
  1  2  1  0
  2  3  1  0
  3  4  2  0
  4  5  1  0
  5  6  2  0
  6  7  1  0
  7  8  2  0
  8  9  1  0
  9 10  1  0
 10 11  1  0
 11 12  2  0
 12 13  1  0
 13 14  1  0
 14 15  1  0
 15 16  1  0
 16 17  1  0
 17 18  1  0
 18 19  1  0
 19 20  2  0
 20 21  1  0
 21 22  2  0
  8  3  1  0
 13  9  2  0
 22 18  1  0
  1 23  1  0
  1 24  1  0
  1 25  1  0
  4 26  1  0
  5 27  1  0
  6 28  1  0
  7 29  1  0
 10 30  1  0
 12 31  1  0
 14 32  1  0
 14 33  1  0
 15 34  1  0
 16 35  1  0
 16 36  1  0
 17 37  1  0
 17 38  1  0
 19 39  1  0
 20 40  1  0
 21 41  1  0
M  END
>  <smiles>  (6) 
COc1ccccc1-c1[nH]ncc1CNCCn1cccn1

>  <score_type>  (6) 
oracle

>  <origin>  (6) 
adg

>  <m_score__min__energy>  (6) 
-7.3600000000000003

>  <m_primary>  (6) 
energy

$$$$
6:0
     RDKit          3D

 47 48  0  0  0  0  0  0  0  0999 V2000
   60.9984   26.4067   48.9324 H   0  0  0  0  0  0  0  0  0  0  0  0
   60.4020   27.2070   48.4700 C   0  0  0  0  0  0  0  0  0  0  0  0
   60.2830   28.4760   49.2120 C   0  0  0  0  0  0  0  0  0  0  0  0
   59.1400   28.9600   49.4240 O   0  0  0  0  0  0  0  0  0  0  0  0
   61.4050   29.1860   49.6230 O   0  0  0  0  0  0  0  0  0  0  0  0
   59.8430   26.9470   47.2770 C   0  0  0  0  0  0  0  0  0  0  0  0
   60.0414   25.9617   46.8300 H   0  0  0  0  0  0  0  0  0  0  0  0
   58.9830   27.8770   46.5160 C   0  0  0  0  0  0  0  0  0  0  0  0
   59.4800   29.1400   46.1690 C   0  0  0  0  0  0  0  0  0  0  0  0
   60.5122   29.4131   46.4335 H   0  0  0  0  0  0  0  0  0  0  0  0
   58.6710   30.0560   45.4880 C   0  0  0  0  0  0  0  0  0  0  0  0
   59.0756   31.0392   45.2058 H   0  0  0  0  0  0  0  0  0  0  0  0
   57.3420   29.7260   45.1620 C   0  0  0  0  0  0  0  0  0  0  0  0
   56.4900   30.6050   44.4720 O   0  0  0  0  0  0  0  0  0  0  0  0
   56.7300   31.1490   43.1730 C   0  0  0  0  0  0  0  0  0  0  0  0
   55.9556   31.8980   42.9509 H   0  0  0  0  0  0  0  0  0  0  0  0
   56.7004   30.3257   42.4441 H   0  0  0  0  0  0  0  0  0  0  0  0
   58.1100   31.8180   43.0870 C   0  0  0  0  0  0  0  0  0  0  0  0
   58.3056   32.0747   42.0354 H   0  0  0  0  0  0  0  0  0  0  0  0
   58.8392   31.0990   43.4887 H   0  0  0  0  0  0  0  0  0  0  0  0
   58.2350   33.1010   43.9310 C   0  0  0  0  0  0  0  0  0  0  0  0
   58.3258   33.9544   43.2430 H   0  0  0  0  0  0  0  0  0  0  0  0
   59.1172   32.9615   44.5731 H   0  0  0  0  0  0  0  0  0  0  0  0
   57.0530   33.3750   44.8780 C   0  0  0  0  0  0  0  0  0  0  0  0
   56.2380   32.6778   44.6336 H   0  0  0  0  0  0  0  0  0  0  0  0
   56.7504   34.4229   44.7352 H   0  0  0  0  0  0  0  0  0  0  0  0
   57.4230   33.1980   46.3600 C   0  0  0  0  0  0  0  0  0  0  0  0
   57.5624   32.1263   46.5648 H   0  0  0  0  0  0  0  0  0  0  0  0
   56.6057   33.6180   46.9647 H   0  0  0  0  0  0  0  0  0  0  0  0
   58.7120   33.9430   46.7280 C   0  0  0  0  0  0  0  0  0  0  0  0
   58.4731   34.7273   47.4613 H   0  0  0  0  0  0  0  0  0  0  0  0
   59.1311   34.3768   45.8081 H   0  0  0  0  0  0  0  0  0  0  0  0
   59.7360   33.0230   47.3180 C   0  0  0  0  0  0  0  0  0  0  0  0
   59.4580   32.0130   48.1120 O   0  0  0  0  0  0  0  0  0  0  0  0
   60.5470   31.3850   48.4390 N   0  0  0  0  0  0  0  0  0  0  0  0
   60.5900   30.5380   49.0500 H   0  0  0  0  0  0  0  0  0  0  0  0
   61.5810   32.0070   47.8440 C   0  0  0  0  0  0  0  0  0  0  0  0
   62.9990   31.5470   47.9090 C   0  0  0  0  0  0  0  0  0  0  0  0
   63.3045   31.4479   48.9611 H   0  0  0  0  0  0  0  0  0  0  0  0
   63.0918   30.5727   47.4069 H   0  0  0  0  0  0  0  0  0  0  0  0
   63.6461   32.2813   47.4069 H   0  0  0  0  0  0  0  0  0  0  0  0
   61.1000   33.0650   47.0980 C   0  0  0  0  0  0  0  0  0  0  0  0
   61.6676   33.7730   46.4763 H   0  0  0  0  0  0  0  0  0  0  0  0
   56.8370   28.4750   45.5440 C   0  0  0  0  0  0  0  0  0  0  0  0
   55.5210   28.1380   45.2480 O   0  0  0  0  0  0  0  0  0  0  0  0
   57.6470   27.5600   46.2250 C   0  0  0  0  0  0  0  0  0  0  0  0
   57.2351   26.5879   46.5337 H   0  0  0  0  0  0  0  0  0  0  0  0
  1  2  1  0
  2  3  1  0
  3  4  2  0
  3  5  1  0
  2  6  2  0
  6  7  1  0
  6  8  1  0
  8  9  2  0
  9 10  1  0
  9 11  1  0
 11 12  1  0
 11 13  2  0
 13 14  1  0
 14 15  1  0
 15 16  1  0
 15 17  1  0
 15 18  1  0
 18 19  1  0
 18 20  1  0
 18 21  1  0
 21 22  1  0
 21 23  1  0
 21 24  1  0
 24 25  1  0
 24 26  1  0
 24 27  1  0
 27 28  1  0
 27 29  1  0
 27 30  1  0
 30 31  1  0
 30 32  1  0
 30 33  1  0
 33 34  1  0
 34 35  1  0
 35 36  1  0
 35 37  2  0
 37 38  1  0
 38 39  1  0
 38 40  1  0
 38 41  1  0
 37 42  1  0
 42 43  1  0
 13 44  1  0
 44 45  1  0
 44 46  2  0
 46 47  1  0
 46  8  1  0
 42 33  2  0
M  CHG  3   5  -1  35   1  45  -1
M  END
>  <UniqueID>  (7) 
6

>  <SMILES>  (7) 
Cc1cc(CCCCCCOc2ccc(/C=C\C(=O)[O-])cc2[O-])o[nH+]1

>  <Energy>  (7) 
75.37709496283158

>  <Genealogy>  (7) 
Cc1cc(CCCCCCOc2ccc(C=CC(=O)[O-])cc2[O-])o[nH+]1 (protonated)
Cc1cc(CCCCCCOc2ccc(/C=C\C(=O)[O-])cc2[O-])o[nH+]1 (cis-trans isomerization)
Cc1cc(CCCCCCOc2ccc(/C=C\C(=O)[O-])cc2[O-])o[nH+]1 (3D coordinates assigned)
Cc1cc(CCCCCCOc2ccc(/C=C\C(=O)[O-])cc2[O-])o[nH+]1 (optimized conformer: 75.37709496283158 kcal/mol)

>  <smiles>  (7) 
Cc1cc(CCCCCCOc2ccc(C=CC(=O)O)cc2O)on1

>  <score_type>  (7) 
oracle

>  <origin>  (7) 
adg

>  <m_score__min__energy>  (7) 
-13.109999999999999

>  <m_primary>  (7) 
energy

$$$$
7:0
     RDKit          3D

 58 60  0  0  0  0  0  0  0  0999 V2000
   57.4120   30.0950   51.2590 O   0  0  0  0  0  0  0  0  0  0  0  0
   57.9160   31.2000   51.5910 C   0  0  0  0  0  0  0  0  0  0  0  0
   57.0810   32.2590   51.9240 O   0  0  0  0  0  0  0  0  0  0  0  0
   59.4120   31.3610   51.6500 C   0  0  0  0  0  0  0  0  0  0  0  0
   59.9840   32.0320   50.4600 N   0  0  0  0  0  0  0  0  0  0  0  0
   58.9720   32.7440   49.6540 C   0  0  0  0  0  0  0  0  0  0  0  0
   59.6630   33.7630   48.7230 C   0  0  0  0  0  0  0  0  0  0  0  0
   59.2130   33.7070   47.3150 N   0  0  0  0  0  0  0  0  0  0  0  0
   57.7920   33.3350   47.1730 C   0  0  0  0  0  0  0  0  0  0  0  0
   57.3320   33.4870   45.7080 C   0  0  0  0  0  0  0  0  0  0  0  0
   58.4430   33.4880   44.8340 O   0  0  0  0  0  0  0  0  0  0  0  0
   59.2230   34.6560   45.0380 C   0  0  0  0  0  0  0  0  0  0  0  0
   59.5390   34.9090   46.5280 C   0  0  0  0  0  0  0  0  0  0  0  0
   60.9330   30.9300   49.4810 S   0  0  0  0  0  0  0  0  0  0  0  0
   62.2210   31.5830   49.0570 O   0  0  0  0  0  0  0  0  0  0  0  0
   61.2700   29.6990   50.2740 O   0  0  0  0  0  0  0  0  0  0  0  0
   60.0140   30.4350   48.0620 C   0  0  0  0  0  0  0  0  0  0  0  0
   58.8450   29.6730   48.1950 C   0  0  0  0  0  0  0  0  0  0  0  0
   58.1310   29.2770   47.0610 C   0  0  0  0  0  0  0  0  0  0  0  0
   58.5740   29.6430   45.7790 C   0  0  0  0  0  0  0  0  0  0  0  0
   57.7880   29.2310   44.5650 C   0  0  0  0  0  0  0  0  0  0  0  0
   57.0800   27.9790   44.8200 N   0  0  0  0  0  0  0  0  0  0  0  0
   57.7690   26.7530   45.1120 C   0  0  0  0  0  0  0  0  0  0  0  0
   59.0300   26.7280   45.1180 O   0  0  0  0  0  0  0  0  0  0  0  0
   57.0210   25.5020   45.3690 C   0  0  0  0  0  0  0  0  0  0  0  0
   57.6770   24.2670   45.2230 C   0  0  0  0  0  0  0  0  0  0  0  0
   56.9920   23.0700   45.4430 C   0  0  0  0  0  0  0  0  0  0  0  0
   55.6490   23.0910   45.8220 C   0  0  0  0  0  0  0  0  0  0  0  0
   54.9920   24.3110   45.9920 C   0  0  0  0  0  0  0  0  0  0  0  0
   55.6700   25.5160   45.7750 C   0  0  0  0  0  0  0  0  0  0  0  0
   54.9980   26.7130   45.9990 O   0  0  0  0  0  0  0  0  0  0  0  0
   59.7470   30.4050   45.6500 C   0  0  0  0  0  0  0  0  0  0  0  0
   60.4630   30.7950   46.7850 C   0  0  0  0  0  0  0  0  0  0  0  0
   59.6627   31.9576   52.5396 H   0  0  0  0  0  0  0  0  0  0  0  0
   59.8437   30.3500   51.6887 H   0  0  0  0  0  0  0  0  0  0  0  0
   58.4118   32.0173   49.0473 H   0  0  0  0  0  0  0  0  0  0  0  0
   58.2834   33.2769   50.3262 H   0  0  0  0  0  0  0  0  0  0  0  0
   59.4615   34.7733   49.1087 H   0  0  0  0  0  0  0  0  0  0  0  0
   60.7337   33.5106   48.7208 H   0  0  0  0  0  0  0  0  0  0  0  0
   57.6596   32.2889   47.4863 H   0  0  0  0  0  0  0  0  0  0  0  0
   57.1870   34.0022   47.8046 H   0  0  0  0  0  0  0  0  0  0  0  0
   56.6690   32.6484   45.4486 H   0  0  0  0  0  0  0  0  0  0  0  0
   56.7973   34.4424   45.6021 H   0  0  0  0  0  0  0  0  0  0  0  0
   60.1710   34.5460   44.4910 H   0  0  0  0  0  0  0  0  0  0  0  0
   58.6392   35.5134   44.6720 H   0  0  0  0  0  0  0  0  0  0  0  0
   60.6083   35.1412   46.6408 H   0  0  0  0  0  0  0  0  0  0  0  0
   58.9373   35.7559   46.8896 H   0  0  0  0  0  0  0  0  0  0  0  0
   58.4886   29.3859   49.1953 H   0  0  0  0  0  0  0  0  0  0  0  0
   57.2169   28.6753   47.1727 H   0  0  0  0  0  0  0  0  0  0  0  0
   57.0584   30.0172   44.3211 H   0  0  0  0  0  0  0  0  0  0  0  0
   58.4806   29.0852   43.7230 H   0  0  0  0  0  0  0  0  0  0  0  0
   56.0430   27.9700   44.6880 H   0  0  0  0  0  0  0  0  0  0  0  0
   58.7379   24.2434   44.9333 H   0  0  0  0  0  0  0  0  0  0  0  0
   57.5120   22.1088   45.3173 H   0  0  0  0  0  0  0  0  0  0  0  0
   55.1086   22.1471   45.9866 H   0  0  0  0  0  0  0  0  0  0  0  0
   53.9356   24.3253   46.2982 H   0  0  0  0  0  0  0  0  0  0  0  0
   60.1036   30.6961   44.6510 H   0  0  0  0  0  0  0  0  0  0  0  0
   61.3833   31.3874   46.6750 H   0  0  0  0  0  0  0  0  0  0  0  0
  1  2  2  0
  2  3  1  0
  2  4  1  0
  4  5  1  0
  5  6  1  0
  6  7  1  0
  7  8  1  0
  8  9  1  0
  9 10  1  0
 10 11  1  0
 11 12  1  0
 12 13  1  0
  5 14  1  0
 14 15  2  0
 14 16  2  0
 14 17  1  0
 17 18  2  0
 18 19  1  0
 19 20  2  0
 20 21  1  0
 21 22  1  0
 22 23  1  0
 23 24  2  0
 23 25  1  0
 25 26  2  0
 26 27  1  0
 27 28  2  0
 28 29  1  0
 29 30  2  0
 30 31  1  0
 20 32  1  0
 32 33  2  0
 13  8  1  0
 33 17  1  0
 30 25  1  0
  4 34  1  0
  4 35  1  0
  6 36  1  0
  6 37  1  0
  7 38  1  0
  7 39  1  0
  9 40  1  0
  9 41  1  0
 10 42  1  0
 10 43  1  0
 12 44  1  0
 12 45  1  0
 13 46  1  0
 13 47  1  0
 18 48  1  0
 19 49  1  0
 21 50  1  0
 21 51  1  0
 22 52  1  0
 26 53  1  0
 27 54  1  0
 28 55  1  0
 29 56  1  0
 32 57  1  0
 33 58  1  0
M  CHG  2   3  -1  31  -1
M  END
>  <UniqueID>  (8) 
7

>  <SMILES>  (8) 
O=C([O-])CN(CCN1CCOCC1)S(=O)(=O)c1ccc(CNC(=O)c2ccccc2[O-])cc1

>  <Energy>  (8) 
75.77938159820455

>  <Genealogy>  (8) 
O=C([O-])CN(CCN1CCOCC1)S(=O)(=O)c1ccc(CNC(=O)c2ccccc2[O-])cc1 (protonated)
O=C([O-])CN(CCN1CCOCC1)S(=O)(=O)c1ccc(CNC(=O)c2ccccc2[O-])cc1 (3D coordinates assigned)
O=C([O-])CN(CCN1CCOCC1)S(=O)(=O)c1ccc(CNC(=O)c2ccccc2[O-])cc1 (nonaromatic ring conformer: 75.77938159820455 kcal/mol)

>  <smiles>  (8) 
O=C(O)CN(CCN1CCOCC1)S(=O)(=O)c1ccc(CNC(=O)c2ccccc2O)cc1

>  <score_type>  (8) 
oracle

>  <origin>  (8) 
adg

>  <m_score__min__energy>  (8) 
-14.119999999999999

>  <m_primary>  (8) 
energy

$$$$
8:0
     RDKit          3D

 46 48  0  0  0  0  0  0  0  0999 V2000
   54.3590   28.9590   44.5260 H   0  0  0  0  0  0  0  0  0  0  0  0
   55.1110   29.5720   44.2340 O   0  0  0  0  0  0  0  0  0  0  0  0
   56.3730   29.4650   44.8060 C   0  0  0  0  0  0  0  0  0  0  0  0
   56.7910   28.4020   45.5150 N   0  0  0  0  0  0  0  0  0  0  0  0
   58.0390   28.7590   45.8850 C   0  0  0  0  0  0  0  0  0  0  0  0
   58.7900   27.9780   46.6030 N   0  0  0  0  0  0  0  0  0  0  0  0
   58.4020   26.7170   47.1730 C   0  0  0  0  0  0  0  0  0  0  0  0
   59.2750   26.0200   47.7520 O   0  0  0  0  0  0  0  0  0  0  0  0
   57.0570   26.2230   47.1030 N   0  0  0  0  0  0  0  0  0  0  0  0
   56.5470   25.2120   46.2190 C   0  0  0  0  0  0  0  0  0  0  0  0
   57.4000   24.1630   45.8480 C   0  0  0  0  0  0  0  0  0  0  0  0
   58.4302   24.1352   46.2325 H   0  0  0  0  0  0  0  0  0  0  0  0
   56.9510   23.1520   44.9930 C   0  0  0  0  0  0  0  0  0  0  0  0
   57.6275   22.3327   44.7083 H   0  0  0  0  0  0  0  0  0  0  0  0
   55.6450   23.1810   44.5000 C   0  0  0  0  0  0  0  0  0  0  0  0
   55.2856   22.3721   43.8469 H   0  0  0  0  0  0  0  0  0  0  0  0
   54.7950   24.2370   44.8360 C   0  0  0  0  0  0  0  0  0  0  0  0
   53.7689   24.2616   44.4403 H   0  0  0  0  0  0  0  0  0  0  0  0
   55.2440   25.2650   45.6750 C   0  0  0  0  0  0  0  0  0  0  0  0
   54.4000   26.3390   45.9340 O   0  0  0  0  0  0  0  0  0  0  0  0
   58.4320   29.9740   45.4350 N   0  0  0  0  0  0  0  0  0  0  0  0
   57.3650   30.4120   44.7460 C   0  0  0  0  0  0  0  0  0  0  0  0
   57.2670   31.7750   44.1320 C   0  0  0  0  0  0  0  0  0  0  0  0
   58.1712   31.9720   43.5374 H   0  0  0  0  0  0  0  0  0  0  0  0
   56.3777   31.8155   43.4858 H   0  0  0  0  0  0  0  0  0  0  0  0
   57.1400   32.8340   45.2230 C   0  0  0  0  0  0  0  0  0  0  0  0
   56.0869   33.1381   45.3149 H   0  0  0  0  0  0  0  0  0  0  0  0
   57.4911   32.4140   46.1771 H   0  0  0  0  0  0  0  0  0  0  0  0
   58.1550   34.2900   44.7990 S   0  0  0  0  0  0  0  0  0  0  0  0
   58.8960   34.5070   46.4620 C   0  0  0  0  0  0  0  0  0  0  0  0
   58.3509   35.3034   46.9898 H   0  0  0  0  0  0  0  0  0  0  0  0
   58.8189   33.5452   46.9902 H   0  0  0  0  0  0  0  0  0  0  0  0
   60.3810   34.8860   46.3990 C   0  0  0  0  0  0  0  0  0  0  0  0
   60.6282   35.1885   45.3707 H   0  0  0  0  0  0  0  0  0  0  0  0
   60.5541   35.7111   47.1056 H   0  0  0  0  0  0  0  0  0  0  0  0
   61.2690   33.7340   46.7960 C   0  0  0  0  0  0  0  0  0  0  0  0
   62.6670   33.8810   46.8010 C   0  0  0  0  0  0  0  0  0  0  0  0
   63.1176   34.8497   46.5389 H   0  0  0  0  0  0  0  0  0  0  0  0
   63.4860   32.8000   47.1380 C   0  0  0  0  0  0  0  0  0  0  0  0
   64.5793   32.9208   47.1437 H   0  0  0  0  0  0  0  0  0  0  0  0
   62.9190   31.5650   47.4680 C   0  0  0  0  0  0  0  0  0  0  0  0
   63.5655   30.7164   47.7360 H   0  0  0  0  0  0  0  0  0  0  0  0
   61.5300   31.4100   47.4570 C   0  0  0  0  0  0  0  0  0  0  0  0
   61.0842   30.4378   47.7140 H   0  0  0  0  0  0  0  0  0  0  0  0
   60.7060   32.4880   47.1200 C   0  0  0  0  0  0  0  0  0  0  0  0
   59.6135   32.3603   47.1084 H   0  0  0  0  0  0  0  0  0  0  0  0
  1  2  1  0
  2  3  1  0
  3  4  1  0
  4  5  1  0
  5  6  2  0
  6  7  1  0
  7  8  2  0
  7  9  1  0
  9 10  1  0
 10 11  2  0
 11 12  1  0
 11 13  1  0
 13 14  1  0
 13 15  2  0
 15 16  1  0
 15 17  1  0
 17 18  1  0
 17 19  2  0
 19 20  1  0
  5 21  1  0
 21 22  1  0
 22 23  1  0
 23 24  1  0
 23 25  1  0
 23 26  1  0
 26 27  1  0
 26 28  1  0
 26 29  1  0
 29 30  1  0
 30 31  1  0
 30 32  1  0
 30 33  1  0
 33 34  1  0
 33 35  1  0
 33 36  1  0
 36 37  2  0
 37 38  1  0
 37 39  1  0
 39 40  1  0
 39 41  2  0
 41 42  1  0
 41 43  1  0
 43 44  1  0
 43 45  2  0
 45 46  1  0
 22  3  2  0
 45 36  1  0
 19 10  1  0
M  CHG  4   4  -1   9  -1  20  -1  21  -1
M  END
>  <UniqueID>  (9) 
8

>  <SMILES>  (9) 
O=C(/N=c1/[n-]c(O)c(CCSCCc2ccccc2)[n-]1)[N-]c1ccccc1[O-]

>  <Energy>  (9) 
75.2061782909827

>  <Genealogy>  (9) 
O=C(N=c1[n-]c(O)c(CCSCCc2ccccc2)[n-]1)[N-]c1ccccc1[O-] (protonated)
O=C(/N=c1/[n-]c(O)c(CCSCCc2ccccc2)[n-]1)[N-]c1ccccc1[O-] (cis-trans isomerization)
O=C(/N=c1/[n-]c(O)c(CCSCCc2ccccc2)[n-]1)[N-]c1ccccc1[O-] (3D coordinates assigned)
O=C(/N=c1/[n-]c(O)c(CCSCCc2ccccc2)[n-]1)[N-]c1ccccc1[O-] (optimized conformer: 75.2061782909827 kcal/mol)

>  <smiles>  (9) 
O=C(N=c1[nH]c(O)c(CCSCCc2ccccc2)[nH]1)Nc1ccccc1O

>  <score_type>  (9) 
oracle

>  <origin>  (9) 
adg

>  <m_score__min__energy>  (9) 
-16.050000000000001

>  <m_primary>  (9) 
energy

$$$$
9:0
     RDKit          3D

 39 42  0  0  0  0  0  0  0  0999 V2000
   56.7074   20.2958   49.4194 H   0  0  0  0  0  0  0  0  0  0  0  0
   56.6520   20.5940   48.3620 C   0  0  0  0  0  0  0  0  0  0  0  0
   56.5740   19.6450   47.3940 N   0  0  0  0  0  0  0  0  0  0  0  0
   56.5000   19.9710   46.0780 C   0  0  0  0  0  0  0  0  0  0  0  0
   56.4335   19.1769   45.3198 H   0  0  0  0  0  0  0  0  0  0  0  0
   56.5080   21.3150   45.6820 C   0  0  0  0  0  0  0  0  0  0  0  0
   56.3750   21.6290   44.2790 C   0  0  0  0  0  0  0  0  0  0  0  0
   56.2710   21.8800   43.1530 N   0  0  0  0  0  0  0  0  0  0  0  0
   56.5970   22.3230   46.6680 C   0  0  0  0  0  0  0  0  0  0  0  0
   56.6220   23.7660   46.3210 C   0  0  0  0  0  0  0  0  0  0  0  0
   55.4410   24.5230   46.3350 C   0  0  0  0  0  0  0  0  0  0  0  0
   54.4903   24.0461   46.6156 H   0  0  0  0  0  0  0  0  0  0  0  0
   55.4630   25.8790   45.9950 C   0  0  0  0  0  0  0  0  0  0  0  0
   54.5299   26.4614   46.0110 H   0  0  0  0  0  0  0  0  0  0  0  0
   56.6690   26.5030   45.6330 C   0  0  0  0  0  0  0  0  0  0  0  0
   56.7110   27.8670   45.2800 C   0  0  0  0  0  0  0  0  0  0  0  0
   55.5220   28.5880   45.2120 O   0  0  0  0  0  0  0  0  0  0  0  0
   57.9590   28.4600   44.9470 C   0  0  0  0  0  0  0  0  0  0  0  0
   58.1050   29.7200   44.6380 N   0  0  0  0  0  0  0  0  0  0  0  0
   57.4180   30.8680   45.1530 C   0  0  0  0  0  0  0  0  0  0  0  0
   56.2260   31.0990   44.8120 O   0  0  0  0  0  0  0  0  0  0  0  0
   58.0720   31.7060   46.1760 C   0  0  0  0  0  0  0  0  0  0  0  0
   58.7030   31.1090   47.2250 N   0  0  0  0  0  0  0  0  0  0  0  0
   59.3270   31.8270   48.1960 C   0  0  0  0  0  0  0  0  0  0  0  0
   59.8251   31.3088   49.0286 H   0  0  0  0  0  0  0  0  0  0  0  0
   59.3360   33.2230   48.1370 C   0  0  0  0  0  0  0  0  0  0  0  0
   60.1380   34.1580   49.3850 Cl  0  0  0  0  0  0  0  0  0  0  0  0
   58.6980   33.8630   47.0730 C   0  0  0  0  0  0  0  0  0  0  0  0
   58.6956   34.9614   47.0130 H   0  0  0  0  0  0  0  0  0  0  0  0
   58.0630   33.1080   46.0850 C   0  0  0  0  0  0  0  0  0  0  0  0
   57.5602   33.6063   45.2430 H   0  0  0  0  0  0  0  0  0  0  0  0
   59.0680   27.6740   44.9070 N   0  0  0  0  0  0  0  0  0  0  0  0
   59.0510   26.3530   45.2210 C   0  0  0  0  0  0  0  0  0  0  0  0
   59.9798   25.7655   45.1735 H   0  0  0  0  0  0  0  0  0  0  0  0
   57.8570   25.7390   45.6040 C   0  0  0  0  0  0  0  0  0  0  0  0
   57.8270   24.3790   45.9440 C   0  0  0  0  0  0  0  0  0  0  0  0
   58.7545   23.7883   45.9151 H   0  0  0  0  0  0  0  0  0  0  0  0
   56.6620   21.9460   48.0190 C   0  0  0  0  0  0  0  0  0  0  0  0
   56.7206   22.7142   48.8042 H   0  0  0  0  0  0  0  0  0  0  0  0
  1  2  1  0
  2  3  2  0
  3  4  1  0
  4  5  1  0
  4  6  2  0
  6  7  1  0
  7  8  3  0
  6  9  1  0
  9 10  1  0
 10 11  1  0
 11 12  1  0
 11 13  2  0
 13 14  1  0
 13 15  1  0
 15 16  2  0
 16 17  1  0
 16 18  1  0
 18 19  2  0
 19 20  1  0
 20 21  2  0
 20 22  1  0
 22 23  2  0
 23 24  1  0
 24 25  1  0
 24 26  2  0
 26 27  1  0
 26 28  1  0
 28 29  1  0
 28 30  2  0
 30 31  1  0
 18 32  1  0
 32 33  1  0
 33 34  1  0
 33 35  2  0
 35 36  1  0
 36 37  1  0
  9 38  2  0
 38 39  1  0
 38  2  1  0
 36 10  2  0
 35 15  1  0
 30 22  1  0
M  CHG  2  17  -1  32  -1
M  END
>  <UniqueID>  (10) 
9

>  <SMILES>  (10) 
N#Cc1cnccc1-c1ccc2c([O-])/c(=N\C(=O)c3ccc(Cl)cn3)[n-]cc2c1

>  <Energy>  (10) 
69.53990827630074

>  <Genealogy>  (10) 
N#Cc1cnccc1-c1ccc2c([O-])c(=NC(=O)c3ccc(Cl)cn3)[n-]cc2c1 (protonated)
N#Cc1cnccc1-c1ccc2c([O-])/c(=N\C(=O)c3ccc(Cl)cn3)[n-]cc2c1 (cis-trans isomerization)
N#Cc1cnccc1-c1ccc2c([O-])/c(=N\C(=O)c3ccc(Cl)cn3)[n-]cc2c1 (3D coordinates assigned)
N#Cc1cnccc1-c1ccc2c([O-])/c(=N\C(=O)c3ccc(Cl)cn3)[n-]cc2c1 (optimized conformer: 69.53990827630074 kcal/mol)

>  <smiles>  (10) 
N#Cc1cnccc1-c1ccc2c(O)c(=NC(=O)c3ccc(Cl)cn3)[nH]cc2c1

>  <score_type>  (10) 
oracle

>  <origin>  (10) 
adg

>  <m_score__min__energy>  (10) 
-12.49

>  <m_primary>  (10) 
energy

$$$$
10:0
     RDKit          3D

 48 50  0  0  0  0  0  0  0  0999 V2000
   57.6800   19.9140   46.2820 C   0  0  0  0  0  0  0  0  0  0  0  0
   56.9800   21.0410   45.5930 C   0  0  0  0  0  0  0  0  0  0  0  0
   57.4390   21.6450   44.4800 N   0  0  0  0  0  0  0  0  0  0  0  0
   56.6480   22.6670   44.1910 N   0  0  0  0  0  0  0  0  0  0  0  0
   56.9270   23.6240   43.1170 C   0  0  0  0  0  0  0  0  0  0  0  0
   57.4040   24.9290   43.6930 C   0  0  0  0  0  0  0  0  0  0  0  0
   57.5190   25.0980   45.0820 C   0  0  0  0  0  0  0  0  0  0  0  0
   57.9930   26.3020   45.6090 C   0  0  0  0  0  0  0  0  0  0  0  0
   58.3490   27.3570   44.7550 C   0  0  0  0  0  0  0  0  0  0  0  0
   58.8720   28.6200   45.3150 C   0  0  0  0  0  0  0  0  0  0  0  0
   60.0790   28.5810   46.0330 C   0  0  0  0  0  0  0  0  0  0  0  0
   60.6330   29.7520   46.5520 C   0  0  0  0  0  0  0  0  0  0  0  0
   59.9900   30.9730   46.3610 C   0  0  0  0  0  0  0  0  0  0  0  0
   58.7820   31.0280   45.6640 C   0  0  0  0  0  0  0  0  0  0  0  0
   58.2010   29.8580   45.1450 C   0  0  0  0  0  0  0  0  0  0  0  0
   56.6300   29.9730   44.3310 S   0  0  0  0  0  0  0  0  0  0  0  0
   55.5160   28.8340   45.0070 N   0  0  0  0  0  0  0  0  0  0  0  0
   56.7860   29.6580   42.8690 O   0  0  0  0  0  0  0  0  0  0  0  0
   56.0760   31.3600   44.4910 O   0  0  0  0  0  0  0  0  0  0  0  0
   58.2470   27.1840   43.3660 C   0  0  0  0  0  0  0  0  0  0  0  0
   57.7710   25.9820   42.8390 C   0  0  0  0  0  0  0  0  0  0  0  0
   55.6640   22.7400   45.1180 C   0  0  0  0  0  0  0  0  0  0  0  0
   54.6700   23.8590   45.2290 C   0  0  0  0  0  0  0  0  0  0  0  0
   55.8500   21.7130   46.0370 C   0  0  0  0  0  0  0  0  0  0  0  0
   55.1200   21.4970   47.3330 C   0  0  0  0  0  0  0  0  0  0  0  0
   55.9680   21.9400   48.4810 C   0  0  0  0  0  0  0  0  0  0  0  0
   55.4530   22.1280   49.6150 O   0  0  0  0  0  0  0  0  0  0  0  0
   57.3190   22.1970   48.2890 O   0  0  0  0  0  0  0  0  0  0  0  0
   57.5995   20.0436   47.3714 H   0  0  0  0  0  0  0  0  0  0  0  0
   57.2148   18.9607   45.9908 H   0  0  0  0  0  0  0  0  0  0  0  0
   58.7407   19.9084   45.9908 H   0  0  0  0  0  0  0  0  0  0  0  0
   58.3040   21.3910   43.9520 H   0  0  0  0  0  0  0  0  0  0  0  0
   57.7049   23.2125   42.4570 H   0  0  0  0  0  0  0  0  0  0  0  0
   56.0037   23.8007   42.5458 H   0  0  0  0  0  0  0  0  0  0  0  0
   57.2346   24.2786   45.7585 H   0  0  0  0  0  0  0  0  0  0  0  0
   58.0875   26.4235   46.6982 H   0  0  0  0  0  0  0  0  0  0  0  0
   60.5914   27.6199   46.1873 H   0  0  0  0  0  0  0  0  0  0  0  0
   61.5785   29.7109   47.1126 H   0  0  0  0  0  0  0  0  0  0  0  0
   60.4354   31.8960   46.7605 H   0  0  0  0  0  0  0  0  0  0  0  0
   58.2799   31.9960   45.5195 H   0  0  0  0  0  0  0  0  0  0  0  0
   54.6360   29.3540   45.2270 H   0  0  0  0  0  0  0  0  0  0  0  0
   58.5434   27.9991   42.6895 H   0  0  0  0  0  0  0  0  0  0  0  0
   57.6829   25.8590   41.7495 H   0  0  0  0  0  0  0  0  0  0  0  0
   54.4781   24.0750   46.2904 H   0  0  0  0  0  0  0  0  0  0  0  0
   55.0732   24.7575   44.7390 H   0  0  0  0  0  0  0  0  0  0  0  0
   53.7302   23.5646   44.7390 H   0  0  0  0  0  0  0  0  0  0  0  0
   54.1859   22.0779   47.3254 H   0  0  0  0  0  0  0  0  0  0  0  0
   54.8944   20.4262   47.4446 H   0  0  0  0  0  0  0  0  0  0  0  0
  1  2  1  0
  2  3  2  0
  3  4  1  0
  4  5  1  0
  5  6  1  0
  6  7  2  0
  7  8  1  0
  8  9  2  0
  9 10  1  0
 10 11  2  0
 11 12  1  0
 12 13  2  0
 13 14  1  0
 14 15  2  0
 15 16  1  0
 16 17  1  0
 16 18  2  0
 16 19  2  0
  9 20  1  0
 20 21  2  0
  4 22  1  0
 22 23  1  0
 22 24  2  0
 24 25  1  0
 25 26  1  0
 26 27  2  0
 26 28  1  0
 24  2  1  0
 21  6  1  0
 15 10  1  0
  1 29  1  0
  1 30  1  0
  1 31  1  0
  3 32  1  0
  5 33  1  0
  5 34  1  0
  7 35  1  0
  8 36  1  0
 11 37  1  0
 12 38  1  0
 13 39  1  0
 14 40  1  0
 17 41  1  0
 20 42  1  0
 21 43  1  0
 23 44  1  0
 23 45  1  0
 23 46  1  0
 25 47  1  0
 25 48  1  0
M  CHG  3   3   1  17  -1  28  -1
M  END
>  <UniqueID>  (11) 
10

>  <SMILES>  (11) 
Cc1[nH+]n(Cc2ccc(-c3ccccc3S([NH-])(=O)=O)cc2)c(C)c1CC(=O)[O-]

>  <Energy>  (11) 
83.51493566414909

>  <Genealogy>  (11) 
Cc1[nH+]n(Cc2ccc(-c3ccccc3S([NH-])(=O)=O)cc2)c(C)c1CC(=O)[O-] (protonated)
Cc1[nH+]n(Cc2ccc(-c3ccccc3S([NH-])(=O)=O)cc2)c(C)c1CC(=O)[O-] (3D coordinates assigned)
Cc1[nH+]n(Cc2ccc(-c3ccccc3S([NH-])(=O)=O)cc2)c(C)c1CC(=O)[O-] (optimized conformer: 83.51493566414909 kcal/mol)

>  <smiles>  (11) 
Cc1nn(Cc2ccc(-c3ccccc3S(N)(=O)=O)cc2)c(C)c1CC(=O)O

>  <score_type>  (11) 
oracle

>  <origin>  (11) 
adg

>  <m_score__min__energy>  (11) 
-11.92

>  <m_primary>  (11) 
energy

$$$$
11:0
     RDKit          3D

 44 45  0  0  0  0  0  0  0  0999 V2000
   56.8200   21.7080   46.4080 H   0  0  0  0  0  0  0  0  0  0  0  0
   56.9770   22.4490   47.1290 N   0  0  0  0  0  0  0  0  0  0  0  0
   57.2570   23.6660   46.7970 C   0  0  0  0  0  0  0  0  0  0  0  0
   56.2560   24.5470   46.5600 N   0  0  0  0  0  0  0  0  0  0  0  0
   56.5030   25.8370   46.2090 C   0  0  0  0  0  0  0  0  0  0  0  0
   55.3810   26.7020   45.9950 N   0  0  0  0  0  0  0  0  0  0  0  0
   55.1730   27.0440   45.0300 H   0  0  0  0  0  0  0  0  0  0  0  0
   54.7190   26.9840   46.7480 H   0  0  0  0  0  0  0  0  0  0  0  0
   57.8440   26.2770   46.0740 C   0  0  0  0  0  0  0  0  0  0  0  0
   58.2150   27.6990   45.6880 C   0  0  0  0  0  0  0  0  0  0  0  0
   57.6643   28.3967   46.3360 H   0  0  0  0  0  0  0  0  0  0  0  0
   59.3024   27.8091   45.8124 H   0  0  0  0  0  0  0  0  0  0  0  0
   57.8750   28.0120   44.2230 C   0  0  0  0  0  0  0  0  0  0  0  0
   58.7579   28.4615   43.7450 H   0  0  0  0  0  0  0  0  0  0  0  0
   57.5878   27.0669   43.7391 H   0  0  0  0  0  0  0  0  0  0  0  0
   56.6940   28.9820   44.0840 C   0  0  0  0  0  0  0  0  0  0  0  0
   56.8185   29.5749   43.1659 H   0  0  0  0  0  0  0  0  0  0  0  0
   55.7605   28.4021   44.0367 H   0  0  0  0  0  0  0  0  0  0  0  0
   56.6340   29.8840   45.2360 N   0  0  0  0  0  0  0  0  0  0  0  0
   55.8840   29.7010   45.9420 H   0  0  0  0  0  0  0  0  0  0  0  0
   57.5220   30.9980   45.4540 C   0  0  0  0  0  0  0  0  0  0  0  0
   57.5730   32.0980   44.5750 C   0  0  0  0  0  0  0  0  0  0  0  0
   56.9193   32.1213   43.6906 H   0  0  0  0  0  0  0  0  0  0  0  0
   58.4480   33.1590   44.8190 C   0  0  0  0  0  0  0  0  0  0  0  0
   58.4839   34.0089   44.1216 H   0  0  0  0  0  0  0  0  0  0  0  0
   59.2810   33.1480   45.9470 C   0  0  0  0  0  0  0  0  0  0  0  0
   60.2420   34.2810   46.1840 C   0  0  0  0  0  0  0  0  0  0  0  0
   60.8319   34.4539   45.2718 H   0  0  0  0  0  0  0  0  0  0  0  0
   59.6728   35.1867   46.4405 H   0  0  0  0  0  0  0  0  0  0  0  0
   61.1430   33.9560   47.2870 N   0  0  0  0  0  0  0  0  0  0  0  0
   60.7410   33.8490   48.2450 H   0  0  0  0  0  0  0  0  0  0  0  0
   62.5600   33.8150   47.1060 C   0  0  0  0  0  0  0  0  0  0  0  0
   63.0660   33.8890   45.9540 O   0  0  0  0  0  0  0  0  0  0  0  0
   63.4500   33.6250   48.2910 C   0  0  0  0  0  0  0  0  0  0  0  0
   63.7035   32.5594   48.3919 H   0  0  0  0  0  0  0  0  0  0  0  0
   64.3714   34.2102   48.1547 H   0  0  0  0  0  0  0  0  0  0  0  0
   62.6100   34.1760   49.7590 S   0  0  0  0  0  0  0  0  0  0  0  0
   59.2310   32.0570   46.8270 C   0  0  0  0  0  0  0  0  0  0  0  0
   59.8827   32.0376   47.7129 H   0  0  0  0  0  0  0  0  0  0  0  0
   58.3570   30.9950   46.5830 C   0  0  0  0  0  0  0  0  0  0  0  0
   58.3225   30.1471   47.2829 H   0  0  0  0  0  0  0  0  0  0  0  0
   58.8640   25.3390   46.3370 C   0  0  0  0  0  0  0  0  0  0  0  0
   60.0780   25.6660   46.2500 O   0  0  0  0  0  0  0  0  0  0  0  0
   58.5480   24.0670   46.6880 N   0  0  0  0  0  0  0  0  0  0  0  0
  1  2  1  0
  2  3  2  0
  3  4  1  0
  4  5  1  0
  5  6  1  0
  6  7  1  0
  6  8  1  0
  5  9  2  0
  9 10  1  0
 10 11  1  0
 10 12  1  0
 10 13  1  0
 13 14  1  0
 13 15  1  0
 13 16  1  0
 16 17  1  0
 16 18  1  0
 16 19  1  0
 19 20  1  0
 19 21  1  0
 21 22  2  0
 22 23  1  0
 22 24  1  0
 24 25  1  0
 24 26  2  0
 26 27  1  0
 27 28  1  0
 27 29  1  0
 27 30  1  0
 30 31  1  0
 30 32  1  0
 32 33  2  0
 32 34  1  0
 34 35  1  0
 34 36  1  0
 34 37  1  0
 26 38  1  0
 38 39  1  0
 38 40  2  0
 40 41  1  0
  9 42  1  0
 42 43  2  0
 42 44  1  0
 44  3  1  0
 40 21  1  0
M  CHG  3   4  -1  37  -1  44  -1
M  END
>  <UniqueID>  (12) 
11

>  <SMILES>  (12) 
[H]/N=c1/[n-]c(N)c(CCCNc2ccc(CNC(=O)C[S-])cc2)c(=O)[n-]1

>  <Energy>  (12) 
38.275783622726074

>  <Genealogy>  (12) 
N=c1[n-]c(N)c(CCCNc2ccc(CNC(=O)C[S-])cc2)c(=O)[n-]1 (protonated)
[H]/N=c1/[n-]c(N)c(CCCNc2ccc(CNC(=O)C[S-])cc2)c(=O)[n-]1 (cis-trans isomerization)
[H]/N=c1/[n-]c(N)c(CCCNc2ccc(CNC(=O)C[S-])cc2)c(=O)[n-]1 (3D coordinates assigned)
[H]/N=c1/[n-]c(N)c(CCCNc2ccc(CNC(=O)C[S-])cc2)c(=O)[n-]1 (optimized conformer: 38.275783622726074 kcal/mol)

>  <smiles>  (12) 
N=c1[nH]c(N)c(CCCNc2ccc(CNC(=O)CS)cc2)c(=O)[nH]1

>  <score_type>  (12) 
oracle

>  <origin>  (12) 
adg

>  <m_score__min__energy>  (12) 
-12.76

>  <m_primary>  (12) 
energy

$$$$
12:0
     RDKit          3D

 49 51  0  0  0  0  0  0  0  0999 V2000
   59.1287   32.3657   45.5444 H   0  0  0  0  0  0  0  0  0  0  0  0
   59.3990   31.3670   45.9180 C   0  0  0  0  0  0  0  0  0  0  0  0
   59.0590   30.2620   45.2030 N   0  0  0  0  0  0  0  0  0  0  0  0
   59.3830   29.0060   45.6180 C   0  0  0  0  0  0  0  0  0  0  0  0
   59.0200   27.8820   44.8660 O   0  0  0  0  0  0  0  0  0  0  0  0
   57.9240   27.0530   45.1510 C   0  0  0  0  0  0  0  0  0  0  0  0
   58.0800   25.6700   45.0150 C   0  0  0  0  0  0  0  0  0  0  0  0
   59.0454   25.2576   44.6865 H   0  0  0  0  0  0  0  0  0  0  0  0
   57.0170   24.8110   45.2940 C   0  0  0  0  0  0  0  0  0  0  0  0
   57.1418   23.7222   45.1997 H   0  0  0  0  0  0  0  0  0  0  0  0
   55.7940   25.3490   45.6940 C   0  0  0  0  0  0  0  0  0  0  0  0
   54.9509   24.6825   45.9287 H   0  0  0  0  0  0  0  0  0  0  0  0
   55.6430   26.6950   45.7940 N   0  0  0  0  0  0  0  0  0  0  0  0
   56.6620   27.5630   45.5280 C   0  0  0  0  0  0  0  0  0  0  0  0
   56.4750   28.8500   45.5890 N   0  0  0  0  0  0  0  0  0  0  0  0
   56.2110   29.7470   44.4990 C   0  0  0  0  0  0  0  0  0  0  0  0
   55.1460   30.4220   44.4530 O   0  0  0  0  0  0  0  0  0  0  0  0
   57.1820   29.8710   43.4550 N   0  0  0  0  0  0  0  0  0  0  0  0
   58.0550   29.2990   43.5220 H   0  0  0  0  0  0  0  0  0  0  0  0
   56.9840   30.7810   42.3270 C   0  0  0  0  0  0  0  0  0  0  0  0
   55.9244   31.0731   42.2825 H   0  0  0  0  0  0  0  0  0  0  0  0
   57.2807   30.2629   41.4031 H   0  0  0  0  0  0  0  0  0  0  0  0
   57.8400   32.0330   42.4770 C   0  0  0  0  0  0  0  0  0  0  0  0
   57.9883   32.2500   43.5451 H   0  0  0  0  0  0  0  0  0  0  0  0
   58.8162   31.8694   41.9971 H   0  0  0  0  0  0  0  0  0  0  0  0
   57.3333   32.8833   41.9971 H   0  0  0  0  0  0  0  0  0  0  0  0
   60.0720   28.8320   46.8190 C   0  0  0  0  0  0  0  0  0  0  0  0
   60.3257   27.8211   47.1708 H   0  0  0  0  0  0  0  0  0  0  0  0
   60.4370   29.9510   47.5710 C   0  0  0  0  0  0  0  0  0  0  0  0
   60.9949   29.8231   48.5103 H   0  0  0  0  0  0  0  0  0  0  0  0
   60.0930   31.2390   47.1300 C   0  0  0  0  0  0  0  0  0  0  0  0
   60.4950   32.4300   47.9130 C   0  0  0  0  0  0  0  0  0  0  0  0
   59.6710   33.3740   48.0580 O   0  0  0  0  0  0  0  0  0  0  0  0
   61.7970   32.5320   48.5210 N   0  0  0  0  0  0  0  0  0  0  0  0
   61.9360   33.2640   49.7890 C   0  0  0  0  0  0  0  0  0  0  0  0
   61.7503   34.3329   49.6076 H   0  0  0  0  0  0  0  0  0  0  0  0
   61.2069   32.8577   50.5055 H   0  0  0  0  0  0  0  0  0  0  0  0
   63.3390   33.0950   50.3800 C   0  0  0  0  0  0  0  0  0  0  0  0
   63.4319   33.7395   51.2666 H   0  0  0  0  0  0  0  0  0  0  0  0
   63.4730   32.0359   50.6453 H   0  0  0  0  0  0  0  0  0  0  0  0
   64.4340   33.4770   49.3700 C   0  0  0  0  0  0  0  0  0  0  0  0
   64.5574   34.5699   49.3898 H   0  0  0  0  0  0  0  0  0  0  0  0
   65.3471   32.9432   49.6721 H   0  0  0  0  0  0  0  0  0  0  0  0
   64.1240   33.0490   47.9190 C   0  0  0  0  0  0  0  0  0  0  0  0
   63.8313   33.9401   47.3442 H   0  0  0  0  0  0  0  0  0  0  0  0
   65.0313   32.5807   47.5098 H   0  0  0  0  0  0  0  0  0  0  0  0
   62.9940   32.0190   47.8350 C   0  0  0  0  0  0  0  0  0  0  0  0
   62.7545   31.8256   46.7790 H   0  0  0  0  0  0  0  0  0  0  0  0
   63.3174   31.0860   48.3197 H   0  0  0  0  0  0  0  0  0  0  0  0
  1  2  1  0
  2  3  2  0
  3  4  1  0
  4  5  1  0
  5  6  1  0
  6  7  2  0
  7  8  1  0
  7  9  1  0
  9 10  1  0
  9 11  2  0
 11 12  1  0
 11 13  1  0
 13 14  1  0
 14 15  2  0
 15 16  1  0
 16 17  2  0
 16 18  1  0
 18 19  1  0
 18 20  1  0
 20 21  1  0
 20 22  1  0
 20 23  1  0
 23 24  1  0
 23 25  1  0
 23 26  1  0
  4 27  2  0
 27 28  1  0
 27 29  1  0
 29 30  1  0
 29 31  2  0
 31 32  1  0
 32 33  2  0
 32 34  1  0
 34 35  1  0
 35 36  1  0
 35 37  1  0
 35 38  1  0
 38 39  1  0
 38 40  1  0
 38 41  1  0
 41 42  1  0
 41 43  1  0
 41 44  1  0
 44 45  1  0
 44 46  1  0
 44 47  1  0
 47 48  1  0
 47 49  1  0
 31  2  1  0
 47 34  1  0
 14  6  1  0
M  CHG  1  13  -1
M  END
>  <UniqueID>  (13) 
12

>  <SMILES>  (13) 
CCNC(=O)/N=c1\[n-]cccc1Oc1ccc(C(=O)N2CCCCC2)cn1

>  <Energy>  (13) 
60.060421191345306

>  <Genealogy>  (13) 
CCNC(=O)N=c1[n-]cccc1Oc1ccc(C(=O)N2CCCCC2)cn1 (protonated)
CCNC(=O)/N=c1\[n-]cccc1Oc1ccc(C(=O)N2CCCCC2)cn1 (cis-trans isomerization)
CCNC(=O)/N=c1\[n-]cccc1Oc1ccc(C(=O)N2CCCCC2)cn1 (3D coordinates assigned)
CCNC(=O)/N=c1\[n-]cccc1Oc1ccc(C(=O)N2CCCCC2)cn1 (nonaromatic ring conformer: 60.060421191345306 kcal/mol)

>  <smiles>  (13) 
CCNC(=O)N=c1[nH]cccc1Oc1ccc(C(=O)N2CCCCC2)cn1

>  <score_type>  (13) 
oracle

>  <origin>  (13) 
adg

>  <m_score__min__energy>  (13) 
-9.9700000000000006

>  <m_primary>  (13) 
energy

$$$$
13:0
     RDKit          3D

 46 48  0  0  0  0  0  0  0  0999 V2000
   60.6510   26.7260   49.8130 C   0  0  0  0  0  0  0  0  0  0  0  0
   60.7730   28.2140   49.6230 C   0  0  0  0  0  0  0  0  0  0  0  0
   61.5650   28.9590   50.5120 C   0  0  0  0  0  0  0  0  0  0  0  0
   61.6860   30.3420   50.3640 C   0  0  0  0  0  0  0  0  0  0  0  0
   61.0130   30.9980   49.3330 C   0  0  0  0  0  0  0  0  0  0  0  0
   61.1450   32.7390   49.1640 Cl  0  0  0  0  0  0  0  0  0  0  0  0
   60.2180   30.2700   48.4450 C   0  0  0  0  0  0  0  0  0  0  0  0
   60.0910   28.8740   48.5730 C   0  0  0  0  0  0  0  0  0  0  0  0
   59.2230   28.1420   47.6900 N   0  0  0  0  0  0  0  0  0  0  0  0
   59.7050   27.3090   46.6260 C   0  0  0  0  0  0  0  0  0  0  0  0
   60.8480   26.7790   46.6990 O   0  0  0  0  0  0  0  0  0  0  0  0
   58.8590   27.0820   45.4110 C   0  0  0  0  0  0  0  0  0  0  0  0
   58.2040   28.3300   45.0230 N   0  0  0  0  0  0  0  0  0  0  0  0
   56.8680   28.6890   45.3220 C   0  0  0  0  0  0  0  0  0  0  0  0
   55.9640   27.8520   45.5820 O   0  0  0  0  0  0  0  0  0  0  0  0
   56.6420   30.0910   45.3210 N   0  0  0  0  0  0  0  0  0  0  0  0
   57.9200   30.7580   45.0450 C   0  0  0  0  0  0  0  0  0  0  0  0
   58.3760   31.5770   46.2810 C   0  0  0  0  0  0  0  0  0  0  0  0
   57.4870   32.7620   46.7110 C   0  0  0  0  0  0  0  0  0  0  0  0
   57.7610   34.0860   45.9790 C   0  0  0  0  0  0  0  0  0  0  0  0
   57.6180   34.0500   44.4350 C   0  0  0  0  0  0  0  0  0  0  0  0
   58.4460   32.9760   43.7080 C   0  0  0  0  0  0  0  0  0  0  0  0
   57.8440   31.5550   43.7180 C   0  0  0  0  0  0  0  0  0  0  0  0
   58.8550   29.5850   44.8660 C   0  0  0  0  0  0  0  0  0  0  0  0
   60.0900   29.6880   44.6360 O   0  0  0  0  0  0  0  0  0  0  0  0
   60.6320   26.4940   50.8881 H   0  0  0  0  0  0  0  0  0  0  0  0
   59.7208   26.3716   49.3449 H   0  0  0  0  0  0  0  0  0  0  0  0
   61.5111   26.2248   49.3449 H   0  0  0  0  0  0  0  0  0  0  0  0
   62.0938   28.4492   51.3308 H   0  0  0  0  0  0  0  0  0  0  0  0
   62.3135   30.9157   51.0620 H   0  0  0  0  0  0  0  0  0  0  0  0
   59.6855   30.7931   47.6370 H   0  0  0  0  0  0  0  0  0  0  0  0
   58.1900   28.2550   47.7880 H   0  0  0  0  0  0  0  0  0  0  0  0
   59.4940   26.7306   44.5844 H   0  0  0  0  0  0  0  0  0  0  0  0
   58.0934   26.3255   45.6379 H   0  0  0  0  0  0  0  0  0  0  0  0
   58.4372   30.8836   47.1327 H   0  0  0  0  0  0  0  0  0  0  0  0
   59.3304   32.0341   45.9807 H   0  0  0  0  0  0  0  0  0  0  0  0
   56.4383   32.4838   46.5298 H   0  0  0  0  0  0  0  0  0  0  0  0
   57.7162   32.9464   47.7709 H   0  0  0  0  0  0  0  0  0  0  0  0
   57.0557   34.8366   46.3652 H   0  0  0  0  0  0  0  0  0  0  0  0
   58.8179   34.3202   46.1741 H   0  0  0  0  0  0  0  0  0  0  0  0
   56.5579   33.8755   44.1987 H   0  0  0  0  0  0  0  0  0  0  0  0
   58.0044   35.0160   44.0778 H   0  0  0  0  0  0  0  0  0  0  0  0
   58.5607   33.2883   42.6595 H   0  0  0  0  0  0  0  0  0  0  0  0
   59.3974   32.9054   44.2556 H   0  0  0  0  0  0  0  0  0  0  0  0
   56.7816   31.6447   43.4473 H   0  0  0  0  0  0  0  0  0  0  0  0
   58.4616   30.9827   43.0102 H   0  0  0  0  0  0  0  0  0  0  0  0
  1  2  1  0
  2  3  2  0
  3  4  1  0
  4  5  2  0
  5  6  1  0
  5  7  1  0
  7  8  2  0
  8  9  1  0
  9 10  1  0
 10 11  2  0
 10 12  1  0
 12 13  1  0
 13 14  1  0
 14 15  2  0
 14 16  1  0
 16 17  1  0
 17 18  1  0
 18 19  1  0
 19 20  1  0
 20 21  1  0
 21 22  1  0
 22 23  1  0
 17 24  1  0
 24 25  2  0
  8  2  1  0
 24 13  1  0
 23 17  1  0
  1 26  1  0
  1 27  1  0
  1 28  1  0
  3 29  1  0
  4 30  1  0
  7 31  1  0
  9 32  1  0
 12 33  1  0
 12 34  1  0
 18 35  1  0
 18 36  1  0
 19 37  1  0
 19 38  1  0
 20 39  1  0
 20 40  1  0
 21 41  1  0
 21 42  1  0
 22 43  1  0
 22 44  1  0
 23 45  1  0
 23 46  1  0
M  CHG  1  16  -1
M  END
>  <UniqueID>  (14) 
13

>  <SMILES>  (14) 
Cc1ccc(Cl)cc1NC(=O)CN1C(=O)[N-]C2(CCCCCC2)C1=O

>  <Energy>  (14) 
77.31026800262734

>  <Genealogy>  (14) 
Cc1ccc(Cl)cc1NC(=O)CN1C(=O)[N-]C2(CCCCCC2)C1=O (protonated)
Cc1ccc(Cl)cc1NC(=O)CN1C(=O)[N-]C2(CCCCCC2)C1=O (3D coordinates assigned)
Cc1ccc(Cl)cc1NC(=O)CN1C(=O)[N-]C2(CCCCCC2)C1=O (nonaromatic ring conformer: 77.31026800262734 kcal/mol)

>  <smiles>  (14) 
Cc1ccc(Cl)cc1NC(=O)CN1C(=O)NC2(CCCCCC2)C1=O

>  <score_type>  (14) 
oracle

>  <origin>  (14) 
adg

>  <m_score__min__energy>  (14) 
-8.4800000000000004

>  <m_primary>  (14) 
energy

$$$$
14:0
     RDKit          3D

 30 32  0  0  0  0  0  0  0  0999 V2000
   63.7407   33.4140   46.6008 H   0  0  0  0  0  0  0  0  0  0  0  0
   62.8300   33.5180   47.2090 C   0  0  0  0  0  0  0  0  0  0  0  0
   61.6290   33.1180   46.7100 N   0  0  0  0  0  0  0  0  0  0  0  0
   60.4750   33.2250   47.4280 C   0  0  0  0  0  0  0  0  0  0  0  0
   59.3330   32.8340   46.9340 N   0  0  0  0  0  0  0  0  0  0  0  0
   59.0470   31.5730   46.3070 C   0  0  0  0  0  0  0  0  0  0  0  0
   59.4760   30.4940   46.7960 O   0  0  0  0  0  0  0  0  0  0  0  0
   58.2690   31.5560   45.0550 C   0  0  0  0  0  0  0  0  0  0  0  0
   57.6880   30.4860   44.3900 C   0  0  0  0  0  0  0  0  0  0  0  0
   57.5710   29.0850   44.8490 C   0  0  0  0  0  0  0  0  0  0  0  0
   58.7230   28.2960   45.0040 C   0  0  0  0  0  0  0  0  0  0  0  0
   59.7101   28.7153   44.7594 H   0  0  0  0  0  0  0  0  0  0  0  0
   58.6220   26.9820   45.4670 C   0  0  0  0  0  0  0  0  0  0  0  0
   59.5274   26.3669   45.5758 H   0  0  0  0  0  0  0  0  0  0  0  0
   57.3730   26.4480   45.7920 C   0  0  0  0  0  0  0  0  0  0  0  0
   57.2955   25.4113   46.1515 H   0  0  0  0  0  0  0  0  0  0  0  0
   56.2220   27.2290   45.6610 C   0  0  0  0  0  0  0  0  0  0  0  0
   54.9840   26.6930   45.9930 O   0  0  0  0  0  0  0  0  0  0  0  0
   56.3170   28.5470   45.1940 C   0  0  0  0  0  0  0  0  0  0  0  0
   55.1610   29.3120   45.0640 O   0  0  0  0  0  0  0  0  0  0  0  0
   57.1690   30.9220   43.2250 N   0  0  0  0  0  0  0  0  0  0  0  0
   57.3910   32.2230   43.1240 N   0  0  0  0  0  0  0  0  0  0  0  0
   58.0540   32.6350   44.2220 C   0  0  0  0  0  0  0  0  0  0  0  0
   58.3735   33.6682   44.4228 H   0  0  0  0  0  0  0  0  0  0  0  0
   60.5180   33.7660   48.7220 C   0  0  0  0  0  0  0  0  0  0  0  0
   59.3580   33.8890   49.4800 O   0  0  0  0  0  0  0  0  0  0  0  0
   61.7420   34.1830   49.2510 C   0  0  0  0  0  0  0  0  0  0  0  0
   61.7878   34.6077   50.2647 H   0  0  0  0  0  0  0  0  0  0  0  0
   62.9060   34.0600   48.4920 C   0  0  0  0  0  0  0  0  0  0  0  0
   63.8734   34.3869   48.9009 H   0  0  0  0  0  0  0  0  0  0  0  0
  1  2  1  0
  2  3  1  0
  3  4  1  0
  4  5  2  0
  5  6  1  0
  6  7  2  0
  6  8  1  0
  8  9  1  0
  9 10  1  0
 10 11  2  0
 11 12  1  0
 11 13  1  0
 13 14  1  0
 13 15  2  0
 15 16  1  0
 15 17  1  0
 17 18  1  0
 17 19  2  0
 19 20  1  0
  9 21  2  0
 21 22  1  0
 22 23  1  0
 23 24  1  0
  4 25  1  0
 25 26  1  0
 25 27  2  0
 27 28  1  0
 27 29  1  0
 29 30  1  0
 29  2  2  0
 23  8  2  0
 19 10  1  0
M  CHG  5   3  -1  18  -1  20  -1  22  -1  26  -1
M  END
>  <UniqueID>  (15) 
14

>  <SMILES>  (15) 
O=C(/N=c1\[n-]cccc1[O-])c1c[n-]nc1-c1cccc([O-])c1[O-]

>  <Energy>  (15) 
73.36366739303834

>  <Genealogy>  (15) 
O=C(N=c1[n-]cccc1[O-])c1c[n-]nc1-c1cccc([O-])c1[O-] (protonated)
O=C(/N=c1\[n-]cccc1[O-])c1c[n-]nc1-c1cccc([O-])c1[O-] (cis-trans isomerization)
O=C(/N=c1\[n-]cccc1[O-])c1c[n-]nc1-c1cccc([O-])c1[O-] (3D coordinates assigned)
O=C(/N=c1\[n-]cccc1[O-])c1c[n-]nc1-c1cccc([O-])c1[O-] (optimized conformer: 73.36366739303834 kcal/mol)

>  <smiles>  (15) 
O=C(N=c1[nH]cccc1O)c1c[nH]nc1-c1cccc(O)c1O

>  <score_type>  (15) 
oracle

>  <origin>  (15) 
adg

>  <m_score__min__energy>  (15) 
-18.489999999999998

>  <m_primary>  (15) 
energy

$$$$
15:0
     RDKit          3D

 57 59  0  0  1  0  0  0  0  0999 V2000
   58.7540   34.3680   44.5340 C   0  0  0  0  0  0  0  0  0  0  0  0
   59.4640   33.8520   45.7920 C   0  0  0  0  0  0  0  0  0  0  0  0
   59.2960   34.9070   46.9110 C   0  0  0  0  0  0  0  0  0  0  0  0
   58.9580   32.6510   46.2590 N   0  0  0  0  0  0  0  0  0  0  0  0
   59.4190   32.0660   47.7690 S   0  0  0  0  0  0  0  0  0  0  0  0
   58.6490   32.8090   48.8660 O   0  0  0  0  0  0  0  0  0  0  0  0
   58.9480   30.6100   47.8490 O   0  0  0  0  0  0  0  0  0  0  0  0
   61.1090   32.0710   48.1480 C   0  0  0  0  0  0  0  0  0  0  0  0
   62.0010   32.6040   47.1950 C   0  0  0  0  0  0  0  0  0  0  0  0
   63.3420   32.7060   47.4180 C   0  0  0  0  0  0  0  0  0  0  0  0
   63.8940   32.2910   48.5910 C   0  0  0  0  0  0  0  0  0  0  0  0
   63.0690   31.7630   49.5500 C   0  0  0  0  0  0  0  0  0  0  0  0
   61.6880   31.6600   49.3150 C   0  0  0  0  0  0  0  0  0  0  0  0
   60.9410   31.0470   50.3480 N   0  0  0  0  0  0  0  0  0  0  0  0
   61.0570   29.7790   50.5880 C   0  0  0  0  0  0  0  0  0  0  0  0
   61.4670   29.2820   51.7940 C   0  0  0  0  0  0  0  0  0  0  0  0
   61.5750   27.9220   51.9980 C   0  0  0  0  0  0  0  0  0  0  0  0
   61.2660   27.0720   50.9750 N   0  0  0  0  0  0  0  0  0  0  0  0
   60.8570   27.5620   49.7760 C   0  0  0  0  0  0  0  0  0  0  0  0
   60.5840   26.6990   48.8670 N   0  0  0  0  0  0  0  0  0  0  0  0
   59.7890   27.1120   47.7650 C   0  0  0  0  0  0  0  0  0  0  0  0
   58.6970   26.3180   47.4150 C   0  0  0  0  0  0  0  0  0  0  0  0
   57.8930   26.6870   46.3390 C   0  0  0  0  0  0  0  0  0  0  0  0
   58.1230   27.8160   45.5900 C   0  0  0  0  0  0  0  0  0  0  0  0
   57.3440   28.2480   44.5030 N   0  0  0  0  0  0  0  0  0  0  0  0
   56.6000   29.7840   44.3320 S   0  0  0  0  0  0  0  0  0  0  0  0
   56.6240   30.2900   42.6090 C   0  0  0  0  0  0  0  0  0  0  0  0
   57.2520   30.8370   45.2090 O   0  0  0  0  0  0  0  0  0  0  0  0
   55.1650   29.7360   44.7560 O   0  0  0  0  0  0  0  0  0  0  0  0
   59.2220   28.5850   45.9670 C   0  0  0  0  0  0  0  0  0  0  0  0
   59.4970   29.7460   45.2330 O   0  0  0  0  0  0  0  0  0  0  0  0
   60.0380   28.2490   47.0260 C   0  0  0  0  0  0  0  0  0  0  0  0
   60.7660   28.8910   49.6180 N   0  0  0  0  0  0  0  0  0  0  0  0
   57.8963   34.9914   44.8267 H   0  0  0  0  0  0  0  0  0  0  0  0
   59.4563   34.9679   43.9366 H   0  0  0  0  0  0  0  0  0  0  0  0
   58.4003   33.5148   43.9366 H   0  0  0  0  0  0  0  0  0  0  0  0
   60.5167   33.6826   45.5218 H   0  0  0  0  0  0  0  0  0  0  0  0
   59.3742   34.4162   47.8923 H   0  0  0  0  0  0  0  0  0  0  0  0
   60.0842   35.6687   46.8181 H   0  0  0  0  0  0  0  0  0  0  0  0
   58.3102   35.3862   46.8181 H   0  0  0  0  0  0  0  0  0  0  0  0
   58.8560   31.8740   45.5970 H   0  0  0  0  0  0  0  0  0  0  0  0
   61.5984   32.9517   46.2322 H   0  0  0  0  0  0  0  0  0  0  0  0
   63.9891   33.1310   46.6366 H   0  0  0  0  0  0  0  0  0  0  0  0
   64.9767   32.3773   48.7653 H   0  0  0  0  0  0  0  0  0  0  0  0
   63.4897   31.4190   50.5064 H   0  0  0  0  0  0  0  0  0  0  0  0
   61.7138   29.9752   52.6116 H   0  0  0  0  0  0  0  0  0  0  0  0
   61.9052   27.5280   52.9705 H   0  0  0  0  0  0  0  0  0  0  0  0
   61.3600   26.0530   51.1670 H   0  0  0  0  0  0  0  0  0  0  0  0
   58.4718   25.4050   47.9858 H   0  0  0  0  0  0  0  0  0  0  0  0
   57.0372   26.0472   46.0776 H   0  0  0  0  0  0  0  0  0  0  0  0
   57.1890   27.5690   43.6950 H   0  0  0  0  0  0  0  0  0  0  0  0
   56.6760   31.3872   42.5498 H   0  0  0  0  0  0  0  0  0  0  0  0
   57.5025   29.8538   42.1110 H   0  0  0  0  0  0  0  0  0  0  0  0
   55.7082   29.9389   42.1110 H   0  0  0  0  0  0  0  0  0  0  0  0
   59.3630   30.6690   45.6330 H   0  0  0  0  0  0  0  0  0  0  0  0
   60.8928   28.8918   47.2830 H   0  0  0  0  0  0  0  0  0  0  0  0
   60.4530   29.2790   48.7040 H   0  0  0  0  0  0  0  0  0  0  0  0
  1  2  1  0
  2  3  1  0
  2  4  1  0
  4  5  1  0
  5  6  2  0
  5  7  2  0
  5  8  1  0
  8  9  2  0
  9 10  1  0
 10 11  2  0
 11 12  1  0
 12 13  2  0
 13 14  1  0
 14 15  2  0
 15 16  1  0
 16 17  2  0
 17 18  1  0
 18 19  1  0
 19 20  2  0
 20 21  1  0
 21 22  2  0
 22 23  1  0
 23 24  2  0
 24 25  1  0
 25 26  1  0
 26 27  1  0
 26 28  2  0
 26 29  2  0
 24 30  1  0
 30 31  1  0
 30 32  2  0
 19 33  1  0
 13  8  1  0
 33 15  1  0
 32 21  1  0
  1 34  1  0
  1 35  1  0
  1 36  1  0
  2 37  1  0
  3 38  1  0
  3 39  1  0
  3 40  1  0
  4 41  1  0
  9 42  1  0
 10 43  1  0
 11 44  1  0
 12 45  1  0
 16 46  1  0
 17 47  1  0
 18 48  1  0
 22 49  1  0
 23 50  1  0
 25 51  1  0
 27 52  1  0
 27 53  1  0
 27 54  1  0
 31 55  1  0
 32 56  1  0
 33 57  1  0
M  END
>  <smiles>  (16) 
CC(C)NS(=O)(=O)c1ccccc1N=c1cc[nH]c(=Nc2ccc(NS(C)(=O)=O)c(O)c2)[nH]1

>  <score_type>  (16) 
oracle

>  <origin>  (16) 
adg

>  <m_score__min__energy>  (16) 
-10.390000000000001

>  <m_primary>  (16) 
energy

$$$$
16:0
     RDKit          3D

 50 52  0  0  0  0  0  0  0  0999 V2000
   55.8760   23.2700   43.0040 C   0  0  0  0  0  0  0  0  0  0  0  0
   56.1230   21.8810   42.9690 O   0  0  0  0  0  0  0  0  0  0  0  0
   57.4480   21.6050   43.3840 C   0  0  0  0  0  0  0  0  0  0  0  0
   57.6720   22.1150   44.8120 C   0  0  0  0  0  0  0  0  0  0  0  0
   58.6600   23.2890   44.8650 C   0  0  0  0  0  0  0  0  0  0  0  0
   58.0580   24.4620   45.5040 N   0  0  0  0  0  0  0  0  0  0  0  0
   57.6630   24.5690   46.7960 C   0  0  0  0  0  0  0  0  0  0  0  0
   57.7410   23.5320   47.7190 O   0  0  0  0  0  0  0  0  0  0  0  0
   57.1840   25.8390   47.0830 C   0  0  0  0  0  0  0  0  0  0  0  0
   57.3050   26.5320   45.8960 C   0  0  0  0  0  0  0  0  0  0  0  0
   56.9970   27.8570   45.5960 C   0  0  0  0  0  0  0  0  0  0  0  0
   57.2450   28.3110   44.2830 C   0  0  0  0  0  0  0  0  0  0  0  0
   56.9230   29.9840   43.8390 S   0  0  0  0  0  0  0  0  0  0  0  0
   55.9930   30.6230   44.8330 O   0  0  0  0  0  0  0  0  0  0  0  0
   56.2760   30.0130   42.4830 O   0  0  0  0  0  0  0  0  0  0  0  0
   58.4160   30.8680   43.7840 N   0  0  0  0  0  0  0  0  0  0  0  0
   58.1410   32.3060   43.7540 C   0  0  0  0  0  0  0  0  0  0  0  0
   58.5050   32.9170   45.0760 C   0  0  0  0  0  0  0  0  0  0  0  0
   58.2230   32.2350   46.2710 C   0  0  0  0  0  0  0  0  0  0  0  0
   58.5930   32.7850   47.5020 C   0  0  0  0  0  0  0  0  0  0  0  0
   59.2490   34.0240   47.5550 C   0  0  0  0  0  0  0  0  0  0  0  0
   59.6830   34.5930   48.8730 C   0  0  0  0  0  0  0  0  0  0  0  0
   59.5620   34.6900   46.3590 C   0  0  0  0  0  0  0  0  0  0  0  0
   59.1910   34.1410   45.1280 C   0  0  0  0  0  0  0  0  0  0  0  0
   57.7890   27.4300   43.3190 C   0  0  0  0  0  0  0  0  0  0  0  0
   58.0880   26.0980   43.6530 C   0  0  0  0  0  0  0  0  0  0  0  0
   57.8360   25.6780   44.9610 C   0  0  0  0  0  0  0  0  0  0  0  0
   55.8163   23.6056   44.0499 H   0  0  0  0  0  0  0  0  0  0  0  0
   56.6938   23.8008   42.4947 H   0  0  0  0  0  0  0  0  0  0  0  0
   54.9253   23.4863   42.4947 H   0  0  0  0  0  0  0  0  0  0  0  0
   57.6191   20.5188   43.3550 H   0  0  0  0  0  0  0  0  0  0  0  0
   58.1498   22.1137   42.7067 H   0  0  0  0  0  0  0  0  0  0  0  0
   56.7075   22.4459   45.2245 H   0  0  0  0  0  0  0  0  0  0  0  0
   58.0995   21.2896   45.4002 H   0  0  0  0  0  0  0  0  0  0  0  0
   59.5480   22.9846   45.4384 H   0  0  0  0  0  0  0  0  0  0  0  0
   58.9359   23.5578   43.8347 H   0  0  0  0  0  0  0  0  0  0  0  0
   56.7947   26.2105   48.0424 H   0  0  0  0  0  0  0  0  0  0  0  0
   56.5740   28.5280   46.3582 H   0  0  0  0  0  0  0  0  0  0  0  0
   58.8920   30.6090   42.8880 H   0  0  0  0  0  0  0  0  0  0  0  0
   58.7365   32.7759   42.9574 H   0  0  0  0  0  0  0  0  0  0  0  0
   57.0707   32.4688   43.5591 H   0  0  0  0  0  0  0  0  0  0  0  0
   57.7085   31.2633   46.2382 H   0  0  0  0  0  0  0  0  0  0  0  0
   58.3688   32.2439   48.4331 H   0  0  0  0  0  0  0  0  0  0  0  0
   59.2364   34.0074   49.6901 H   0  0  0  0  0  0  0  0  0  0  0  0
   60.7796   34.5498   48.9478 H   0  0  0  0  0  0  0  0  0  0  0  0
   59.3513   35.6391   48.9478 H   0  0  0  0  0  0  0  0  0  0  0  0
   60.1016   35.6480   46.3909 H   0  0  0  0  0  0  0  0  0  0  0  0
   59.4377   34.6704   44.1958 H   0  0  0  0  0  0  0  0  0  0  0  0
   57.9799   27.7912   42.2977 H   0  0  0  0  0  0  0  0  0  0  0  0
   58.5078   25.4072   42.9069 H   0  0  0  0  0  0  0  0  0  0  0  0
  1  2  1  0
  2  3  1  0
  3  4  1  0
  4  5  1  0
  5  6  1  0
  6  7  1  0
  7  8  1  0
  7  9  2  0
  9 10  1  0
 10 11  2  0
 11 12  1  0
 12 13  1  0
 13 14  2  0
 13 15  2  0
 13 16  1  0
 16 17  1  0
 17 18  1  0
 18 19  2  0
 19 20  1  0
 20 21  2  0
 21 22  1  0
 21 23  1  0
 23 24  2  0
 12 25  2  0
 25 26  1  0
 26 27  2  0
 27  6  1  0
 27 10  1  0
 24 18  1  0
  1 28  1  0
  1 29  1  0
  1 30  1  0
  3 31  1  0
  3 32  1  0
  4 33  1  0
  4 34  1  0
  5 35  1  0
  5 36  1  0
  9 37  1  0
 11 38  1  0
 16 39  1  0
 17 40  1  0
 17 41  1  0
 19 42  1  0
 20 43  1  0
 22 44  1  0
 22 45  1  0
 22 46  1  0
 23 47  1  0
 24 48  1  0
 25 49  1  0
 26 50  1  0
M  CHG  1   8  -1
M  END
>  <UniqueID>  (17) 
15

>  <SMILES>  (17) 
COCCCn1c([O-])cc2cc(S(=O)(=O)NCc3ccc(C)cc3)ccc21

>  <Energy>  (17) 
79.22822803108983

>  <Genealogy>  (17) 
COCCCn1c([O-])cc2cc(S(=O)(=O)NCc3ccc(C)cc3)ccc21 (protonated)
COCCCn1c([O-])cc2cc(S(=O)(=O)NCc3ccc(C)cc3)ccc21 (3D coordinates assigned)
COCCCn1c([O-])cc2cc(S(=O)(=O)NCc3ccc(C)cc3)ccc21 (optimized conformer: 79.22822803108983 kcal/mol)

>  <smiles>  (17) 
COCCCn1c(O)cc2cc(S(=O)(=O)NCc3ccc(C)cc3)ccc21

>  <score_type>  (17) 
oracle

>  <origin>  (17) 
adg

>  <m_score__min__energy>  (17) 
-11.1

>  <m_primary>  (17) 
energy

$$$$
17:0
     RDKit          3D

 52 55  0  0  0  0  0  0  0  0999 V2000
   62.4240   32.6590   48.4220 C   0  0  0  0  0  0  0  0  0  0  0  0
   61.0810   32.1670   48.1200 N   0  0  0  0  0  0  0  0  0  0  0  0
   60.8240   30.7540   48.0270 C   0  0  0  0  0  0  0  0  0  0  0  0
   60.7700   30.1170   46.7740 C   0  0  0  0  0  0  0  0  0  0  0  0
   60.5090   28.7470   46.6890 C   0  0  0  0  0  0  0  0  0  0  0  0
   60.2900   27.9990   47.8510 C   0  0  0  0  0  0  0  0  0  0  0  0
   60.3280   28.6250   49.0990 C   0  0  0  0  0  0  0  0  0  0  0  0
   60.5940   29.9960   49.1900 C   0  0  0  0  0  0  0  0  0  0  0  0
   59.7680   33.3070   48.0720 S   0  0  0  0  0  0  0  0  0  0  0  0
   58.9070   33.1290   49.2910 O   0  0  0  0  0  0  0  0  0  0  0  0
   60.2920   34.7160   48.0540 O   0  0  0  0  0  0  0  0  0  0  0  0
   58.8340   33.0400   46.6030 C   0  0  0  0  0  0  0  0  0  0  0  0
   58.8220   34.0230   45.6050 C   0  0  0  0  0  0  0  0  0  0  0  0
   58.0960   33.8180   44.4290 C   0  0  0  0  0  0  0  0  0  0  0  0
   57.3940   32.6260   44.2380 C   0  0  0  0  0  0  0  0  0  0  0  0
   57.4360   31.6180   45.2130 C   0  0  0  0  0  0  0  0  0  0  0  0
   56.7040   30.3960   45.0510 N   0  0  0  0  0  0  0  0  0  0  0  0
   57.2590   29.0740   45.0030 C   0  0  0  0  0  0  0  0  0  0  0  0
   57.5140   28.5690   43.8770 O   0  0  0  0  0  0  0  0  0  0  0  0
   57.3660   28.2170   46.2380 C   0  0  0  0  0  0  0  0  0  0  0  0
   57.1900   26.8010   45.9080 N   0  0  0  0  0  0  0  0  0  0  0  0
   58.1570   25.9090   45.5980 C   0  0  0  0  0  0  0  0  0  0  0  0
   59.5170   26.1970   45.5930 O   0  0  0  0  0  0  0  0  0  0  0  0
   57.6010   24.6830   45.2940 C   0  0  0  0  0  0  0  0  0  0  0  0
   56.2420   24.8270   45.4160 C   0  0  0  0  0  0  0  0  0  0  0  0
   56.0180   26.1380   45.7890 C   0  0  0  0  0  0  0  0  0  0  0  0
   54.7700   26.7080   46.0090 O   0  0  0  0  0  0  0  0  0  0  0  0
   55.2550   23.7330   45.1650 C   0  0  0  0  0  0  0  0  0  0  0  0
   55.9380   22.4500   44.7370 C   0  0  0  0  0  0  0  0  0  0  0  0
   57.2780   22.3030   44.6280 C   0  0  0  0  0  0  0  0  0  0  0  0
   58.2780   23.4110   44.8930 C   0  0  0  0  0  0  0  0  0  0  0  0
   58.1360   31.8400   46.4050 C   0  0  0  0  0  0  0  0  0  0  0  0
   62.5597   32.7087   49.5125 H   0  0  0  0  0  0  0  0  0  0  0  0
   63.1704   31.9759   47.9904 H   0  0  0  0  0  0  0  0  0  0  0  0
   62.5525   33.6626   47.9904 H   0  0  0  0  0  0  0  0  0  0  0  0
   60.9341   30.7006   45.8561 H   0  0  0  0  0  0  0  0  0  0  0  0
   60.4756   28.2551   45.7057 H   0  0  0  0  0  0  0  0  0  0  0  0
   60.0883   26.9199   47.7818 H   0  0  0  0  0  0  0  0  0  0  0  0
   60.1484   28.0391   50.0125 H   0  0  0  0  0  0  0  0  0  0  0  0
   60.6234   30.4835   50.1756 H   0  0  0  0  0  0  0  0  0  0  0  0
   59.3848   34.9573   45.7474 H   0  0  0  0  0  0  0  0  0  0  0  0
   58.0773   34.5968   43.6524 H   0  0  0  0  0  0  0  0  0  0  0  0
   56.8063   32.4769   43.3202 H   0  0  0  0  0  0  0  0  0  0  0  0
   58.3579   28.3606   46.6913 H   0  0  0  0  0  0  0  0  0  0  0  0
   56.5752   28.5148   46.9422 H   0  0  0  0  0  0  0  0  0  0  0  0
   54.6890   23.5445   46.0892 H   0  0  0  0  0  0  0  0  0  0  0  0
   54.5868   24.0536   44.3522 H   0  0  0  0  0  0  0  0  0  0  0  0
   55.3037   21.5831   44.4999 H   0  0  0  0  0  0  0  0  0  0  0  0
   57.6663   21.3184   44.3285 H   0  0  0  0  0  0  0  0  0  0  0  0
   58.9530   23.0959   45.7024 H   0  0  0  0  0  0  0  0  0  0  0  0
   58.8367   23.5980   43.9641 H   0  0  0  0  0  0  0  0  0  0  0  0
   58.1385   31.0694   47.1900 H   0  0  0  0  0  0  0  0  0  0  0  0
  1  2  1  0
  2  3  1  0
  3  4  2  0
  4  5  1  0
  5  6  2  0
  6  7  1  0
  7  8  2  0
  2  9  1  0
  9 10  2  0
  9 11  2  0
  9 12  1  0
 12 13  2  0
 13 14  1  0
 14 15  2  0
 15 16  1  0
 16 17  1  0
 17 18  1  0
 18 19  2  0
 18 20  1  0
 20 21  1  0
 21 22  1  0
 22 23  1  0
 22 24  2  0
 24 25  1  0
 25 26  2  0
 26 27  1  0
 25 28  1  0
 28 29  1  0
 29 30  2  0
 30 31  1  0
 16 32  2  0
  8  3  1  0
 32 12  1  0
 26 21  1  0
 31 24  1  0
  1 33  1  0
  1 34  1  0
  1 35  1  0
  4 36  1  0
  5 37  1  0
  6 38  1  0
  7 39  1  0
  8 40  1  0
 13 41  1  0
 14 42  1  0
 15 43  1  0
 20 44  1  0
 20 45  1  0
 28 46  1  0
 28 47  1  0
 29 48  1  0
 30 49  1  0
 31 50  1  0
 31 51  1  0
 32 52  1  0
M  CHG  3  17  -1  23  -1  27  -1
M  END
>  <UniqueID>  (18) 
16

>  <SMILES>  (18) 
CN(c1ccccc1)S(=O)(=O)c1cccc([N-]C(=O)Cn2c([O-])c3c(c2[O-])CC=CC3)c1

>  <Energy>  (18) 
98.48989895081482

>  <Genealogy>  (18) 
CN(c1ccccc1)S(=O)(=O)c1cccc([N-]C(=O)Cn2c([O-])c3c(c2[O-])CC=CC3)c1 (protonated)
CN(c1ccccc1)S(=O)(=O)c1cccc([N-]C(=O)Cn2c([O-])c3c(c2[O-])CC=CC3)c1 (3D coordinates assigned)
CN(c1ccccc1)S(=O)(=O)c1cccc([N-]C(=O)Cn2c([O-])c3c(c2[O-])CC=CC3)c1 (nonaromatic ring conformer: 98.48989895081482 kcal/mol)

>  <smiles>  (18) 
CN(c1ccccc1)S(=O)(=O)c1cccc(NC(=O)Cn2c(O)c3c(c2O)CC=CC3)c1

>  <score_type>  (18) 
oracle

>  <origin>  (18) 
adg

>  <m_score__min__energy>  (18) 
-15.74

>  <m_primary>  (18) 
energy

$$$$
18:0
     RDKit          3D

 44 46  0  0  0  0  0  0  0  0999 V2000
   61.7420   32.3680   48.2930 O   0  0  0  0  0  0  0  0  0  0  0  0
   60.9750   33.3020   47.9370 C   0  0  0  0  0  0  0  0  0  0  0  0
   61.1270   33.8840   46.5580 C   0  0  0  0  0  0  0  0  0  0  0  0
   59.6590   34.8630   46.0800 S   0  0  0  0  0  0  0  0  0  0  0  0
   58.7270   33.4540   45.4820 C   0  0  0  0  0  0  0  0  0  0  0  0
   58.1590   33.4770   44.2060 C   0  0  0  0  0  0  0  0  0  0  0  0
   57.4400   32.3670   43.7560 C   0  0  0  0  0  0  0  0  0  0  0  0
   57.2850   31.2420   44.5860 C   0  0  0  0  0  0  0  0  0  0  0  0
   56.5250   30.0580   44.1240 C   0  0  0  0  0  0  0  0  0  0  0  0
   56.3330   29.8730   42.8900 O   0  0  0  0  0  0  0  0  0  0  0  0
   56.0490   29.0930   45.0730 N   0  0  0  0  0  0  0  0  0  0  0  0
   56.7910   27.9650   45.5590 C   0  0  0  0  0  0  0  0  0  0  0  0
   58.1860   28.0710   45.6530 C   0  0  0  0  0  0  0  0  0  0  0  0
   58.9480   26.9980   46.1280 C   0  0  0  0  0  0  0  0  0  0  0  0
   60.6950   27.1350   46.2200 Cl  0  0  0  0  0  0  0  0  0  0  0  0
   58.3170   25.8160   46.5270 C   0  0  0  0  0  0  0  0  0  0  0  0
   56.9250   25.7140   46.4700 C   0  0  0  0  0  0  0  0  0  0  0  0
   56.1560   26.7860   46.0020 C   0  0  0  0  0  0  0  0  0  0  0  0
   54.7700   26.6810   46.0140 O   0  0  0  0  0  0  0  0  0  0  0  0
   57.8720   31.2690   45.8630 C   0  0  0  0  0  0  0  0  0  0  0  0
   58.5710   32.3610   46.2750 N   0  0  0  0  0  0  0  0  0  0  0  0
   59.9430   33.7280   48.8390 N   0  0  0  0  0  0  0  0  0  0  0  0
   59.2770   32.9030   49.8040 C   0  0  0  0  0  0  0  0  0  0  0  0
   58.9000   33.4230   51.0510 C   0  0  0  0  0  0  0  0  0  0  0  0
   58.2700   32.6100   51.9950 C   0  0  0  0  0  0  0  0  0  0  0  0
   58.0180   31.2560   51.7180 C   0  0  0  0  0  0  0  0  0  0  0  0
   57.3630   30.4220   52.6920 N   0  0  0  0  0  0  0  0  0  0  0  0
   57.5020   30.6390   53.9140 O   0  0  0  0  0  0  0  0  0  0  0  0
   56.5820   29.3610   52.2920 O   0  0  0  0  0  0  0  0  0  0  0  0
   58.4260   30.7280   50.4790 C   0  0  0  0  0  0  0  0  0  0  0  0
   59.0590   31.5400   49.5290 C   0  0  0  0  0  0  0  0  0  0  0  0
   59.4520   30.9720   48.3160 O   0  0  0  0  0  0  0  0  0  0  0  0
   62.0128   34.5359   46.5406 H   0  0  0  0  0  0  0  0  0  0  0  0
   61.2374   33.0552   45.8433 H   0  0  0  0  0  0  0  0  0  0  0  0
   58.2768   34.3607   43.5617 H   0  0  0  0  0  0  0  0  0  0  0  0
   56.9941   32.3728   42.7504 H   0  0  0  0  0  0  0  0  0  0  0  0
   58.6846   29.0039   45.3513 H   0  0  0  0  0  0  0  0  0  0  0  0
   58.9166   24.9664   46.8858 H   0  0  0  0  0  0  0  0  0  0  0  0
   56.4306   24.7865   46.7945 H   0  0  0  0  0  0  0  0  0  0  0  0
   57.7656   30.4028   46.5326 H   0  0  0  0  0  0  0  0  0  0  0  0
   59.1021   34.4783   51.2866 H   0  0  0  0  0  0  0  0  0  0  0  0
   57.9682   33.0334   52.9644 H   0  0  0  0  0  0  0  0  0  0  0  0
   58.2460   29.6664   50.2541 H   0  0  0  0  0  0  0  0  0  0  0  0
   59.8980   31.5120   47.5840 H   0  0  0  0  0  0  0  0  0  0  0  0
  1  2  2  0
  2  3  1  0
  3  4  1  0
  4  5  1  0
  5  6  2  0
  6  7  1  0
  7  8  2  0
  8  9  1  0
  9 10  2  0
  9 11  1  0
 11 12  1  0
 12 13  2  0
 13 14  1  0
 14 15  1  0
 14 16  2  0
 16 17  1  0
 17 18  2  0
 18 19  1  0
  8 20  1  0
 20 21  2  0
  2 22  1  0
 22 23  1  0
 23 24  2  0
 24 25  1  0
 25 26  2  0
 26 27  1  0
 27 28  2  0
 27 29  1  0
 26 30  1  0
 30 31  2  0
 31 32  1  0
 21  5  1  0
 31 23  1  0
 18 12  1  0
  3 33  1  0
  3 34  1  0
  6 35  1  0
  7 36  1  0
 13 37  1  0
 16 38  1  0
 17 39  1  0
 20 40  1  0
 24 41  1  0
 25 42  1  0
 30 43  1  0
 32 44  1  0
M  CHG  5  11  -1  19  -1  22  -1  27   1  29  -1
M  END
>  <UniqueID>  (19) 
17

>  <SMILES>  (19) 
O=C(CSc1ccc(C(=O)[N-]c2cc(Cl)ccc2[O-])cn1)[N-]c1ccc([N+](=O)[O-])cc1O

>  <Energy>  (19) 
56.32711564682172

>  <Genealogy>  (19) 
O=C(CSc1ccc(C(=O)[N-]c2cc(Cl)ccc2[O-])cn1)[N-]c1ccc([N+](=O)[O-])cc1O (protonated)
O=C(CSc1ccc(C(=O)[N-]c2cc(Cl)ccc2[O-])cn1)[N-]c1ccc([N+](=O)[O-])cc1O (3D coordinates assigned)
O=C(CSc1ccc(C(=O)[N-]c2cc(Cl)ccc2[O-])cn1)[N-]c1ccc([N+](=O)[O-])cc1O (optimized conformer: 56.32711564682172 kcal/mol)

>  <smiles>  (19) 
O=C(CSc1ccc(C(=O)Nc2cc(Cl)ccc2O)cn1)Nc1ccc([N+](=O)[O-])cc1O

>  <score_type>  (19) 
oracle

>  <origin>  (19) 
adg

>  <m_score__min__energy>  (19) 
-15.18

>  <m_primary>  (19) 
energy

$$$$
19:0
     RDKit          3D

 40 42  0  0  0  0  0  0  0  0999 V2000
   59.2520   35.3570   47.4750 N   0  0  0  0  0  0  0  0  0  0  0  0
   58.8450   34.2410   46.6730 C   0  0  0  0  0  0  0  0  0  0  0  0
   57.9010   34.4350   45.6520 C   0  0  0  0  0  0  0  0  0  0  0  0
   57.4880   33.3620   44.8590 C   0  0  0  0  0  0  0  0  0  0  0  0
   58.0200   32.0900   45.0710 C   0  0  0  0  0  0  0  0  0  0  0  0
   58.9620   31.8850   46.0820 C   0  0  0  0  0  0  0  0  0  0  0  0
   59.3690   32.9530   46.9050 C   0  0  0  0  0  0  0  0  0  0  0  0
   60.3480   32.7570   47.9370 N   0  0  0  0  0  0  0  0  0  0  0  0
   60.2150   33.1340   49.3150 C   0  0  0  0  0  0  0  0  0  0  0  0
   60.9690   34.0360   49.7670 O   0  0  0  0  0  0  0  0  0  0  0  0
   59.1880   32.5340   50.1980 C   0  0  0  0  0  0  0  0  0  0  0  0
   58.7320   31.2220   49.9860 C   0  0  0  0  0  0  0  0  0  0  0  0
   57.7610   30.6650   50.8230 C   0  0  0  0  0  0  0  0  0  0  0  0
   57.2310   31.4100   51.8870 C   0  0  0  0  0  0  0  0  0  0  0  0
   56.1630   30.8220   52.7640 C   0  0  0  0  0  0  0  0  0  0  0  0
   55.3160   29.9440   51.9660 N   0  0  0  0  0  0  0  0  0  0  0  0
   53.9440   29.6460   52.2480 C   0  0  0  0  0  0  0  0  0  0  0  0
   53.6750   28.6190   52.9240 O   0  0  0  0  0  0  0  0  0  0  0  0
   52.8760   30.5080   51.8190 N   0  0  0  0  0  0  0  0  0  0  0  0
   52.2910   31.5010   52.5130 C   0  0  0  0  0  0  0  0  0  0  0  0
   51.3850   32.1090   51.6760 C   0  0  0  0  0  0  0  0  0  0  0  0
   50.5780   33.1860   52.0160 O   0  0  0  0  0  0  0  0  0  0  0  0
   51.3890   31.5320   50.4570 N   0  0  0  0  0  0  0  0  0  0  0  0
   52.3220   30.5660   50.5880 C   0  0  0  0  0  0  0  0  0  0  0  0
   52.6360   29.7910   49.6460 O   0  0  0  0  0  0  0  0  0  0  0  0
   57.6600   32.7310   52.0820 C   0  0  0  0  0  0  0  0  0  0  0  0
   58.6310   33.2880   51.2450 C   0  0  0  0  0  0  0  0  0  0  0  0
   59.9220   35.2280   48.2670 H   0  0  0  0  0  0  0  0  0  0  0  0
   58.8960   36.3210   47.2920 H   0  0  0  0  0  0  0  0  0  0  0  0
   57.4843   35.4376   45.4756 H   0  0  0  0  0  0  0  0  0  0  0  0
   56.7421   33.5202   44.0661 H   0  0  0  0  0  0  0  0  0  0  0  0
   57.6974   31.2476   44.4415 H   0  0  0  0  0  0  0  0  0  0  0  0
   59.3887   30.8829   46.2363 H   0  0  0  0  0  0  0  0  0  0  0  0
   59.1421   30.6289   49.1553 H   0  0  0  0  0  0  0  0  0  0  0  0
   57.4107   29.6373   50.6465 H   0  0  0  0  0  0  0  0  0  0  0  0
   56.6301   30.2446   53.5754 H   0  0  0  0  0  0  0  0  0  0  0  0
   55.5540   31.6297   53.1962 H   0  0  0  0  0  0  0  0  0  0  0  0
   52.4991   31.7759   53.5576 H   0  0  0  0  0  0  0  0  0  0  0  0
   57.2303   33.3314   52.8974 H   0  0  0  0  0  0  0  0  0  0  0  0
   58.9617   34.3245   51.4071 H   0  0  0  0  0  0  0  0  0  0  0  0
  1  2  1  0
  2  3  2  0
  3  4  1  0
  4  5  2  0
  5  6  1  0
  6  7  2  0
  7  8  1  0
  8  9  1  0
  9 10  2  0
  9 11  1  0
 11 12  2  0
 12 13  1  0
 13 14  2  0
 14 15  1  0
 15 16  1  0
 16 17  1  0
 17 18  2  0
 17 19  1  0
 19 20  1  0
 20 21  2  0
 21 22  1  0
 21 23  1  0
 23 24  1  0
 24 25  2  0
 14 26  1  0
 26 27  2  0
  7  2  1  0
 27 11  1  0
 24 19  1  0
  1 28  1  0
  1 29  1  0
  3 30  1  0
  4 31  1  0
  5 32  1  0
  6 33  1  0
 12 34  1  0
 13 35  1  0
 15 36  1  0
 15 37  1  0
 20 38  1  0
 26 39  1  0
 27 40  1  0
M  CHG  4   8  -1  16  -1  22  -1  23  -1
M  END
>  <UniqueID>  (20) 
18

>  <SMILES>  (20) 
Nc1ccccc1[N-]C(=O)c1ccc(C[N-]C(=O)n2cc([O-])[n-]c2=O)cc1

>  <Energy>  (20) 
83.48720443101422

>  <Genealogy>  (20) 
Nc1ccccc1[N-]C(=O)c1ccc(C[N-]C(=O)n2cc([O-])[n-]c2=O)cc1 (protonated)
Nc1ccccc1[N-]C(=O)c1ccc(C[N-]C(=O)n2cc([O-])[n-]c2=O)cc1 (3D coordinates assigned)
Nc1ccccc1[N-]C(=O)c1ccc(C[N-]C(=O)n2cc([O-])[n-]c2=O)cc1 (optimized conformer: 83.48720443101422 kcal/mol)

>  <smiles>  (20) 
Nc1ccccc1NC(=O)c1ccc(CNC(=O)n2cc(O)[nH]c2=O)cc1

>  <score_type>  (20) 
oracle

>  <origin>  (20) 
adg

>  <m_score__min__energy>  (20) 
-15.289999999999999

>  <m_primary>  (20) 
energy

$$$$
20:0
     RDKit          3D

 55 58  0  0  0  0  0  0  0  0999 V2000
   64.6860   31.2417   51.8112 H   0  0  0  0  0  0  0  0  0  0  0  0
   63.9270   31.2020   51.0160 C   0  0  0  0  0  0  0  0  0  0  0  0
   64.0590   31.9840   49.9130 N   0  0  0  0  0  0  0  0  0  0  0  0
   63.1460   31.9800   48.9030 C   0  0  0  0  0  0  0  0  0  0  0  0
   63.3610   32.7600   47.8800 N   0  0  0  0  0  0  0  0  0  0  0  0
   62.4440   33.6480   47.2190 C   0  0  0  0  0  0  0  0  0  0  0  0
   62.5530   33.8970   45.9870 O   0  0  0  0  0  0  0  0  0  0  0  0
   61.2700   34.1830   47.9760 C   0  0  0  0  0  0  0  0  0  0  0  0
   61.1798   33.6462   48.9319 H   0  0  0  0  0  0  0  0  0  0  0  0
   61.4223   35.2569   48.1589 H   0  0  0  0  0  0  0  0  0  0  0  0
   60.0050   33.9970   47.1810 C   0  0  0  0  0  0  0  0  0  0  0  0
   58.9890   33.1510   47.6570 C   0  0  0  0  0  0  0  0  0  0  0  0
   59.1256   32.6080   48.6038 H   0  0  0  0  0  0  0  0  0  0  0  0
   57.8040   32.9980   46.9290 C   0  0  0  0  0  0  0  0  0  0  0  0
   57.0140   32.3292   47.3014 H   0  0  0  0  0  0  0  0  0  0  0  0
   57.6210   33.6930   45.7290 C   0  0  0  0  0  0  0  0  0  0  0  0
   56.6897   33.5676   45.1572 H   0  0  0  0  0  0  0  0  0  0  0  0
   58.6230   34.5480   45.2560 C   0  0  0  0  0  0  0  0  0  0  0  0
   58.4779   35.0973   44.3141 H   0  0  0  0  0  0  0  0  0  0  0  0
   59.8090   34.7040   45.9810 C   0  0  0  0  0  0  0  0  0  0  0  0
   60.5918   35.3825   45.6110 H   0  0  0  0  0  0  0  0  0  0  0  0
   62.0370   31.1120   48.9890 C   0  0  0  0  0  0  0  0  0  0  0  0
   61.3043   31.0702   48.1696 H   0  0  0  0  0  0  0  0  0  0  0  0
   61.8720   30.3050   50.1190 C   0  0  0  0  0  0  0  0  0  0  0  0
   60.7770   29.4300   50.1700 O   0  0  0  0  0  0  0  0  0  0  0  0
   60.0390   28.9880   49.0620 C   0  0  0  0  0  0  0  0  0  0  0  0
   59.2550   29.9150   48.3650 C   0  0  0  0  0  0  0  0  0  0  0  0
   59.2385   30.9674   48.6848 H   0  0  0  0  0  0  0  0  0  0  0  0
   58.4930   29.5110   47.2650 C   0  0  0  0  0  0  0  0  0  0  0  0
   57.9007   30.2522   46.7085 H   0  0  0  0  0  0  0  0  0  0  0  0
   58.4790   28.1680   46.8670 C   0  0  0  0  0  0  0  0  0  0  0  0
   57.7040   27.7990   45.7180 N   0  0  0  0  0  0  0  0  0  0  0  0
   56.2740   27.8210   45.6190 C   0  0  0  0  0  0  0  0  0  0  0  0
   55.6860   28.8120   45.1090 O   0  0  0  0  0  0  0  0  0  0  0  0
   55.5030   26.6770   46.0020 N   0  0  0  0  0  0  0  0  0  0  0  0
   55.9780   25.3240   46.0670 C   0  0  0  0  0  0  0  0  0  0  0  0
   56.4890   24.8480   47.2800 C   0  0  0  0  0  0  0  0  0  0  0  0
   56.4915   25.4997   48.1661 H   0  0  0  0  0  0  0  0  0  0  0  0
   56.9960   23.5490   47.3710 C   0  0  0  0  0  0  0  0  0  0  0  0
   57.3950   23.1822   48.3282 H   0  0  0  0  0  0  0  0  0  0  0  0
   56.9980   22.7140   46.2500 C   0  0  0  0  0  0  0  0  0  0  0  0
   57.4037   21.6945   46.3275 H   0  0  0  0  0  0  0  0  0  0  0  0
   56.4840   23.1710   45.0240 C   0  0  0  0  0  0  0  0  0  0  0  0
   56.5320   22.2990   43.7950 C   0  0  0  0  0  0  0  0  0  0  0  0
   57.8450   22.0430   43.4380 F   0  0  0  0  0  0  0  0  0  0  0  0
   55.9040   22.9160   42.7250 F   0  0  0  0  0  0  0  0  0  0  0  0
   55.8970   21.1010   44.0590 F   0  0  0  0  0  0  0  0  0  0  0  0
   56.0050   24.4910   44.9330 C   0  0  0  0  0  0  0  0  0  0  0  0
   55.6482   24.8755   43.9661 H   0  0  0  0  0  0  0  0  0  0  0  0
   59.2660   27.2350   47.5650 C   0  0  0  0  0  0  0  0  0  0  0  0
   59.2782   26.1819   47.2475 H   0  0  0  0  0  0  0  0  0  0  0  0
   60.0330   27.6410   48.6610 C   0  0  0  0  0  0  0  0  0  0  0  0
   60.6345   26.9030   49.2119 H   0  0  0  0  0  0  0  0  0  0  0  0
   62.8310   30.3490   51.1420 C   0  0  0  0  0  0  0  0  0  0  0  0
   62.7195   29.7166   52.0351 H   0  0  0  0  0  0  0  0  0  0  0  0
  1  2  1  0
  2  3  1  0
  3  4  1  0
  4  5  2  0
  5  6  1  0
  6  7  2  0
  6  8  1  0
  8  9  1  0
  8 10  1  0
  8 11  1  0
 11 12  2  0
 12 13  1  0
 12 14  1  0
 14 15  1  0
 14 16  2  0
 16 17  1  0
 16 18  1  0
 18 19  1  0
 18 20  2  0
 20 21  1  0
  4 22  1  0
 22 23  1  0
 22 24  2  0
 24 25  1  0
 25 26  1  0
 26 27  2  0
 27 28  1  0
 27 29  1  0
 29 30  1  0
 29 31  2  0
 31 32  1  0
 32 33  1  0
 33 34  2  0
 33 35  1  0
 35 36  1  0
 36 37  2  0
 37 38  1  0
 37 39  1  0
 39 40  1  0
 39 41  2  0
 41 42  1  0
 41 43  1  0
 43 44  1  0
 44 45  1  0
 44 46  1  0
 44 47  1  0
 43 48  2  0
 48 49  1  0
 31 50  1  0
 50 51  1  0
 50 52  2  0
 52 53  1  0
 24 54  1  0
 54 55  1  0
 54  2  2  0
 20 11  1  0
 52 26  1  0
 48 36  1  0
M  CHG  3   3  -1  32  -1  35  -1
M  END
>  <UniqueID>  (21) 
19

>  <SMILES>  (21) 
O=C(Cc1ccccc1)/N=c1\cc(Oc2ccc([N-]C(=O)[N-]c3cccc(C(F)(F)F)c3)cc2)cc[n-]1

>  <Energy>  (21) 
79.91813477161146

>  <Genealogy>  (21) 
O=C(Cc1ccccc1)N=c1cc(Oc2ccc([N-]C(=O)[N-]c3cccc(C(F)(F)F)c3)cc2)cc[n-]1 (protonated)
O=C(Cc1ccccc1)/N=c1\cc(Oc2ccc([N-]C(=O)[N-]c3cccc(C(F)(F)F)c3)cc2)cc[n-]1 (cis-trans isomerization)
O=C(Cc1ccccc1)/N=c1\cc(Oc2ccc([N-]C(=O)[N-]c3cccc(C(F)(F)F)c3)cc2)cc[n-]1 (3D coordinates assigned)
O=C(Cc1ccccc1)/N=c1\cc(Oc2ccc([N-]C(=O)[N-]c3cccc(C(F)(F)F)c3)cc2)cc[n-]1 (optimized conformer: 79.91813477161146 kcal/mol)

>  <smiles>  (21) 
O=C(Cc1ccccc1)N=c1cc(Oc2ccc(NC(=O)Nc3cccc(C(F)(F)F)c3)cc2)cc[nH]1

>  <score_type>  (21) 
oracle

>  <origin>  (21) 
adg

>  <m_score__min__energy>  (21) 
-13.199999999999999

>  <m_primary>  (21) 
energy

$$$$
21:0
     RDKit          3D

 29 29  0  0  0  0  0  0  0  0999 V2000
   58.3136   26.2561   46.6010 H   0  0  0  0  0  0  0  0  0  0  0  0
   57.5800   26.2900   45.7820 C   0  0  0  0  0  0  0  0  0  0  0  0
   57.6160   27.3450   44.9440 C   0  0  0  0  0  0  0  0  0  0  0  0
   57.9290   27.1750   43.5430 C   0  0  0  0  0  0  0  0  0  0  0  0
   58.1790   27.0400   42.4210 N   0  0  0  0  0  0  0  0  0  0  0  0
   57.3970   28.7200   45.4430 C   0  0  0  0  0  0  0  0  0  0  0  0
   58.2830   29.3000   46.1310 O   0  0  0  0  0  0  0  0  0  0  0  0
   56.1920   29.3730   45.1540 O   0  0  0  0  0  0  0  0  0  0  0  0
   55.9240   30.0180   43.9110 C   0  0  0  0  0  0  0  0  0  0  0  0
   54.8921   30.3990   43.9169 H   0  0  0  0  0  0  0  0  0  0  0  0
   56.0567   29.2889   43.0981 H   0  0  0  0  0  0  0  0  0  0  0  0
   56.8870   31.1820   43.6890 C   0  0  0  0  0  0  0  0  0  0  0  0
   56.5028   31.8302   42.8876 H   0  0  0  0  0  0  0  0  0  0  0  0
   57.8753   30.7954   43.3995 H   0  0  0  0  0  0  0  0  0  0  0  0
   56.9980   31.9240   44.8850 O   0  0  0  0  0  0  0  0  0  0  0  0
   57.8510   33.0260   44.6730 C   0  0  0  0  0  0  0  0  0  0  0  0
   58.1684   33.4360   45.6432 H   0  0  0  0  0  0  0  0  0  0  0  0
   58.7354   32.7012   44.1052 H   0  0  0  0  0  0  0  0  0  0  0  0
   57.3149   33.8007   44.1052 H   0  0  0  0  0  0  0  0  0  0  0  0
   56.6130   25.1730   45.6680 C   0  0  0  0  0  0  0  0  0  0  0  0
   55.2360   25.4250   45.7710 C   0  0  0  0  0  0  0  0  0  0  0  0
   54.7730   26.7150   46.0130 O   0  0  0  0  0  0  0  0  0  0  0  0
   54.3450   24.4050   45.6460 N   0  0  0  0  0  0  0  0  0  0  0  0
   53.3220   24.6040   45.7360 H   0  0  0  0  0  0  0  0  0  0  0  0
   54.7670   23.1350   45.4060 C   0  0  0  0  0  0  0  0  0  0  0  0
   53.9310   22.1990   45.2970 O   0  0  0  0  0  0  0  0  0  0  0  0
   56.0920   22.8710   45.2750 N   0  0  0  0  0  0  0  0  0  0  0  0
   57.0200   23.8550   45.3890 C   0  0  0  0  0  0  0  0  0  0  0  0
   58.2370   23.5770   45.2230 O   0  0  0  0  0  0  0  0  0  0  0  0
  1  2  1  0
  2  3  2  0
  3  4  1  0
  4  5  3  0
  3  6  1  0
  6  7  2  0
  6  8  1  0
  8  9  1  0
  9 10  1  0
  9 11  1  0
  9 12  1  0
 12 13  1  0
 12 14  1  0
 12 15  1  0
 15 16  1  0
 16 17  1  0
 16 18  1  0
 16 19  1  0
  2 20  1  0
 20 21  2  0
 21 22  1  0
 21 23  1  0
 23 24  1  0
 23 25  1  0
 25 26  2  0
 25 27  1  0
 27 28  1  0
 28 29  2  0
 28 20  1  0
M  CHG  2  22  -1  27  -1
M  END
>  <UniqueID>  (22) 
20

>  <SMILES>  (22) 
COCCOC(=O)/C(C#N)=C/c1c([O-])[nH]c(=O)[n-]c1=O

>  <Energy>  (22) 
32.75557875678774

>  <Genealogy>  (22) 
COCCOC(=O)C(C#N)=Cc1c([O-])[nH]c(=O)[n-]c1=O (protonated)
COCCOC(=O)/C(C#N)=C/c1c([O-])[nH]c(=O)[n-]c1=O (cis-trans isomerization)
COCCOC(=O)/C(C#N)=C/c1c([O-])[nH]c(=O)[n-]c1=O (3D coordinates assigned)
COCCOC(=O)/C(C#N)=C/c1c([O-])[nH]c(=O)[n-]c1=O (optimized conformer: 32.75557875678774 kcal/mol)

>  <smiles>  (22) 
COCCOC(=O)C(C#N)=Cc1c(O)[nH]c(=O)[nH]c1=O

>  <score_type>  (22) 
oracle

>  <origin>  (22) 
adg

>  <m_score__min__energy>  (22) 
-11.31

>  <m_primary>  (22) 
energy

$$$$
22:0
     RDKit          3D

 55 58  0  0  0  0  0  0  0  0999 V2000
   61.3370   28.6180   49.4250 O   0  0  0  0  0  0  0  0  0  0  0  0
   60.1040   28.5390   49.6650 C   0  0  0  0  0  0  0  0  0  0  0  0
   59.5770   28.9510   50.9320 N   0  0  0  0  0  0  0  0  0  0  0  0
   58.7670   29.9450   51.1550 C   0  0  0  0  0  0  0  0  0  0  0  0
   59.1960   31.2140   50.9170 N   0  0  0  0  0  0  0  0  0  0  0  0
   58.3870   32.2760   51.1380 C   0  0  0  0  0  0  0  0  0  0  0  0
   57.0920   32.0760   51.6190 C   0  0  0  0  0  0  0  0  0  0  0  0
   56.6640   30.7730   51.8590 C   0  0  0  0  0  0  0  0  0  0  0  0
   57.5050   29.7340   51.6270 N   0  0  0  0  0  0  0  0  0  0  0  0
   59.1730   27.9940   48.6170 C   0  0  2  0  0  0  0  0  0  0  0  0
   59.5850   26.5670   48.1830 C   0  0  0  0  0  0  0  0  0  0  0  0
   59.0810   26.1800   46.7760 C   0  0  0  0  0  0  0  0  0  0  0  0
   57.8570   26.9950   46.3460 C   0  0  0  0  0  0  0  0  0  0  0  0
   58.1520   28.4370   46.4010 N   0  0  0  0  0  0  0  0  0  0  0  0
   57.5450   29.3550   45.4670 C   0  0  0  0  0  0  0  0  0  0  0  0
   58.2110   30.5480   45.1290 C   0  0  0  0  0  0  0  0  0  0  0  0
   57.6100   31.4970   44.2880 C   0  0  0  0  0  0  0  0  0  0  0  0
   58.2280   32.7560   44.0090 N   0  0  0  0  0  0  0  0  0  0  0  0
   58.0490   34.1890   44.9720 S   0  0  0  0  0  0  0  0  0  0  0  0
   56.6660   34.7320   44.7640 O   0  0  0  0  0  0  0  0  0  0  0  0
   59.0600   35.2150   44.5340 O   0  0  0  0  0  0  0  0  0  0  0  0
   58.2780   33.8140   46.7060 C   0  0  0  0  0  0  0  0  0  0  0  0
   59.6640   33.3030   46.9840 C   0  0  0  0  0  0  0  0  0  0  0  0
   60.7840   34.0270   46.5380 C   0  0  0  0  0  0  0  0  0  0  0  0
   62.0740   33.5530   46.7940 C   0  0  0  0  0  0  0  0  0  0  0  0
   62.2560   32.3530   47.4920 C   0  0  0  0  0  0  0  0  0  0  0  0
   61.1460   31.6300   47.9430 C   0  0  0  0  0  0  0  0  0  0  0  0
   59.8540   32.1050   47.6950 C   0  0  0  0  0  0  0  0  0  0  0  0
   56.3660   31.2150   43.7160 C   0  0  0  0  0  0  0  0  0  0  0  0
   55.6980   30.0310   44.0320 C   0  0  0  0  0  0  0  0  0  0  0  0
   56.2650   29.1120   44.9200 C   0  0  0  0  0  0  0  0  0  0  0  0
   55.5330   27.9830   45.2730 O   0  0  0  0  0  0  0  0  0  0  0  0
   59.0880   28.9500   47.4160 C   0  0  0  0  0  0  0  0  0  0  0  0
   58.7494   33.2953   50.9389 H   0  0  0  0  0  0  0  0  0  0  0  0
   56.4237   32.9298   51.8045 H   0  0  0  0  0  0  0  0  0  0  0  0
   55.6474   30.5866   52.2355 H   0  0  0  0  0  0  0  0  0  0  0  0
   58.1684   27.9190   49.0587 H   0  0  0  0  0  0  0  0  0  0  0  0
   60.6833   26.5052   48.1883 H   0  0  0  0  0  0  0  0  0  0  0  0
   59.1235   25.8670   48.8951 H   0  0  0  0  0  0  0  0  0  0  0  0
   59.8910   26.3514   46.0517 H   0  0  0  0  0  0  0  0  0  0  0  0
   58.7833   25.1215   46.8073 H   0  0  0  0  0  0  0  0  0  0  0  0
   57.5828   26.7206   45.3167 H   0  0  0  0  0  0  0  0  0  0  0  0
   57.0250   26.7757   47.0313 H   0  0  0  0  0  0  0  0  0  0  0  0
   59.2173   30.7392   45.5300 H   0  0  0  0  0  0  0  0  0  0  0  0
   58.1102   34.7284   47.2940 H   0  0  0  0  0  0  0  0  0  0  0  0
   57.5598   33.0292   46.9857 H   0  0  0  0  0  0  0  0  0  0  0  0
   60.6447   34.9685   45.9864 H   0  0  0  0  0  0  0  0  0  0  0  0
   62.9477   34.1239   46.4464 H   0  0  0  0  0  0  0  0  0  0  0  0
   63.2719   31.9784   47.6859 H   0  0  0  0  0  0  0  0  0  0  0  0
   61.2896   30.6880   48.4926 H   0  0  0  0  0  0  0  0  0  0  0  0
   58.9832   31.5391   48.0576 H   0  0  0  0  0  0  0  0  0  0  0  0
   55.9116   31.9294   43.0138 H   0  0  0  0  0  0  0  0  0  0  0  0
   54.7182   29.8194   43.5790 H   0  0  0  0  0  0  0  0  0  0  0  0
   60.0865   29.0526   46.9660 H   0  0  0  0  0  0  0  0  0  0  0  0
   58.7234   29.9260   47.7689 H   0  0  0  0  0  0  0  0  0  0  0  0
  1  2  2  0
  2  3  1  0
  3  4  2  3
  4  5  1  0
  5  6  2  0
  6  7  1  0
  7  8  2  0
  8  9  1  0
  2 10  1  0
 10 11  1  0
 11 12  1  0
 12 13  1  0
 13 14  1  0
 14 15  1  0
 15 16  2  0
 16 17  1  0
 17 18  1  0
 18 19  1  0
 19 20  2  0
 19 21  2  0
 19 22  1  0
 22 23  1  0
 23 24  2  0
 24 25  1  0
 25 26  2  0
 26 27  1  0
 27 28  2  0
 17 29  2  0
 29 30  1  0
 30 31  2  0
 31 32  1  0
 14 33  1  0
  9  4  1  0
 33 10  1  0
 31 15  1  0
 28 23  1  0
  6 34  1  0
  7 35  1  0
  8 36  1  0
 10 37  1  1
 11 38  1  0
 11 39  1  0
 12 40  1  0
 12 41  1  0
 13 42  1  0
 13 43  1  0
 16 44  1  0
 22 45  1  0
 22 46  1  0
 24 47  1  0
 25 48  1  0
 26 49  1  0
 27 50  1  0
 28 51  1  0
 29 52  1  0
 30 53  1  0
 33 54  1  0
 33 55  1  0
M  CHG  3   9  -1  18  -1  32  -1
M  END
>  <UniqueID>  (23) 
21

>  <SMILES>  (23) 
O=C(N=c1nccc[n-]1)[C@@H]1CCCN(c2cc([N-]S(=O)(=O)Cc3ccccc3)ccc2[O-])C1

>  <Energy>  (23) 
68.38960047807488

>  <Genealogy>  (23) 
O=C(N=c1nccc[n-]1)C1CCCN(c2cc([N-]S(=O)(=O)Cc3ccccc3)ccc2[O-])C1 (protonated)
O=C(N=c1nccc[n-]1)[C@@H]1CCCN(c2cc([N-]S(=O)(=O)Cc3ccccc3)ccc2[O-])C1 (chirality)
O=C(N=c1nccc[n-]1)[C@@H]1CCCN(c2cc([N-]S(=O)(=O)Cc3ccccc3)ccc2[O-])C1 (3D coordinates assigned)
O=C(N=c1nccc[n-]1)[C@@H]1CCCN(c2cc([N-]S(=O)(=O)Cc3ccccc3)ccc2[O-])C1 (nonaromatic ring conformer: 68.38960047807488 kcal/mol)

>  <smiles>  (23) 
O=C(N=c1nccc[nH]1)C1CCCN(c2cc(NS(=O)(=O)Cc3ccccc3)ccc2O)C1

>  <score_type>  (23) 
oracle

>  <origin>  (23) 
adg

>  <m_score__min__energy>  (23) 
-14.869999999999999

>  <m_primary>  (23) 
energy

$$$$
23:0
     RDKit          3D

 66 71  0  0  0  0  0  0  0  0999 V2000
   57.7710   34.4890   46.3360 C   0  0  0  0  0  0  0  0  0  0  0  0
   58.4810   33.6400   45.2680 C   0  0  2  0  0  0  0  0  0  0  0  0
   58.0210   32.1620   45.2560 C   0  0  0  0  0  0  0  0  0  0  0  0
   59.0790   31.2010   45.6590 N   0  0  2  0  0  0  0  0  0  0  0  0
   58.5600   29.8480   45.9240 C   0  0  0  0  0  0  0  0  0  0  0  0
   59.4380   28.9090   46.5380 C   0  0  0  0  0  0  0  0  0  0  0  0
   59.0430   27.5810   46.8040 C   0  0  0  0  0  0  0  0  0  0  0  0
   57.7660   27.2000   46.4220 C   0  0  0  0  0  0  0  0  0  0  0  0
   56.9200   28.0580   45.7910 C   0  0  0  0  0  0  0  0  0  0  0  0
   55.7880   27.4400   45.5380 O   0  0  0  0  0  0  0  0  0  0  0  0
   55.9350   26.2180   46.0150 C   0  0  0  0  0  0  0  0  0  0  0  0
   55.0320   25.3420   45.9660 O   0  0  0  0  0  0  0  0  0  0  0  0
   57.1560   26.0090   46.5670 N   0  0  0  0  0  0  0  0  0  0  0  0
   57.6440   24.8160   47.2600 C   0  0  0  0  0  0  0  0  0  0  0  0
   57.9420   23.7040   46.2460 C   0  0  0  0  0  0  0  0  0  0  0  0
   56.7690   23.4210   45.3900 N   0  0  0  0  0  0  0  0  0  0  0  0
   57.0260   23.7820   43.9740 C   0  0  0  0  0  0  0  0  0  0  0  0
   56.1690   22.9390   43.0150 C   0  0  0  0  0  0  0  0  0  0  0  0
   56.4230   21.5430   43.1060 O   0  0  0  0  0  0  0  0  0  0  0  0
   56.8410   21.1230   44.3980 C   0  0  0  0  0  0  0  0  0  0  0  0
   56.3200   22.0150   45.5400 C   0  0  0  0  0  0  0  0  0  0  0  0
   57.2700   29.3710   45.4960 C   0  0  0  0  0  0  0  0  0  0  0  0
   56.3710   30.1120   44.8030 F   0  0  0  0  0  0  0  0  0  0  0  0
   60.8170   29.3500   46.8700 C   0  0  0  0  0  0  0  0  0  0  0  0
   60.7940   30.7260   47.5560 C   0  0  2  0  0  0  0  0  0  0  0  0
   62.2460   31.1550   47.7200 C   0  0  0  0  0  0  0  0  0  0  0  0
   63.0690   31.2550   46.7710 O   0  0  0  0  0  0  0  0  0  0  0  0
   62.6530   31.2990   49.0750 N   0  0  0  0  0  0  0  0  0  0  0  0
   61.4930   30.9350   49.7940 C   0  0  0  0  0  0  0  0  0  0  0  0
   61.4470   30.9250   51.0520 O   0  0  0  0  0  0  0  0  0  0  0  0
   60.3920   30.5800   48.9680 N   0  0  0  0  0  0  0  0  0  0  0  0
   59.0950   30.1480   49.4930 C   0  0  0  0  0  0  0  0  0  0  0  0
   59.8300   31.7720   46.8200 C   0  0  1  0  0  0  0  0  0  0  0  0
   60.5330   33.1040   46.3690 C   0  0  2  0  0  0  0  0  0  0  0  0
   60.8050   34.0720   47.5320 C   0  0  0  0  0  0  0  0  0  0  0  0
   59.8860   33.7920   45.3080 O   0  0  0  0  0  0  0  0  0  0  0  0
   58.0637   34.1390   47.3369 H   0  0  0  0  0  0  0  0  0  0  0  0
   58.0597   35.5438   46.2175 H   0  0  0  0  0  0  0  0  0  0  0  0
   56.6818   34.3914   46.2175 H   0  0  0  0  0  0  0  0  0  0  0  0
   58.1612   34.0418   44.2952 H   0  0  0  0  0  0  0  0  0  0  0  0
   57.1744   32.0568   45.9503 H   0  0  0  0  0  0  0  0  0  0  0  0
   57.7475   31.9203   44.2183 H   0  0  0  0  0  0  0  0  0  0  0  0
   59.7450   31.1090   44.8530 H   0  0  0  0  0  0  0  0  0  0  0  0
   59.7246   26.8725   47.2974 H   0  0  0  0  0  0  0  0  0  0  0  0
   58.5644   25.0646   47.8087 H   0  0  0  0  0  0  0  0  0  0  0  0
   56.8732   24.4664   47.9625 H   0  0  0  0  0  0  0  0  0  0  0  0
   58.7821   24.0173   45.6087 H   0  0  0  0  0  0  0  0  0  0  0  0
   58.1920   22.7884   46.8020 H   0  0  0  0  0  0  0  0  0  0  0  0
   56.7866   24.8455   43.8268 H   0  0  0  0  0  0  0  0  0  0  0  0
   58.0858   23.5860   43.7539 H   0  0  0  0  0  0  0  0  0  0  0  0
   55.1087   23.1160   43.2486 H   0  0  0  0  0  0  0  0  0  0  0  0
   56.4281   23.2491   41.9919 H   0  0  0  0  0  0  0  0  0  0  0  0
   56.4768   20.0985   44.5644 H   0  0  0  0  0  0  0  0  0  0  0  0
   57.9390   21.1876   44.4163 H   0  0  0  0  0  0  0  0  0  0  0  0
   55.2203   21.9903   45.5376 H   0  0  0  0  0  0  0  0  0  0  0  0
   56.7223   21.6270   46.4874 H   0  0  0  0  0  0  0  0  0  0  0  0
   61.2782   28.6160   47.5471 H   0  0  0  0  0  0  0  0  0  0  0  0
   61.3987   29.4270   45.9396 H   0  0  0  0  0  0  0  0  0  0  0  0
   59.1230   30.1573   50.5926 H   0  0  0  0  0  0  0  0  0  0  0  0
   58.3100   30.8332   49.1404 H   0  0  0  0  0  0  0  0  0  0  0  0
   58.8777   29.1290   49.1404 H   0  0  0  0  0  0  0  0  0  0  0  0
   59.1100   32.0189   47.6142 H   0  0  0  0  0  0  0  0  0  0  0  0
   61.4970   32.7496   45.9753 H   0  0  0  0  0  0  0  0  0  0  0  0
   60.6576   33.5476   48.4877 H   0  0  0  0  0  0  0  0  0  0  0  0
   61.8406   34.4375   47.4702 H   0  0  0  0  0  0  0  0  0  0  0  0
   60.1113   34.9235   47.4702 H   0  0  0  0  0  0  0  0  0  0  0  0
  1  2  1  0
  2  3  1  0
  3  4  1  0
  4  5  1  0
  5  6  2  0
  6  7  1  0
  7  8  2  0
  8  9  1  0
  9 10  1  0
 10 11  1  0
 11 12  2  0
 11 13  1  0
 13 14  1  0
 14 15  1  0
 15 16  1  0
 16 17  1  0
 17 18  1  0
 18 19  1  0
 19 20  1  0
 20 21  1  0
  9 22  2  0
 22 23  1  0
  6 24  1  0
 24 25  1  0
 25 26  1  0
 26 27  2  0
 26 28  1  0
 28 29  1  0
 29 30  2  0
 29 31  1  0
 31 32  1  0
 25 33  1  0
 33 34  1  0
 34 35  1  0
 34 36  1  0
 36  2  1  0
 33  4  1  0
 22  5  1  0
 25 31  1  1
 13  8  1  0
 21 16  1  0
  1 37  1  0
  1 38  1  0
  1 39  1  0
  2 40  1  6
  3 41  1  0
  3 42  1  0
  4 43  1  6
  7 44  1  0
 14 45  1  0
 14 46  1  0
 15 47  1  0
 15 48  1  0
 17 49  1  0
 17 50  1  0
 18 51  1  0
 18 52  1  0
 20 53  1  0
 20 54  1  0
 21 55  1  0
 21 56  1  0
 24 57  1  0
 24 58  1  0
 32 59  1  0
 32 60  1  0
 32 61  1  0
 33 62  1  1
 34 63  1  6
 35 64  1  0
 35 65  1  0
 35 66  1  0
M  CHG  2   4   1  28  -1
M  END
>  <UniqueID>  (24) 
22

>  <SMILES>  (24) 
CC1O[C@H](C)C[N@@H+]2c3c(cc4c(oc(=O)n4CCN4CCOCC4)c3F)CC3(C(=O)[N-]C(=O)N3C)C12

>  <Energy>  (24) 
180.58777416091786

>  <Genealogy>  (24) 
CC1C[NH+]2c3c(cc4c(oc(=O)n4CCN4CCOCC4)c3F)CC3(C(=O)[N-]C(=O)N3C)C2C(C)O1 (protonated)
CC1O[C@H](C)C[N@@H+]2c3c(cc4c(oc(=O)n4CCN4CCOCC4)c3F)CC3(C(=O)[N-]C(=O)N3C)C12 (chirality)
CC1O[C@H](C)C[N@@H+]2c3c(cc4c(oc(=O)n4CCN4CCOCC4)c3F)CC3(C(=O)[N-]C(=O)N3C)C12 (3D coordinates assigned)
CC1O[C@H](C)C[N@@H+]2c3c(cc4c(oc(=O)n4CCN4CCOCC4)c3F)CC3(C(=O)[N-]C(=O)N3C)C12 (nonaromatic ring conformer: 180.58777416091786 kcal/mol)

>  <smiles>  (24) 
CC1CN2c3c(cc4c(oc(=O)n4CCN4CCOCC4)c3F)CC3(C(=O)NC(=O)N3C)C2C(C)O1

>  <score_type>  (24) 
oracle

>  <origin>  (24) 
adg

>  <m_score__min__energy>  (24) 
-9.1600000000000001

>  <m_primary>  (24) 
energy

$$$$
24:0
     RDKit          3D

 61 64  0  0  0  0  0  0  0  0999 V2000
   54.6800   26.2290   45.8470 O   0  0  0  0  0  0  0  0  0  0  0  0
   55.9290   26.1960   46.0050 C   0  0  0  0  0  0  0  0  0  0  0  0
   56.7810   27.2590   45.3870 C   0  0  0  0  0  0  0  0  0  0  0  0
   56.1390   28.5680   45.5280 N   0  0  0  0  0  0  0  0  0  0  0  0
   56.5880   29.6220   44.2200 S   0  0  0  0  0  0  0  0  0  0  0  0
   55.3450   30.0810   43.5110 O   0  0  0  0  0  0  0  0  0  0  0  0
   57.4630   28.8770   43.2500 O   0  0  0  0  0  0  0  0  0  0  0  0
   57.4340   31.0310   44.8520 C   0  0  0  0  0  0  0  0  0  0  0  0
   57.5310   32.2050   44.0940 C   0  0  0  0  0  0  0  0  0  0  0  0
   58.1780   33.3270   44.6160 C   0  0  0  0  0  0  0  0  0  0  0  0
   58.7270   33.2920   45.9060 C   0  0  0  0  0  0  0  0  0  0  0  0
   59.4090   34.4740   46.4620 C   0  0  0  0  0  0  0  0  0  0  0  0
   60.0880   35.2090   45.6960 O   0  0  0  0  0  0  0  0  0  0  0  0
   59.3420   34.8000   47.8560 N   0  0  0  0  0  0  0  0  0  0  0  0
   60.4220   34.5530   48.8020 C   0  0  0  0  0  0  0  0  0  0  0  0
   61.3590   33.5280   48.2360 C   0  0  0  0  0  0  0  0  0  0  0  0
   62.4860   33.9270   47.4990 C   0  0  0  0  0  0  0  0  0  0  0  0
   63.3690   32.9710   46.9880 C   0  0  0  0  0  0  0  0  0  0  0  0
   63.1380   31.6120   47.2180 C   0  0  0  0  0  0  0  0  0  0  0  0
   62.0290   31.2070   47.9670 C   0  0  0  0  0  0  0  0  0  0  0  0
   61.1450   32.1610   48.4810 C   0  0  0  0  0  0  0  0  0  0  0  0
   58.6470   32.1090   46.6560 C   0  0  0  0  0  0  0  0  0  0  0  0
   57.9940   30.9890   46.1350 C   0  0  0  0  0  0  0  0  0  0  0  0
   56.5590   25.0920   46.6670 N   0  0  0  0  0  0  0  0  0  0  0  0
   57.5720   24.2200   46.1470 C   0  0  0  0  0  0  0  0  0  0  0  0
   57.2880   22.8930   45.7720 C   0  0  0  0  0  0  0  0  0  0  0  0
   58.3070   22.0590   45.3050 C   0  0  0  0  0  0  0  0  0  0  0  0
   59.6170   22.5320   45.2250 C   0  0  0  0  0  0  0  0  0  0  0  0
   59.9150   23.8370   45.6180 C   0  0  0  0  0  0  0  0  0  0  0  0
   58.9000   24.6860   46.0770 C   0  0  0  0  0  0  0  0  0  0  0  0
   59.2350   26.0230   46.4810 N   0  0  0  0  0  0  0  0  0  0  0  0
   59.0320   26.4280   47.8730 C   0  0  0  0  0  0  0  0  0  0  0  0
   58.9410   27.9520   47.9590 C   0  0  0  0  0  0  0  0  0  0  0  0
   60.0600   28.5480   47.3330 O   0  0  0  0  0  0  0  0  0  0  0  0
   60.0240   28.2900   45.9420 C   0  0  0  0  0  0  0  0  0  0  0  0
   60.1640   26.7910   45.6510 C   0  0  0  0  0  0  0  0  0  0  0  0
   57.7593   27.2782   45.8895 H   0  0  0  0  0  0  0  0  0  0  0  0
   56.9121   27.0371   44.3176 H   0  0  0  0  0  0  0  0  0  0  0  0
   57.0961   32.2432   43.0843 H   0  0  0  0  0  0  0  0  0  0  0  0
   58.2575   34.2430   44.0122 H   0  0  0  0  0  0  0  0  0  0  0  0
   60.9700   35.4890   48.9851 H   0  0  0  0  0  0  0  0  0  0  0  0
   60.0020   34.1822   49.7486 H   0  0  0  0  0  0  0  0  0  0  0  0
   62.6748   34.9963   47.3230 H   0  0  0  0  0  0  0  0  0  0  0  0
   64.2459   33.2886   46.4047 H   0  0  0  0  0  0  0  0  0  0  0  0
   63.8293   30.8603   46.8094 H   0  0  0  0  0  0  0  0  0  0  0  0
   61.8517   30.1373   48.1521 H   0  0  0  0  0  0  0  0  0  0  0  0
   60.2793   31.8402   49.0791 H   0  0  0  0  0  0  0  0  0  0  0  0
   59.0998   32.0631   47.6574 H   0  0  0  0  0  0  0  0  0  0  0  0
   57.9194   30.0702   46.7352 H   0  0  0  0  0  0  0  0  0  0  0  0
   56.2592   22.5111   45.8470 H   0  0  0  0  0  0  0  0  0  0  0  0
   58.0760   21.0277   44.9999 H   0  0  0  0  0  0  0  0  0  0  0  0
   60.4162   21.8749   44.8515 H   0  0  0  0  0  0  0  0  0  0  0  0
   60.9518   24.2008   45.5672 H   0  0  0  0  0  0  0  0  0  0  0  0
   58.0989   25.9842   48.2504 H   0  0  0  0  0  0  0  0  0  0  0  0
   59.8797   26.0791   48.4809 H   0  0  0  0  0  0  0  0  0  0  0  0
   58.0223   28.2893   47.4568 H   0  0  0  0  0  0  0  0  0  0  0  0
   58.9236   28.2495   49.0178 H   0  0  0  0  0  0  0  0  0  0  0  0
   59.0657   28.6461   45.5359 H   0  0  0  0  0  0  0  0  0  0  0  0
   60.8661   28.8163   45.4688 H   0  0  0  0  0  0  0  0  0  0  0  0
   59.9412   26.6051   44.5900 H   0  0  0  0  0  0  0  0  0  0  0  0
   61.1927   26.4766   45.8810 H   0  0  0  0  0  0  0  0  0  0  0  0
  1  2  2  0
  2  3  1  0
  3  4  1  0
  4  5  1  0
  5  6  2  0
  5  7  2  0
  5  8  1  0
  8  9  2  0
  9 10  1  0
 10 11  2  0
 11 12  1  0
 12 13  2  0
 12 14  1  0
 14 15  1  0
 15 16  1  0
 16 17  2  0
 17 18  1  0
 18 19  2  0
 19 20  1  0
 20 21  2  0
 11 22  1  0
 22 23  2  0
  2 24  1  0
 24 25  1  0
 25 26  2  0
 26 27  1  0
 27 28  2  0
 28 29  1  0
 29 30  2  0
 30 31  1  0
 31 32  1  0
 32 33  1  0
 33 34  1  0
 34 35  1  0
 35 36  1  0
 23  8  1  0
 30 25  1  0
 36 31  1  0
 21 16  1  0
  3 37  1  0
  3 38  1  0
  9 39  1  0
 10 40  1  0
 15 41  1  0
 15 42  1  0
 17 43  1  0
 18 44  1  0
 19 45  1  0
 20 46  1  0
 21 47  1  0
 22 48  1  0
 23 49  1  0
 26 50  1  0
 27 51  1  0
 28 52  1  0
 29 53  1  0
 32 54  1  0
 32 55  1  0
 33 56  1  0
 33 57  1  0
 35 58  1  0
 35 59  1  0
 36 60  1  0
 36 61  1  0
M  CHG  3   4  -1  14  -1  24  -1
M  END
>  <UniqueID>  (25) 
23

>  <SMILES>  (25) 
O=C(C[N-]S(=O)(=O)c1ccc(C(=O)[N-]Cc2ccccc2)cc1)[N-]c1ccccc1N1CCOCC1

>  <Energy>  (25) 
76.92076964849505

>  <Genealogy>  (25) 
O=C(C[N-]S(=O)(=O)c1ccc(C(=O)[N-]Cc2ccccc2)cc1)[N-]c1ccccc1N1CCOCC1 (protonated)
O=C(C[N-]S(=O)(=O)c1ccc(C(=O)[N-]Cc2ccccc2)cc1)[N-]c1ccccc1N1CCOCC1 (3D coordinates assigned)
O=C(C[N-]S(=O)(=O)c1ccc(C(=O)[N-]Cc2ccccc2)cc1)[N-]c1ccccc1N1CCOCC1 (nonaromatic ring conformer: 76.92076964849505 kcal/mol)

>  <smiles>  (25) 
O=C(CNS(=O)(=O)c1ccc(C(=O)NCc2ccccc2)cc1)Nc1ccccc1N1CCOCC1

>  <score_type>  (25) 
oracle

>  <origin>  (25) 
adg

>  <m_score__min__energy>  (25) 
-14.27

>  <m_primary>  (25) 
energy

$$$$
25:0
     RDKit          3D

 39 40  0  0  0  0  0  0  0  0999 V2000
   58.3400   28.3600   43.8270 O   0  0  0  0  0  0  0  0  0  0  0  0
   57.5150   28.1420   44.7550 C   0  0  0  0  0  0  0  0  0  0  0  0
   56.6340   29.1920   45.1900 N   0  0  0  0  0  0  0  0  0  0  0  0
   56.6630   30.5330   44.6060 C   0  0  0  0  0  0  0  0  0  0  0  0
   58.0620   31.0880   44.6360 C   0  0  0  0  0  0  0  0  0  0  0  0
   58.8220   30.8600   43.6500 O   0  0  0  0  0  0  0  0  0  0  0  0
   58.5610   31.8190   45.7810 N   0  0  0  0  0  0  0  0  0  0  0  0
   57.6230   32.6240   46.5960 C   0  0  0  0  0  0  0  0  0  0  0  0
   57.7790   34.1450   46.4120 C   0  0  0  0  0  0  0  0  0  0  0  0
   58.9830   34.5630   45.5350 C   0  0  0  0  0  0  0  0  0  0  0  0
   60.3750   34.2960   46.1360 C   0  0  0  0  0  0  0  0  0  0  0  0
   60.4860   32.9620   46.9030 C   0  0  0  0  0  0  0  0  0  0  0  0
   59.9930   31.7230   46.1290 C   0  0  0  0  0  0  0  0  0  0  0  0
   57.5040   26.8180   45.4190 C   0  0  0  0  0  0  0  0  0  0  0  0
   58.6790   26.0400   45.4210 C   0  0  0  0  0  0  0  0  0  0  0  0
   58.7020   24.7880   46.0480 C   0  0  0  0  0  0  0  0  0  0  0  0
   57.5520   24.2980   46.6750 C   0  0  0  0  0  0  0  0  0  0  0  0
   56.3750   25.0550   46.6700 C   0  0  0  0  0  0  0  0  0  0  0  0
   56.3420   26.3070   46.0390 C   0  0  0  0  0  0  0  0  0  0  0  0
   55.1430   27.0150   46.0090 O   0  0  0  0  0  0  0  0  0  0  0  0
   55.9990   29.0230   46.0000 H   0  0  0  0  0  0  0  0  0  0  0  0
   56.3155   30.4820   43.5636 H   0  0  0  0  0  0  0  0  0  0  0  0
   56.0050   31.1917   45.1918 H   0  0  0  0  0  0  0  0  0  0  0  0
   56.5960   32.3455   46.3173 H   0  0  0  0  0  0  0  0  0  0  0  0
   57.8500   32.4062   47.6501 H   0  0  0  0  0  0  0  0  0  0  0  0
   56.8617   34.5306   45.9432 H   0  0  0  0  0  0  0  0  0  0  0  0
   57.9588   34.5652   47.4125 H   0  0  0  0  0  0  0  0  0  0  0  0
   58.9149   34.0136   44.5844 H   0  0  0  0  0  0  0  0  0  0  0  0
   58.9089   35.6552   45.4272 H   0  0  0  0  0  0  0  0  0  0  0  0
   61.1086   34.2850   45.3164 H   0  0  0  0  0  0  0  0  0  0  0  0
   60.5640   35.0974   46.8655 H   0  0  0  0  0  0  0  0  0  0  0  0
   61.5433   32.8042   47.1621 H   0  0  0  0  0  0  0  0  0  0  0  0
   59.8308   33.0568   47.7815 H   0  0  0  0  0  0  0  0  0  0  0  0
   60.5777   31.6280   45.2021 H   0  0  0  0  0  0  0  0  0  0  0  0
   60.1260   30.8439   46.7767 H   0  0  0  0  0  0  0  0  0  0  0  0
   59.5853   26.4191   44.9261 H   0  0  0  0  0  0  0  0  0  0  0  0
   59.6251   24.1897   46.0473 H   0  0  0  0  0  0  0  0  0  0  0  0
   57.5726   23.3171   47.1724 H   0  0  0  0  0  0  0  0  0  0  0  0
   55.4718   24.6663   47.1631 H   0  0  0  0  0  0  0  0  0  0  0  0
  1  2  2  0
  2  3  1  0
  3  4  1  0
  4  5  1  0
  5  6  2  0
  5  7  1  0
  7  8  1  0
  8  9  1  0
  9 10  1  0
 10 11  1  0
 11 12  1  0
 12 13  1  0
  2 14  1  0
 14 15  2  0
 15 16  1  0
 16 17  2  0
 17 18  1  0
 18 19  2  0
 19 20  1  0
 13  7  1  0
 19 14  1  0
  3 21  1  0
  4 22  1  0
  4 23  1  0
  8 24  1  0
  8 25  1  0
  9 26  1  0
  9 27  1  0
 10 28  1  0
 10 29  1  0
 11 30  1  0
 11 31  1  0
 12 32  1  0
 12 33  1  0
 13 34  1  0
 13 35  1  0
 15 36  1  0
 16 37  1  0
 17 38  1  0
 18 39  1  0
M  CHG  1  20  -1
M  END
>  <UniqueID>  (26) 
24

>  <SMILES>  (26) 
O=C(NCC(=O)N1CCCCCC1)c1ccccc1[O-]

>  <Energy>  (26) 
44.75845590642571

>  <Genealogy>  (26) 
O=C(NCC(=O)N1CCCCCC1)c1ccccc1[O-] (protonated)
O=C(NCC(=O)N1CCCCCC1)c1ccccc1[O-] (3D coordinates assigned)
O=C(NCC(=O)N1CCCCCC1)c1ccccc1[O-] (nonaromatic ring conformer: 44.75845590642571 kcal/mol)

>  <smiles>  (26) 
O=C(NCC(=O)N1CCCCCC1)c1ccccc1O

>  <score_type>  (26) 
oracle

>  <origin>  (26) 
adg

>  <m_score__min__energy>  (26) 
-9.5

>  <m_primary>  (26) 
energy

$$$$
26:0
     RDKit          3D

 44 47  0  0  0  0  0  0  0  0999 V2000
   57.2970   21.9960   46.6060 O   0  0  0  0  0  0  0  0  0  0  0  0
   58.1440   22.6960   45.9940 C   0  0  0  0  0  0  0  0  0  0  0  0
   59.2410   22.1060   45.3810 O   0  0  0  0  0  0  0  0  0  0  0  0
   57.9630   24.1410   45.9330 C   0  0  0  0  0  0  0  0  0  0  0  0
   56.7020   24.6590   45.9980 N   0  0  0  0  0  0  0  0  0  0  0  0
   56.4850   25.9800   45.9460 C   0  0  0  0  0  0  0  0  0  0  0  0
   55.3140   26.4680   46.0060 O   0  0  0  0  0  0  0  0  0  0  0  0
   57.5710   26.8040   45.8230 C   0  0  0  0  0  0  0  0  0  0  0  0
   57.3570   28.1680   45.7670 C   0  0  0  0  0  0  0  0  0  0  0  0
   58.4510   29.0290   45.6430 C   0  0  0  0  0  0  0  0  0  0  0  0
   58.1330   30.4560   45.5900 C   0  0  0  0  0  0  0  0  0  0  0  0
   57.3530   30.9240   44.5460 C   0  0  0  0  0  0  0  0  0  0  0  0
   57.0680   32.2690   44.5140 C   0  0  0  0  0  0  0  0  0  0  0  0
   57.5540   33.1130   45.5020 C   0  0  0  0  0  0  0  0  0  0  0  0
   57.2280   34.4450   45.4050 O   0  0  0  0  0  0  0  0  0  0  0  0
   58.3250   32.6770   46.5420 C   0  0  0  0  0  0  0  0  0  0  0  0
   58.8690   33.5370   47.6150 C   0  0  0  0  0  0  0  0  0  0  0  0
   60.3510   33.6320   47.6030 C   0  0  0  0  0  0  0  0  0  0  0  0
   61.1160   33.6290   48.7510 C   0  0  0  0  0  0  0  0  0  0  0  0
   62.5010   33.7240   48.7270 C   0  0  0  0  0  0  0  0  0  0  0  0
   63.1520   33.8280   47.5150 C   0  0  0  0  0  0  0  0  0  0  0  0
   62.4180   33.8340   46.3510 C   0  0  0  0  0  0  0  0  0  0  0  0
   61.0270   33.7380   46.3910 C   0  0  0  0  0  0  0  0  0  0  0  0
   58.6160   31.3130   46.5760 C   0  0  0  0  0  0  0  0  0  0  0  0
   59.7300   28.5370   45.5750 C   0  0  0  0  0  0  0  0  0  0  0  0
   59.9390   27.1700   45.6320 C   0  0  0  0  0  0  0  0  0  0  0  0
   58.8710   26.3030   45.7550 C   0  0  0  0  0  0  0  0  0  0  0  0
   59.0230   24.9610   45.8140 N   0  0  0  0  0  0  0  0  0  0  0  0
   59.2810   21.1200   45.1510 H   0  0  0  0  0  0  0  0  0  0  0  0
   56.3354   28.5724   45.8195 H   0  0  0  0  0  0  0  0  0  0  0  0
   56.9744   30.2435   43.7691 H   0  0  0  0  0  0  0  0  0  0  0  0
   56.4511   32.6780   43.7003 H   0  0  0  0  0  0  0  0  0  0  0  0
   56.3120   34.8380   45.6340 H   0  0  0  0  0  0  0  0  0  0  0  0
   58.4541   34.5486   47.4946 H   0  0  0  0  0  0  0  0  0  0  0  0
   58.5815   33.0800   48.5734 H   0  0  0  0  0  0  0  0  0  0  0  0
   60.6087   33.5482   49.7237 H   0  0  0  0  0  0  0  0  0  0  0  0
   63.0741   33.7164   49.6659 H   0  0  0  0  0  0  0  0  0  0  0  0
   64.2487   33.9055   47.4794 H   0  0  0  0  0  0  0  0  0  0  0  0
   62.9320   33.9151   45.3819 H   0  0  0  0  0  0  0  0  0  0  0  0
   60.4560   33.7462   45.4509 H   0  0  0  0  0  0  0  0  0  0  0  0
   59.2344   30.9095   47.3914 H   0  0  0  0  0  0  0  0  0  0  0  0
   60.5832   29.2241   45.4759 H   0  0  0  0  0  0  0  0  0  0  0  0
   60.9628   26.7713   45.5790 H   0  0  0  0  0  0  0  0  0  0  0  0
   59.9640   24.5560   45.7670 H   0  0  0  0  0  0  0  0  0  0  0  0
  1  2  2  0
  2  3  1  0
  2  4  1  0
  4  5  2  0
  5  6  1  0
  6  7  2  0
  6  8  1  0
  8  9  2  0
  9 10  1  0
 10 11  1  0
 11 12  2  0
 12 13  1  0
 13 14  2  0
 14 15  1  0
 14 16  1  0
 16 17  1  0
 17 18  1  0
 18 19  2  0
 19 20  1  0
 20 21  2  0
 21 22  1  0
 22 23  2  0
 16 24  2  0
 10 25  2  0
 25 26  1  0
 26 27  2  0
 27 28  1  0
 28  4  1  0
 27  8  1  0
 24 11  1  0
 23 18  1  0
  3 29  1  0
  9 30  1  0
 12 31  1  0
 13 32  1  0
 15 33  1  0
 17 34  1  0
 17 35  1  0
 19 36  1  0
 20 37  1  0
 21 38  1  0
 22 39  1  0
 23 40  1  0
 24 41  1  0
 25 42  1  0
 26 43  1  0
 28 44  1  0
M  END
>  <smiles>  (27) 
O=C(O)c1nc(=O)c2cc(-c3ccc(O)c(Cc4ccccc4)c3)ccc2[nH]1

>  <score_type>  (27) 
oracle

>  <origin>  (27) 
adg

>  <m_score__min__energy>  (27) 
-9.4600000000000009

>  <m_primary>  (27) 
energy

$$$$
27:0
     RDKit          3D

 35 37  0  0  0  0  0  0  0  0999 V2000
   64.1312   31.2235   46.4427 H   0  0  0  0  0  0  0  0  0  0  0  0
   63.5190   31.8360   47.1210 C   0  0  0  0  0  0  0  0  0  0  0  0
   62.4600   31.3280   47.8050 N   0  0  0  0  0  0  0  0  0  0  0  0
   61.8710   32.2750   48.5690 C   0  0  0  0  0  0  0  0  0  0  0  0
   60.8320   32.0600   49.3150 N   0  0  0  0  0  0  0  0  0  0  0  0
   59.3350   32.9150   49.1250 S   0  0  0  0  0  0  0  0  0  0  0  0
   58.2010   31.9720   49.4220 O   0  0  0  0  0  0  0  0  0  0  0  0
   59.2960   34.0550   50.1030 O   0  0  0  0  0  0  0  0  0  0  0  0
   59.1890   33.5600   47.4870 C   0  0  0  0  0  0  0  0  0  0  0  0
   59.6220   34.8660   47.2140 C   0  0  0  0  0  0  0  0  0  0  0  0
   60.0494   35.4798   48.0206 H   0  0  0  0  0  0  0  0  0  0  0  0
   59.5140   35.3920   45.9250 C   0  0  0  0  0  0  0  0  0  0  0  0
   59.8576   36.4164   45.7186 H   0  0  0  0  0  0  0  0  0  0  0  0
   58.9700   34.6180   44.8980 C   0  0  0  0  0  0  0  0  0  0  0  0
   58.8934   35.0300   43.8809 H   0  0  0  0  0  0  0  0  0  0  0  0
   58.5230   33.3210   45.1610 C   0  0  0  0  0  0  0  0  0  0  0  0
   58.1013   32.7125   44.3474 H   0  0  0  0  0  0  0  0  0  0  0  0
   58.6090   32.7880   46.4610 C   0  0  0  0  0  0  0  0  0  0  0  0
   58.1680   31.4860   46.7430 O   0  0  0  0  0  0  0  0  0  0  0  0
   58.6040   30.3190   46.0970 C   0  0  0  0  0  0  0  0  0  0  0  0
   59.8920   29.8050   46.3420 C   0  0  0  0  0  0  0  0  0  0  0  0
   60.5511   30.3088   47.0644 H   0  0  0  0  0  0  0  0  0  0  0  0
   60.3400   28.6640   45.6780 C   0  0  0  0  0  0  0  0  0  0  0  0
   61.3440   28.2655   45.8857 H   0  0  0  0  0  0  0  0  0  0  0  0
   59.5160   28.0280   44.7510 C   0  0  0  0  0  0  0  0  0  0  0  0
   59.8698   27.1260   44.2302 H   0  0  0  0  0  0  0  0  0  0  0  0
   58.2430   28.5330   44.4820 C   0  0  0  0  0  0  0  0  0  0  0  0
   57.6025   28.0281   43.7439 H   0  0  0  0  0  0  0  0  0  0  0  0
   57.7690   29.6820   45.1450 C   0  0  0  0  0  0  0  0  0  0  0  0
   56.4470   30.1780   44.8450 N   0  0  0  0  0  0  0  0  0  0  0  0
   56.2530   31.3800   44.5720 O   0  0  0  0  0  0  0  0  0  0  0  0
   55.3620   29.3340   44.8950 O   0  0  0  0  0  0  0  0  0  0  0  0
   62.6280   33.7650   48.4300 S   0  0  0  0  0  0  0  0  0  0  0  0
   63.7730   33.1850   47.3400 C   0  0  0  0  0  0  0  0  0  0  0  0
   64.5820   33.7720   46.8807 H   0  0  0  0  0  0  0  0  0  0  0  0
  1  2  1  0
  2  3  1  0
  3  4  1  0
  4  5  2  0
  5  6  1  0
  6  7  2  0
  6  8  2  0
  6  9  1  0
  9 10  2  0
 10 11  1  0
 10 12  1  0
 12 13  1  0
 12 14  2  0
 14 15  1  0
 14 16  1  0
 16 17  1  0
 16 18  2  0
 18 19  1  0
 19 20  1  0
 20 21  2  0
 21 22  1  0
 21 23  1  0
 23 24  1  0
 23 25  2  0
 25 26  1  0
 25 27  1  0
 27 28  1  0
 27 29  2  0
 29 30  1  0
 30 31  2  0
 30 32  1  0
  4 33  1  0
 33 34  1  0
 34 35  1  0
 34  2  2  0
 18  9  1  0
 29 20  1  0
M  CHG  3   3  -1  30   1  32  -1
M  END
>  <UniqueID>  (28) 
25

>  <SMILES>  (28) 
O=[N+]([O-])c1ccccc1Oc1ccccc1S(=O)(=O)/N=c1\[n-]ccs1

>  <Energy>  (28) 
80.35275419795691

>  <Genealogy>  (28) 
O=[N+]([O-])c1ccccc1Oc1ccccc1S(=O)(=O)N=c1[n-]ccs1 (protonated)
O=[N+]([O-])c1ccccc1Oc1ccccc1S(=O)(=O)/N=c1\[n-]ccs1 (cis-trans isomerization)
O=[N+]([O-])c1ccccc1Oc1ccccc1S(=O)(=O)/N=c1\[n-]ccs1 (3D coordinates assigned)
O=[N+]([O-])c1ccccc1Oc1ccccc1S(=O)(=O)/N=c1\[n-]ccs1 (optimized conformer: 80.35275419795691 kcal/mol)

>  <smiles>  (28) 
O=[N+]([O-])c1ccccc1Oc1ccccc1S(=O)(=O)N=c1[nH]ccs1

>  <score_type>  (28) 
oracle

>  <origin>  (28) 
adg

>  <m_score__min__energy>  (28) 
-9.7899999999999991

>  <m_primary>  (28) 
energy

$$$$
28:0
     RDKit          3D

 77 81  0  0  0  0  0  0  0  0999 V2000
   57.2797   30.8633   41.4749 H   0  0  0  0  0  0  0  0  0  0  0  0
   57.3670   31.2680   42.4940 C   0  0  0  0  0  0  0  0  0  0  0  0
   56.9600   30.5000   43.5870 C   0  0  0  0  0  0  0  0  0  0  0  0
   56.5468   29.4932   43.4274 H   0  0  0  0  0  0  0  0  0  0  0  0
   57.0770   31.0090   44.8840 C   0  0  0  0  0  0  0  0  0  0  0  0
   56.7582   30.3993   45.7423 H   0  0  0  0  0  0  0  0  0  0  0  0
   57.6000   32.2960   45.0960 C   0  0  0  0  0  0  0  0  0  0  0  0
   57.7220   32.8520   46.4960 C   0  0  0  0  0  0  0  0  0  0  0  0
   57.4497   32.0525   47.2007 H   0  0  0  0  0  0  0  0  0  0  0  0
   57.0546   33.7259   46.5276 H   0  0  0  0  0  0  0  0  0  0  0  0
   59.1210   33.3800   46.8960 C   0  0  0  0  0  0  0  0  0  0  0  0
   60.0960   32.3780   47.3260 N   0  0  0  0  0  0  0  0  0  0  0  0
   59.7960   31.3060   47.9950 C   0  0  0  0  0  0  0  0  0  0  0  0
   60.3130   30.0970   47.6490 N   0  0  0  0  0  0  0  0  0  0  0  0
   60.0100   28.9890   48.3700 C   0  0  0  0  0  0  0  0  0  0  0  0
   60.5200   27.8460   48.0270 N   0  0  0  0  0  0  0  0  0  0  0  0
   57.1750   31.5840   51.2620 C   0  0  0  0  0  0  0  0  0  0  0  0
   56.3917   31.3104   51.9842 H   0  0  0  0  0  0  0  0  0  0  0  0
   56.7376   32.0746   50.3800 H   0  0  0  0  0  0  0  0  0  0  0  0
   58.1580   32.5750   51.9350 C   0  0  0  0  0  0  0  0  0  0  0  0
   57.8319   32.7232   52.9751 H   0  0  0  0  0  0  0  0  0  0  0  0
   58.1278   33.4919   51.3281 H   0  0  0  0  0  0  0  0  0  0  0  0
   59.5840   32.1430   51.9570 N   0  0  1  0  0  0  0  0  0  0  0  0
   59.6960   31.4900   51.1440 H   0  0  0  0  0  0  0  0  0  0  0  0
   60.5000   33.2920   51.7310 C   0  0  0  0  0  0  0  0  0  0  0  0
   59.8980   34.1927   51.5403 H   0  0  0  0  0  0  0  0  0  0  0  0
   61.1226   33.4094   52.6302 H   0  0  0  0  0  0  0  0  0  0  0  0
   61.4250   33.0640   50.5510 C   0  0  0  0  0  0  0  0  0  0  0  0
   61.6970   34.1210   49.6660 C   0  0  0  0  0  0  0  0  0  0  0  0
   61.2181   35.0992   49.8203 H   0  0  0  0  0  0  0  0  0  0  0  0
   62.5700   33.9390   48.5930 C   0  0  0  0  0  0  0  0  0  0  0  0
   62.7727   34.7712   47.9028 H   0  0  0  0  0  0  0  0  0  0  0  0
   63.1860   32.7040   48.3940 C   0  0  0  0  0  0  0  0  0  0  0  0
   63.8833   32.5670   47.5544 H   0  0  0  0  0  0  0  0  0  0  0  0
   62.9190   31.6410   49.2590 C   0  0  0  0  0  0  0  0  0  0  0  0
   63.4039   30.6676   49.0937 H   0  0  0  0  0  0  0  0  0  0  0  0
   62.0330   31.8060   50.3420 C   0  0  0  0  0  0  0  0  0  0  0  0
   61.7350   30.7520   51.2220 O   0  0  0  0  0  0  0  0  0  0  0  0
   61.9580   29.3740   50.9390 C   0  0  0  0  0  0  0  0  0  0  0  0
   62.0483   28.8158   51.8826 H   0  0  0  0  0  0  0  0  0  0  0  0
   61.1123   28.9775   50.3579 H   0  0  0  0  0  0  0  0  0  0  0  0
   62.8856   29.2644   50.3579 H   0  0  0  0  0  0  0  0  0  0  0  0
   59.9530   31.3840   53.1840 C   0  0  0  0  0  0  0  0  0  0  0  0
   60.8331   31.8608   53.6401 H   0  0  0  0  0  0  0  0  0  0  0  0
   60.1599   30.3471   52.8807 H   0  0  0  0  0  0  0  0  0  0  0  0
   58.8230   31.3430   54.2250 C   0  0  0  0  0  0  0  0  0  0  0  0
   59.2554   31.3587   55.2363 H   0  0  0  0  0  0  0  0  0  0  0  0
   58.1699   32.2180   54.0919 H   0  0  0  0  0  0  0  0  0  0  0  0
   58.2350   30.4229   54.0919 H   0  0  0  0  0  0  0  0  0  0  0  0
   59.1810   29.0910   49.4440 N   0  0  0  0  0  0  0  0  0  0  0  0
   58.6500   30.2920   49.7890 C   0  0  0  0  0  0  0  0  0  0  0  0
   57.8620   30.3690   50.8210 N   0  0  0  0  0  0  0  0  0  0  0  0
   60.2820   27.1930   46.7430 C   0  0  0  0  0  0  0  0  0  0  0  0
   60.6688   27.8267   45.9313 H   0  0  0  0  0  0  0  0  0  0  0  0
   60.7962   26.2208   46.7235 H   0  0  0  0  0  0  0  0  0  0  0  0
   58.8060   26.9850   46.5570 C   0  0  0  0  0  0  0  0  0  0  0  0
   58.0470   27.9090   45.8190 C   0  0  0  0  0  0  0  0  0  0  0  0
   58.5296   28.8056   45.4030 H   0  0  0  0  0  0  0  0  0  0  0  0
   56.6810   27.6940   45.6110 C   0  0  0  0  0  0  0  0  0  0  0  0
   56.0907   28.4257   45.0399 H   0  0  0  0  0  0  0  0  0  0  0  0
   56.0640   26.5500   46.1280 C   0  0  0  0  0  0  0  0  0  0  0  0
   54.7060   26.3380   45.9200 O   0  0  0  0  0  0  0  0  0  0  0  0
   56.8170   25.6170   46.8500 C   0  0  0  0  0  0  0  0  0  0  0  0
   56.3328   24.7157   47.2540 H   0  0  0  0  0  0  0  0  0  0  0  0
   58.1840   25.8280   47.0590 C   0  0  0  0  0  0  0  0  0  0  0  0
   58.7741   25.0867   47.6177 H   0  0  0  0  0  0  0  0  0  0  0  0
   58.9610   31.3980   49.0610 N   0  0  0  0  0  0  0  0  0  0  0  0
   59.7490   34.4830   46.0560 C   0  0  0  0  0  0  0  0  0  0  0  0
   60.8173   34.4373   45.7978 H   0  0  0  0  0  0  0  0  0  0  0  0
   59.5319   34.9348   45.0768 H   0  0  0  0  0  0  0  0  0  0  0  0
   59.3220   34.7660   47.4960 C   0  0  0  0  0  0  0  0  0  0  0  0
   60.0826   34.9237   48.2748 H   0  0  0  0  0  0  0  0  0  0  0  0
   58.6700   35.5055   47.9840 H   0  0  0  0  0  0  0  0  0  0  0  0
   57.9970   33.0670   43.9880 C   0  0  0  0  0  0  0  0  0  0  0  0
   58.3970   34.0803   44.1405 H   0  0  0  0  0  0  0  0  0  0  0  0
   57.8850   32.5500   42.6940 C   0  0  0  0  0  0  0  0  0  0  0  0
   58.2052   33.1535   41.8319 H   0  0  0  0  0  0  0  0  0  0  0  0
  1  2  1  0
  2  3  2  0
  3  4  1  0
  3  5  1  0
  5  6  1  0
  5  7  2  0
  7  8  1  0
  8  9  1  0
  8 10  1  0
  8 11  1  0
 11 12  1  0
 12 13  2  3
 13 14  1  0
 14 15  1  0
 15 16  2  0
 16 17  1  0
 17 18  1  0
 17 19  1  0
 17 20  1  0
 20 21  1  0
 20 22  1  0
 20 23  1  0
 23 24  1  6
 23 25  1  0
 25 26  1  0
 25 27  1  0
 25 28  1  0
 28 29  2  0
 29 30  1  0
 29 31  1  0
 31 32  1  0
 31 33  2  0
 33 34  1  0
 33 35  1  0
 35 36  1  0
 35 37  2  0
 37 38  1  0
 38 39  1  0
 39 40  1  0
 39 41  1  0
 39 42  1  0
 23 43  1  0
 43 44  1  0
 43 45  1  0
 43 46  1  0
 46 47  1  0
 46 48  1  0
 46 49  1  0
 15 50  1  0
 50 51  1  0
 51 52  2  0
 52 53  1  0
 53 54  1  0
 53 55  1  0
 53 56  1  0
 56 57  2  0
 57 58  1  0
 57 59  1  0
 59 60  1  0
 59 61  2  0
 61 62  1  0
 61 63  1  0
 63 64  1  0
 63 65  2  0
 65 66  1  0
 51 67  1  0
 11 68  1  0
 68 69  1  0
 68 70  1  0
 68 71  1  0
 71 72  1  0
 71 73  1  0
  7 74  1  0
 74 75  1  0
 74 76  2  0
 76 77  1  0
 76  2  1  0
 71 11  1  0
 67 13  1  0
 37 28  1  0
 65 56  1  0
M  CHG  5  14  -1  23   1  50  -1  62  -1  67  -1
M  END
>  <UniqueID>  (29) 
26

>  <SMILES>  (29) 
CC[N@@H+](CC/N=c1\[n-]c(=NC2(Cc3ccccc3)CC2)[n-]/c(=N/Cc2ccc([O-])cc2)[n-]1)Cc1ccccc1OC

>  <Energy>  (29) 
355.843659814698

>  <Genealogy>  (29) 
CC[NH+](CCN=c1[n-]c(=NCc2ccc([O-])cc2)[n-]c(=NC2(Cc3ccccc3)CC2)[n-]1)Cc1ccccc1OC (protonated)
CC[N@@H+](CCN=c1[n-]c(=NCc2ccc([O-])cc2)[n-]c(=NC2(Cc3ccccc3)CC2)[n-]1)Cc1ccccc1OC (chirality)
CC[N@@H+](CC/N=c1\[n-]c(=NC2(Cc3ccccc3)CC2)[n-]/c(=N/Cc2ccc([O-])cc2)[n-]1)Cc1ccccc1OC (cis-trans isomerization)
CC[N@@H+](CC/N=c1\[n-]c(=NC2(Cc3ccccc3)CC2)[n-]/c(=N/Cc2ccc([O-])cc2)[n-]1)Cc1ccccc1OC (3D coordinates assigned)
CC[N@@H+](CC/N=c1\[n-]c(=NC2(Cc3ccccc3)CC2)[n-]/c(=N/Cc2ccc([O-])cc2)[n-]1)Cc1ccccc1OC (nonaromatic ring conformer: 355.843659814698 kcal/mol)

>  <smiles>  (29) 
CCN(CCN=c1[nH]c(=NCc2ccc(O)cc2)[nH]c(=NC2(Cc3ccccc3)CC2)[nH]1)Cc1ccccc1OC

>  <score_type>  (29) 
oracle

>  <origin>  (29) 
adg

>  <m_score__min__energy>  (29) 
-15

>  <m_primary>  (29) 
energy

$$$$
29:0
     RDKit          3D

 29 30  0  0  0  0  0  0  0  0999 V2000
   54.0570   25.9660   45.6280 O   0  0  0  0  0  0  0  0  0  0  0  0
   54.7140   24.8970   45.5260 C   0  0  0  0  0  0  0  0  0  0  0  0
   56.1840   24.8630   45.7030 C   0  0  0  0  0  0  0  0  0  0  0  0
   56.7950   23.6070   45.8620 C   0  0  0  0  0  0  0  0  0  0  0  0
   58.1820   23.4980   45.9810 C   0  0  0  0  0  0  0  0  0  0  0  0
   58.9780   24.6420   45.9500 C   0  0  0  0  0  0  0  0  0  0  0  0
   58.3890   25.8990   45.8070 C   0  0  0  0  0  0  0  0  0  0  0  0
   56.9940   26.0280   45.6820 C   0  0  0  0  0  0  0  0  0  0  0  0
   56.4110   27.3400   45.6220 N   0  0  0  0  0  0  0  0  0  0  0  0
   57.0070   28.4320   44.9090 C   0  0  0  0  0  0  0  0  0  0  0  0
   58.0330   28.2440   44.2010 O   0  0  0  0  0  0  0  0  0  0  0  0
   56.4370   29.7400   45.0340 N   0  0  0  0  0  0  0  0  0  0  0  0
   57.0390   30.9780   44.6260 C   0  0  0  0  0  0  0  0  0  0  0  0
   57.4280   31.9620   45.5540 C   0  0  0  0  0  0  0  0  0  0  0  0
   58.0320   33.1440   45.1140 C   0  0  0  0  0  0  0  0  0  0  0  0
   58.2650   33.3490   43.7520 C   0  0  0  0  0  0  0  0  0  0  0  0
   57.9020   32.3650   42.8270 C   0  0  0  0  0  0  0  0  0  0  0  0
   57.2990   31.1810   43.2650 C   0  0  0  0  0  0  0  0  0  0  0  0
   54.1812   23.9618   45.2990 H   0  0  0  0  0  0  0  0  0  0  0  0
   56.1735   22.6999   45.8930 H   0  0  0  0  0  0  0  0  0  0  0  0
   58.6471   22.5082   46.0993 H   0  0  0  0  0  0  0  0  0  0  0  0
   60.0709   24.5538   46.0383 H   0  0  0  0  0  0  0  0  0  0  0  0
   59.0223   26.7983   45.7919 H   0  0  0  0  0  0  0  0  0  0  0  0
   55.5060   27.5100   46.1150 H   0  0  0  0  0  0  0  0  0  0  0  0
   57.2564   31.8008   46.6285 H   0  0  0  0  0  0  0  0  0  0  0  0
   58.3245   33.9146   45.8425 H   0  0  0  0  0  0  0  0  0  0  0  0
   58.7332   34.2829   43.4076 H   0  0  0  0  0  0  0  0  0  0  0  0
   58.0906   32.5220   41.7547 H   0  0  0  0  0  0  0  0  0  0  0  0
   57.0272   30.4041   42.5352 H   0  0  0  0  0  0  0  0  0  0  0  0
  1  2  2  0
  2  3  1  0
  3  4  2  0
  4  5  1  0
  5  6  2  0
  6  7  1  0
  7  8  2  0
  8  9  1  0
  9 10  1  0
 10 11  2  0
 10 12  1  0
 12 13  1  0
 13 14  2  0
 14 15  1  0
 15 16  2  0
 16 17  1  0
 17 18  2  0
  8  3  1  0
 18 13  1  0
  2 19  1  0
  4 20  1  0
  5 21  1  0
  6 22  1  0
  7 23  1  0
  9 24  1  0
 14 25  1  0
 15 26  1  0
 16 27  1  0
 17 28  1  0
 18 29  1  0
M  CHG  1  12  -1
M  END
>  <UniqueID>  (30) 
27

>  <SMILES>  (30) 
O=Cc1ccccc1NC(=O)[N-]c1ccccc1

>  <Energy>  (30) 
40.018824729061386

>  <Genealogy>  (30) 
O=Cc1ccccc1NC(=O)[N-]c1ccccc1 (protonated)
O=Cc1ccccc1NC(=O)[N-]c1ccccc1 (3D coordinates assigned)
O=Cc1ccccc1NC(=O)[N-]c1ccccc1 (optimized conformer: 40.018824729061386 kcal/mol)

>  <smiles>  (30) 
O=Cc1ccccc1NC(=O)Nc1ccccc1

>  <score_type>  (30) 
oracle

>  <origin>  (30) 
adg

>  <m_score__min__energy>  (30) 
-8.2799999999999994

>  <m_primary>  (30) 
energy

$$$$
30:0
     RDKit          3D

 45 47  0  0  0  0  0  0  0  0999 V2000
   59.4450   33.2300   50.2130 C   0  0  0  0  0  0  0  0  0  0  0  0
   60.4900   34.0710   49.7360 O   0  0  0  0  0  0  0  0  0  0  0  0
   61.8140   33.6520   49.5140 C   0  0  0  0  0  0  0  0  0  0  0  0
   62.6250   33.1760   50.5630 C   0  0  0  0  0  0  0  0  0  0  0  0
   63.9360   32.7670   50.3120 C   0  0  0  0  0  0  0  0  0  0  0  0
   64.4540   32.8290   49.0180 C   0  0  0  0  0  0  0  0  0  0  0  0
   63.6640   33.2980   47.9660 C   0  0  0  0  0  0  0  0  0  0  0  0
   64.1950   33.3480   46.7170 F   0  0  0  0  0  0  0  0  0  0  0  0
   62.3380   33.7130   48.2040 C   0  0  0  0  0  0  0  0  0  0  0  0
   61.4800   34.2280   47.0710 C   0  0  0  0  0  0  0  0  0  0  0  0
   60.8240   33.1050   46.3670 N   0  0  0  0  0  0  0  0  0  0  0  0
   59.3560   33.2620   46.4040 C   0  0  0  0  0  0  0  0  0  0  0  0
   58.6560   32.0340   45.8150 C   0  0  0  0  0  0  0  0  0  0  0  0
   59.0670   30.8160   46.5220 N   0  0  0  0  0  0  0  0  0  0  0  0
   58.2810   29.6160   46.3680 C   0  0  0  0  0  0  0  0  0  0  0  0
   57.3060   29.5020   45.3620 C   0  0  0  0  0  0  0  0  0  0  0  0
   56.5780   28.3180   45.2380 C   0  0  0  0  0  0  0  0  0  0  0  0
   56.8190   27.2420   46.1080 C   0  0  0  0  0  0  0  0  0  0  0  0
   56.0540   25.9790   45.9880 C   0  0  0  0  0  0  0  0  0  0  0  0
   54.6330   26.0020   45.8540 N   0  0  0  0  0  0  0  0  0  0  0  0
   56.6510   24.8690   46.0030 O   0  0  0  0  0  0  0  0  0  0  0  0
   57.8090   27.3930   47.0910 C   0  0  0  0  0  0  0  0  0  0  0  0
   58.5060   28.5560   47.1920 N   0  0  0  0  0  0  0  0  0  0  0  0
   60.2240   30.8700   47.4240 C   0  0  0  0  0  0  0  0  0  0  0  0
   61.3170   31.7800   46.8390 C   0  0  0  0  0  0  0  0  0  0  0  0
   59.4466   33.2313   51.3130 H   0  0  0  0  0  0  0  0  0  0  0  0
   58.4774   33.6042   49.8473 H   0  0  0  0  0  0  0  0  0  0  0  0
   59.6036   32.2048   49.8473 H   0  0  0  0  0  0  0  0  0  0  0  0
   62.2230   33.1263   51.5857 H   0  0  0  0  0  0  0  0  0  0  0  0
   64.5621   32.3950   51.1364 H   0  0  0  0  0  0  0  0  0  0  0  0
   65.4882   32.5074   48.8256 H   0  0  0  0  0  0  0  0  0  0  0  0
   60.7098   34.9004   47.4768 H   0  0  0  0  0  0  0  0  0  0  0  0
   62.1191   34.7702   46.3585 H   0  0  0  0  0  0  0  0  0  0  0  0
   59.0347   33.3926   47.4479 H   0  0  0  0  0  0  0  0  0  0  0  0
   59.0831   34.1419   45.8029 H   0  0  0  0  0  0  0  0  0  0  0  0
   57.5672   32.1578   45.9113 H   0  0  0  0  0  0  0  0  0  0  0  0
   58.9364   31.9404   44.7555 H   0  0  0  0  0  0  0  0  0  0  0  0
   57.1179   30.3414   44.6764 H   0  0  0  0  0  0  0  0  0  0  0  0
   55.8112   28.2269   44.4546 H   0  0  0  0  0  0  0  0  0  0  0  0
   54.0580   26.7120   46.3610 H   0  0  0  0  0  0  0  0  0  0  0  0
   58.0224   26.5657   47.7838 H   0  0  0  0  0  0  0  0  0  0  0  0
   59.9053   31.2670   48.3991 H   0  0  0  0  0  0  0  0  0  0  0  0
   60.6308   29.8551   47.5441 H   0  0  0  0  0  0  0  0  0  0  0  0
   62.0752   31.9518   47.6172 H   0  0  0  0  0  0  0  0  0  0  0  0
   61.7200   31.2612   45.9567 H   0  0  0  0  0  0  0  0  0  0  0  0
  1  2  1  0
  2  3  1  0
  3  4  2  0
  4  5  1  0
  5  6  2  0
  6  7  1  0
  7  8  1  0
  7  9  2  0
  9 10  1  0
 10 11  1  0
 11 12  1  0
 12 13  1  0
 13 14  1  0
 14 15  1  0
 15 16  2  0
 16 17  1  0
 17 18  2  0
 18 19  1  0
 19 20  1  0
 19 21  2  0
 18 22  1  0
 22 23  2  0
 14 24  1  0
 24 25  1  0
  9  3  1  0
 25 11  1  0
 23 15  1  0
  1 26  1  0
  1 27  1  0
  1 28  1  0
  4 29  1  0
  5 30  1  0
  6 31  1  0
 10 32  1  0
 10 33  1  0
 12 34  1  0
 12 35  1  0
 13 36  1  0
 13 37  1  0
 16 38  1  0
 17 39  1  0
 20 40  1  0
 22 41  1  0
 24 42  1  0
 24 43  1  0
 25 44  1  0
 25 45  1  0
M  CHG  1  20  -1
M  END
>  <UniqueID>  (31) 
28

>  <SMILES>  (31) 
COc1cccc(F)c1CN1CCN(c2ccc(C([NH-])=O)cn2)CC1

>  <Energy>  (31) 
56.63068873998856

>  <Genealogy>  (31) 
COc1cccc(F)c1CN1CCN(c2ccc(C([NH-])=O)cn2)CC1 (protonated)
COc1cccc(F)c1CN1CCN(c2ccc(C([NH-])=O)cn2)CC1 (3D coordinates assigned)
COc1cccc(F)c1CN1CCN(c2ccc(C([NH-])=O)cn2)CC1 (nonaromatic ring conformer: 56.63068873998856 kcal/mol)

>  <smiles>  (31) 
COc1cccc(F)c1CN1CCN(c2ccc(C(N)=O)cn2)CC1

>  <score_type>  (31) 
oracle

>  <origin>  (31) 
adg

>  <m_score__min__energy>  (31) 
-9.3399999999999999

>  <m_primary>  (31) 
energy

$$$$
31:0
     RDKit          3D

 57 61  0  0  0  0  0  0  0  0999 V2000
   58.1840   25.1400   47.5410 O   0  0  0  0  0  0  0  0  0  0  0  0
   57.2290   25.4100   46.7650 C   0  0  0  0  0  0  0  0  0  0  0  0
   55.9040   25.0290   47.1550 N   0  0  0  0  0  0  0  0  0  0  0  0
   55.1400   23.9400   46.6190 C   0  0  0  0  0  0  0  0  0  0  0  0
   55.5630   22.6260   46.8460 C   0  0  0  0  0  0  0  0  0  0  0  0
   54.8020   21.5800   46.3190 C   0  0  0  0  0  0  0  0  0  0  0  0
   55.1620   20.3850   46.4920 O   0  0  0  0  0  0  0  0  0  0  0  0
   53.6720   21.8520   45.6150 N   0  0  0  0  0  0  0  0  0  0  0  0
   53.2650   23.1350   45.4190 C   0  0  0  0  0  0  0  0  0  0  0  0
   52.2150   23.3680   44.7680 O   0  0  0  0  0  0  0  0  0  0  0  0
   53.9930   24.1660   45.9210 N   0  0  0  0  0  0  0  0  0  0  0  0
   57.5150   26.0740   45.4730 C   0  0  0  0  0  0  0  0  0  0  0  0
   57.4870   25.3340   44.2810 C   0  0  0  0  0  0  0  0  0  0  0  0
   57.7450   25.9570   43.0540 C   0  0  0  0  0  0  0  0  0  0  0  0
   58.0520   27.3190   43.0100 C   0  0  0  0  0  0  0  0  0  0  0  0
   58.0950   28.0680   44.1950 C   0  0  0  0  0  0  0  0  0  0  0  0
   58.4450   29.4530   44.1820 N   0  0  0  0  0  0  0  0  0  0  0  0
   57.2560   30.7130   44.1150 S   0  0  0  0  0  0  0  0  0  0  0  0
   56.0060   30.2480   44.8100 O   0  0  0  0  0  0  0  0  0  0  0  0
   56.9160   30.9830   42.6760 O   0  0  0  0  0  0  0  0  0  0  0  0
   57.8440   32.2000   44.8540 C   0  0  0  0  0  0  0  0  0  0  0  0
   57.4320   33.4460   44.3580 C   0  0  0  0  0  0  0  0  0  0  0  0
   57.9110   34.6230   44.9350 C   0  0  0  0  0  0  0  0  0  0  0  0
   58.8140   34.5660   46.0000 C   0  0  0  0  0  0  0  0  0  0  0  0
   59.2550   33.3240   46.4980 C   0  0  0  0  0  0  0  0  0  0  0  0
   60.2320   33.2520   47.6120 C   0  0  0  0  0  0  0  0  0  0  0  0
   60.2370   34.1540   48.4950 O   0  0  0  0  0  0  0  0  0  0  0  0
   61.1320   32.1360   47.7310 N   0  0  0  0  0  0  0  0  0  0  0  0
   62.3640   32.1760   48.4740 C   0  0  0  0  0  0  0  0  0  0  0  0
   63.3080   33.1790   48.1900 C   0  0  0  0  0  0  0  0  0  0  0  0
   64.5070   33.2490   48.9060 C   0  0  0  0  0  0  0  0  0  0  0  0
   64.7680   32.3240   49.9190 C   0  0  0  0  0  0  0  0  0  0  0  0
   63.8110   31.3560   50.2480 C   0  0  0  0  0  0  0  0  0  0  0  0
   62.6160   31.2740   49.5270 C   0  0  0  0  0  0  0  0  0  0  0  0
   64.0690   30.4800   51.3060 O   0  0  0  0  0  0  0  0  0  0  0  0
   65.1520   30.7130   52.2110 C   0  0  0  0  0  0  0  0  0  0  0  0
   66.3700   31.2580   51.4530 C   0  0  0  0  0  0  0  0  0  0  0  0
   65.9810   32.3480   50.6140 O   0  0  0  0  0  0  0  0  0  0  0  0
   58.7460   32.1430   45.9240 C   0  0  0  0  0  0  0  0  0  0  0  0
   57.7880   27.4530   45.4160 C   0  0  0  0  0  0  0  0  0  0  0  0
   56.4746   22.4211   47.4266 H   0  0  0  0  0  0  0  0  0  0  0  0
   57.2610   24.2579   44.3108 H   0  0  0  0  0  0  0  0  0  0  0  0
   57.7059   25.3728   42.1228 H   0  0  0  0  0  0  0  0  0  0  0  0
   58.2602   27.8045   42.0451 H   0  0  0  0  0  0  0  0  0  0  0  0
   56.7300   33.4953   43.5126 H   0  0  0  0  0  0  0  0  0  0  0  0
   57.5769   35.5980   44.5505 H   0  0  0  0  0  0  0  0  0  0  0  0
   59.1833   35.4979   46.4529 H   0  0  0  0  0  0  0  0  0  0  0  0
   60.8340   31.2180   47.3320 H   0  0  0  0  0  0  0  0  0  0  0  0
   63.1015   33.9143   47.3983 H   0  0  0  0  0  0  0  0  0  0  0  0
   65.2436   34.0316   48.6716 H   0  0  0  0  0  0  0  0  0  0  0  0
   61.8720   30.5049   49.7818 H   0  0  0  0  0  0  0  0  0  0  0  0
   64.8396   31.4450   52.9704 H   0  0  0  0  0  0  0  0  0  0  0  0
   65.4260   29.7635   52.6940 H   0  0  0  0  0  0  0  0  0  0  0  0
   67.1222   31.6063   52.1761 H   0  0  0  0  0  0  0  0  0  0  0  0
   66.7926   30.4570   50.8286 H   0  0  0  0  0  0  0  0  0  0  0  0
   59.0600   31.1660   46.3200 H   0  0  0  0  0  0  0  0  0  0  0  0
   57.7602   28.0532   46.3374 H   0  0  0  0  0  0  0  0  0  0  0  0
  1  2  2  0
  2  3  1  0
  3  4  1  0
  4  5  2  0
  5  6  1  0
  6  7  2  0
  6  8  1  0
  8  9  1  0
  9 10  2  0
  9 11  1  0
  2 12  1  0
 12 13  2  0
 13 14  1  0
 14 15  2  0
 15 16  1  0
 16 17  1  0
 17 18  1  0
 18 19  2  0
 18 20  2  0
 18 21  1  0
 21 22  2  0
 22 23  1  0
 23 24  2  0
 24 25  1  0
 25 26  1  0
 26 27  2  0
 26 28  1  0
 28 29  1  0
 29 30  2  0
 30 31  1  0
 31 32  2  0
 32 33  1  0
 33 34  2  0
 33 35  1  0
 35 36  1  0
 36 37  1  0
 37 38  1  0
 25 39  2  0
 16 40  2  0
 11  4  1  0
 40 12  1  0
 39 21  1  0
 34 29  1  0
 38 32  1  0
  5 41  1  0
 13 42  1  0
 14 43  1  0
 15 44  1  0
 22 45  1  0
 23 46  1  0
 24 47  1  0
 28 48  1  0
 30 49  1  0
 31 50  1  0
 34 51  1  0
 36 52  1  0
 36 53  1  0
 37 54  1  0
 37 55  1  0
 39 56  1  0
 40 57  1  0
M  CHG  4   3  -1   8  -1  11  -1  17  -1
M  END
>  <UniqueID>  (32) 
29

>  <SMILES>  (32) 
O=C([N-]c1cc(=O)[n-]c(=O)[n-]1)c1cccc([N-]S(=O)(=O)c2cccc(C(=O)Nc3ccc4c(c3)OCCO4)c2)c1

>  <Energy>  (32) 
84.301213147118

>  <Genealogy>  (32) 
O=C([N-]c1cc(=O)[n-]c(=O)[n-]1)c1cccc([N-]S(=O)(=O)c2cccc(C(=O)Nc3ccc4c(c3)OCCO4)c2)c1 (protonated)
O=C([N-]c1cc(=O)[n-]c(=O)[n-]1)c1cccc([N-]S(=O)(=O)c2cccc(C(=O)Nc3ccc4c(c3)OCCO4)c2)c1 (3D coordinates assigned)
O=C([N-]c1cc(=O)[n-]c(=O)[n-]1)c1cccc([N-]S(=O)(=O)c2cccc(C(=O)Nc3ccc4c(c3)OCCO4)c2)c1 (nonaromatic ring conformer: 84.301213147118 kcal/mol)

>  <smiles>  (32) 
O=C(Nc1ccc2c(c1)OCCO2)c1cccc(S(=O)(=O)Nc2cccc(C(=O)Nc3cc(=O)[nH]c(=O)[nH]3)c2)c1

>  <score_type>  (32) 
oracle

>  <origin>  (32) 
adg

>  <m_score__min__energy>  (32) 
-17.640000000000001

>  <m_primary>  (32) 
energy

$$$$
32:0
     RDKit          3D

 41 43  0  0  0  0  0  0  0  0999 V2000
   55.8890   29.6890   42.5930 N   0  0  0  0  0  0  0  0  0  0  0  0
   56.4670   29.8860   43.8840 C   0  0  0  0  0  0  0  0  0  0  0  0
   56.3790   28.9700   44.7450 O   0  0  0  0  0  0  0  0  0  0  0  0
   57.1410   31.1180   44.1850 N   0  0  0  0  0  0  0  0  0  0  0  0
   57.7540   31.4100   45.4550 C   0  0  0  0  0  0  0  0  0  0  0  0
   57.7180   30.5600   46.3850 O   0  0  0  0  0  0  0  0  0  0  0  0
   58.4300   32.7080   45.6790 C   0  0  0  0  0  0  0  0  0  0  0  0
   59.1200   32.9690   46.8770 C   0  0  0  0  0  0  0  0  0  0  0  0
   59.7600   34.2070   47.0560 C   0  0  0  0  0  0  0  0  0  0  0  0
   60.4490   34.5230   48.2360 O   0  0  0  0  0  0  0  0  0  0  0  0
   61.6840   33.9840   48.6260 C   0  0  0  0  0  0  0  0  0  0  0  0
   62.4840   33.2310   47.7520 C   0  0  0  0  0  0  0  0  0  0  0  0
   63.7120   32.7300   48.1840 C   0  0  0  0  0  0  0  0  0  0  0  0
   64.1480   32.9950   49.4930 C   0  0  0  0  0  0  0  0  0  0  0  0
   65.4430   32.4800   49.9850 C   0  0  0  0  0  0  0  0  0  0  0  0
   66.5120   33.0840   49.7000 O   0  0  0  0  0  0  0  0  0  0  0  0
   65.5090   31.2980   50.7850 N   0  0  0  0  0  0  0  0  0  0  0  0
   66.5700   30.5010   51.4310 C   0  0  0  0  0  0  0  0  0  0  0  0
   65.6540   29.4720   52.0210 C   0  0  0  0  0  0  0  0  0  0  0  0
   65.5960   29.4960   53.4300 O   0  0  0  0  0  0  0  0  0  0  0  0
   64.5910   30.2890   51.3530 C   0  0  0  0  0  0  0  0  0  0  0  0
   63.3610   33.7440   50.3140 N   0  0  0  0  0  0  0  0  0  0  0  0
   62.1610   34.2420   49.9140 C   0  0  0  0  0  0  0  0  0  0  0  0
   59.6710   35.1730   46.0510 C   0  0  0  0  0  0  0  0  0  0  0  0
   58.9780   34.8820   44.8750 C   0  0  0  0  0  0  0  0  0  0  0  0
   58.3840   33.6710   44.7170 N   0  0  0  0  0  0  0  0  0  0  0  0
   55.3990   28.7960   42.3660 H   0  0  0  0  0  0  0  0  0  0  0  0
   55.9520   30.4340   41.8640 H   0  0  0  0  0  0  0  0  0  0  0  0
   57.1820   31.8380   43.4290 H   0  0  0  0  0  0  0  0  0  0  0  0
   59.1583   32.2074   47.6698 H   0  0  0  0  0  0  0  0  0  0  0  0
   62.1419   33.0358   46.7249 H   0  0  0  0  0  0  0  0  0  0  0  0
   64.3353   32.1310   47.5038 H   0  0  0  0  0  0  0  0  0  0  0  0
   67.2803   30.0734   50.7081 H   0  0  0  0  0  0  0  0  0  0  0  0
   67.2442   31.0284   52.1218 H   0  0  0  0  0  0  0  0  0  0  0  0
   65.7752   28.3875   51.8826 H   0  0  0  0  0  0  0  0  0  0  0  0
   66.1420   30.2550   53.7670 H   0  0  0  0  0  0  0  0  0  0  0  0
   64.0456   29.7274   50.5803 H   0  0  0  0  0  0  0  0  0  0  0  0
   63.7685   30.6565   51.9842 H   0  0  0  0  0  0  0  0  0  0  0  0
   61.5625   34.8510   50.6075 H   0  0  0  0  0  0  0  0  0  0  0  0
   60.1441   36.1569   46.1856 H   0  0  0  0  0  0  0  0  0  0  0  0
   58.9129   35.6344   44.0752 H   0  0  0  0  0  0  0  0  0  0  0  0
  1  2  1  0
  2  3  2  0
  2  4  1  0
  4  5  1  0
  5  6  2  0
  5  7  1  0
  7  8  2  0
  8  9  1  0
  9 10  1  0
 10 11  1  0
 11 12  2  0
 12 13  1  0
 13 14  2  0
 14 15  1  0
 15 16  2  0
 15 17  1  0
 17 18  1  0
 18 19  1  0
 19 20  1  0
 19 21  1  0
 14 22  1  0
 22 23  2  0
  9 24  2  0
 24 25  1  0
 25 26  2  0
 26  7  1  0
 23 11  1  0
 21 17  1  0
  1 27  1  0
  1 28  1  0
  4 29  1  0
  8 30  1  0
 12 31  1  0
 13 32  1  0
 18 33  1  0
 18 34  1  0
 19 35  1  0
 20 36  1  0
 21 37  1  0
 21 38  1  0
 23 39  1  0
 24 40  1  0
 25 41  1  0
M  END
>  <UniqueID>  (33) 
30

>  <SMILES>  (33) 
NC(=O)NC(=O)c1cc(Oc2ccc(C(=O)N3CC(O)C3)nc2)ccn1

>  <Energy>  (33) 
95.86664769680868

>  <Genealogy>  (33) 
NC(=O)NC(=O)c1cc(Oc2ccc(C(=O)N3CC(O)C3)nc2)ccn1 (3D coordinates assigned)
NC(=O)NC(=O)c1cc(Oc2ccc(C(=O)N3CC(O)C3)nc2)ccn1 (nonaromatic ring conformer: 95.86664769680868 kcal/mol)

>  <smiles>  (33) 
NC(=O)NC(=O)c1cc(Oc2ccc(C(=O)N3CC(O)C3)nc2)ccn1

>  <score_type>  (33) 
oracle

>  <origin>  (33) 
adg

>  <m_score__min__energy>  (33) 
-8.5600000000000005

>  <m_primary>  (33) 
energy

$$$$
33:0
     RDKit          3D

 33 35  0  0  0  0  0  0  0  0999 V2000
   57.6605   34.3738   45.2897 H   0  0  0  0  0  0  0  0  0  0  0  0
   57.7850   33.2840   45.3730 C   0  0  0  0  0  0  0  0  0  0  0  0
   56.8810   32.4550   44.7900 N   0  0  0  0  0  0  0  0  0  0  0  0
   56.9850   31.1030   44.8670 C   0  0  0  0  0  0  0  0  0  0  0  0
   56.1280   30.3870   44.2840 O   0  0  0  0  0  0  0  0  0  0  0  0
   58.0540   30.5170   45.5730 C   0  0  0  0  0  0  0  0  0  0  0  0
   58.2000   29.0440   45.6920 C   0  0  0  0  0  0  0  0  0  0  0  0
   59.4460   28.4310   45.4890 C   0  0  0  0  0  0  0  0  0  0  0  0
   60.3255   29.0460   45.2475 H   0  0  0  0  0  0  0  0  0  0  0  0
   59.5750   27.0450   45.5920 C   0  0  0  0  0  0  0  0  0  0  0  0
   60.5561   26.5731   45.4346 H   0  0  0  0  0  0  0  0  0  0  0  0
   58.4640   26.2550   45.8940 C   0  0  0  0  0  0  0  0  0  0  0  0
   58.5753   25.1636   45.9751 H   0  0  0  0  0  0  0  0  0  0  0  0
   57.2050   26.8450   46.0950 C   0  0  0  0  0  0  0  0  0  0  0  0
   56.0600   26.0280   46.4040 N   0  0  0  0  0  0  0  0  0  0  0  0
   54.9250   26.3390   45.9870 O   0  0  0  0  0  0  0  0  0  0  0  0
   56.1990   24.8900   47.1650 O   0  0  0  0  0  0  0  0  0  0  0  0
   57.0820   28.2440   45.9900 C   0  0  0  0  0  0  0  0  0  0  0  0
   56.1005   28.7165   46.1428 H   0  0  0  0  0  0  0  0  0  0  0  0
   59.0010   31.3640   46.1740 C   0  0  0  0  0  0  0  0  0  0  0  0
   59.8488   30.9288   46.7234 H   0  0  0  0  0  0  0  0  0  0  0  0
   58.8770   32.7590   46.0810 C   0  0  0  0  0  0  0  0  0  0  0  0
   59.8700   33.6570   46.7170 C   0  0  0  0  0  0  0  0  0  0  0  0
   59.4770   34.6930   47.3190 O   0  0  0  0  0  0  0  0  0  0  0  0
   61.2710   33.3380   46.6400 N   0  0  0  0  0  0  0  0  0  0  0  0
   62.1670   33.4550   47.5770 C   0  0  0  0  0  0  0  0  0  0  0  0
   63.7040   32.7550   47.6010 S   0  0  0  0  0  0  0  0  0  0  0  0
   64.1030   33.4200   49.0970 C   0  0  0  0  0  0  0  0  0  0  0  0
   65.0538   33.2822   49.6327 H   0  0  0  0  0  0  0  0  0  0  0  0
   63.0190   34.1740   49.5360 C   0  0  0  0  0  0  0  0  0  0  0  0
   63.0228   34.7170   50.4926 H   0  0  0  0  0  0  0  0  0  0  0  0
   61.9550   34.1870   48.6900 N   0  0  0  0  0  0  0  0  0  0  0  0
   61.0720   34.7100   48.8860 H   0  0  0  0  0  0  0  0  0  0  0  0
  1  2  1  0
  2  3  1  0
  3  4  1  0
  4  5  2  0
  4  6  1  0
  6  7  1  0
  7  8  2  0
  8  9  1  0
  8 10  1  0
 10 11  1  0
 10 12  2  0
 12 13  1  0
 12 14  1  0
 14 15  1  0
 15 16  2  0
 15 17  1  0
 14 18  2  0
 18 19  1  0
  6 20  2  0
 20 21  1  0
 20 22  1  0
 22 23  1  0
 23 24  2  0
 23 25  1  0
 25 26  2  0
 26 27  1  0
 27 28  1  0
 28 29  1  0
 28 30  2  0
 30 31  1  0
 30 32  1  0
 32 33  1  0
 22  2  2  0
 32 26  1  0
 18  7  1  0
M  CHG  3   3  -1  15   1  17  -1
M  END
>  <UniqueID>  (34) 
31

>  <SMILES>  (34) 
O=C(/N=c1/[nH]ccs1)c1c[n-]c(=O)c(-c2cccc([N+](=O)[O-])c2)c1

>  <Energy>  (34) 
78.92005044511767

>  <Genealogy>  (34) 
O=C(N=c1[nH]ccs1)c1c[n-]c(=O)c(-c2cccc([N+](=O)[O-])c2)c1 (protonated)
O=C(/N=c1/[nH]ccs1)c1c[n-]c(=O)c(-c2cccc([N+](=O)[O-])c2)c1 (cis-trans isomerization)
O=C(/N=c1/[nH]ccs1)c1c[n-]c(=O)c(-c2cccc([N+](=O)[O-])c2)c1 (3D coordinates assigned)
O=C(/N=c1/[nH]ccs1)c1c[n-]c(=O)c(-c2cccc([N+](=O)[O-])c2)c1 (optimized conformer: 78.92005044511767 kcal/mol)

>  <smiles>  (34) 
O=C(N=c1[nH]ccs1)c1c[nH]c(=O)c(-c2cccc([N+](=O)[O-])c2)c1

>  <score_type>  (34) 
oracle

>  <origin>  (34) 
adg

>  <m_score__min__energy>  (34) 
-9.9600000000000009

>  <m_primary>  (34) 
energy

$$$$
34:0
     RDKit          3D

 55 58  0  0  0  0  0  0  0  0999 V2000
   60.2974   26.2751   46.7876 H   0  0  0  0  0  0  0  0  0  0  0  0
   59.2140   26.3620   46.6180 C   0  0  0  0  0  0  0  0  0  0  0  0
   58.7410   27.2070   45.6630 N   0  0  0  0  0  0  0  0  0  0  0  0
   57.4060   27.3460   45.4160 C   0  0  0  0  0  0  0  0  0  0  0  0
   56.9700   28.1560   44.4930 N   0  0  0  0  0  0  0  0  0  0  0  0
   56.3060   29.4170   44.6880 C   0  0  0  0  0  0  0  0  0  0  0  0
   55.1580   29.4640   45.2090 O   0  0  0  0  0  0  0  0  0  0  0  0
   56.9720   30.6740   44.2680 C   0  0  0  0  0  0  0  0  0  0  0  0
   57.0340   31.0320   42.9090 C   0  0  0  0  0  0  0  0  0  0  0  0
   56.5894   30.3717   42.1498 H   0  0  0  0  0  0  0  0  0  0  0  0
   57.6560   32.2200   42.5160 C   0  0  0  0  0  0  0  0  0  0  0  0
   57.7100   32.6630   40.8190 Cl  0  0  0  0  0  0  0  0  0  0  0  0
   58.2320   33.0600   43.4720 C   0  0  0  0  0  0  0  0  0  0  0  0
   58.7102   33.9997   43.1586 H   0  0  0  0  0  0  0  0  0  0  0  0
   58.2030   32.7100   44.8300 C   0  0  0  0  0  0  0  0  0  0  0  0
   58.8000   33.5950   45.8530 C   0  0  0  0  0  0  0  0  0  0  0  0
   58.5760   34.8330   45.7920 O   0  0  0  0  0  0  0  0  0  0  0  0
   59.6150   33.0980   46.9240 N   0  0  0  0  0  0  0  0  0  0  0  0
   60.9170   32.4440   46.7870 C   0  0  0  0  0  0  0  0  0  0  0  0
   60.8859   31.6947   45.9822 H   0  0  0  0  0  0  0  0  0  0  0  0
   61.9930   33.4850   46.4020 C   0  0  0  0  0  0  0  0  0  0  0  0
   62.7090   33.0198   45.7085 H   0  0  0  0  0  0  0  0  0  0  0  0
   61.4916   34.3421   45.9288 H   0  0  0  0  0  0  0  0  0  0  0  0
   62.7500   33.9900   47.6360 C   0  0  0  0  0  0  0  0  0  0  0  0
   63.4792   34.7501   47.3190 H   0  0  0  0  0  0  0  0  0  0  0  0
   62.0148   34.4124   48.3368 H   0  0  0  0  0  0  0  0  0  0  0  0
   63.4720   32.8930   48.3330 N   0  0  0  0  0  0  0  0  0  0  0  0
   63.7980   33.2680   49.7260 C   0  0  0  0  0  0  0  0  0  0  0  0
   64.0303   34.3425   49.7642 H   0  0  0  0  0  0  0  0  0  0  0  0
   62.9310   33.0380   50.3627 H   0  0  0  0  0  0  0  0  0  0  0  0
   64.9850   32.4890   50.2320 C   0  0  0  0  0  0  0  0  0  0  0  0
   64.8100   31.2390   50.8480 C   0  0  0  0  0  0  0  0  0  0  0  0
   63.8006   30.8130   50.9461 H   0  0  0  0  0  0  0  0  0  0  0  0
   65.9140   30.5340   51.3370 C   0  0  0  0  0  0  0  0  0  0  0  0
   65.7722   29.5538   51.8157 H   0  0  0  0  0  0  0  0  0  0  0  0
   67.1980   31.0740   51.2180 C   0  0  0  0  0  0  0  0  0  0  0  0
   68.0661   30.5177   51.6012 H   0  0  0  0  0  0  0  0  0  0  0  0
   67.3790   32.3210   50.6120 C   0  0  0  0  0  0  0  0  0  0  0  0
   68.3896   32.7453   50.5192 H   0  0  0  0  0  0  0  0  0  0  0  0
   66.2770   33.0290   50.1240 C   0  0  0  0  0  0  0  0  0  0  0  0
   66.4222   34.0127   49.6537 H   0  0  0  0  0  0  0  0  0  0  0  0
   62.7760   31.5790   48.2740 C   0  0  0  0  0  0  0  0  0  0  0  0
   63.1730   31.0081   47.4217 H   0  0  0  0  0  0  0  0  0  0  0  0
   62.9577   31.0629   49.2283 H   0  0  0  0  0  0  0  0  0  0  0  0
   61.2570   31.7220   48.1050 C   0  0  0  0  0  0  0  0  0  0  0  0
   60.7997   30.7216   48.0962 H   0  0  0  0  0  0  0  0  0  0  0  0
   60.8641   32.3162   48.9432 H   0  0  0  0  0  0  0  0  0  0  0  0
   57.5560   31.5270   45.2230 C   0  0  0  0  0  0  0  0  0  0  0  0
   57.5051   31.2640   46.2899 H   0  0  0  0  0  0  0  0  0  0  0  0
   56.4870   26.5980   46.1670 C   0  0  0  0  0  0  0  0  0  0  0  0
   55.1190   26.7170   45.9400 O   0  0  0  0  0  0  0  0  0  0  0  0
   56.9530   25.7260   47.1540 C   0  0  0  0  0  0  0  0  0  0  0  0
   56.2406   25.1361   47.7494 H   0  0  0  0  0  0  0  0  0  0  0  0
   58.3250   25.6050   47.3830 C   0  0  0  0  0  0  0  0  0  0  0  0
   58.7012   24.9207   48.1577 H   0  0  0  0  0  0  0  0  0  0  0  0
  1  2  1  0
  2  3  1  0
  3  4  1  0
  4  5  2  0
  5  6  1  0
  6  7  2  0
  6  8  1  0
  8  9  2  0
  9 10  1  0
  9 11  1  0
 11 12  1  0
 11 13  2  0
 13 14  1  0
 13 15  1  0
 15 16  1  0
 16 17  2  0
 16 18  1  0
 18 19  1  0
 19 20  1  0
 19 21  1  0
 21 22  1  0
 21 23  1  0
 21 24  1  0
 24 25  1  0
 24 26  1  0
 24 27  1  0
 27 28  1  0
 28 29  1  0
 28 30  1  0
 28 31  1  0
 31 32  2  0
 32 33  1  0
 32 34  1  0
 34 35  1  0
 34 36  2  0
 36 37  1  0
 36 38  1  0
 38 39  1  0
 38 40  2  0
 40 41  1  0
 27 42  1  0
 42 43  1  0
 42 44  1  0
 42 45  1  0
 45 46  1  0
 45 47  1  0
 15 48  2  0
 48 49  1  0
  4 50  1  0
 50 51  1  0
 50 52  2  0
 52 53  1  0
 52 54  1  0
 54 55  1  0
 54  2  2  0
 48  8  1  0
 45 19  1  0
 40 31  1  0
M  CHG  3   3  -1  18  -1  51  -1
M  END
>  <UniqueID>  (35) 
32

>  <SMILES>  (35) 
O=C(/N=c1\[n-]cccc1[O-])c1cc(Cl)cc(C(=O)[N-]C2CCN(Cc3ccccc3)CC2)c1

>  <Energy>  (35) 
77.0845934384703

>  <Genealogy>  (35) 
O=C(N=c1[n-]cccc1[O-])c1cc(Cl)cc(C(=O)[N-]C2CCN(Cc3ccccc3)CC2)c1 (protonated)
O=C(/N=c1\[n-]cccc1[O-])c1cc(Cl)cc(C(=O)[N-]C2CCN(Cc3ccccc3)CC2)c1 (cis-trans isomerization)
O=C(/N=c1\[n-]cccc1[O-])c1cc(Cl)cc(C(=O)[N-]C2CCN(Cc3ccccc3)CC2)c1 (3D coordinates assigned)
O=C(/N=c1\[n-]cccc1[O-])c1cc(Cl)cc(C(=O)[N-]C2CCN(Cc3ccccc3)CC2)c1 (nonaromatic ring conformer: 77.0845934384703 kcal/mol)

>  <smiles>  (35) 
O=C(N=c1[nH]cccc1O)c1cc(Cl)cc(C(=O)NC2CCN(Cc3ccccc3)CC2)c1

>  <score_type>  (35) 
oracle

>  <origin>  (35) 
adg

>  <m_score__min__energy>  (35) 
-16.449999999999999

>  <m_primary>  (35) 
energy

$$$$
35:0
     RDKit          3D

 45 47  0  0  0  0  0  0  0  0999 V2000
   55.1430   27.9310   45.0060 H   0  0  0  0  0  0  0  0  0  0  0  0
   55.6160   27.3090   45.6520 O   0  0  0  0  0  0  0  0  0  0  0  0
   57.0060   27.2870   45.7610 C   0  0  0  0  0  0  0  0  0  0  0  0
   57.6170   26.4860   46.7370 C   0  0  0  0  0  0  0  0  0  0  0  0
   56.9975   25.8854   47.4193 H   0  0  0  0  0  0  0  0  0  0  0  0
   59.0100   26.4480   46.8460 C   0  0  0  0  0  0  0  0  0  0  0  0
   59.4844   25.8203   47.6147 H   0  0  0  0  0  0  0  0  0  0  0  0
   59.8000   27.2070   45.9790 C   0  0  0  0  0  0  0  0  0  0  0  0
   60.8962   27.1747   46.0641 H   0  0  0  0  0  0  0  0  0  0  0  0
   59.1990   28.0070   45.0040 C   0  0  0  0  0  0  0  0  0  0  0  0
   59.8259   28.5949   44.3175 H   0  0  0  0  0  0  0  0  0  0  0  0
   57.7990   28.0660   44.8940 C   0  0  0  0  0  0  0  0  0  0  0  0
   57.1700   28.9060   43.8130 C   0  0  0  0  0  0  0  0  0  0  0  0
   56.5253   28.2717   43.1869 H   0  0  0  0  0  0  0  0  0  0  0  0
   57.9624   29.3546   43.1958 H   0  0  0  0  0  0  0  0  0  0  0  0
   56.3490   29.9940   44.4270 C   0  0  0  0  0  0  0  0  0  0  0  0
   55.1980   29.7320   44.8720 O   0  0  0  0  0  0  0  0  0  0  0  0
   56.8780   31.3240   44.4990 N   0  0  0  0  0  0  0  0  0  0  0  0
   57.7510   31.8390   45.5140 C   0  0  0  0  0  0  0  0  0  0  0  0
   58.4730   30.9340   46.3020 C   0  0  0  0  0  0  0  0  0  0  0  0
   58.3753   29.8534   46.1209 H   0  0  0  0  0  0  0  0  0  0  0  0
   59.3170   31.3940   47.3170 C   0  0  0  0  0  0  0  0  0  0  0  0
   59.8924   30.6757   47.9195 H   0  0  0  0  0  0  0  0  0  0  0  0
   59.4320   32.7670   47.5690 C   0  0  0  0  0  0  0  0  0  0  0  0
   60.5050   33.3540   48.8350 S   0  0  0  0  0  0  0  0  0  0  0  0
   61.2220   34.5870   48.3600 O   0  0  0  0  0  0  0  0  0  0  0  0
   61.5140   32.2910   49.1650 O   0  0  0  0  0  0  0  0  0  0  0  0
   59.5590   33.7290   50.2400 N   0  0  0  0  0  0  0  0  0  0  0  0
   58.8250   32.8630   50.8730 C   0  0  0  0  0  0  0  0  0  0  0  0
   58.5930   31.6310   50.3350 N   0  0  0  0  0  0  0  0  0  0  0  0
   57.8320   30.6990   50.9660 C   0  0  0  0  0  0  0  0  0  0  0  0
   57.6678   29.7163   50.4997 H   0  0  0  0  0  0  0  0  0  0  0  0
   57.2590   30.9870   52.2040 C   0  0  0  0  0  0  0  0  0  0  0  0
   56.6422   30.2358   52.7190 H   0  0  0  0  0  0  0  0  0  0  0  0
   57.4760   32.2380   52.7830 C   0  0  0  0  0  0  0  0  0  0  0  0
   57.0302   32.4749   53.7603 H   0  0  0  0  0  0  0  0  0  0  0  0
   58.2610   33.1940   52.1220 C   0  0  0  0  0  0  0  0  0  0  0  0
   58.4970   34.5420   52.7490 C   0  0  0  0  0  0  0  0  0  0  0  0
   58.4800   34.4448   53.8446 H   0  0  0  0  0  0  0  0  0  0  0  0
   59.4764   34.9282   52.4303 H   0  0  0  0  0  0  0  0  0  0  0  0
   57.7070   35.2380   52.4303 H   0  0  0  0  0  0  0  0  0  0  0  0
   58.6990   33.6760   46.7940 C   0  0  0  0  0  0  0  0  0  0  0  0
   58.7878   34.7555   46.9855 H   0  0  0  0  0  0  0  0  0  0  0  0
   57.8550   33.2160   45.7780 C   0  0  0  0  0  0  0  0  0  0  0  0
   57.2707   33.9339   45.1836 H   0  0  0  0  0  0  0  0  0  0  0  0
  1  2  1  0
  2  3  1  0
  3  4  2  0
  4  5  1  0
  4  6  1  0
  6  7  1  0
  6  8  2  0
  8  9  1  0
  8 10  1  0
 10 11  1  0
 10 12  2  0
 12 13  1  0
 13 14  1  0
 13 15  1  0
 13 16  1  0
 16 17  2  0
 16 18  1  0
 18 19  1  0
 19 20  2  0
 20 21  1  0
 20 22  1  0
 22 23  1  0
 22 24  2  0
 24 25  1  0
 25 26  2  0
 25 27  2  0
 25 28  1  0
 28 29  2  0
 29 30  1  0
 30 31  1  0
 31 32  1  0
 31 33  2  0
 33 34  1  0
 33 35  1  0
 35 36  1  0
 35 37  2  0
 37 38  1  0
 38 39  1  0
 38 40  1  0
 38 41  1  0
 24 42  1  0
 42 43  1  0
 42 44  2  0
 44 45  1  0
 12  3  1  0
 44 19  1  0
 37 29  1  0
M  CHG  2  18  -1  30  -1
M  END
>  <UniqueID>  (36) 
33

>  <SMILES>  (36) 
Cc1ccc[n-]/c1=N\S(=O)(=O)c1ccc([N-]C(=O)Cc2ccccc2O)cc1

>  <Energy>  (36) 
53.96376458607462

>  <Genealogy>  (36) 
Cc1ccc[n-]c1=NS(=O)(=O)c1ccc([N-]C(=O)Cc2ccccc2O)cc1 (protonated)
Cc1ccc[n-]/c1=N\S(=O)(=O)c1ccc([N-]C(=O)Cc2ccccc2O)cc1 (cis-trans isomerization)
Cc1ccc[n-]/c1=N\S(=O)(=O)c1ccc([N-]C(=O)Cc2ccccc2O)cc1 (3D coordinates assigned)
Cc1ccc[n-]/c1=N\S(=O)(=O)c1ccc([N-]C(=O)Cc2ccccc2O)cc1 (optimized conformer: 53.96376458607462 kcal/mol)

>  <smiles>  (36) 
Cc1ccc[nH]c1=NS(=O)(=O)c1ccc(NC(=O)Cc2ccccc2O)cc1

>  <score_type>  (36) 
oracle

>  <origin>  (36) 
adg

>  <m_score__min__energy>  (36) 
-12.42

>  <m_primary>  (36) 
energy

$$$$
36:0
     RDKit          3D

 66 69  0  0  0  0  0  0  0  0999 V2000
   57.9850   32.9910   46.0570 C   0  0  0  0  0  0  0  0  0  0  0  0
   57.7720   32.2930   44.7550 C   0  0  0  0  0  0  0  0  0  0  0  0
   57.8540   32.9020   43.5540 N   0  0  0  0  0  0  0  0  0  0  0  0
   57.5050   32.0160   42.6300 N   0  0  0  0  0  0  0  0  0  0  0  0
   57.3940   32.3370   41.2120 C   0  0  0  0  0  0  0  0  0  0  0  0
   57.1750   30.8440   43.2150 C   0  0  0  0  0  0  0  0  0  0  0  0
   56.5560   29.6740   42.5130 C   0  0  0  0  0  0  0  0  0  0  0  0
   57.3430   30.9930   44.5750 C   0  0  0  0  0  0  0  0  0  0  0  0
   56.9280   30.0770   45.5860 N   0  0  0  0  0  0  0  0  0  0  0  0
   57.9040   28.7080   45.9870 S   0  0  0  0  0  0  0  0  0  0  0  0
   57.0170   27.5560   46.3630 O   0  0  0  0  0  0  0  0  0  0  0  0
   58.7420   28.3100   44.8050 O   0  0  0  0  0  0  0  0  0  0  0  0
   58.9300   29.1260   47.3550 C   0  0  0  0  0  0  0  0  0  0  0  0
   58.9420   30.4370   47.8490 C   0  0  0  0  0  0  0  0  0  0  0  0
   59.6670   30.7460   49.0030 C   0  0  0  0  0  0  0  0  0  0  0  0
   60.3870   29.7460   49.6760 C   0  0  0  0  0  0  0  0  0  0  0  0
   61.1060   30.0550   50.9600 C   0  0  0  0  0  0  0  0  0  0  0  0
   62.5130   30.3380   50.6900 N   0  0  0  0  0  0  0  0  0  0  0  0
   63.5640   29.9110   51.5720 C   0  0  0  0  0  0  0  0  0  0  0  0
   63.2810   29.3140   52.6450 O   0  0  0  0  0  0  0  0  0  0  0  0
   64.9450   30.1380   51.2590 N   0  0  0  0  0  0  0  0  0  0  0  0
   65.5000   31.3690   50.7050 C   0  0  0  0  0  0  0  0  0  0  0  0
   65.0640   32.5920   51.5250 C   0  0  0  0  0  0  0  0  0  0  0  0
   64.7840   33.8290   50.6590 C   0  0  0  0  0  0  0  0  0  0  0  0
   63.3830   33.8270   50.1170 C   0  0  0  0  0  0  0  0  0  0  0  0
   62.2130   33.7950   50.8690 C   0  0  0  0  0  0  0  0  0  0  0  0
   61.1340   33.7700   50.0520 N   0  0  0  0  0  0  0  0  0  0  0  0
   59.7360   33.7740   50.4730 C   0  0  0  0  0  0  0  0  0  0  0  0
   61.6090   33.7930   48.7900 C   0  0  0  0  0  0  0  0  0  0  0  0
   60.8800   33.7930   47.5960 C   0  0  0  0  0  0  0  0  0  0  0  0
   61.5980   33.8050   46.3880 C   0  0  0  0  0  0  0  0  0  0  0  0
   63.0090   33.8200   46.3920 C   0  0  0  0  0  0  0  0  0  0  0  0
   63.7190   33.8300   47.6060 C   0  0  0  0  0  0  0  0  0  0  0  0
   62.9820   33.8180   48.7930 C   0  0  0  0  0  0  0  0  0  0  0  0
   60.3770   28.4360   49.1750 C   0  0  0  0  0  0  0  0  0  0  0  0
   59.6530   28.1280   48.0200 C   0  0  0  0  0  0  0  0  0  0  0  0
   57.7733   32.2972   46.8839 H   0  0  0  0  0  0  0  0  0  0  0  0
   59.0284   33.3330   46.1233 H   0  0  0  0  0  0  0  0  0  0  0  0
   57.3103   33.8573   46.1233 H   0  0  0  0  0  0  0  0  0  0  0  0
   57.0365   33.3709   41.0970 H   0  0  0  0  0  0  0  0  0  0  0  0
   58.3797   32.2346   40.7346 H   0  0  0  0  0  0  0  0  0  0  0  0
   56.6821   31.6476   40.7346 H   0  0  0  0  0  0  0  0  0  0  0  0
   56.1773   28.9582   43.2574 H   0  0  0  0  0  0  0  0  0  0  0  0
   55.7242   30.0224   41.8831 H   0  0  0  0  0  0  0  0  0  0  0  0
   57.3120   29.1824   41.8831 H   0  0  0  0  0  0  0  0  0  0  0  0
   58.3793   31.2251   47.3272 H   0  0  0  0  0  0  0  0  0  0  0  0
   59.6736   31.7772   49.3858 H   0  0  0  0  0  0  0  0  0  0  0  0
   60.6427   30.9325   51.4347 H   0  0  0  0  0  0  0  0  0  0  0  0
   61.0351   29.1863   51.6311 H   0  0  0  0  0  0  0  0  0  0  0  0
   62.7430   30.8330   49.8000 H   0  0  0  0  0  0  0  0  0  0  0  0
   66.5980   31.3036   50.7141 H   0  0  0  0  0  0  0  0  0  0  0  0
   65.1274   31.4877   49.6769 H   0  0  0  0  0  0  0  0  0  0  0  0
   64.1471   32.3354   52.0759 H   0  0  0  0  0  0  0  0  0  0  0  0
   65.8933   32.8460   52.2015 H   0  0  0  0  0  0  0  0  0  0  0  0
   64.9274   34.7316   51.2711 H   0  0  0  0  0  0  0  0  0  0  0  0
   65.4795   33.8135   49.8069 H   0  0  0  0  0  0  0  0  0  0  0  0
   62.1708   33.7906   51.9682 H   0  0  0  0  0  0  0  0  0  0  0  0
   59.6840   33.7741   51.5718 H   0  0  0  0  0  0  0  0  0  0  0  0
   59.2380   34.6736   50.0822 H   0  0  0  0  0  0  0  0  0  0  0  0
   59.2328   32.8773   50.0822 H   0  0  0  0  0  0  0  0  0  0  0  0
   59.7801   33.7839   47.6025 H   0  0  0  0  0  0  0  0  0  0  0  0
   61.0554   33.8027   45.4311 H   0  0  0  0  0  0  0  0  0  0  0  0
   63.5576   33.8239   45.4386 H   0  0  0  0  0  0  0  0  0  0  0  0
   64.8188   33.8467   47.6205 H   0  0  0  0  0  0  0  0  0  0  0  0
   60.9417   27.6473   49.6937 H   0  0  0  0  0  0  0  0  0  0  0  0
   59.6511   27.0986   47.6321 H   0  0  0  0  0  0  0  0  0  0  0  0
  1  2  1  0
  2  3  2  0
  3  4  1  0
  4  5  1  0
  4  6  1  0
  6  7  1  0
  6  8  2  0
  8  9  1  0
  9 10  1  0
 10 11  2  0
 10 12  2  0
 10 13  1  0
 13 14  2  0
 14 15  1  0
 15 16  2  0
 16 17  1  0
 17 18  1  0
 18 19  1  0
 19 20  2  0
 19 21  1  0
 21 22  1  0
 22 23  1  0
 23 24  1  0
 24 25  1  0
 25 26  2  0
 26 27  1  0
 27 28  1  0
 27 29  1  0
 29 30  2  0
 30 31  1  0
 31 32  2  0
 32 33  1  0
 33 34  2  0
 16 35  1  0
 35 36  2  0
  8  2  1  0
 36 13  1  0
 34 25  1  0
 34 29  1  0
  1 37  1  0
  1 38  1  0
  1 39  1  0
  5 40  1  0
  5 41  1  0
  5 42  1  0
  7 43  1  0
  7 44  1  0
  7 45  1  0
 14 46  1  0
 15 47  1  0
 17 48  1  0
 17 49  1  0
 18 50  1  0
 22 51  1  0
 22 52  1  0
 23 53  1  0
 23 54  1  0
 24 55  1  0
 24 56  1  0
 26 57  1  0
 28 58  1  0
 28 59  1  0
 28 60  1  0
 30 61  1  0
 31 62  1  0
 32 63  1  0
 33 64  1  0
 35 65  1  0
 36 66  1  0
M  CHG  2   9  -1  21  -1
M  END
>  <UniqueID>  (37) 
34

>  <SMILES>  (37) 
Cc1nn(C)c(C)c1[N-]S(=O)(=O)c1ccc(CNC(=O)[N-]CCCc2cn(C)c3ccccc23)cc1

>  <Energy>  (37) 
128.7522991096385

>  <Genealogy>  (37) 
Cc1nn(C)c(C)c1[N-]S(=O)(=O)c1ccc(CNC(=O)[N-]CCCc2cn(C)c3ccccc23)cc1 (protonated)
Cc1nn(C)c(C)c1[N-]S(=O)(=O)c1ccc(CNC(=O)[N-]CCCc2cn(C)c3ccccc23)cc1 (3D coordinates assigned)
Cc1nn(C)c(C)c1[N-]S(=O)(=O)c1ccc(CNC(=O)[N-]CCCc2cn(C)c3ccccc23)cc1 (optimized conformer: 128.7522991096385 kcal/mol)

>  <smiles>  (37) 
Cc1nn(C)c(C)c1NS(=O)(=O)c1ccc(CNC(=O)NCCCc2cn(C)c3ccccc23)cc1

>  <score_type>  (37) 
oracle

>  <origin>  (37) 
adg

>  <m_score__min__energy>  (37) 
-12.92

>  <m_primary>  (37) 
energy

$$$$
37:0
     RDKit          3D

 36 37  0  0  0  0  0  0  0  0999 V2000
   58.1380   31.6260   47.4390 O   0  0  0  0  0  0  0  0  0  0  0  0
   59.1460   31.4900   46.6910 C   0  0  0  0  0  0  0  0  0  0  0  0
   59.4110   32.5590   45.6650 C   0  0  0  0  0  0  0  0  0  0  0  0
   59.1440   34.2080   46.3870 S   0  0  0  0  0  0  0  0  0  0  0  0
   60.0080   30.3390   46.8550 N   0  0  0  0  0  0  0  0  0  0  0  0
   59.9880   29.2260   45.8890 C   0  0  0  0  0  0  0  0  0  0  0  0
   58.6680   28.4910   45.9050 C   0  0  0  0  0  0  0  0  0  0  0  0
   58.5920   27.2000   46.4550 C   0  0  0  0  0  0  0  0  0  0  0  0
   57.3730   26.5160   46.4870 C   0  0  0  0  0  0  0  0  0  0  0  0
   56.2210   27.1070   45.9630 C   0  0  0  0  0  0  0  0  0  0  0  0
   55.0110   26.4250   46.0060 O   0  0  0  0  0  0  0  0  0  0  0  0
   56.2890   28.3850   45.3960 C   0  0  0  0  0  0  0  0  0  0  0  0
   55.1450   28.9800   44.8750 O   0  0  0  0  0  0  0  0  0  0  0  0
   57.5080   29.0690   45.3560 C   0  0  0  0  0  0  0  0  0  0  0  0
   61.0360   30.3380   47.9130 C   0  0  0  0  0  0  0  0  0  0  0  0
   61.7960   31.6420   47.9240 C   0  0  0  0  0  0  0  0  0  0  0  0
   63.0430   31.7320   47.2810 C   0  0  0  0  0  0  0  0  0  0  0  0
   63.7870   32.9140   47.3410 C   0  0  0  0  0  0  0  0  0  0  0  0
   63.2900   34.0180   48.0350 C   0  0  0  0  0  0  0  0  0  0  0  0
   62.0460   33.9460   48.6650 C   0  0  0  0  0  0  0  0  0  0  0  0
   61.2960   32.7650   48.6120 C   0  0  0  0  0  0  0  0  0  0  0  0
   60.0580   32.7190   49.2440 O   0  0  0  0  0  0  0  0  0  0  0  0
   60.4518   32.4790   45.3182 H   0  0  0  0  0  0  0  0  0  0  0  0
   58.7204   32.4225   44.8197 H   0  0  0  0  0  0  0  0  0  0  0  0
   58.9120   33.6900   47.6760 H   0  0  0  0  0  0  0  0  0  0  0  0
   60.1592   29.6279   44.8795 H   0  0  0  0  0  0  0  0  0  0  0  0
   60.7782   28.5147   46.1714 H   0  0  0  0  0  0  0  0  0  0  0  0
   59.4966   26.7250   46.8626 H   0  0  0  0  0  0  0  0  0  0  0  0
   57.3210   25.5089   46.9264 H   0  0  0  0  0  0  0  0  0  0  0  0
   57.5607   30.0652   44.8925 H   0  0  0  0  0  0  0  0  0  0  0  0
   60.5487   30.1965   48.8890 H   0  0  0  0  0  0  0  0  0  0  0  0
   61.7438   29.5194   47.7157 H   0  0  0  0  0  0  0  0  0  0  0  0
   63.4358   30.8667   46.7270 H   0  0  0  0  0  0  0  0  0  0  0  0
   64.7649   32.9739   46.8408 H   0  0  0  0  0  0  0  0  0  0  0  0
   63.8788   34.9458   48.0858 H   0  0  0  0  0  0  0  0  0  0  0  0
   61.6538   34.8204   49.2050 H   0  0  0  0  0  0  0  0  0  0  0  0
  1  2  2  0
  2  3  1  0
  3  4  1  0
  2  5  1  0
  5  6  1  0
  6  7  1  0
  7  8  2  0
  8  9  1  0
  9 10  2  0
 10 11  1  0
 10 12  1  0
 12 13  1  0
 12 14  2  0
  5 15  1  0
 15 16  1  0
 16 17  2  0
 17 18  1  0
 18 19  2  0
 19 20  1  0
 20 21  2  0
 21 22  1  0
 14  7  1  0
 21 16  1  0
  3 23  1  0
  3 24  1  0
  4 25  1  0
  6 26  1  0
  6 27  1  0
  8 28  1  0
  9 29  1  0
 14 30  1  0
 15 31  1  0
 15 32  1  0
 17 33  1  0
 18 34  1  0
 19 35  1  0
 20 36  1  0
M  CHG  3  11  -1  13  -1  22  -1
M  END
>  <UniqueID>  (38) 
35

>  <SMILES>  (38) 
O=C(CS)N(Cc1ccc([O-])c([O-])c1)Cc1ccccc1[O-]

>  <Energy>  (38) 
34.51579444155046

>  <Genealogy>  (38) 
O=C(CS)N(Cc1ccc([O-])c([O-])c1)Cc1ccccc1[O-] (protonated)
O=C(CS)N(Cc1ccc([O-])c([O-])c1)Cc1ccccc1[O-] (3D coordinates assigned)
O=C(CS)N(Cc1ccc([O-])c([O-])c1)Cc1ccccc1[O-] (optimized conformer: 34.51579444155046 kcal/mol)

>  <smiles>  (38) 
O=C(CS)N(Cc1ccc(O)c(O)c1)Cc1ccccc1O

>  <score_type>  (38) 
oracle

>  <origin>  (38) 
adg

>  <m_score__min__energy>  (38) 
-14.630000000000001

>  <m_primary>  (38) 
energy

$$$$
38:0
     RDKit          3D

 43 44  0  0  0  0  0  0  0  0999 V2000
   57.3960   32.3580   40.8380 C   0  0  0  0  0  0  0  0  0  0  0  0
   58.0140   32.1970   42.2230 C   0  0  0  0  0  0  0  0  0  0  0  0
   57.0710   31.4400   43.1670 C   0  0  0  0  0  0  0  0  0  0  0  0
   57.5010   31.6090   44.6160 C   0  0  0  0  0  0  0  0  0  0  0  0
   57.6140   32.9150   45.1620 C   0  0  0  0  0  0  0  0  0  0  0  0
   57.3000   34.0700   44.4360 O   0  0  0  0  0  0  0  0  0  0  0  0
   58.0560   33.0750   46.4770 C   0  0  0  0  0  0  0  0  0  0  0  0
   58.1940   34.2380   46.9470 O   0  0  0  0  0  0  0  0  0  0  0  0
   58.3490   31.9550   47.2610 C   0  0  0  0  0  0  0  0  0  0  0  0
   58.9920   32.1090   48.9020 S   0  0  0  0  0  0  0  0  0  0  0  0
   57.8750   32.1100   49.9080 O   0  0  0  0  0  0  0  0  0  0  0  0
   59.8940   30.9430   49.1970 O   0  0  0  0  0  0  0  0  0  0  0  0
   59.9260   33.6240   49.0410 C   0  0  0  0  0  0  0  0  0  0  0  0
   61.2510   33.4890   48.3430 C   0  0  0  0  0  0  0  0  0  0  0  0
   61.3830   33.8710   46.9970 C   0  0  0  0  0  0  0  0  0  0  0  0
   62.6300   33.8090   46.3680 C   0  0  0  0  0  0  0  0  0  0  0  0
   63.7510   33.3670   47.0750 C   0  0  0  0  0  0  0  0  0  0  0  0
   63.6280   32.9900   48.4160 C   0  0  0  0  0  0  0  0  0  0  0  0
   64.7180   32.5700   49.1040 F   0  0  0  0  0  0  0  0  0  0  0  0
   62.3830   33.0540   49.0510 C   0  0  0  0  0  0  0  0  0  0  0  0
   58.1960   30.6860   46.7070 C   0  0  0  0  0  0  0  0  0  0  0  0
   57.7620   30.5140   45.4200 N   0  0  0  0  0  0  0  0  0  0  0  0
   57.6470   29.1250   44.9330 C   0  0  0  0  0  0  0  0  0  0  0  0
   56.2620   28.5990   45.1540 C   0  0  0  0  0  0  0  0  0  0  0  0
   56.0890   27.4500   45.6380 O   0  0  0  0  0  0  0  0  0  0  0  0
   55.1600   29.3940   44.8600 O   0  0  0  0  0  0  0  0  0  0  0  0
   56.3361   32.6341   40.9393 H   0  0  0  0  0  0  0  0  0  0  0  0
   57.9295   33.1471   40.2879 H   0  0  0  0  0  0  0  0  0  0  0  0
   57.4767   31.4089   40.2879 H   0  0  0  0  0  0  0  0  0  0  0  0
   58.9565   31.6370   42.1324 H   0  0  0  0  0  0  0  0  0  0  0  0
   58.1960   33.1978   42.6416 H   0  0  0  0  0  0  0  0  0  0  0  0
   56.0502   31.8318   43.0464 H   0  0  0  0  0  0  0  0  0  0  0  0
   57.1050   30.3702   42.9134 H   0  0  0  0  0  0  0  0  0  0  0  0
   57.3450   35.0070   44.8080 H   0  0  0  0  0  0  0  0  0  0  0  0
   59.3560   34.4447   48.5810 H   0  0  0  0  0  0  0  0  0  0  0  0
   60.1036   33.8372   50.1054 H   0  0  0  0  0  0  0  0  0  0  0  0
   60.5028   34.2197   46.4369 H   0  0  0  0  0  0  0  0  0  0  0  0
   62.7287   34.1088   45.3143 H   0  0  0  0  0  0  0  0  0  0  0  0
   64.7304   33.3155   46.5768 H   0  0  0  0  0  0  0  0  0  0  0  0
   62.2906   32.7628   50.1077 H   0  0  0  0  0  0  0  0  0  0  0  0
   58.4293   29.8015   47.3179 H   0  0  0  0  0  0  0  0  0  0  0  0
   57.8755   29.0995   43.8573 H   0  0  0  0  0  0  0  0  0  0  0  0
   58.3571   28.4955   45.4892 H   0  0  0  0  0  0  0  0  0  0  0  0
  1  2  1  0
  2  3  1  0
  3  4  1  0
  4  5  2  0
  5  6  1  0
  5  7  1  0
  7  8  2  0
  7  9  1  0
  9 10  1  0
 10 11  2  0
 10 12  2  0
 10 13  1  0
 13 14  1  0
 14 15  2  0
 15 16  1  0
 16 17  2  0
 17 18  1  0
 18 19  1  0
 18 20  2  0
  9 21  2  0
 21 22  1  0
 22 23  1  0
 23 24  1  0
 24 25  2  0
 24 26  1  0
 22  4  1  0
 20 14  1  0
  1 27  1  0
  1 28  1  0
  1 29  1  0
  2 30  1  0
  2 31  1  0
  3 32  1  0
  3 33  1  0
  6 34  1  0
 13 35  1  0
 13 36  1  0
 15 37  1  0
 16 38  1  0
 17 39  1  0
 20 40  1  0
 21 41  1  0
 23 42  1  0
 23 43  1  0
M  CHG  1  26  -1
M  END
>  <UniqueID>  (39) 
36

>  <SMILES>  (39) 
CCCc1c(O)c(=O)c(S(=O)(=O)Cc2cccc(F)c2)cn1CC(=O)[O-]

>  <Energy>  (39) 
40.194305921255484

>  <Genealogy>  (39) 
CCCc1c(O)c(=O)c(S(=O)(=O)Cc2cccc(F)c2)cn1CC(=O)[O-] (protonated)
CCCc1c(O)c(=O)c(S(=O)(=O)Cc2cccc(F)c2)cn1CC(=O)[O-] (3D coordinates assigned)
CCCc1c(O)c(=O)c(S(=O)(=O)Cc2cccc(F)c2)cn1CC(=O)[O-] (optimized conformer: 40.194305921255484 kcal/mol)

>  <smiles>  (39) 
CCCc1c(O)c(=O)c(S(=O)(=O)Cc2cccc(F)c2)cn1CC(=O)O

>  <score_type>  (39) 
oracle

>  <origin>  (39) 
adg

>  <m_score__min__energy>  (39) 
-10.07

>  <m_primary>  (39) 
energy

$$$$
39:0
     RDKit          3D

 42 44  0  0  1  0  0  0  0  0999 V2000
   56.2960   22.9950   48.5980 C   0  0  0  0  0  0  0  0  0  0  0  0
   56.7740   24.0700   47.7940 O   0  0  0  0  0  0  0  0  0  0  0  0
   57.0020   23.7880   46.4530 C   0  0  0  0  0  0  0  0  0  0  0  0
   57.3210   22.5280   45.9890 C   0  0  0  0  0  0  0  0  0  0  0  0
   57.5440   22.2610   44.6530 C   0  0  0  0  0  0  0  0  0  0  0  0
   57.4530   23.2660   43.7130 C   0  0  0  0  0  0  0  0  0  0  0  0
   57.1320   24.5440   44.1530 C   0  0  0  0  0  0  0  0  0  0  0  0
   57.0390   25.5600   43.2140 O   0  0  0  0  0  0  0  0  0  0  0  0
   58.1440   26.3840   42.8970 C   0  0  0  0  0  0  0  0  0  0  0  0
   56.9110   24.7920   45.5110 C   0  0  0  0  0  0  0  0  0  0  0  0
   56.5810   26.1690   45.8560 C   0  0  0  0  0  0  0  0  0  0  0  0
   55.3880   26.4890   46.1490 O   0  0  0  0  0  0  0  0  0  0  0  0
   57.5400   27.2190   45.8850 N   0  0  0  0  0  0  0  0  0  0  0  0
   57.2320   28.3420   45.3520 C   0  0  0  0  0  0  0  0  0  0  0  0
   56.0970   28.9280   45.0400 N   0  0  0  0  0  0  0  0  0  0  0  0
   56.1760   30.0930   44.5020 N   0  0  0  0  0  0  0  0  0  0  0  0
   57.1270   30.7440   44.2350 C   0  0  0  0  0  0  0  0  0  0  0  0
   57.5930   32.0300   43.6520 C   0  0  0  0  0  0  0  0  0  0  0  0
   58.0690   32.8690   44.7690 C   0  0  0  0  0  0  0  0  0  0  0  0
   57.6730   32.5000   46.0590 C   0  0  0  0  0  0  0  0  0  0  0  0
   58.0690   33.2230   47.1650 C   0  0  0  0  0  0  0  0  0  0  0  0
   58.8700   34.3300   46.9870 C   0  0  0  0  0  0  0  0  0  0  0  0
   59.2530   34.6820   45.7100 C   0  0  0  0  0  0  0  0  0  0  0  0
   58.8730   33.9790   44.5880 C   0  0  0  0  0  0  0  0  0  0  0  0
   58.4670   29.5150   44.8530 S   0  0  0  0  0  0  0  0  0  0  0  0
   56.4108   23.2531   49.6611 H   0  0  0  0  0  0  0  0  0  0  0  0
   55.2335   22.8160   48.3768 H   0  0  0  0  0  0  0  0  0  0  0  0
   56.8748   22.0861   48.3768 H   0  0  0  0  0  0  0  0  0  0  0  0
   57.4008   21.7034   46.7127 H   0  0  0  0  0  0  0  0  0  0  0  0
   57.7963   21.2384   44.3357 H   0  0  0  0  0  0  0  0  0  0  0  0
   57.6293   23.0618   42.6466 H   0  0  0  0  0  0  0  0  0  0  0  0
   58.6168   26.7366   43.8255 H   0  0  0  0  0  0  0  0  0  0  0  0
   58.8742   25.8081   42.3095 H   0  0  0  0  0  0  0  0  0  0  0  0
   57.8004   27.2481   42.3095 H   0  0  0  0  0  0  0  0  0  0  0  0
   55.1520   28.4480   45.2280 H   0  0  0  0  0  0  0  0  0  0  0  0
   58.4132   31.8467   42.9423 H   0  0  0  0  0  0  0  0  0  0  0  0
   56.7780   32.5300   43.1081 H   0  0  0  0  0  0  0  0  0  0  0  0
   57.0330   31.6156   46.1941 H   0  0  0  0  0  0  0  0  0  0  0  0
   57.7503   32.9205   48.1734 H   0  0  0  0  0  0  0  0  0  0  0  0
   59.1994   34.9247   47.8518 H   0  0  0  0  0  0  0  0  0  0  0  0
   59.8931   35.5672   45.5810 H   0  0  0  0  0  0  0  0  0  0  0  0
   59.1976   34.2897   43.5840 H   0  0  0  0  0  0  0  0  0  0  0  0
  1  2  1  0
  2  3  1  0
  3  4  2  0
  4  5  1  0
  5  6  2  0
  6  7  1  0
  7  8  1  0
  8  9  1  0
  7 10  2  0
 10 11  1  0
 11 12  2  0
 11 13  1  0
 13 14  2  0
 14 15  1  0
 15 16  1  0
 16 17  2  0
 17 18  1  0
 18 19  1  0
 19 20  2  0
 20 21  1  0
 21 22  2  0
 22 23  1  0
 23 24  2  0
 17 25  1  0
 10  3  1  0
 25 14  1  0
 24 19  1  0
  1 26  1  0
  1 27  1  0
  1 28  1  0
  4 29  1  0
  5 30  1  0
  6 31  1  0
  9 32  1  0
  9 33  1  0
  9 34  1  0
 15 35  1  0
 18 36  1  0
 18 37  1  0
 20 38  1  0
 21 39  1  0
 22 40  1  0
 23 41  1  0
 24 42  1  0
M  END
>  <smiles>  (40) 
COc1cccc(OC)c1C(=O)N=c1[nH]nc(Cc2ccccc2)s1

>  <score_type>  (40) 
oracle

>  <origin>  (40) 
adg

>  <m_score__min__energy>  (40) 
-8.7200000000000006

>  <m_primary>  (40) 
energy

$$$$
40:0
     RDKit          3D

 38 40  0  0  0  0  0  0  0  0999 V2000
   54.6610   24.3879   46.1513 H   0  0  0  0  0  0  0  0  0  0  0  0
   55.5390   25.0160   45.9400 C   0  0  0  0  0  0  0  0  0  0  0  0
   55.5040   26.3730   46.0250 N   0  0  0  0  0  0  0  0  0  0  0  0
   56.7020   26.9180   45.7070 C   0  0  0  0  0  0  0  0  0  0  0  0
   56.9520   28.1930   45.7050 N   0  0  0  0  0  0  0  0  0  0  0  0
   56.3780   29.1610   44.8110 C   0  0  0  0  0  0  0  0  0  0  0  0
   55.1410   29.4070   44.8200 O   0  0  0  0  0  0  0  0  0  0  0  0
   57.2660   29.9230   43.8840 C   0  0  0  0  0  0  0  0  0  0  0  0
   56.7828   29.9997   42.8988 H   0  0  0  0  0  0  0  0  0  0  0  0
   58.2262   29.3944   43.7908 H   0  0  0  0  0  0  0  0  0  0  0  0
   57.5700   31.6020   44.5400 S   0  0  0  0  0  0  0  0  0  0  0  0
   58.9200   31.1070   45.6370 C   0  0  0  0  0  0  0  0  0  0  0  0
   59.7350   32.0670   46.2700 C   0  0  0  0  0  0  0  0  0  0  0  0
   59.5210   33.4790   46.0390 C   0  0  0  0  0  0  0  0  0  0  0  0
   59.3550   34.6080   45.8520 N   0  0  0  0  0  0  0  0  0  0  0  0
   60.7750   31.6090   47.1090 C   0  0  0  0  0  0  0  0  0  0  0  0
   61.6630   32.5340   47.8400 C   0  0  0  0  0  0  0  0  0  0  0  0
   63.0140   32.6620   47.4670 C   0  0  0  0  0  0  0  0  0  0  0  0
   63.4002   32.0965   46.6061 H   0  0  0  0  0  0  0  0  0  0  0  0
   63.8670   33.5040   48.1850 C   0  0  0  0  0  0  0  0  0  0  0  0
   64.9184   33.6101   47.8795 H   0  0  0  0  0  0  0  0  0  0  0  0
   63.3870   34.2120   49.2910 C   0  0  0  0  0  0  0  0  0  0  0  0
   64.0563   34.8839   49.8483 H   0  0  0  0  0  0  0  0  0  0  0  0
   62.0540   34.0640   49.6870 C   0  0  0  0  0  0  0  0  0  0  0  0
   61.6801   34.6055   50.5685 H   0  0  0  0  0  0  0  0  0  0  0  0
   61.1940   33.2280   48.9640 C   0  0  0  0  0  0  0  0  0  0  0  0
   60.1462   33.1155   49.2794 H   0  0  0  0  0  0  0  0  0  0  0  0
   60.9660   30.2700   47.2630 N   0  0  0  0  0  0  0  0  0  0  0  0
   60.1610   29.3610   46.6560 C   0  0  0  0  0  0  0  0  0  0  0  0
   60.3840   27.9000   46.8960 C   0  0  0  0  0  0  0  0  0  0  0  0
   60.4135   27.7066   47.9785 H   0  0  0  0  0  0  0  0  0  0  0  0
   59.5633   27.3245   46.4429 H   0  0  0  0  0  0  0  0  0  0  0  0
   61.3390   27.5956   46.4429 H   0  0  0  0  0  0  0  0  0  0  0  0
   59.1290   29.7810   45.8710 N   0  0  0  0  0  0  0  0  0  0  0  0
   58.4890   29.0760   45.4360 H   0  0  0  0  0  0  0  0  0  0  0  0
   57.8470   25.7530   45.3140 S   0  0  0  0  0  0  0  0  0  0  0  0
   56.7710   24.4800   45.5650 C   0  0  0  0  0  0  0  0  0  0  0  0
   57.0009   23.4102   45.4524 H   0  0  0  0  0  0  0  0  0  0  0  0
  1  2  1  0
  2  3  1  0
  3  4  1  0
  4  5  2  0
  5  6  1  0
  6  7  2  0
  6  8  1  0
  8  9  1  0
  8 10  1  0
  8 11  1  0
 11 12  1  0
 12 13  2  0
 13 14  1  0
 14 15  3  0
 13 16  1  0
 16 17  1  0
 17 18  2  0
 18 19  1  0
 18 20  1  0
 20 21  1  0
 20 22  2  0
 22 23  1  0
 22 24  1  0
 24 25  1  0
 24 26  2  0
 26 27  1  0
 16 28  2  0
 28 29  1  0
 29 30  1  0
 30 31  1  0
 30 32  1  0
 30 33  1  0
 29 34  2  0
 34 35  1  0
  4 36  1  0
 36 37  1  0
 37 38  1  0
 37  2  2  0
 34 12  1  0
 26 17  1  0
M  CHG  2   3  -1  34   1
M  END
>  <UniqueID>  (41) 
37

>  <SMILES>  (41) 
Cc1nc(-c2ccccc2)c(C#N)c(SCC(=O)/N=c2\[n-]ccs2)[nH+]1

>  <Energy>  (41) 
72.98242575074437

>  <Genealogy>  (41) 
Cc1nc(-c2ccccc2)c(C#N)c(SCC(=O)N=c2[n-]ccs2)[nH+]1 (protonated)
Cc1nc(-c2ccccc2)c(C#N)c(SCC(=O)/N=c2\[n-]ccs2)[nH+]1 (cis-trans isomerization)
Cc1nc(-c2ccccc2)c(C#N)c(SCC(=O)/N=c2\[n-]ccs2)[nH+]1 (3D coordinates assigned)
Cc1nc(-c2ccccc2)c(C#N)c(SCC(=O)/N=c2\[n-]ccs2)[nH+]1 (optimized conformer: 72.98242575074437 kcal/mol)

>  <smiles>  (41) 
Cc1nc(SCC(=O)N=c2[nH]ccs2)c(C#N)c(-c2ccccc2)n1

>  <score_type>  (41) 
oracle

>  <origin>  (41) 
adg

>  <m_score__min__energy>  (41) 
-8.75

>  <m_primary>  (41) 
energy

$$$$
41:0
     RDKit          3D

 59 62  0  0  0  0  0  0  0  0999 V2000
   57.6085   34.1707   47.4655 H   0  0  0  0  0  0  0  0  0  0  0  0
   57.7590   33.7580   46.4570 C   0  0  0  0  0  0  0  0  0  0  0  0
   57.0170   32.6990   46.0380 N   0  0  0  0  0  0  0  0  0  0  0  0
   57.1650   32.1420   44.8050 C   0  0  0  0  0  0  0  0  0  0  0  0
   56.4010   31.1330   44.4940 N   0  0  0  0  0  0  0  0  0  0  0  0
   56.5270   29.7420   44.8470 C   0  0  0  0  0  0  0  0  0  0  0  0
   55.5130   28.9900   44.8530 O   0  0  0  0  0  0  0  0  0  0  0  0
   57.8350   29.1850   45.1040 N   0  0  0  0  0  0  0  0  0  0  0  0
   58.4250   28.2690   44.1070 C   0  0  0  0  0  0  0  0  0  0  0  0
   59.4458   28.6091   43.8785 H   0  0  0  0  0  0  0  0  0  0  0  0
   57.7786   28.2885   43.2172 H   0  0  0  0  0  0  0  0  0  0  0  0
   58.4900   26.8370   44.5900 C   0  0  0  0  0  0  0  0  0  0  0  0
   59.2400   26.4450   45.7170 C   0  0  0  0  0  0  0  0  0  0  0  0
   59.8261   27.1934   46.2705 H   0  0  0  0  0  0  0  0  0  0  0  0
   59.2440   25.1120   46.1360 C   0  0  0  0  0  0  0  0  0  0  0  0
   59.8274   24.8195   47.0215 H   0  0  0  0  0  0  0  0  0  0  0  0
   58.5090   24.1440   45.4350 C   0  0  0  0  0  0  0  0  0  0  0  0
   58.5080   22.7420   45.9010 C   0  0  0  0  0  0  0  0  0  0  0  0
   59.4230   21.9690   45.5140 O   0  0  0  0  0  0  0  0  0  0  0  0
   57.4790   22.2210   46.7500 N   0  0  0  0  0  0  0  0  0  0  0  0
   56.7020   23.0120   47.6980 C   0  0  0  0  0  0  0  0  0  0  0  0
   55.9733   22.3637   48.2067 H   0  0  0  0  0  0  0  0  0  0  0  0
   57.3761   23.4592   48.4434 H   0  0  0  0  0  0  0  0  0  0  0  0
   55.9800   24.0940   46.9650 C   0  0  0  0  0  0  0  0  0  0  0  0
   56.2460   25.4080   47.0850 N   0  0  0  0  0  0  0  0  0  0  0  0
   55.3650   26.0060   46.2930 N   0  0  0  0  0  0  0  0  0  0  0  0
   54.5880   25.1020   45.7130 N   0  0  0  0  0  0  0  0  0  0  0  0
   54.9540   23.9000   46.1220 N   0  0  0  0  0  0  0  0  0  0  0  0
   54.5130   22.9990   45.8320 H   0  0  0  0  0  0  0  0  0  0  0  0
   57.7390   24.5350   44.3300 C   0  0  0  0  0  0  0  0  0  0  0  0
   57.1362   23.7891   43.7913 H   0  0  0  0  0  0  0  0  0  0  0  0
   57.7340   25.8680   43.9100 C   0  0  0  0  0  0  0  0  0  0  0  0
   57.1316   26.1614   43.0376 H   0  0  0  0  0  0  0  0  0  0  0  0
   58.5190   29.5700   46.3570 C   0  0  0  0  0  0  0  0  0  0  0  0
   57.9138   30.3423   46.8543 H   0  0  0  0  0  0  0  0  0  0  0  0
   58.6199   28.6496   46.9509 H   0  0  0  0  0  0  0  0  0  0  0  0
   59.9530   30.1280   46.1680 C   0  0  0  0  0  0  0  0  0  0  0  0
   60.6239   29.2868   45.9396 H   0  0  0  0  0  0  0  0  0  0  0  0
   59.9025   30.8640   45.3521 H   0  0  0  0  0  0  0  0  0  0  0  0
   60.4850   30.8390   47.3530 N   0  0  0  0  0  0  0  0  0  0  0  0
   59.6760   30.6990   48.5830 C   0  0  0  0  0  0  0  0  0  0  0  0
   58.9381   29.8966   48.4355 H   0  0  0  0  0  0  0  0  0  0  0  0
   60.3542   30.4609   49.4156 H   0  0  0  0  0  0  0  0  0  0  0  0
   58.9330   32.0050   48.9250 C   0  0  0  0  0  0  0  0  0  0  0  0
   58.2001   32.2014   48.1286 H   0  0  0  0  0  0  0  0  0  0  0  0
   58.4688   31.8506   49.9102 H   0  0  0  0  0  0  0  0  0  0  0  0
   59.7720   33.1500   49.0490 O   0  0  0  0  0  0  0  0  0  0  0  0
   61.0100   33.0400   48.3630 C   0  0  0  0  0  0  0  0  0  0  0  0
   61.3618   34.0518   48.1130 H   0  0  0  0  0  0  0  0  0  0  0  0
   61.7069   32.5123   49.0307 H   0  0  0  0  0  0  0  0  0  0  0  0
   60.9150   32.2230   47.0670 C   0  0  0  0  0  0  0  0  0  0  0  0
   60.1846   32.6964   46.3944 H   0  0  0  0  0  0  0  0  0  0  0  0
   61.9073   32.1944   46.5932 H   0  0  0  0  0  0  0  0  0  0  0  0
   58.1070   32.7020   43.9150 C   0  0  0  0  0  0  0  0  0  0  0  0
   58.2322   32.2846   42.9050 H   0  0  0  0  0  0  0  0  0  0  0  0
   58.8790   33.7910   44.3280 C   0  0  0  0  0  0  0  0  0  0  0  0
   59.6196   34.2308   43.6438 H   0  0  0  0  0  0  0  0  0  0  0  0
   58.7110   34.3210   45.6080 C   0  0  0  0  0  0  0  0  0  0  0  0
   59.6730   35.6890   46.1370 Cl  0  0  0  0  0  0  0  0  0  0  0  0
  1  2  1  0
  2  3  1  0
  3  4  1  0
  4  5  2  0
  5  6  1  0
  6  7  2  0
  6  8  1  0
  8  9  1  0
  9 10  1  0
  9 11  1  0
  9 12  1  0
 12 13  2  0
 13 14  1  0
 13 15  1  0
 15 16  1  0
 15 17  2  0
 17 18  1  0
 18 19  2  0
 18 20  1  0
 20 21  1  0
 21 22  1  0
 21 23  1  0
 21 24  1  0
 24 25  2  0
 25 26  1  0
 26 27  1  0
 27 28  2  0
 28 29  1  0
 17 30  1  0
 30 31  1  0
 30 32  2  0
 32 33  1  0
  8 34  1  0
 34 35  1  0
 34 36  1  0
 34 37  1  0
 37 38  1  0
 37 39  1  0
 37 40  1  0
 40 41  1  0
 41 42  1  0
 41 43  1  0
 41 44  1  0
 44 45  1  0
 44 46  1  0
 44 47  1  0
 47 48  1  0
 48 49  1  0
 48 50  1  0
 48 51  1  0
 51 52  1  0
 51 53  1  0
  4 54  1  0
 54 55  1  0
 54 56  2  0
 56 57  1  0
 56 58  1  0
 58 59  1  0
 58  2  2  0
 32 12  1  0
 51 40  1  0
 28 24  1  0
M  CHG  4   3  -1  20  -1  26  -1  28   1
M  END
>  <UniqueID>  (42) 
38

>  <SMILES>  (42) 
O=C([N-]Cc1n[n-]n[nH+]1)c1ccc(CN(CCN2CCOCC2)C(=O)/N=c2\ccc(Cl)c[n-]2)cc1

>  <Energy>  (42) 
132.01462809426005

>  <Genealogy>  (42) 
O=C([N-]Cc1n[n-]n[nH+]1)c1ccc(CN(CCN2CCOCC2)C(=O)N=c2ccc(Cl)c[n-]2)cc1 (protonated)
O=C([N-]Cc1n[n-]n[nH+]1)c1ccc(CN(CCN2CCOCC2)C(=O)/N=c2\ccc(Cl)c[n-]2)cc1 (cis-trans isomerization)
O=C([N-]Cc1n[n-]n[nH+]1)c1ccc(CN(CCN2CCOCC2)C(=O)/N=c2\ccc(Cl)c[n-]2)cc1 (3D coordinates assigned)
O=C([N-]Cc1n[n-]n[nH+]1)c1ccc(CN(CCN2CCOCC2)C(=O)/N=c2\ccc(Cl)c[n-]2)cc1 (nonaromatic ring conformer: 132.01462809426005 kcal/mol)

>  <smiles>  (42) 
O=C(NCc1nn[nH]n1)c1ccc(CN(CCN2CCOCC2)C(=O)N=c2ccc(Cl)c[nH]2)cc1

>  <score_type>  (42) 
oracle

>  <origin>  (42) 
adg

>  <m_score__min__energy>  (42) 
-13.390000000000001

>  <m_primary>  (42) 
energy

$$$$
42:0
     RDKit          3D

 49 51  0  0  0  0  0  0  0  0999 V2000
   63.7930   29.8560   51.9720 C   0  0  0  0  0  0  0  0  0  0  0  0
   64.0380   30.9490   50.9820 C   0  0  0  0  0  0  0  0  0  0  0  0
   62.9720   31.5360   50.2930 C   0  0  0  0  0  0  0  0  0  0  0  0
   63.2380   32.5810   49.3930 C   0  0  0  0  0  0  0  0  0  0  0  0
   62.1800   33.2160   48.6390 N   0  0  0  0  0  0  0  0  0  0  0  0
   62.4810   33.8460   47.3420 C   0  0  0  0  0  0  0  0  0  0  0  0
   61.3000   33.6680   46.3840 C   0  0  0  0  0  0  0  0  0  0  0  0
   59.9690   34.2220   46.9570 C   0  0  0  0  0  0  0  0  0  0  0  0
   58.8560   33.3480   46.5710 N   0  0  0  0  0  0  0  0  0  0  0  0
   58.3430   33.3050   45.2340 C   0  0  0  0  0  0  0  0  0  0  0  0
   58.8710   34.0070   44.3300 O   0  0  0  0  0  0  0  0  0  0  0  0
   57.2620   32.4140   44.9280 N   0  0  0  0  0  0  0  0  0  0  0  0
   57.3200   30.9820   44.8690 C   0  0  0  0  0  0  0  0  0  0  0  0
   57.7690   30.2030   45.9510 C   0  0  0  0  0  0  0  0  0  0  0  0
   57.8130   28.8100   45.8450 C   0  0  0  0  0  0  0  0  0  0  0  0
   57.4260   28.1700   44.6610 C   0  0  0  0  0  0  0  0  0  0  0  0
   57.4780   26.7690   44.6230 O   0  0  0  0  0  0  0  0  0  0  0  0
   56.6090   25.7180   45.6580 S   0  0  0  0  0  0  0  0  0  0  0  0
   55.0540   26.3830   46.0170 N   0  0  0  0  0  0  0  0  0  0  0  0
   57.3750   25.5610   46.9400 O   0  0  0  0  0  0  0  0  0  0  0  0
   56.4550   24.3670   45.0160 O   0  0  0  0  0  0  0  0  0  0  0  0
   57.0130   28.9520   43.5650 C   0  0  0  0  0  0  0  0  0  0  0  0
   56.9670   30.3460   43.6720 C   0  0  0  0  0  0  0  0  0  0  0  0
   60.0080   34.4080   48.4910 C   0  0  0  0  0  0  0  0  0  0  0  0
   60.8160   33.3070   49.1880 C   0  0  0  0  0  0  0  0  0  0  0  0
   64.5270   32.9880   49.2230 N   0  0  0  0  0  0  0  0  0  0  0  0
   65.5530   32.4170   49.9070 C   0  0  0  0  0  0  0  0  0  0  0  0
   66.7600   32.8380   49.7240 N   0  0  0  0  0  0  0  0  0  0  0  0
   65.3030   31.4070   50.7820 N   0  0  0  0  0  0  0  0  0  0  0  0
   63.8831   30.2581   52.9919 H   0  0  0  0  0  0  0  0  0  0  0  0
   62.7814   29.4493   51.8263 H   0  0  0  0  0  0  0  0  0  0  0  0
   64.5342   29.0564   51.8263 H   0  0  0  0  0  0  0  0  0  0  0  0
   61.9419   31.1850   50.4533 H   0  0  0  0  0  0  0  0  0  0  0  0
   62.6680   34.9193   47.4936 H   0  0  0  0  0  0  0  0  0  0  0  0
   63.3719   33.3686   46.9079 H   0  0  0  0  0  0  0  0  0  0  0  0
   61.5257   34.1972   45.4464 H   0  0  0  0  0  0  0  0  0  0  0  0
   61.1658   32.5882   46.2225 H   0  0  0  0  0  0  0  0  0  0  0  0
   59.8195   35.2223   46.5246 H   0  0  0  0  0  0  0  0  0  0  0  0
   58.3950   32.7440   47.2890 H   0  0  0  0  0  0  0  0  0  0  0  0
   58.0866   30.6919   46.8838 H   0  0  0  0  0  0  0  0  0  0  0  0
   58.1553   28.2099   46.7009 H   0  0  0  0  0  0  0  0  0  0  0  0
   55.1510   27.4220   46.0550 H   0  0  0  0  0  0  0  0  0  0  0  0
   56.7256   28.4649   42.6215 H   0  0  0  0  0  0  0  0  0  0  0  0
   56.6506   30.9485   42.8078 H   0  0  0  0  0  0  0  0  0  0  0  0
   60.4667   35.3816   48.7182 H   0  0  0  0  0  0  0  0  0  0  0  0
   58.9744   34.3554   48.8637 H   0  0  0  0  0  0  0  0  0  0  0  0
   60.8766   33.5327   50.2629 H   0  0  0  0  0  0  0  0  0  0  0  0
   60.3092   32.3452   49.0206 H   0  0  0  0  0  0  0  0  0  0  0  0
   67.1980   32.8420   48.7750 H   0  0  0  0  0  0  0  0  0  0  0  0
  1  2  1  0
  2  3  1  0
  3  4  2  0
  4  5  1  0
  5  6  1  0
  6  7  1  0
  7  8  1  0
  8  9  1  0
  9 10  1  0
 10 11  2  0
 10 12  1  0
 12 13  1  0
 13 14  2  0
 14 15  1  0
 15 16  2  0
 16 17  1  0
 17 18  1  0
 18 19  1  0
 18 20  2  0
 18 21  2  0
 16 22  1  0
 22 23  2  0
  8 24  1  0
 24 25  1  0
  4 26  1  0
 26 27  1  0
 27 28  2  3
 27 29  1  0
 29  2  2  0
 25  5  1  0
 23 13  1  0
  1 30  1  0
  1 31  1  0
  1 32  1  0
  3 33  1  0
  6 34  1  0
  6 35  1  0
  7 36  1  0
  7 37  1  0
  8 38  1  0
  9 39  1  0
 14 40  1  0
 15 41  1  0
 19 42  1  0
 22 43  1  0
 23 44  1  0
 24 45  1  0
 24 46  1  0
 25 47  1  0
 25 48  1  0
 28 49  1  0
M  CHG  3  12  -1  19  -1  26  -1
M  END
>  <UniqueID>  (43) 
39

>  <SMILES>  (43) 
Cc1cc(N2CCC(NC(=O)[N-]c3ccc(OS([NH-])(=O)=O)cc3)CC2)[n-]c(=N)n1

>  <Energy>  (43) 
53.43069625682416

>  <Genealogy>  (43) 
Cc1cc(N2CCC(NC(=O)[N-]c3ccc(OS([NH-])(=O)=O)cc3)CC2)[n-]c(=N)n1 (protonated)
Cc1cc(N2CCC(NC(=O)[N-]c3ccc(OS([NH-])(=O)=O)cc3)CC2)[n-]c(=N)n1 (3D coordinates assigned)
Cc1cc(N2CCC(NC(=O)[N-]c3ccc(OS([NH-])(=O)=O)cc3)CC2)[n-]c(=N)n1 (nonaromatic ring conformer: 53.43069625682416 kcal/mol)

>  <smiles>  (43) 
Cc1cc(N2CCC(NC(=O)Nc3ccc(OS(N)(=O)=O)cc3)CC2)[nH]c(=N)n1

>  <score_type>  (43) 
oracle

>  <origin>  (43) 
adg

>  <m_score__min__energy>  (43) 
-13.550000000000001

>  <m_primary>  (43) 
energy

$$$$
43:0
     RDKit          3D

 58 61  0  0  0  0  0  0  0  0999 V2000
   56.2250   31.0839   42.5944 H   0  0  0  0  0  0  0  0  0  0  0  0
   57.0100   31.1520   43.3620 C   0  0  0  0  0  0  0  0  0  0  0  0
   57.1460   30.0210   44.3010 C   0  0  0  0  0  0  0  0  0  0  0  0
   56.2730   29.8340   45.1940 O   0  0  0  0  0  0  0  0  0  0  0  0
   58.3230   29.1970   44.2440 N   0  0  0  0  0  0  0  0  0  0  0  0
   59.1000   29.5130   43.6190 H   0  0  0  0  0  0  0  0  0  0  0  0
   58.5680   28.0460   45.0730 C   0  0  0  0  0  0  0  0  0  0  0  0
   59.8680   27.8140   45.5460 C   0  0  0  0  0  0  0  0  0  0  0  0
   60.6738   28.5185   45.2923 H   0  0  0  0  0  0  0  0  0  0  0  0
   60.1490   26.6970   46.3360 C   0  0  0  0  0  0  0  0  0  0  0  0
   61.1715   26.5274   46.7045 H   0  0  0  0  0  0  0  0  0  0  0  0
   59.1330   25.7960   46.6580 C   0  0  0  0  0  0  0  0  0  0  0  0
   59.3552   24.9216   47.2873 H   0  0  0  0  0  0  0  0  0  0  0  0
   57.8320   26.0010   46.1830 C   0  0  0  0  0  0  0  0  0  0  0  0
   56.5650   24.8520   46.5990 S   0  0  0  0  0  0  0  0  0  0  0  0
   55.2560   25.2460   45.9720 O   0  0  0  0  0  0  0  0  0  0  0  0
   56.3830   24.8500   48.0900 O   0  0  0  0  0  0  0  0  0  0  0  0
   57.0200   23.2580   46.0910 N   0  0  0  0  0  0  0  0  0  0  0  0
   56.8910   22.7940   44.8840 C   0  0  0  0  0  0  0  0  0  0  0  0
   56.1980   23.5040   43.8840 N   0  0  0  0  0  0  0  0  0  0  0  0
   55.7050   24.4170   44.0360 H   0  0  0  0  0  0  0  0  0  0  0  0
   56.1380   22.7260   42.6630 C   0  0  0  0  0  0  0  0  0  0  0  0
   56.5023   23.3199   41.8117 H   0  0  0  0  0  0  0  0  0  0  0  0
   55.1079   22.4207   42.4268 H   0  0  0  0  0  0  0  0  0  0  0  0
   57.0510   21.5090   42.8980 C   0  0  0  0  0  0  0  0  0  0  0  0
   57.9792   21.6154   42.3174 H   0  0  0  0  0  0  0  0  0  0  0  0
   56.5569   20.5800   42.5775 H   0  0  0  0  0  0  0  0  0  0  0  0
   57.3700   21.4700   44.4000 C   0  0  0  0  0  0  0  0  0  0  0  0
   58.4505   21.3549   44.5709 H   0  0  0  0  0  0  0  0  0  0  0  0
   56.8969   20.6238   44.9197 H   0  0  0  0  0  0  0  0  0  0  0  0
   57.5540   27.1160   45.3770 C   0  0  0  0  0  0  0  0  0  0  0  0
   56.5388   27.2646   44.9804 H   0  0  0  0  0  0  0  0  0  0  0  0
   57.7710   32.2560   43.3740 C   0  0  0  0  0  0  0  0  0  0  0  0
   58.0811   32.6701   42.4032 H   0  0  0  0  0  0  0  0  0  0  0  0
   58.2250   32.9590   44.5930 C   0  0  0  0  0  0  0  0  0  0  0  0
   58.6600   34.2880   44.4970 C   0  0  0  0  0  0  0  0  0  0  0  0
   58.7149   34.7763   43.5129 H   0  0  0  0  0  0  0  0  0  0  0  0
   59.0240   34.9950   45.6450 C   0  0  0  0  0  0  0  0  0  0  0  0
   59.3856   36.0304   45.5601 H   0  0  0  0  0  0  0  0  0  0  0  0
   58.9300   34.3900   46.9020 C   0  0  0  0  0  0  0  0  0  0  0  0
   59.2284   34.9467   47.8026 H   0  0  0  0  0  0  0  0  0  0  0  0
   58.4540   33.0690   47.0180 C   0  0  0  0  0  0  0  0  0  0  0  0
   58.2780   32.4390   48.2590 O   0  0  0  0  0  0  0  0  0  0  0  0
   59.1370   31.4220   48.7750 C   0  0  0  0  0  0  0  0  0  0  0  0
   58.7054   30.4337   48.5581 H   0  0  0  0  0  0  0  0  0  0  0  0
   59.2399   31.5488   49.8628 H   0  0  0  0  0  0  0  0  0  0  0  0
   60.4810   31.5280   48.1350 C   0  0  0  0  0  0  0  0  0  0  0  0
   61.3040   32.5860   48.2690 N   0  0  0  0  0  0  0  0  0  0  0  0
   62.4150   32.1860   47.6130 C   0  0  0  0  0  0  0  0  0  0  0  0
   63.6350   33.0290   47.4780 C   0  0  0  0  0  0  0  0  0  0  0  0
   64.0128   33.2900   48.4776 H   0  0  0  0  0  0  0  0  0  0  0  0
   64.4073   32.4710   46.9283 H   0  0  0  0  0  0  0  0  0  0  0  0
   63.3862   33.9488   46.9283 H   0  0  0  0  0  0  0  0  0  0  0  0
   62.3140   30.9650   47.1280 O   0  0  0  0  0  0  0  0  0  0  0  0
   61.1220   30.5250   47.4380 C   0  0  0  0  0  0  0  0  0  0  0  0
   60.7071   29.5372   47.1888 H   0  0  0  0  0  0  0  0  0  0  0  0
   58.1160   32.3600   45.8610 C   0  0  0  0  0  0  0  0  0  0  0  0
   57.7609   31.3222   45.9434 H   0  0  0  0  0  0  0  0  0  0  0  0
  1  2  1  0
  2  3  1  0
  3  4  2  0
  3  5  1  0
  5  6  1  0
  5  7  1  0
  7  8  2  0
  8  9  1  0
  8 10  1  0
 10 11  1  0
 10 12  2  0
 12 13  1  0
 12 14  1  0
 14 15  1  0
 15 16  2  0
 15 17  2  0
 15 18  1  0
 18 19  2  0
 19 20  1  0
 20 21  1  0
 20 22  1  0
 22 23  1  0
 22 24  1  0
 22 25  1  0
 25 26  1  0
 25 27  1  0
 25 28  1  0
 28 29  1  0
 28 30  1  0
 14 31  2  0
 31 32  1  0
  2 33  2  3
 33 34  1  0
 33 35  1  0
 35 36  2  0
 36 37  1  0
 36 38  1  0
 38 39  1  0
 38 40  2  0
 40 41  1  0
 40 42  1  0
 42 43  1  0
 43 44  1  0
 44 45  1  0
 44 46  1  0
 44 47  1  0
 47 48  1  0
 48 49  2  0
 49 50  1  0
 50 51  1  0
 50 52  1  0
 50 53  1  0
 49 54  1  0
 54 55  1  0
 55 56  1  0
 42 57  2  0
 57 58  1  0
 31  7  1  0
 57 35  1  0
 28 19  1  0
 55 47  2  0
M  END
>  <UniqueID>  (44) 
40

>  <SMILES>  (44) 
Cc1nc(COc2cccc(C=CC(=O)Nc3cccc(S(=O)(=O)/N=C4\CCCN4)c3)c2)co1

>  <Energy>  (44) 
104.44589092011094

>  <Genealogy>  (44) 
Cc1nc(COc2cccc(C=CC(=O)Nc3cccc(S(=O)(=O)/N=C4\CCCN4)c3)c2)co1 (cis-trans isomerization)
Cc1nc(COc2cccc(C=CC(=O)Nc3cccc(S(=O)(=O)/N=C4\CCCN4)c3)c2)co1 (3D coordinates assigned)
Cc1nc(COc2cccc(C=CC(=O)Nc3cccc(S(=O)(=O)/N=C4\CCCN4)c3)c2)co1 (nonaromatic ring conformer: 104.44589092011094 kcal/mol)

>  <smiles>  (44) 
Cc1nc(COc2cccc(C=CC(=O)Nc3cccc(S(=O)(=O)N=C4CCCN4)c3)c2)co1

>  <score_type>  (44) 
oracle

>  <origin>  (44) 
adg

>  <m_score__min__energy>  (44) 
-10.85

>  <m_primary>  (44) 
energy

$$$$
44:0
     RDKit          3D

 30 32  0  0  0  0  0  0  0  0999 V2000
   54.7580   26.3340   45.9740 N   0  0  0  0  0  0  0  0  0  0  0  0
   56.1970   25.4150   46.2400 S   0  0  0  0  0  0  0  0  0  0  0  0
   56.2660   24.2980   45.2380 O   0  0  0  0  0  0  0  0  0  0  0  0
   56.1680   24.8230   47.6210 O   0  0  0  0  0  0  0  0  0  0  0  0
   57.6020   26.4620   46.0720 C   0  0  0  0  0  0  0  0  0  0  0  0
   58.8960   25.9290   46.1570 C   0  0  0  0  0  0  0  0  0  0  0  0
   60.0060   26.7620   46.0160 C   0  0  0  0  0  0  0  0  0  0  0  0
   59.8360   28.1300   45.7850 C   0  0  0  0  0  0  0  0  0  0  0  0
   58.5450   28.6800   45.6870 C   0  0  0  0  0  0  0  0  0  0  0  0
   58.3610   30.1310   45.4340 C   0  0  0  0  0  0  0  0  0  0  0  0
   57.5700   30.5760   44.3400 C   0  0  0  0  0  0  0  0  0  0  0  0
   57.3890   31.9490   44.0910 C   0  0  0  0  0  0  0  0  0  0  0  0
   58.0070   32.8530   44.9490 C   0  0  0  0  0  0  0  0  0  0  0  0
   57.9620   34.1940   44.8930 N   0  0  0  0  0  0  0  0  0  0  0  0
   58.7090   34.6330   45.9320 C   0  0  0  0  0  0  0  0  0  0  0  0
   59.2320   33.5630   46.6510 C   0  0  0  0  0  0  0  0  0  0  0  0
   58.7700   32.4360   46.0040 C   0  0  0  0  0  0  0  0  0  0  0  0
   58.9730   31.0870   46.2810 C   0  0  0  0  0  0  0  0  0  0  0  0
   57.4300   27.8320   45.8310 C   0  0  0  0  0  0  0  0  0  0  0  0
   54.7330   27.0800   46.7040 H   0  0  0  0  0  0  0  0  0  0  0  0
   59.0361   24.8526   46.3351 H   0  0  0  0  0  0  0  0  0  0  0  0
   61.0195   26.3404   46.0869 H   0  0  0  0  0  0  0  0  0  0  0  0
   60.7169   28.7803   45.6792 H   0  0  0  0  0  0  0  0  0  0  0  0
   57.0930   29.8372   43.6792 H   0  0  0  0  0  0  0  0  0  0  0  0
   56.7782   32.2965   43.2447 H   0  0  0  0  0  0  0  0  0  0  0  0
   57.4540   34.7810   44.1940 H   0  0  0  0  0  0  0  0  0  0  0  0
   58.8797   35.6921   46.1752 H   0  0  0  0  0  0  0  0  0  0  0  0
   59.8749   33.6064   47.5425 H   0  0  0  0  0  0  0  0  0  0  0  0
   59.5917   30.7722   47.1343 H   0  0  0  0  0  0  0  0  0  0  0  0
   56.4149   28.2485   45.7537 H   0  0  0  0  0  0  0  0  0  0  0  0
  1  2  1  0
  2  3  2  0
  2  4  2  0
  2  5  1  0
  5  6  2  0
  6  7  1  0
  7  8  2  0
  8  9  1  0
  9 10  1  0
 10 11  2  0
 11 12  1  0
 12 13  2  0
 13 14  1  0
 14 15  1  0
 15 16  2  0
 16 17  1  0
 17 18  2  0
  9 19  2  0
 19  5  1  0
 18 10  1  0
 17 13  1  0
  1 20  1  0
  6 21  1  0
  7 22  1  0
  8 23  1  0
 11 24  1  0
 12 25  1  0
 14 26  1  0
 15 27  1  0
 16 28  1  0
 18 29  1  0
 19 30  1  0
M  CHG  1   1  -1
M  END
>  <UniqueID>  (45) 
41

>  <SMILES>  (45) 
[NH-]S(=O)(=O)c1cccc(-c2ccc3[nH]ccc3c2)c1

>  <Energy>  (45) 
69.90944010342382

>  <Genealogy>  (45) 
[NH-]S(=O)(=O)c1cccc(-c2ccc3[nH]ccc3c2)c1 (protonated)
[NH-]S(=O)(=O)c1cccc(-c2ccc3[nH]ccc3c2)c1 (3D coordinates assigned)
[NH-]S(=O)(=O)c1cccc(-c2ccc3[nH]ccc3c2)c1 (optimized conformer: 69.90944010342382 kcal/mol)

>  <smiles>  (45) 
NS(=O)(=O)c1cccc(-c2ccc3[nH]ccc3c2)c1

>  <score_type>  (45) 
oracle

>  <origin>  (45) 
adg

>  <m_score__min__energy>  (45) 
-10.720000000000001

>  <m_primary>  (45) 
energy

$$$$
45:0
     RDKit          3D

 43 45  0  0  0  0  0  0  0  0999 V2000
   57.3820   31.7710   43.0250 N   0  0  0  0  0  0  0  0  0  0  0  0
   58.3170   31.5220   44.1280 C   0  0  2  0  0  0  0  0  0  0  0  0
   57.9220   30.2560   44.9180 C   0  0  0  0  0  0  0  0  0  0  0  0
   56.4540   29.9550   44.8420 C   0  0  0  0  0  0  0  0  0  0  0  0
   55.6440   30.8570   44.5000 O   0  0  0  0  0  0  0  0  0  0  0  0
   55.9940   28.6320   45.1460 N   0  0  0  0  0  0  0  0  0  0  0  0
   56.7770   27.5280   45.6220 C   0  0  0  0  0  0  0  0  0  0  0  0
   58.1840   27.5540   45.6120 C   0  0  0  0  0  0  0  0  0  0  0  0
   58.9110   26.4360   46.0290 C   0  0  0  0  0  0  0  0  0  0  0  0
   58.2470   25.2780   46.4350 C   0  0  0  0  0  0  0  0  0  0  0  0
   56.8480   25.2260   46.4220 C   0  0  0  0  0  0  0  0  0  0  0  0
   56.0120   23.7340   46.8530 S   0  0  0  0  0  0  0  0  0  0  0  0
   56.9180   22.8150   47.6250 O   0  0  0  0  0  0  0  0  0  0  0  0
   54.8220   24.0690   47.7070 O   0  0  0  0  0  0  0  0  0  0  0  0
   55.4770   22.9280   45.4140 N   0  0  0  0  0  0  0  0  0  0  0  0
   56.2890   22.3690   44.5720 C   0  0  0  0  0  0  0  0  0  0  0  0
   55.9030   21.8220   43.3980 N   0  0  0  0  0  0  0  0  0  0  0  0
   56.9610   21.3060   42.7200 C   0  0  0  0  0  0  0  0  0  0  0  0
   58.1910   21.4410   43.3550 C   0  0  0  0  0  0  0  0  0  0  0  0
   57.9420   22.2340   44.8200 S   0  0  0  0  0  0  0  0  0  0  0  0
   56.1150   26.3540   46.0130 C   0  0  0  0  0  0  0  0  0  0  0  0
   54.7240   26.3110   45.9840 O   0  0  0  0  0  0  0  0  0  0  0  0
   58.5060   32.7310   45.0390 C   0  0  0  0  0  0  0  0  0  0  0  0
   58.2470   32.6780   46.4250 C   0  0  0  0  0  0  0  0  0  0  0  0
   58.5090   33.7850   47.2380 C   0  0  0  0  0  0  0  0  0  0  0  0
   59.0320   34.9550   46.6830 C   0  0  0  0  0  0  0  0  0  0  0  0
   59.3000   35.0180   45.3150 C   0  0  0  0  0  0  0  0  0  0  0  0
   59.0440   33.9140   44.4980 C   0  0  0  0  0  0  0  0  0  0  0  0
   56.9180   30.8830   42.7230 H   0  0  0  0  0  0  0  0  0  0  0  0
   56.6380   32.4320   43.3490 H   0  0  0  0  0  0  0  0  0  0  0  0
   59.3010   31.3403   43.6711 H   0  0  0  0  0  0  0  0  0  0  0  0
   58.4776   29.3993   44.5089 H   0  0  0  0  0  0  0  0  0  0  0  0
   58.1679   30.4362   45.9749 H   0  0  0  0  0  0  0  0  0  0  0  0
   58.7132   28.4575   45.2748 H   0  0  0  0  0  0  0  0  0  0  0  0
   60.0105   26.4689   46.0372 H   0  0  0  0  0  0  0  0  0  0  0  0
   58.8248   24.4027   46.7665 H   0  0  0  0  0  0  0  0  0  0  0  0
   56.8528   20.8172   41.7405 H   0  0  0  0  0  0  0  0  0  0  0  0
   59.1590   21.0905   42.9675 H   0  0  0  0  0  0  0  0  0  0  0  0
   57.8361   31.7593   46.8691 H   0  0  0  0  0  0  0  0  0  0  0  0
   58.3027   33.7342   48.3173 H   0  0  0  0  0  0  0  0  0  0  0  0
   59.2325   35.8263   47.3238 H   0  0  0  0  0  0  0  0  0  0  0  0
   59.7138   35.9391   44.8788 H   0  0  0  0  0  0  0  0  0  0  0  0
   59.2649   33.9697   43.4219 H   0  0  0  0  0  0  0  0  0  0  0  0
  1  2  1  0
  2  3  1  0
  3  4  1  0
  4  5  2  0
  4  6  1  0
  6  7  1  0
  7  8  2  0
  8  9  1  0
  9 10  2  0
 10 11  1  0
 11 12  1  0
 12 13  2  0
 12 14  2  0
 12 15  1  0
 15 16  2  3
 16 17  1  0
 17 18  1  0
 18 19  2  0
 19 20  1  0
 11 21  2  0
 21 22  1  0
  2 23  1  0
 23 24  2  0
 24 25  1  0
 25 26  2  0
 26 27  1  0
 27 28  2  0
 21  7  1  0
 28 23  1  0
 20 16  1  0
  1 29  1  0
  1 30  1  0
  2 31  1  6
  3 32  1  0
  3 33  1  0
  8 34  1  0
  9 35  1  0
 10 36  1  0
 18 37  1  0
 19 38  1  0
 24 39  1  0
 25 40  1  0
 26 41  1  0
 27 42  1  0
 28 43  1  0
M  CHG  3   6  -1  17  -1  22  -1
M  END
>  <UniqueID>  (46) 
42

>  <SMILES>  (46) 
N[C@H](CC(=O)[N-]c1cccc(S(=O)(=O)N=c2[n-]ccs2)c1[O-])c1ccccc1

>  <Energy>  (46) 
79.16688207377847

>  <Genealogy>  (46) 
NC(CC(=O)[N-]c1cccc(S(=O)(=O)N=c2[n-]ccs2)c1[O-])c1ccccc1 (protonated)
N[C@H](CC(=O)[N-]c1cccc(S(=O)(=O)N=c2[n-]ccs2)c1[O-])c1ccccc1 (chirality)
N[C@H](CC(=O)[N-]c1cccc(S(=O)(=O)N=c2[n-]ccs2)c1[O-])c1ccccc1 (3D coordinates assigned)
N[C@H](CC(=O)[N-]c1cccc(S(=O)(=O)N=c2[n-]ccs2)c1[O-])c1ccccc1 (optimized conformer: 79.16688207377847 kcal/mol)

>  <smiles>  (46) 
NC(CC(=O)Nc1cccc(S(=O)(=O)N=c2[nH]ccs2)c1O)c1ccccc1

>  <score_type>  (46) 
oracle

>  <origin>  (46) 
adg

>  <m_score__min__energy>  (46) 
-16.609999999999999

>  <m_primary>  (46) 
energy

$$$$
46:0
     RDKit          3D

 59 63  0  0  1  0  0  0  0  0999 V2000
   56.8920   24.2620   47.5290 C   0  0  0  0  0  0  0  0  0  0  0  0
   56.2220   25.0010   46.4360 C   0  0  0  0  0  0  0  0  0  0  0  0
   54.9610   24.8400   46.3420 O   0  0  0  0  0  0  0  0  0  0  0  0
   56.9450   25.8720   45.4960 C   0  0  0  0  0  0  0  0  0  0  0  0
   57.4070   25.4240   44.2740 C   0  0  0  0  0  0  0  0  0  0  0  0
   58.0590   26.3340   43.4800 C   0  0  0  0  0  0  0  0  0  0  0  0
   58.2620   27.6470   43.8540 C   0  0  0  0  0  0  0  0  0  0  0  0
   57.8020   28.1140   45.0890 C   0  0  0  0  0  0  0  0  0  0  0  0
   57.9660   29.4990   45.4870 C   0  0  0  0  0  0  0  0  0  0  0  0
   57.3250   30.5000   44.8120 N   0  0  0  0  0  0  0  0  0  0  0  0
   57.6040   31.6910   45.3720 C   0  0  0  0  0  0  0  0  0  0  0  0
   57.0360   32.9610   44.8690 C   0  0  0  0  0  0  0  0  0  0  0  0
   57.0940   34.2360   45.6220 C   0  0  0  0  0  0  0  0  0  0  0  0
   58.0590   34.0160   44.4980 C   0  0  0  0  0  0  0  0  0  0  0  0
   58.4210   31.4210   46.3960 N   0  0  0  0  0  0  0  0  0  0  0  0
   58.6690   30.0970   46.5030 C   0  0  0  0  0  0  0  0  0  0  0  0
   59.5060   29.5070   47.5210 C   0  0  0  0  0  0  0  0  0  0  0  0
   59.4180   28.1150   47.6630 C   0  0  0  0  0  0  0  0  0  0  0  0
   60.1680   27.4380   48.6140 C   0  0  0  0  0  0  0  0  0  0  0  0
   60.9660   28.1580   49.3800 N   0  0  0  0  0  0  0  0  0  0  0  0
   61.0690   29.5240   49.2580 C   0  0  0  0  0  0  0  0  0  0  0  0
   61.8830   30.0710   50.0750 N   0  0  0  0  0  0  0  0  0  0  0  0
   61.8960   31.4720   50.2850 C   0  0  0  0  0  0  0  0  0  0  0  0
   61.7390   32.0270   51.3940 O   0  0  0  0  0  0  0  0  0  0  0  0
   62.1200   32.2600   49.0400 C   0  0  0  0  0  0  0  0  0  0  0  0
   63.3490   32.1170   48.4250 C   0  0  0  0  0  0  0  0  0  0  0  0
   63.6250   32.7830   47.2530 C   0  0  0  0  0  0  0  0  0  0  0  0
   62.6550   33.5820   46.7180 C   0  0  0  0  0  0  0  0  0  0  0  0
   61.4080   33.7340   47.3330 C   0  0  0  0  0  0  0  0  0  0  0  0
   60.4110   34.6170   46.6780 C   0  0  0  0  0  0  0  0  0  0  0  0
   61.1510   33.0600   48.5070 C   0  0  0  0  0  0  0  0  0  0  0  0
   59.8250   33.2260   49.1610 C   0  0  0  0  0  0  0  0  0  0  0  0
   60.3410   30.1910   48.3320 N   0  0  0  0  0  0  0  0  0  0  0  0
   57.1490   27.1860   45.8740 C   0  0  0  0  0  0  0  0  0  0  0  0
   56.5435   24.6464   48.4989 H   0  0  0  0  0  0  0  0  0  0  0  0
   56.6499   23.1919   47.4503 H   0  0  0  0  0  0  0  0  0  0  0  0
   57.9807   24.3984   47.4503 H   0  0  0  0  0  0  0  0  0  0  0  0
   57.2588   24.3830   43.9511 H   0  0  0  0  0  0  0  0  0  0  0  0
   58.4367   26.0020   42.5017 H   0  0  0  0  0  0  0  0  0  0  0  0
   58.7903   28.3320   43.1745 H   0  0  0  0  0  0  0  0  0  0  0  0
   56.1938   32.4257   44.4062 H   0  0  0  0  0  0  0  0  0  0  0  0
   56.2852   34.9734   45.5119 H   0  0  0  0  0  0  0  0  0  0  0  0
   57.1958   34.4996   46.6851 H   0  0  0  0  0  0  0  0  0  0  0  0
   57.9545   34.5821   43.5607 H   0  0  0  0  0  0  0  0  0  0  0  0
   59.1531   34.0427   44.3872 H   0  0  0  0  0  0  0  0  0  0  0  0
   58.8050   32.1970   47.0170 H   0  0  0  0  0  0  0  0  0  0  0  0
   58.7407   27.5481   47.0073 H   0  0  0  0  0  0  0  0  0  0  0  0
   60.1003   26.3457   48.7250 H   0  0  0  0  0  0  0  0  0  0  0  0
   61.5330   27.6410   50.1060 H   0  0  0  0  0  0  0  0  0  0  0  0
   64.1125   31.4659   48.8757 H   0  0  0  0  0  0  0  0  0  0  0  0
   64.6021   32.6747   46.7594 H   0  0  0  0  0  0  0  0  0  0  0  0
   62.8596   34.1193   45.7802 H   0  0  0  0  0  0  0  0  0  0  0  0
   59.8221   35.1386   47.4468 H   0  0  0  0  0  0  0  0  0  0  0  0
   60.9315   35.3558   46.0509 H   0  0  0  0  0  0  0  0  0  0  0  0
   59.7405   34.0111   46.0509 H   0  0  0  0  0  0  0  0  0  0  0  0
   59.9506   33.2103   50.2537 H   0  0  0  0  0  0  0  0  0  0  0  0
   59.3836   34.1864   48.8564 H   0  0  0  0  0  0  0  0  0  0  0  0
   59.1605   32.4040   48.8564 H   0  0  0  0  0  0  0  0  0  0  0  0
   56.7699   27.5095   46.8546 H   0  0  0  0  0  0  0  0  0  0  0  0
  1  2  1  0
  2  3  2  0
  2  4  1  0
  4  5  2  0
  5  6  1  0
  6  7  2  0
  7  8  1  0
  8  9  1  0
  9 10  1  0
 10 11  2  0
 11 12  1  0
 12 13  1  0
 13 14  1  0
 11 15  1  0
 15 16  1  0
 16 17  1  0
 17 18  1  0
 18 19  2  0
 19 20  1  0
 20 21  1  0
 21 22  2  0
 22 23  1  0
 23 24  2  0
 23 25  1  0
 25 26  2  0
 26 27  1  0
 27 28  2  0
 28 29  1  0
 29 30  1  0
 29 31  2  0
 31 32  1  0
 21 33  1  0
  8 34  2  0
 34  4  1  0
 16  9  2  0
 33 17  2  0
 14 12  1  0
 31 25  1  0
  1 35  1  0
  1 36  1  0
  1 37  1  0
  5 38  1  0
  6 39  1  0
  7 40  1  0
 12 41  1  0
 13 42  1  0
 13 43  1  0
 14 44  1  0
 14 45  1  0
 15 46  1  0
 18 47  1  0
 19 48  1  0
 20 49  1  0
 26 50  1  0
 27 51  1  0
 28 52  1  0
 30 53  1  0
 30 54  1  0
 30 55  1  0
 32 56  1  0
 32 57  1  0
 32 58  1  0
 34 59  1  0
M  END
>  <smiles>  (47) 
CC(=O)c1cccc(-c2nc(C3CC3)[nH]c2-c2cc[nH]c(=NC(=O)c3cccc(C)c3C)n2)c1

>  <score_type>  (47) 
oracle

>  <origin>  (47) 
adg

>  <m_score__min__energy>  (47) 
-10.720000000000001

>  <m_primary>  (47) 
energy

$$$$
47:0
     RDKit          3D

 46 48  0  0  0  0  0  0  0  0999 V2000
   57.1656   29.8434   42.3687 H   0  0  0  0  0  0  0  0  0  0  0  0
   56.9610   29.3380   43.3240 C   0  0  0  0  0  0  0  0  0  0  0  0
   56.0980   30.0050   44.3170 C   0  0  0  0  0  0  0  0  0  0  0  0
   55.1860   29.3430   44.8760 O   0  0  0  0  0  0  0  0  0  0  0  0
   56.2920   31.3760   44.6880 N   0  0  0  0  0  0  0  0  0  0  0  0
   57.4580   31.8920   45.3450 C   0  0  0  0  0  0  0  0  0  0  0  0
   58.1970   31.0460   46.1770 C   0  0  0  0  0  0  0  0  0  0  0  0
   57.8909   29.9969   46.3020 H   0  0  0  0  0  0  0  0  0  0  0  0
   59.3250   31.5280   46.8520 C   0  0  0  0  0  0  0  0  0  0  0  0
   60.0920   30.6450   47.6910 C   0  0  0  0  0  0  0  0  0  0  0  0
   60.7080   29.9360   48.3670 N   0  0  0  0  0  0  0  0  0  0  0  0
   59.7000   32.8700   46.7180 C   0  0  0  0  0  0  0  0  0  0  0  0
   60.5881   33.2445   47.2482 H   0  0  0  0  0  0  0  0  0  0  0  0
   58.9490   33.7430   45.9100 C   0  0  0  0  0  0  0  0  0  0  0  0
   59.3040   35.1350   45.8060 N   0  0  0  0  0  0  0  0  0  0  0  0
   59.6510   35.7810   46.8160 O   0  0  0  0  0  0  0  0  0  0  0  0
   59.2600   35.7790   44.5910 O   0  0  0  0  0  0  0  0  0  0  0  0
   57.8320   33.2410   45.2190 C   0  0  0  0  0  0  0  0  0  0  0  0
   57.2450   33.9108   44.5734 H   0  0  0  0  0  0  0  0  0  0  0  0
   57.5020   28.1360   43.5520 C   0  0  0  0  0  0  0  0  0  0  0  0
   57.4408   27.3678   42.7671 H   0  0  0  0  0  0  0  0  0  0  0  0
   58.1790   27.8060   44.8230 C   0  0  0  0  0  0  0  0  0  0  0  0
   59.5610   28.0270   44.9250 C   0  0  0  0  0  0  0  0  0  0  0  0
   60.1127   28.4411   44.0682 H   0  0  0  0  0  0  0  0  0  0  0  0
   60.2400   27.7250   46.1060 C   0  0  0  0  0  0  0  0  0  0  0  0
   61.3215   27.9116   46.1806 H   0  0  0  0  0  0  0  0  0  0  0  0
   59.5500   27.1870   47.1920 C   0  0  0  0  0  0  0  0  0  0  0  0
   60.0855   26.9624   48.1263 H   0  0  0  0  0  0  0  0  0  0  0  0
   58.1800   26.9330   47.0950 C   0  0  0  0  0  0  0  0  0  0  0  0
   57.6414   26.5054   47.9536 H   0  0  0  0  0  0  0  0  0  0  0  0
   57.4830   27.2210   45.9040 C   0  0  0  0  0  0  0  0  0  0  0  0
   56.1220   26.9060   45.7490 O   0  0  0  0  0  0  0  0  0  0  0  0
   55.5420   25.6170   45.9570 C   0  0  0  0  0  0  0  0  0  0  0  0
   55.5371   25.3966   47.0347 H   0  0  0  0  0  0  0  0  0  0  0  0
   54.5178   25.6300   45.5560 H   0  0  0  0  0  0  0  0  0  0  0  0
   56.3180   24.5410   45.2400 C   0  0  0  0  0  0  0  0  0  0  0  0
   57.4550   23.9770   45.8420 C   0  0  0  0  0  0  0  0  0  0  0  0
   57.7908   24.3395   46.8248 H   0  0  0  0  0  0  0  0  0  0  0  0
   58.1620   22.9570   45.1980 C   0  0  0  0  0  0  0  0  0  0  0  0
   59.0576   22.5270   45.6702 H   0  0  0  0  0  0  0  0  0  0  0  0
   57.7330   22.4830   43.9560 C   0  0  0  0  0  0  0  0  0  0  0  0
   58.2918   21.6822   43.4496 H   0  0  0  0  0  0  0  0  0  0  0  0
   56.5930   23.0270   43.3570 C   0  0  0  0  0  0  0  0  0  0  0  0
   56.2524   22.6509   42.3810 H   0  0  0  0  0  0  0  0  0  0  0  0
   55.8860   24.0480   43.9970 C   0  0  0  0  0  0  0  0  0  0  0  0
   54.9858   24.4685   43.5251 H   0  0  0  0  0  0  0  0  0  0  0  0
  1  2  1  0
  2  3  1  0
  3  4  2  0
  3  5  1  0
  5  6  1  0
  6  7  2  0
  7  8  1  0
  7  9  1  0
  9 10  1  0
 10 11  3  0
  9 12  2  0
 12 13  1  0
 12 14  1  0
 14 15  1  0
 15 16  2  0
 15 17  1  0
 14 18  2  0
 18 19  1  0
  2 20  2  0
 20 21  1  0
 20 22  1  0
 22 23  2  0
 23 24  1  0
 23 25  1  0
 25 26  1  0
 25 27  2  0
 27 28  1  0
 27 29  1  0
 29 30  1  0
 29 31  2  0
 31 32  1  0
 32 33  1  0
 33 34  1  0
 33 35  1  0
 33 36  1  0
 36 37  2  0
 37 38  1  0
 37 39  1  0
 39 40  1  0
 39 41  2  0
 41 42  1  0
 41 43  1  0
 43 44  1  0
 43 45  2  0
 45 46  1  0
 18  6  1  0
 31 22  1  0
 45 36  1  0
M  CHG  3   5  -1  15   1  17  -1
M  END
>  <UniqueID>  (48) 
43

>  <SMILES>  (48) 
N#Cc1cc([N-]C(=O)/C=C/c2ccccc2OCc2ccccc2)cc([N+](=O)[O-])c1

>  <Energy>  (48) 
56.87900367103596

>  <Genealogy>  (48) 
N#Cc1cc([N-]C(=O)C=Cc2ccccc2OCc2ccccc2)cc([N+](=O)[O-])c1 (protonated)
N#Cc1cc([N-]C(=O)/C=C/c2ccccc2OCc2ccccc2)cc([N+](=O)[O-])c1 (cis-trans isomerization)
N#Cc1cc([N-]C(=O)/C=C/c2ccccc2OCc2ccccc2)cc([N+](=O)[O-])c1 (3D coordinates assigned)
N#Cc1cc([N-]C(=O)/C=C/c2ccccc2OCc2ccccc2)cc([N+](=O)[O-])c1 (optimized conformer: 56.87900367103596 kcal/mol)

>  <smiles>  (48) 
N#Cc1cc(NC(=O)C=Cc2ccccc2OCc2ccccc2)cc([N+](=O)[O-])c1

>  <score_type>  (48) 
oracle

>  <origin>  (48) 
adg

>  <m_score__min__energy>  (48) 
-10.609999999999999

>  <m_primary>  (48) 
energy

$$$$
48:0
     RDKit          3D

 45 47  0  0  0  0  0  0  0  0999 V2000
   59.9760   30.2450   50.1460 C   0  0  0  0  0  0  0  0  0  0  0  0
   60.6270   31.1580   49.1480 C   0  0  0  0  0  0  0  0  0  0  0  0
   62.0210   31.1990   49.0400 C   0  0  0  0  0  0  0  0  0  0  0  0
   62.6320   32.0710   48.1390 C   0  0  0  0  0  0  0  0  0  0  0  0
   61.8620   32.9280   47.3350 C   0  0  0  0  0  0  0  0  0  0  0  0
   62.5640   33.8660   46.3900 C   0  0  0  0  0  0  0  0  0  0  0  0
   60.4500   32.9140   47.4630 C   0  0  0  0  0  0  0  0  0  0  0  0
   59.4150   33.9760   46.4920 S   0  0  0  0  0  0  0  0  0  0  0  0
   60.0880   34.2540   45.1780 O   0  0  0  0  0  0  0  0  0  0  0  0
   59.1880   35.2760   47.2110 O   0  0  0  0  0  0  0  0  0  0  0  0
   57.8860   33.1960   46.2320 N   0  0  0  0  0  0  0  0  0  0  0  0
   57.7380   31.9290   45.5700 C   0  0  0  0  0  0  0  0  0  0  0  0
   57.2030   31.8960   44.2750 C   0  0  0  0  0  0  0  0  0  0  0  0
   57.0320   30.6800   43.6100 C   0  0  0  0  0  0  0  0  0  0  0  0
   57.4000   29.4820   44.2270 C   0  0  0  0  0  0  0  0  0  0  0  0
   57.9540   29.4890   45.5200 C   0  0  0  0  0  0  0  0  0  0  0  0
   58.3670   28.2210   46.1680 C   0  0  0  0  0  0  0  0  0  0  0  0
   59.5930   27.9340   46.2560 O   0  0  0  0  0  0  0  0  0  0  0  0
   57.3680   27.3300   46.6960 N   0  0  0  0  0  0  0  0  0  0  0  0
   57.1140   26.1120   46.3100 C   0  0  0  0  0  0  0  0  0  0  0  0
   58.1010   25.1720   46.2410 N   0  0  0  0  0  0  0  0  0  0  0  0
   57.8590   23.8990   45.8300 C   0  0  0  0  0  0  0  0  0  0  0  0
   56.5680   23.5200   45.4600 C   0  0  0  0  0  0  0  0  0  0  0  0
   55.5380   24.4580   45.5200 C   0  0  0  0  0  0  0  0  0  0  0  0
   55.8050   25.7610   45.9460 C   0  0  0  0  0  0  0  0  0  0  0  0
   54.7770   26.6960   46.0040 O   0  0  0  0  0  0  0  0  0  0  0  0
   58.1240   30.7210   46.1830 C   0  0  0  0  0  0  0  0  0  0  0  0
   59.8490   32.0250   48.3700 C   0  0  0  0  0  0  0  0  0  0  0  0
   60.2173   30.5834   51.1645 H   0  0  0  0  0  0  0  0  0  0  0  0
   58.8856   30.2627   50.0024 H   0  0  0  0  0  0  0  0  0  0  0  0
   60.3481   29.2199   50.0024 H   0  0  0  0  0  0  0  0  0  0  0  0
   62.6383   30.5404   49.6686 H   0  0  0  0  0  0  0  0  0  0  0  0
   63.7288   32.0879   48.0570 H   0  0  0  0  0  0  0  0  0  0  0  0
   63.1251   34.6158   46.9670 H   0  0  0  0  0  0  0  0  0  0  0  0
   63.2590   33.2957   45.7562 H   0  0  0  0  0  0  0  0  0  0  0  0
   61.8209   34.3720   45.7562 H   0  0  0  0  0  0  0  0  0  0  0  0
   57.0490   33.6370   46.6750 H   0  0  0  0  0  0  0  0  0  0  0  0
   56.9157   32.8348   43.7788 H   0  0  0  0  0  0  0  0  0  0  0  0
   56.6057   30.6655   42.5961 H   0  0  0  0  0  0  0  0  0  0  0  0
   57.2558   28.5279   43.6989 H   0  0  0  0  0  0  0  0  0  0  0  0
   58.6802   23.1683   45.7891 H   0  0  0  0  0  0  0  0  0  0  0  0
   56.3650   22.4922   45.1246 H   0  0  0  0  0  0  0  0  0  0  0  0
   54.5157   24.1718   45.2320 H   0  0  0  0  0  0  0  0  0  0  0  0
   58.5634   30.7394   47.1913 H   0  0  0  0  0  0  0  0  0  0  0  0
   58.7537   32.0096   48.4704 H   0  0  0  0  0  0  0  0  0  0  0  0
  1  2  1  0
  2  3  2  0
  3  4  1  0
  4  5  2  0
  5  6  1  0
  5  7  1  0
  7  8  1  0
  8  9  2  0
  8 10  2  0
  8 11  1  0
 11 12  1  0
 12 13  2  0
 13 14  1  0
 14 15  2  0
 15 16  1  0
 16 17  1  0
 17 18  2  0
 17 19  1  0
 19 20  2  3
 20 21  1  0
 21 22  1  0
 22 23  2  0
 23 24  1  0
 24 25  2  0
 25 26  1  0
 16 27  2  0
  7 28  2  0
 28  2  1  0
 27 12  1  0
 25 20  1  0
  1 29  1  0
  1 30  1  0
  1 31  1  0
  3 32  1  0
  4 33  1  0
  6 34  1  0
  6 35  1  0
  6 36  1  0
 11 37  1  0
 13 38  1  0
 14 39  1  0
 15 40  1  0
 22 41  1  0
 23 42  1  0
 24 43  1  0
 27 44  1  0
 28 45  1  0
M  CHG  2  21  -1  26  -1
M  END
>  <UniqueID>  (49) 
44

>  <SMILES>  (49) 
Cc1ccc(C)c(S(=O)(=O)Nc2cccc(C(=O)N=c3[n-]cccc3[O-])c2)c1

>  <Energy>  (49) 
56.615501521057745

>  <Genealogy>  (49) 
Cc1ccc(C)c(S(=O)(=O)Nc2cccc(C(=O)N=c3[n-]cccc3[O-])c2)c1 (protonated)
Cc1ccc(C)c(S(=O)(=O)Nc2cccc(C(=O)N=c3[n-]cccc3[O-])c2)c1 (3D coordinates assigned)
Cc1ccc(C)c(S(=O)(=O)Nc2cccc(C(=O)N=c3[n-]cccc3[O-])c2)c1 (optimized conformer: 56.615501521057745 kcal/mol)

>  <smiles>  (49) 
Cc1ccc(C)c(S(=O)(=O)Nc2cccc(C(=O)N=c3[nH]cccc3O)c2)c1

>  <score_type>  (49) 
oracle

>  <origin>  (49) 
adg

>  <m_score__min__energy>  (49) 
-15.01

>  <m_primary>  (49) 
energy

$$$$
49:0
     RDKit          3D

 23 24  0  0  0  0  0  0  0  0999 V2000
   58.0001   26.5870   45.9421 H   0  0  0  0  0  0  0  0  0  0  0  0
   57.4820   27.5110   45.6460 C   0  0  0  0  0  0  0  0  0  0  0  0
   58.2120   28.9440   45.1470 S   0  0  0  0  0  0  0  0  0  0  0  0
   56.7470   29.7270   44.9090 C   0  0  0  0  0  0  0  0  0  0  0  0
   56.6500   30.9690   44.5320 N   0  0  0  0  0  0  0  0  0  0  0  0
   57.4900   32.0590   44.9470 C   0  0  0  0  0  0  0  0  0  0  0  0
   58.1650   32.8770   44.0230 C   0  0  0  0  0  0  0  0  0  0  0  0
   58.0370   32.7063   42.9439 H   0  0  0  0  0  0  0  0  0  0  0  0
   58.9970   33.9050   44.4710 C   0  0  0  0  0  0  0  0  0  0  0  0
   59.5105   34.5506   43.7433 H   0  0  0  0  0  0  0  0  0  0  0  0
   59.1800   34.1170   45.8400 C   0  0  0  0  0  0  0  0  0  0  0  0
   60.0090   35.1470   46.2710 O   0  0  0  0  0  0  0  0  0  0  0  0
   58.5390   33.2930   46.7750 C   0  0  0  0  0  0  0  0  0  0  0  0
   58.7590   33.5330   48.1410 O   0  0  0  0  0  0  0  0  0  0  0  0
   60.0440   33.6390   48.7430 C   0  0  0  0  0  0  0  0  0  0  0  0
   59.9378   33.6302   49.8378 H   0  0  0  0  0  0  0  0  0  0  0  0
   60.6676   32.7892   48.4283 H   0  0  0  0  0  0  0  0  0  0  0  0
   60.5199   34.5795   48.4283 H   0  0  0  0  0  0  0  0  0  0  0  0
   57.7010   32.2560   46.3190 C   0  0  0  0  0  0  0  0  0  0  0  0
   57.2076   31.5947   47.0465 H   0  0  0  0  0  0  0  0  0  0  0  0
   55.6930   28.9370   45.2130 N   0  0  0  0  0  0  0  0  0  0  0  0
   56.1060   27.7070   45.6160 C   0  0  0  0  0  0  0  0  0  0  0  0
   55.2040   26.7160   45.9770 O   0  0  0  0  0  0  0  0  0  0  0  0
  1  2  1  0
  2  3  1  0
  3  4  1  0
  4  5  2  0
  5  6  1  0
  6  7  2  0
  7  8  1  0
  7  9  1  0
  9 10  1  0
  9 11  2  0
 11 12  1  0
 11 13  1  0
 13 14  1  0
 14 15  1  0
 15 16  1  0
 15 17  1  0
 15 18  1  0
 13 19  2  0
 19 20  1  0
  4 21  1  0
 21 22  1  0
 22 23  1  0
 22  2  2  0
 19  6  1  0
M  CHG  3  12  -1  21  -1  23  -1
M  END
>  <UniqueID>  (50) 
45

>  <SMILES>  (50) 
COc1cc(/N=c2\[n-]c([O-])cs2)ccc1[O-]

>  <Energy>  (50) 
59.24090575480852

>  <Genealogy>  (50) 
COc1cc(N=c2[n-]c([O-])cs2)ccc1[O-] (protonated)
COc1cc(/N=c2\[n-]c([O-])cs2)ccc1[O-] (cis-trans isomerization)
COc1cc(/N=c2\[n-]c([O-])cs2)ccc1[O-] (3D coordinates assigned)
COc1cc(/N=c2\[n-]c([O-])cs2)ccc1[O-] (optimized conformer: 59.24090575480852 kcal/mol)

>  <smiles>  (50) 
COc1cc(N=c2[nH]c(O)cs2)ccc1O

>  <score_type>  (50) 
oracle

>  <origin>  (50) 
adg

>  <m_score__min__energy>  (50) 
-11.57

>  <m_primary>  (50) 
energy

$$$$
50:0
     RDKit          3D

 42 43  0  0  0  0  0  0  0  0999 V2000
   59.6480   27.1930   48.3230 C   0  0  0  0  0  0  0  0  0  0  0  0
   59.6510   27.3490   46.8640 N   0  0  0  0  0  0  0  0  0  0  0  0
   59.6800   26.1560   46.0010 C   0  0  0  0  0  0  0  0  0  0  0  0
   58.2880   25.6220   45.7660 C   0  0  0  0  0  0  0  0  0  0  0  0
   58.0990   24.3040   45.3160 C   0  0  0  0  0  0  0  0  0  0  0  0
   56.8090   23.8050   45.1140 C   0  0  0  0  0  0  0  0  0  0  0  0
   55.6940   24.6050   45.3820 C   0  0  0  0  0  0  0  0  0  0  0  0
   54.0810   23.9660   45.1030 Cl  0  0  0  0  0  0  0  0  0  0  0  0
   55.8720   25.9070   45.8660 C   0  0  0  0  0  0  0  0  0  0  0  0
   54.7720   26.7080   46.1500 O   0  0  0  0  0  0  0  0  0  0  0  0
   57.1630   26.4110   46.0620 C   0  0  0  0  0  0  0  0  0  0  0  0
   59.5870   28.6840   46.3200 C   0  0  0  0  0  0  0  0  0  0  0  0
   60.4030   29.5590   46.7190 O   0  0  0  0  0  0  0  0  0  0  0  0
   58.5910   29.0680   45.2600 C   0  0  0  0  0  0  0  0  0  0  0  0
   58.5400   30.5180   45.1020 N   0  0  0  0  0  0  0  0  0  0  0  0
   57.3620   31.2040   44.6600 C   0  0  0  0  0  0  0  0  0  0  0  0
   56.2530   30.6040   44.6220 O   0  0  0  0  0  0  0  0  0  0  0  0
   57.4380   32.6460   44.2490 C   0  0  0  0  0  0  0  0  0  0  0  0
   58.1510   33.4920   45.2770 C   0  0  0  0  0  0  0  0  0  0  0  0
   58.1060   33.1310   46.6360 C   0  0  0  0  0  0  0  0  0  0  0  0
   58.8160   33.8720   47.5870 C   0  0  0  0  0  0  0  0  0  0  0  0
   59.5840   34.9700   47.1900 C   0  0  0  0  0  0  0  0  0  0  0  0
   59.6430   35.3300   45.8420 C   0  0  0  0  0  0  0  0  0  0  0  0
   58.9360   34.5940   44.8880 C   0  0  0  0  0  0  0  0  0  0  0  0
   59.6671   28.1850   48.7979 H   0  0  0  0  0  0  0  0  0  0  0  0
   58.7393   26.6558   48.6325 H   0  0  0  0  0  0  0  0  0  0  0  0
   60.5353   26.6212   48.6325 H   0  0  0  0  0  0  0  0  0  0  0  0
   60.1305   26.4231   45.0337 H   0  0  0  0  0  0  0  0  0  0  0  0
   60.2735   25.3768   46.5016 H   0  0  0  0  0  0  0  0  0  0  0  0
   58.9707   23.6618   45.1218 H   0  0  0  0  0  0  0  0  0  0  0  0
   56.6705   22.7789   44.7427 H   0  0  0  0  0  0  0  0  0  0  0  0
   57.2981   27.4313   46.4503 H   0  0  0  0  0  0  0  0  0  0  0  0
   58.8864   28.6107   44.3042 H   0  0  0  0  0  0  0  0  0  0  0  0
   57.5960   28.7097   45.5628 H   0  0  0  0  0  0  0  0  0  0  0  0
   59.3860   31.0740   45.3590 H   0  0  0  0  0  0  0  0  0  0  0  0
   57.9806   32.7149   43.2946 H   0  0  0  0  0  0  0  0  0  0  0  0
   56.4101   33.0254   44.1514 H   0  0  0  0  0  0  0  0  0  0  0  0
   57.5099   32.2623   46.9523 H   0  0  0  0  0  0  0  0  0  0  0  0
   58.7696   33.5898   48.6492 H   0  0  0  0  0  0  0  0  0  0  0  0
   60.1420   35.5507   47.9393 H   0  0  0  0  0  0  0  0  0  0  0  0
   60.2474   36.1948   45.5307 H   0  0  0  0  0  0  0  0  0  0  0  0
   58.9930   34.8772   43.8266 H   0  0  0  0  0  0  0  0  0  0  0  0
  1  2  1  0
  2  3  1  0
  3  4  1  0
  4  5  2  0
  5  6  1  0
  6  7  2  0
  7  8  1  0
  7  9  1  0
  9 10  1  0
  9 11  2  0
  2 12  1  0
 12 13  2  0
 12 14  1  0
 14 15  1  0
 15 16  1  0
 16 17  2  0
 16 18  1  0
 18 19  1  0
 19 20  2  0
 20 21  1  0
 21 22  2  0
 22 23  1  0
 23 24  2  0
 11  4  1  0
 24 19  1  0
  1 25  1  0
  1 26  1  0
  1 27  1  0
  3 28  1  0
  3 29  1  0
  5 30  1  0
  6 31  1  0
 11 32  1  0
 14 33  1  0
 14 34  1  0
 15 35  1  0
 18 36  1  0
 18 37  1  0
 20 38  1  0
 21 39  1  0
 22 40  1  0
 23 41  1  0
 24 42  1  0
M  CHG  1  10  -1
M  END
>  <UniqueID>  (51) 
46

>  <SMILES>  (51) 
CN(Cc1ccc(Cl)c([O-])c1)C(=O)CNC(=O)Cc1ccccc1

>  <Energy>  (51) 
34.254540838115346

>  <Genealogy>  (51) 
CN(Cc1ccc(Cl)c([O-])c1)C(=O)CNC(=O)Cc1ccccc1 (protonated)
CN(Cc1ccc(Cl)c([O-])c1)C(=O)CNC(=O)Cc1ccccc1 (3D coordinates assigned)
CN(Cc1ccc(Cl)c([O-])c1)C(=O)CNC(=O)Cc1ccccc1 (optimized conformer: 34.254540838115346 kcal/mol)

>  <smiles>  (51) 
CN(Cc1ccc(Cl)c(O)c1)C(=O)CNC(=O)Cc1ccccc1

>  <score_type>  (51) 
oracle

>  <origin>  (51) 
adg

>  <m_score__min__energy>  (51) 
-12.07

>  <m_primary>  (51) 
energy

$$$$
51:0
     RDKit          3D

 38 40  0  0  0  0  0  0  0  0999 V2000
   55.2260   29.3390   44.8690 N   0  0  0  0  0  0  0  0  0  0  0  0
   56.8840   29.4050   44.3870 S   0  0  0  0  0  0  0  0  0  0  0  0
   57.6340   28.2600   45.0080 O   0  0  0  0  0  0  0  0  0  0  0  0
   56.9790   29.2900   42.8910 O   0  0  0  0  0  0  0  0  0  0  0  0
   57.5840   30.9310   44.9150 C   0  0  0  0  0  0  0  0  0  0  0  0
   57.0250   32.1470   44.4980 C   0  0  0  0  0  0  0  0  0  0  0  0
   57.5720   33.3570   44.9300 C   0  0  0  0  0  0  0  0  0  0  0  0
   58.6790   33.3610   45.7820 C   0  0  0  0  0  0  0  0  0  0  0  0
   59.2500   32.1510   46.2100 C   0  0  0  0  0  0  0  0  0  0  0  0
   60.3840   32.1570   47.1010 N   0  0  0  0  0  0  0  0  0  0  0  0
   61.5090   32.8420   46.7420 C   0  0  0  0  0  0  0  0  0  0  0  0
   62.6160   32.8760   47.5830 C   0  0  0  0  0  0  0  0  0  0  0  0
   62.5570   32.1990   48.8050 C   0  0  0  0  0  0  0  0  0  0  0  0
   63.6820   32.2120   49.7060 N   0  0  0  0  0  0  0  0  0  0  0  0
   63.5970   31.5390   51.0050 C   0  0  0  0  0  0  0  0  0  0  0  0
   64.8460   30.6870   51.1960 C   0  0  0  0  0  0  0  0  0  0  0  0
   66.0170   31.4830   51.0320 O   0  0  0  0  0  0  0  0  0  0  0  0
   66.0910   32.5220   50.0980 C   0  0  0  0  0  0  0  0  0  0  0  0
   67.2020   33.0690   49.8710 O   0  0  0  0  0  0  0  0  0  0  0  0
   64.8570   33.0430   49.4090 C   0  0  0  0  0  0  0  0  0  0  0  0
   61.4270   31.5120   49.1300 N   0  0  0  0  0  0  0  0  0  0  0  0
   60.3510   31.4820   48.2950 C   0  0  0  0  0  0  0  0  0  0  0  0
   59.3330   30.8130   48.6240 O   0  0  0  0  0  0  0  0  0  0  0  0
   58.6910   30.9370   45.7760 C   0  0  0  0  0  0  0  0  0  0  0  0
   55.1550   28.6160   45.6190 H   0  0  0  0  0  0  0  0  0  0  0  0
   56.1525   32.1480   43.8282 H   0  0  0  0  0  0  0  0  0  0  0  0
   57.1305   34.3085   44.5989 H   0  0  0  0  0  0  0  0  0  0  0  0
   59.1059   34.3169   46.1196 H   0  0  0  0  0  0  0  0  0  0  0  0
   61.5401   33.3720   45.7786 H   0  0  0  0  0  0  0  0  0  0  0  0
   63.5229   33.4263   47.2918 H   0  0  0  0  0  0  0  0  0  0  0  0
   63.5343   32.2891   51.8072 H   0  0  0  0  0  0  0  0  0  0  0  0
   62.7002   30.9029   51.0398 H   0  0  0  0  0  0  0  0  0  0  0  0
   64.8395   30.2550   52.2076 H   0  0  0  0  0  0  0  0  0  0  0  0
   64.8504   29.8844   50.4438 H   0  0  0  0  0  0  0  0  0  0  0  0
   64.6637   34.0704   49.7511 H   0  0  0  0  0  0  0  0  0  0  0  0
   65.0317   33.0177   48.3233 H   0  0  0  0  0  0  0  0  0  0  0  0
   61.3880   30.9710   50.0220 H   0  0  0  0  0  0  0  0  0  0  0  0
   59.1249   29.9844   46.1141 H   0  0  0  0  0  0  0  0  0  0  0  0
  1  2  1  0
  2  3  2  0
  2  4  2  0
  2  5  1  0
  5  6  2  0
  6  7  1  0
  7  8  2  0
  8  9  1  0
  9 10  1  0
 10 11  1  0
 11 12  2  0
 12 13  1  0
 13 14  1  0
 14 15  1  0
 15 16  1  0
 16 17  1  0
 17 18  1  0
 18 19  2  0
 18 20  1  0
 13 21  2  0
 21 22  1  0
 22 23  2  0
  9 24  2  0
 24  5  1  0
 22 10  1  0
 20 14  1  0
  1 25  1  0
  6 26  1  0
  7 27  1  0
  8 28  1  0
 11 29  1  0
 12 30  1  0
 15 31  1  0
 15 32  1  0
 16 33  1  0
 16 34  1  0
 20 35  1  0
 20 36  1  0
 21 37  1  0
 24 38  1  0
M  CHG  2   1  -1  21   1
M  END
>  <UniqueID>  (52) 
47

>  <SMILES>  (52) 
[NH-]S(=O)(=O)c1cccc(-n2ccc(N3CCOC(=O)C3)[nH+]c2=O)c1

>  <Energy>  (52) 
51.658103191454934

>  <Genealogy>  (52) 
[NH-]S(=O)(=O)c1cccc(-n2ccc(N3CCOC(=O)C3)[nH+]c2=O)c1 (protonated)
[NH-]S(=O)(=O)c1cccc(-n2ccc(N3CCOC(=O)C3)[nH+]c2=O)c1 (3D coordinates assigned)
[NH-]S(=O)(=O)c1cccc(-n2ccc(N3CCOC(=O)C3)[nH+]c2=O)c1 (nonaromatic ring conformer: 51.658103191454934 kcal/mol)

>  <smiles>  (52) 
NS(=O)(=O)c1cccc(-n2ccc(N3CCOC(=O)C3)nc2=O)c1

>  <score_type>  (52) 
oracle

>  <origin>  (52) 
adg

>  <m_score__min__energy>  (52) 
-8.8499999999999996

>  <m_primary>  (52) 
energy

$$$$
52:0
     RDKit          3D

 46 48  0  0  0  0  0  0  0  0999 V2000
   55.2250   26.7140   45.9810 N   0  0  0  0  0  0  0  0  0  0  0  0
   56.5820   27.1300   45.8320 C   0  0  0  0  0  0  0  0  0  0  0  0
   57.5070   26.3320   46.1430 O   0  0  0  0  0  0  0  0  0  0  0  0
   56.9020   28.4830   45.3210 C   0  0  0  0  0  0  0  0  0  0  0  0
   58.1570   29.0650   45.5750 C   0  0  0  0  0  0  0  0  0  0  0  0
   58.4540   30.3490   45.1110 C   0  0  0  0  0  0  0  0  0  0  0  0
   57.4940   31.0880   44.4000 C   0  0  0  0  0  0  0  0  0  0  0  0
   57.7940   32.4990   43.9320 C   0  0  0  0  0  0  0  0  0  0  0  0
   58.1400   33.4330   45.0290 N   0  0  0  0  0  0  0  0  0  0  0  0
   59.5920   33.7010   45.1760 C   0  0  0  0  0  0  0  0  0  0  0  0
   60.1960   32.9820   46.3900 C   0  0  0  0  0  0  0  0  0  0  0  0
   59.5110   33.4250   47.7040 C   0  0  0  0  0  0  0  0  0  0  0  0
   59.5930   32.3110   48.7260 C   0  0  0  0  0  0  0  0  0  0  0  0
   60.6590   31.4050   48.7190 C   0  0  0  0  0  0  0  0  0  0  0  0
   60.6840   30.3710   49.6520 C   0  0  0  0  0  0  0  0  0  0  0  0
   59.6500   30.2300   50.5830 C   0  0  0  0  0  0  0  0  0  0  0  0
   59.7630   29.2220   51.5430 O   0  0  0  0  0  0  0  0  0  0  0  0
   58.5600   31.1320   50.5320 C   0  0  0  0  0  0  0  0  0  0  0  0
   57.3710   31.0220   51.4000 C   0  0  0  0  0  0  0  0  0  0  0  0
   57.0270   29.7590   51.9630 N   0  0  0  0  0  0  0  0  0  0  0  0
   56.6910   32.0390   51.7040 O   0  0  0  0  0  0  0  0  0  0  0  0
   58.5790   32.1390   49.6170 N   0  0  0  0  0  0  0  0  0  0  0  0
   58.0470   33.8840   47.4840 C   0  0  0  0  0  0  0  0  0  0  0  0
   57.4080   33.1640   46.2900 C   0  0  0  0  0  0  0  0  0  0  0  0
   56.2550   30.4930   44.1100 C   0  0  0  0  0  0  0  0  0  0  0  0
   55.9600   29.2080   44.5720 C   0  0  0  0  0  0  0  0  0  0  0  0
   54.6280   27.0950   46.7480 H   0  0  0  0  0  0  0  0  0  0  0  0
   58.9122   28.5037   46.1447 H   0  0  0  0  0  0  0  0  0  0  0  0
   59.4458   30.7839   45.3037 H   0  0  0  0  0  0  0  0  0  0  0  0
   58.6406   32.4590   43.2308 H   0  0  0  0  0  0  0  0  0  0  0  0
   56.8759   32.8825   43.4629 H   0  0  0  0  0  0  0  0  0  0  0  0
   60.1090   33.3575   44.2679 H   0  0  0  0  0  0  0  0  0  0  0  0
   59.7214   34.7830   45.3264 H   0  0  0  0  0  0  0  0  0  0  0  0
   60.0647   31.8970   46.2657 H   0  0  0  0  0  0  0  0  0  0  0  0
   61.2635   33.2405   46.4508 H   0  0  0  0  0  0  0  0  0  0  0  0
   60.0521   34.3029   48.0867 H   0  0  0  0  0  0  0  0  0  0  0  0
   61.4702   31.5083   47.9833 H   0  0  0  0  0  0  0  0  0  0  0  0
   61.5233   29.6600   49.6565 H   0  0  0  0  0  0  0  0  0  0  0  0
   59.0000   28.9260   52.1350 H   0  0  0  0  0  0  0  0  0  0  0  0
   57.7600   29.1290   52.3580 H   0  0  0  0  0  0  0  0  0  0  0  0
   57.4628   33.6631   48.3895 H   0  0  0  0  0  0  0  0  0  0  0  0
   58.0505   34.9640   47.2754 H   0  0  0  0  0  0  0  0  0  0  0  0
   57.4152   32.0809   46.4818 H   0  0  0  0  0  0  0  0  0  0  0  0
   56.3800   33.5382   46.1752 H   0  0  0  0  0  0  0  0  0  0  0  0
   55.5114   31.0430   43.5146 H   0  0  0  0  0  0  0  0  0  0  0  0
   54.9810   28.7596   44.3472 H   0  0  0  0  0  0  0  0  0  0  0  0
  1  2  1  0
  2  3  2  0
  2  4  1  0
  4  5  2  0
  5  6  1  0
  6  7  2  0
  7  8  1  0
  8  9  1  0
  9 10  1  0
 10 11  1  0
 11 12  1  0
 12 13  1  0
 13 14  2  0
 14 15  1  0
 15 16  2  0
 16 17  1  0
 16 18  1  0
 18 19  1  0
 19 20  1  0
 19 21  2  0
 18 22  2  0
 12 23  1  0
 23 24  1  0
  7 25  1  0
 25 26  2  0
 26  4  1  0
 24  9  1  0
 22 13  1  0
  1 27  1  0
  5 28  1  0
  6 29  1  0
  8 30  1  0
  8 31  1  0
 10 32  1  0
 10 33  1  0
 11 34  1  0
 11 35  1  0
 12 36  1  0
 14 37  1  0
 15 38  1  0
 17 39  1  0
 20 40  1  0
 23 41  1  0
 23 42  1  0
 24 43  1  0
 24 44  1  0
 25 45  1  0
 26 46  1  0
M  CHG  2   1  -1  20  -1
M  END
>  <UniqueID>  (53) 
48

>  <SMILES>  (53) 
[NH-]C(=O)c1ccc(CN2CCC(c3ccc(O)c(C([NH-])=O)n3)CC2)cc1

>  <Energy>  (53) 
60.764131313301746

>  <Genealogy>  (53) 
[NH-]C(=O)c1ccc(CN2CCC(c3ccc(O)c(C([NH-])=O)n3)CC2)cc1 (protonated)
[NH-]C(=O)c1ccc(CN2CCC(c3ccc(O)c(C([NH-])=O)n3)CC2)cc1 (3D coordinates assigned)
[NH-]C(=O)c1ccc(CN2CCC(c3ccc(O)c(C([NH-])=O)n3)CC2)cc1 (nonaromatic ring conformer: 60.764131313301746 kcal/mol)

>  <smiles>  (53) 
NC(=O)c1ccc(CN2CCC(c3ccc(O)c(C(N)=O)n3)CC2)cc1

>  <score_type>  (53) 
oracle

>  <origin>  (53) 
adg

>  <m_score__min__energy>  (53) 
-12.69

>  <m_primary>  (53) 
energy

$$$$
53:0
     RDKit          3D

 39 42  0  0  0  0  0  0  0  0999 V2000
   55.1370   27.8380   46.0140 H   0  0  0  0  0  0  0  0  0  0  0  0
   55.1460   26.8400   45.8490 O   0  0  0  0  0  0  0  0  0  0  0  0
   56.1480   26.0220   46.3660 C   0  0  0  0  0  0  0  0  0  0  0  0
   55.8980   24.9570   47.1450 N   0  0  0  0  0  0  0  0  0  0  0  0
   57.1340   24.5240   47.4680 C   0  0  0  0  0  0  0  0  0  0  0  0
   57.3300   23.5250   48.2080 O   0  0  0  0  0  0  0  0  0  0  0  0
   58.1450   25.2480   46.9410 N   0  0  0  0  0  0  0  0  0  0  0  0
   57.5110   26.1910   46.2220 C   0  0  0  0  0  0  0  0  0  0  0  0
   58.2190   27.2450   45.4790 C   0  0  0  0  0  0  0  0  0  0  0  0
   59.1600   26.9850   44.9721 H   0  0  0  0  0  0  0  0  0  0  0  0
   57.7750   28.5050   45.3890 C   0  0  0  0  0  0  0  0  0  0  0  0
   56.6800   29.0320   44.6650 C   0  0  0  0  0  0  0  0  0  0  0  0
   55.9826   28.4316   44.0623 H   0  0  0  0  0  0  0  0  0  0  0  0
   56.6060   30.3890   44.8160 N   0  0  0  0  0  0  0  0  0  0  0  0
   57.6240   30.6720   45.6030 N   0  0  0  0  0  0  0  0  0  0  0  0
   58.3260   29.6270   45.9520 C   0  0  0  0  0  0  0  0  0  0  0  0
   59.3930   29.8850   46.7500 N   0  0  0  0  0  0  0  0  0  0  0  0
   59.2710   31.2430   46.8600 C   0  0  0  0  0  0  0  0  0  0  0  0
   60.0840   32.0630   47.5660 N   0  0  0  0  0  0  0  0  0  0  0  0
   59.8440   33.4120   47.5860 C   0  0  0  0  0  0  0  0  0  0  0  0
   60.6500   34.1620   48.2850 N   0  0  0  0  0  0  0  0  0  0  0  0
   61.5640   33.7710   49.3210 C   0  0  0  0  0  0  0  0  0  0  0  0
   61.1200   33.1490   50.3230 O   0  0  0  0  0  0  0  0  0  0  0  0
   62.9380   33.9910   49.1830 O   0  0  0  0  0  0  0  0  0  0  0  0
   63.7640   33.2030   48.3320 C   0  0  0  0  0  0  0  0  0  0  0  0
   63.6629   32.1417   48.6030 H   0  0  0  0  0  0  0  0  0  0  0  0
   64.8129   33.5129   48.4494 H   0  0  0  0  0  0  0  0  0  0  0  0
   63.3360   33.4000   46.8870 C   0  0  0  0  0  0  0  0  0  0  0  0
   62.3371   33.8598   46.8599 H   0  0  0  0  0  0  0  0  0  0  0  0
   64.0561   34.0573   46.3776 H   0  0  0  0  0  0  0  0  0  0  0  0
   63.3050   32.4255   46.3776 H   0  0  0  0  0  0  0  0  0  0  0  0
   58.7130   33.9400   46.8810 C   0  0  0  0  0  0  0  0  0  0  0  0
   58.4986   35.0182   46.9202 H   0  0  0  0  0  0  0  0  0  0  0  0
   57.8720   33.0830   46.1360 C   0  0  0  0  0  0  0  0  0  0  0  0
   56.6690   33.5930   45.4000 C   0  0  0  0  0  0  0  0  0  0  0  0
   55.9063   33.9164   46.1237 H   0  0  0  0  0  0  0  0  0  0  0  0
   56.9597   34.4453   44.7682 H   0  0  0  0  0  0  0  0  0  0  0  0
   56.2586   32.7915   44.7682 H   0  0  0  0  0  0  0  0  0  0  0  0
   58.1950   31.7340   46.1590 C   0  0  0  0  0  0  0  0  0  0  0  0
  1  2  1  0
  2  3  1  0
  3  4  1  0
  4  5  1  0
  5  6  2  0
  5  7  1  0
  7  8  1  0
  8  9  1  0
  9 10  1  0
  9 11  2  0
 11 12  1  0
 12 13  1  0
 12 14  2  0
 14 15  1  0
 15 16  1  0
 16 17  2  0
 17 18  1  0
 18 19  1  0
 19 20  1  0
 20 21  2  0
 21 22  1  0
 22 23  2  0
 22 24  1  0
 24 25  1  0
 25 26  1  0
 25 27  1  0
 25 28  1  0
 28 29  1  0
 28 30  1  0
 28 31  1  0
 20 32  1  0
 32 33  1  0
 32 34  2  0
 34 35  1  0
 35 36  1  0
 35 37  1  0
 35 38  1  0
 34 39  1  0
  8  3  2  0
 16 11  1  0
 39 18  2  0
 39 15  1  0
M  CHG  3   4  -1   7  -1  19  -1
M  END
>  <UniqueID>  (54) 
49

>  <SMILES>  (54) 
CCOC(=O)/N=c1\cc(C)c2c(nc3/c(=C/c4[n-]c(=O)[n-]c4O)cnn32)[n-]1

>  <Energy>  (54) 
180.0217231297147

>  <Genealogy>  (54) 
CCOC(=O)N=c1cc(C)c2c(nc3c(=Cc4[n-]c(=O)[n-]c4O)cnn32)[n-]1 (protonated)
CCOC(=O)/N=c1\cc(C)c2c(nc3/c(=C/c4[n-]c(=O)[n-]c4O)cnn32)[n-]1 (cis-trans isomerization)
CCOC(=O)/N=c1\cc(C)c2c(nc3/c(=C/c4[n-]c(=O)[n-]c4O)cnn32)[n-]1 (3D coordinates assigned)
CCOC(=O)/N=c1\cc(C)c2c(nc3/c(=C/c4[n-]c(=O)[n-]c4O)cnn32)[n-]1 (optimized conformer: 180.0217231297147 kcal/mol)

>  <smiles>  (54) 
CCOC(=O)N=c1cc(C)c2c(nc3c(=Cc4[nH]c(=O)[nH]c4O)cnn32)[nH]1

>  <score_type>  (54) 
oracle

>  <origin>  (54) 
adg

>  <m_score__min__energy>  (54) 
-13.65

>  <m_primary>  (54) 
energy

$$$$
54:0
     RDKit          3D

 37 39  0  0  0  0  0  0  0  0999 V2000
   55.8796   29.7596   53.3396 H   0  0  0  0  0  0  0  0  0  0  0  0
   55.7990   30.3020   52.3860 C   0  0  0  0  0  0  0  0  0  0  0  0
   54.7490   30.1350   51.6400 N   0  0  0  0  0  0  0  0  0  0  0  0
   53.4590   30.5960   51.9720 N   0  0  0  0  0  0  0  0  0  0  0  0
   52.8100   31.5780   51.3220 C   0  0  0  0  0  0  0  0  0  0  0  0
   53.1616   32.1098   50.4256 H   0  0  0  0  0  0  0  0  0  0  0  0
   51.6210   31.7950   51.9880 C   0  0  0  0  0  0  0  0  0  0  0  0
   50.6530   32.7270   51.6380 O   0  0  0  0  0  0  0  0  0  0  0  0
   51.5280   30.9720   53.0500 N   0  0  0  0  0  0  0  0  0  0  0  0
   50.7550   30.9180   53.7510 H   0  0  0  0  0  0  0  0  0  0  0  0
   52.6720   30.2630   53.0210 C   0  0  0  0  0  0  0  0  0  0  0  0
   52.9800   29.4200   53.9050 O   0  0  0  0  0  0  0  0  0  0  0  0
   56.8860   31.2110   51.9700 C   0  0  0  0  0  0  0  0  0  0  0  0
   57.9260   30.7760   51.1280 C   0  0  0  0  0  0  0  0  0  0  0  0
   57.9386   29.7371   50.7667 H   0  0  0  0  0  0  0  0  0  0  0  0
   58.9430   31.6560   50.7480 C   0  0  0  0  0  0  0  0  0  0  0  0
   59.7574   31.3036   50.0979 H   0  0  0  0  0  0  0  0  0  0  0  0
   58.9300   32.9900   51.1930 C   0  0  0  0  0  0  0  0  0  0  0  0
   59.9410   33.8990   50.8460 O   0  0  0  0  0  0  0  0  0  0  0  0
   60.8450   33.7430   49.7860 C   0  0  0  0  0  0  0  0  0  0  0  0
   62.1690   33.3970   50.0770 C   0  0  0  0  0  0  0  0  0  0  0  0
   62.4756   33.2417   51.1219 H   0  0  0  0  0  0  0  0  0  0  0  0
   63.1060   33.2470   49.0490 C   0  0  0  0  0  0  0  0  0  0  0  0
   64.1447   32.9761   49.2891 H   0  0  0  0  0  0  0  0  0  0  0  0
   62.7250   33.4410   47.7130 C   0  0  0  0  0  0  0  0  0  0  0  0
   63.7380   33.3180   46.6130 C   0  0  0  0  0  0  0  0  0  0  0  0
   64.7403   33.1963   47.0495 H   0  0  0  0  0  0  0  0  0  0  0  0
   63.4999   32.4422   45.9915 H   0  0  0  0  0  0  0  0  0  0  0  0
   63.7164   34.2254   45.9915 H   0  0  0  0  0  0  0  0  0  0  0  0
   61.4080   33.8250   47.4210 C   0  0  0  0  0  0  0  0  0  0  0  0
   61.1094   34.0089   46.3784 H   0  0  0  0  0  0  0  0  0  0  0  0
   60.4730   33.9750   48.4500 C   0  0  0  0  0  0  0  0  0  0  0  0
   59.4418   34.2759   48.2132 H   0  0  0  0  0  0  0  0  0  0  0  0
   57.9070   33.4160   52.0460 C   0  0  0  0  0  0  0  0  0  0  0  0
   57.9041   34.4504   52.4202 H   0  0  0  0  0  0  0  0  0  0  0  0
   56.8880   32.5380   52.4270 C   0  0  0  0  0  0  0  0  0  0  0  0
   56.0828   32.8894   53.0890 H   0  0  0  0  0  0  0  0  0  0  0  0
  1  2  1  0
  2  3  2  0
  3  4  1  0
  4  5  1  0
  5  6  1  0
  5  7  2  0
  7  8  1  0
  7  9  1  0
  9 10  1  0
  9 11  1  0
 11 12  2  0
  2 13  1  0
 13 14  2  0
 14 15  1  0
 14 16  1  0
 16 17  1  0
 16 18  2  0
 18 19  1  0
 19 20  1  0
 20 21  2  0
 21 22  1  0
 21 23  1  0
 23 24  1  0
 23 25  2  0
 25 26  1  0
 26 27  1  0
 26 28  1  0
 26 29  1  0
 25 30  1  0
 30 31  1  0
 30 32  2  0
 32 33  1  0
 18 34  1  0
 34 35  1  0
 34 36  2  0
 36 37  1  0
 11  4  1  0
 36 13  1  0
 32 20  1  0
M  CHG  1   8  -1
M  END
>  <UniqueID>  (55) 
50

>  <SMILES>  (55) 
Cc1ccc(Oc2ccc(/C=N/n3cc([O-])[nH]c3=O)cc2)cc1

>  <Energy>  (55) 
82.771825226789

>  <Genealogy>  (55) 
Cc1ccc(Oc2ccc(C=Nn3cc([O-])[nH]c3=O)cc2)cc1 (protonated)
Cc1ccc(Oc2ccc(/C=N/n3cc([O-])[nH]c3=O)cc2)cc1 (cis-trans isomerization)
Cc1ccc(Oc2ccc(/C=N/n3cc([O-])[nH]c3=O)cc2)cc1 (3D coordinates assigned)
Cc1ccc(Oc2ccc(/C=N/n3cc([O-])[nH]c3=O)cc2)cc1 (optimized conformer: 82.771825226789 kcal/mol)

>  <smiles>  (55) 
Cc1ccc(Oc2ccc(C=Nn3cc(O)[nH]c3=O)cc2)cc1

>  <score_type>  (55) 
oracle

>  <origin>  (55) 
adg

>  <m_score__min__energy>  (55) 
-11.17

>  <m_primary>  (55) 
energy

$$$$
55:0
     RDKit          3D

 49 51  0  0  0  0  0  0  0  0999 V2000
   54.8530   29.0540   44.4780 O   0  0  0  0  0  0  0  0  0  0  0  0
   55.7900   29.8490   44.2060 C   0  0  0  0  0  0  0  0  0  0  0  0
   55.6680   31.1930   44.5360 O   0  0  0  0  0  0  0  0  0  0  0  0
   56.9990   29.3590   43.5420 C   0  0  0  0  0  0  0  0  0  0  0  0
   56.9200   28.8830   42.3760 O   0  0  0  0  0  0  0  0  0  0  0  0
   58.2280   29.4250   44.2090 O   0  0  0  0  0  0  0  0  0  0  0  0
   58.3710   29.3770   45.6330 C   0  0  2  0  0  0  0  0  0  0  0  0
   59.7570   29.8940   46.0600 C   0  0  0  0  0  0  0  0  0  0  0  0
   59.6590   31.1300   46.9330 C   0  0  0  0  0  0  0  0  0  0  0  0
   59.1250   32.3290   46.4140 C   0  0  0  0  0  0  0  0  0  0  0  0
   58.5190   32.4530   44.7630 Cl  0  0  0  0  0  0  0  0  0  0  0  0
   59.0720   33.4680   47.2230 C   0  0  0  0  0  0  0  0  0  0  0  0
   59.5340   33.4330   48.5010 N   0  0  0  0  0  0  0  0  0  0  0  0
   59.4660   34.5800   49.2650 O   0  0  0  0  0  0  0  0  0  0  0  0
   60.0600   32.2910   49.0270 C   0  0  0  0  0  0  0  0  0  0  0  0
   60.1360   31.1230   48.2630 C   0  0  0  0  0  0  0  0  0  0  0  0
   60.8480   29.6940   49.0070 Cl  0  0  0  0  0  0  0  0  0  0  0  0
   58.1970   27.9520   46.1070 C   0  0  0  0  0  0  0  0  0  0  0  0
   59.2530   27.2680   46.7230 C   0  0  0  0  0  0  0  0  0  0  0  0
   59.0700   25.9670   47.1900 C   0  0  0  0  0  0  0  0  0  0  0  0
   57.8350   25.3210   47.0680 C   0  0  0  0  0  0  0  0  0  0  0  0
   57.7630   24.0060   47.5680 O   0  0  0  0  0  0  0  0  0  0  0  0
   56.6600   23.4050   48.2400 C   0  0  0  0  0  0  0  0  0  0  0  0
   56.0890   22.4640   47.4060 F   0  0  0  0  0  0  0  0  0  0  0  0
   57.0950   22.7710   49.3910 F   0  0  0  0  0  0  0  0  0  0  0  0
   56.7510   26.0060   46.4580 C   0  0  0  0  0  0  0  0  0  0  0  0
   55.5050   25.3700   46.3260 O   0  0  0  0  0  0  0  0  0  0  0  0
   55.0980   24.5270   45.2490 C   0  0  0  0  0  0  0  0  0  0  0  0
   56.3080   23.7770   44.6750 C   0  0  0  0  0  0  0  0  0  0  0  0
   56.0950   23.2610   43.2580 C   0  0  0  0  0  0  0  0  0  0  0  0
   57.0290   24.4330   43.5030 C   0  0  0  0  0  0  0  0  0  0  0  0
   56.9480   27.3240   45.9990 C   0  0  0  0  0  0  0  0  0  0  0  0
   57.6021   30.0203   46.0858 H   0  0  0  0  0  0  0  0  0  0  0  0
   60.2734   29.1022   46.6224 H   0  0  0  0  0  0  0  0  0  0  0  0
   60.3135   30.1642   45.1504 H   0  0  0  0  0  0  0  0  0  0  0  0
   58.6522   34.4020   46.8213 H   0  0  0  0  0  0  0  0  0  0  0  0
   59.2600   35.4810   48.8500 H   0  0  0  0  0  0  0  0  0  0  0  0
   60.4285   32.2885   50.0634 H   0  0  0  0  0  0  0  0  0  0  0  0
   60.2304   27.7592   46.8387 H   0  0  0  0  0  0  0  0  0  0  0  0
   59.9115   25.4392   47.6627 H   0  0  0  0  0  0  0  0  0  0  0  0
   55.9284   24.1827   48.5046 H   0  0  0  0  0  0  0  0  0  0  0  0
   54.3603   23.7986   45.6168 H   0  0  0  0  0  0  0  0  0  0  0  0
   54.6520   25.1470   44.4573 H   0  0  0  0  0  0  0  0  0  0  0  0
   56.6381   23.3562   45.6362 H   0  0  0  0  0  0  0  0  0  0  0  0
   56.5049   22.2843   42.9614 H   0  0  0  0  0  0  0  0  0  0  0  0
   55.2173   23.0877   42.6181 H   0  0  0  0  0  0  0  0  0  0  0  0
   58.1150   24.3048   43.3842 H   0  0  0  0  0  0  0  0  0  0  0  0
   57.1074   25.4591   43.1144 H   0  0  0  0  0  0  0  0  0  0  0  0
   56.1064   27.8700   45.5478 H   0  0  0  0  0  0  0  0  0  0  0  0
  1  2  2  0
  2  3  1  0
  2  4  1  0
  4  5  2  0
  4  6  1  0
  6  7  1  0
  7  8  1  0
  8  9  1  0
  9 10  2  0
 10 11  1  0
 10 12  1  0
 12 13  2  0
 13 14  1  0
 13 15  1  0
 15 16  2  0
 16 17  1  0
  7 18  1  0
 18 19  2  0
 19 20  1  0
 20 21  2  0
 21 22  1  0
 22 23  1  0
 23 24  1  0
 23 25  1  0
 21 26  1  0
 26 27  1  0
 27 28  1  0
 28 29  1  0
 29 30  1  0
 30 31  1  0
 26 32  2  0
 16  9  1  0
 32 18  1  0
 31 29  1  0
  7 33  1  1
  8 34  1  0
  8 35  1  0
 12 36  1  0
 14 37  1  0
 15 38  1  0
 19 39  1  0
 20 40  1  0
 23 41  1  0
 28 42  1  0
 28 43  1  0
 29 44  1  0
 30 45  1  0
 30 46  1  0
 31 47  1  0
 31 48  1  0
 32 49  1  0
M  CHG  2   3  -1  13   1
M  END
>  <UniqueID>  (56) 
51

>  <SMILES>  (56) 
O=C([O-])C(=O)O[C@H](Cc1c(Cl)c[n+](O)cc1Cl)c1ccc(OC(F)F)c(OCC2CC2)c1

>  <Energy>  (56) 
314.13838372271056

>  <Genealogy>  (56) 
O=C([O-])C(=O)OC(Cc1c(Cl)c[n+](O)cc1Cl)c1ccc(OC(F)F)c(OCC2CC2)c1 (protonated)
O=C([O-])C(=O)O[C@H](Cc1c(Cl)c[n+](O)cc1Cl)c1ccc(OC(F)F)c(OCC2CC2)c1 (chirality)
O=C([O-])C(=O)O[C@H](Cc1c(Cl)c[n+](O)cc1Cl)c1ccc(OC(F)F)c(OCC2CC2)c1 (3D coordinates assigned)
O=C([O-])C(=O)O[C@H](Cc1c(Cl)c[n+](O)cc1Cl)c1ccc(OC(F)F)c(OCC2CC2)c1 (nonaromatic ring conformer: 314.13838372271056 kcal/mol)

>  <smiles>  (56) 
O=C(O)C(=O)OC(Cc1c(Cl)c[n+]([O-])cc1Cl)c1ccc(OC(F)F)c(OCC2CC2)c1

>  <score_type>  (56) 
oracle

>  <origin>  (56) 
adg

>  <m_score__min__energy>  (56) 
-8

>  <m_primary>  (56) 
energy

$$$$
56:0
     RDKit          3D

 29 29  0  0  0  0  0  0  0  0999 V2000
   58.9230   32.2030   48.9470 C   0  0  0  0  0  0  0  0  0  0  0  0
   58.1620   32.0120   47.7740 O   0  0  0  0  0  0  0  0  0  0  0  0
   58.2140   33.1690   46.9620 C   0  0  0  0  0  0  0  0  0  0  0  0
   57.8640   32.8260   45.5440 C   0  0  0  0  0  0  0  0  0  0  0  0
   58.1370   33.6460   44.6240 O   0  0  0  0  0  0  0  0  0  0  0  0
   57.2580   31.5650   45.2320 N   0  0  0  0  0  0  0  0  0  0  0  0
   56.9320   31.1960   43.8560 C   0  0  0  0  0  0  0  0  0  0  0  0
   56.0750   29.9710   43.8300 C   0  0  0  0  0  0  0  0  0  0  0  0
   55.5250   29.6140   42.7540 O   0  0  0  0  0  0  0  0  0  0  0  0
   55.8870   29.2150   45.0320 N   0  0  0  0  0  0  0  0  0  0  0  0
   56.7210   28.1340   45.4710 C   0  0  0  0  0  0  0  0  0  0  0  0
   58.1110   28.2690   45.3510 C   0  0  0  0  0  0  0  0  0  0  0  0
   58.9590   27.2350   45.7590 C   0  0  0  0  0  0  0  0  0  0  0  0
   58.4240   26.0520   46.2750 C   0  0  0  0  0  0  0  0  0  0  0  0
   57.0390   25.8950   46.3680 C   0  0  0  0  0  0  0  0  0  0  0  0
   56.1820   26.9230   45.9560 C   0  0  0  0  0  0  0  0  0  0  0  0
   54.8090   26.7150   45.9970 O   0  0  0  0  0  0  0  0  0  0  0  0
   58.2846   32.0428   49.8284 H   0  0  0  0  0  0  0  0  0  0  0  0
   59.7574   31.4864   48.9635 H   0  0  0  0  0  0  0  0  0  0  0  0
   59.3201   33.2287   48.9635 H   0  0  0  0  0  0  0  0  0  0  0  0
   57.4980   33.9122   47.3429 H   0  0  0  0  0  0  0  0  0  0  0  0
   59.2340   33.5799   46.9895 H   0  0  0  0  0  0  0  0  0  0  0  0
   57.0530   30.9010   46.0140 H   0  0  0  0  0  0  0  0  0  0  0  0
   56.3915   32.0259   43.3773 H   0  0  0  0  0  0  0  0  0  0  0  0
   57.8659   30.9877   43.3133 H   0  0  0  0  0  0  0  0  0  0  0  0
   58.5369   29.1933   44.9336 H   0  0  0  0  0  0  0  0  0  0  0  0
   60.0493   27.3531   45.6736 H   0  0  0  0  0  0  0  0  0  0  0  0
   59.0930   25.2447   46.6078 H   0  0  0  0  0  0  0  0  0  0  0  0
   56.6197   24.9595   46.7667 H   0  0  0  0  0  0  0  0  0  0  0  0
  1  2  1  0
  2  3  1  0
  3  4  1  0
  4  5  2  0
  4  6  1  0
  6  7  1  0
  7  8  1  0
  8  9  2  0
  8 10  1  0
 10 11  1  0
 11 12  2  0
 12 13  1  0
 13 14  2  0
 14 15  1  0
 15 16  2  0
 16 17  1  0
 16 11  1  0
  1 18  1  0
  1 19  1  0
  1 20  1  0
  3 21  1  0
  3 22  1  0
  6 23  1  0
  7 24  1  0
  7 25  1  0
 12 26  1  0
 13 27  1  0
 14 28  1  0
 15 29  1  0
M  CHG  2  10  -1  17  -1
M  END
>  <UniqueID>  (57) 
52

>  <SMILES>  (57) 
COCC(=O)NCC(=O)[N-]c1ccccc1[O-]

>  <Energy>  (57) 
30.096076448547862

>  <Genealogy>  (57) 
COCC(=O)NCC(=O)[N-]c1ccccc1[O-] (protonated)
COCC(=O)NCC(=O)[N-]c1ccccc1[O-] (3D coordinates assigned)
COCC(=O)NCC(=O)[N-]c1ccccc1[O-] (optimized conformer: 30.096076448547862 kcal/mol)

>  <smiles>  (57) 
COCC(=O)NCC(=O)Nc1ccccc1O

>  <score_type>  (57) 
oracle

>  <origin>  (57) 
adg

>  <m_score__min__energy>  (57) 
-11.48

>  <m_primary>  (57) 
energy

$$$$
57:0
     RDKit          3D

 77 83  0  0  0  0  0  0  0  0999 V2000
   60.0070   36.7650   45.4800 C   0  0  0  0  0  0  0  0  0  0  0  0
   59.4340   35.3990   45.6600 C   0  0  0  0  0  0  0  0  0  0  0  0
   58.5650   34.9830   44.8450 O   0  0  0  0  0  0  0  0  0  0  0  0
   59.9100   34.5660   46.7290 N   0  0  0  0  0  0  0  0  0  0  0  0
   59.4130   33.2490   47.0460 C   0  0  0  0  0  0  0  0  0  0  0  0
   57.8470   32.8490   46.7210 S   0  0  0  0  0  0  0  0  0  0  0  0
   60.2480   32.2860   47.8860 C   0  0  2  0  0  0  0  0  0  0  0  0
   60.2760   30.9200   47.2320 C   0  0  0  0  0  0  0  0  0  0  0  0
   60.2490   29.7590   47.9240 C   0  0  0  0  0  0  0  0  0  0  0  0
   60.4550   29.7540   49.4110 C   0  0  0  0  0  0  0  0  0  0  0  0
   60.6180   28.5640   50.0110 C   0  0  0  0  0  0  0  0  0  0  0  0
   60.7580   27.2760   49.2590 C   0  0  0  0  0  0  0  0  0  0  0  0
   60.1610   27.2990   47.8760 C   0  0  0  0  0  0  0  0  0  0  0  0
   59.9460   28.4670   47.2310 C   0  0  0  0  0  0  0  0  0  0  0  0
   59.3580   28.4460   45.8280 C   0  0  0  0  0  0  0  0  0  0  0  0
   58.3630   27.2980   45.6400 C   0  0  0  0  0  0  0  0  0  0  0  0
   58.9750   26.0020   46.0730 C   0  0  0  0  0  0  0  0  0  0  0  0
   58.6320   24.9610   45.5330 O   0  0  0  0  0  0  0  0  0  0  0  0
   59.9790   25.9620   47.1880 C   0  0  0  0  0  0  0  0  0  0  0  0
   60.7060   31.0970   50.1370 C   0  0  2  0  0  0  0  0  0  0  0  0
   62.2240   31.4060   49.9410 C   0  0  0  0  0  0  0  0  0  0  0  0
   60.3440   31.1520   51.6890 C   0  0  2  0  0  0  0  0  0  0  0  0
   60.5140   32.5790   52.2460 C   0  0  1  0  0  0  0  0  0  0  0  0
   59.5820   33.5720   51.5670 C   0  0  0  0  0  0  0  0  0  0  0  0
   59.8920   33.6000   50.0590 C   0  0  0  0  0  0  0  0  0  0  0  0
   59.7820   32.1900   49.3850 C   0  0  1  0  0  0  0  0  0  0  0  0
   58.2570   31.7950   49.4020 C   0  0  0  0  0  0  0  0  0  0  0  0
   60.2930   32.3500   53.6890 C   0  0  0  0  0  0  0  0  0  0  0  0
   60.0090   33.2420   54.5300 O   0  0  0  0  0  0  0  0  0  0  0  0
   60.5360   31.0340   54.0260 O   0  0  0  0  0  0  0  0  0  0  0  0
   60.8860   30.2740   52.8700 C   0  0  2  0  0  0  0  0  0  0  0  0
   62.3360   30.0410   52.8590 N   0  0  0  0  0  0  0  0  0  0  0  0
   62.9860   28.9840   52.3180 C   0  0  0  0  0  0  0  0  0  0  0  0
   64.3370   29.2840   52.3700 C   0  0  0  0  0  0  0  0  0  0  0  0
   65.4550   28.4910   51.8070 C   0  0  0  0  0  0  0  0  0  0  0  0
   65.4000   27.0840   51.7900 C   0  0  0  0  0  0  0  0  0  0  0  0
   66.4300   26.3400   51.2040 C   0  0  0  0  0  0  0  0  0  0  0  0
   67.5260   26.9930   50.6300 C   0  0  0  0  0  0  0  0  0  0  0  0
   68.8190   26.0610   49.8880 Cl  0  0  0  0  0  0  0  0  0  0  0  0
   67.5960   28.3920   50.6610 C   0  0  0  0  0  0  0  0  0  0  0  0
   66.5700   29.1390   51.2450 C   0  0  0  0  0  0  0  0  0  0  0  0
   64.4530   30.5050   52.9330 N   0  0  0  0  0  0  0  0  0  0  0  0
   63.2370   30.9510   53.2020 N   0  0  0  0  0  0  0  0  0  0  0  0
   60.1962   37.2160   46.4653 H   0  0  0  0  0  0  0  0  0  0  0  0
   60.9518   36.6956   44.9210 H   0  0  0  0  0  0  0  0  0  0  0  0
   59.2954   37.3904   44.9210 H   0  0  0  0  0  0  0  0  0  0  0  0
   60.7340   34.9240   47.2640 H   0  0  0  0  0  0  0  0  0  0  0  0
   61.2679   32.6965   47.9217 H   0  0  0  0  0  0  0  0  0  0  0  0
   60.3207   30.8700   46.1340 H   0  0  0  0  0  0  0  0  0  0  0  0
   60.6504   28.5333   51.1101 H   0  0  0  0  0  0  0  0  0  0  0  0
   61.8295   27.0446   49.1681 H   0  0  0  0  0  0  0  0  0  0  0  0
   60.2040   26.5158   49.8293 H   0  0  0  0  0  0  0  0  0  0  0  0
   58.8393   29.3988   45.6461 H   0  0  0  0  0  0  0  0  0  0  0  0
   60.1836   28.2999   45.1159 H   0  0  0  0  0  0  0  0  0  0  0  0
   57.4646   27.4943   46.2436 H   0  0  0  0  0  0  0  0  0  0  0  0
   58.0948   27.2284   44.5755 H   0  0  0  0  0  0  0  0  0  0  0  0
   59.6429   25.2276   47.9348 H   0  0  0  0  0  0  0  0  0  0  0  0
   60.9480   25.6878   46.7454 H   0  0  0  0  0  0  0  0  0  0  0  0
   62.7080   31.5045   50.9239 H   0  0  0  0  0  0  0  0  0  0  0  0
   62.6958   30.5855   49.3805 H   0  0  0  0  0  0  0  0  0  0  0  0
   62.3375   32.3457   49.3805 H   0  0  0  0  0  0  0  0  0  0  0  0
   59.3711   30.6797   51.4879 H   0  0  0  0  0  0  0  0  0  0  0  0
   61.4868   33.0566   52.0576 H   0  0  0  0  0  0  0  0  0  0  0  0
   58.5377   33.2638   51.7232 H   0  0  0  0  0  0  0  0  0  0  0  0
   59.7306   34.5741   51.9956 H   0  0  0  0  0  0  0  0  0  0  0  0
   59.1806   34.2799   49.5675 H   0  0  0  0  0  0  0  0  0  0  0  0
   60.9318   33.9398   49.9431 H   0  0  0  0  0  0  0  0  0  0  0  0
   57.9129   31.7059   50.4430 H   0  0  0  0  0  0  0  0  0  0  0  0
   57.6714   32.5711   48.8874 H   0  0  0  0  0  0  0  0  0  0  0  0
   58.1218   30.8322   48.8874 H   0  0  0  0  0  0  0  0  0  0  0  0
   60.4566   29.2627   52.8164 H   0  0  0  0  0  0  0  0  0  0  0  0
   62.5306   28.0669   51.9160 H   0  0  0  0  0  0  0  0  0  0  0  0
   64.5408   26.5659   52.2408 H   0  0  0  0  0  0  0  0  0  0  0  0
   66.3779   25.2413   51.1946 H   0  0  0  0  0  0  0  0  0  0  0  0
   68.4644   28.9055   50.2227 H   0  0  0  0  0  0  0  0  0  0  0  0
   66.6342   30.2369   51.2654 H   0  0  0  0  0  0  0  0  0  0  0  0
   65.3260   31.0580   53.0870 H   0  0  0  0  0  0  0  0  0  0  0  0
  1  2  1  0
  2  3  2  0
  2  4  1  0
  4  5  1  0
  5  6  2  0
  5  7  1  0
  7  8  1  0
  8  9  2  0
  9 10  1  0
 10 11  2  0
 11 12  1  0
 12 13  1  0
 13 14  2  0
 14 15  1  0
 15 16  1  0
 16 17  1  0
 17 18  2  0
 17 19  1  0
 10 20  1  0
 20 21  1  1
 20 22  1  0
 22 23  1  0
 23 24  1  0
 24 25  1  0
 25 26  1  0
 26 27  1  6
 23 28  1  0
 28 29  2  0
 28 30  1  0
 30 31  1  0
 31 32  1  0
 32 33  1  0
 33 34  2  0
 34 35  1  0
 35 36  2  0
 36 37  1  0
 37 38  2  0
 38 39  1  0
 38 40  1  0
 40 41  2  0
 34 42  1  0
 42 43  2  0
 26  7  1  0
 43 32  1  0
 14  9  1  0
 26 20  1  0
 41 35  1  0
 19 13  1  0
 31 22  1  0
  1 44  1  0
  1 45  1  0
  1 46  1  0
  4 47  1  0
  7 48  1  1
  8 49  1  0
 11 50  1  0
 12 51  1  0
 12 52  1  0
 15 53  1  0
 15 54  1  0
 16 55  1  0
 16 56  1  0
 19 57  1  0
 19 58  1  0
 21 59  1  0
 21 60  1  0
 21 61  1  0
 22 62  1  6
 23 63  1  1
 24 64  1  0
 24 65  1  0
 25 66  1  0
 25 67  1  0
 27 68  1  0
 27 69  1  0
 27 70  1  0
 31 71  1  1
 33 72  1  0
 36 73  1  0
 37 74  1  0
 40 75  1  0
 41 76  1  0
 42 77  1  0
M  CHG  1  42   1
M  END
>  <UniqueID>  (58) 
53

>  <SMILES>  (58) 
CC(=O)NC(=S)[C@@H]1C=C2C(=CCC3=C2CCC(=O)C3)[C@]2(C)C3C(CCC12C)C(=O)OC3n1cc(-c2ccc(Cl)cc2)[nH+]n1

>  <Energy>  (58) 
182.15167649010525

>  <Genealogy>  (58) 
CC(=O)NC(=S)C1C=C2C(=CCC3=C2CCC(=O)C3)C2(C)C3C(CCC12C)C(=O)OC3n1cc(-c2ccc(Cl)cc2)[nH+]n1 (protonated)
CC(=O)NC(=S)[C@@H]1C=C2C(=CCC3=C2CCC(=O)C3)[C@]2(C)C3C(CCC12C)C(=O)OC3n1cc(-c2ccc(Cl)cc2)[nH+]n1 (chirality)
CC(=O)NC(=S)[C@@H]1C=C2C(=CCC3=C2CCC(=O)C3)[C@]2(C)C3C(CCC12C)C(=O)OC3n1cc(-c2ccc(Cl)cc2)[nH+]n1 (3D coordinates assigned)
CC(=O)NC(=S)[C@@H]1C=C2C(=CCC3=C2CCC(=O)C3)[C@]2(C)C3C(CCC12C)C(=O)OC3n1cc(-c2ccc(Cl)cc2)[nH+]n1 (nonaromatic ring conformer: 182.15167649010525 kcal/mol)

>  <smiles>  (58) 
CC(=O)NC(=S)C1C=C2C(=CCC3=C2CCC(=O)C3)C2(C)C3C(CCC12C)C(=O)OC3n1cc(-c2ccc(Cl)cc2)nn1

>  <score_type>  (58) 
oracle

>  <origin>  (58) 
adg

>  <m_score__min__energy>  (58) 
-9.4499999999999993

>  <m_primary>  (58) 
energy

$$$$
58:0
     RDKit          3D

 64 67  0  0  0  0  0  0  0  0999 V2000
   59.3870   34.2130   51.3480 O   0  0  0  0  0  0  0  0  0  0  0  0
   59.9340   33.7040   50.3340 C   0  0  0  0  0  0  0  0  0  0  0  0
   61.4340   33.7720   50.1970 C   0  0  0  0  0  0  0  0  0  0  0  0
   61.9320   32.9740   49.0470 N   0  0  0  0  0  0  0  0  0  0  0  0
   62.8490   31.9030   49.4880 C   0  0  0  0  0  0  0  0  0  0  0  0
   64.2610   32.3630   49.1960 C   0  0  0  0  0  0  0  0  0  0  0  0
   64.1090   33.2420   47.9790 C   0  0  0  0  0  0  0  0  0  0  0  0
   62.6940   33.7980   48.0780 C   0  0  0  0  0  0  0  0  0  0  0  0
   59.1400   33.1450   49.2810 N   0  0  0  0  0  0  0  0  0  0  0  0
   59.0400   33.6100   47.9280 C   0  0  0  0  0  0  0  0  0  0  0  0
   59.7560   34.7280   47.4630 C   0  0  0  0  0  0  0  0  0  0  0  0
   59.5950   35.1700   46.1460 C   0  0  0  0  0  0  0  0  0  0  0  0
   58.7120   34.5100   45.2880 C   0  0  0  0  0  0  0  0  0  0  0  0
   57.9740   33.4080   45.7440 C   0  0  0  0  0  0  0  0  0  0  0  0
   57.0190   32.7020   44.8150 C   0  0  0  0  0  0  0  0  0  0  0  0
   57.1900   31.2360   44.9050 N   0  0  0  0  0  0  0  0  0  0  0  0
   58.3980   30.8190   44.1610 C   0  0  0  0  0  0  0  0  0  0  0  0
   58.5420   29.2820   44.1310 C   0  0  0  0  0  0  0  0  0  0  0  0
   57.5200   28.6630   44.9910 N   0  0  0  0  0  0  0  0  0  0  0  0
   57.7280   27.2180   45.2320 C   0  0  0  0  0  0  0  0  0  0  0  0
   58.8430   26.8900   46.2480 C   0  0  0  0  0  0  0  0  0  0  0  0
   59.2580   28.1380   46.9820 C   0  0  0  0  0  0  0  0  0  0  0  0
   60.3940   28.8570   46.5690 C   0  0  0  0  0  0  0  0  0  0  0  0
   60.8000   29.9960   47.2720 C   0  0  0  0  0  0  0  0  0  0  0  0
   60.0830   30.4180   48.3960 C   0  0  0  0  0  0  0  0  0  0  0  0
   58.9610   29.7000   48.8210 C   0  0  0  0  0  0  0  0  0  0  0  0
   58.5510   28.5600   48.1200 C   0  0  0  0  0  0  0  0  0  0  0  0
   56.1630   28.9980   44.5210 C   0  0  0  0  0  0  0  0  0  0  0  0
   55.9980   30.5270   44.3880 C   0  0  0  0  0  0  0  0  0  0  0  0
   58.1430   32.9640   47.0650 C   0  0  0  0  0  0  0  0  0  0  0  0
   61.7288   34.8219   50.0531 H   0  0  0  0  0  0  0  0  0  0  0  0
   61.8749   33.3529   51.1135 H   0  0  0  0  0  0  0  0  0  0  0  0
   61.1140   32.5280   48.5640 H   0  0  0  0  0  0  0  0  0  0  0  0
   62.7276   31.7254   50.5668 H   0  0  0  0  0  0  0  0  0  0  0  0
   62.6305   30.9640   48.9584 H   0  0  0  0  0  0  0  0  0  0  0  0
   64.6702   32.9335   50.0428 H   0  0  0  0  0  0  0  0  0  0  0  0
   64.9556   31.5260   49.0320 H   0  0  0  0  0  0  0  0  0  0  0  0
   64.8479   34.0567   47.9942 H   0  0  0  0  0  0  0  0  0  0  0  0
   64.2743   32.6888   47.0427 H   0  0  0  0  0  0  0  0  0  0  0  0
   62.7286   34.8414   48.4246 H   0  0  0  0  0  0  0  0  0  0  0  0
   62.2070   33.7676   47.0921 H   0  0  0  0  0  0  0  0  0  0  0  0
   60.4452   35.2566   48.1379 H   0  0  0  0  0  0  0  0  0  0  0  0
   60.1647   36.0390   45.7850 H   0  0  0  0  0  0  0  0  0  0  0  0
   58.5950   34.8560   44.2504 H   0  0  0  0  0  0  0  0  0  0  0  0
   55.9868   32.9628   45.0918 H   0  0  0  0  0  0  0  0  0  0  0  0
   57.2294   33.0199   43.7832 H   0  0  0  0  0  0  0  0  0  0  0  0
   58.3281   31.1916   43.1284 H   0  0  0  0  0  0  0  0  0  0  0  0
   59.2785   31.2381   44.6700 H   0  0  0  0  0  0  0  0  0  0  0  0
   58.4144   28.9244   43.0986 H   0  0  0  0  0  0  0  0  0  0  0  0
   59.5404   29.0059   44.5011 H   0  0  0  0  0  0  0  0  0  0  0  0
   56.7854   26.7937   45.6081 H   0  0  0  0  0  0  0  0  0  0  0  0
   58.0436   26.7840   44.2718 H   0  0  0  0  0  0  0  0  0  0  0  0
   58.4700   26.1497   46.9711 H   0  0  0  0  0  0  0  0  0  0  0  0
   59.7119   26.4830   45.7100 H   0  0  0  0  0  0  0  0  0  0  0  0
   60.9650   28.5225   45.6903 H   0  0  0  0  0  0  0  0  0  0  0  0
   61.6841   30.5603   46.9404 H   0  0  0  0  0  0  0  0  0  0  0  0
   60.4019   31.3155   48.9462 H   0  0  0  0  0  0  0  0  0  0  0  0
   58.3999   30.0314   49.7072 H   0  0  0  0  0  0  0  0  0  0  0  0
   57.6725   27.9928   48.4613 H   0  0  0  0  0  0  0  0  0  0  0  0
   55.9937   28.5292   43.5404 H   0  0  0  0  0  0  0  0  0  0  0  0
   55.4312   28.6239   45.2521 H   0  0  0  0  0  0  0  0  0  0  0  0
   55.8592   30.7829   43.3272 H   0  0  0  0  0  0  0  0  0  0  0  0
   55.1225   30.8376   44.9771 H   0  0  0  0  0  0  0  0  0  0  0  0
   57.5658   32.1004   47.4270 H   0  0  0  0  0  0  0  0  0  0  0  0
  1  2  2  0
  2  3  1  0
  3  4  1  0
  4  5  1  0
  5  6  1  0
  6  7  1  0
  7  8  1  0
  2  9  1  0
  9 10  1  0
 10 11  2  0
 11 12  1  0
 12 13  2  0
 13 14  1  0
 14 15  1  0
 15 16  1  0
 16 17  1  0
 17 18  1  0
 18 19  1  0
 19 20  1  0
 20 21  1  0
 21 22  1  0
 22 23  2  0
 23 24  1  0
 24 25  2  0
 25 26  1  0
 26 27  2  0
 19 28  1  0
 28 29  1  0
 14 30  2  0
  8  4  1  0
 30 10  1  0
 29 16  1  0
 27 22  1  0
  3 31  1  0
  3 32  1  0
  4 33  1  0
  5 34  1  0
  5 35  1  0
  6 36  1  0
  6 37  1  0
  7 38  1  0
  7 39  1  0
  8 40  1  0
  8 41  1  0
 11 42  1  0
 12 43  1  0
 13 44  1  0
 15 45  1  0
 15 46  1  0
 17 47  1  0
 17 48  1  0
 18 49  1  0
 18 50  1  0
 20 51  1  0
 20 52  1  0
 21 53  1  0
 21 54  1  0
 23 55  1  0
 24 56  1  0
 25 57  1  0
 26 58  1  0
 27 59  1  0
 28 60  1  0
 28 61  1  0
 29 62  1  0
 29 63  1  0
 30 64  1  0
M  CHG  2   4   1   9  -1
M  END
>  <UniqueID>  (59) 
54

>  <SMILES>  (59) 
O=C(C[NH+]1CCCC1)[N-]c1cccc(CN2CCN(CCc3ccccc3)CC2)c1

>  <Energy>  (59) 
83.86061783072545

>  <Genealogy>  (59) 
O=C(C[NH+]1CCCC1)[N-]c1cccc(CN2CCN(CCc3ccccc3)CC2)c1 (protonated)
O=C(C[NH+]1CCCC1)[N-]c1cccc(CN2CCN(CCc3ccccc3)CC2)c1 (3D coordinates assigned)
O=C(C[NH+]1CCCC1)[N-]c1cccc(CN2CCN(CCc3ccccc3)CC2)c1 (nonaromatic ring conformer: 83.86061783072545 kcal/mol)

>  <smiles>  (59) 
O=C(CN1CCCC1)Nc1cccc(CN2CCN(CCc3ccccc3)CC2)c1

>  <score_type>  (59) 
oracle

>  <origin>  (59) 
adg

>  <m_score__min__energy>  (59) 
-9.8900000000000006

>  <m_primary>  (59) 
energy

$$$$
59:0
     RDKit          3D

 38 39  0  0  1  0  0  0  0  0999 V2000
   59.6590   35.4280   45.6510 C   0  0  0  0  0  0  0  0  0  0  0  0
   59.9890   34.9600   47.0440 C   0  0  0  0  0  0  0  0  0  0  0  0
   60.5940   33.5900   47.0600 C   0  0  0  0  0  0  0  0  0  0  0  0
   61.9560   33.4980   47.1670 N   0  0  0  0  0  0  0  0  0  0  0  0
   62.5900   32.3150   47.1780 C   0  0  0  0  0  0  0  0  0  0  0  0
   64.0150   32.2640   47.2900 N   0  0  0  0  0  0  0  0  0  0  0  0
   61.8620   31.1440   47.0780 C   0  0  0  0  0  0  0  0  0  0  0  0
   60.4770   31.2530   46.9710 C   0  0  0  0  0  0  0  0  0  0  0  0
   59.8160   30.1850   46.8760 N   0  0  0  0  0  0  0  0  0  0  0  0
   59.2650   29.5530   45.7550 C   0  0  0  0  0  0  0  0  0  0  0  0
   59.5810   29.8370   44.5440 O   0  0  0  0  0  0  0  0  0  0  0  0
   58.2540   28.5010   45.8820 C   0  0  0  0  0  0  0  0  0  0  0  0
   58.6860   27.3420   46.5460 C   0  0  0  0  0  0  0  0  0  0  0  0
   60.0600   27.2070   47.0580 C   0  0  0  0  0  0  0  0  0  0  0  0
   57.8460   26.2920   46.7290 N   0  0  0  0  0  0  0  0  0  0  0  0
   56.5710   26.3920   46.2540 C   0  0  0  0  0  0  0  0  0  0  0  0
   55.8150   25.3680   46.4550 N   0  0  0  0  0  0  0  0  0  0  0  0
   56.1450   27.5000   45.6160 N   0  0  0  0  0  0  0  0  0  0  0  0
   56.9750   28.5670   45.4190 C   0  0  0  0  0  0  0  0  0  0  0  0
   56.5440   29.5920   44.8000 N   0  0  0  0  0  0  0  0  0  0  0  0
   59.8180   32.4540   46.9590 C   0  0  0  0  0  0  0  0  0  0  0  0
   58.1000   32.6520   46.8440 Cl  0  0  0  0  0  0  0  0  0  0  0  0
   59.0259   36.3259   45.7062 H   0  0  0  0  0  0  0  0  0  0  0  0
   60.5891   35.6676   45.1147 H   0  0  0  0  0  0  0  0  0  0  0  0
   59.1210   34.6324   45.1147 H   0  0  0  0  0  0  0  0  0  0  0  0
   60.7026   35.6661   47.4937 H   0  0  0  0  0  0  0  0  0  0  0  0
   59.0491   34.9172   47.6139 H   0  0  0  0  0  0  0  0  0  0  0  0
   62.5100   34.3910   47.2400 H   0  0  0  0  0  0  0  0  0  0  0  0
   64.5060   31.5720   46.6580 H   0  0  0  0  0  0  0  0  0  0  0  0
   64.5570   32.8560   47.9390 H   0  0  0  0  0  0  0  0  0  0  0  0
   62.3580   30.1622   47.0827 H   0  0  0  0  0  0  0  0  0  0  0  0
   60.0433   27.2086   48.1579 H   0  0  0  0  0  0  0  0  0  0  0  0
   60.4938   26.2619   46.6993 H   0  0  0  0  0  0  0  0  0  0  0  0
   60.6694   28.0496   46.6993 H   0  0  0  0  0  0  0  0  0  0  0  0
   58.1460   25.4250   47.2190 H   0  0  0  0  0  0  0  0  0  0  0  0
   55.8360   24.4850   45.9200 H   0  0  0  0  0  0  0  0  0  0  0  0
   55.1460   27.5280   45.2650 H   0  0  0  0  0  0  0  0  0  0  0  0
   57.1950   30.2530   44.3540 H   0  0  0  0  0  0  0  0  0  0  0  0
  1  2  1  0
  2  3  1  0
  3  4  1  0
  4  5  1  0
  5  6  1  0
  5  7  2  0
  7  8  1  0
  8  9  2  0
  9 10  1  0
 10 11  2  0
 10 12  1  0
 12 13  2  0
 13 14  1  0
 13 15  1  0
 15 16  1  0
 16 17  2  3
 16 18  1  0
 18 19  1  0
 19 20  2  3
  8 21  1  0
 21 22  1  0
 21  3  2  0
 19 12  1  0
  1 23  1  0
  1 24  1  0
  1 25  1  0
  2 26  1  0
  2 27  1  0
  4 28  1  0
  6 29  1  0
  6 30  1  0
  7 31  1  0
 14 32  1  0
 14 33  1  0
 14 34  1  0
 15 35  1  0
 17 36  1  0
 18 37  1  0
 20 38  1  0
M  END
>  <smiles>  (60) 
CCc1[nH]c(N)cc(=NC(=O)c2c(C)[nH]c(=N)[nH]c2=N)c1Cl

>  <score_type>  (60) 
oracle

>  <origin>  (60) 
adg

>  <m_score__min__energy>  (60) 
-7.2400000000000002

>  <m_primary>  (60) 
energy

$$$$
60:0
     RDKit          3D

 52 54  0  0  0  0  0  0  0  0999 V2000
   60.4460   26.0080   46.3680 C   0  0  0  0  0  0  0  0  0  0  0  0
   59.6260   27.1140   45.7490 C   0  0  0  0  0  0  0  0  0  0  0  0
   60.2700   28.2950   45.3590 C   0  0  0  0  0  0  0  0  0  0  0  0
   59.5430   29.3560   44.8150 C   0  0  0  0  0  0  0  0  0  0  0  0
   58.1510   29.2760   44.6980 C   0  0  0  0  0  0  0  0  0  0  0  0
   57.2580   30.6860   44.1190 S   0  0  0  0  0  0  0  0  0  0  0  0
   57.3680   30.7350   42.6190 O   0  0  0  0  0  0  0  0  0  0  0  0
   55.8050   30.5850   44.5040 O   0  0  0  0  0  0  0  0  0  0  0  0
   57.9620   32.1400   44.7910 N   0  0  0  0  0  0  0  0  0  0  0  0
   57.0170   32.8050   45.7200 C   0  0  0  0  0  0  0  0  0  0  0  0
   57.4140   34.2610   46.0260 C   0  0  0  0  0  0  0  0  0  0  0  0
   58.9160   34.5330   45.7930 C   0  0  0  0  0  0  0  0  0  0  0  0
   59.7800   33.9950   46.9470 C   0  0  0  0  0  0  0  0  0  0  0  0
   59.4740   34.4190   48.0590 O   0  0  0  0  0  0  0  0  0  0  0  0
   60.9630   33.1230   46.8640 N   0  0  0  0  0  0  0  0  0  0  0  0
   62.2060   33.6020   47.5090 C   0  0  0  0  0  0  0  0  0  0  0  0
   63.3750   32.6630   47.1520 C   0  0  0  0  0  0  0  0  0  0  0  0
   63.0490   31.2810   47.0980 O   0  0  0  0  0  0  0  0  0  0  0  0
   61.8570   30.9690   47.8030 C   0  0  0  0  0  0  0  0  0  0  0  0
   60.6430   31.7060   47.1940 C   0  0  0  0  0  0  0  0  0  0  0  0
   59.2570   34.2190   44.3130 C   0  0  0  0  0  0  0  0  0  0  0  0
   58.4530   33.0310   43.7220 C   0  0  0  0  0  0  0  0  0  0  0  0
   57.4840   28.1030   45.1020 C   0  0  0  0  0  0  0  0  0  0  0  0
   58.2150   27.0100   45.6140 C   0  0  0  0  0  0  0  0  0  0  0  0
   57.4850   25.7770   46.0910 C   0  0  0  0  0  0  0  0  0  0  0  0
   60.3919   26.0810   47.4642 H   0  0  0  0  0  0  0  0  0  0  0  0
   60.0503   25.0336   46.0454 H   0  0  0  0  0  0  0  0  0  0  0  0
   61.4933   26.1035   46.0454 H   0  0  0  0  0  0  0  0  0  0  0  0
   61.3591   28.3877   45.4824 H   0  0  0  0  0  0  0  0  0  0  0  0
   60.0684   30.2610   44.4761 H   0  0  0  0  0  0  0  0  0  0  0  0
   56.0150   32.8009   45.2661 H   0  0  0  0  0  0  0  0  0  0  0  0
   57.0347   32.2483   46.6685 H   0  0  0  0  0  0  0  0  0  0  0  0
   56.8307   34.9286   45.3748 H   0  0  0  0  0  0  0  0  0  0  0  0
   57.2053   34.4446   47.0903 H   0  0  0  0  0  0  0  0  0  0  0  0
   59.1948   35.5942   45.8708 H   0  0  0  0  0  0  0  0  0  0  0  0
   61.2100   33.1310   45.8380 H   0  0  0  0  0  0  0  0  0  0  0  0
   62.4329   34.6184   47.1549 H   0  0  0  0  0  0  0  0  0  0  0  0
   62.0683   33.6117   48.6003 H   0  0  0  0  0  0  0  0  0  0  0  0
   63.7604   32.9600   46.1655 H   0  0  0  0  0  0  0  0  0  0  0  0
   64.1102   32.7706   47.9631 H   0  0  0  0  0  0  0  0  0  0  0  0
   61.6821   29.8842   47.7511 H   0  0  0  0  0  0  0  0  0  0  0  0
   61.9739   31.2915   48.8481 H   0  0  0  0  0  0  0  0  0  0  0  0
   60.3365   31.1869   46.2739 H   0  0  0  0  0  0  0  0  0  0  0  0
   59.8334   31.7034   47.9386 H   0  0  0  0  0  0  0  0  0  0  0  0
   59.0446   35.1148   43.7109 H   0  0  0  0  0  0  0  0  0  0  0  0
   60.3187   33.9327   44.2833 H   0  0  0  0  0  0  0  0  0  0  0  0
   57.5939   33.4233   43.1580 H   0  0  0  0  0  0  0  0  0  0  0  0
   59.1164   32.4532   43.0617 H   0  0  0  0  0  0  0  0  0  0  0  0
   56.3891   28.0388   45.0181 H   0  0  0  0  0  0  0  0  0  0  0  0
   57.4746   25.7595   47.1908 H   0  0  0  0  0  0  0  0  0  0  0  0
   56.4515   25.7943   45.7148 H   0  0  0  0  0  0  0  0  0  0  0  0
   57.9972   24.8791   45.7148 H   0  0  0  0  0  0  0  0  0  0  0  0
  1  2  1  0
  2  3  2  0
  3  4  1  0
  4  5  2  0
  5  6  1  0
  6  7  2  0
  6  8  2  0
  6  9  1  0
  9 10  1  0
 10 11  1  0
 11 12  1  0
 12 13  1  0
 13 14  2  0
 13 15  1  0
 15 16  1  0
 16 17  1  0
 17 18  1  0
 18 19  1  0
 19 20  1  0
 12 21  1  0
 21 22  1  0
  5 23  1  0
 23 24  2  0
 24 25  1  0
 24  2  1  0
 22  9  1  0
 20 15  1  0
  1 26  1  0
  1 27  1  0
  1 28  1  0
  3 29  1  0
  4 30  1  0
 10 31  1  0
 10 32  1  0
 11 33  1  0
 11 34  1  0
 12 35  1  0
 15 36  1  0
 16 37  1  0
 16 38  1  0
 17 39  1  0
 17 40  1  0
 19 41  1  0
 19 42  1  0
 20 43  1  0
 20 44  1  0
 21 45  1  0
 21 46  1  0
 22 47  1  0
 22 48  1  0
 23 49  1  0
 25 50  1  0
 25 51  1  0
 25 52  1  0
M  CHG  1  15   1
M  END
>  <UniqueID>  (61) 
55

>  <SMILES>  (61) 
Cc1ccc(S(=O)(=O)N2CCC(C(=O)[NH+]3CCOCC3)CC2)cc1C

>  <Energy>  (61) 
88.49059332862787

>  <Genealogy>  (61) 
Cc1ccc(S(=O)(=O)N2CCC(C(=O)[NH+]3CCOCC3)CC2)cc1C (protonated)
Cc1ccc(S(=O)(=O)N2CCC(C(=O)[NH+]3CCOCC3)CC2)cc1C (3D coordinates assigned)
Cc1ccc(S(=O)(=O)N2CCC(C(=O)[NH+]3CCOCC3)CC2)cc1C (nonaromatic ring conformer: 88.49059332862787 kcal/mol)

>  <smiles>  (61) 
Cc1ccc(S(=O)(=O)N2CCC(C(=O)N3CCOCC3)CC2)cc1C

>  <score_type>  (61) 
oracle

>  <origin>  (61) 
adg

>  <m_score__min__energy>  (61) 
-7.8799999999999999

>  <m_primary>  (61) 
energy

$$$$
61:0
     RDKit          3D

 85 88  0  0  0  0  0  0  0  0999 V2000
   63.3420   33.8360   46.3490 C   0  0  0  0  0  0  0  0  0  0  0  0
   63.3810   33.4770   47.6340 C   0  0  0  0  0  0  0  0  0  0  0  0
   62.4850   34.1210   48.6540 C   0  0  0  0  0  0  0  0  0  0  0  0
   61.3220   33.2680   48.9380 N   0  0  0  0  0  0  0  0  0  0  0  0
   61.3060   32.3920   50.1170 C   0  0  0  0  0  0  0  0  0  0  0  0
   60.0200   32.5540   50.8820 C   0  0  0  0  0  0  0  0  0  0  0  0
   59.7380   33.7550   51.5500 C   0  0  0  0  0  0  0  0  0  0  0  0
   58.5510   33.8960   52.2720 C   0  0  0  0  0  0  0  0  0  0  0  0
   57.6390   32.8390   52.3410 C   0  0  0  0  0  0  0  0  0  0  0  0
   57.9070   31.6220   51.6860 C   0  0  0  0  0  0  0  0  0  0  0  0
   56.9450   30.4980   51.7630 C   0  0  0  0  0  0  0  0  0  0  0  0
   55.5420   30.7370   51.6600 N   0  0  0  0  0  0  0  0  0  0  0  0
   57.3560   29.3180   51.9220 O   0  0  0  0  0  0  0  0  0  0  0  0
   59.1060   31.4900   50.9580 C   0  0  0  0  0  0  0  0  0  0  0  0
   60.2410   33.2080   47.9890 C   0  0  0  0  0  0  0  0  0  0  0  0
   59.3060   34.2470   47.9690 C   0  0  0  0  0  0  0  0  0  0  0  0
   58.2360   34.2170   47.0820 C   0  0  0  0  0  0  0  0  0  0  0  0
   58.0820   33.1520   46.1970 C   0  0  0  0  0  0  0  0  0  0  0  0
   59.0060   32.0850   46.1770 C   0  0  0  0  0  0  0  0  0  0  0  0
   58.8630   30.9720   45.2970 C   0  0  0  0  0  0  0  0  0  0  0  0
   57.5620   30.8270   44.0860 S   0  0  0  0  0  0  0  0  0  0  0  0
   56.2660   31.3260   44.6580 O   0  0  0  0  0  0  0  0  0  0  0  0
   57.8960   31.7110   42.9170 O   0  0  0  0  0  0  0  0  0  0  0  0
   57.3400   29.2000   43.4960 N   0  0  0  0  0  0  0  0  0  0  0  0
   57.1340   28.2500   44.5880 C   0  0  0  0  0  0  0  0  0  0  0  0
   57.9630   27.0190   44.3600 C   0  0  0  0  0  0  0  0  0  0  0  0
   58.5000   26.8540   43.2300 O   0  0  0  0  0  0  0  0  0  0  0  0
   58.1800   26.0480   45.4080 N   0  0  0  0  0  0  0  0  0  0  0  0
   57.0480   25.2430   45.8910 C   0  0  0  0  0  0  0  0  0  0  0  0
   56.4460   24.3860   44.7640 C   0  0  0  0  0  0  0  0  0  0  0  0
   56.9120   22.9190   44.8030 C   0  0  0  0  0  0  0  0  0  0  0  0
   56.2840   22.1100   43.7340 N   0  0  0  0  0  0  0  0  0  0  0  0
   57.2930   21.2460   43.0960 C   0  0  0  0  0  0  0  0  0  0  0  0
   55.6600   22.9680   42.7130 C   0  0  0  0  0  0  0  0  0  0  0  0
   59.4790   25.9260   46.0880 C   0  0  0  0  0  0  0  0  0  0  0  0
   59.5720   26.9140   47.2190 C   0  0  0  0  0  0  0  0  0  0  0  0
   60.6780   26.9020   48.0860 C   0  0  0  0  0  0  0  0  0  0  0  0
   60.7470   27.8040   49.1530 C   0  0  0  0  0  0  0  0  0  0  0  0
   59.7140   28.7210   49.3630 C   0  0  0  0  0  0  0  0  0  0  0  0
   58.6090   28.7360   48.5070 C   0  0  0  0  0  0  0  0  0  0  0  0
   58.5350   27.8340   47.4410 C   0  0  0  0  0  0  0  0  0  0  0  0
   59.7810   29.9140   45.3760 C   0  0  0  0  0  0  0  0  0  0  0  0
   60.8370   29.9470   46.2800 C   0  0  0  0  0  0  0  0  0  0  0  0
   61.0010   31.0350   47.1300 C   0  0  0  0  0  0  0  0  0  0  0  0
   60.0960   32.1130   47.0990 C   0  0  0  0  0  0  0  0  0  0  0  0
   64.0083   33.3494   45.6215 H   0  0  0  0  0  0  0  0  0  0  0  0
   62.6436   34.6185   46.0175 H   0  0  0  0  0  0  0  0  0  0  0  0
   64.0838   32.6932   47.9530 H   0  0  0  0  0  0  0  0  0  0  0  0
   63.0517   34.2796   49.5833 H   0  0  0  0  0  0  0  0  0  0  0  0
   62.1289   35.0821   48.2547 H   0  0  0  0  0  0  0  0  0  0  0  0
   61.4031   31.3459   49.7911 H   0  0  0  0  0  0  0  0  0  0  0  0
   62.1451   32.6664   50.7732 H   0  0  0  0  0  0  0  0  0  0  0  0
   60.4544   34.5885   51.5049 H   0  0  0  0  0  0  0  0  0  0  0  0
   58.3329   34.8425   52.7884 H   0  0  0  0  0  0  0  0  0  0  0  0
   56.7058   32.9589   52.9108 H   0  0  0  0  0  0  0  0  0  0  0  0
   55.1550   31.3390   50.8980 H   0  0  0  0  0  0  0  0  0  0  0  0
   59.3288   30.5436   50.4436 H   0  0  0  0  0  0  0  0  0  0  0  0
   59.4178   35.0950   48.6606 H   0  0  0  0  0  0  0  0  0  0  0  0
   57.5059   35.0398   47.0788 H   0  0  0  0  0  0  0  0  0  0  0  0
   57.2280   33.1425   45.5038 H   0  0  0  0  0  0  0  0  0  0  0  0
   58.2190   28.9290   42.9990 H   0  0  0  0  0  0  0  0  0  0  0  0
   57.4299   28.7177   45.5386 H   0  0  0  0  0  0  0  0  0  0  0  0
   56.0714   27.9682   44.6262 H   0  0  0  0  0  0  0  0  0  0  0  0
   57.3981   24.5804   46.6962 H   0  0  0  0  0  0  0  0  0  0  0  0
   56.2691   25.9272   46.2587 H   0  0  0  0  0  0  0  0  0  0  0  0
   55.3501   24.4073   44.8559 H   0  0  0  0  0  0  0  0  0  0  0  0
   56.7889   24.8128   43.8099 H   0  0  0  0  0  0  0  0  0  0  0  0
   58.0042   22.8896   44.6757 H   0  0  0  0  0  0  0  0  0  0  0  0
   56.6133   22.4928   45.7721 H   0  0  0  0  0  0  0  0  0  0  0  0
   57.8851   20.7390   43.8721 H   0  0  0  0  0  0  0  0  0  0  0  0
   56.7894   20.4948   42.4698 H   0  0  0  0  0  0  0  0  0  0  0  0
   57.9577   21.8592   42.4698 H   0  0  0  0  0  0  0  0  0  0  0  0
   55.0816   23.7633   43.2060 H   0  0  0  0  0  0  0  0  0  0  0  0
   56.4425   23.4191   42.0851 H   0  0  0  0  0  0  0  0  0  0  0  0
   54.9897   22.3626   42.0851 H   0  0  0  0  0  0  0  0  0  0  0  0
   59.5851   24.9065   46.4873 H   0  0  0  0  0  0  0  0  0  0  0  0
   60.2818   26.1334   45.3652 H   0  0  0  0  0  0  0  0  0  0  0  0
   61.4926   26.1805   47.9250 H   0  0  0  0  0  0  0  0  0  0  0  0
   61.6157   27.7913   49.8276 H   0  0  0  0  0  0  0  0  0  0  0  0
   59.7702   29.4308   50.2015 H   0  0  0  0  0  0  0  0  0  0  0  0
   57.7963   29.4586   48.6722 H   0  0  0  0  0  0  0  0  0  0  0  0
   57.6607   27.8453   46.7736 H   0  0  0  0  0  0  0  0  0  0  0  0
   59.6635   29.0447   44.7123 H   0  0  0  0  0  0  0  0  0  0  0  0
   61.5466   29.1076   46.3229 H   0  0  0  0  0  0  0  0  0  0  0  0
   61.8463   31.0537   47.8337 H   0  0  0  0  0  0  0  0  0  0  0  0
  1  2  2  0
  2  3  1  0
  3  4  1  0
  4  5  1  0
  5  6  1  0
  6  7  2  0
  7  8  1  0
  8  9  2  0
  9 10  1  0
 10 11  1  0
 11 12  1  0
 11 13  2  0
 10 14  2  0
  4 15  1  0
 15 16  2  0
 16 17  1  0
 17 18  2  0
 18 19  1  0
 19 20  2  0
 20 21  1  0
 21 22  2  0
 21 23  2  0
 21 24  1  0
 24 25  1  0
 25 26  1  0
 26 27  2  0
 26 28  1  0
 28 29  1  0
 29 30  1  0
 30 31  1  0
 31 32  1  0
 32 33  1  0
 32 34  1  0
 28 35  1  0
 35 36  1  0
 36 37  2  0
 37 38  1  0
 38 39  2  0
 39 40  1  0
 40 41  2  0
 20 42  1  0
 42 43  2  0
 43 44  1  0
 44 45  2  0
 14  6  1  0
 45 15  1  0
 45 19  1  0
 41 36  1  0
  1 46  1  0
  1 47  1  0
  2 48  1  0
  3 49  1  0
  3 50  1  0
  5 51  1  0
  5 52  1  0
  7 53  1  0
  8 54  1  0
  9 55  1  0
 12 56  1  0
 14 57  1  0
 16 58  1  0
 17 59  1  0
 18 60  1  0
 24 61  1  0
 25 62  1  0
 25 63  1  0
 29 64  1  0
 29 65  1  0
 30 66  1  0
 30 67  1  0
 31 68  1  0
 31 69  1  0
 33 70  1  0
 33 71  1  0
 33 72  1  0
 34 73  1  0
 34 74  1  0
 34 75  1  0
 35 76  1  0
 35 77  1  0
 37 78  1  0
 38 79  1  0
 39 80  1  0
 40 81  1  0
 41 82  1  0
 42 83  1  0
 43 84  1  0
 44 85  1  0
M  CHG  1  12  -1
M  END
>  <UniqueID>  (62) 
56

>  <SMILES>  (62) 
C=CCN(Cc1cccc(C([NH-])=O)c1)c1cccc2c(S(=O)(=O)NCC(=O)N(CCCN(C)C)Cc3ccccc3)cccc12

>  <Energy>  (62) 
89.69007443445112

>  <Genealogy>  (62) 
C=CCN(Cc1cccc(C([NH-])=O)c1)c1cccc2c(S(=O)(=O)NCC(=O)N(CCCN(C)C)Cc3ccccc3)cccc12 (protonated)
C=CCN(Cc1cccc(C([NH-])=O)c1)c1cccc2c(S(=O)(=O)NCC(=O)N(CCCN(C)C)Cc3ccccc3)cccc12 (3D coordinates assigned)
C=CCN(Cc1cccc(C([NH-])=O)c1)c1cccc2c(S(=O)(=O)NCC(=O)N(CCCN(C)C)Cc3ccccc3)cccc12 (optimized conformer: 89.69007443445112 kcal/mol)

>  <smiles>  (62) 
C=CCN(Cc1cccc(C(N)=O)c1)c1cccc2c(S(=O)(=O)NCC(=O)N(CCCN(C)C)Cc3ccccc3)cccc12

>  <score_type>  (62) 
oracle

>  <origin>  (62) 
adg

>  <m_score__min__energy>  (62) 
-13.460000000000001

>  <m_primary>  (62) 
energy

$$$$
62:0
     RDKit          3D

 39 40  0  0  0  0  0  0  0  0999 V2000
   57.7520   27.8230   43.9810 C   0  0  0  0  0  0  0  0  0  0  0  0
   56.7100   28.2040   45.3700 S   0  0  0  0  0  0  0  0  0  0  0  0
   57.5500   28.7930   46.4690 O   0  0  0  0  0  0  0  0  0  0  0  0
   56.0600   26.9390   45.8560 O   0  0  0  0  0  0  0  0  0  0  0  0
   55.4990   29.3480   44.8670 N   0  0  0  0  0  0  0  0  0  0  0  0
   56.0010   30.2010   43.7900 C   0  0  0  0  0  0  0  0  0  0  0  0
   57.1630   31.0160   44.2620 C   0  0  0  0  0  0  0  0  0  0  0  0
   58.3020   30.8430   43.7510 O   0  0  0  0  0  0  0  0  0  0  0  0
   56.9740   31.9790   45.3030 N   0  0  0  0  0  0  0  0  0  0  0  0
   57.9200   33.0180   45.5700 C   0  0  0  0  0  0  0  0  0  0  0  0
   58.3390   33.8300   44.5080 C   0  0  0  0  0  0  0  0  0  0  0  0
   59.2320   34.8780   44.7290 C   0  0  0  0  0  0  0  0  0  0  0  0
   59.7130   35.1240   46.0150 C   0  0  0  0  0  0  0  0  0  0  0  0
   59.3140   34.3140   47.0800 C   0  0  0  0  0  0  0  0  0  0  0  0
   58.4340   33.2360   46.8710 C   0  0  0  0  0  0  0  0  0  0  0  0
   58.0360   32.3660   48.0470 C   0  0  0  0  0  0  0  0  0  0  0  0
   59.1540   31.4480   48.4930 C   0  0  0  0  0  0  0  0  0  0  0  0
   59.5660   31.4800   49.8390 C   0  0  0  0  0  0  0  0  0  0  0  0
   60.5590   30.6160   50.3010 C   0  0  0  0  0  0  0  0  0  0  0  0
   61.1650   29.7160   49.4260 C   0  0  0  0  0  0  0  0  0  0  0  0
   60.7910   29.6890   48.0820 C   0  0  0  0  0  0  0  0  0  0  0  0
   59.8020   30.5560   47.6010 C   0  0  0  0  0  0  0  0  0  0  0  0
   59.5020   30.5110   46.2390 O   0  0  0  0  0  0  0  0  0  0  0  0
   58.7280   27.4661   44.3418 H   0  0  0  0  0  0  0  0  0  0  0  0
   57.2780   27.0400   43.3709 H   0  0  0  0  0  0  0  0  0  0  0  0
   57.8948   28.7271   43.3709 H   0  0  0  0  0  0  0  0  0  0  0  0
   56.3206   29.5696   42.9479 H   0  0  0  0  0  0  0  0  0  0  0  0
   55.1968   30.8809   43.4721 H   0  0  0  0  0  0  0  0  0  0  0  0
   57.9609   33.6395   43.4927 H   0  0  0  0  0  0  0  0  0  0  0  0
   59.5569   35.5104   43.8896 H   0  0  0  0  0  0  0  0  0  0  0  0
   60.4083   35.9581   46.1905 H   0  0  0  0  0  0  0  0  0  0  0  0
   59.6913   34.5206   48.0924 H   0  0  0  0  0  0  0  0  0  0  0  0
   57.7568   33.0167   48.8888 H   0  0  0  0  0  0  0  0  0  0  0  0
   57.1934   31.7356   47.7266 H   0  0  0  0  0  0  0  0  0  0  0  0
   59.0998   32.1941   50.5338 H   0  0  0  0  0  0  0  0  0  0  0  0
   60.8642   30.6450   51.3574 H   0  0  0  0  0  0  0  0  0  0  0  0
   61.9386   29.0266   49.7952 H   0  0  0  0  0  0  0  0  0  0  0  0
   61.2770   28.9809   47.3947 H   0  0  0  0  0  0  0  0  0  0  0  0
   58.5670   30.6240   45.8740 H   0  0  0  0  0  0  0  0  0  0  0  0
  1  2  1  0
  2  3  2  0
  2  4  2  0
  2  5  1  0
  5  6  1  0
  6  7  1  0
  7  8  2  0
  7  9  1  0
  9 10  1  0
 10 11  2  0
 11 12  1  0
 12 13  2  0
 13 14  1  0
 14 15  2  0
 15 16  1  0
 16 17  1  0
 17 18  2  0
 18 19  1  0
 19 20  2  0
 20 21  1  0
 21 22  2  0
 22 23  1  0
 15 10  1  0
 22 17  1  0
  1 24  1  0
  1 25  1  0
  1 26  1  0
  6 27  1  0
  6 28  1  0
 11 29  1  0
 12 30  1  0
 13 31  1  0
 14 32  1  0
 16 33  1  0
 16 34  1  0
 18 35  1  0
 19 36  1  0
 20 37  1  0
 21 38  1  0
 23 39  1  0
M  CHG  2   5  -1   9  -1
M  END
>  <UniqueID>  (63) 
57

>  <SMILES>  (63) 
CS(=O)(=O)[N-]CC(=O)[N-]c1ccccc1Cc1ccccc1O

>  <Energy>  (63) 
41.66050080024733

>  <Genealogy>  (63) 
CS(=O)(=O)[N-]CC(=O)[N-]c1ccccc1Cc1ccccc1O (protonated)
CS(=O)(=O)[N-]CC(=O)[N-]c1ccccc1Cc1ccccc1O (3D coordinates assigned)
CS(=O)(=O)[N-]CC(=O)[N-]c1ccccc1Cc1ccccc1O (optimized conformer: 41.66050080024733 kcal/mol)

>  <smiles>  (63) 
CS(=O)(=O)NCC(=O)Nc1ccccc1Cc1ccccc1O

>  <score_type>  (63) 
oracle

>  <origin>  (63) 
adg

>  <m_score__min__energy>  (63) 
-12.220000000000001

>  <m_primary>  (63) 
energy

$$$$
63:0
     RDKit          3D

 45 47  0  0  0  0  0  0  0  0999 V2000
   54.7820   26.2900   46.0110 N   0  0  0  0  0  0  0  0  0  0  0  0
   56.4590   25.8730   45.9970 S   0  0  0  0  0  0  0  0  0  0  0  0
   56.8040   25.1470   47.2670 O   0  0  0  0  0  0  0  0  0  0  0  0
   56.7430   24.9670   44.8320 O   0  0  0  0  0  0  0  0  0  0  0  0
   57.4280   27.3360   45.8650 C   0  0  0  0  0  0  0  0  0  0  0  0
   58.7270   27.3690   46.3870 C   0  0  0  0  0  0  0  0  0  0  0  0
   59.5050   28.5220   46.2630 C   0  0  0  0  0  0  0  0  0  0  0  0
   58.9900   29.6490   45.6170 C   0  0  0  0  0  0  0  0  0  0  0  0
   57.6820   29.6360   45.1030 C   0  0  0  0  0  0  0  0  0  0  0  0
   57.1320   30.8310   44.4290 C   0  0  0  0  0  0  0  0  0  0  0  0
   56.9370   30.8090   43.1840 O   0  0  0  0  0  0  0  0  0  0  0  0
   56.7760   32.0080   45.1660 N   0  0  0  0  0  0  0  0  0  0  0  0
   57.7180   32.9010   45.7760 C   0  0  0  0  0  0  0  0  0  0  0  0
   58.3420   33.8780   44.9930 C   0  0  0  0  0  0  0  0  0  0  0  0
   59.2630   34.7570   45.5670 C   0  0  0  0  0  0  0  0  0  0  0  0
   59.5810   34.6550   46.9240 C   0  0  0  0  0  0  0  0  0  0  0  0
   58.9820   33.6660   47.7200 C   0  0  0  0  0  0  0  0  0  0  0  0
   59.3510   33.5280   49.1830 C   0  0  0  0  0  0  0  0  0  0  0  0
   58.6950   32.3930   49.8690 N   0  0  0  0  0  0  0  0  0  0  0  0
   59.3540   31.0970   49.6230 C   0  0  0  0  0  0  0  0  0  0  0  0
   58.6450   29.9770   50.4120 C   0  0  0  0  0  0  0  0  0  0  0  0
   57.4160   30.4280   50.9490 O   0  0  0  0  0  0  0  0  0  0  0  0
   57.6540   31.4540   51.8980 C   0  0  0  0  0  0  0  0  0  0  0  0
   58.4900   32.6100   51.3100 C   0  0  0  0  0  0  0  0  0  0  0  0
   58.0600   32.7820   47.1360 C   0  0  0  0  0  0  0  0  0  0  0  0
   56.9010   28.4770   45.2420 C   0  0  0  0  0  0  0  0  0  0  0  0
   54.6720   27.0850   46.6810 H   0  0  0  0  0  0  0  0  0  0  0  0
   59.1358   26.4839   46.8963 H   0  0  0  0  0  0  0  0  0  0  0  0
   60.5249   28.5431   46.6745 H   0  0  0  0  0  0  0  0  0  0  0  0
   59.6112   30.5505   45.5103 H   0  0  0  0  0  0  0  0  0  0  0  0
   58.1064   33.9542   43.9212 H   0  0  0  0  0  0  0  0  0  0  0  0
   59.7397   35.5321   44.9490 H   0  0  0  0  0  0  0  0  0  0  0  0
   60.3043   35.3532   47.3706 H   0  0  0  0  0  0  0  0  0  0  0  0
   60.4401   33.3904   49.2527 H   0  0  0  0  0  0  0  0  0  0  0  0
   59.0044   34.4437   49.6844 H   0  0  0  0  0  0  0  0  0  0  0  0
   59.3114   30.8665   48.5483 H   0  0  0  0  0  0  0  0  0  0  0  0
   60.4012   31.1598   49.9539 H   0  0  0  0  0  0  0  0  0  0  0  0
   58.4524   29.1297   49.7375 H   0  0  0  0  0  0  0  0  0  0  0  0
   59.2967   29.6707   51.2435 H   0  0  0  0  0  0  0  0  0  0  0  0
   56.6870   31.8534   52.2378 H   0  0  0  0  0  0  0  0  0  0  0  0
   58.2223   31.0169   52.7322 H   0  0  0  0  0  0  0  0  0  0  0  0
   57.9584   33.5606   51.4643 H   0  0  0  0  0  0  0  0  0  0  0  0
   59.4667   32.6458   51.8148 H   0  0  0  0  0  0  0  0  0  0  0  0
   57.6015   31.9902   47.7466 H   0  0  0  0  0  0  0  0  0  0  0  0
   55.8696   28.4639   44.8599 H   0  0  0  0  0  0  0  0  0  0  0  0
  1  2  1  0
  2  3  2  0
  2  4  2  0
  2  5  1  0
  5  6  2  0
  6  7  1  0
  7  8  2  0
  8  9  1  0
  9 10  1  0
 10 11  2  0
 10 12  1  0
 12 13  1  0
 13 14  2  0
 14 15  1  0
 15 16  2  0
 16 17  1  0
 17 18  1  0
 18 19  1  0
 19 20  1  0
 20 21  1  0
 21 22  1  0
 22 23  1  0
 23 24  1  0
 17 25  2  0
  9 26  2  0
 26  5  1  0
 25 13  1  0
 24 19  1  0
  1 27  1  0
  6 28  1  0
  7 29  1  0
  8 30  1  0
 14 31  1  0
 15 32  1  0
 16 33  1  0
 18 34  1  0
 18 35  1  0
 20 36  1  0
 20 37  1  0
 21 38  1  0
 21 39  1  0
 23 40  1  0
 23 41  1  0
 24 42  1  0
 24 43  1  0
 25 44  1  0
 26 45  1  0
M  CHG  2   1  -1  12  -1
M  END
>  <UniqueID>  (64) 
58

>  <SMILES>  (64) 
[NH-]S(=O)(=O)c1cccc(C(=O)[N-]c2cccc(CN3CCOCC3)c2)c1

>  <Energy>  (64) 
61.19428044639966

>  <Genealogy>  (64) 
[NH-]S(=O)(=O)c1cccc(C(=O)[N-]c2cccc(CN3CCOCC3)c2)c1 (protonated)
[NH-]S(=O)(=O)c1cccc(C(=O)[N-]c2cccc(CN3CCOCC3)c2)c1 (3D coordinates assigned)
[NH-]S(=O)(=O)c1cccc(C(=O)[N-]c2cccc(CN3CCOCC3)c2)c1 (nonaromatic ring conformer: 61.19428044639966 kcal/mol)

>  <smiles>  (64) 
NS(=O)(=O)c1cccc(C(=O)Nc2cccc(CN3CCOCC3)c2)c1

>  <score_type>  (64) 
oracle

>  <origin>  (64) 
adg

>  <m_score__min__energy>  (64) 
-13.779999999999999

>  <m_primary>  (64) 
energy

$$$$
64:0
     RDKit          3D

 53 55  0  0  0  0  0  0  0  0999 V2000
   58.2181   35.2520   47.6621 H   0  0  0  0  0  0  0  0  0  0  0  0
   58.7830   34.3400   47.4190 C   0  0  0  0  0  0  0  0  0  0  0  0
   59.7170   33.9270   48.2850 C   0  0  0  0  0  0  0  0  0  0  0  0
   60.2887   34.6737   48.8557 H   0  0  0  0  0  0  0  0  0  0  0  0
   60.0020   32.4660   48.4950 C   0  0  0  0  0  0  0  0  0  0  0  0
   60.4053   32.3231   49.5084 H   0  0  0  0  0  0  0  0  0  0  0  0
   59.0619   31.9100   48.3640 H   0  0  0  0  0  0  0  0  0  0  0  0
   61.0190   31.9360   47.4750 C   0  0  0  0  0  0  0  0  0  0  0  0
   60.6245   31.0170   47.0170 H   0  0  0  0  0  0  0  0  0  0  0  0
   61.1827   32.7073   46.7080 H   0  0  0  0  0  0  0  0  0  0  0  0
   62.3150   31.6350   48.1290 N   0  0  0  0  0  0  0  0  0  0  0  0
   62.5510   32.4660   49.3330 C   0  0  0  0  0  0  0  0  0  0  0  0
   61.5788   32.7463   49.7645 H   0  0  0  0  0  0  0  0  0  0  0  0
   63.1494   31.8708   50.0384 H   0  0  0  0  0  0  0  0  0  0  0  0
   63.3410   33.7520   49.0160 C   0  0  0  0  0  0  0  0  0  0  0  0
   62.9984   34.5596   49.6797 H   0  0  0  0  0  0  0  0  0  0  0  0
   64.4122   33.5581   49.1740 H   0  0  0  0  0  0  0  0  0  0  0  0
   63.1420   34.1390   47.6740 O   0  0  0  0  0  0  0  0  0  0  0  0
   63.7440   33.1990   46.8010 C   0  0  0  0  0  0  0  0  0  0  0  0
   63.3650   33.3739   45.7832 H   0  0  0  0  0  0  0  0  0  0  0  0
   64.8327   33.3421   46.8656 H   0  0  0  0  0  0  0  0  0  0  0  0
   63.4480   31.7320   47.1910 C   0  0  0  0  0  0  0  0  0  0  0  0
   63.2071   31.1629   46.2810 H   0  0  0  0  0  0  0  0  0  0  0  0
   64.3401   31.3226   47.6875 H   0  0  0  0  0  0  0  0  0  0  0  0
   58.4660   33.6390   46.1510 C   0  0  0  0  0  0  0  0  0  0  0  0
   59.0560   34.0980   44.9660 C   0  0  0  0  0  0  0  0  0  0  0  0
   59.7438   34.9559   44.9970 H   0  0  0  0  0  0  0  0  0  0  0  0
   58.7800   33.4780   43.7470 C   0  0  0  0  0  0  0  0  0  0  0  0
   59.2581   33.8445   42.8266 H   0  0  0  0  0  0  0  0  0  0  0  0
   57.8940   32.3870   43.6880 C   0  0  0  0  0  0  0  0  0  0  0  0
   57.5940   31.7360   42.4810 O   0  0  0  0  0  0  0  0  0  0  0  0
   57.7230   32.3260   41.1910 C   0  0  0  0  0  0  0  0  0  0  0  0
   57.9568   33.3955   41.2987 H   0  0  0  0  0  0  0  0  0  0  0  0
   58.5333   31.8273   40.6391 H   0  0  0  0  0  0  0  0  0  0  0  0
   56.7785   32.2109   40.6391 H   0  0  0  0  0  0  0  0  0  0  0  0
   57.2810   31.9290   44.8620 C   0  0  0  0  0  0  0  0  0  0  0  0
   56.3920   30.8460   44.7680 O   0  0  0  0  0  0  0  0  0  0  0  0
   56.7580   29.5260   44.3790 C   0  0  0  0  0  0  0  0  0  0  0  0
   55.9412   28.8305   44.6224 H   0  0  0  0  0  0  0  0  0  0  0  0
   56.9470   29.4981   43.2957 H   0  0  0  0  0  0  0  0  0  0  0  0
   57.9990   29.1220   45.1190 C   0  0  0  0  0  0  0  0  0  0  0  0
   59.2610   29.2700   44.5190 C   0  0  0  0  0  0  0  0  0  0  0  0
   59.3378   29.6546   43.4913 H   0  0  0  0  0  0  0  0  0  0  0  0
   60.4190   28.9300   45.2240 C   0  0  0  0  0  0  0  0  0  0  0  0
   61.4039   29.0372   44.7461 H   0  0  0  0  0  0  0  0  0  0  0  0
   60.3280   28.4540   46.5350 C   0  0  0  0  0  0  0  0  0  0  0  0
   61.2404   28.1833   47.0866 H   0  0  0  0  0  0  0  0  0  0  0  0
   59.0770   28.3220   47.1450 C   0  0  0  0  0  0  0  0  0  0  0  0
   59.0060   27.9518   48.1784 H   0  0  0  0  0  0  0  0  0  0  0  0
   57.9160   28.6600   46.4430 C   0  0  0  0  0  0  0  0  0  0  0  0
   56.9340   28.5638   46.9293 H   0  0  0  0  0  0  0  0  0  0  0  0
   57.5650   32.5590   46.0900 C   0  0  0  0  0  0  0  0  0  0  0  0
   57.0779   32.2035   47.0100 H   0  0  0  0  0  0  0  0  0  0  0  0
  1  2  1  0
  2  3  2  0
  3  4  1  0
  3  5  1  0
  5  6  1  0
  5  7  1  0
  5  8  1  0
  8  9  1  0
  8 10  1  0
  8 11  1  0
 11 12  1  0
 12 13  1  0
 12 14  1  0
 12 15  1  0
 15 16  1  0
 15 17  1  0
 15 18  1  0
 18 19  1  0
 19 20  1  0
 19 21  1  0
 19 22  1  0
 22 23  1  0
 22 24  1  0
  2 25  1  0
 25 26  2  0
 26 27  1  0
 26 28  1  0
 28 29  1  0
 28 30  2  0
 30 31  1  0
 31 32  1  0
 32 33  1  0
 32 34  1  0
 32 35  1  0
 30 36  1  0
 36 37  1  0
 37 38  1  0
 38 39  1  0
 38 40  1  0
 38 41  1  0
 41 42  2  0
 42 43  1  0
 42 44  1  0
 44 45  1  0
 44 46  2  0
 46 47  1  0
 46 48  1  0
 48 49  1  0
 48 50  2  0
 50 51  1  0
 36 52  2  0
 52 53  1  0
 22 11  1  0
 52 25  1  0
 50 41  1  0
M  END
>  <UniqueID>  (65) 
59

>  <SMILES>  (65) 
COc1ccc(/C=C/CCN2CCOCC2)cc1OCc1ccccc1

>  <Energy>  (65) 
63.336794215930304

>  <Genealogy>  (65) 
COc1ccc(/C=C/CCN2CCOCC2)cc1OCc1ccccc1 (cis-trans isomerization)
COc1ccc(/C=C/CCN2CCOCC2)cc1OCc1ccccc1 (3D coordinates assigned)
COc1ccc(/C=C/CCN2CCOCC2)cc1OCc1ccccc1 (nonaromatic ring conformer: 63.336794215930304 kcal/mol)

>  <smiles>  (65) 
COc1ccc(C=CCCN2CCOCC2)cc1OCc1ccccc1

>  <score_type>  (65) 
oracle

>  <origin>  (65) 
adg

>  <m_score__min__energy>  (65) 
-7.79

>  <m_primary>  (65) 
energy

$$$$
65:0
     RDKit          3D

 46 48  0  0  0  0  0  0  0  0999 V2000
   63.9270   32.8160   48.4120 C   0  0  0  0  0  0  0  0  0  0  0  0
   62.9690   32.7440   47.4890 C   0  0  0  0  0  0  0  0  0  0  0  0
   62.8330   33.8180   46.4520 C   0  0  0  0  0  0  0  0  0  0  0  0
   62.0590   31.6270   47.4860 C   0  0  0  0  0  0  0  0  0  0  0  0
   61.2990   30.6910   47.4820 C   0  0  0  0  0  0  0  0  0  0  0  0
   60.3900   29.5760   47.4770 C   0  0  0  0  0  0  0  0  0  0  0  0
   59.1210   29.7020   48.0560 C   0  0  0  0  0  0  0  0  0  0  0  0
   58.2350   28.6210   48.0450 C   0  0  0  0  0  0  0  0  0  0  0  0
   58.6100   27.4030   47.4540 C   0  0  0  0  0  0  0  0  0  0  0  0
   57.6430   26.2510   47.4020 C   0  0  0  0  0  0  0  0  0  0  0  0
   57.0810   25.9440   45.6910 S   0  0  0  0  0  0  0  0  0  0  0  0
   57.0750   27.6710   45.2220 C   0  0  0  0  0  0  0  0  0  0  0  0
   58.2290   28.2730   44.8330 N   0  0  0  0  0  0  0  0  0  0  0  0
   58.2460   29.5770   44.4510 C   0  0  0  0  0  0  0  0  0  0  0  0
   59.3350   30.1030   44.1010 O   0  0  0  0  0  0  0  0  0  0  0  0
   57.0520   30.3220   44.4470 C   0  0  0  0  0  0  0  0  0  0  0  0
   57.0220   31.7780   44.0590 C   0  0  0  0  0  0  0  0  0  0  0  0
   57.7770   32.6050   45.0630 C   0  0  0  0  0  0  0  0  0  0  0  0
   58.5340   33.7140   44.6480 C   0  0  0  0  0  0  0  0  0  0  0  0
   59.2580   34.4620   45.5810 C   0  0  0  0  0  0  0  0  0  0  0  0
   59.2400   34.1040   46.9320 C   0  0  0  0  0  0  0  0  0  0  0  0
   58.4980   32.9980   47.3520 C   0  0  0  0  0  0  0  0  0  0  0  0
   57.7720   32.2470   46.4220 C   0  0  0  0  0  0  0  0  0  0  0  0
   55.8810   29.6800   44.8710 C   0  0  0  0  0  0  0  0  0  0  0  0
   55.9150   28.3750   45.2450 N   0  0  0  0  0  0  0  0  0  0  0  0
   59.8820   27.2820   46.8740 C   0  0  0  0  0  0  0  0  0  0  0  0
   60.7680   28.3630   46.8870 C   0  0  0  0  0  0  0  0  0  0  0  0
   64.0211   32.0244   49.1700 H   0  0  0  0  0  0  0  0  0  0  0  0
   64.6239   33.6670   48.4161 H   0  0  0  0  0  0  0  0  0  0  0  0
   62.7096   34.7924   46.9473 H   0  0  0  0  0  0  0  0  0  0  0  0
   63.7358   33.8377   45.8239 H   0  0  0  0  0  0  0  0  0  0  0  0
   61.9538   33.6120   45.8239 H   0  0  0  0  0  0  0  0  0  0  0  0
   58.8211   30.6531   48.5201 H   0  0  0  0  0  0  0  0  0  0  0  0
   57.2394   28.7245   48.5012 H   0  0  0  0  0  0  0  0  0  0  0  0
   58.1394   25.3472   47.7851 H   0  0  0  0  0  0  0  0  0  0  0  0
   56.7672   26.5008   48.0189 H   0  0  0  0  0  0  0  0  0  0  0  0
   57.4853   31.8986   43.0686 H   0  0  0  0  0  0  0  0  0  0  0  0
   55.9762   32.1180   44.0316 H   0  0  0  0  0  0  0  0  0  0  0  0
   58.5569   33.9946   43.5846 H   0  0  0  0  0  0  0  0  0  0  0  0
   59.8427   35.3335   45.2515 H   0  0  0  0  0  0  0  0  0  0  0  0
   59.8105   34.6937   47.6647 H   0  0  0  0  0  0  0  0  0  0  0  0
   58.4845   32.7172   48.4155 H   0  0  0  0  0  0  0  0  0  0  0  0
   57.1945   31.3723   46.7557 H   0  0  0  0  0  0  0  0  0  0  0  0
   54.9315   30.2346   44.9010 H   0  0  0  0  0  0  0  0  0  0  0  0
   60.1831   26.3326   46.4072 H   0  0  0  0  0  0  0  0  0  0  0  0
   61.7646   28.2610   46.4328 H   0  0  0  0  0  0  0  0  0  0  0  0
  1  2  2  0
  2  3  1  0
  2  4  1  0
  4  5  3  0
  5  6  1  0
  6  7  2  0
  7  8  1  0
  8  9  2  0
  9 10  1  0
 10 11  1  0
 11 12  1  0
 12 13  2  0
 13 14  1  0
 14 15  2  0
 14 16  1  0
 16 17  1  0
 17 18  1  0
 18 19  2  0
 19 20  1  0
 20 21  2  0
 21 22  1  0
 22 23  2  0
 16 24  2  0
 24 25  1  0
  9 26  1  0
 26 27  2  0
 27  6  1  0
 25 12  1  0
 23 18  1  0
  1 28  1  0
  1 29  1  0
  3 30  1  0
  3 31  1  0
  3 32  1  0
  7 33  1  0
  8 34  1  0
 10 35  1  0
 10 36  1  0
 17 37  1  0
 17 38  1  0
 19 39  1  0
 20 40  1  0
 21 41  1  0
 22 42  1  0
 23 43  1  0
 24 44  1  0
 26 45  1  0
 27 46  1  0
M  CHG  1  25  -1
M  END
>  <UniqueID>  (66) 
60

>  <SMILES>  (66) 
C=C(C)C#Cc1ccc(CSc2nc(=O)c(Cc3ccccc3)c[n-]2)cc1

>  <Energy>  (66) 
36.53952230958178

>  <Genealogy>  (66) 
C=C(C)C#Cc1ccc(CSc2nc(=O)c(Cc3ccccc3)c[n-]2)cc1 (protonated)
C=C(C)C#Cc1ccc(CSc2nc(=O)c(Cc3ccccc3)c[n-]2)cc1 (3D coordinates assigned)
C=C(C)C#Cc1ccc(CSc2nc(=O)c(Cc3ccccc3)c[n-]2)cc1 (optimized conformer: 36.53952230958178 kcal/mol)

>  <smiles>  (66) 
C=C(C)C#Cc1ccc(CSc2nc(=O)c(Cc3ccccc3)c[nH]2)cc1

>  <score_type>  (66) 
oracle

>  <origin>  (66) 
adg

>  <m_score__min__energy>  (66) 
-9.9100000000000001

>  <m_primary>  (66) 
energy

$$$$
66:0
     RDKit          3D

 78 82  0  0  0  0  0  0  0  0999 V2000
   66.5250   31.5850   50.4710 C   0  0  0  0  0  0  0  0  0  0  0  0
   66.2130   30.4810   51.3170 O   0  0  0  0  0  0  0  0  0  0  0  0
   65.0760   30.4090   52.1380 C   0  0  0  0  0  0  0  0  0  0  0  0
   64.1440   29.3620   52.0330 C   0  0  0  0  0  0  0  0  0  0  0  0
   63.0190   29.3120   52.8680 C   0  0  0  0  0  0  0  0  0  0  0  0
   62.8040   30.3390   53.8140 C   0  0  0  0  0  0  0  0  0  0  0  0
   63.7460   31.3740   53.9220 C   0  0  0  0  0  0  0  0  0  0  0  0
   64.8760   31.4220   53.0830 C   0  0  0  0  0  0  0  0  0  0  0  0
   65.8190   32.4600   53.1590 O   0  0  0  0  0  0  0  0  0  0  0  0
   65.5110   33.8420   53.0230 C   0  0  0  0  0  0  0  0  0  0  0  0
   61.6110   30.3390   54.7570 C   0  0  0  0  0  0  0  0  0  0  0  0
   60.1960   30.4030   54.1130 C   0  0  0  0  0  0  0  0  0  0  0  0
   59.7700   29.1870   53.3880 N   0  0  0  0  0  0  0  0  0  0  0  0
   58.3180   29.0970   53.1220 C   0  0  0  0  0  0  0  0  0  0  0  0
   57.7070   30.4990   53.0920 C   0  0  0  0  0  0  0  0  0  0  0  0
   58.2990   31.3070   51.9690 C   0  0  0  0  0  0  0  0  0  0  0  0
   58.3490   32.7060   52.0640 C   0  0  0  0  0  0  0  0  0  0  0  0
   58.9530   33.4590   51.0550 C   0  0  0  0  0  0  0  0  0  0  0  0
   59.5280   32.8240   49.9440 C   0  0  0  0  0  0  0  0  0  0  0  0
   60.1520   33.5750   48.8920 N   0  0  0  0  0  0  0  0  0  0  0  0
   60.4650   33.0810   47.5810 C   0  0  0  0  0  0  0  0  0  0  0  0
   61.6210   32.6330   47.3660 O   0  0  0  0  0  0  0  0  0  0  0  0
   59.5030   33.1890   46.4580 C   0  0  0  0  0  0  0  0  0  0  0  0
   59.1850   34.4710   45.9710 C   0  0  0  0  0  0  0  0  0  0  0  0
   58.3170   34.6280   44.8910 C   0  0  0  0  0  0  0  0  0  0  0  0
   57.7550   33.5100   44.2800 C   0  0  0  0  0  0  0  0  0  0  0  0
   58.0480   32.2310   44.7550 C   0  0  0  0  0  0  0  0  0  0  0  0
   58.9120   32.0520   45.8470 C   0  0  0  0  0  0  0  0  0  0  0  0
   59.1680   30.4120   46.4660 S   0  0  0  0  0  0  0  0  0  0  0  0
   60.6200   30.2110   46.8060 O   0  0  0  0  0  0  0  0  0  0  0  0
   58.3550   30.2020   47.7110 O   0  0  0  0  0  0  0  0  0  0  0  0
   58.7030   29.2540   45.2610 N   0  0  0  0  0  0  0  0  0  0  0  0
   58.4050   27.8870   45.5580 C   0  0  0  0  0  0  0  0  0  0  0  0
   59.4670   27.0360   45.8790 C   0  0  0  0  0  0  0  0  0  0  0  0
   59.2390   25.6880   46.1390 C   0  0  0  0  0  0  0  0  0  0  0  0
   57.9450   25.1740   46.0870 C   0  0  0  0  0  0  0  0  0  0  0  0
   56.8520   26.0080   45.7970 C   0  0  0  0  0  0  0  0  0  0  0  0
   55.4860   25.4220   45.7750 C   0  0  0  0  0  0  0  0  0  0  0  0
   55.3110   24.1850   45.6130 O   0  0  0  0  0  0  0  0  0  0  0  0
   54.3700   26.2340   45.9440 O   0  0  0  0  0  0  0  0  0  0  0  0
   57.0810   27.3850   45.5550 C   0  0  0  0  0  0  0  0  0  0  0  0
   55.9930   28.2380   45.3500 O   0  0  0  0  0  0  0  0  0  0  0  0
   59.4470   31.4310   49.8300 C   0  0  0  0  0  0  0  0  0  0  0  0
   58.8470   30.6750   50.8420 C   0  0  0  0  0  0  0  0  0  0  0  0
   60.6430   28.7910   52.2570 C   0  0  0  0  0  0  0  0  0  0  0  0
   62.0080   28.2160   52.6810 C   0  0  0  0  0  0  0  0  0  0  0  0
   66.7727   32.4613   51.0881 H   0  0  0  0  0  0  0  0  0  0  0  0
   67.3859   31.3286   49.8360 H   0  0  0  0  0  0  0  0  0  0  0  0
   65.6573   31.8171   49.8360 H   0  0  0  0  0  0  0  0  0  0  0  0
   64.2996   28.5706   51.2850 H   0  0  0  0  0  0  0  0  0  0  0  0
   63.5989   32.1618   54.6755 H   0  0  0  0  0  0  0  0  0  0  0  0
   65.4100   34.2950   54.0203 H   0  0  0  0  0  0  0  0  0  0  0  0
   66.3190   34.3452   52.4718 H   0  0  0  0  0  0  0  0  0  0  0  0
   64.5658   33.9545   52.4718 H   0  0  0  0  0  0  0  0  0  0  0  0
   61.6613   29.4168   55.3544 H   0  0  0  0  0  0  0  0  0  0  0  0
   61.7036   31.2724   55.3317 H   0  0  0  0  0  0  0  0  0  0  0  0
   59.4671   30.5920   54.9149 H   0  0  0  0  0  0  0  0  0  0  0  0
   60.2438   31.2024   53.3589 H   0  0  0  0  0  0  0  0  0  0  0  0
   58.1547   28.6070   52.1508 H   0  0  0  0  0  0  0  0  0  0  0  0
   57.8391   28.5100   53.9195 H   0  0  0  0  0  0  0  0  0  0  0  0
   56.6199   30.4172   52.9454 H   0  0  0  0  0  0  0  0  0  0  0  0
   57.9237   31.0024   54.0457 H   0  0  0  0  0  0  0  0  0  0  0  0
   57.9106   33.2117   52.9369 H   0  0  0  0  0  0  0  0  0  0  0  0
   58.9781   34.5560   51.1317 H   0  0  0  0  0  0  0  0  0  0  0  0
   59.6262   35.3588   46.4477 H   0  0  0  0  0  0  0  0  0  0  0  0
   58.0761   35.6357   44.5215 H   0  0  0  0  0  0  0  0  0  0  0  0
   57.0789   33.6353   43.4214 H   0  0  0  0  0  0  0  0  0  0  0  0
   57.5971   31.3535   44.2685 H   0  0  0  0  0  0  0  0  0  0  0  0
   60.4909   27.4352   45.9264 H   0  0  0  0  0  0  0  0  0  0  0  0
   60.0825   25.0266   46.3862 H   0  0  0  0  0  0  0  0  0  0  0  0
   57.7772   24.1033   46.2751 H   0  0  0  0  0  0  0  0  0  0  0  0
   55.1340   27.9400   44.9090 H   0  0  0  0  0  0  0  0  0  0  0  0
   59.8569   30.9293   48.9410 H   0  0  0  0  0  0  0  0  0  0  0  0
   58.8043   29.5793   50.7543 H   0  0  0  0  0  0  0  0  0  0  0  0
   60.1161   28.0274   51.6660 H   0  0  0  0  0  0  0  0  0  0  0  0
   60.8511   29.7066   51.6840 H   0  0  0  0  0  0  0  0  0  0  0  0
   61.8898   27.6701   53.6286 H   0  0  0  0  0  0  0  0  0  0  0  0
   62.3652   27.5408   51.8895 H   0  0  0  0  0  0  0  0  0  0  0  0
  1  2  1  0
  2  3  1  0
  3  4  2  0
  4  5  1  0
  5  6  2  0
  6  7  1  0
  7  8  2  0
  8  9  1  0
  9 10  1  0
  6 11  1  0
 11 12  1  0
 12 13  1  0
 13 14  1  0
 14 15  1  0
 15 16  1  0
 16 17  2  0
 17 18  1  0
 18 19  2  0
 19 20  1  0
 20 21  1  0
 21 22  2  0
 21 23  1  0
 23 24  2  0
 24 25  1  0
 25 26  2  0
 26 27  1  0
 27 28  2  0
 28 29  1  0
 29 30  2  0
 29 31  2  0
 29 32  1  0
 32 33  1  0
 33 34  2  0
 34 35  1  0
 35 36  2  0
 36 37  1  0
 37 38  1  0
 38 39  2  0
 38 40  1  0
 37 41  2  0
 41 42  1  0
 19 43  1  0
 43 44  2  0
 13 45  1  0
 45 46  1  0
  8  3  1  0
 44 16  1  0
 46  5  1  0
 28 23  1  0
 41 33  1  0
  1 47  1  0
  1 48  1  0
  1 49  1  0
  4 50  1  0
  7 51  1  0
 10 52  1  0
 10 53  1  0
 10 54  1  0
 11 55  1  0
 11 56  1  0
 12 57  1  0
 12 58  1  0
 14 59  1  0
 14 60  1  0
 15 61  1  0
 15 62  1  0
 17 63  1  0
 18 64  1  0
 24 65  1  0
 25 66  1  0
 26 67  1  0
 27 68  1  0
 34 69  1  0
 35 70  1  0
 36 71  1  0
 42 72  1  0
 43 73  1  0
 44 74  1  0
 45 75  1  0
 45 76  1  0
 46 77  1  0
 46 78  1  0
M  CHG  3  20  -1  32  -1  40  -1
M  END
>  <UniqueID>  (67) 
61

>  <SMILES>  (67) 
COc1cc2c(cc1OC)CCN(CCc1ccc([N-]C(=O)c3ccccc3S(=O)(=O)[N-]c3cccc(C(=O)[O-])c3O)cc1)CC2

>  <Energy>  (67) 
117.88088354649764

>  <Genealogy>  (67) 
COc1cc2c(cc1OC)CCN(CCc1ccc([N-]C(=O)c3ccccc3S(=O)(=O)[N-]c3cccc(C(=O)[O-])c3O)cc1)CC2 (protonated)
COc1cc2c(cc1OC)CCN(CCc1ccc([N-]C(=O)c3ccccc3S(=O)(=O)[N-]c3cccc(C(=O)[O-])c3O)cc1)CC2 (3D coordinates assigned)
COc1cc2c(cc1OC)CCN(CCc1ccc([N-]C(=O)c3ccccc3S(=O)(=O)[N-]c3cccc(C(=O)[O-])c3O)cc1)CC2 (nonaromatic ring conformer: 117.88088354649764 kcal/mol)

>  <smiles>  (67) 
COc1cc2c(cc1OC)CCN(CCc1ccc(NC(=O)c3ccccc3S(=O)(=O)Nc3cccc(C(=O)O)c3O)cc1)CC2

>  <score_type>  (67) 
oracle

>  <origin>  (67) 
adg

>  <m_score__min__energy>  (67) 
-12.48

>  <m_primary>  (67) 
energy

$$$$
67:0
     RDKit          3D

 48 52  0  0  0  0  0  0  0  0999 V2000
   58.9570   33.0910   50.6050 C   0  0  0  0  0  0  0  0  0  0  0  0
   60.2130   33.1310   51.8630 S   0  0  0  0  0  0  0  0  0  0  0  0
   60.2330   31.8110   52.5810 O   0  0  0  0  0  0  0  0  0  0  0  0
   59.8930   34.2380   52.8270 O   0  0  0  0  0  0  0  0  0  0  0  0
   61.7460   33.4270   51.1090 N   0  0  0  0  0  0  0  0  0  0  0  0
   62.1090   33.1350   49.7510 C   0  0  0  0  0  0  0  0  0  0  0  0
   62.9990   34.0070   49.1130 C   0  0  0  0  0  0  0  0  0  0  0  0
   63.4280   33.7580   47.8080 C   0  0  0  0  0  0  0  0  0  0  0  0
   62.9530   32.6440   47.1150 C   0  0  0  0  0  0  0  0  0  0  0  0
   62.0210   31.7890   47.7120 C   0  0  0  0  0  0  0  0  0  0  0  0
   61.5460   30.6550   46.9710 N   0  0  0  0  0  0  0  0  0  0  0  0
   60.3550   30.5450   46.4620 C   0  0  0  0  0  0  0  0  0  0  0  0
   59.8390   29.3010   46.2390 N   0  0  0  0  0  0  0  0  0  0  0  0
   58.6010   29.2100   45.6960 C   0  0  0  0  0  0  0  0  0  0  0  0
   57.8730   28.0850   45.3830 C   0  0  0  0  0  0  0  0  0  0  0  0
   58.2280   26.8090   45.5860 C   0  0  0  0  0  0  0  0  0  0  0  0
   57.4270   25.8610   46.3770 C   0  0  0  0  0  0  0  0  0  0  0  0
   57.9630   24.8270   47.0490 N   0  0  0  0  0  0  0  0  0  0  0  0
   56.8890   24.2160   47.5930 C   0  0  0  0  0  0  0  0  0  0  0  0
   56.9880   23.1930   48.3200 O   0  0  0  0  0  0  0  0  0  0  0  0
   55.7020   24.7820   47.2930 N   0  0  0  0  0  0  0  0  0  0  0  0
   56.0530   25.8150   46.5100 C   0  0  0  0  0  0  0  0  0  0  0  0
   55.1270   26.6580   45.9000 O   0  0  0  0  0  0  0  0  0  0  0  0
   56.6810   28.5980   44.8640 C   0  0  0  0  0  0  0  0  0  0  0  0
   56.7240   29.9540   44.8660 N   0  0  0  0  0  0  0  0  0  0  0  0
   57.8960   30.2960   45.3740 N   0  0  0  0  0  0  0  0  0  0  0  0
   58.3890   31.5410   45.5690 C   0  0  0  0  0  0  0  0  0  0  0  0
   57.6950   32.5890   45.2400 N   0  0  0  0  0  0  0  0  0  0  0  0
   57.4990   33.7300   46.1290 C   0  0  0  0  0  0  0  0  0  0  0  0
   58.0990   33.5180   47.5040 C   0  0  0  0  0  0  0  0  0  0  0  0
   58.7850   34.4390   46.5060 C   0  0  0  0  0  0  0  0  0  0  0  0
   59.6320   31.6580   46.1190 N   0  0  0  0  0  0  0  0  0  0  0  0
   61.6090   32.0200   49.0400 C   0  0  0  0  0  0  0  0  0  0  0  0
   60.7420   31.1540   49.6180 F   0  0  0  0  0  0  0  0  0  0  0  0
   57.9646   33.0594   51.0785 H   0  0  0  0  0  0  0  0  0  0  0  0
   59.0361   33.9921   49.9791 H   0  0  0  0  0  0  0  0  0  0  0  0
   59.0933   32.1967   49.9791 H   0  0  0  0  0  0  0  0  0  0  0  0
   63.3641   34.8976   49.6454 H   0  0  0  0  0  0  0  0  0  0  0  0
   64.1420   34.4414   47.3251 H   0  0  0  0  0  0  0  0  0  0  0  0
   63.3126   32.4376   46.0961 H   0  0  0  0  0  0  0  0  0  0  0  0
   59.1669   26.4514   45.1382 H   0  0  0  0  0  0  0  0  0  0  0  0
   54.7660   27.4790   46.3680 H   0  0  0  0  0  0  0  0  0  0  0  0
   55.8346   27.9928   44.5072 H   0  0  0  0  0  0  0  0  0  0  0  0
   56.5214   34.0520   45.7410 H   0  0  0  0  0  0  0  0  0  0  0  0
   57.6039   33.9393   48.3913 H   0  0  0  0  0  0  0  0  0  0  0  0
   58.4063   32.6408   48.0924 H   0  0  0  0  0  0  0  0  0  0  0  0
   58.7860   35.5265   46.6711 H   0  0  0  0  0  0  0  0  0  0  0  0
   59.7940   34.5045   46.0728 H   0  0  0  0  0  0  0  0  0  0  0  0
  1  2  1  0
  2  3  2  0
  2  4  2  0
  2  5  1  0
  5  6  1  0
  6  7  2  0
  7  8  1  0
  8  9  2  0
  9 10  1  0
 10 11  1  0
 11 12  2  3
 12 13  1  0
 13 14  2  0
 14 15  1  0
 15 16  2  3
 16 17  1  0
 17 18  1  0
 18 19  1  0
 19 20  2  0
 19 21  1  0
 21 22  1  0
 22 23  1  0
 15 24  1  0
 24 25  2  0
 25 26  1  0
 26 27  1  0
 27 28  2  3
 28 29  1  0
 29 30  1  0
 30 31  1  0
 27 32  1  0
 10 33  2  0
 33 34  1  0
 33  6  1  0
 32 12  1  0
 26 14  1  0
 31 29  1  0
 22 17  2  0
  1 35  1  0
  1 36  1  0
  1 37  1  0
  7 38  1  0
  8 39  1  0
  9 40  1  0
 16 41  1  0
 23 42  1  0
 24 43  1  0
 29 44  1  0
 30 45  1  0
 30 46  1  0
 31 47  1  0
 31 48  1  0
M  CHG  4   5  -1  18  -1  21  -1  32  -1
M  END
>  <UniqueID>  (68) 
62

>  <SMILES>  (68) 
CS(=O)(=O)[N-]c1cccc(N=c2nc3c(=Cc4[n-]c(=O)[n-]c4O)cnn3c(=NC3CC3)[n-]2)c1F

>  <Energy>  (68) 
399.15827271358665

>  <Genealogy>  (68) 
CS(=O)(=O)[N-]c1cccc(N=c2nc3c(=Cc4[n-]c(=O)[n-]c4O)cnn3c(=NC3CC3)[n-]2)c1F (protonated)
CS(=O)(=O)[N-]c1cccc(N=c2nc3c(=Cc4[n-]c(=O)[n-]c4O)cnn3c(=NC3CC3)[n-]2)c1F (3D coordinates assigned)
CS(=O)(=O)[N-]c1cccc(N=c2nc3c(=Cc4[n-]c(=O)[n-]c4O)cnn3c(=NC3CC3)[n-]2)c1F (nonaromatic ring conformer: 399.15827271358665 kcal/mol)

>  <smiles>  (68) 
CS(=O)(=O)Nc1cccc(N=c2nc3c(=Cc4[nH]c(=O)[nH]c4O)cnn3c(=NC3CC3)[nH]2)c1F

>  <score_type>  (68) 
oracle

>  <origin>  (68) 
adg

>  <m_score__min__energy>  (68) 
-15.640000000000001

>  <m_primary>  (68) 
energy

$$$$
68:0
     RDKit          3D

 44 46  0  0  0  0  0  0  0  0999 V2000
   56.2840   29.1440   42.4680 N   0  0  0  0  0  0  0  0  0  0  0  0
   56.8460   30.3830   42.9180 C   0  0  0  0  0  0  0  0  0  0  0  0
   57.2630   31.3340   41.9730 C   0  0  0  0  0  0  0  0  0  0  0  0
   57.8140   32.5470   42.3870 C   0  0  0  0  0  0  0  0  0  0  0  0
   57.9650   32.8190   43.7470 C   0  0  0  0  0  0  0  0  0  0  0  0
   57.5560   31.8810   44.6980 C   0  0  0  0  0  0  0  0  0  0  0  0
   56.9740   30.6640   44.2950 C   0  0  0  0  0  0  0  0  0  0  0  0
   56.5670   29.6770   45.2560 N   0  0  0  0  0  0  0  0  0  0  0  0
   57.4210   28.7730   45.9720 C   0  0  0  0  0  0  0  0  0  0  0  0
   57.1890   27.5330   45.9490 O   0  0  0  0  0  0  0  0  0  0  0  0
   58.6070   29.2900   46.6940 C   0  0  0  0  0  0  0  0  0  0  0  0
   58.7570   29.0710   48.0750 C   0  0  0  0  0  0  0  0  0  0  0  0
   59.8760   29.5620   48.7540 C   0  0  0  0  0  0  0  0  0  0  0  0
   60.8670   30.2760   48.0650 C   0  0  0  0  0  0  0  0  0  0  0  0
   62.0580   30.8340   48.7970 C   0  0  0  0  0  0  0  0  0  0  0  0
   61.8020   32.2130   49.1990 N   0  0  0  0  0  0  0  0  0  0  0  0
   61.8210   33.3200   48.2910 C   0  0  0  0  0  0  0  0  0  0  0  0
   62.9000   33.9320   48.0680 O   0  0  0  0  0  0  0  0  0  0  0  0
   60.5850   33.7010   47.5730 C   0  0  0  0  0  0  0  0  0  0  0  0
   60.7010   34.4430   46.3830 C   0  0  0  0  0  0  0  0  0  0  0  0
   59.5610   34.8820   45.7040 C   0  0  0  0  0  0  0  0  0  0  0  0
   58.2930   34.5860   46.2030 C   0  0  0  0  0  0  0  0  0  0  0  0
   58.1620   33.8340   47.3720 C   0  0  0  0  0  0  0  0  0  0  0  0
   59.2930   33.3700   48.0530 C   0  0  0  0  0  0  0  0  0  0  0  0
   59.0920   32.5600   49.1730 O   0  0  0  0  0  0  0  0  0  0  0  0
   60.7190   30.5020   46.6890 C   0  0  0  0  0  0  0  0  0  0  0  0
   59.6010   30.0120   46.0090 C   0  0  0  0  0  0  0  0  0  0  0  0
   55.7890   29.0670   41.5510 H   0  0  0  0  0  0  0  0  0  0  0  0
   56.3640   28.2810   43.0500 H   0  0  0  0  0  0  0  0  0  0  0  0
   57.1546   31.1213   40.8992 H   0  0  0  0  0  0  0  0  0  0  0  0
   58.1299   33.2901   41.6400 H   0  0  0  0  0  0  0  0  0  0  0  0
   58.4066   33.7730   44.0708 H   0  0  0  0  0  0  0  0  0  0  0  0
   57.6895   32.0946   45.7688 H   0  0  0  0  0  0  0  0  0  0  0  0
   57.9879   28.5090   48.6252 H   0  0  0  0  0  0  0  0  0  0  0  0
   59.9798   29.3873   49.8351 H   0  0  0  0  0  0  0  0  0  0  0  0
   62.2525   30.2248   49.6920 H   0  0  0  0  0  0  0  0  0  0  0  0
   62.9322   30.8112   48.1298 H   0  0  0  0  0  0  0  0  0  0  0  0
   61.6982   34.6797   45.9835 H   0  0  0  0  0  0  0  0  0  0  0  0
   59.6642   35.4617   44.7749 H   0  0  0  0  0  0  0  0  0  0  0  0
   57.3966   34.9447   45.6760 H   0  0  0  0  0  0  0  0  0  0  0  0
   57.1594   33.6039   47.7617 H   0  0  0  0  0  0  0  0  0  0  0  0
   59.8420   32.1050   49.6750 H   0  0  0  0  0  0  0  0  0  0  0  0
   61.4872   31.0681   46.1419 H   0  0  0  0  0  0  0  0  0  0  0  0
   59.4973   30.1924   44.9289 H   0  0  0  0  0  0  0  0  0  0  0  0
  1  2  1  0
  2  3  2  0
  3  4  1  0
  4  5  2  0
  5  6  1  0
  6  7  2  0
  7  8  1  0
  8  9  1  0
  9 10  2  0
  9 11  1  0
 11 12  2  0
 12 13  1  0
 13 14  2  0
 14 15  1  0
 15 16  1  0
 16 17  1  0
 17 18  2  0
 17 19  1  0
 19 20  2  0
 20 21  1  0
 21 22  2  0
 22 23  1  0
 23 24  2  0
 24 25  1  0
 14 26  1  0
 26 27  2  0
  7  2  1  0
 27 11  1  0
 24 19  1  0
  1 28  1  0
  1 29  1  0
  3 30  1  0
  4 31  1  0
  5 32  1  0
  6 33  1  0
 12 34  1  0
 13 35  1  0
 15 36  1  0
 15 37  1  0
 20 38  1  0
 21 39  1  0
 22 40  1  0
 23 41  1  0
 25 42  1  0
 26 43  1  0
 27 44  1  0
M  CHG  2   8  -1  16  -1
M  END
>  <UniqueID>  (69) 
63

>  <SMILES>  (69) 
Nc1ccccc1[N-]C(=O)c1ccc(C[N-]C(=O)c2ccccc2O)cc1

>  <Energy>  (69) 
54.150426782739245

>  <Genealogy>  (69) 
Nc1ccccc1[N-]C(=O)c1ccc(C[N-]C(=O)c2ccccc2O)cc1 (protonated)
Nc1ccccc1[N-]C(=O)c1ccc(C[N-]C(=O)c2ccccc2O)cc1 (3D coordinates assigned)
Nc1ccccc1[N-]C(=O)c1ccc(C[N-]C(=O)c2ccccc2O)cc1 (optimized conformer: 54.150426782739245 kcal/mol)

>  <smiles>  (69) 
Nc1ccccc1NC(=O)c1ccc(CNC(=O)c2ccccc2O)cc1

>  <score_type>  (69) 
oracle

>  <origin>  (69) 
adg

>  <m_score__min__energy>  (69) 
-11.199999999999999

>  <m_primary>  (69) 
energy

$$$$
69:0
     RDKit          3D

 78 83  0  0  0  0  0  0  0  0999 V2000
   51.7660   28.6730   52.3680 C   0  0  0  0  0  0  0  0  0  0  0  0
   52.7660   29.7390   52.0650 C   0  0  0  0  0  0  0  0  0  0  0  0
   52.5080   30.8120   51.2860 N   0  0  0  0  0  0  0  0  0  0  0  0
   53.5670   31.5700   51.3180 O   0  0  0  0  0  0  0  0  0  0  0  0
   54.4910   31.0440   52.0870 C   0  0  0  0  0  0  0  0  0  0  0  0
   55.6390   31.5880   52.3460 N   0  0  0  0  0  0  0  0  0  0  0  0
   57.1220   30.6940   52.4300 S   0  0  0  0  0  0  0  0  0  0  0  0
   57.0300   29.4300   51.6220 O   0  0  0  0  0  0  0  0  0  0  0  0
   57.3920   30.3420   53.8650 O   0  0  0  0  0  0  0  0  0  0  0  0
   58.4360   31.6780   51.7690 C   0  0  0  0  0  0  0  0  0  0  0  0
   58.2310   33.0510   51.5670 C   0  0  0  0  0  0  0  0  0  0  0  0
   59.2640   33.8590   51.0760 C   0  0  0  0  0  0  0  0  0  0  0  0
   60.5140   33.3030   50.7960 C   0  0  0  0  0  0  0  0  0  0  0  0
   60.7310   31.9390   50.9980 C   0  0  0  0  0  0  0  0  0  0  0  0
   59.6990   31.1150   51.4680 C   0  0  0  0  0  0  0  0  0  0  0  0
   59.9600   29.6750   51.6290 C   0  0  0  0  0  0  0  0  0  0  0  0
   59.7860   29.0110   52.7890 N   0  0  0  0  0  0  0  0  0  0  0  0
   60.1190   27.7480   52.5690 N   0  0  0  0  0  0  0  0  0  0  0  0
   60.4850   27.6690   51.2780 C   0  0  0  0  0  0  0  0  0  0  0  0
   60.8640   26.6020   50.7270 O   0  0  0  0  0  0  0  0  0  0  0  0
   60.4010   28.8560   50.6500 N   0  0  0  0  0  0  0  0  0  0  0  0
   60.6650   29.1580   49.2410 C   0  0  0  0  0  0  0  0  0  0  0  0
   59.9980   28.1510   48.3480 C   0  0  0  0  0  0  0  0  0  0  0  0
   60.7410   27.0900   47.8110 C   0  0  0  0  0  0  0  0  0  0  0  0
   60.1430   26.1880   46.9270 C   0  0  0  0  0  0  0  0  0  0  0  0
   58.7880   26.3280   46.5800 C   0  0  0  0  0  0  0  0  0  0  0  0
   58.1690   25.3940   45.6160 C   0  0  0  0  0  0  0  0  0  0  0  0
   57.9900   24.0550   46.0080 C   0  0  0  0  0  0  0  0  0  0  0  0
   57.4620   23.1190   45.1200 C   0  0  0  0  0  0  0  0  0  0  0  0
   57.0990   23.5090   43.8310 C   0  0  0  0  0  0  0  0  0  0  0  0
   57.2530   24.8360   43.4310 C   0  0  0  0  0  0  0  0  0  0  0  0
   57.7740   25.7950   44.3130 C   0  0  0  0  0  0  0  0  0  0  0  0
   57.8870   27.4730   43.7470 S   0  0  0  0  0  0  0  0  0  0  0  0
   57.7030   27.5300   42.2560 O   0  0  0  0  0  0  0  0  0  0  0  0
   59.2460   28.0160   44.0890 O   0  0  0  0  0  0  0  0  0  0  0  0
   56.6790   28.4720   44.4820 N   0  0  0  0  0  0  0  0  0  0  0  0
   56.6910   29.8950   44.3830 C   0  0  0  0  0  0  0  0  0  0  0  0
   55.7400   30.5740   44.8570 O   0  0  0  0  0  0  0  0  0  0  0  0
   57.7890   30.5440   43.7330 N   0  0  0  0  0  0  0  0  0  0  0  0
   57.8690   31.9950   43.5770 C   0  0  0  0  0  0  0  0  0  0  0  0
   58.2690   32.6410   44.8780 C   0  0  0  0  0  0  0  0  0  0  0  0
   58.4900   34.0260   44.9500 C   0  0  0  0  0  0  0  0  0  0  0  0
   58.8920   34.6140   46.1530 C   0  0  0  0  0  0  0  0  0  0  0  0
   59.0740   33.8240   47.2930 C   0  0  0  0  0  0  0  0  0  0  0  0
   58.8560   32.4440   47.2290 C   0  0  0  0  0  0  0  0  0  0  0  0
   58.4550   31.8530   46.0270 C   0  0  0  0  0  0  0  0  0  0  0  0
   58.0450   27.3900   47.1170 C   0  0  0  0  0  0  0  0  0  0  0  0
   58.6410   28.2880   48.0060 C   0  0  0  0  0  0  0  0  0  0  0  0
   54.0400   29.8440   52.5910 C   0  0  0  0  0  0  0  0  0  0  0  0
   54.6990   28.9520   53.5960 C   0  0  0  0  0  0  0  0  0  0  0  0
   51.6644   28.5647   53.4579 H   0  0  0  0  0  0  0  0  0  0  0  0
   50.7933   28.9489   51.9347 H   0  0  0  0  0  0  0  0  0  0  0  0
   52.1034   27.7199   51.9347 H   0  0  0  0  0  0  0  0  0  0  0  0
   57.2515   33.4962   51.7960 H   0  0  0  0  0  0  0  0  0  0  0  0
   59.0906   34.9326   50.9107 H   0  0  0  0  0  0  0  0  0  0  0  0
   61.3270   33.9394   50.4166 H   0  0  0  0  0  0  0  0  0  0  0  0
   61.7203   31.5070   50.7866 H   0  0  0  0  0  0  0  0  0  0  0  0
   60.2769   30.1605   49.0077 H   0  0  0  0  0  0  0  0  0  0  0  0
   61.7507   29.1193   49.0685 H   0  0  0  0  0  0  0  0  0  0  0  0
   61.7988   26.9672   48.0867 H   0  0  0  0  0  0  0  0  0  0  0  0
   60.7352   25.3648   46.5008 H   0  0  0  0  0  0  0  0  0  0  0  0
   58.2694   23.7434   47.0253 H   0  0  0  0  0  0  0  0  0  0  0  0
   57.3317   22.0734   45.4357 H   0  0  0  0  0  0  0  0  0  0  0  0
   56.6902   22.7680   43.1282 H   0  0  0  0  0  0  0  0  0  0  0  0
   56.9628   25.1343   42.4128 H   0  0  0  0  0  0  0  0  0  0  0  0
   58.5720   29.9570   43.3690 H   0  0  0  0  0  0  0  0  0  0  0  0
   58.6169   32.2363   42.8073 H   0  0  0  0  0  0  0  0  0  0  0  0
   56.8820   32.3770   43.2772 H   0  0  0  0  0  0  0  0  0  0  0  0
   58.3462   34.6508   44.0562 H   0  0  0  0  0  0  0  0  0  0  0  0
   59.0654   35.6991   46.2031 H   0  0  0  0  0  0  0  0  0  0  0  0
   59.3885   34.2880   48.2395 H   0  0  0  0  0  0  0  0  0  0  0  0
   59.0002   31.8229   48.1253 H   0  0  0  0  0  0  0  0  0  0  0  0
   58.2844   30.7673   45.9803 H   0  0  0  0  0  0  0  0  0  0  0  0
   56.9888   27.5162   46.8369 H   0  0  0  0  0  0  0  0  0  0  0  0
   58.0464   29.1053   48.4401 H   0  0  0  0  0  0  0  0  0  0  0  0
   54.4466   29.2936   54.6107 H   0  0  0  0  0  0  0  0  0  0  0  0
   54.3450   27.9197   53.4580 H   0  0  0  0  0  0  0  0  0  0  0  0
   55.7897   28.9871   53.4580 H   0  0  0  0  0  0  0  0  0  0  0  0
  1  2  1  0
  2  3  1  0
  3  4  1  0
  4  5  1  0
  5  6  2  3
  6  7  1  0
  7  8  2  0
  7  9  2  0
  7 10  1  0
 10 11  2  0
 11 12  1  0
 12 13  2  0
 13 14  1  0
 14 15  2  0
 15 16  1  0
 16 17  2  0
 17 18  1  0
 18 19  1  0
 19 20  2  0
 19 21  1  0
 21 22  1  0
 22 23  1  0
 23 24  2  0
 24 25  1  0
 25 26  2  0
 26 27  1  0
 27 28  2  0
 28 29  1  0
 29 30  2  0
 30 31  1  0
 31 32  2  0
 32 33  1  0
 33 34  2  0
 33 35  2  0
 33 36  1  0
 36 37  1  0
 37 38  2  0
 37 39  1  0
 39 40  1  0
 40 41  1  0
 41 42  2  0
 42 43  1  0
 43 44  2  0
 44 45  1  0
 45 46  2  0
 26 47  1  0
 47 48  2  0
  5 49  1  0
 49 50  1  0
 49  2  2  0
 15 10  1  0
 21 16  1  0
 48 23  1  0
 32 27  1  0
 46 41  1  0
  1 51  1  0
  1 52  1  0
  1 53  1  0
 11 54  1  0
 12 55  1  0
 13 56  1  0
 14 57  1  0
 22 58  1  0
 22 59  1  0
 24 60  1  0
 25 61  1  0
 28 62  1  0
 29 63  1  0
 30 64  1  0
 31 65  1  0
 39 66  1  0
 40 67  1  0
 40 68  1  0
 42 69  1  0
 43 70  1  0
 44 71  1  0
 45 72  1  0
 46 73  1  0
 47 74  1  0
 48 75  1  0
 50 76  1  0
 50 77  1  0
 50 78  1  0
M  CHG  3   3  -1  18  -1  36  -1
M  END
>  <UniqueID>  (70) 
64

>  <SMILES>  (70) 
Cc1[n-]oc(=NS(=O)(=O)c2ccccc2-c2n[n-]c(=O)n2Cc2ccc(-c3ccccc3S(=O)(=O)[N-]C(=O)NCc3ccccc3)cc2)c1C

>  <Energy>  (70) 
163.8930757686177

>  <Genealogy>  (70) 
Cc1[n-]oc(=NS(=O)(=O)c2ccccc2-c2n[n-]c(=O)n2Cc2ccc(-c3ccccc3S(=O)(=O)[N-]C(=O)NCc3ccccc3)cc2)c1C (protonated)
Cc1[n-]oc(=NS(=O)(=O)c2ccccc2-c2n[n-]c(=O)n2Cc2ccc(-c3ccccc3S(=O)(=O)[N-]C(=O)NCc3ccccc3)cc2)c1C (3D coordinates assigned)
Cc1[n-]oc(=NS(=O)(=O)c2ccccc2-c2n[n-]c(=O)n2Cc2ccc(-c3ccccc3S(=O)(=O)[N-]C(=O)NCc3ccccc3)cc2)c1C (optimized conformer: 163.8930757686177 kcal/mol)

>  <smiles>  (70) 
Cc1[nH]oc(=NS(=O)(=O)c2ccccc2-c2n[nH]c(=O)n2Cc2ccc(-c3ccccc3S(=O)(=O)NC(=O)NCc3ccccc3)cc2)c1C

>  <score_type>  (70) 
oracle

>  <origin>  (70) 
adg

>  <m_score__min__energy>  (70) 
-16.43

>  <m_primary>  (70) 
energy

$$$$
70:0
     RDKit          3D

 33 35  0  0  0  0  0  0  0  0999 V2000
   57.9050   34.4330   46.4790 N   0  0  0  0  0  0  0  0  0  0  0  0
   59.1800   34.6130   45.8690 C   0  0  0  0  0  0  0  0  0  0  0  0
   59.3760   35.5920   45.1000 O   0  0  0  0  0  0  0  0  0  0  0  0
   60.2950   33.6720   46.1810 C   0  0  0  0  0  0  0  0  0  0  0  0
   59.8720   32.7650   47.1940 O   0  0  0  0  0  0  0  0  0  0  0  0
   59.4730   31.4410   46.9570 C   0  0  0  0  0  0  0  0  0  0  0  0
   58.3350   31.1200   46.1940 C   0  0  0  0  0  0  0  0  0  0  0  0
   57.9800   29.7840   45.9850 C   0  0  0  0  0  0  0  0  0  0  0  0
   58.7530   28.7420   46.5320 C   0  0  0  0  0  0  0  0  0  0  0  0
   58.3750   27.3240   46.3110 C   0  0  0  0  0  0  0  0  0  0  0  0
   57.0650   26.9720   46.1990 N   0  0  0  0  0  0  0  0  0  0  0  0
   56.6920   25.6820   45.9960 C   0  0  0  0  0  0  0  0  0  0  0  0
   55.3350   25.3480   45.8840 C   0  0  0  0  0  0  0  0  0  0  0  0
   54.3570   26.3340   45.9800 O   0  0  0  0  0  0  0  0  0  0  0  0
   54.9580   24.0170   45.6740 C   0  0  0  0  0  0  0  0  0  0  0  0
   55.9290   23.0180   45.5760 C   0  0  0  0  0  0  0  0  0  0  0  0
   57.2850   23.3410   45.6850 C   0  0  0  0  0  0  0  0  0  0  0  0
   57.6760   24.6750   45.8960 C   0  0  0  0  0  0  0  0  0  0  0  0
   59.0220   25.0580   46.0140 C   0  0  0  0  0  0  0  0  0  0  0  0
   59.9480   24.2060   45.9340 O   0  0  0  0  0  0  0  0  0  0  0  0
   59.3340   26.3630   46.2170 N   0  0  0  0  0  0  0  0  0  0  0  0
   59.8890   29.0710   47.2930 C   0  0  0  0  0  0  0  0  0  0  0  0
   60.2420   30.4080   47.5000 C   0  0  0  0  0  0  0  0  0  0  0  0
   57.7410   33.6620   47.1620 H   0  0  0  0  0  0  0  0  0  0  0  0
   60.5673   33.1108   45.2750 H   0  0  0  0  0  0  0  0  0  0  0  0
   61.1693   34.2387   46.5337 H   0  0  0  0  0  0  0  0  0  0  0  0
   57.7221   31.9238   45.7601 H   0  0  0  0  0  0  0  0  0  0  0  0
   57.0881   29.5446   45.3874 H   0  0  0  0  0  0  0  0  0  0  0  0
   53.8929   23.7565   45.5858 H   0  0  0  0  0  0  0  0  0  0  0  0
   55.6259   21.9733   45.4125 H   0  0  0  0  0  0  0  0  0  0  0  0
   58.0463   22.5510   45.6056 H   0  0  0  0  0  0  0  0  0  0  0  0
   60.5046   28.2703   47.7288 H   0  0  0  0  0  0  0  0  0  0  0  0
   61.1342   30.6493   48.0964 H   0  0  0  0  0  0  0  0  0  0  0  0
  1  2  1  0
  2  3  2  0
  2  4  1  0
  4  5  1  0
  5  6  1  0
  6  7  2  0
  7  8  1  0
  8  9  2  0
  9 10  1  0
 10 11  2  0
 11 12  1  0
 12 13  2  0
 13 14  1  0
 13 15  1  0
 15 16  2  0
 16 17  1  0
 17 18  2  0
 18 19  1  0
 19 20  2  0
 19 21  1  0
  9 22  1  0
 22 23  2  0
 23  6  1  0
 21 10  1  0
 18 12  1  0
  1 24  1  0
  4 25  1  0
  4 26  1  0
  7 27  1  0
  8 28  1  0
 15 29  1  0
 16 30  1  0
 17 31  1  0
 22 32  1  0
 23 33  1  0
M  CHG  3   1  -1  14  -1  21  -1
M  END
>  <UniqueID>  (71) 
65

>  <SMILES>  (71) 
[NH-]C(=O)COc1ccc(-c2nc3c([O-])cccc3c(=O)[n-]2)cc1

>  <Energy>  (71) 
39.980052044620166

>  <Genealogy>  (71) 
[NH-]C(=O)COc1ccc(-c2nc3c([O-])cccc3c(=O)[n-]2)cc1 (protonated)
[NH-]C(=O)COc1ccc(-c2nc3c([O-])cccc3c(=O)[n-]2)cc1 (3D coordinates assigned)
[NH-]C(=O)COc1ccc(-c2nc3c([O-])cccc3c(=O)[n-]2)cc1 (optimized conformer: 39.980052044620166 kcal/mol)

>  <smiles>  (71) 
NC(=O)COc1ccc(-c2nc3c(O)cccc3c(=O)[nH]2)cc1

>  <score_type>  (71) 
oracle

>  <origin>  (71) 
adg

>  <m_score__min__energy>  (71) 
-12.289999999999999

>  <m_primary>  (71) 
energy

$$$$
71:0
     RDKit          3D

 44 47  0  0  0  0  0  0  0  0999 V2000
   55.6010   29.8980   44.5320 O   0  0  0  0  0  0  0  0  0  0  0  0
   56.8550   29.8530   44.6640 C   0  0  0  0  0  0  0  0  0  0  0  0
   57.5630   28.6470   44.3370 N   0  0  0  0  0  0  0  0  0  0  0  0
   57.8400   27.6220   45.0980 C   0  0  0  0  0  0  0  0  0  0  0  0
   59.1460   27.2490   45.1960 N   0  0  0  0  0  0  0  0  0  0  0  0
   59.5580   26.2100   45.9680 C   0  0  0  0  0  0  0  0  0  0  0  0
   58.6280   25.4730   46.6980 C   0  0  0  0  0  0  0  0  0  0  0  0
   57.2760   25.8000   46.6040 C   0  0  0  0  0  0  0  0  0  0  0  0
   56.8590   26.8620   45.7900 C   0  0  0  0  0  0  0  0  0  0  0  0
   55.4950   27.1070   45.6440 O   0  0  0  0  0  0  0  0  0  0  0  0
   57.5770   30.9970   45.2670 C   0  0  0  0  0  0  0  0  0  0  0  0
   58.4590   30.8010   46.3440 C   0  0  0  0  0  0  0  0  0  0  0  0
   59.1450   31.8810   46.9070 C   0  0  0  0  0  0  0  0  0  0  0  0
   58.9640   33.1730   46.4000 C   0  0  0  0  0  0  0  0  0  0  0  0
   59.8370   34.5330   47.0940 S   0  0  0  0  0  0  0  0  0  0  0  0
   59.7740   35.6950   46.1420 O   0  0  0  0  0  0  0  0  0  0  0  0
   59.2240   34.9390   48.4050 O   0  0  0  0  0  0  0  0  0  0  0  0
   61.4910   34.0890   47.3640 N   0  0  0  0  0  0  0  0  0  0  0  0
   62.4450   33.7740   46.3060 C   0  0  0  0  0  0  0  0  0  0  0  0
   63.7260   33.2810   47.0250 C   0  0  0  0  0  0  0  0  0  0  0  0
   63.3480   33.3170   48.4670 C   0  0  0  0  0  0  0  0  0  0  0  0
   64.1150   32.9390   49.5700 C   0  0  0  0  0  0  0  0  0  0  0  0
   63.5430   33.0420   50.8500 C   0  0  0  0  0  0  0  0  0  0  0  0
   62.2270   33.5200   51.0030 C   0  0  0  0  0  0  0  0  0  0  0  0
   61.4750   33.8950   49.8770 C   0  0  0  0  0  0  0  0  0  0  0  0
   62.0700   33.7820   48.6170 C   0  0  0  0  0  0  0  0  0  0  0  0
   58.0850   33.3780   45.3300 C   0  0  0  0  0  0  0  0  0  0  0  0
   57.4000   32.2990   44.7640 C   0  0  0  0  0  0  0  0  0  0  0  0
   60.6259   25.9506   46.0168 H   0  0  0  0  0  0  0  0  0  0  0  0
   58.9565   24.6430   47.3408 H   0  0  0  0  0  0  0  0  0  0  0  0
   56.5325   25.2214   47.1718 H   0  0  0  0  0  0  0  0  0  0  0  0
   55.1460   27.8410   45.0390 H   0  0  0  0  0  0  0  0  0  0  0  0
   58.6106   29.7889   46.7472 H   0  0  0  0  0  0  0  0  0  0  0  0
   59.8297   31.7149   47.7517 H   0  0  0  0  0  0  0  0  0  0  0  0
   62.0451   32.9850   45.6522 H   0  0  0  0  0  0  0  0  0  0  0  0
   62.6486   34.6489   45.6711 H   0  0  0  0  0  0  0  0  0  0  0  0
   63.9850   32.2590   46.7113 H   0  0  0  0  0  0  0  0  0  0  0  0
   64.6098   33.8949   46.7971 H   0  0  0  0  0  0  0  0  0  0  0  0
   65.1429   32.5692   49.4408 H   0  0  0  0  0  0  0  0  0  0  0  0
   64.1255   32.7481   51.7356 H   0  0  0  0  0  0  0  0  0  0  0  0
   61.7864   33.6000   52.0077 H   0  0  0  0  0  0  0  0  0  0  0  0
   60.4456   34.2676   49.9840 H   0  0  0  0  0  0  0  0  0  0  0  0
   57.9327   34.3925   44.9329 H   0  0  0  0  0  0  0  0  0  0  0  0
   56.7171   32.4692   43.9186 H   0  0  0  0  0  0  0  0  0  0  0  0
  1  2  2  0
  2  3  1  0
  3  4  2  3
  4  5  1  0
  5  6  1  0
  6  7  2  0
  7  8  1  0
  8  9  2  0
  9 10  1  0
  2 11  1  0
 11 12  2  0
 12 13  1  0
 13 14  2  0
 14 15  1  0
 15 16  2  0
 15 17  2  0
 15 18  1  0
 18 19  1  0
 19 20  1  0
 20 21  1  0
 21 22  2  0
 22 23  1  0
 23 24  2  0
 24 25  1  0
 25 26  2  0
 14 27  1  0
 27 28  2  0
  9  4  1  0
 28 11  1  0
 26 18  1  0
 26 21  1  0
  6 29  1  0
  7 30  1  0
  8 31  1  0
 10 32  1  0
 12 33  1  0
 13 34  1  0
 19 35  1  0
 19 36  1  0
 20 37  1  0
 20 38  1  0
 22 39  1  0
 23 40  1  0
 24 41  1  0
 25 42  1  0
 27 43  1  0
 28 44  1  0
M  CHG  1   5  -1
M  END
>  <UniqueID>  (72) 
66

>  <SMILES>  (72) 
O=C(N=c1[n-]cccc1O)c1ccc(S(=O)(=O)N2CCc3ccccc32)cc1

>  <Energy>  (72) 
76.62389671793107

>  <Genealogy>  (72) 
O=C(N=c1[n-]cccc1O)c1ccc(S(=O)(=O)N2CCc3ccccc32)cc1 (protonated)
O=C(N=c1[n-]cccc1O)c1ccc(S(=O)(=O)N2CCc3ccccc32)cc1 (3D coordinates assigned)
O=C(N=c1[n-]cccc1O)c1ccc(S(=O)(=O)N2CCc3ccccc32)cc1 (nonaromatic ring conformer: 76.62389671793107 kcal/mol)

>  <smiles>  (72) 
O=C(N=c1[nH]cccc1O)c1ccc(S(=O)(=O)N2CCc3ccccc32)cc1

>  <score_type>  (72) 
oracle

>  <origin>  (72) 
adg

>  <m_score__min__energy>  (72) 
-12.57

>  <m_primary>  (72) 
energy

$$$$
72:0
     RDKit          3D

 64 67  0  0  0  0  0  0  0  0999 V2000
   58.7860   34.1510   44.1230 O   0  0  0  0  0  0  0  0  0  0  0  0
   58.1350   33.8130   45.1470 C   0  0  0  0  0  0  0  0  0  0  0  0
   57.0170   32.8160   44.9860 C   0  0  0  0  0  0  0  0  0  0  0  0
   57.4880   31.4370   45.1060 N   0  0  0  0  0  0  0  0  0  0  0  0
   57.1030   30.4390   44.1500 C   0  0  0  0  0  0  0  0  0  0  0  0
   56.5860   30.7930   43.0550 O   0  0  0  0  0  0  0  0  0  0  0  0
   57.3010   28.9980   44.4280 C   0  0  0  0  0  0  0  0  0  0  0  0
   57.0310   28.4830   45.7090 C   0  0  0  0  0  0  0  0  0  0  0  0
   57.2450   27.1300   45.9890 C   0  0  0  0  0  0  0  0  0  0  0  0
   57.7500   26.2760   45.0000 C   0  0  0  0  0  0  0  0  0  0  0  0
   58.0260   24.5730   45.3640 S   0  0  0  0  0  0  0  0  0  0  0  0
   59.4230   24.3840   45.8840 O   0  0  0  0  0  0  0  0  0  0  0  0
   57.0590   24.1450   46.4310 O   0  0  0  0  0  0  0  0  0  0  0  0
   57.7830   23.6010   43.9310 N   0  0  0  0  0  0  0  0  0  0  0  0
   58.1230   22.1820   44.1780 C   0  0  0  0  0  0  0  0  0  0  0  0
   56.8690   21.3150   44.3960 C   0  0  0  0  0  0  0  0  0  0  0  0
   55.9650   21.3430   43.2980 O   0  0  0  0  0  0  0  0  0  0  0  0
   55.9700   22.5720   42.5830 C   0  0  0  0  0  0  0  0  0  0  0  0
   56.4050   23.7800   43.4310 C   0  0  0  0  0  0  0  0  0  0  0  0
   58.0250   26.7860   43.7240 C   0  0  0  0  0  0  0  0  0  0  0  0
   57.7990   28.1340   43.4360 C   0  0  0  0  0  0  0  0  0  0  0  0
   58.5150   34.3800   46.4110 N   0  0  0  0  0  0  0  0  0  0  0  0
   59.2740   33.7880   47.4760 C   0  0  0  0  0  0  0  0  0  0  0  0
   60.1350   34.5400   48.2950 C   0  0  0  0  0  0  0  0  0  0  0  0
   60.8750   33.9120   49.2990 C   0  0  0  0  0  0  0  0  0  0  0  0
   60.7940   32.5280   49.4710 C   0  0  0  0  0  0  0  0  0  0  0  0
   59.9730   31.7620   48.6340 C   0  0  0  0  0  0  0  0  0  0  0  0
   59.9240   30.0030   48.7960 S   0  0  0  0  0  0  0  0  0  0  0  0
   60.7370   29.5990   49.9940 O   0  0  0  0  0  0  0  0  0  0  0  0
   58.5030   29.5730   49.0360 O   0  0  0  0  0  0  0  0  0  0  0  0
   60.5520   29.1890   47.3850 N   0  0  0  0  0  0  0  0  0  0  0  0
   60.1430   29.8930   46.1560 C   0  0  0  0  0  0  0  0  0  0  0  0
   60.4930   29.0560   44.9080 C   0  0  0  0  0  0  0  0  0  0  0  0
   61.3570   27.9870   45.2360 O   0  0  0  0  0  0  0  0  0  0  0  0
   60.6980   27.0830   46.1080 C   0  0  0  0  0  0  0  0  0  0  0  0
   60.1030   27.7890   47.3480 C   0  0  0  0  0  0  0  0  0  0  0  0
   59.2160   32.3990   47.6390 C   0  0  0  0  0  0  0  0  0  0  0  0
   56.2615   33.0017   45.7637 H   0  0  0  0  0  0  0  0  0  0  0  0
   56.5928   32.9426   43.9790 H   0  0  0  0  0  0  0  0  0  0  0  0
   58.1680   31.1830   45.8570 H   0  0  0  0  0  0  0  0  0  0  0  0
   56.6487   29.1496   46.4961 H   0  0  0  0  0  0  0  0  0  0  0  0
   57.0160   26.7346   46.9896 H   0  0  0  0  0  0  0  0  0  0  0  0
   58.6762   21.7936   43.3102 H   0  0  0  0  0  0  0  0  0  0  0  0
   58.7312   22.1339   45.0933 H   0  0  0  0  0  0  0  0  0  0  0  0
   57.1881   20.2749   44.5585 H   0  0  0  0  0  0  0  0  0  0  0  0
   56.3364   21.7272   45.2657 H   0  0  0  0  0  0  0  0  0  0  0  0
   56.6625   22.4767   41.7337 H   0  0  0  0  0  0  0  0  0  0  0  0
   54.9350   22.7610   42.2620 H   0  0  0  0  0  0  0  0  0  0  0  0
   56.3608   24.6890   42.8131 H   0  0  0  0  0  0  0  0  0  0  0  0
   55.7263   23.8689   44.2921 H   0  0  0  0  0  0  0  0  0  0  0  0
   58.4217   26.1200   42.9436 H   0  0  0  0  0  0  0  0  0  0  0  0
   58.0115   28.5217   42.4287 H   0  0  0  0  0  0  0  0  0  0  0  0
   60.2258   35.6258   48.1443 H   0  0  0  0  0  0  0  0  0  0  0  0
   61.5239   34.5091   49.9566 H   0  0  0  0  0  0  0  0  0  0  0  0
   61.3764   32.0388   50.2657 H   0  0  0  0  0  0  0  0  0  0  0  0
   59.0569   30.0653   46.1826 H   0  0  0  0  0  0  0  0  0  0  0  0
   60.6795   30.8518   46.1016 H   0  0  0  0  0  0  0  0  0  0  0  0
   59.5662   28.6492   44.4772 H   0  0  0  0  0  0  0  0  0  0  0  0
   61.0039   29.7073   44.1836 H   0  0  0  0  0  0  0  0  0  0  0  0
   59.8832   26.5908   45.5567 H   0  0  0  0  0  0  0  0  0  0  0  0
   61.4426   26.3546   46.4616 H   0  0  0  0  0  0  0  0  0  0  0  0
   59.0047   27.7586   47.2941 H   0  0  0  0  0  0  0  0  0  0  0  0
   60.4428   27.2735   48.2584 H   0  0  0  0  0  0  0  0  0  0  0  0
   58.5700   31.8004   46.9800 H   0  0  0  0  0  0  0  0  0  0  0  0
  1  2  2  0
  2  3  1  0
  3  4  1  0
  4  5  1  0
  5  6  2  0
  5  7  1  0
  7  8  2  0
  8  9  1  0
  9 10  2  0
 10 11  1  0
 11 12  2  0
 11 13  2  0
 11 14  1  0
 14 15  1  0
 15 16  1  0
 16 17  1  0
 17 18  1  0
 18 19  1  0
 10 20  1  0
 20 21  2  0
  2 22  1  0
 22 23  1  0
 23 24  2  0
 24 25  1  0
 25 26  2  0
 26 27  1  0
 27 28  1  0
 28 29  2  0
 28 30  2  0
 28 31  1  0
 31 32  1  0
 32 33  1  0
 33 34  1  0
 34 35  1  0
 35 36  1  0
 27 37  2  0
 21  7  1  0
 37 23  1  0
 19 14  1  0
 36 31  1  0
  3 38  1  0
  3 39  1  0
  4 40  1  0
  8 41  1  0
  9 42  1  0
 15 43  1  0
 15 44  1  0
 16 45  1  0
 16 46  1  0
 18 47  1  0
 18 48  1  0
 19 49  1  0
 19 50  1  0
 20 51  1  0
 21 52  1  0
 24 53  1  0
 25 54  1  0
 26 55  1  0
 32 56  1  0
 32 57  1  0
 33 58  1  0
 33 59  1  0
 35 60  1  0
 35 61  1  0
 36 62  1  0
 36 63  1  0
 37 64  1  0
M  CHG  1  22  -1
M  END
>  <UniqueID>  (73) 
67

>  <SMILES>  (73) 
O=C(CNC(=O)c1ccc(S(=O)(=O)N2CCOCC2)cc1)[N-]c1cccc(S(=O)(=O)N2CCOCC2)c1

>  <Energy>  (73) 
85.32380791310482

>  <Genealogy>  (73) 
O=C(CNC(=O)c1ccc(S(=O)(=O)N2CCOCC2)cc1)[N-]c1cccc(S(=O)(=O)N2CCOCC2)c1 (protonated)
O=C(CNC(=O)c1ccc(S(=O)(=O)N2CCOCC2)cc1)[N-]c1cccc(S(=O)(=O)N2CCOCC2)c1 (3D coordinates assigned)
O=C(CNC(=O)c1ccc(S(=O)(=O)N2CCOCC2)cc1)[N-]c1cccc(S(=O)(=O)N2CCOCC2)c1 (nonaromatic ring conformer: 85.32380791310482 kcal/mol)

>  <smiles>  (73) 
O=C(CNC(=O)c1ccc(S(=O)(=O)N2CCOCC2)cc1)Nc1cccc(S(=O)(=O)N2CCOCC2)c1

>  <score_type>  (73) 
oracle

>  <origin>  (73) 
adg

>  <m_score__min__energy>  (73) 
-13.140000000000001

>  <m_primary>  (73) 
energy

$$$$
73:0
     RDKit          3D

 51 52  0  0  1  0  0  0  0  0999 V2000
   57.4500   34.1210   45.6090 C   0  0  0  0  0  0  0  0  0  0  0  0
   58.4290   33.1040   45.2010 N   0  0  0  0  0  0  0  0  0  0  0  0
   58.2010   31.8440   45.3920 C   0  0  0  0  0  0  0  0  0  0  0  0
   58.7900   31.1970   46.4000 N   0  0  0  0  0  0  0  0  0  0  0  0
   58.5600   29.8640   46.6770 C   0  0  0  0  0  0  0  0  0  0  0  0
   59.1840   29.3050   47.7850 N   0  0  0  0  0  0  0  0  0  0  0  0
   60.0900   29.8160   48.7440 C   0  0  0  0  0  0  0  0  0  0  0  0
   59.8170   29.5380   50.1790 C   0  0  0  0  0  0  0  0  0  0  0  0
   59.8450   30.8370   51.0090 C   0  0  0  0  0  0  0  0  0  0  0  0
   58.7690   31.7190   50.6250 N   0  0  0  0  0  0  0  0  0  0  0  0
   57.4860   31.5880   51.3320 C   0  0  0  0  0  0  0  0  0  0  0  0
   58.8290   32.6780   49.6110 C   0  0  0  0  0  0  0  0  0  0  0  0
   58.1380   32.5870   48.5320 O   0  0  0  0  0  0  0  0  0  0  0  0
   59.6950   33.8980   49.6660 C   0  0  0  0  0  0  0  0  0  0  0  0
   60.8480   33.7290   48.7260 C   0  0  0  0  0  0  0  0  0  0  0  0
   62.0060   33.1930   49.2870 C   0  0  0  0  0  0  0  0  0  0  0  0
   63.1160   32.9680   48.5030 C   0  0  0  0  0  0  0  0  0  0  0  0
   63.0180   33.2930   47.1630 C   0  0  0  0  0  0  0  0  0  0  0  0
   64.1580   33.0510   46.3930 O   0  0  0  0  0  0  0  0  0  0  0  0
   61.8720   33.8200   46.6170 C   0  0  0  0  0  0  0  0  0  0  0  0
   60.7520   34.0530   47.3910 C   0  0  0  0  0  0  0  0  0  0  0  0
   57.6730   29.2600   45.8300 C   0  0  0  0  0  0  0  0  0  0  0  0
   57.2510   27.9080   45.9560 N   0  0  0  0  0  0  0  0  0  0  0  0
   57.9730   26.9730   46.3320 O   0  0  0  0  0  0  0  0  0  0  0  0
   55.9470   27.5250   45.6030 O   0  0  0  0  0  0  0  0  0  0  0  0
   57.0650   29.9580   44.7770 C   0  0  0  0  0  0  0  0  0  0  0  0
   56.2350   29.3940   43.9710 N   0  0  0  0  0  0  0  0  0  0  0  0
   57.3300   31.2560   44.5580 N   0  0  0  0  0  0  0  0  0  0  0  0
   57.4054   34.1673   46.7071 H   0  0  0  0  0  0  0  0  0  0  0  0
   57.7529   35.1014   45.2127 H   0  0  0  0  0  0  0  0  0  0  0  0
   56.4588   33.8556   45.2127 H   0  0  0  0  0  0  0  0  0  0  0  0
   59.4570   31.7500   46.9940 H   0  0  0  0  0  0  0  0  0  0  0  0
   58.9300   28.2560   47.9570 H   0  0  0  0  0  0  0  0  0  0  0  0
   61.0812   29.3988   48.5127 H   0  0  0  0  0  0  0  0  0  0  0  0
   59.9992   30.9085   48.6534 H   0  0  0  0  0  0  0  0  0  0  0  0
   58.8247   29.0727   50.2727 H   0  0  0  0  0  0  0  0  0  0  0  0
   60.5972   28.8624   50.5595 H   0  0  0  0  0  0  0  0  0  0  0  0
   59.7410   30.5853   52.0748 H   0  0  0  0  0  0  0  0  0  0  0  0
   60.8009   31.3496   50.8258 H   0  0  0  0  0  0  0  0  0  0  0  0
   57.6621   31.6060   52.4177 H   0  0  0  0  0  0  0  0  0  0  0  0
   56.8269   32.4235   51.0536 H   0  0  0  0  0  0  0  0  0  0  0  0
   57.0094   30.6365   51.0536 H   0  0  0  0  0  0  0  0  0  0  0  0
   59.1069   34.7797   49.3714 H   0  0  0  0  0  0  0  0  0  0  0  0
   60.0717   34.0367   50.6901 H   0  0  0  0  0  0  0  0  0  0  0  0
   62.0335   32.9489   50.3592 H   0  0  0  0  0  0  0  0  0  0  0  0
   64.0408   32.5477   48.9251 H   0  0  0  0  0  0  0  0  0  0  0  0
   64.8620   32.4570   46.8370 H   0  0  0  0  0  0  0  0  0  0  0  0
   61.8463   34.0606   45.5439 H   0  0  0  0  0  0  0  0  0  0  0  0
   59.8309   34.4755   46.9631 H   0  0  0  0  0  0  0  0  0  0  0  0
   56.2460   28.3580   43.7870 H   0  0  0  0  0  0  0  0  0  0  0  0
   56.8810   31.7710   43.7840 H   0  0  0  0  0  0  0  0  0  0  0  0
  1  2  1  0
  2  3  2  0
  3  4  1  0
  4  5  1  0
  5  6  1  0
  6  7  1  0
  7  8  1  0
  8  9  1  0
  9 10  1  0
 10 11  1  0
 10 12  1  0
 12 13  2  0
 12 14  1  0
 14 15  1  0
 15 16  2  0
 16 17  1  0
 17 18  2  0
 18 19  1  0
 18 20  1  0
 20 21  2  0
  5 22  2  0
 22 23  1  0
 23 24  2  0
 23 25  1  0
 22 26  1  0
 26 27  2  3
 26 28  1  0
 28  3  1  0
 21 15  1  0
  1 29  1  0
  1 30  1  0
  1 31  1  0
  4 32  1  0
  6 33  1  0
  7 34  1  0
  7 35  1  0
  8 36  1  0
  8 37  1  0
  9 38  1  0
  9 39  1  0
 11 40  1  0
 11 41  1  0
 11 42  1  0
 14 43  1  0
 14 44  1  0
 16 45  1  0
 17 46  1  0
 19 47  1  0
 20 48  1  0
 21 49  1  0
 27 50  1  0
 28 51  1  0
M  CHG  2  23   1  25  -1
M  END
>  <smiles>  (74) 
CN=c1[nH]c(NCCCN(C)C(=O)Cc2ccc(O)cc2)c([N+](=O)[O-])c(=N)[nH]1

>  <score_type>  (74) 
oracle

>  <origin>  (74) 
adg

>  <m_score__min__energy>  (74) 
-6.8799999999999999

>  <m_primary>  (74) 
energy

$$$$
74:0
     RDKit          3D

 38 40  0  0  0  0  0  0  0  0999 V2000
   55.3100   26.3580   46.0150 N   0  0  0  0  0  0  0  0  0  0  0  0
   56.7710   25.4510   46.2180 S   0  0  0  0  0  0  0  0  0  0  0  0
   56.5100   24.3180   47.1720 O   0  0  0  0  0  0  0  0  0  0  0  0
   57.1720   24.8930   44.8800 O   0  0  0  0  0  0  0  0  0  0  0  0
   58.0890   26.4500   46.8520 C   0  0  0  0  0  0  0  0  0  0  0  0
   57.7960   27.6830   47.4830 C   0  0  0  0  0  0  0  0  0  0  0  0
   58.8590   28.4440   47.9570 C   0  0  0  0  0  0  0  0  0  0  0  0
   58.8050   29.6400   48.5610 N   0  0  0  0  0  0  0  0  0  0  0  0
   60.1170   29.9140   48.7820 C   0  0  0  0  0  0  0  0  0  0  0  0
   60.6670   31.4290   49.5650 S   0  0  0  0  0  0  0  0  0  0  0  0
   61.4530   32.1010   48.0620 C   0  0  0  0  0  0  0  0  0  0  0  0
   60.6580   33.2640   47.5350 C   0  0  0  0  0  0  0  0  0  0  0  0
   60.3650   34.2070   48.3160 O   0  0  0  0  0  0  0  0  0  0  0  0
   60.1020   33.2620   46.2140 N   0  0  0  0  0  0  0  0  0  0  0  0
   59.0720   32.3890   45.7320 C   0  0  0  0  0  0  0  0  0  0  0  0
   59.2730   31.0050   45.7870 C   0  0  0  0  0  0  0  0  0  0  0  0
   58.2760   30.1260   45.3540 C   0  0  0  0  0  0  0  0  0  0  0  0
   57.0490   30.6210   44.8740 C   0  0  0  0  0  0  0  0  0  0  0  0
   56.0000   29.6910   44.4030 C   0  0  0  0  0  0  0  0  0  0  0  0
   55.5220   28.8190   45.1770 O   0  0  0  0  0  0  0  0  0  0  0  0
   55.5170   29.7730   43.1010 O   0  0  0  0  0  0  0  0  0  0  0  0
   56.8380   32.0120   44.8540 C   0  0  0  0  0  0  0  0  0  0  0  0
   57.8360   32.8880   45.2930 C   0  0  0  0  0  0  0  0  0  0  0  0
   60.9790   28.9540   48.3570 N   0  0  0  0  0  0  0  0  0  0  0  0
   60.1500   28.0370   47.8370 C   0  0  0  0  0  0  0  0  0  0  0  0
   60.4880   26.8310   47.2340 C   0  0  0  0  0  0  0  0  0  0  0  0
   59.4460   26.0260   46.7340 C   0  0  0  0  0  0  0  0  0  0  0  0
   59.8760   24.4970   45.9740 Cl  0  0  0  0  0  0  0  0  0  0  0  0
   55.2710   26.6720   45.0180 H   0  0  0  0  0  0  0  0  0  0  0  0
   55.3810   27.2110   46.6140 H   0  0  0  0  0  0  0  0  0  0  0  0
   56.7578   28.0289   47.5951 H   0  0  0  0  0  0  0  0  0  0  0  0
   62.4718   32.4375   48.3043 H   0  0  0  0  0  0  0  0  0  0  0  0
   61.4897   31.3143   47.2941 H   0  0  0  0  0  0  0  0  0  0  0  0
   60.2224   30.6061   46.1737 H   0  0  0  0  0  0  0  0  0  0  0  0
   58.4515   29.0406   45.3886 H   0  0  0  0  0  0  0  0  0  0  0  0
   55.8807   32.4136   44.4903 H   0  0  0  0  0  0  0  0  0  0  0  0
   57.6514   33.9724   45.2942 H   0  0  0  0  0  0  0  0  0  0  0  0
   61.5382   26.5147   47.1498 H   0  0  0  0  0  0  0  0  0  0  0  0
  1  2  1  0
  2  3  2  0
  2  4  2  0
  2  5  1  0
  5  6  2  0
  6  7  1  0
  7  8  1  0
  8  9  2  0
  9 10  1  0
 10 11  1  0
 11 12  1  0
 12 13  2  0
 12 14  1  0
 14 15  1  0
 15 16  2  0
 16 17  1  0
 17 18  2  0
 18 19  1  0
 19 20  2  0
 19 21  1  0
 18 22  1  0
 22 23  2  0
  9 24  1  0
 24 25  1  0
 25 26  1  0
 26 27  2  0
 27 28  1  0
 27  5  1  0
 25  7  2  0
 23 15  1  0
  1 29  1  0
  1 30  1  0
  6 31  1  0
 11 32  1  0
 11 33  1  0
 16 34  1  0
 17 35  1  0
 22 36  1  0
 23 37  1  0
 26 38  1  0
M  CHG  3  14  -1  21  -1  24  -1
M  END
>  <UniqueID>  (75) 
68

>  <SMILES>  (75) 
NS(=O)(=O)c1cc2nc(SCC(=O)[N-]c3ccc(C(=O)[O-])cc3)[n-]c2cc1Cl

>  <Energy>  (75) 
78.40798622110931

>  <Genealogy>  (75) 
NS(=O)(=O)c1cc2nc(SCC(=O)[N-]c3ccc(C(=O)[O-])cc3)[n-]c2cc1Cl (protonated)
NS(=O)(=O)c1cc2nc(SCC(=O)[N-]c3ccc(C(=O)[O-])cc3)[n-]c2cc1Cl (3D coordinates assigned)
NS(=O)(=O)c1cc2nc(SCC(=O)[N-]c3ccc(C(=O)[O-])cc3)[n-]c2cc1Cl (optimized conformer: 78.40798622110931 kcal/mol)

>  <smiles>  (75) 
NS(=O)(=O)c1cc2nc(SCC(=O)Nc3ccc(C(=O)O)cc3)[nH]c2cc1Cl

>  <score_type>  (75) 
oracle

>  <origin>  (75) 
adg

>  <m_score__min__energy>  (75) 
-12.49

>  <m_primary>  (75) 
energy

$$$$
75:0
     RDKit          3D

 45 47  0  0  0  0  0  0  0  0999 V2000
   59.1330   32.7440   50.2900 C   0  0  0  0  0  0  0  0  0  0  0  0
   58.9620   32.3030   48.9480 O   0  0  0  0  0  0  0  0  0  0  0  0
   59.0630   33.1270   47.8160 C   0  0  0  0  0  0  0  0  0  0  0  0
   59.2900   34.5130   47.9250 C   0  0  0  0  0  0  0  0  0  0  0  0
   59.3320   35.3140   46.7810 C   0  0  0  0  0  0  0  0  0  0  0  0
   59.1410   34.7460   45.5200 C   0  0  0  0  0  0  0  0  0  0  0  0
   58.9220   33.3730   45.3980 C   0  0  0  0  0  0  0  0  0  0  0  0
   58.9050   32.5530   46.5360 C   0  0  0  0  0  0  0  0  0  0  0  0
   58.6750   31.1450   46.3760 N   0  0  0  0  0  0  0  0  0  0  0  0
   57.7810   30.6120   45.3890 C   0  0  0  0  0  0  0  0  0  0  0  0
   56.9230   31.3560   44.8390 O   0  0  0  0  0  0  0  0  0  0  0  0
   57.8740   29.1730   44.9850 C   0  0  0  0  0  0  0  0  0  0  0  0
   58.2170   28.3060   46.2030 C   0  0  0  0  0  0  0  0  0  0  0  0
   59.6270   28.4410   46.5770 N   0  0  0  0  0  0  0  0  0  0  0  0
   59.8310   28.8400   48.2630 S   0  0  0  0  0  0  0  0  0  0  0  0
   58.5210   29.3420   48.8030 O   0  0  0  0  0  0  0  0  0  0  0  0
   60.2060   27.6000   49.0250 O   0  0  0  0  0  0  0  0  0  0  0  0
   61.0570   30.0850   48.5140 C   0  0  0  0  0  0  0  0  0  0  0  0
   61.6290   30.2770   49.8000 C   0  0  0  0  0  0  0  0  0  0  0  0
   62.6660   31.2100   49.9930 C   0  0  0  0  0  0  0  0  0  0  0  0
   63.0900   31.9280   48.8780 C   0  0  0  0  0  0  0  0  0  0  0  0
   62.5480   31.7480   47.6450 C   0  0  0  0  0  0  0  0  0  0  0  0
   61.5260   30.8350   47.4130 C   0  0  0  0  0  0  0  0  0  0  0  0
   63.2040   32.5240   46.7620 N   0  0  0  0  0  0  0  0  0  0  0  0
   64.1320   33.1700   47.4680 N   0  0  0  0  0  0  0  0  0  0  0  0
   64.0740   32.8300   48.7530 N   0  0  0  0  0  0  0  0  0  0  0  0
   64.9940   33.2990   49.7800 C   0  0  0  0  0  0  0  0  0  0  0  0
   58.8234   31.9457   50.9806 H   0  0  0  0  0  0  0  0  0  0  0  0
   60.1913   32.9889   50.4634 H   0  0  0  0  0  0  0  0  0  0  0  0
   58.5165   33.6383   50.4634 H   0  0  0  0  0  0  0  0  0  0  0  0
   59.4350   34.9672   48.9163 H   0  0  0  0  0  0  0  0  0  0  0  0
   59.5160   36.3945   46.8740 H   0  0  0  0  0  0  0  0  0  0  0  0
   59.1631   35.3810   44.6221 H   0  0  0  0  0  0  0  0  0  0  0  0
   58.7618   32.9312   44.4034 H   0  0  0  0  0  0  0  0  0  0  0  0
   59.1120   30.4870   47.0590 H   0  0  0  0  0  0  0  0  0  0  0  0
   56.9092   28.8490   44.5676 H   0  0  0  0  0  0  0  0  0  0  0  0
   58.6648   29.0612   44.2286 H   0  0  0  0  0  0  0  0  0  0  0  0
   57.5905   28.6177   47.0517 H   0  0  0  0  0  0  0  0  0  0  0  0
   58.0277   27.2541   45.9427 H   0  0  0  0  0  0  0  0  0  0  0  0
   61.2581   29.6909   50.6538 H   0  0  0  0  0  0  0  0  0  0  0  0
   63.1215   31.3649   50.9822 H   0  0  0  0  0  0  0  0  0  0  0  0
   61.0981   30.7015   46.4085 H   0  0  0  0  0  0  0  0  0  0  0  0
   64.5741   33.0849   50.7739 H   0  0  0  0  0  0  0  0  0  0  0  0
   65.9593   32.7830   49.6709 H   0  0  0  0  0  0  0  0  0  0  0  0
   65.1435   34.3833   49.6709 H   0  0  0  0  0  0  0  0  0  0  0  0
  1  2  1  0
  2  3  1  0
  3  4  2  0
  4  5  1  0
  5  6  2  0
  6  7  1  0
  7  8  2  0
  8  9  1  0
  9 10  1  0
 10 11  2  0
 10 12  1  0
 12 13  1  0
 13 14  1  0
 14 15  1  0
 15 16  2  0
 15 17  2  0
 15 18  1  0
 18 19  2  0
 19 20  1  0
 20 21  2  0
 21 22  1  0
 22 23  2  0
 22 24  1  0
 24 25  2  0
 25 26  1  0
 26 27  1  0
  8  3  1  0
 23 18  1  0
 26 21  1  0
  1 28  1  0
  1 29  1  0
  1 30  1  0
  4 31  1  0
  5 32  1  0
  6 33  1  0
  7 34  1  0
  9 35  1  0
 12 36  1  0
 12 37  1  0
 13 38  1  0
 13 39  1  0
 19 40  1  0
 20 41  1  0
 23 42  1  0
 27 43  1  0
 27 44  1  0
 27 45  1  0
M  CHG  1  14  -1
M  END
>  <UniqueID>  (76) 
69

>  <SMILES>  (76) 
COc1ccccc1NC(=O)CC[N-]S(=O)(=O)c1ccc2c(c1)nnn2C

>  <Energy>  (76) 
89.99859638029554

>  <Genealogy>  (76) 
COc1ccccc1NC(=O)CC[N-]S(=O)(=O)c1ccc2c(c1)nnn2C (protonated)
COc1ccccc1NC(=O)CC[N-]S(=O)(=O)c1ccc2c(c1)nnn2C (3D coordinates assigned)
COc1ccccc1NC(=O)CC[N-]S(=O)(=O)c1ccc2c(c1)nnn2C (optimized conformer: 89.99859638029554 kcal/mol)

>  <smiles>  (76) 
COc1ccccc1NC(=O)CCNS(=O)(=O)c1ccc2c(c1)nnn2C

>  <score_type>  (76) 
oracle

>  <origin>  (76) 
adg

>  <m_score__min__energy>  (76) 
-9.3000000000000007

>  <m_primary>  (76) 
energy

$$$$
76:0
     RDKit          3D

 38 40  0  0  0  0  0  0  0  0999 V2000
   61.0000   30.8690   47.4380 O   0  0  0  0  0  0  0  0  0  0  0  0
   60.2160   30.4840   46.5300 C   0  0  0  0  0  0  0  0  0  0  0  0
   59.0840   31.2830   46.1610 N   0  0  0  0  0  0  0  0  0  0  0  0
   58.1350   30.9940   45.1250 C   0  0  0  0  0  0  0  0  0  0  0  0
   58.3350   31.5560   43.8570 C   0  0  0  0  0  0  0  0  0  0  0  0
   57.4460   31.2840   42.8130 C   0  0  0  0  0  0  0  0  0  0  0  0
   56.3570   30.4340   43.0240 C   0  0  0  0  0  0  0  0  0  0  0  0
   56.1610   29.8440   44.2800 C   0  0  0  0  0  0  0  0  0  0  0  0
   55.0910   28.9790   44.4980 O   0  0  0  0  0  0  0  0  0  0  0  0
   57.0510   30.1190   45.3250 C   0  0  0  0  0  0  0  0  0  0  0  0
   60.5360   29.2970   45.7970 N   0  0  0  0  0  0  0  0  0  0  0  0
   59.6130   28.2710   45.4060 C   0  0  0  0  0  0  0  0  0  0  0  0
   59.2160   28.1010   44.0680 C   0  0  0  0  0  0  0  0  0  0  0  0
   58.2960   27.1060   43.7290 C   0  0  0  0  0  0  0  0  0  0  0  0
   57.7530   26.2850   44.7200 C   0  0  0  0  0  0  0  0  0  0  0  0
   58.1240   26.4560   46.0630 C   0  0  0  0  0  0  0  0  0  0  0  0
   57.5040   25.6030   47.1390 C   0  0  0  0  0  0  0  0  0  0  0  0
   56.3440   24.8070   46.5830 C   0  0  0  0  0  0  0  0  0  0  0  0
   55.2150   25.4480   46.0430 C   0  0  0  0  0  0  0  0  0  0  0  0
   55.1500   26.8360   45.9730 O   0  0  0  0  0  0  0  0  0  0  0  0
   54.1720   24.7130   45.5810 N   0  0  0  0  0  0  0  0  0  0  0  0
   54.1900   23.3580   45.6310 C   0  0  0  0  0  0  0  0  0  0  0  0
   53.2100   22.6990   45.1950 O   0  0  0  0  0  0  0  0  0  0  0  0
   55.2640   22.7120   46.1510 N   0  0  0  0  0  0  0  0  0  0  0  0
   56.3340   23.3990   46.6270 C   0  0  0  0  0  0  0  0  0  0  0  0
   57.3100   22.7620   47.1050 O   0  0  0  0  0  0  0  0  0  0  0  0
   59.0460   27.4620   46.3980 C   0  0  0  0  0  0  0  0  0  0  0  0
   59.1976   32.2158   43.6819 H   0  0  0  0  0  0  0  0  0  0  0  0
   57.6038   31.7396   41.8243 H   0  0  0  0  0  0  0  0  0  0  0  0
   55.6534   30.2280   42.2039 H   0  0  0  0  0  0  0  0  0  0  0  0
   55.1520   28.2190   45.1650 H   0  0  0  0  0  0  0  0  0  0  0  0
   56.9022   29.6485   46.3081 H   0  0  0  0  0  0  0  0  0  0  0  0
   59.6311   28.7535   43.2857 H   0  0  0  0  0  0  0  0  0  0  0  0
   57.9984   26.9687   42.6790 H   0  0  0  0  0  0  0  0  0  0  0  0
   57.0314   25.5010   44.4468 H   0  0  0  0  0  0  0  0  0  0  0  0
   58.2621   24.9103   47.5333 H   0  0  0  0  0  0  0  0  0  0  0  0
   57.1334   26.2575   47.9417 H   0  0  0  0  0  0  0  0  0  0  0  0
   59.3253   27.6155   47.4508 H   0  0  0  0  0  0  0  0  0  0  0  0
  1  2  2  0
  2  3  1  0
  3  4  1  0
  4  5  2  0
  5  6  1  0
  6  7  2  0
  7  8  1  0
  8  9  1  0
  8 10  2  0
  2 11  1  0
 11 12  1  0
 12 13  2  0
 13 14  1  0
 14 15  2  0
 15 16  1  0
 16 17  1  0
 17 18  1  0
 18 19  2  0
 19 20  1  0
 19 21  1  0
 21 22  1  0
 22 23  2  0
 22 24  1  0
 24 25  1  0
 25 26  2  0
 16 27  2  0
 10  4  1  0
 27 12  1  0
 25 18  1  0
  5 28  1  0
  6 29  1  0
  7 30  1  0
  9 31  1  0
 10 32  1  0
 13 33  1  0
 14 34  1  0
 15 35  1  0
 17 36  1  0
 17 37  1  0
 27 38  1  0
M  CHG  5   3  -1  11  -1  20  -1  21  -1  24  -1
M  END
>  <UniqueID>  (77) 
70

>  <SMILES>  (77) 
O=C([N-]c1cccc(O)c1)[N-]c1cccc(Cc2c([O-])[n-]c(=O)[n-]c2=O)c1

>  <Energy>  (77) 
49.011061446247496

>  <Genealogy>  (77) 
O=C([N-]c1cccc(O)c1)[N-]c1cccc(Cc2c([O-])[n-]c(=O)[n-]c2=O)c1 (protonated)
O=C([N-]c1cccc(O)c1)[N-]c1cccc(Cc2c([O-])[n-]c(=O)[n-]c2=O)c1 (3D coordinates assigned)
O=C([N-]c1cccc(O)c1)[N-]c1cccc(Cc2c([O-])[n-]c(=O)[n-]c2=O)c1 (optimized conformer: 49.011061446247496 kcal/mol)

>  <smiles>  (77) 
O=C(Nc1cccc(O)c1)Nc1cccc(Cc2c(O)[nH]c(=O)[nH]c2=O)c1

>  <score_type>  (77) 
oracle

>  <origin>  (77) 
adg

>  <m_score__min__energy>  (77) 
-17.300000000000001

>  <m_primary>  (77) 
energy

$$$$
77:0
     RDKit          3D

 36 37  0  0  0  0  0  0  0  0999 V2000
   60.2820   21.8310   44.9560 N   0  0  0  0  0  0  0  0  0  0  0  0
   58.9020   22.2470   44.8990 C   0  0  0  0  0  0  0  0  0  0  0  0
   58.0420   21.7700   43.9220 C   0  0  0  0  0  0  0  0  0  0  0  0
   56.7360   22.2090   43.9290 C   0  0  0  0  0  0  0  0  0  0  0  0
   55.9530   21.7670   43.0300 O   0  0  0  0  0  0  0  0  0  0  0  0
   56.2750   23.0880   44.8570 N   0  0  0  0  0  0  0  0  0  0  0  0
   57.1360   23.5280   45.7860 C   0  0  0  0  0  0  0  0  0  0  0  0
   56.6590   24.6880   47.0650 S   0  0  0  0  0  0  0  0  0  0  0  0
   57.5590   26.2560   46.8680 C   0  0  0  0  0  0  0  0  0  0  0  0
   56.7850   27.0630   45.8710 C   0  0  0  0  0  0  0  0  0  0  0  0
   55.5500   26.8540   45.6760 O   0  0  0  0  0  0  0  0  0  0  0  0
   57.5060   28.0660   45.1630 N   0  0  0  0  0  0  0  0  0  0  0  0
   58.9230   27.8750   44.9530 C   0  0  0  0  0  0  0  0  0  0  0  0
   59.6430   29.1120   44.5510 C   0  0  0  0  0  0  0  0  0  0  0  0
   59.0410   30.3330   45.2370 C   0  0  0  0  0  0  0  0  0  0  0  0
   58.2660   31.0790   44.1500 C   0  0  0  0  0  0  0  0  0  0  0  0
   57.0220   30.3170   43.8530 C   0  0  0  0  0  0  0  0  0  0  0  0
   56.7160   29.1910   44.7230 C   0  0  0  0  0  0  0  0  0  0  0  0
   55.5350   29.1400   45.2180 O   0  0  0  0  0  0  0  0  0  0  0  0
   58.4380   23.1190   45.8160 N   0  0  0  0  0  0  0  0  0  0  0  0
   60.9700   22.6080   45.0330 H   0  0  0  0  0  0  0  0  0  0  0  0
   60.5380   20.8150   44.9200 H   0  0  0  0  0  0  0  0  0  0  0  0
   58.3935   21.0587   43.1601 H   0  0  0  0  0  0  0  0  0  0  0  0
   55.2890   23.4220   44.8650 H   0  0  0  0  0  0  0  0  0  0  0  0
   57.6123   26.7879   47.8294 H   0  0  0  0  0  0  0  0  0  0  0  0
   58.5911   26.0845   46.5285 H   0  0  0  0  0  0  0  0  0  0  0  0
   59.3655   27.5053   45.8897 H   0  0  0  0  0  0  0  0  0  0  0  0
   59.0301   27.1590   44.1248 H   0  0  0  0  0  0  0  0  0  0  0  0
   60.7015   29.0226   44.8366 H   0  0  0  0  0  0  0  0  0  0  0  0
   59.5507   29.2368   43.4620 H   0  0  0  0  0  0  0  0  0  0  0  0
   58.3638   30.0230   46.0465 H   0  0  0  0  0  0  0  0  0  0  0  0
   59.8169   30.9675   45.6901 H   0  0  0  0  0  0  0  0  0  0  0  0
   58.0080   32.0881   44.5038 H   0  0  0  0  0  0  0  0  0  0  0  0
   58.8802   31.1687   43.2419 H   0  0  0  0  0  0  0  0  0  0  0  0
   56.1789   31.0211   43.9118 H   0  0  0  0  0  0  0  0  0  0  0  0
   57.1868   29.8751   42.8592 H   0  0  0  0  0  0  0  0  0  0  0  0
  1  2  1  0
  2  3  2  0
  3  4  1  0
  4  5  2  0
  4  6  1  0
  6  7  1  0
  7  8  1  0
  8  9  1  0
  9 10  1  0
 10 11  2  0
 10 12  1  0
 12 13  1  0
 13 14  1  0
 14 15  1  0
 15 16  1  0
 16 17  1  0
 17 18  1  0
 18 19  2  0
  7 20  2  0
 20  2  1  0
 18 12  1  0
  1 21  1  0
  1 22  1  0
  3 23  1  0
  6 24  1  0
  9 25  1  0
  9 26  1  0
 13 27  1  0
 13 28  1  0
 14 29  1  0
 14 30  1  0
 15 31  1  0
 15 32  1  0
 16 33  1  0
 16 34  1  0
 17 35  1  0
 17 36  1  0
M  END
>  <smiles>  (78) 
Nc1cc(=O)[nH]c(SCC(=O)N2CCCCCC2=O)n1

>  <score_type>  (78) 
oracle

>  <origin>  (78) 
adg

>  <m_score__min__energy>  (78) 
-4.9500000000000002

>  <m_primary>  (78) 
energy

$$$$
78:0
     RDKit          3D

 54 56  0  0  0  0  0  0  0  0999 V2000
   63.5120   33.4500   46.9930 C   0  0  0  0  0  0  0  0  0  0  0  0
   62.0070   33.2160   46.8750 C   0  0  0  0  0  0  0  0  0  0  0  0
   61.3580   33.1580   48.2020 N   0  0  0  0  0  0  0  0  0  0  0  0
   61.2750   31.8270   48.8560 C   0  0  0  0  0  0  0  0  0  0  0  0
   60.4300   30.8170   48.1230 C   0  0  0  0  0  0  0  0  0  0  0  0
   60.7000   30.2140   46.9140 C   0  0  0  0  0  0  0  0  0  0  0  0
   59.6870   29.3570   46.6800 N   0  0  0  0  0  0  0  0  0  0  0  0
   59.5440   28.4420   45.5380 C   0  0  2  0  0  0  0  0  0  0  0  0
   58.9400   29.1530   44.3490 C   0  0  0  0  0  0  0  0  0  0  0  0
   57.6180   29.4020   44.3150 C   0  0  0  0  0  0  0  0  0  0  0  0
   57.0170   30.1530   43.1500 C   0  0  0  0  0  0  0  0  0  0  0  0
   55.8760   29.4830   42.6850 O   0  0  0  0  0  0  0  0  0  0  0  0
   56.7820   29.0470   45.5340 C   0  0  1  0  0  0  0  0  0  0  0  0
   55.4120   29.1170   45.2290 O   0  0  0  0  0  0  0  0  0  0  0  0
   57.1540   27.6480   46.1200 C   0  0  1  0  0  0  0  0  0  0  0  0
   56.2990   26.6570   45.6000 O   0  0  0  0  0  0  0  0  0  0  0  0
   58.6450   27.2320   45.8840 C   0  0  1  0  0  0  0  0  0  0  0  0
   58.7390   26.3010   44.8300 O   0  0  0  0  0  0  0  0  0  0  0  0
   58.8790   29.3820   47.7300 N   0  0  0  0  0  0  0  0  0  0  0  0
   59.3080   30.2610   48.6240 N   0  0  0  0  0  0  0  0  0  0  0  0
   60.1600   34.0170   48.3390 C   0  0  0  0  0  0  0  0  0  0  0  0
   59.2680   34.0400   47.1130 C   0  0  0  0  0  0  0  0  0  0  0  0
   59.6230   34.8490   46.0180 C   0  0  0  0  0  0  0  0  0  0  0  0
   58.8190   34.8950   44.8770 C   0  0  0  0  0  0  0  0  0  0  0  0
   57.6670   34.1110   44.8010 C   0  0  0  0  0  0  0  0  0  0  0  0
   57.3280   33.2660   45.8600 C   0  0  0  0  0  0  0  0  0  0  0  0
   58.1240   33.2170   47.0130 C   0  0  0  0  0  0  0  0  0  0  0  0
   57.7900   32.3400   48.0430 O   0  0  0  0  0  0  0  0  0  0  0  0
   63.7941   33.4939   48.0553 H   0  0  0  0  0  0  0  0  0  0  0  0
   64.0508   32.6248   46.5043 H   0  0  0  0  0  0  0  0  0  0  0  0
   63.7748   34.3998   46.5043 H   0  0  0  0  0  0  0  0  0  0  0  0
   61.5624   34.0390   46.2962 H   0  0  0  0  0  0  0  0  0  0  0  0
   61.8480   32.2505   46.3725 H   0  0  0  0  0  0  0  0  0  0  0  0
   62.2946   31.4231   48.9417 H   0  0  0  0  0  0  0  0  0  0  0  0
   60.7905   31.9891   49.8302 H   0  0  0  0  0  0  0  0  0  0  0  0
   61.5709   30.3963   46.2673 H   0  0  0  0  0  0  0  0  0  0  0  0
   60.5558   28.0866   45.2933 H   0  0  0  0  0  0  0  0  0  0  0  0
   59.5807   29.4668   43.5118 H   0  0  0  0  0  0  0  0  0  0  0  0
   56.7375   31.1661   43.4748 H   0  0  0  0  0  0  0  0  0  0  0  0
   57.7569   30.2124   42.3382 H   0  0  0  0  0  0  0  0  0  0  0  0
   55.8320   28.6250   43.1820 H   0  0  0  0  0  0  0  0  0  0  0  0
   57.0083   29.7890   46.3139 H   0  0  0  0  0  0  0  0  0  0  0  0
   55.1420   28.2160   44.9110 H   0  0  0  0  0  0  0  0  0  0  0  0
   57.0240   27.7374   47.2086 H   0  0  0  0  0  0  0  0  0  0  0  0
   56.5600   26.5070   44.6530 H   0  0  0  0  0  0  0  0  0  0  0  0
   58.9946   26.7868   46.8272 H   0  0  0  0  0  0  0  0  0  0  0  0
   58.0180   25.6300   44.9680 H   0  0  0  0  0  0  0  0  0  0  0  0
   59.5675   33.6495   49.1898 H   0  0  0  0  0  0  0  0  0  0  0  0
   60.5232   35.0450   48.4849 H   0  0  0  0  0  0  0  0  0  0  0  0
   60.5426   35.4510   46.0610 H   0  0  0  0  0  0  0  0  0  0  0  0
   59.0941   35.5500   44.0372 H   0  0  0  0  0  0  0  0  0  0  0  0
   57.0266   34.1585   43.9079 H   0  0  0  0  0  0  0  0  0  0  0  0
   56.4302   32.6345   45.7889 H   0  0  0  0  0  0  0  0  0  0  0  0
   58.1460   31.3920   48.0720 H   0  0  0  0  0  0  0  0  0  0  0  0
  1  2  1  0
  2  3  1  0
  3  4  1  0
  4  5  1  0
  5  6  2  0
  6  7  1  0
  7  8  1  0
  8  9  1  0
  9 10  2  0
 10 11  1  0
 11 12  1  0
 10 13  1  0
 13 14  1  0
 13 15  1  0
 15 16  1  0
 15 17  1  0
 17 18  1  0
  7 19  1  0
 19 20  2  0
  3 21  1  0
 21 22  1  0
 22 23  2  0
 23 24  1  0
 24 25  2  0
 25 26  1  0
 26 27  2  0
 27 28  1  0
 20  5  1  0
 27 22  1  0
 17  8  1  0
  1 29  1  0
  1 30  1  0
  1 31  1  0
  2 32  1  0
  2 33  1  0
  4 34  1  0
  4 35  1  0
  6 36  1  0
  8 37  1  6
  9 38  1  0
 11 39  1  0
 11 40  1  0
 12 41  1  0
 13 42  1  1
 14 43  1  0
 15 44  1  1
 16 45  1  0
 17 46  1  1
 18 47  1  0
 21 48  1  0
 21 49  1  0
 23 50  1  0
 24 51  1  0
 25 52  1  0
 26 53  1  0
 28 54  1  0
M  END
>  <UniqueID>  (79) 
71

>  <SMILES>  (79) 
CCN(Cc1cn([C@@H]2C=C(CO)[C@@H](O)C(O)C2O)nn1)Cc1ccccc1O

>  <Energy>  (79) 
101.98824175208117

>  <Genealogy>  (79) 
CCN(Cc1cn([C@@H]2C=C(CO)[C@@H](O)C(O)C2O)nn1)Cc1ccccc1O (chirality)
CCN(Cc1cn([C@@H]2C=C(CO)[C@@H](O)C(O)C2O)nn1)Cc1ccccc1O (3D coordinates assigned)
CCN(Cc1cn([C@@H]2C=C(CO)[C@@H](O)C(O)C2O)nn1)Cc1ccccc1O (nonaromatic ring conformer: 101.98824175208117 kcal/mol)

>  <smiles>  (79) 
CCN(Cc1cn(C2C=C(CO)C(O)C(O)C2O)nn1)Cc1ccccc1O

>  <score_type>  (79) 
oracle

>  <origin>  (79) 
adg

>  <m_score__min__energy>  (79) 
-8.7799999999999994

>  <m_primary>  (79) 
energy

$$$$
79:0
     RDKit          3D

 57 61  0  0  0  0  0  0  0  0999 V2000
   56.9720   34.1040   45.9880 N   0  0  0  0  0  0  0  0  0  0  0  0
   57.9160   33.8430   44.9070 C   0  0  0  0  0  0  0  0  0  0  0  0
   57.5000   32.6200   44.1550 C   0  0  0  0  0  0  0  0  0  0  0  0
   58.0450   32.1720   42.9670 C   0  0  0  0  0  0  0  0  0  0  0  0
   57.3650   31.0150   42.6550 C   0  0  0  0  0  0  0  0  0  0  0  0
   56.4630   30.8230   43.6850 C   0  0  0  0  0  0  0  0  0  0  0  0
   55.5050   29.6820   43.8120 C   0  0  0  0  0  0  0  0  0  0  0  0
   55.6000   29.0320   45.1160 N   0  0  0  0  0  0  0  0  0  0  0  0
   56.6670   28.2070   45.6120 C   0  0  0  0  0  0  0  0  0  0  0  0
   56.4410   26.9760   45.7530 O   0  0  0  0  0  0  0  0  0  0  0  0
   58.0290   28.7640   45.9830 C   0  0  2  0  0  0  0  0  0  0  0  0
   59.1060   28.3870   44.9400 C   0  0  0  0  0  0  0  0  0  0  0  0
   60.5490   28.7200   45.3870 C   0  0  0  0  0  0  0  0  0  0  0  0
   60.6040   29.5040   46.7030 C   0  0  0  0  0  0  0  0  0  0  0  0
   59.8070   28.8160   47.7280 N   0  0  0  0  0  0  0  0  0  0  0  0
   60.4650   28.2880   48.8910 C   0  0  0  0  0  0  0  0  0  0  0  0
   60.5650   26.9320   49.0420 N   0  0  0  0  0  0  0  0  0  0  0  0
   61.0650   26.3710   50.1830 C   0  0  0  0  0  0  0  0  0  0  0  0
   61.4710   27.1560   51.2150 N   0  0  0  0  0  0  0  0  0  0  0  0
   61.3940   28.5000   51.0860 C   0  0  0  0  0  0  0  0  0  0  0  0
   61.8260   29.6290   52.2410 S   0  0  0  0  0  0  0  0  0  0  0  0
   61.4340   30.9620   51.2840 C   0  0  0  0  0  0  0  0  0  0  0  0
   60.9710   30.5270   50.0370 C   0  0  0  0  0  0  0  0  0  0  0  0
   60.6820   31.4890   48.9590 C   0  0  0  0  0  0  0  0  0  0  0  0
   61.7330   32.0300   48.2010 C   0  0  0  0  0  0  0  0  0  0  0  0
   61.4630   32.9070   47.1470 C   0  0  0  0  0  0  0  0  0  0  0  0
   60.1420   33.2330   46.8300 C   0  0  0  0  0  0  0  0  0  0  0  0
   59.0890   32.6870   47.5700 C   0  0  0  0  0  0  0  0  0  0  0  0
   59.3560   31.8100   48.6250 C   0  0  0  0  0  0  0  0  0  0  0  0
   60.9240   29.1150   49.9380 C   0  0  0  0  0  0  0  0  0  0  0  0
   58.4750   28.2940   47.3850 C   0  0  0  0  0  0  0  0  0  0  0  0
   56.5680   31.7920   44.5640 O   0  0  0  0  0  0  0  0  0  0  0  0
   56.2850   34.8130   45.6460 H   0  0  0  0  0  0  0  0  0  0  0  0
   56.4290   33.2270   46.1670 H   0  0  0  0  0  0  0  0  0  0  0  0
   57.9343   34.7039   44.2225 H   0  0  0  0  0  0  0  0  0  0  0  0
   58.9186   33.6849   45.3310 H   0  0  0  0  0  0  0  0  0  0  0  0
   58.8547   32.6420   42.3895 H   0  0  0  0  0  0  0  0  0  0  0  0
   57.5096   30.3770   41.7707 H   0  0  0  0  0  0  0  0  0  0  0  0
   54.4811   30.0610   43.6776 H   0  0  0  0  0  0  0  0  0  0  0  0
   55.7576   28.9383   43.0419 H   0  0  0  0  0  0  0  0  0  0  0  0
   57.9238   29.8589   45.9966 H   0  0  0  0  0  0  0  0  0  0  0  0
   59.0422   27.3053   44.7505 H   0  0  0  0  0  0  0  0  0  0  0  0
   58.9031   28.9840   44.0387 H   0  0  0  0  0  0  0  0  0  0  0  0
   61.1016   27.7778   45.5172 H   0  0  0  0  0  0  0  0  0  0  0  0
   60.9960   29.3547   44.6077 H   0  0  0  0  0  0  0  0  0  0  0  0
   61.6483   29.5769   47.0409 H   0  0  0  0  0  0  0  0  0  0  0  0
   60.1945   30.5121   46.5417 H   0  0  0  0  0  0  0  0  0  0  0  0
   60.2240   26.3000   48.2850 H   0  0  0  0  0  0  0  0  0  0  0  0
   61.1393   25.2767   50.2667 H   0  0  0  0  0  0  0  0  0  0  0  0
   61.5281   32.0134   51.5932 H   0  0  0  0  0  0  0  0  0  0  0  0
   62.7733   31.7623   48.4379 H   0  0  0  0  0  0  0  0  0  0  0  0
   62.2908   33.3407   46.5668 H   0  0  0  0  0  0  0  0  0  0  0  0
   59.9302   33.9199   45.9974 H   0  0  0  0  0  0  0  0  0  0  0  0
   58.0496   32.9478   47.3217 H   0  0  0  0  0  0  0  0  0  0  0  0
   58.5250   31.3697   49.1956 H   0  0  0  0  0  0  0  0  0  0  0  0
   58.5066   27.1946   47.4005 H   0  0  0  0  0  0  0  0  0  0  0  0
   57.7536   28.6744   48.1232 H   0  0  0  0  0  0  0  0  0  0  0  0
  1  2  1  0
  2  3  1  0
  3  4  2  0
  4  5  1  0
  5  6  2  0
  6  7  1  0
  7  8  1  0
  8  9  1  0
  9 10  2  0
  9 11  1  0
 11 12  1  0
 12 13  1  0
 13 14  1  0
 14 15  1  0
 15 16  1  0
 16 17  2  0
 17 18  1  0
 18 19  2  0
 19 20  1  0
 20 21  1  0
 21 22  1  0
 22 23  2  0
 23 24  1  0
 24 25  2  0
 25 26  1  0
 26 27  2  0
 27 28  1  0
 28 29  2  0
 23 30  1  0
 15 31  1  0
  6 32  1  0
 32  3  1  0
 31 11  1  0
 30 16  1  0
 30 20  2  0
 29 24  1  0
  1 33  1  0
  1 34  1  0
  2 35  1  0
  2 36  1  0
  4 37  1  0
  5 38  1  0
  7 39  1  0
  7 40  1  0
 11 41  1  1
 12 42  1  0
 12 43  1  0
 13 44  1  0
 13 45  1  0
 14 46  1  0
 14 47  1  0
 17 48  1  0
 18 49  1  0
 22 50  1  0
 25 51  1  0
 26 52  1  0
 27 53  1  0
 28 54  1  0
 29 55  1  0
 31 56  1  0
 31 57  1  0
M  CHG  2   8  -1  17   1
M  END
>  <UniqueID>  (80) 
72

>  <SMILES>  (80) 
NCc1ccc(C[N-]C(=O)[C@@H]2CCCN(c3[nH+]cnc4scc(-c5ccccc5)c34)C2)o1

>  <Energy>  (80) 
128.7901798647188

>  <Genealogy>  (80) 
NCc1ccc(C[N-]C(=O)C2CCCN(c3[nH+]cnc4scc(-c5ccccc5)c34)C2)o1 (protonated)
NCc1ccc(C[N-]C(=O)[C@@H]2CCCN(c3[nH+]cnc4scc(-c5ccccc5)c34)C2)o1 (chirality)
NCc1ccc(C[N-]C(=O)[C@@H]2CCCN(c3[nH+]cnc4scc(-c5ccccc5)c34)C2)o1 (3D coordinates assigned)
NCc1ccc(C[N-]C(=O)[C@@H]2CCCN(c3[nH+]cnc4scc(-c5ccccc5)c34)C2)o1 (nonaromatic ring conformer: 128.7901798647188 kcal/mol)

>  <smiles>  (80) 
NCc1ccc(CNC(=O)C2CCCN(c3ncnc4scc(-c5ccccc5)c34)C2)o1

>  <score_type>  (80) 
oracle

>  <origin>  (80) 
adg

>  <m_score__min__energy>  (80) 
-10.75

>  <m_primary>  (80) 
energy

$$$$
80:0
     RDKit          3D

 43 45  0  0  0  0  0  0  0  0999 V2000
   54.4260   24.3980   46.2870 O   0  0  0  0  0  0  0  0  0  0  0  0
   55.5070   25.0420   46.2140 C   0  0  0  0  0  0  0  0  0  0  0  0
   56.8110   24.3200   46.3430 C   0  0  0  0  0  0  0  0  0  0  0  0
   56.9500   23.3100   45.2340 C   0  0  0  0  0  0  0  0  0  0  0  0
   56.4350   23.6000   43.9580 C   0  0  0  0  0  0  0  0  0  0  0  0
   56.5270   22.6580   42.9290 C   0  0  0  0  0  0  0  0  0  0  0  0
   57.1240   21.4170   43.1660 C   0  0  0  0  0  0  0  0  0  0  0  0
   57.6260   21.1150   44.4340 C   0  0  0  0  0  0  0  0  0  0  0  0
   57.5370   22.0510   45.4690 C   0  0  0  0  0  0  0  0  0  0  0  0
   58.0300   21.7230   46.7280 O   0  0  0  0  0  0  0  0  0  0  0  0
   55.5050   26.4620   46.0210 N   0  0  0  0  0  0  0  0  0  0  0  0
   56.6450   27.2830   45.7260 C   0  0  0  0  0  0  0  0  0  0  0  0
   57.9530   26.8690   46.0320 C   0  0  0  0  0  0  0  0  0  0  0  0
   59.0380   27.7030   45.7570 C   0  0  0  0  0  0  0  0  0  0  0  0
   58.8310   28.9600   45.1880 C   0  0  0  0  0  0  0  0  0  0  0  0
   57.5320   29.4000   44.9000 C   0  0  0  0  0  0  0  0  0  0  0  0
   57.2690   30.9940   44.1920 S   0  0  0  0  0  0  0  0  0  0  0  0
   57.0310   30.8400   42.7160 O   0  0  0  0  0  0  0  0  0  0  0  0
   56.0730   31.6490   44.8270 O   0  0  0  0  0  0  0  0  0  0  0  0
   58.6770   31.9670   44.4760 N   0  0  0  0  0  0  0  0  0  0  0  0
   58.7920   32.8230   45.4440 C   0  0  0  0  0  0  0  0  0  0  0  0
   59.8390   33.8700   45.5540 C   0  0  0  0  0  0  0  0  0  0  0  0
   59.4840   34.5980   46.8590 C   0  0  0  0  0  0  0  0  0  0  0  0
   58.2560   33.8900   47.4630 C   0  0  0  0  0  0  0  0  0  0  0  0
   57.8950   32.8420   46.5320 N   0  0  0  0  0  0  0  0  0  0  0  0
   56.4380   28.5590   45.1770 C   0  0  0  0  0  0  0  0  0  0  0  0
   55.1420   28.9850   44.9020 O   0  0  0  0  0  0  0  0  0  0  0  0
   57.6365   25.0444   46.2821 H   0  0  0  0  0  0  0  0  0  0  0  0
   56.8428   23.8004   47.3120 H   0  0  0  0  0  0  0  0  0  0  0  0
   55.9575   24.5727   43.7686 H   0  0  0  0  0  0  0  0  0  0  0  0
   56.1288   22.8941   41.9312 H   0  0  0  0  0  0  0  0  0  0  0  0
   57.1986   20.6783   42.3544 H   0  0  0  0  0  0  0  0  0  0  0  0
   58.0934   20.1366   44.6192 H   0  0  0  0  0  0  0  0  0  0  0  0
   58.1223   25.8834   46.4902 H   0  0  0  0  0  0  0  0  0  0  0  0
   60.0596   27.3681   45.9897 H   0  0  0  0  0  0  0  0  0  0  0  0
   59.6910   29.6084   44.9645 H   0  0  0  0  0  0  0  0  0  0  0  0
   60.8406   33.4193   45.6154 H   0  0  0  0  0  0  0  0  0  0  0  0
   59.8660   34.5414   44.6831 H   0  0  0  0  0  0  0  0  0  0  0  0
   60.3300   34.5467   47.5601 H   0  0  0  0  0  0  0  0  0  0  0  0
   59.2641   35.6581   46.6646 H   0  0  0  0  0  0  0  0  0  0  0  0
   58.5082   33.4590   48.4431 H   0  0  0  0  0  0  0  0  0  0  0  0
   57.4240   34.5928   47.6174 H   0  0  0  0  0  0  0  0  0  0  0  0
   57.0920   32.1850   46.6560 H   0  0  0  0  0  0  0  0  0  0  0  0
  1  2  2  0
  2  3  1  0
  3  4  1  0
  4  5  2  0
  5  6  1  0
  6  7  2  0
  7  8  1  0
  8  9  2  0
  9 10  1  0
  2 11  1  0
 11 12  1  0
 12 13  2  0
 13 14  1  0
 14 15  2  0
 15 16  1  0
 16 17  1  0
 17 18  2  0
 17 19  2  0
 17 20  1  0
 20 21  2  3
 21 22  1  0
 22 23  1  0
 23 24  1  0
 24 25  1  0
 16 26  2  0
 26 27  1  0
  9  4  1  0
 26 12  1  0
 25 21  1  0
  3 28  1  0
  3 29  1  0
  5 30  1  0
  6 31  1  0
  7 32  1  0
  8 33  1  0
 13 34  1  0
 14 35  1  0
 15 36  1  0
 22 37  1  0
 22 38  1  0
 23 39  1  0
 23 40  1  0
 24 41  1  0
 24 42  1  0
 25 43  1  0
M  CHG  3  10  -1  11  -1  27  -1
M  END
>  <UniqueID>  (81) 
73

>  <SMILES>  (81) 
O=C(Cc1ccccc1[O-])[N-]c1cccc(S(=O)(=O)N=C2CCCN2)c1[O-]

>  <Energy>  (81) 
56.77756102379125

>  <Genealogy>  (81) 
O=C(Cc1ccccc1[O-])[N-]c1cccc(S(=O)(=O)N=C2CCCN2)c1[O-] (protonated)
O=C(Cc1ccccc1[O-])[N-]c1cccc(S(=O)(=O)N=C2CCCN2)c1[O-] (3D coordinates assigned)
O=C(Cc1ccccc1[O-])[N-]c1cccc(S(=O)(=O)N=C2CCCN2)c1[O-] (nonaromatic ring conformer: 56.77756102379125 kcal/mol)

>  <smiles>  (81) 
O=C(Cc1ccccc1O)Nc1cccc(S(=O)(=O)N=C2CCCN2)c1O

>  <score_type>  (81) 
oracle

>  <origin>  (81) 
adg

>  <m_score__min__energy>  (81) 
-16.93

>  <m_primary>  (81) 
energy

$$$$
81:0
     RDKit          3D

 40 42  0  0  0  0  0  0  0  0999 V2000
   61.0463   29.9703   47.0183 H   0  0  0  0  0  0  0  0  0  0  0  0
   60.2770   29.7990   46.2510 C   0  0  0  0  0  0  0  0  0  0  0  0
   60.1451   28.7961   45.8187 H   0  0  0  0  0  0  0  0  0  0  0  0
   59.4990   30.8140   45.8420 C   0  0  0  0  0  0  0  0  0  0  0  0
   58.4750   30.7750   44.8790 C   0  0  0  0  0  0  0  0  0  0  0  0
   57.8950   29.7360   44.2470 C   0  0  0  0  0  0  0  0  0  0  0  0
   57.7195   29.8393   43.1660 H   0  0  0  0  0  0  0  0  0  0  0  0
   57.4750   28.4710   44.8810 C   0  0  0  0  0  0  0  0  0  0  0  0
   56.1350   28.2440   45.2400 C   0  0  0  0  0  0  0  0  0  0  0  0
   55.1700   29.2240   45.0370 O   0  0  0  0  0  0  0  0  0  0  0  0
   55.7720   27.0550   45.7850 N   0  0  0  0  0  0  0  0  0  0  0  0
   56.6820   26.0660   45.9780 C   0  0  0  0  0  0  0  0  0  0  0  0
   56.2160   24.6470   46.6370 S   0  0  0  0  0  0  0  0  0  0  0  0
   57.9760   26.2500   45.6130 N   0  0  0  0  0  0  0  0  0  0  0  0
   58.3900   27.4220   45.0640 C   0  0  0  0  0  0  0  0  0  0  0  0
   59.5980   27.5580   44.7310 O   0  0  0  0  0  0  0  0  0  0  0  0
   58.0960   32.0900   44.6620 C   0  0  0  0  0  0  0  0  0  0  0  0
   57.3441   32.4449   43.9418 H   0  0  0  0  0  0  0  0  0  0  0  0
   58.8420   32.8690   45.5220 C   0  0  0  0  0  0  0  0  0  0  0  0
   58.7580   34.3610   45.6220 C   0  0  0  0  0  0  0  0  0  0  0  0
   58.7413   34.6571   46.6813 H   0  0  0  0  0  0  0  0  0  0  0  0
   59.6322   34.8113   45.1291 H   0  0  0  0  0  0  0  0  0  0  0  0
   57.8388   34.7104   45.1291 H   0  0  0  0  0  0  0  0  0  0  0  0
   59.6860   32.0980   46.2390 N   0  0  0  0  0  0  0  0  0  0  0  0
   60.6400   32.5770   47.2030 C   0  0  0  0  0  0  0  0  0  0  0  0
   61.9690   32.7770   46.8120 C   0  0  0  0  0  0  0  0  0  0  0  0
   62.2676   32.5786   45.7721 H   0  0  0  0  0  0  0  0  0  0  0  0
   62.9180   33.2260   47.7310 C   0  0  0  0  0  0  0  0  0  0  0  0
   63.9593   33.3781   47.4107 H   0  0  0  0  0  0  0  0  0  0  0  0
   62.5530   33.4850   49.0620 C   0  0  0  0  0  0  0  0  0  0  0  0
   63.5640   33.9530   50.0360 C   0  0  0  0  0  0  0  0  0  0  0  0
   64.7160   33.4430   50.0590 O   0  0  0  0  0  0  0  0  0  0  0  0
   63.2560   34.9650   50.9390 O   0  0  0  0  0  0  0  0  0  0  0  0
   61.2150   33.2920   49.4530 C   0  0  0  0  0  0  0  0  0  0  0  0
   60.9206   33.4852   50.4951 H   0  0  0  0  0  0  0  0  0  0  0  0
   60.2510   32.8560   48.5300 C   0  0  0  0  0  0  0  0  0  0  0  0
   58.8290   32.6540   48.9760 C   0  0  0  0  0  0  0  0  0  0  0  0
   58.7868   32.6480   50.0752 H   0  0  0  0  0  0  0  0  0  0  0  0
   58.2037   33.4723   48.5895 H   0  0  0  0  0  0  0  0  0  0  0  0
   58.4564   31.6939   48.5895 H   0  0  0  0  0  0  0  0  0  0  0  0
  1  2  1  0
  2  3  1  0
  2  4  2  0
  4  5  1  0
  5  6  2  0
  6  7  1  0
  6  8  1  0
  8  9  2  0
  9 10  1  0
  9 11  1  0
 11 12  1  0
 12 13  2  0
 12 14  1  0
 14 15  1  0
 15 16  2  0
  5 17  1  0
 17 18  1  0
 17 19  2  0
 19 20  1  0
 20 21  1  0
 20 22  1  0
 20 23  1  0
 19 24  1  0
 24 25  1  0
 25 26  2  0
 26 27  1  0
 26 28  1  0
 28 29  1  0
 28 30  2  0
 30 31  1  0
 31 32  2  0
 31 33  1  0
 30 34  1  0
 34 35  1  0
 34 36  2  0
 36 37  1  0
 37 38  1  0
 37 39  1  0
 37 40  1  0
 24  4  1  0
 36 25  1  0
 15  8  1  0
M  CHG  4  10  -1  11  -1  14  -1  33  -1
M  END
>  <UniqueID>  (82) 
74

>  <SMILES>  (82) 
C=c1/c(=C\c2c([O-])[n-]c(=S)[n-]c2=O)cc(C)n1-c1ccc(C(=O)[O-])cc1C

>  <Energy>  (82) 
91.3796778959809

>  <Genealogy>  (82) 
C=c1c(=Cc2c([O-])[n-]c(=S)[n-]c2=O)cc(C)n1-c1ccc(C(=O)[O-])cc1C (protonated)
C=c1/c(=C\c2c([O-])[n-]c(=S)[n-]c2=O)cc(C)n1-c1ccc(C(=O)[O-])cc1C (cis-trans isomerization)
C=c1/c(=C\c2c([O-])[n-]c(=S)[n-]c2=O)cc(C)n1-c1ccc(C(=O)[O-])cc1C (3D coordinates assigned)
C=c1/c(=C\c2c([O-])[n-]c(=S)[n-]c2=O)cc(C)n1-c1ccc(C(=O)[O-])cc1C (optimized conformer: 91.3796778959809 kcal/mol)

>  <smiles>  (82) 
C=c1c(=Cc2c(O)[nH]c(=S)[nH]c2=O)cc(C)n1-c1ccc(C(=O)O)cc1C

>  <score_type>  (82) 
oracle

>  <origin>  (82) 
adg

>  <m_score__min__energy>  (82) 
-15.470000000000001

>  <m_primary>  (82) 
energy

$$$$
82:0
     RDKit          3D

 27 27  0  0  0  0  0  0  0  0999 V2000
   55.1190   28.1020   44.8830 H   0  0  0  0  0  0  0  0  0  0  0  0
   55.1810   29.1110   44.9100 O   0  0  0  0  0  0  0  0  0  0  0  0
   56.3820   29.7920   44.9340 N   0  0  0  0  0  0  0  0  0  0  0  0
   57.5590   29.2510   44.7860 C   0  0  0  0  0  0  0  0  0  0  0  0
   58.7000   30.1380   44.4830 C   0  0  0  0  0  0  0  0  0  0  0  0
   59.8780   29.7720   44.7450 O   0  0  0  0  0  0  0  0  0  0  0  0
   58.4660   31.4150   43.8800 N   0  0  0  0  0  0  0  0  0  0  0  0
   57.5580   32.4150   44.4300 C   0  0  0  0  0  0  0  0  0  0  0  0
   57.1905   33.0579   43.6166 H   0  0  0  0  0  0  0  0  0  0  0  0
   56.7143   31.9035   44.9163 H   0  0  0  0  0  0  0  0  0  0  0  0
   58.2700   33.2620   45.4490 C   0  0  0  0  0  0  0  0  0  0  0  0
   58.2080   32.9400   46.8160 C   0  0  0  0  0  0  0  0  0  0  0  0
   57.6495   32.0515   47.1457 H   0  0  0  0  0  0  0  0  0  0  0  0
   58.8550   33.7470   47.7580 C   0  0  0  0  0  0  0  0  0  0  0  0
   58.8068   33.4903   48.8265 H   0  0  0  0  0  0  0  0  0  0  0  0
   59.5620   34.8780   47.3440 C   0  0  0  0  0  0  0  0  0  0  0  0
   60.0708   35.5099   48.0868 H   0  0  0  0  0  0  0  0  0  0  0  0
   59.6240   35.2080   45.9880 C   0  0  0  0  0  0  0  0  0  0  0  0
   60.1809   36.0995   45.6640 H   0  0  0  0  0  0  0  0  0  0  0  0
   58.9780   34.4050   45.0420 C   0  0  0  0  0  0  0  0  0  0  0  0
   59.0246   34.6696   43.9753 H   0  0  0  0  0  0  0  0  0  0  0  0
   57.7680   27.7550   44.8640 C   0  0  0  0  0  0  0  0  0  0  0  0
   58.8354   27.5473   45.0298 H   0  0  0  0  0  0  0  0  0  0  0  0
   57.4341   27.3006   43.9195 H   0  0  0  0  0  0  0  0  0  0  0  0
   56.9730   27.1700   45.9880 C   0  0  0  0  0  0  0  0  0  0  0  0
   57.5230   26.9330   47.0960 O   0  0  0  0  0  0  0  0  0  0  0  0
   55.6270   26.8740   45.8130 O   0  0  0  0  0  0  0  0  0  0  0  0
  1  2  1  0
  2  3  1  0
  3  4  2  0
  4  5  1  0
  5  6  2  0
  5  7  1  0
  7  8  1  0
  8  9  1  0
  8 10  1  0
  8 11  1  0
 11 12  2  0
 12 13  1  0
 12 14  1  0
 14 15  1  0
 14 16  2  0
 16 17  1  0
 16 18  1  0
 18 19  1  0
 18 20  2  0
 20 21  1  0
  4 22  1  0
 22 23  1  0
 22 24  1  0
 22 25  1  0
 25 26  2  0
 25 27  1  0
 20 11  1  0
M  CHG  2   7  -1  27  -1
M  END
>  <UniqueID>  (83) 
75

>  <SMILES>  (83) 
O=C([O-])C/C(=N\O)C(=O)[N-]Cc1ccccc1

>  <Energy>  (83) 
23.0014953672023

>  <Genealogy>  (83) 
O=C([O-])CC(=NO)C(=O)[N-]Cc1ccccc1 (protonated)
O=C([O-])C/C(=N\O)C(=O)[N-]Cc1ccccc1 (cis-trans isomerization)
O=C([O-])C/C(=N\O)C(=O)[N-]Cc1ccccc1 (3D coordinates assigned)
O=C([O-])C/C(=N\O)C(=O)[N-]Cc1ccccc1 (optimized conformer: 23.0014953672023 kcal/mol)

>  <smiles>  (83) 
O=C(O)CC(=NO)C(=O)NCc1ccccc1

>  <score_type>  (83) 
oracle

>  <origin>  (83) 
adg

>  <m_score__min__energy>  (83) 
-11.25

>  <m_primary>  (83) 
energy

$$$$
83:0
     RDKit          3D

 41 43  0  0  0  0  0  0  0  0999 V2000
   58.8720   32.0690   49.3200 C   0  0  0  0  0  0  0  0  0  0  0  0
   58.8040   33.3090   48.6230 O   0  0  0  0  0  0  0  0  0  0  0  0
   58.6590   33.4290   47.2340 C   0  0  0  0  0  0  0  0  0  0  0  0
   59.0480   34.6300   46.6260 C   0  0  0  0  0  0  0  0  0  0  0  0
   58.9210   34.7980   45.2450 C   0  0  0  0  0  0  0  0  0  0  0  0
   58.4060   33.7680   44.4570 C   0  0  0  0  0  0  0  0  0  0  0  0
   58.0160   32.5590   45.0470 C   0  0  0  0  0  0  0  0  0  0  0  0
   57.3810   31.2580   44.0440 S   0  0  0  0  0  0  0  0  0  0  0  0
   56.0080   30.8520   44.5040 O   0  0  0  0  0  0  0  0  0  0  0  0
   57.2970   31.7400   42.6230 O   0  0  0  0  0  0  0  0  0  0  0  0
   58.4360   29.8790   44.1140 N   0  0  0  0  0  0  0  0  0  0  0  0
   58.1380   28.6970   44.5710 C   0  0  0  0  0  0  0  0  0  0  0  0
   58.1060   27.5510   43.7500 C   0  0  0  0  0  0  0  0  0  0  0  0
   57.7650   26.3170   44.3050 C   0  0  0  0  0  0  0  0  0  0  0  0
   57.4630   26.2160   45.6690 C   0  0  0  0  0  0  0  0  0  0  0  0
   57.0550   24.8970   46.2710 C   0  0  0  0  0  0  0  0  0  0  0  0
   55.7010   24.4730   45.7500 C   0  0  0  0  0  0  0  0  0  0  0  0
   54.6320   25.3850   45.6760 C   0  0  0  0  0  0  0  0  0  0  0  0
   54.8100   26.7150   46.0430 O   0  0  0  0  0  0  0  0  0  0  0  0
   53.4120   24.9740   45.2370 N   0  0  0  0  0  0  0  0  0  0  0  0
   53.2010   23.6810   44.8720 C   0  0  0  0  0  0  0  0  0  0  0  0
   52.0650   23.3160   44.4680 O   0  0  0  0  0  0  0  0  0  0  0  0
   54.2120   22.7810   44.9410 N   0  0  0  0  0  0  0  0  0  0  0  0
   55.4480   23.1420   45.3720 C   0  0  0  0  0  0  0  0  0  0  0  0
   56.3580   22.2720   45.4240 O   0  0  0  0  0  0  0  0  0  0  0  0
   57.5050   27.3770   46.4530 C   0  0  0  0  0  0  0  0  0  0  0  0
   57.8370   28.5700   45.8910 N   0  0  0  0  0  0  0  0  0  0  0  0
   58.1380   32.3920   46.4340 C   0  0  0  0  0  0  0  0  0  0  0  0
   58.8617   32.2566   50.4038 H   0  0  0  0  0  0  0  0  0  0  0  0
   58.0066   31.4471   49.0473 H   0  0  0  0  0  0  0  0  0  0  0  0
   59.8002   31.5455   49.0473 H   0  0  0  0  0  0  0  0  0  0  0  0
   59.4562   35.4461   47.2403 H   0  0  0  0  0  0  0  0  0  0  0  0
   59.2279   35.7451   44.7773 H   0  0  0  0  0  0  0  0  0  0  0  0
   58.3061   33.9058   43.3702 H   0  0  0  0  0  0  0  0  0  0  0  0
   58.3481   27.6292   42.6798 H   0  0  0  0  0  0  0  0  0  0  0  0
   57.7332   25.4201   43.6689 H   0  0  0  0  0  0  0  0  0  0  0  0
   57.8002   24.1324   46.0064 H   0  0  0  0  0  0  0  0  0  0  0  0
   56.9967   25.0078   47.3638 H   0  0  0  0  0  0  0  0  0  0  0  0
   52.6280   25.6620   45.1830 H   0  0  0  0  0  0  0  0  0  0  0  0
   57.2687   27.3231   47.5260 H   0  0  0  0  0  0  0  0  0  0  0  0
   57.8253   31.4461   46.9004 H   0  0  0  0  0  0  0  0  0  0  0  0
  1  2  1  0
  2  3  1  0
  3  4  2  0
  4  5  1  0
  5  6  2  0
  6  7  1  0
  7  8  1  0
  8  9  2  0
  8 10  2  0
  8 11  1  0
 11 12  2  3
 12 13  1  0
 13 14  2  0
 14 15  1  0
 15 16  1  0
 16 17  1  0
 17 18  2  0
 18 19  1  0
 18 20  1  0
 20 21  1  0
 21 22  2  0
 21 23  1  0
 23 24  1  0
 24 25  2  0
 15 26  2  0
 26 27  1  0
  7 28  2  0
 28  3  1  0
 27 12  1  0
 24 17  1  0
  1 29  1  0
  1 30  1  0
  1 31  1  0
  4 32  1  0
  5 33  1  0
  6 34  1  0
 13 35  1  0
 14 36  1  0
 16 37  1  0
 16 38  1  0
 20 39  1  0
 26 40  1  0
 28 41  1  0
M  CHG  3  19  -1  23  -1  27  -1
M  END
>  <UniqueID>  (84) 
76

>  <SMILES>  (84) 
COc1cccc(S(=O)(=O)N=c2ccc(Cc3c([O-])[nH]c(=O)[n-]c3=O)c[n-]2)c1

>  <Energy>  (84) 
50.26210140300981

>  <Genealogy>  (84) 
COc1cccc(S(=O)(=O)N=c2ccc(Cc3c([O-])[nH]c(=O)[n-]c3=O)c[n-]2)c1 (protonated)
COc1cccc(S(=O)(=O)N=c2ccc(Cc3c([O-])[nH]c(=O)[n-]c3=O)c[n-]2)c1 (3D coordinates assigned)
COc1cccc(S(=O)(=O)N=c2ccc(Cc3c([O-])[nH]c(=O)[n-]c3=O)c[n-]2)c1 (optimized conformer: 50.26210140300981 kcal/mol)

>  <smiles>  (84) 
COc1cccc(S(=O)(=O)N=c2ccc(Cc3c(O)[nH]c(=O)[nH]c3=O)c[nH]2)c1

>  <score_type>  (84) 
oracle

>  <origin>  (84) 
adg

>  <m_score__min__energy>  (84) 
-15.880000000000001

>  <m_primary>  (84) 
energy

$$$$
84:0
     RDKit          3D

 30 31  0  0  0  0  0  0  0  0999 V2000
   56.6010   22.5840   47.9990 C   0  0  0  0  0  0  0  0  0  0  0  0
   56.5990   23.6920   47.2660 C   0  0  0  0  0  0  0  0  0  0  0  0
   57.6860   24.1420   46.5980 N   0  0  0  0  0  0  0  0  0  0  0  0
   57.2390   25.2670   45.9990 C   0  0  0  0  0  0  0  0  0  0  0  0
   57.9800   26.0860   45.2380 C   0  0  0  0  0  0  0  0  0  0  0  0
   58.0810   27.5500   45.4420 C   0  0  0  0  0  0  0  0  0  0  0  0
   59.1830   28.0610   46.1380 C   0  0  0  0  0  0  0  0  0  0  0  0
   59.3050   29.4330   46.3600 C   0  0  0  0  0  0  0  0  0  0  0  0
   58.3310   30.3250   45.9000 C   0  0  0  0  0  0  0  0  0  0  0  0
   58.5480   31.6910   46.1420 O   0  0  0  0  0  0  0  0  0  0  0  0
   57.8960   32.9890   45.2340 S   0  0  0  0  0  0  0  0  0  0  0  0
   59.0800   34.3130   45.0980 C   0  0  0  0  0  0  0  0  0  0  0  0
   56.6820   33.5080   45.9500 O   0  0  0  0  0  0  0  0  0  0  0  0
   57.4830   32.5190   43.8670 O   0  0  0  0  0  0  0  0  0  0  0  0
   57.1840   29.8140   45.2520 C   0  0  0  0  0  0  0  0  0  0  0  0
   56.1410   30.6510   44.8690 O   0  0  0  0  0  0  0  0  0  0  0  0
   57.0720   28.4330   45.0230 C   0  0  0  0  0  0  0  0  0  0  0  0
   55.9160   25.4430   46.3420 C   0  0  0  0  0  0  0  0  0  0  0  0
   55.1670   26.3890   45.9790 O   0  0  0  0  0  0  0  0  0  0  0  0
   55.5410   24.4620   47.1180 O   0  0  0  0  0  0  0  0  0  0  0  0
   55.6854   22.2677   48.5202 H   0  0  0  0  0  0  0  0  0  0  0  0
   57.5183   21.9829   48.0848 H   0  0  0  0  0  0  0  0  0  0  0  0
   58.5498   25.6419   44.4085 H   0  0  0  0  0  0  0  0  0  0  0  0
   59.9580   27.3761   46.5124 H   0  0  0  0  0  0  0  0  0  0  0  0
   60.1796   29.8186   46.9045 H   0  0  0  0  0  0  0  0  0  0  0  0
   59.3765   34.6445   46.1041 H   0  0  0  0  0  0  0  0  0  0  0  0
   59.9668   33.9573   44.5530 H   0  0  0  0  0  0  0  0  0  0  0  0
   58.6278   35.1547   44.5530 H   0  0  0  0  0  0  0  0  0  0  0  0
   56.0520   31.5940   45.2300 H   0  0  0  0  0  0  0  0  0  0  0  0
   56.1832   28.0379   44.5092 H   0  0  0  0  0  0  0  0  0  0  0  0
  1  2  2  0
  2  3  1  0
  3  4  1  0
  4  5  2  3
  5  6  1  0
  6  7  2  0
  7  8  1  0
  8  9  2  0
  9 10  1  0
 10 11  1  0
 11 12  1  0
 11 13  2  0
 11 14  2  0
  9 15  1  0
 15 16  1  0
 15 17  2  0
  4 18  1  0
 18 19  2  0
 18 20  1  0
 20  2  1  0
 17  6  1  0
  1 21  1  0
  1 22  1  0
  5 23  1  0
  7 24  1  0
  8 25  1  0
 12 26  1  0
 12 27  1  0
 12 28  1  0
 16 29  1  0
 17 30  1  0
M  CHG  1   3  -1
M  END
>  <UniqueID>  (85) 
77

>  <SMILES>  (85) 
C=c1[n-]c(=Cc2ccc(OS(C)(=O)=O)c(O)c2)c(=O)o1

>  <Energy>  (85) 
66.164193684786

>  <Genealogy>  (85) 
C=c1[n-]c(=Cc2ccc(OS(C)(=O)=O)c(O)c2)c(=O)o1 (protonated)
C=c1[n-]c(=Cc2ccc(OS(C)(=O)=O)c(O)c2)c(=O)o1 (3D coordinates assigned)
C=c1[n-]c(=Cc2ccc(OS(C)(=O)=O)c(O)c2)c(=O)o1 (optimized conformer: 66.164193684786 kcal/mol)

>  <smiles>  (85) 
C=c1[nH]c(=Cc2ccc(OS(C)(=O)=O)c(O)c2)c(=O)o1

>  <score_type>  (85) 
oracle

>  <origin>  (85) 
adg

>  <m_score__min__energy>  (85) 
-8.7699999999999996

>  <m_primary>  (85) 
energy

$$$$
85:0
     RDKit          3D

 52 55  0  0  0  0  0  0  0  0999 V2000
   59.2990   25.0240   45.9970 C   0  0  0  0  0  0  0  0  0  0  0  0
   58.1940   24.2600   45.3140 C   0  0  0  0  0  0  0  0  0  0  0  0
   58.4890   23.0190   44.7240 C   0  0  0  0  0  0  0  0  0  0  0  0
   57.4930   22.2830   44.0800 C   0  0  0  0  0  0  0  0  0  0  0  0
   56.1920   22.7770   44.0160 C   0  0  0  0  0  0  0  0  0  0  0  0
   55.8810   24.0080   44.5940 C   0  0  0  0  0  0  0  0  0  0  0  0
   56.8700   24.7640   45.2470 C   0  0  0  0  0  0  0  0  0  0  0  0
   56.4280   26.3210   45.9650 S   0  0  0  0  0  0  0  0  0  0  0  0
   57.1960   26.4980   47.2460 O   0  0  0  0  0  0  0  0  0  0  0  0
   54.9520   26.3460   46.2440 O   0  0  0  0  0  0  0  0  0  0  0  0
   56.8220   27.6140   44.8760 N   0  0  0  0  0  0  0  0  0  0  0  0
   57.0670   28.9710   45.2660 C   0  0  0  0  0  0  0  0  0  0  0  0
   56.1250   29.8020   45.1840 O   0  0  0  0  0  0  0  0  0  0  0  0
   58.3840   29.4250   45.7540 C   0  0  0  0  0  0  0  0  0  0  0  0
   58.6290   30.7860   45.9940 C   0  0  0  0  0  0  0  0  0  0  0  0
   59.8810   31.2090   46.4470 C   0  0  0  0  0  0  0  0  0  0  0  0
   60.9060   30.2830   46.6660 C   0  0  0  0  0  0  0  0  0  0  0  0
   62.1520   30.7470   47.1120 O   0  0  0  0  0  0  0  0  0  0  0  0
   62.3570   31.8720   47.9230 C   0  0  0  0  0  0  0  0  0  0  0  0
   63.3990   32.7840   47.6790 C   0  0  0  0  0  0  0  0  0  0  0  0
   63.5820   33.8830   48.5200 C   0  0  0  0  0  0  0  0  0  0  0  0
   62.7380   34.0820   49.6140 C   0  0  0  0  0  0  0  0  0  0  0  0
   62.9660   35.1380   50.4360 F   0  0  0  0  0  0  0  0  0  0  0  0
   61.6970   33.1710   49.8820 C   0  0  0  0  0  0  0  0  0  0  0  0
   60.7930   33.3620   51.0420 C   0  0  0  0  0  0  0  0  0  0  0  0
   59.4060   33.5050   50.8530 C   0  0  0  0  0  0  0  0  0  0  0  0
   58.5570   33.6770   51.9510 C   0  0  0  0  0  0  0  0  0  0  0  0
   59.0820   33.7050   53.2450 C   0  0  0  0  0  0  0  0  0  0  0  0
   60.4560   33.5570   53.4450 C   0  0  0  0  0  0  0  0  0  0  0  0
   61.3090   33.3840   52.3500 C   0  0  0  0  0  0  0  0  0  0  0  0
   61.5260   32.0620   49.0330 C   0  0  0  0  0  0  0  0  0  0  0  0
   60.6770   28.9250   46.3840 C   0  0  0  0  0  0  0  0  0  0  0  0
   59.4240   28.5010   45.9300 C   0  0  0  0  0  0  0  0  0  0  0  0
   59.1812   24.9426   47.0876 H   0  0  0  0  0  0  0  0  0  0  0  0
   60.2719   24.6048   45.7009 H   0  0  0  0  0  0  0  0  0  0  0  0
   59.2504   26.0823   45.7009 H   0  0  0  0  0  0  0  0  0  0  0  0
   59.5146   22.6239   44.7702 H   0  0  0  0  0  0  0  0  0  0  0  0
   57.7355   21.3124   43.6228 H   0  0  0  0  0  0  0  0  0  0  0  0
   55.4083   22.1952   43.5087 H   0  0  0  0  0  0  0  0  0  0  0  0
   54.8513   24.3910   44.5382 H   0  0  0  0  0  0  0  0  0  0  0  0
   57.8308   31.5237   45.8245 H   0  0  0  0  0  0  0  0  0  0  0  0
   60.0619   32.2780   46.6328 H   0  0  0  0  0  0  0  0  0  0  0  0
   64.0722   32.6309   46.8226 H   0  0  0  0  0  0  0  0  0  0  0  0
   64.3954   34.5959   48.3197 H   0  0  0  0  0  0  0  0  0  0  0  0
   58.9872   33.4814   49.8361 H   0  0  0  0  0  0  0  0  0  0  0  0
   57.4740   33.7904   51.7952 H   0  0  0  0  0  0  0  0  0  0  0  0
   58.4128   33.8437   54.1069 H   0  0  0  0  0  0  0  0  0  0  0  0
   60.8680   33.5765   54.4647 H   0  0  0  0  0  0  0  0  0  0  0  0
   62.3903   33.2644   52.5130 H   0  0  0  0  0  0  0  0  0  0  0  0
   60.7284   31.3346   49.2446 H   0  0  0  0  0  0  0  0  0  0  0  0
   61.4865   28.1930   46.5210 H   0  0  0  0  0  0  0  0  0  0  0  0
   59.2534   27.4369   45.7098 H   0  0  0  0  0  0  0  0  0  0  0  0
  1  2  1  0
  2  3  2  0
  3  4  1  0
  4  5  2  0
  5  6  1  0
  6  7  2  0
  7  8  1  0
  8  9  2  0
  8 10  2  0
  8 11  1  0
 11 12  1  0
 12 13  2  0
 12 14  1  0
 14 15  2  0
 15 16  1  0
 16 17  2  0
 17 18  1  0
 18 19  1  0
 19 20  2  0
 20 21  1  0
 21 22  2  0
 22 23  1  0
 22 24  1  0
 24 25  1  0
 25 26  2  0
 26 27  1  0
 27 28  2  0
 28 29  1  0
 29 30  2  0
 24 31  2  0
 17 32  1  0
 32 33  2  0
  7  2  1  0
 33 14  1  0
 31 19  1  0
 30 25  1  0
  1 34  1  0
  1 35  1  0
  1 36  1  0
  3 37  1  0
  4 38  1  0
  5 39  1  0
  6 40  1  0
 15 41  1  0
 16 42  1  0
 20 43  1  0
 21 44  1  0
 26 45  1  0
 27 46  1  0
 28 47  1  0
 29 48  1  0
 30 49  1  0
 31 50  1  0
 32 51  1  0
 33 52  1  0
M  CHG  1  11  -1
M  END
>  <UniqueID>  (86) 
78

>  <SMILES>  (86) 
Cc1ccccc1S(=O)(=O)[N-]C(=O)c1ccc(Oc2ccc(F)c(-c3ccccc3)c2)cc1

>  <Energy>  (86) 
79.77853351271268

>  <Genealogy>  (86) 
Cc1ccccc1S(=O)(=O)[N-]C(=O)c1ccc(Oc2ccc(F)c(-c3ccccc3)c2)cc1 (protonated)
Cc1ccccc1S(=O)(=O)[N-]C(=O)c1ccc(Oc2ccc(F)c(-c3ccccc3)c2)cc1 (3D coordinates assigned)
Cc1ccccc1S(=O)(=O)[N-]C(=O)c1ccc(Oc2ccc(F)c(-c3ccccc3)c2)cc1 (optimized conformer: 79.77853351271268 kcal/mol)

>  <smiles>  (86) 
Cc1ccccc1S(=O)(=O)NC(=O)c1ccc(Oc2ccc(F)c(-c3ccccc3)c2)cc1

>  <score_type>  (86) 
oracle

>  <origin>  (86) 
adg

>  <m_score__min__energy>  (86) 
-11.98

>  <m_primary>  (86) 
energy

$$$$
86:0
     RDKit          3D

 51 53  0  0  0  0  0  0  0  0999 V2000
   57.0140   31.2890   42.2040 C   0  0  0  0  0  0  0  0  0  0  0  0
   56.6910   31.4880   43.5770 O   0  0  0  0  0  0  0  0  0  0  0  0
   57.5490   31.1960   44.6500 C   0  0  0  0  0  0  0  0  0  0  0  0
   58.5330   32.0990   45.0750 C   0  0  0  0  0  0  0  0  0  0  0  0
   59.3540   31.7950   46.1560 C   0  0  0  0  0  0  0  0  0  0  0  0
   60.2780   32.7060   46.5600 N   0  0  0  0  0  0  0  0  0  0  0  0
   61.1100   32.4810   47.6090 C   0  0  0  0  0  0  0  0  0  0  0  0
   62.0370   33.4570   47.9810 C   0  0  0  0  0  0  0  0  0  0  0  0
   62.8910   33.2330   49.0620 C   0  0  0  0  0  0  0  0  0  0  0  0
   62.8220   32.0350   49.7780 C   0  0  0  0  0  0  0  0  0  0  0  0
   61.8930   31.0380   49.4180 C   0  0  0  0  0  0  0  0  0  0  0  0
   61.8000   29.8270   50.1230 O   0  0  0  0  0  0  0  0  0  0  0  0
   60.8440   29.5540   51.1440 C   0  0  0  0  0  0  0  0  0  0  0  0
   61.0330   31.2660   48.3210 C   0  0  0  0  0  0  0  0  0  0  0  0
   60.0910   30.3080   47.9140 C   0  0  0  0  0  0  0  0  0  0  0  0
   59.2300   30.5530   46.8230 C   0  0  0  0  0  0  0  0  0  0  0  0
   58.2590   29.6080   46.3820 C   0  0  0  0  0  0  0  0  0  0  0  0
   58.1720   28.2280   47.0280 C   0  0  0  0  0  0  0  0  0  0  0  0
   57.8940   27.1680   46.0300 N   0  0  0  0  0  0  0  0  0  0  0  0
   57.4380   25.9210   46.6960 C   0  0  0  0  0  0  0  0  0  0  0  0
   55.9820   25.6110   46.3410 C   0  0  0  0  0  0  0  0  0  0  0  0
   55.3750   26.7250   45.7500 O   0  0  0  0  0  0  0  0  0  0  0  0
   59.0700   26.9130   45.1640 C   0  0  0  0  0  0  0  0  0  0  0  0
   58.8290   27.4690   43.7610 C   0  0  0  0  0  0  0  0  0  0  0  0
   57.4590   27.4410   43.4700 O   0  0  0  0  0  0  0  0  0  0  0  0
   57.3940   29.9690   45.3080 C   0  0  0  0  0  0  0  0  0  0  0  0
   56.3520   29.1460   44.8660 O   0  0  0  0  0  0  0  0  0  0  0  0
   57.9482   30.7134   42.1268 H   0  0  0  0  0  0  0  0  0  0  0  0
   56.2005   30.7353   41.7125 H   0  0  0  0  0  0  0  0  0  0  0  0
   57.1427   32.2646   41.7125 H   0  0  0  0  0  0  0  0  0  0  0  0
   58.6572   33.0570   44.5489 H   0  0  0  0  0  0  0  0  0  0  0  0
   62.0941   34.4026   47.4219 H   0  0  0  0  0  0  0  0  0  0  0  0
   63.6215   34.0028   49.3516 H   0  0  0  0  0  0  0  0  0  0  0  0
   63.4982   31.8687   50.6295 H   0  0  0  0  0  0  0  0  0  0  0  0
   61.3125   29.6878   52.1302 H   0  0  0  0  0  0  0  0  0  0  0  0
   59.9942   30.2454   51.0449 H   0  0  0  0  0  0  0  0  0  0  0  0
   60.4874   28.5181   51.0449 H   0  0  0  0  0  0  0  0  0  0  0  0
   60.0230   29.3519   48.4537 H   0  0  0  0  0  0  0  0  0  0  0  0
   59.1281   28.0069   47.5249 H   0  0  0  0  0  0  0  0  0  0  0  0
   57.3434   28.2414   47.7514 H   0  0  0  0  0  0  0  0  0  0  0  0
   58.0739   25.0852   46.3689 H   0  0  0  0  0  0  0  0  0  0  0  0
   57.5119   26.0579   47.7849 H   0  0  0  0  0  0  0  0  0  0  0  0
   55.9528   24.7664   45.6368 H   0  0  0  0  0  0  0  0  0  0  0  0
   55.4374   25.3551   47.2619 H   0  0  0  0  0  0  0  0  0  0  0  0
   55.9800   27.0130   45.0180 H   0  0  0  0  0  0  0  0  0  0  0  0
   59.9540   27.4009   45.6003 H   0  0  0  0  0  0  0  0  0  0  0  0
   59.2332   25.8274   45.0944 H   0  0  0  0  0  0  0  0  0  0  0  0
   59.1920   28.5062   43.7116 H   0  0  0  0  0  0  0  0  0  0  0  0
   59.3695   26.8526   43.0275 H   0  0  0  0  0  0  0  0  0  0  0  0
   57.0130   27.0780   44.2790 H   0  0  0  0  0  0  0  0  0  0  0  0
   56.4630   28.1940   44.5490 H   0  0  0  0  0  0  0  0  0  0  0  0
  1  2  1  0
  2  3  1  0
  3  4  2  0
  4  5  1  0
  5  6  2  0
  6  7  1  0
  7  8  2  0
  8  9  1  0
  9 10  2  0
 10 11  1  0
 11 12  1  0
 12 13  1  0
 11 14  2  0
 14 15  1  0
 15 16  2  0
 16 17  1  0
 17 18  1  0
 18 19  1  0
 19 20  1  0
 20 21  1  0
 21 22  1  0
 19 23  1  0
 23 24  1  0
 24 25  1  0
 17 26  2  0
 26 27  1  0
 26  3  1  0
 16  5  1  0
 14  7  1  0
  1 28  1  0
  1 29  1  0
  1 30  1  0
  4 31  1  0
  8 32  1  0
  9 33  1  0
 10 34  1  0
 13 35  1  0
 13 36  1  0
 13 37  1  0
 15 38  1  0
 18 39  1  0
 18 40  1  0
 20 41  1  0
 20 42  1  0
 21 43  1  0
 21 44  1  0
 22 45  1  0
 23 46  1  0
 23 47  1  0
 24 48  1  0
 24 49  1  0
 25 50  1  0
 27 51  1  0
M  END
>  <UniqueID>  (87) 
79

>  <SMILES>  (87) 
COc1cc2nc3cccc(OC)c3cc2c(CN(CCO)CCO)c1O

>  <Energy>  (87) 
63.01932519202306

>  <Genealogy>  (87) 
COc1cc2nc3cccc(OC)c3cc2c(CN(CCO)CCO)c1O (3D coordinates assigned)
COc1cc2nc3cccc(OC)c3cc2c(CN(CCO)CCO)c1O (optimized conformer: 63.01932519202306 kcal/mol)

>  <smiles>  (87) 
COc1cc2nc3cccc(OC)c3cc2c(CN(CCO)CCO)c1O

>  <score_type>  (87) 
oracle

>  <origin>  (87) 
adg

>  <m_score__min__energy>  (87) 
-7.1600000000000001

>  <m_primary>  (87) 
energy

$$$$
87:0
     RDKit          3D

 51 54  0  0  0  0  0  0  0  0999 V2000
   57.2360   31.9210   43.0610 O   0  0  0  0  0  0  0  0  0  0  0  0
   56.8050   31.3800   44.1150 C   0  0  0  0  0  0  0  0  0  0  0  0
   56.3100   29.9620   44.0580 C   0  0  0  0  0  0  0  0  0  0  0  0
   57.1840   29.0990   44.8520 N   0  0  0  0  0  0  0  0  0  0  0  0
   56.8160   28.0200   45.5800 C   0  0  0  0  0  0  0  0  0  0  0  0
   55.5230   27.5090   45.6270 O   0  0  0  0  0  0  0  0  0  0  0  0
   57.9020   27.5060   46.2580 C   0  0  0  0  0  0  0  0  0  0  0  0
   58.9870   28.2820   45.9090 C   0  0  0  0  0  0  0  0  0  0  0  0
   58.5070   29.2710   45.0680 C   0  0  0  0  0  0  0  0  0  0  0  0
   59.2570   30.3100   44.5190 O   0  0  0  0  0  0  0  0  0  0  0  0
   60.3610   28.1040   46.4830 C   0  0  0  0  0  0  0  0  0  0  0  0
   60.5090   26.6940   47.0920 C   0  0  0  0  0  0  0  0  0  0  0  0
   59.2850   26.3070   47.9540 C   0  0  0  0  0  0  0  0  0  0  0  0
   57.9850   26.2860   47.1250 C   0  0  0  0  0  0  0  0  0  0  0  0
   56.9390   32.0840   45.3560 N   0  0  0  0  0  0  0  0  0  0  0  0
   57.9670   33.0310   45.6780 C   0  0  0  0  0  0  0  0  0  0  0  0
   58.4880   33.8320   44.6530 C   0  0  0  0  0  0  0  0  0  0  0  0
   59.4550   34.8030   44.9360 C   0  0  0  0  0  0  0  0  0  0  0  0
   59.8890   34.9960   46.2500 C   0  0  0  0  0  0  0  0  0  0  0  0
   59.3490   34.2260   47.2850 C   0  0  0  0  0  0  0  0  0  0  0  0
   58.3850   33.2480   47.0090 C   0  0  0  0  0  0  0  0  0  0  0  0
   57.7790   32.5360   48.0890 N   0  0  0  0  0  0  0  0  0  0  0  0
   58.6350   31.2630   48.8840 S   0  0  0  0  0  0  0  0  0  0  0  0
   58.5250   29.9950   48.0830 O   0  0  0  0  0  0  0  0  0  0  0  0
   58.0290   31.0300   50.2410 O   0  0  0  0  0  0  0  0  0  0  0  0
   60.3230   31.7300   49.0620 C   0  0  0  0  0  0  0  0  0  0  0  0
   60.7030   32.6560   50.0460 C   0  0  0  0  0  0  0  0  0  0  0  0
   62.0360   33.0670   50.1460 C   0  0  0  0  0  0  0  0  0  0  0  0
   62.9940   32.5600   49.2610 C   0  0  0  0  0  0  0  0  0  0  0  0
   64.8140   33.1270   49.3930 Br  0  0  0  0  0  0  0  0  0  0  0  0
   62.6160   31.6430   48.2730 C   0  0  0  0  0  0  0  0  0  0  0  0
   61.2840   31.2300   48.1720 C   0  0  0  0  0  0  0  0  0  0  0  0
   55.2875   29.9158   44.4610 H   0  0  0  0  0  0  0  0  0  0  0  0
   56.3129   29.6184   43.0130 H   0  0  0  0  0  0  0  0  0  0  0  0
   58.8620   31.2330   44.3920 H   0  0  0  0  0  0  0  0  0  0  0  0
   61.1071   28.2348   45.6854 H   0  0  0  0  0  0  0  0  0  0  0  0
   60.5183   28.8531   47.2730 H   0  0  0  0  0  0  0  0  0  0  0  0
   60.6148   25.9636   46.2763 H   0  0  0  0  0  0  0  0  0  0  0  0
   61.3969   26.6945   47.7414 H   0  0  0  0  0  0  0  0  0  0  0  0
   59.4516   25.3068   48.3804 H   0  0  0  0  0  0  0  0  0  0  0  0
   59.1729   27.0610   48.7470 H   0  0  0  0  0  0  0  0  0  0  0  0
   57.9739   25.3879   46.4899 H   0  0  0  0  0  0  0  0  0  0  0  0
   57.1239   26.2738   47.8094 H   0  0  0  0  0  0  0  0  0  0  0  0
   58.1348   33.6967   43.6201 H   0  0  0  0  0  0  0  0  0  0  0  0
   59.8738   35.4148   44.1234 H   0  0  0  0  0  0  0  0  0  0  0  0
   60.6554   35.7536   46.4704 H   0  0  0  0  0  0  0  0  0  0  0  0
   59.6828   34.3891   48.3204 H   0  0  0  0  0  0  0  0  0  0  0  0
   59.9508   33.0593   50.7399 H   0  0  0  0  0  0  0  0  0  0  0  0
   62.3316   33.7895   50.9210 H   0  0  0  0  0  0  0  0  0  0  0  0
   63.3682   31.2467   47.5750 H   0  0  0  0  0  0  0  0  0  0  0  0
   60.9896   30.5115   47.3929 H   0  0  0  0  0  0  0  0  0  0  0  0
  1  2  2  0
  2  3  1  0
  3  4  1  0
  4  5  1  0
  5  6  1  0
  5  7  2  0
  7  8  1  0
  8  9  2  0
  9 10  1  0
  8 11  1  0
 11 12  1  0
 12 13  1  0
 13 14  1  0
  2 15  1  0
 15 16  1  0
 16 17  2  0
 17 18  1  0
 18 19  2  0
 19 20  1  0
 20 21  2  0
 21 22  1  0
 22 23  1  0
 23 24  2  0
 23 25  2  0
 23 26  1  0
 26 27  2  0
 27 28  1  0
 28 29  2  0
 29 30  1  0
 29 31  1  0
 31 32  2  0
  9  4  1  0
 21 16  1  0
 32 26  1  0
 14  7  1  0
  3 33  1  0
  3 34  1  0
 10 35  1  0
 11 36  1  0
 11 37  1  0
 12 38  1  0
 12 39  1  0
 13 40  1  0
 13 41  1  0
 14 42  1  0
 14 43  1  0
 17 44  1  0
 18 45  1  0
 19 46  1  0
 20 47  1  0
 27 48  1  0
 28 49  1  0
 31 50  1  0
 32 51  1  0
M  CHG  3   6  -1  15  -1  22  -1
M  END
>  <UniqueID>  (88) 
80

>  <SMILES>  (88) 
O=C(Cn1c([O-])c2c(c1O)CCCC2)[N-]c1ccccc1[N-]S(=O)(=O)c1ccc(Br)cc1

>  <Energy>  (88) 
94.64418072153103

>  <Genealogy>  (88) 
O=C(Cn1c([O-])c2c(c1O)CCCC2)[N-]c1ccccc1[N-]S(=O)(=O)c1ccc(Br)cc1 (protonated)
O=C(Cn1c([O-])c2c(c1O)CCCC2)[N-]c1ccccc1[N-]S(=O)(=O)c1ccc(Br)cc1 (3D coordinates assigned)
O=C(Cn1c([O-])c2c(c1O)CCCC2)[N-]c1ccccc1[N-]S(=O)(=O)c1ccc(Br)cc1 (nonaromatic ring conformer: 94.64418072153103 kcal/mol)

>  <smiles>  (88) 
O=C(Cn1c(O)c2c(c1O)CCCC2)Nc1ccccc1NS(=O)(=O)c1ccc(Br)cc1

>  <score_type>  (88) 
oracle

>  <origin>  (88) 
adg

>  <m_score__min__energy>  (88) 
-15.199999999999999

>  <m_primary>  (88) 
energy

$$$$
88:0
     RDKit          3D

 31 33  0  0  0  0  0  0  0  0999 V2000
   57.6800   21.8890   47.4600 H   0  0  0  0  0  0  0  0  0  0  0  0
   56.9590   22.5820   47.7640 N   0  0  0  0  0  0  0  0  0  0  0  0
   57.7440   27.1620   45.5360 C   0  0  0  0  0  0  0  0  0  0  0  0
   57.2150   25.9080   46.1140 C   0  0  0  0  0  0  0  0  0  0  0  0
   58.1800   24.6470   46.6890 S   0  0  0  0  0  0  0  0  0  0  0  0
   56.8650   23.7380   47.1950 C   0  0  0  0  0  0  0  0  0  0  0  0
   56.9220   28.0110   45.0020 N   0  0  0  0  0  0  0  0  0  0  0  0
   55.9530   27.7730   44.7030 H   0  0  0  0  0  0  0  0  0  0  0  0
   55.6900   24.3500   46.9440 N   0  0  0  0  0  0  0  0  0  0  0  0
   55.8720   25.5540   46.3380 C   0  0  0  0  0  0  0  0  0  0  0  0
   54.7750   26.3240   45.9580 O   0  0  0  0  0  0  0  0  0  0  0  0
   54.7680   27.3330   46.0020 H   0  0  0  0  0  0  0  0  0  0  0  0
   59.1560   27.4480   45.6300 N   0  0  0  0  0  0  0  0  0  0  0  0
   59.7710   26.7770   46.1430 H   0  0  0  0  0  0  0  0  0  0  0  0
   59.8170   28.5800   44.9790 C   0  0  0  0  0  0  0  0  0  0  0  0
   60.8970   28.5339   45.1829 H   0  0  0  0  0  0  0  0  0  0  0  0
   59.6311   28.5240   43.8963 H   0  0  0  0  0  0  0  0  0  0  0  0
   59.2710   29.8830   45.4980 C   0  0  0  0  0  0  0  0  0  0  0  0
   59.4890   30.2550   46.8500 C   0  0  0  0  0  0  0  0  0  0  0  0
   60.0624   29.5902   47.5128 H   0  0  0  0  0  0  0  0  0  0  0  0
   58.9780   31.4670   47.3500 C   0  0  0  0  0  0  0  0  0  0  0  0
   59.1462   31.7665   48.3950 H   0  0  0  0  0  0  0  0  0  0  0  0
   58.2530   32.2740   46.4790 C   0  0  0  0  0  0  0  0  0  0  0  0
   58.0320   31.9210   45.1880 C   0  0  0  0  0  0  0  0  0  0  0  0
   58.5190   30.7320   44.6540 C   0  0  0  0  0  0  0  0  0  0  0  0
   58.3246   30.4606   43.6059 H   0  0  0  0  0  0  0  0  0  0  0  0
   57.2870   32.9020   44.5640 O   0  0  0  0  0  0  0  0  0  0  0  0
   57.0230   33.9370   45.5230 C   0  0  0  0  0  0  0  0  0  0  0  0
   57.4523   34.8928   45.1881 H   0  0  0  0  0  0  0  0  0  0  0  0
   55.9450   34.1067   45.6611 H   0  0  0  0  0  0  0  0  0  0  0  0
   57.6580   33.4950   46.7320 O   0  0  0  0  0  0  0  0  0  0  0  0
  1  2  1  0
  2  3  2  0
  3  4  1  0
  4  5  1  0
  5  6  1  0
  6  7  2  0
  7  8  1  0
  6  9  1  0
  9 10  1  0
 10 11  1  0
 11 12  1  0
  3 13  1  0
 13 14  1  0
 13 15  1  0
 15 16  1  0
 15 17  1  0
 15 18  1  0
 18 19  2  0
 19 20  1  0
 19 21  1  0
 21 22  1  0
 21 23  2  0
 23 24  1  0
 24 25  2  0
 25 26  1  0
 24 27  1  0
 27 28  1  0
 28 29  1  0
 28 30  1  0
 28 31  1  0
 10  4  2  0
 25 18  1  0
 31 23  1  0
M  CHG  1   9  -1
M  END
>  <UniqueID>  (89) 
81

>  <SMILES>  (89) 
[H]/N=C(\NCc1ccc2c(c1)OCO2)c1s/c(=N/[H])[n-]c1O

>  <Energy>  (89) 
92.68121324336701

>  <Genealogy>  (89) 
N=C(NCc1ccc2c(c1)OCO2)c1sc(=N)[n-]c1O (protonated)
[H]/N=C(\NCc1ccc2c(c1)OCO2)c1s/c(=N/[H])[n-]c1O (cis-trans isomerization)
[H]/N=C(\NCc1ccc2c(c1)OCO2)c1s/c(=N/[H])[n-]c1O (3D coordinates assigned)
[H]/N=C(\NCc1ccc2c(c1)OCO2)c1s/c(=N/[H])[n-]c1O (nonaromatic ring conformer: 92.68121324336701 kcal/mol)

>  <smiles>  (89) 
N=C(NCc1ccc2c(c1)OCO2)c1sc(=N)[nH]c1O

>  <score_type>  (89) 
oracle

>  <origin>  (89) 
adg

>  <m_score__min__energy>  (89) 
-9.0999999999999996

>  <m_primary>  (89) 
energy

$$$$
89:0
     RDKit          3D

 36 38  0  0  0  0  0  0  0  0999 V2000
   56.9750   30.9260   43.2470 C   0  0  0  0  0  0  0  0  0  0  0  0
   57.7210   31.3120   44.2780 C   0  0  0  0  0  0  0  0  0  0  0  0
   58.5180   30.6480   45.3590 C   0  0  0  0  0  0  0  0  0  0  0  0
   58.7940   29.2190   45.6220 C   0  0  0  0  0  0  0  0  0  0  0  0
   60.1140   28.7500   45.6860 C   0  0  0  0  0  0  0  0  0  0  0  0
   60.3670   27.3950   45.9170 C   0  0  0  0  0  0  0  0  0  0  0  0
   59.3070   26.4980   46.0760 C   0  0  0  0  0  0  0  0  0  0  0  0
   59.5740   25.1860   46.2950 F   0  0  0  0  0  0  0  0  0  0  0  0
   57.9820   26.9550   46.0060 C   0  0  0  0  0  0  0  0  0  0  0  0
   56.6470   25.8200   46.1990 S   0  0  0  0  0  0  0  0  0  0  0  0
   55.1480   26.6550   45.9980 N   0  0  0  0  0  0  0  0  0  0  0  0
   56.7620   24.7340   45.1670 O   0  0  0  0  0  0  0  0  0  0  0  0
   56.6830   25.1980   47.5670 O   0  0  0  0  0  0  0  0  0  0  0  0
   57.7310   28.3170   45.7750 C   0  0  0  0  0  0  0  0  0  0  0  0
   59.0610   31.8690   45.7830 C   0  0  0  0  0  0  0  0  0  0  0  0
   58.1880   31.9860   47.0390 C   0  0  0  0  0  0  0  0  0  0  0  0
   58.8150   33.2210   47.4700 C   0  0  0  0  0  0  0  0  0  0  0  0
   59.3230   32.7130   48.6530 N   0  0  0  0  0  0  0  0  0  0  0  0
   60.0370   33.3100   49.7690 C   0  0  0  0  0  0  0  0  0  0  0  0
   59.2230   31.1830   48.0720 S   0  0  0  0  0  0  0  0  0  0  0  0
   58.1730   32.5140   44.8180 N   0  0  2  0  0  0  0  0  0  0  0  0
   57.0170   33.4210   45.0850 C   0  0  0  0  0  0  0  0  0  0  0  0
   56.4953   31.6779   42.6031 H   0  0  0  0  0  0  0  0  0  0  0  0
   56.8376   29.8548   43.0381 H   0  0  0  0  0  0  0  0  0  0  0  0
   60.9521   29.4501   45.5541 H   0  0  0  0  0  0  0  0  0  0  0  0
   61.4042   27.0332   45.9739 H   0  0  0  0  0  0  0  0  0  0  0  0
   55.1750   27.1070   45.0560 H   0  0  0  0  0  0  0  0  0  0  0  0
   56.6940   28.6789   45.7136 H   0  0  0  0  0  0  0  0  0  0  0  0
   58.8685   34.2201   47.0128 H   0  0  0  0  0  0  0  0  0  0  0  0
   59.6061   32.9497   50.7148 H   0  0  0  0  0  0  0  0  0  0  0  0
   61.0988   33.0271   49.7185 H   0  0  0  0  0  0  0  0  0  0  0  0
   59.9466   34.4051   49.7185 H   0  0  0  0  0  0  0  0  0  0  0  0
   58.7790   32.9770   44.0990 H   0  0  0  0  0  0  0  0  0  0  0  0
   56.8791   33.5292   46.1709 H   0  0  0  0  0  0  0  0  0  0  0  0
   57.2146   34.4075   44.6404 H   0  0  0  0  0  0  0  0  0  0  0  0
   56.1058   32.9943   44.6404 H   0  0  0  0  0  0  0  0  0  0  0  0
  1  2  2  0
  2  3  1  0
  3  4  1  0
  4  5  2  0
  5  6  1  0
  6  7  2  0
  7  8  1  0
  7  9  1  0
  9 10  1  0
 10 11  1  0
 10 12  2  0
 10 13  2  0
  9 14  2  0
  3 15  2  0
 15 16  1  0
 16 17  2  0
 17 18  1  0
 18 19  1  0
 18 20  1  0
 15 21  1  0
 21 22  1  0
 21  2  1  0
 14  4  1  0
 20 16  1  0
  1 23  1  0
  1 24  1  0
  5 25  1  0
  6 26  1  0
 11 27  1  0
 14 28  1  0
 17 29  1  0
 19 30  1  0
 19 31  1  0
 19 32  1  0
 21 33  1  6
 22 34  1  0
 22 35  1  0
 22 36  1  0
M  CHG  2  11  -1  21   1
M  END
>  <UniqueID>  (90) 
82

>  <SMILES>  (90) 
C=C1C(c2ccc(F)c(S([NH-])(=O)=O)c2)=C(c2cn(C)s2)[N@@H+]1C

>  <Energy>  (90) 
166.26970832097777

>  <Genealogy>  (90) 
C=C1C(c2ccc(F)c(S([NH-])(=O)=O)c2)=C(c2cn(C)s2)[NH+]1C (protonated)
C=C1C(c2ccc(F)c(S([NH-])(=O)=O)c2)=C(c2cn(C)s2)[N@@H+]1C (chirality)
C=C1C(c2ccc(F)c(S([NH-])(=O)=O)c2)=C(c2cn(C)s2)[N@@H+]1C (3D coordinates assigned)
C=C1C(c2ccc(F)c(S([NH-])(=O)=O)c2)=C(c2cn(C)s2)[N@@H+]1C (nonaromatic ring conformer: 166.26970832097777 kcal/mol)

>  <smiles>  (90) 
C=C1C(c2ccc(F)c(S(N)(=O)=O)c2)=C(c2cn(C)s2)N1C

>  <score_type>  (90) 
oracle

>  <origin>  (90) 
adg

>  <m_score__min__energy>  (90) 
-8.8900000000000006

>  <m_primary>  (90) 
energy

$$$$
90:0
     RDKit          3D

 59 63  0  0  0  0  0  0  0  0999 V2000
   64.8120   29.4910   51.7620 O   0  0  0  0  0  0  0  0  0  0  0  0
   63.5790   29.5670   52.0150 C   0  0  0  0  0  0  0  0  0  0  0  0
   62.6720   28.5910   51.4930 N   0  0  0  0  0  0  0  0  0  0  0  0
   61.3990   28.8730   50.8960 C   0  0  0  0  0  0  0  0  0  0  0  0
   61.1330   28.3900   49.6090 C   0  0  0  0  0  0  0  0  0  0  0  0
   59.9070   28.6580   48.9940 C   0  0  0  0  0  0  0  0  0  0  0  0
   58.9490   29.4330   49.6520 C   0  0  0  0  0  0  0  0  0  0  0  0
   59.2160   29.9530   50.9250 C   0  0  0  0  0  0  0  0  0  0  0  0
   58.0350   31.0010   51.7050 S   0  0  0  0  0  0  0  0  0  0  0  0
   56.6560   30.4900   51.4020 O   0  0  0  0  0  0  0  0  0  0  0  0
   58.2370   31.0150   53.1950 O   0  0  0  0  0  0  0  0  0  0  0  0
   58.1910   32.6210   51.1000 N   0  0  0  0  0  0  0  0  0  0  0  0
   58.8670   32.9320   50.0350 C   0  0  0  0  0  0  0  0  0  0  0  0
   58.4660   32.4290   48.7910 C   0  0  0  0  0  0  0  0  0  0  0  0
   59.2220   32.7150   47.6510 C   0  0  0  0  0  0  0  0  0  0  0  0
   58.8150   32.1920   46.4160 O   0  0  0  0  0  0  0  0  0  0  0  0
   59.0590   30.8840   45.9760 C   0  0  0  0  0  0  0  0  0  0  0  0
   60.3210   30.2540   46.1050 C   0  0  0  0  0  0  0  0  0  0  0  0
   60.5070   28.9220   45.6690 C   0  0  0  0  0  0  0  0  0  0  0  0
   59.4370   28.1990   45.1110 C   0  0  0  0  0  0  0  0  0  0  0  0
   58.2060   28.8430   45.0120 C   0  0  0  0  0  0  0  0  0  0  0  0
   57.0550   28.3610   44.5280 N   0  0  0  0  0  0  0  0  0  0  0  0
   56.1970   29.3980   44.6720 C   0  0  0  0  0  0  0  0  0  0  0  0
   54.9890   29.3380   44.3210 O   0  0  0  0  0  0  0  0  0  0  0  0
   56.7470   30.5120   45.2220 N   0  0  0  0  0  0  0  0  0  0  0  0
   58.0220   30.1300   45.4280 C   0  0  0  0  0  0  0  0  0  0  0  0
   60.3490   33.5450   47.7650 C   0  0  0  0  0  0  0  0  0  0  0  0
   60.7120   34.0400   49.0190 C   0  0  0  0  0  0  0  0  0  0  0  0
   59.9740   33.7250   50.1140 N   0  0  0  0  0  0  0  0  0  0  0  0
   60.4400   29.6690   51.5480 C   0  0  0  0  0  0  0  0  0  0  0  0
   63.0710   30.6290   52.7690 O   0  0  0  0  0  0  0  0  0  0  0  0
   62.7220   31.8980   52.2130 C   0  0  0  0  0  0  0  0  0  0  0  0
   63.8900   32.4820   51.4090 C   0  0  0  0  0  0  0  0  0  0  0  0
   63.6230   32.4510   49.9270 C   0  0  0  0  0  0  0  0  0  0  0  0
   62.8870   31.3980   49.3580 C   0  0  0  0  0  0  0  0  0  0  0  0
   62.6720   31.3520   47.9780 C   0  0  0  0  0  0  0  0  0  0  0  0
   63.1950   32.3540   47.1550 C   0  0  0  0  0  0  0  0  0  0  0  0
   63.9360   33.4010   47.7110 C   0  0  0  0  0  0  0  0  0  0  0  0
   64.1520   33.4500   49.0920 C   0  0  0  0  0  0  0  0  0  0  0  0
   61.8928   27.7966   49.0793 H   0  0  0  0  0  0  0  0  0  0  0  0
   59.6963   28.2584   47.9911 H   0  0  0  0  0  0  0  0  0  0  0  0
   57.9818   29.6356   49.1689 H   0  0  0  0  0  0  0  0  0  0  0  0
   57.5594   31.8111   48.7115 H   0  0  0  0  0  0  0  0  0  0  0  0
   61.1633   30.8056   46.5480 H   0  0  0  0  0  0  0  0  0  0  0  0
   61.4948   28.4479   45.7667 H   0  0  0  0  0  0  0  0  0  0  0  0
   59.5678   27.1629   44.7655 H   0  0  0  0  0  0  0  0  0  0  0  0
   56.8640   27.4140   44.1330 H   0  0  0  0  0  0  0  0  0  0  0  0
   60.9406   33.8029   46.8742 H   0  0  0  0  0  0  0  0  0  0  0  0
   61.5968   34.6858   49.1198 H   0  0  0  0  0  0  0  0  0  0  0  0
   60.6508   30.0703   52.5503 H   0  0  0  0  0  0  0  0  0  0  0  0
   61.8538   31.7740   51.5490 H   0  0  0  0  0  0  0  0  0  0  0  0
   62.4809   32.5880   53.0350 H   0  0  0  0  0  0  0  0  0  0  0  0
   64.0493   33.5251   51.7199 H   0  0  0  0  0  0  0  0  0  0  0  0
   64.7811   31.8684   51.6077 H   0  0  0  0  0  0  0  0  0  0  0  0
   62.4779   30.6057   50.0022 H   0  0  0  0  0  0  0  0  0  0  0  0
   62.0912   30.5273   47.5391 H   0  0  0  0  0  0  0  0  0  0  0  0
   63.0233   32.3185   46.0691 H   0  0  0  0  0  0  0  0  0  0  0  0
   64.3495   34.1869   47.0618 H   0  0  0  0  0  0  0  0  0  0  0  0
   64.7381   34.2735   49.5261 H   0  0  0  0  0  0  0  0  0  0  0  0
  1  2  2  0
  2  3  1  0
  3  4  1  0
  4  5  2  0
  5  6  1  0
  6  7  2  0
  7  8  1  0
  8  9  1  0
  9 10  2  0
  9 11  2  0
  9 12  1  0
 12 13  2  3
 13 14  1  0
 14 15  2  0
 15 16  1  0
 16 17  1  0
 17 18  2  0
 18 19  1  0
 19 20  2  0
 20 21  1  0
 21 22  1  0
 22 23  1  0
 23 24  2  0
 23 25  1  0
 25 26  1  0
 15 27  1  0
 27 28  2  0
 28 29  1  0
  8 30  2  0
  2 31  1  0
 31 32  1  0
 32 33  1  0
 33 34  1  0
 34 35  2  0
 35 36  1  0
 36 37  2  0
 37 38  1  0
 38 39  2  0
 30  4  1  0
 39 34  1  0
 29 13  1  0
 26 17  1  0
 26 21  2  0
  5 40  1  0
  6 41  1  0
  7 42  1  0
 14 43  1  0
 18 44  1  0
 19 45  1  0
 20 46  1  0
 22 47  1  0
 27 48  1  0
 28 49  1  0
 30 50  1  0
 32 51  1  0
 32 52  1  0
 33 53  1  0
 33 54  1  0
 35 55  1  0
 36 56  1  0
 37 57  1  0
 38 58  1  0
 39 59  1  0
M  CHG  3   3  -1  25  -1  29  -1
M  END
>  <UniqueID>  (91) 
83

>  <SMILES>  (91) 
O=C([N-]c1cccc(S(=O)(=O)N=c2cc(Oc3cccc4[nH]c(=O)[n-]c34)cc[n-]2)c1)OCCc1ccccc1

>  <Energy>  (91) 
112.84927071309139

>  <Genealogy>  (91) 
O=C([N-]c1cccc(S(=O)(=O)N=c2cc(Oc3cccc4[nH]c(=O)[n-]c34)cc[n-]2)c1)OCCc1ccccc1 (protonated)
O=C([N-]c1cccc(S(=O)(=O)N=c2cc(Oc3cccc4[nH]c(=O)[n-]c34)cc[n-]2)c1)OCCc1ccccc1 (3D coordinates assigned)
O=C([N-]c1cccc(S(=O)(=O)N=c2cc(Oc3cccc4[nH]c(=O)[n-]c34)cc[n-]2)c1)OCCc1ccccc1 (optimized conformer: 112.84927071309139 kcal/mol)

>  <smiles>  (91) 
O=C(Nc1cccc(S(=O)(=O)N=c2cc(Oc3cccc4[nH]c(=O)[nH]c34)cc[nH]2)c1)OCCc1ccccc1

>  <score_type>  (91) 
oracle

>  <origin>  (91) 
adg

>  <m_score__min__energy>  (91) 
-14.74

>  <m_primary>  (91) 
energy

$$$$
91:0
     RDKit          3D

 69 73  0  0  0  0  0  0  0  0999 V2000
   57.0190   27.3950   46.9010 O   0  0  0  0  0  0  0  0  0  0  0  0
   57.9090   26.5400   46.6490 C   0  0  0  0  0  0  0  0  0  0  0  0
   59.2470   26.7810   47.1070 N   0  0  0  0  0  0  0  0  0  0  0  0
   59.5980   27.5050   48.2950 C   0  0  0  0  0  0  0  0  0  0  0  0
   60.5060   26.9400   49.1990 C   0  0  0  0  0  0  0  0  0  0  0  0
   60.8970   27.6450   50.3420 C   0  0  0  0  0  0  0  0  0  0  0  0
   60.3490   28.9090   50.6150 C   0  0  0  0  0  0  0  0  0  0  0  0
   60.7460   29.6620   51.8560 C   0  0  0  0  0  0  0  0  0  0  0  0
   61.2820   30.9870   51.5240 N   0  0  0  0  0  0  0  0  0  0  0  0
   60.8070   31.8130   50.5740 C   0  0  0  0  0  0  0  0  0  0  0  0
   61.4050   33.0400   50.7510 C   0  0  0  0  0  0  0  0  0  0  0  0
   61.1550   34.2120   49.9730 N   0  0  0  0  0  0  0  0  0  0  0  0
   59.9870   34.5580   49.7060 O   0  0  0  0  0  0  0  0  0  0  0  0
   62.2080   34.9620   49.5020 O   0  0  0  0  0  0  0  0  0  0  0  0
   62.2360   33.0110   51.8090 N   0  0  0  0  0  0  0  0  0  0  0  0
   62.1530   31.7350   52.2450 C   0  0  0  0  0  0  0  0  0  0  0  0
   63.0100   31.1390   53.7110 S   0  0  0  0  0  0  0  0  0  0  0  0
   63.9240   29.7570   52.9230 C   0  0  0  0  0  0  0  0  0  0  0  0
   64.1770   29.9190   51.4140 C   0  0  0  0  0  0  0  0  0  0  0  0
   65.0880   31.0690   51.0460 C   0  0  0  0  0  0  0  0  0  0  0  0
   66.3160   31.2080   51.7190 C   0  0  0  0  0  0  0  0  0  0  0  0
   67.2140   32.2120   51.3580 C   0  0  0  0  0  0  0  0  0  0  0  0
   66.8870   33.1140   50.3480 C   0  0  0  0  0  0  0  0  0  0  0  0
   65.6710   32.9980   49.6740 C   0  0  0  0  0  0  0  0  0  0  0  0
   64.7680   31.9730   50.0070 C   0  0  0  0  0  0  0  0  0  0  0  0
   63.5480   31.8170   49.2710 N   0  0  0  0  0  0  0  0  0  0  0  0
   63.3580   32.3130   47.6220 S   0  0  0  0  0  0  0  0  0  0  0  0
   63.8870   31.2290   46.7250 O   0  0  0  0  0  0  0  0  0  0  0  0
   64.1350   33.5710   47.3530 O   0  0  0  0  0  0  0  0  0  0  0  0
   61.6450   32.5630   47.2940 C   0  0  0  0  0  0  0  0  0  0  0  0
   60.7510   31.4850   47.3700 C   0  0  0  0  0  0  0  0  0  0  0  0
   59.4020   31.6650   47.0450 C   0  0  0  0  0  0  0  0  0  0  0  0
   58.9400   32.9230   46.6470 C   0  0  0  0  0  0  0  0  0  0  0  0
   59.8270   34.0010   46.5740 C   0  0  0  0  0  0  0  0  0  0  0  0
   61.1770   33.8230   46.8910 C   0  0  0  0  0  0  0  0  0  0  0  0
   59.3990   29.4500   49.7350 C   0  0  0  0  0  0  0  0  0  0  0  0
   59.0270   28.7550   48.5830 C   0  0  0  0  0  0  0  0  0  0  0  0
   57.5430   25.2880   45.9410 C   0  0  0  0  0  0  0  0  0  0  0  0
   58.5470   24.3570   45.6220 C   0  0  0  0  0  0  0  0  0  0  0  0
   58.2350   23.1840   44.9350 C   0  0  0  0  0  0  0  0  0  0  0  0
   59.5090   22.0500   44.5260 Cl  0  0  0  0  0  0  0  0  0  0  0  0
   56.9140   22.9160   44.5740 C   0  0  0  0  0  0  0  0  0  0  0  0
   55.8960   23.8210   44.8960 C   0  0  0  0  0  0  0  0  0  0  0  0
   54.2490   23.4320   44.4170 Cl  0  0  0  0  0  0  0  0  0  0  0  0
   56.2060   25.0150   45.5800 C   0  0  0  0  0  0  0  0  0  0  0  0
   55.2090   25.9450   45.8900 O   0  0  0  0  0  0  0  0  0  0  0  0
   60.9140   25.9363   49.0092 H   0  0  0  0  0  0  0  0  0  0  0  0
   61.6362   27.2080   51.0294 H   0  0  0  0  0  0  0  0  0  0  0  0
   59.8626   29.7834   52.5001 H   0  0  0  0  0  0  0  0  0  0  0  0
   61.5288   29.0897   52.3752 H   0  0  0  0  0  0  0  0  0  0  0  0
   60.0733   31.5544   49.7963 H   0  0  0  0  0  0  0  0  0  0  0  0
   64.8988   29.6635   53.4240 H   0  0  0  0  0  0  0  0  0  0  0  0
   63.2879   28.8664   53.0333 H   0  0  0  0  0  0  0  0  0  0  0  0
   64.6311   28.9892   51.0409 H   0  0  0  0  0  0  0  0  0  0  0  0
   63.2006   30.1374   50.9569 H   0  0  0  0  0  0  0  0  0  0  0  0
   66.5699   30.5183   52.5374 H   0  0  0  0  0  0  0  0  0  0  0  0
   68.1831   32.2919   51.8722 H   0  0  0  0  0  0  0  0  0  0  0  0
   67.5883   33.9185   50.0816 H   0  0  0  0  0  0  0  0  0  0  0  0
   65.4172   33.7127   48.8773 H   0  0  0  0  0  0  0  0  0  0  0  0
   61.1115   30.4950   47.6861 H   0  0  0  0  0  0  0  0  0  0  0  0
   58.7047   30.8162   47.1027 H   0  0  0  0  0  0  0  0  0  0  0  0
   57.8795   33.0645   46.3915 H   0  0  0  0  0  0  0  0  0  0  0  0
   59.4618   34.9920   46.2663 H   0  0  0  0  0  0  0  0  0  0  0  0
   61.8733   34.6719   46.8244 H   0  0  0  0  0  0  0  0  0  0  0  0
   58.9448   30.4275   49.9544 H   0  0  0  0  0  0  0  0  0  0  0  0
   58.2834   29.1884   47.8980 H   0  0  0  0  0  0  0  0  0  0  0  0
   59.5880   24.5555   45.9169 H   0  0  0  0  0  0  0  0  0  0  0  0
   56.6715   21.9890   44.0337 H   0  0  0  0  0  0  0  0  0  0  0  0
   55.1120   26.3640   46.8060 H   0  0  0  0  0  0  0  0  0  0  0  0
  1  2  2  0
  2  3  1  0
  3  4  1  0
  4  5  2  0
  5  6  1  0
  6  7  2  0
  7  8  1  0
  8  9  1  0
  9 10  1  0
 10 11  2  0
 11 12  1  0
 12 13  2  0
 12 14  1  0
 11 15  1  0
 15 16  2  0
 16 17  1  0
 17 18  1  0
 18 19  1  0
 19 20  1  0
 20 21  2  0
 21 22  1  0
 22 23  2  0
 23 24  1  0
 24 25  2  0
 25 26  1  0
 26 27  1  0
 27 28  2  0
 27 29  2  0
 27 30  1  0
 30 31  2  0
 31 32  1  0
 32 33  2  0
 33 34  1  0
 34 35  2  0
  7 36  1  0
 36 37  2  0
  2 38  1  0
 38 39  2  0
 39 40  1  0
 40 41  1  0
 40 42  2  0
 42 43  1  0
 43 44  1  0
 43 45  2  0
 45 46  1  0
 37  4  1  0
 45 38  1  0
 16  9  1  0
 25 20  1  0
 35 30  1  0
  5 47  1  0
  6 48  1  0
  8 49  1  0
  8 50  1  0
 10 51  1  0
 18 52  1  0
 18 53  1  0
 19 54  1  0
 19 55  1  0
 21 56  1  0
 22 57  1  0
 23 58  1  0
 24 59  1  0
 31 60  1  0
 32 61  1  0
 33 62  1  0
 34 63  1  0
 35 64  1  0
 36 65  1  0
 37 66  1  0
 39 67  1  0
 42 68  1  0
 46 69  1  0
M  CHG  4   3  -1  12   1  14  -1  26  -1
M  END
>  <UniqueID>  (92) 
84

>  <SMILES>  (92) 
O=C([N-]c1ccc(Cn2cc([N+](=O)[O-])nc2SCCc2ccccc2[N-]S(=O)(=O)c2ccccc2)cc1)c1cc(Cl)cc(Cl)c1O

>  <Energy>  (92) 
116.42019885620786

>  <Genealogy>  (92) 
O=C([N-]c1ccc(Cn2cc([N+](=O)[O-])nc2SCCc2ccccc2[N-]S(=O)(=O)c2ccccc2)cc1)c1cc(Cl)cc(Cl)c1O (protonated)
O=C([N-]c1ccc(Cn2cc([N+](=O)[O-])nc2SCCc2ccccc2[N-]S(=O)(=O)c2ccccc2)cc1)c1cc(Cl)cc(Cl)c1O (3D coordinates assigned)
O=C([N-]c1ccc(Cn2cc([N+](=O)[O-])nc2SCCc2ccccc2[N-]S(=O)(=O)c2ccccc2)cc1)c1cc(Cl)cc(Cl)c1O (optimized conformer: 116.42019885620786 kcal/mol)

>  <smiles>  (92) 
O=C(Nc1ccc(Cn2cc([N+](=O)[O-])nc2SCCc2ccccc2NS(=O)(=O)c2ccccc2)cc1)c1cc(Cl)cc(Cl)c1O

>  <score_type>  (92) 
oracle

>  <origin>  (92) 
adg

>  <m_score__min__energy>  (92) 
-13.869999999999999

>  <m_primary>  (92) 
energy

$$$$
92:0
     RDKit          3D

 50 53  0  0  0  0  0  0  0  0999 V2000
   58.4690   35.0660   44.6050 O   0  0  0  0  0  0  0  0  0  0  0  0
   59.0720   34.1830   45.2700 C   0  0  0  0  0  0  0  0  0  0  0  0
   59.5390   34.4920   46.6560 C   0  0  0  0  0  0  0  0  0  0  0  0
   60.5940   33.5070   47.0770 C   0  0  0  0  0  0  0  0  0  0  0  0
   60.2360   32.3470   47.7860 C   0  0  0  0  0  0  0  0  0  0  0  0
   61.2200   31.4450   48.2060 C   0  0  0  0  0  0  0  0  0  0  0  0
   60.8670   30.3280   48.8890 F   0  0  0  0  0  0  0  0  0  0  0  0
   62.5670   31.7000   47.9310 C   0  0  0  0  0  0  0  0  0  0  0  0
   62.9330   32.8580   47.2370 C   0  0  0  0  0  0  0  0  0  0  0  0
   64.2400   33.1070   46.9770 F   0  0  0  0  0  0  0  0  0  0  0  0
   61.9510   33.7620   46.8150 C   0  0  0  0  0  0  0  0  0  0  0  0
   59.2200   32.8510   44.7600 N   0  0  0  0  0  0  0  0  0  0  0  0
   58.2610   31.7870   44.8470 C   0  0  0  0  0  0  0  0  0  0  0  0
   56.9630   31.9080   44.3190 C   0  0  0  0  0  0  0  0  0  0  0  0
   56.0660   30.8390   44.3980 C   0  0  0  0  0  0  0  0  0  0  0  0
   56.4580   29.6350   44.9900 C   0  0  0  0  0  0  0  0  0  0  0  0
   55.5790   28.6010   45.0640 N   0  0  0  0  0  0  0  0  0  0  0  0
   55.9120   27.4080   45.6210 C   0  0  0  0  0  0  0  0  0  0  0  0
   54.9510   26.4060   45.6960 O   0  0  0  0  0  0  0  0  0  0  0  0
   57.2060   27.2020   46.1330 C   0  0  0  0  0  0  0  0  0  0  0  0
   57.5760   25.9000   46.7380 C   0  0  0  0  0  0  0  0  0  0  0  0
   58.2000   25.8940   47.8350 O   0  0  0  0  0  0  0  0  0  0  0  0
   57.2370   24.6520   46.1040 N   0  0  0  0  0  0  0  0  0  0  0  0
   57.0980   24.5610   44.6410 C   0  0  0  0  0  0  0  0  0  0  0  0
   57.7110   23.2510   44.1360 C   0  0  0  0  0  0  0  0  0  0  0  0
   57.1020   22.0110   44.8220 C   0  0  0  0  0  0  0  0  0  0  0  0
   56.4030   22.3180   46.1580 C   0  0  0  0  0  0  0  0  0  0  0  0
   57.1050   23.4420   46.9300 C   0  0  0  0  0  0  0  0  0  0  0  0
   58.1350   28.2590   46.0830 C   0  0  0  0  0  0  0  0  0  0  0  0
   59.3000   28.0980   46.5430 O   0  0  0  0  0  0  0  0  0  0  0  0
   57.7650   29.4910   45.5040 C   0  0  0  0  0  0  0  0  0  0  0  0
   58.6600   30.5720   45.4200 C   0  0  0  0  0  0  0  0  0  0  0  0
   59.9595   35.5082   46.6802 H   0  0  0  0  0  0  0  0  0  0  0  0
   58.6860   34.4235   47.3471 H   0  0  0  0  0  0  0  0  0  0  0  0
   59.1780   32.1476   48.0115 H   0  0  0  0  0  0  0  0  0  0  0  0
   63.3394   30.9895   48.2606 H   0  0  0  0  0  0  0  0  0  0  0  0
   62.2426   34.6756   46.2762 H   0  0  0  0  0  0  0  0  0  0  0  0
   56.6522   32.8489   43.8414 H   0  0  0  0  0  0  0  0  0  0  0  0
   55.0488   30.9455   43.9932 H   0  0  0  0  0  0  0  0  0  0  0  0
   56.0313   24.5905   44.3741 H   0  0  0  0  0  0  0  0  0  0  0  0
   57.6231   25.4080   44.1754 H   0  0  0  0  0  0  0  0  0  0  0  0
   57.5380   23.1753   43.0523 H   0  0  0  0  0  0  0  0  0  0  0  0
   58.7848   23.2709   44.3737 H   0  0  0  0  0  0  0  0  0  0  0  0
   56.3637   21.5650   44.1393 H   0  0  0  0  0  0  0  0  0  0  0  0
   57.9352   21.3290   45.0469 H   0  0  0  0  0  0  0  0  0  0  0  0
   55.3656   22.6216   45.9542 H   0  0  0  0  0  0  0  0  0  0  0  0
   56.4380   21.4087   46.7760 H   0  0  0  0  0  0  0  0  0  0  0  0
   56.5166   23.6827   47.8277 H   0  0  0  0  0  0  0  0  0  0  0  0
   58.1122   23.0979   47.2076 H   0  0  0  0  0  0  0  0  0  0  0  0
   59.6836   30.4630   45.8079 H   0  0  0  0  0  0  0  0  0  0  0  0
  1  2  2  0
  2  3  1  0
  3  4  1  0
  4  5  2  0
  5  6  1  0
  6  7  1  0
  6  8  2  0
  8  9  1  0
  9 10  1  0
  9 11  2  0
  2 12  1  0
 12 13  1  0
 13 14  2  0
 14 15  1  0
 15 16  2  0
 16 17  1  0
 17 18  1  0
 18 19  1  0
 18 20  2  0
 20 21  1  0
 21 22  2  0
 21 23  1  0
 23 24  1  0
 24 25  1  0
 25 26  1  0
 26 27  1  0
 27 28  1  0
 20 29  1  0
 29 30  2  0
 29 31  1  0
 31 32  2  0
 11  4  1  0
 32 13  1  0
 31 16  1  0
 28 23  1  0
  3 33  1  0
  3 34  1  0
  5 35  1  0
  8 36  1  0
 11 37  1  0
 14 38  1  0
 15 39  1  0
 24 40  1  0
 24 41  1  0
 25 42  1  0
 25 43  1  0
 26 44  1  0
 26 45  1  0
 27 46  1  0
 27 47  1  0
 28 48  1  0
 28 49  1  0
 32 50  1  0
M  CHG  3  12  -1  17  -1  19  -1
M  END
>  <UniqueID>  (93) 
85

>  <SMILES>  (93) 
O=C(Cc1cc(F)cc(F)c1)[N-]c1ccc2[n-]c([O-])c(C(=O)N3CCCCC3)c(=O)c2c1

>  <Energy>  (93) 
67.76889104812562

>  <Genealogy>  (93) 
O=C(Cc1cc(F)cc(F)c1)[N-]c1ccc2[n-]c([O-])c(C(=O)N3CCCCC3)c(=O)c2c1 (protonated)
O=C(Cc1cc(F)cc(F)c1)[N-]c1ccc2[n-]c([O-])c(C(=O)N3CCCCC3)c(=O)c2c1 (3D coordinates assigned)
O=C(Cc1cc(F)cc(F)c1)[N-]c1ccc2[n-]c([O-])c(C(=O)N3CCCCC3)c(=O)c2c1 (nonaromatic ring conformer: 67.76889104812562 kcal/mol)

>  <smiles>  (93) 
O=C(Cc1cc(F)cc(F)c1)Nc1ccc2[nH]c(O)c(C(=O)N3CCCCC3)c(=O)c2c1

>  <score_type>  (93) 
oracle

>  <origin>  (93) 
adg

>  <m_score__min__energy>  (93) 
-14.619999999999999

>  <m_primary>  (93) 
energy

$$$$
93:0
     RDKit          3D

 53 56  0  0  0  0  0  0  0  0999 V2000
   57.5880   31.1550   43.2040 O   0  0  0  0  0  0  0  0  0  0  0  0
   57.0430   30.6410   44.5080 S   0  0  0  0  0  0  0  0  0  0  0  0
   55.5500   30.8010   44.4970 O   0  0  0  0  0  0  0  0  0  0  0  0
   57.7040   31.5530   45.8340 N   0  0  0  0  0  0  0  0  0  0  0  0
   58.1050   32.8940   45.4070 C   0  0  0  0  0  0  0  0  0  0  0  0
   59.2160   33.4500   46.3010 C   0  0  0  0  0  0  0  0  0  0  0  0
   60.4770   32.8620   45.9790 O   0  0  0  0  0  0  0  0  0  0  0  0
   61.6250   32.8510   46.7920 C   0  0  0  0  0  0  0  0  0  0  0  0
   62.6250   33.8390   46.7000 C   0  0  0  0  0  0  0  0  0  0  0  0
   63.7220   33.8100   47.5600 C   0  0  0  0  0  0  0  0  0  0  0  0
   63.8230   32.7940   48.5060 C   0  0  0  0  0  0  0  0  0  0  0  0
   62.8650   31.8350   48.5760 N   0  0  0  0  0  0  0  0  0  0  0  0
   61.7850   31.8200   47.7440 C   0  0  0  0  0  0  0  0  0  0  0  0
   60.7900   30.7340   47.8960 C   0  0  0  0  0  0  0  0  0  0  0  0
   60.7660   29.6750   46.9710 C   0  0  0  0  0  0  0  0  0  0  0  0
   59.8250   28.6490   47.0960 C   0  0  0  0  0  0  0  0  0  0  0  0
   58.8900   28.6780   48.1340 C   0  0  0  0  0  0  0  0  0  0  0  0
   58.8920   29.7360   49.0470 C   0  0  0  0  0  0  0  0  0  0  0  0
   59.8330   30.7630   48.9280 C   0  0  0  0  0  0  0  0  0  0  0  0
   57.4380   28.9370   44.7050 C   0  0  0  0  0  0  0  0  0  0  0  0
   56.6000   28.1110   45.4650 C   0  0  0  0  0  0  0  0  0  0  0  0
   56.9130   26.7610   45.6440 C   0  0  0  0  0  0  0  0  0  0  0  0
   58.0810   26.2240   45.0740 C   0  0  0  0  0  0  0  0  0  0  0  0
   58.4250   24.8710   45.2180 O   0  0  0  0  0  0  0  0  0  0  0  0
   57.8610   23.8070   44.4970 C   0  0  0  0  0  0  0  0  0  0  0  0
   56.7370   24.0570   43.7000 C   0  0  0  0  0  0  0  0  0  0  0  0
   56.1570   23.0270   42.9510 C   0  0  0  0  0  0  0  0  0  0  0  0
   56.7060   21.7420   42.9860 C   0  0  0  0  0  0  0  0  0  0  0  0
   57.8400   21.4870   43.7630 C   0  0  0  0  0  0  0  0  0  0  0  0
   58.4210   22.5160   44.5120 C   0  0  0  0  0  0  0  0  0  0  0  0
   58.9060   27.0470   44.2990 C   0  0  0  0  0  0  0  0  0  0  0  0
   58.5930   28.3980   44.1210 C   0  0  0  0  0  0  0  0  0  0  0  0
   58.4688   32.8466   44.3700 H   0  0  0  0  0  0  0  0  0  0  0  0
   57.2320   33.5591   45.4816 H   0  0  0  0  0  0  0  0  0  0  0  0
   59.2805   34.5389   46.1589 H   0  0  0  0  0  0  0  0  0  0  0  0
   58.9756   33.2105   47.3473 H   0  0  0  0  0  0  0  0  0  0  0  0
   62.5400   34.6363   45.9469 H   0  0  0  0  0  0  0  0  0  0  0  0
   64.5011   34.5835   47.4915 H   0  0  0  0  0  0  0  0  0  0  0  0
   64.6788   32.7683   49.1966 H   0  0  0  0  0  0  0  0  0  0  0  0
   61.4917   29.6540   46.1446 H   0  0  0  0  0  0  0  0  0  0  0  0
   59.8205   27.8174   46.3760 H   0  0  0  0  0  0  0  0  0  0  0  0
   58.1523   27.8680   48.2325 H   0  0  0  0  0  0  0  0  0  0  0  0
   58.1520   29.7607   49.8605 H   0  0  0  0  0  0  0  0  0  0  0  0
   59.8256   31.5978   49.6443 H   0  0  0  0  0  0  0  0  0  0  0  0
   55.6908   28.5273   45.9233 H   0  0  0  0  0  0  0  0  0  0  0  0
   56.2437   26.1163   46.2326 H   0  0  0  0  0  0  0  0  0  0  0  0
   56.3075   25.0690   43.6625 H   0  0  0  0  0  0  0  0  0  0  0  0
   55.2687   23.2287   42.3344 H   0  0  0  0  0  0  0  0  0  0  0  0
   56.2458   20.9313   42.4021 H   0  0  0  0  0  0  0  0  0  0  0  0
   58.2755   20.4771   43.7854 H   0  0  0  0  0  0  0  0  0  0  0  0
   59.3189   22.3152   45.1149 H   0  0  0  0  0  0  0  0  0  0  0  0
   59.8068   26.6281   43.8267 H   0  0  0  0  0  0  0  0  0  0  0  0
   59.2549   29.0399   43.5210 H   0  0  0  0  0  0  0  0  0  0  0  0
  1  2  2  0
  2  3  2  0
  2  4  1  0
  4  5  1  0
  5  6  1  0
  6  7  1  0
  7  8  1  0
  8  9  2  0
  9 10  1  0
 10 11  2  0
 11 12  1  0
 12 13  2  0
 13 14  1  0
 14 15  2  0
 15 16  1  0
 16 17  2  0
 17 18  1  0
 18 19  2  0
  2 20  1  0
 20 21  2  0
 21 22  1  0
 22 23  2  0
 23 24  1  0
 24 25  1  0
 25 26  2  0
 26 27  1  0
 27 28  2  0
 28 29  1  0
 29 30  2  0
 23 31  1  0
 31 32  2  0
 13  8  1  0
 19 14  1  0
 32 20  1  0
 30 25  1  0
  5 33  1  0
  5 34  1  0
  6 35  1  0
  6 36  1  0
  9 37  1  0
 10 38  1  0
 11 39  1  0
 15 40  1  0
 16 41  1  0
 17 42  1  0
 18 43  1  0
 19 44  1  0
 21 45  1  0
 22 46  1  0
 26 47  1  0
 27 48  1  0
 28 49  1  0
 29 50  1  0
 30 51  1  0
 31 52  1  0
 32 53  1  0
M  CHG  1   4  -1
M  END
>  <UniqueID>  (94) 
86

>  <SMILES>  (94) 
O=S(=O)([N-]CCOc1cccnc1-c1ccccc1)c1ccc(Oc2ccccc2)cc1

>  <Energy>  (94) 
69.82600754755916

>  <Genealogy>  (94) 
O=S(=O)([N-]CCOc1cccnc1-c1ccccc1)c1ccc(Oc2ccccc2)cc1 (protonated)
O=S(=O)([N-]CCOc1cccnc1-c1ccccc1)c1ccc(Oc2ccccc2)cc1 (3D coordinates assigned)
O=S(=O)([N-]CCOc1cccnc1-c1ccccc1)c1ccc(Oc2ccccc2)cc1 (optimized conformer: 69.82600754755916 kcal/mol)

>  <smiles>  (94) 
O=S(=O)(NCCOc1cccnc1-c1ccccc1)c1ccc(Oc2ccccc2)cc1

>  <score_type>  (94) 
oracle

>  <origin>  (94) 
adg

>  <m_score__min__energy>  (94) 
-10.029999999999999

>  <m_primary>  (94) 
energy

$$$$
