0:0
     RDKit          3D

 34 36  0  0  0  0  0  0  0  0999 V2000
   60.1895   28.7464   49.1954 H   0  0  0  0  0  0  0  0  0  0  0  0
   59.9400   29.1940   48.2220 C   0  0  0  0  0  0  0  0  0  0  0  0
   58.7280   28.6740   47.1760 S   0  0  0  0  0  0  0  0  0  0  0  0
   59.0530   29.8590   46.0330 C   0  0  0  0  0  0  0  0  0  0  0  0
   58.3710   29.9750   44.9290 N   0  0  0  0  0  0  0  0  0  0  0  0
   57.4240   30.9830   44.5400 C   0  0  0  0  0  0  0  0  0  0  0  0
   56.1980   30.8850   44.8100 O   0  0  0  0  0  0  0  0  0  0  0  0
   57.9080   32.1560   43.7460 C   0  0  0  0  0  0  0  0  0  0  0  0
   57.4893   32.0995   42.7304 H   0  0  0  0  0  0  0  0  0  0  0  0
   59.0071   32.1260   43.7139 H   0  0  0  0  0  0  0  0  0  0  0  0
   57.3930   33.7320   44.5170 S   0  0  0  0  0  0  0  0  0  0  0  0
   58.6080   33.6720   45.8320 C   0  0  0  0  0  0  0  0  0  0  0  0
   59.9400   33.5560   45.6090 N   0  0  0  0  0  0  0  0  0  0  0  0
   60.6260   33.5860   46.7800 C   0  0  0  0  0  0  0  0  0  0  0  0
   62.0140   33.5100   46.8770 C   0  0  0  0  0  0  0  0  0  0  0  0
   62.6304   33.4038   45.9721 H   0  0  0  0  0  0  0  0  0  0  0  0
   62.6200   33.5710   48.1520 C   0  0  0  0  0  0  0  0  0  0  0  0
   64.1190   33.4720   48.2530 C   0  0  0  0  0  0  0  0  0  0  0  0
   64.4146   33.4525   49.3123 H   0  0  0  0  0  0  0  0  0  0  0  0
   64.4596   32.5494   47.7602 H   0  0  0  0  0  0  0  0  0  0  0  0
   64.5779   34.3418   47.7602 H   0  0  0  0  0  0  0  0  0  0  0  0
   61.8070   33.6880   49.3190 C   0  0  0  0  0  0  0  0  0  0  0  0
   62.4200   33.7630   50.6930 C   0  0  0  0  0  0  0  0  0  0  0  0
   61.6303   33.6664   51.4526 H   0  0  0  0  0  0  0  0  0  0  0  0
   63.1477   32.9472   50.8149 H   0  0  0  0  0  0  0  0  0  0  0  0
   62.9296   34.7302   50.8149 H   0  0  0  0  0  0  0  0  0  0  0  0
   60.4060   33.7780   49.1890 C   0  0  0  0  0  0  0  0  0  0  0  0
   59.7659   33.8925   50.0762 H   0  0  0  0  0  0  0  0  0  0  0  0
   59.8510   33.7190   47.9170 C   0  0  0  0  0  0  0  0  0  0  0  0
   58.2330   33.8040   47.4780 S   0  0  0  0  0  0  0  0  0  0  0  0
   60.0750   30.6580   46.4290 N   0  0  0  0  0  0  0  0  0  0  0  0
   60.4750   31.4630   45.9000 H   0  0  0  0  0  0  0  0  0  0  0  0
   60.5710   30.2890   47.6400 C   0  0  0  0  0  0  0  0  0  0  0  0
   61.4073   30.8159   48.1227 H   0  0  0  0  0  0  0  0  0  0  0  0
  1  2  1  0
  2  3  1  0
  3  4  1  0
  4  5  2  0
  5  6  1  0
  6  7  2  0
  6  8  1  0
  8  9  1  0
  8 10  1  0
  8 11  1  0
 11 12  1  0
 12 13  2  0
 13 14  1  0
 14 15  2  0
 15 16  1  0
 15 17  1  0
 17 18  1  0
 18 19  1  0
 18 20  1  0
 18 21  1  0
 17 22  2  0
 22 23  1  0
 23 24  1  0
 23 25  1  0
 23 26  1  0
 22 27  1  0
 27 28  1  0
 27 29  2  0
 29 30  1  0
  4 31  1  0
 31 32  1  0
 31 33  1  0
 33 34  1  0
 33  2  2  0
 30 12  1  0
 29 14  1  0
M  END
>  <UniqueID>  (1) 
1

>  <SMILES>  (1) 
Cc1cc2nc(SCC(=O)/N=c3\[nH]ccs3)sc2cc1C

>  <Energy>  (1) 
99.14112999114016

>  <Genealogy>  (1) 
Cc1cc2nc(SCC(=O)/N=c3\[nH]ccs3)sc2cc1C (cis-trans isomerization)
Cc1cc2nc(SCC(=O)/N=c3\[nH]ccs3)sc2cc1C (3D coordinates assigned)
Cc1cc2nc(SCC(=O)/N=c3\[nH]ccs3)sc2cc1C (optimized conformer: 99.14112999114016 kcal/mol)

>  <smiles>  (1) 
Cc1cc2nc(SCC(=O)N=c3[nH]ccs3)sc2cc1C

>  <score_type>  (1) 
oracle

>  <origin>  (1) 
adg

>  <m_score__min__energy>  (1) 
-7.7199999999999998

>  <m_primary>  (1) 
energy

$$$$
1:0
     RDKit          3D

 48 51  0  0  0  0  0  0  0  0999 V2000
   58.0860   27.8900   43.7660 O   0  0  0  0  0  0  0  0  0  0  0  0
   57.7660   28.2600   44.9280 C   0  0  0  0  0  0  0  0  0  0  0  0
   57.4260   27.2800   45.9250 N   0  0  0  0  0  0  0  0  0  0  0  0
   57.0440   25.9270   45.6130 C   0  0  0  0  0  0  0  0  0  0  0  0
   57.9840   25.0150   45.2350 N   0  0  0  0  0  0  0  0  0  0  0  0
   57.6500   23.7370   44.9210 C   0  0  0  0  0  0  0  0  0  0  0  0
   58.6310   22.8160   44.5380 C   0  0  0  0  0  0  0  0  0  0  0  0
   58.2670   21.5040   44.2170 C   0  0  0  0  0  0  0  0  0  0  0  0
   56.9240   21.1110   44.2770 C   0  0  0  0  0  0  0  0  0  0  0  0
   55.9390   22.0290   44.6590 C   0  0  0  0  0  0  0  0  0  0  0  0
   56.2990   23.3420   44.9810 C   0  0  0  0  0  0  0  0  0  0  0  0
   55.3580   24.2490   45.3510 N   0  0  0  0  0  0  0  0  0  0  0  0
   55.6940   25.5280   45.6660 C   0  0  0  0  0  0  0  0  0  0  0  0
   54.7930   26.3390   46.0050 O   0  0  0  0  0  0  0  0  0  0  0  0
   57.7860   29.7070   45.2580 C   0  0  0  0  0  0  0  0  0  0  0  0
   57.0810   30.6220   44.4570 C   0  0  0  0  0  0  0  0  0  0  0  0
   57.0850   31.9850   44.7650 C   0  0  0  0  0  0  0  0  0  0  0  0
   57.7750   32.4600   45.8910 C   0  0  0  0  0  0  0  0  0  0  0  0
   57.7690   33.9390   46.2230 C   0  0  0  0  0  0  0  0  0  0  0  0
   59.0510   34.4350   46.7750 N   0  0  0  0  0  0  0  0  0  0  0  0
   60.2250   34.2260   45.8910 C   0  0  0  0  0  0  0  0  0  0  0  0
   61.1960   33.1760   46.4460 C   0  0  0  0  0  0  0  0  0  0  0  0
   61.7120   33.5770   47.8400 C   0  0  0  0  0  0  0  0  0  0  0  0
   60.6890   34.4040   48.6420 C   0  0  0  0  0  0  0  0  0  0  0  0
   59.2580   34.0870   48.2000 C   0  0  0  0  0  0  0  0  0  0  0  0
   58.4920   31.5500   46.6830 C   0  0  0  0  0  0  0  0  0  0  0  0
   58.4900   30.1860   46.3770 C   0  0  0  0  0  0  0  0  0  0  0  0
   57.4920   27.5590   46.9300 H   0  0  0  0  0  0  0  0  0  0  0  0
   59.6862   23.1229   44.4894 H   0  0  0  0  0  0  0  0  0  0  0  0
   59.0377   20.7789   43.9166 H   0  0  0  0  0  0  0  0  0  0  0  0
   56.6427   20.0783   44.0233 H   0  0  0  0  0  0  0  0  0  0  0  0
   54.8846   21.7190   44.7059 H   0  0  0  0  0  0  0  0  0  0  0  0
   56.5217   30.2622   43.5808 H   0  0  0  0  0  0  0  0  0  0  0  0
   56.5428   32.6916   44.1195 H   0  0  0  0  0  0  0  0  0  0  0  0
   57.5480   34.4997   45.3028 H   0  0  0  0  0  0  0  0  0  0  0  0
   57.0067   34.0885   47.0018 H   0  0  0  0  0  0  0  0  0  0  0  0
   59.8696   33.8922   44.9050 H   0  0  0  0  0  0  0  0  0  0  0  0
   60.7671   35.1807   45.8223 H   0  0  0  0  0  0  0  0  0  0  0  0
   60.6756   32.2097   46.5203 H   0  0  0  0  0  0  0  0  0  0  0  0
   62.0560   33.1018   45.7642 H   0  0  0  0  0  0  0  0  0  0  0  0
   61.9442   32.6622   48.4050 H   0  0  0  0  0  0  0  0  0  0  0  0
   62.6033   34.2051   47.6944 H   0  0  0  0  0  0  0  0  0  0  0  0
   60.7955   34.1685   49.7112 H   0  0  0  0  0  0  0  0  0  0  0  0
   60.8829   35.4715   48.4606 H   0  0  0  0  0  0  0  0  0  0  0  0
   59.0688   33.0123   48.3386 H   0  0  0  0  0  0  0  0  0  0  0  0
   58.5635   34.6834   48.8099 H   0  0  0  0  0  0  0  0  0  0  0  0
   59.0604   31.9131   47.5519 H   0  0  0  0  0  0  0  0  0  0  0  0
   59.0432   29.4822   47.0163 H   0  0  0  0  0  0  0  0  0  0  0  0
  1  2  2  0
  2  3  1  0
  3  4  1  0
  4  5  2  0
  5  6  1  0
  6  7  2  0
  7  8  1  0
  8  9  2  0
  9 10  1  0
 10 11  2  0
 11 12  1  0
 12 13  1  0
 13 14  2  0
  2 15  1  0
 15 16  2  0
 16 17  1  0
 17 18  2  0
 18 19  1  0
 19 20  1  0
 20 21  1  0
 21 22  1  0
 22 23  1  0
 23 24  1  0
 24 25  1  0
 18 26  1  0
 26 27  2  0
 13  4  1  0
 27 15  1  0
 11  6  1  0
 25 20  1  0
  3 28  1  0
  7 29  1  0
  8 30  1  0
  9 31  1  0
 10 32  1  0
 16 33  1  0
 17 34  1  0
 19 35  1  0
 19 36  1  0
 21 37  1  0
 21 38  1  0
 22 39  1  0
 22 40  1  0
 23 41  1  0
 23 42  1  0
 24 43  1  0
 24 44  1  0
 25 45  1  0
 25 46  1  0
 26 47  1  0
 27 48  1  0
M  CHG  1  12  -1
M  END
>  <UniqueID>  (2) 
2

>  <SMILES>  (2) 
O=C(Nc1nc2ccccc2[n-]c1=O)c1ccc(CN2CCCCC2)cc1

>  <Energy>  (2) 
68.86260759850465

>  <Genealogy>  (2) 
O=C(Nc1nc2ccccc2[n-]c1=O)c1ccc(CN2CCCCC2)cc1 (protonated)
O=C(Nc1nc2ccccc2[n-]c1=O)c1ccc(CN2CCCCC2)cc1 (3D coordinates assigned)
O=C(Nc1nc2ccccc2[n-]c1=O)c1ccc(CN2CCCCC2)cc1 (nonaromatic ring conformer: 68.86260759850465 kcal/mol)

>  <smiles>  (2) 
O=C(Nc1nc2ccccc2[nH]c1=O)c1ccc(CN2CCCCC2)cc1

>  <score_type>  (2) 
oracle

>  <origin>  (2) 
adg

>  <m_score__min__energy>  (2) 
-10.41

>  <m_primary>  (2) 
energy

$$$$
2:0
     RDKit          3D

 43 45  0  0  0  0  0  0  0  0999 V2000
   59.2680   35.3910   46.1800 O   0  0  0  0  0  0  0  0  0  0  0  0
   59.2920   34.2600   46.7330 C   0  0  0  0  0  0  0  0  0  0  0  0
   60.0050   34.1160   47.9690 N   0  0  0  0  0  0  0  0  0  0  0  0
   61.3900   33.7670   48.1120 C   0  0  0  0  0  0  0  0  0  0  0  0
   62.1260   33.4330   46.9680 C   0  0  0  0  0  0  0  0  0  0  0  0
   63.4820   33.1030   47.0730 C   0  0  0  0  0  0  0  0  0  0  0  0
   64.1130   33.1190   48.3190 C   0  0  0  0  0  0  0  0  0  0  0  0
   63.3910   33.4740   49.4630 C   0  0  0  0  0  0  0  0  0  0  0  0
   62.0360   33.8050   49.3620 C   0  0  0  0  0  0  0  0  0  0  0  0
   58.6340   33.1100   46.0660 C   0  0  0  0  0  0  0  0  0  0  0  0
   57.8390   33.2990   44.9220 C   0  0  0  0  0  0  0  0  0  0  0  0
   57.2220   32.2100   44.3010 C   0  0  0  0  0  0  0  0  0  0  0  0
   57.3780   30.9200   44.8220 C   0  0  0  0  0  0  0  0  0  0  0  0
   56.6040   29.5420   44.0440 S   0  0  0  0  0  0  0  0  0  0  0  0
   55.5280   30.0140   43.1070 O   0  0  0  0  0  0  0  0  0  0  0  0
   57.6360   28.7790   43.2620 O   0  0  0  0  0  0  0  0  0  0  0  0
   55.9050   28.4940   45.2420 N   0  0  0  0  0  0  0  0  0  0  0  0
   56.8530   27.4590   45.6690 C   0  0  0  0  0  0  0  0  0  0  0  0
   56.1250   26.3210   46.4030 C   0  0  2  0  0  0  0  0  0  0  0  0
   56.8060   24.9670   46.2050 C   0  0  0  0  0  0  0  0  0  0  0  0
   55.8670   24.2310   45.3000 C   0  0  0  0  0  0  0  0  0  0  0  0
   54.5440   24.9190   45.5520 C   0  0  0  0  0  0  0  0  0  0  0  0
   54.7880   26.2460   45.9550 O   0  0  0  0  0  0  0  0  0  0  0  0
   58.1590   30.7270   45.9690 C   0  0  0  0  0  0  0  0  0  0  0  0
   58.7780   31.8150   46.5910 C   0  0  0  0  0  0  0  0  0  0  0  0
   61.6362   33.4301   45.9831 H   0  0  0  0  0  0  0  0  0  0  0  0
   64.0520   32.8305   46.1725 H   0  0  0  0  0  0  0  0  0  0  0  0
   65.1771   32.8526   48.4005 H   0  0  0  0  0  0  0  0  0  0  0  0
   63.8895   33.4929   50.4434 H   0  0  0  0  0  0  0  0  0  0  0  0
   61.4737   34.0958   50.2616 H   0  0  0  0  0  0  0  0  0  0  0  0
   57.7018   34.3109   44.5131 H   0  0  0  0  0  0  0  0  0  0  0  0
   56.6115   32.3668   43.3995 H   0  0  0  0  0  0  0  0  0  0  0  0
   57.3626   27.0496   44.7843 H   0  0  0  0  0  0  0  0  0  0  0  0
   57.5831   27.9115   46.3562 H   0  0  0  0  0  0  0  0  0  0  0  0
   56.1573   26.5522   47.4779 H   0  0  0  0  0  0  0  0  0  0  0  0
   57.7922   25.0884   45.7332 H   0  0  0  0  0  0  0  0  0  0  0  0
   56.9904   24.4382   47.1518 H   0  0  0  0  0  0  0  0  0  0  0  0
   56.1712   24.3320   44.2477 H   0  0  0  0  0  0  0  0  0  0  0  0
   55.8370   23.1486   45.4935 H   0  0  0  0  0  0  0  0  0  0  0  0
   53.9457   24.9178   44.6289 H   0  0  0  0  0  0  0  0  0  0  0  0
   53.9917   24.3863   46.3402 H   0  0  0  0  0  0  0  0  0  0  0  0
   58.2856   29.7152   46.3817 H   0  0  0  0  0  0  0  0  0  0  0  0
   59.3814   31.6562   47.4969 H   0  0  0  0  0  0  0  0  0  0  0  0
  1  2  2  0
  2  3  1  0
  3  4  1  0
  4  5  2  0
  5  6  1  0
  6  7  2  0
  7  8  1  0
  8  9  2  0
  2 10  1  0
 10 11  2  0
 11 12  1  0
 12 13  2  0
 13 14  1  0
 14 15  2  0
 14 16  2  0
 14 17  1  0
 17 18  1  0
 18 19  1  0
 19 20  1  0
 20 21  1  0
 21 22  1  0
 22 23  1  0
 13 24  1  0
 24 25  2  0
  9  4  1  0
 25 10  1  0
 23 19  1  0
  5 26  1  0
  6 27  1  0
  7 28  1  0
  8 29  1  0
  9 30  1  0
 11 31  1  0
 12 32  1  0
 18 33  1  0
 18 34  1  0
 19 35  1  1
 20 36  1  0
 20 37  1  0
 21 38  1  0
 21 39  1  0
 22 40  1  0
 22 41  1  0
 24 42  1  0
 25 43  1  0
M  CHG  2   3  -1  17  -1
M  END
>  <UniqueID>  (3) 
3

>  <SMILES>  (3) 
O=C([N-]c1ccccc1)c1ccc(S(=O)(=O)[N-]C[C@@H]2CCCO2)cc1

>  <Energy>  (3) 
50.031005878082816

>  <Genealogy>  (3) 
O=C([N-]c1ccccc1)c1ccc(S(=O)(=O)[N-]CC2CCCO2)cc1 (protonated)
O=C([N-]c1ccccc1)c1ccc(S(=O)(=O)[N-]C[C@@H]2CCCO2)cc1 (chirality)
O=C([N-]c1ccccc1)c1ccc(S(=O)(=O)[N-]C[C@@H]2CCCO2)cc1 (3D coordinates assigned)
O=C([N-]c1ccccc1)c1ccc(S(=O)(=O)[N-]C[C@@H]2CCCO2)cc1 (nonaromatic ring conformer: 50.031005878082816 kcal/mol)

>  <smiles>  (3) 
O=C(Nc1ccccc1)c1ccc(S(=O)(=O)NCC2CCCO2)cc1

>  <score_type>  (3) 
oracle

>  <origin>  (3) 
adg

>  <m_score__min__energy>  (3) 
-11.949999999999999

>  <m_primary>  (3) 
energy

$$$$
3:0
     RDKit          3D

 36 38  0  0  0  0  0  0  0  0999 V2000
   56.6680   33.3910   47.0030 O   0  0  0  0  0  0  0  0  0  0  0  0
   57.6160   33.2930   46.1770 C   0  0  0  0  0  0  0  0  0  0  0  0
   57.2840   32.9530   44.7450 C   0  0  0  0  0  0  0  0  0  0  0  0
   57.9900   31.6670   44.2990 C   0  0  0  0  0  0  0  0  0  0  0  0
   57.2130   30.4890   44.6740 N   0  0  0  0  0  0  0  0  0  0  0  0
   57.6930   29.3280   45.1500 C   0  0  0  0  0  0  0  0  0  0  0  0
   56.6070   28.4900   45.2620 C   0  0  0  0  0  0  0  0  0  0  0  0
   56.6130   27.0870   45.7800 C   0  0  0  0  0  0  0  0  0  0  0  0
   55.3010   26.6610   46.0280 O   0  0  0  0  0  0  0  0  0  0  0  0
   55.5040   29.1600   44.8740 N   0  0  0  0  0  0  0  0  0  0  0  0
   55.9050   30.3710   44.5120 N   0  0  0  0  0  0  0  0  0  0  0  0
   58.9800   33.4450   46.6300 N   0  0  0  0  0  0  0  0  0  0  0  0
   59.4710   32.6280   47.7550 C   0  0  0  0  0  0  0  0  0  0  0  0
   60.9770   32.5900   47.8720 C   0  0  0  0  0  0  0  0  0  0  0  0
   61.5780   31.6390   48.7130 C   0  0  0  0  0  0  0  0  0  0  0  0
   62.9640   31.6300   48.8950 C   0  0  0  0  0  0  0  0  0  0  0  0
   63.7600   32.5790   48.2500 C   0  0  0  0  0  0  0  0  0  0  0  0
   63.1720   33.5380   47.4220 C   0  0  0  0  0  0  0  0  0  0  0  0
   61.7850   33.5470   47.2310 C   0  0  0  0  0  0  0  0  0  0  0  0
   61.2010   34.5200   46.3720 N   0  0  0  0  0  0  0  0  0  0  0  0
   59.8120   34.4760   46.0620 C   0  0  0  0  0  0  0  0  0  0  0  0
   59.3280   35.3460   45.2910 O   0  0  0  0  0  0  0  0  0  0  0  0
   56.1966   32.8152   44.6524 H   0  0  0  0  0  0  0  0  0  0  0  0
   57.6281   33.7779   44.1038 H   0  0  0  0  0  0  0  0  0  0  0  0
   58.1131   31.6842   43.2060 H   0  0  0  0  0  0  0  0  0  0  0  0
   58.9702   31.6140   44.7953 H   0  0  0  0  0  0  0  0  0  0  0  0
   58.7388   29.0951   45.3990 H   0  0  0  0  0  0  0  0  0  0  0  0
   57.0757   26.4251   45.0331 H   0  0  0  0  0  0  0  0  0  0  0  0
   57.1871   27.0512   46.7176 H   0  0  0  0  0  0  0  0  0  0  0  0
   54.7690   27.4780   46.2200 H   0  0  0  0  0  0  0  0  0  0  0  0
   59.0613   33.0417   48.6883 H   0  0  0  0  0  0  0  0  0  0  0  0
   59.1388   31.5959   47.5692 H   0  0  0  0  0  0  0  0  0  0  0  0
   60.9540   30.8964   49.2318 H   0  0  0  0  0  0  0  0  0  0  0  0
   63.4279   30.8749   49.5467 H   0  0  0  0  0  0  0  0  0  0  0  0
   64.8505   32.5713   48.3941 H   0  0  0  0  0  0  0  0  0  0  0  0
   63.8001   34.2879   46.9188 H   0  0  0  0  0  0  0  0  0  0  0  0
  1  2  2  0
  2  3  1  0
  3  4  1  0
  4  5  1  0
  5  6  1  0
  6  7  2  0
  7  8  1  0
  8  9  1  0
  7 10  1  0
 10 11  2  0
  2 12  1  0
 12 13  1  0
 13 14  1  0
 14 15  2  0
 15 16  1  0
 16 17  2  0
 17 18  1  0
 18 19  2  0
 19 20  1  0
 20 21  1  0
 21 22  2  0
 11  5  1  0
 21 12  1  0
 19 14  1  0
  3 23  1  0
  3 24  1  0
  4 25  1  0
  4 26  1  0
  6 27  1  0
  8 28  1  0
  8 29  1  0
  9 30  1  0
 13 31  1  0
 13 32  1  0
 15 33  1  0
 16 34  1  0
 17 35  1  0
 18 36  1  0
M  CHG  1  20  -1
M  END
>  <UniqueID>  (4) 
4

>  <SMILES>  (4) 
O=C(CCn1cc(CO)nn1)N1Cc2ccccc2[N-]C1=O

>  <Energy>  (4) 
70.6789936702712

>  <Genealogy>  (4) 
O=C(CCn1cc(CO)nn1)N1Cc2ccccc2[N-]C1=O (protonated)
O=C(CCn1cc(CO)nn1)N1Cc2ccccc2[N-]C1=O (3D coordinates assigned)
O=C(CCn1cc(CO)nn1)N1Cc2ccccc2[N-]C1=O (nonaromatic ring conformer: 70.6789936702712 kcal/mol)

>  <smiles>  (4) 
O=C(CCn1cc(CO)nn1)N1Cc2ccccc2NC1=O

>  <score_type>  (4) 
oracle

>  <origin>  (4) 
adg

>  <m_score__min__energy>  (4) 
-9.6099999999999994

>  <m_primary>  (4) 
energy

$$$$
4:0
     RDKit          3D

 53 57  0  0  0  0  0  0  0  0999 V2000
   62.9340   34.0030   47.0600 O   0  0  0  0  0  0  0  0  0  0  0  0
   62.1970   33.6730   48.0260 C   0  0  0  0  0  0  0  0  0  0  0  0
   62.2900   34.2590   49.2480 N   0  0  0  0  0  0  0  0  0  0  0  0
   61.3270   33.6190   49.9380 C   0  0  0  0  0  0  0  0  0  0  0  0
   60.9810   33.8440   51.2260 N   0  0  0  0  0  0  0  0  0  0  0  0
   59.9600   33.1190   51.7760 C   0  0  0  0  0  0  0  0  0  0  0  0
   59.2610   32.1450   51.0090 C   0  0  0  0  0  0  0  0  0  0  0  0
   58.1440   31.3680   51.6040 C   0  0  0  0  0  0  0  0  0  0  0  0
   58.3420   30.0370   52.0220 C   0  0  0  0  0  0  0  0  0  0  0  0
   57.2880   29.3090   52.5830 C   0  0  0  0  0  0  0  0  0  0  0  0
   56.0310   29.8970   52.7370 C   0  0  0  0  0  0  0  0  0  0  0  0
   55.8230   31.2170   52.3270 C   0  0  0  0  0  0  0  0  0  0  0  0
   56.8720   31.9500   51.7620 C   0  0  0  0  0  0  0  0  0  0  0  0
   59.6440   31.9310   49.6630 C   0  0  0  0  0  0  0  0  0  0  0  0
   60.6920   32.6980   49.1650 C   0  0  0  0  0  0  0  0  0  0  0  0
   61.2390   32.7130   47.9380 N   0  0  0  0  0  0  0  0  0  0  0  0
   60.8370   31.9430   46.7600 C   0  0  0  0  0  0  0  0  0  0  0  0
   59.6420   32.5810   46.1010 C   0  0  0  0  0  0  0  0  0  0  0  0
   59.6420   33.9580   45.8300 C   0  0  0  0  0  0  0  0  0  0  0  0
   58.5260   34.5580   45.2440 C   0  0  0  0  0  0  0  0  0  0  0  0
   57.4040   33.7930   44.9200 C   0  0  0  0  0  0  0  0  0  0  0  0
   57.3930   32.4110   45.1790 C   0  0  0  0  0  0  0  0  0  0  0  0
   56.2660   31.5840   44.8610 N   0  0  0  0  0  0  0  0  0  0  0  0
   56.3520   30.0260   44.1050 S   0  0  0  0  0  0  0  0  0  0  0  0
   55.8600   30.1030   42.6860 O   0  0  0  0  0  0  0  0  0  0  0  0
   55.5090   29.0510   44.8780 O   0  0  0  0  0  0  0  0  0  0  0  0
   57.9980   29.4770   44.1100 N   0  0  0  0  0  0  0  0  0  0  0  0
   58.6060   28.7740   45.2080 C   0  0  0  0  0  0  0  0  0  0  0  0
   59.8490   28.1210   45.0800 C   0  0  0  0  0  0  0  0  0  0  0  0
   60.4080   27.4440   46.1670 C   0  0  0  0  0  0  0  0  0  0  0  0
   59.7390   27.4090   47.3920 C   0  0  0  0  0  0  0  0  0  0  0  0
   58.5070   28.0530   47.5320 C   0  0  0  0  0  0  0  0  0  0  0  0
   57.9420   28.7280   46.4450 C   0  0  0  0  0  0  0  0  0  0  0  0
   58.5140   31.8150   45.7700 C   0  0  0  0  0  0  0  0  0  0  0  0
   59.6754   33.2909   52.8246 H   0  0  0  0  0  0  0  0  0  0  0  0
   59.3304   29.5683   51.9065 H   0  0  0  0  0  0  0  0  0  0  0  0
   57.4498   28.2694   52.9041 H   0  0  0  0  0  0  0  0  0  0  0  0
   55.2050   29.3218   53.1807 H   0  0  0  0  0  0  0  0  0  0  0  0
   54.8328   31.6802   52.4488 H   0  0  0  0  0  0  0  0  0  0  0  0
   56.7018   32.9877   51.4392 H   0  0  0  0  0  0  0  0  0  0  0  0
   59.1324   31.1867   49.0351 H   0  0  0  0  0  0  0  0  0  0  0  0
   61.6721   31.9116   46.0447 H   0  0  0  0  0  0  0  0  0  0  0  0
   60.5705   30.9228   47.0733 H   0  0  0  0  0  0  0  0  0  0  0  0
   60.5238   34.5662   46.0800 H   0  0  0  0  0  0  0  0  0  0  0  0
   58.5307   35.6383   45.0366 H   0  0  0  0  0  0  0  0  0  0  0  0
   56.5267   34.2724   44.4611 H   0  0  0  0  0  0  0  0  0  0  0  0
   58.5650   29.6740   43.2550 H   0  0  0  0  0  0  0  0  0  0  0  0
   60.3822   28.1447   44.1181 H   0  0  0  0  0  0  0  0  0  0  0  0
   61.3781   26.9371   46.0573 H   0  0  0  0  0  0  0  0  0  0  0  0
   60.1814   26.8750   48.2459 H   0  0  0  0  0  0  0  0  0  0  0  0
   57.9810   28.0292   48.4978 H   0  0  0  0  0  0  0  0  0  0  0  0
   56.9687   29.2274   46.5599 H   0  0  0  0  0  0  0  0  0  0  0  0
   58.5102   30.7347   45.9770 H   0  0  0  0  0  0  0  0  0  0  0  0
  1  2  2  0
  2  3  1  0
  3  4  1  0
  4  5  2  0
  5  6  1  0
  6  7  2  0
  7  8  1  0
  8  9  2  0
  9 10  1  0
 10 11  2  0
 11 12  1  0
 12 13  2  0
  7 14  1  0
 14 15  2  0
 15 16  1  0
 16 17  1  0
 17 18  1  0
 18 19  2  0
 19 20  1  0
 20 21  2  0
 21 22  1  0
 22 23  1  0
 23 24  1  0
 24 25  2  0
 24 26  2  0
 24 27  1  0
 27 28  1  0
 28 29  2  0
 29 30  1  0
 30 31  2  0
 31 32  1  0
 32 33  2  0
 22 34  2  0
 16  2  1  0
 34 18  1  0
 15  4  1  0
 33 28  1  0
 13  8  1  0
  6 35  1  0
  9 36  1  0
 10 37  1  0
 11 38  1  0
 12 39  1  0
 13 40  1  0
 14 41  1  0
 17 42  1  0
 17 43  1  0
 19 44  1  0
 20 45  1  0
 21 46  1  0
 27 47  1  0
 29 48  1  0
 30 49  1  0
 31 50  1  0
 32 51  1  0
 33 52  1  0
 34 53  1  0
M  CHG  2   3  -1  23  -1
M  END
>  <UniqueID>  (5) 
5

>  <SMILES>  (5) 
O=c1[n-]c2ncc(-c3ccccc3)cc2n1Cc1cccc([N-]S(=O)(=O)Nc2ccccc2)c1

>  <Energy>  (5) 
108.52641819921625

>  <Genealogy>  (5) 
O=c1[n-]c2ncc(-c3ccccc3)cc2n1Cc1cccc([N-]S(=O)(=O)Nc2ccccc2)c1 (protonated)
O=c1[n-]c2ncc(-c3ccccc3)cc2n1Cc1cccc([N-]S(=O)(=O)Nc2ccccc2)c1 (3D coordinates assigned)
O=c1[n-]c2ncc(-c3ccccc3)cc2n1Cc1cccc([N-]S(=O)(=O)Nc2ccccc2)c1 (optimized conformer: 108.52641819921625 kcal/mol)

>  <smiles>  (5) 
O=c1[nH]c2ncc(-c3ccccc3)cc2n1Cc1cccc(NS(=O)(=O)Nc2ccccc2)c1

>  <score_type>  (5) 
oracle

>  <origin>  (5) 
adg

>  <m_score__min__energy>  (5) 
-14.300000000000001

>  <m_primary>  (5) 
energy

$$$$
5:0
     RDKit          3D

 54 56  0  0  0  0  0  0  0  0999 V2000
   55.3330   29.8290   43.7490 C   0  0  0  0  0  0  0  0  0  0  0  0
   55.4230   28.9680   44.8810 O   0  0  0  0  0  0  0  0  0  0  0  0
   56.6290   28.5270   45.4500 C   0  0  0  0  0  0  0  0  0  0  0  0
   57.7880   29.3210   45.4280 C   0  0  0  0  0  0  0  0  0  0  0  0
   58.9660   28.8880   46.0470 C   0  0  0  0  0  0  0  0  0  0  0  0
   60.1810   29.7380   46.0660 C   0  0  0  0  0  0  0  0  0  0  0  0
   61.2070   29.3560   45.4400 O   0  0  0  0  0  0  0  0  0  0  0  0
   60.2380   30.9970   46.7500 N   0  0  0  0  0  0  0  0  0  0  0  0
   59.6600   32.2390   46.3280 C   0  0  0  0  0  0  0  0  0  0  0  0
   58.5250   32.1840   45.5070 C   0  0  0  0  0  0  0  0  0  0  0  0
   57.8880   33.3520   45.0930 C   0  0  0  0  0  0  0  0  0  0  0  0
   58.3940   34.5920   45.4700 C   0  0  0  0  0  0  0  0  0  0  0  0
   59.5430   34.6690   46.2600 C   0  0  0  0  0  0  0  0  0  0  0  0
   60.1940   33.5010   46.7010 C   0  0  0  0  0  0  0  0  0  0  0  0
   61.4350   33.6190   47.4280 N   0  0  0  0  0  0  0  0  0  0  0  0
   61.4290   33.9290   48.8630 C   0  0  0  0  0  0  0  0  0  0  0  0
   62.3270   32.9550   49.6560 C   0  0  0  0  0  0  0  0  0  0  0  0
   63.4010   32.3390   48.8370 N   0  0  0  0  0  0  0  0  0  0  0  0
   64.5370   31.9450   49.6840 C   0  0  0  0  0  0  0  0  0  0  0  0
   63.8520   33.2280   47.7540 C   0  0  0  0  0  0  0  0  0  0  0  0
   62.7170   33.3810   46.7440 C   0  0  0  0  0  0  0  0  0  0  0  0
   59.0010   27.6110   46.6240 C   0  0  0  0  0  0  0  0  0  0  0  0
   57.8620   26.7820   46.6300 C   0  0  0  0  0  0  0  0  0  0  0  0
   57.9080   25.4980   47.2000 O   0  0  0  0  0  0  0  0  0  0  0  0
   58.1490   24.2940   46.4810 C   0  0  0  0  0  0  0  0  0  0  0  0
   56.6570   27.2570   46.0500 C   0  0  0  0  0  0  0  0  0  0  0  0
   55.4530   26.5240   46.0360 O   0  0  0  0  0  0  0  0  0  0  0  0
   55.2920   25.1670   45.6330 C   0  0  0  0  0  0  0  0  0  0  0  0
   55.2242   30.8699   44.0877 H   0  0  0  0  0  0  0  0  0  0  0  0
   56.2459   29.7342   43.1427 H   0  0  0  0  0  0  0  0  0  0  0  0
   54.4594   29.5475   43.1427 H   0  0  0  0  0  0  0  0  0  0  0  0
   57.7692   30.2953   44.9177 H   0  0  0  0  0  0  0  0  0  0  0  0
   58.1329   31.2077   45.1860 H   0  0  0  0  0  0  0  0  0  0  0  0
   56.9848   33.2937   44.4679 H   0  0  0  0  0  0  0  0  0  0  0  0
   57.8882   35.5132   45.1453 H   0  0  0  0  0  0  0  0  0  0  0  0
   59.9442   35.6539   46.5411 H   0  0  0  0  0  0  0  0  0  0  0  0
   61.7984   34.9548   49.0086 H   0  0  0  0  0  0  0  0  0  0  0  0
   60.3983   33.8277   49.2337 H   0  0  0  0  0  0  0  0  0  0  0  0
   62.7945   33.5083   50.4839 H   0  0  0  0  0  0  0  0  0  0  0  0
   61.6824   32.1376   50.0116 H   0  0  0  0  0  0  0  0  0  0  0  0
   64.2559   32.0425   50.7430 H   0  0  0  0  0  0  0  0  0  0  0  0
   64.8080   30.9004   49.4712 H   0  0  0  0  0  0  0  0  0  0  0  0
   65.3967   32.5975   49.4712 H   0  0  0  0  0  0  0  0  0  0  0  0
   64.1146   34.2126   48.1681 H   0  0  0  0  0  0  0  0  0  0  0  0
   64.7378   32.8005   47.2615 H   0  0  0  0  0  0  0  0  0  0  0  0
   62.9358   34.2320   46.0822 H   0  0  0  0  0  0  0  0  0  0  0  0
   62.6374   32.4519   46.1606 H   0  0  0  0  0  0  0  0  0  0  0  0
   59.9345   27.2498   47.0802 H   0  0  0  0  0  0  0  0  0  0  0  0
   58.3140   23.4699   47.1907 H   0  0  0  0  0  0  0  0  0  0  0  0
   57.2790   24.0644   45.8482 H   0  0  0  0  0  0  0  0  0  0  0  0
   59.0403   24.4169   45.8482 H   0  0  0  0  0  0  0  0  0  0  0  0
   55.2160   24.5264   46.5240 H   0  0  0  0  0  0  0  0  0  0  0  0
   54.3760   25.0692   45.0319 H   0  0  0  0  0  0  0  0  0  0  0  0
   56.1597   24.8576   45.0319 H   0  0  0  0  0  0  0  0  0  0  0  0
  1  2  1  0
  2  3  1  0
  3  4  2  0
  4  5  1  0
  5  6  1  0
  6  7  2  0
  6  8  1  0
  8  9  1  0
  9 10  2  0
 10 11  1  0
 11 12  2  0
 12 13  1  0
 13 14  2  0
 14 15  1  0
 15 16  1  0
 16 17  1  0
 17 18  1  0
 18 19  1  0
 18 20  1  0
 20 21  1  0
  5 22  2  0
 22 23  1  0
 23 24  1  0
 24 25  1  0
 23 26  2  0
 26 27  1  0
 27 28  1  0
 26  3  1  0
 14  9  1  0
 21 15  1  0
  1 29  1  0
  1 30  1  0
  1 31  1  0
  4 32  1  0
 10 33  1  0
 11 34  1  0
 12 35  1  0
 13 36  1  0
 16 37  1  0
 16 38  1  0
 17 39  1  0
 17 40  1  0
 19 41  1  0
 19 42  1  0
 19 43  1  0
 20 44  1  0
 20 45  1  0
 21 46  1  0
 21 47  1  0
 22 48  1  0
 25 49  1  0
 25 50  1  0
 25 51  1  0
 28 52  1  0
 28 53  1  0
 28 54  1  0
M  CHG  1   8  -1
M  END
>  <UniqueID>  (6) 
6

>  <SMILES>  (6) 
COc1cc(C(=O)[N-]c2ccccc2N2CCN(C)CC2)cc(OC)c1OC

>  <Energy>  (6) 
73.21830148799637

>  <Genealogy>  (6) 
COc1cc(C(=O)[N-]c2ccccc2N2CCN(C)CC2)cc(OC)c1OC (protonated)
COc1cc(C(=O)[N-]c2ccccc2N2CCN(C)CC2)cc(OC)c1OC (3D coordinates assigned)
COc1cc(C(=O)[N-]c2ccccc2N2CCN(C)CC2)cc(OC)c1OC (nonaromatic ring conformer: 73.21830148799637 kcal/mol)

>  <smiles>  (6) 
COc1cc(C(=O)Nc2ccccc2N2CCN(C)CC2)cc(OC)c1OC

>  <score_type>  (6) 
oracle

>  <origin>  (6) 
adg

>  <m_score__min__energy>  (6) 
-9.2699999999999996

>  <m_primary>  (6) 
energy

$$$$
6:0
     RDKit          3D

 62 65  0  0  0  0  0  0  0  0999 V2000
   54.9170   26.3210   45.9600 N   0  0  0  0  0  0  0  0  0  0  0  0
   56.4030   25.5050   46.2870 S   0  0  0  0  0  0  0  0  0  0  0  0
   56.2700   24.7000   47.5490 O   0  0  0  0  0  0  0  0  0  0  0  0
   56.7200   24.5740   45.1510 O   0  0  0  0  0  0  0  0  0  0  0  0
   57.6890   26.6920   46.4760 C   0  0  0  0  0  0  0  0  0  0  0  0
   57.7490   27.8140   45.6390 C   0  0  0  0  0  0  0  0  0  0  0  0
   58.7440   28.7790   45.8270 C   0  0  0  0  0  0  0  0  0  0  0  0
   59.6900   28.6300   46.8530 C   0  0  0  0  0  0  0  0  0  0  0  0
   60.7060   29.7090   47.1160 C   0  0  0  0  0  0  0  0  0  0  0  0
   61.1480   29.7090   48.5830 C   0  0  0  0  0  0  0  0  0  0  0  0
   60.5990   30.8740   49.2860 N   0  0  0  0  0  0  0  0  0  0  0  0
   61.4420   31.1730   50.7800 S   0  0  0  0  0  0  0  0  0  0  0  0
   61.4340   29.9120   51.5970 O   0  0  0  0  0  0  0  0  0  0  0  0
   60.7220   32.2520   51.5380 O   0  0  0  0  0  0  0  0  0  0  0  0
   63.1030   31.7050   50.4630 C   0  0  0  0  0  0  0  0  0  0  0  0
   64.1390   31.1260   51.2150 C   0  0  0  0  0  0  0  0  0  0  0  0
   65.4580   31.5520   51.0550 C   0  0  0  0  0  0  0  0  0  0  0  0
   65.7610   32.5610   50.1420 C   0  0  0  0  0  0  0  0  0  0  0  0
   64.7480   33.1350   49.3720 C   0  0  0  0  0  0  0  0  0  0  0  0
   63.4170   32.7060   49.5090 C   0  0  0  0  0  0  0  0  0  0  0  0
   62.3940   33.3110   48.6310 C   0  0  0  0  0  0  0  0  0  0  0  0
   62.4320   33.0890   47.2470 C   0  0  0  0  0  0  0  0  0  0  0  0
   61.4570   33.6460   46.4160 C   0  0  0  0  0  0  0  0  0  0  0  0
   60.4190   34.4210   46.9600 C   0  0  0  0  0  0  0  0  0  0  0  0
   59.3400   34.9870   46.0650 C   0  0  0  0  0  0  0  0  0  0  0  0
   58.0740   34.2180   46.0960 N   0  0  0  0  0  0  0  0  0  0  0  0
   57.9820   33.1950   47.1590 C   0  0  0  0  0  0  0  0  0  0  0  0
   58.2210   31.7660   46.6350 C   0  0  0  0  0  0  0  0  0  0  0  0
   58.8930   31.7820   45.3960 O   0  0  0  0  0  0  0  0  0  0  0  0
   58.0520   32.3440   44.4110 C   0  0  0  0  0  0  0  0  0  0  0  0
   57.5790   33.7690   44.7790 C   0  0  0  0  0  0  0  0  0  0  0  0
   60.3900   34.6520   48.3450 C   0  0  0  0  0  0  0  0  0  0  0  0
   61.3630   34.0920   49.1750 C   0  0  0  0  0  0  0  0  0  0  0  0
   59.6290   27.5010   47.6860 C   0  0  0  0  0  0  0  0  0  0  0  0
   58.6320   26.5390   47.4990 C   0  0  0  0  0  0  0  0  0  0  0  0
   55.1300   27.0740   45.2690 H   0  0  0  0  0  0  0  0  0  0  0  0
   57.0117   27.9363   44.8319 H   0  0  0  0  0  0  0  0  0  0  0  0
   58.7852   29.6586   45.1678 H   0  0  0  0  0  0  0  0  0  0  0  0
   61.5846   29.5379   46.4767 H   0  0  0  0  0  0  0  0  0  0  0  0
   60.2460   30.6825   46.8911 H   0  0  0  0  0  0  0  0  0  0  0  0
   60.7882   28.7903   49.0693 H   0  0  0  0  0  0  0  0  0  0  0  0
   62.2463   29.7547   48.6232 H   0  0  0  0  0  0  0  0  0  0  0  0
   63.9080   30.3290   51.9370 H   0  0  0  0  0  0  0  0  0  0  0  0
   66.2600   31.0910   51.6502 H   0  0  0  0  0  0  0  0  0  0  0  0
   66.7995   32.9052   50.0282 H   0  0  0  0  0  0  0  0  0  0  0  0
   64.9937   33.9296   48.6521 H   0  0  0  0  0  0  0  0  0  0  0  0
   63.2337   32.4731   46.8134 H   0  0  0  0  0  0  0  0  0  0  0  0
   61.5022   33.4769   45.3300 H   0  0  0  0  0  0  0  0  0  0  0  0
   59.1280   36.0175   46.3862 H   0  0  0  0  0  0  0  0  0  0  0  0
   59.7200   34.9376   45.0339 H   0  0  0  0  0  0  0  0  0  0  0  0
   58.7365   33.4182   47.9277 H   0  0  0  0  0  0  0  0  0  0  0  0
   56.9609   33.2318   47.5664 H   0  0  0  0  0  0  0  0  0  0  0  0
   58.8295   31.2132   47.3658 H   0  0  0  0  0  0  0  0  0  0  0  0
   57.2446   31.2791   46.4949 H   0  0  0  0  0  0  0  0  0  0  0  0
   58.6038   32.3900   43.4605 H   0  0  0  0  0  0  0  0  0  0  0  0
   57.1595   31.7061   44.3302 H   0  0  0  0  0  0  0  0  0  0  0  0
   57.9415   34.4682   44.0111 H   0  0  0  0  0  0  0  0  0  0  0  0
   56.4803   33.7488   44.8293 H   0  0  0  0  0  0  0  0  0  0  0  0
   59.5960   35.2778   48.7784 H   0  0  0  0  0  0  0  0  0  0  0  0
   61.3212   34.2639   50.2607 H   0  0  0  0  0  0  0  0  0  0  0  0
   60.3693   27.3730   48.4895 H   0  0  0  0  0  0  0  0  0  0  0  0
   58.5885   25.6592   48.1578 H   0  0  0  0  0  0  0  0  0  0  0  0
  1  2  1  0
  2  3  2  0
  2  4  2  0
  2  5  1  0
  5  6  2  0
  6  7  1  0
  7  8  2  0
  8  9  1  0
  9 10  1  0
 10 11  1  0
 11 12  1  0
 12 13  2  0
 12 14  2  0
 12 15  1  0
 15 16  2  0
 16 17  1  0
 17 18  2  0
 18 19  1  0
 19 20  2  0
 20 21  1  0
 21 22  2  0
 22 23  1  0
 23 24  2  0
 24 25  1  0
 25 26  1  0
 26 27  1  0
 27 28  1  0
 28 29  1  0
 29 30  1  0
 30 31  1  0
 24 32  1  0
 32 33  2  0
  8 34  1  0
 34 35  2  0
 35  5  1  0
 20 15  1  0
 33 21  1  0
 31 26  1  0
  1 36  1  0
  6 37  1  0
  7 38  1  0
  9 39  1  0
  9 40  1  0
 10 41  1  0
 10 42  1  0
 16 43  1  0
 17 44  1  0
 18 45  1  0
 19 46  1  0
 22 47  1  0
 23 48  1  0
 25 49  1  0
 25 50  1  0
 27 51  1  0
 27 52  1  0
 28 53  1  0
 28 54  1  0
 30 55  1  0
 30 56  1  0
 31 57  1  0
 31 58  1  0
 32 59  1  0
 33 60  1  0
 34 61  1  0
 35 62  1  0
M  CHG  2   1  -1  11  -1
M  END
>  <UniqueID>  (7) 
7

>  <SMILES>  (7) 
[NH-]S(=O)(=O)c1ccc(CC[N-]S(=O)(=O)c2ccccc2-c2ccc(CN3CCOCC3)cc2)cc1

>  <Energy>  (7) 
82.62857594485158

>  <Genealogy>  (7) 
[NH-]S(=O)(=O)c1ccc(CC[N-]S(=O)(=O)c2ccccc2-c2ccc(CN3CCOCC3)cc2)cc1 (protonated)
[NH-]S(=O)(=O)c1ccc(CC[N-]S(=O)(=O)c2ccccc2-c2ccc(CN3CCOCC3)cc2)cc1 (3D coordinates assigned)
[NH-]S(=O)(=O)c1ccc(CC[N-]S(=O)(=O)c2ccccc2-c2ccc(CN3CCOCC3)cc2)cc1 (nonaromatic ring conformer: 82.62857594485158 kcal/mol)

>  <smiles>  (7) 
NS(=O)(=O)c1ccc(CCNS(=O)(=O)c2ccccc2-c2ccc(CN3CCOCC3)cc2)cc1

>  <score_type>  (7) 
oracle

>  <origin>  (7) 
adg

>  <m_score__min__energy>  (7) 
-14.52

>  <m_primary>  (7) 
energy

$$$$
7:0
     RDKit          3D

 42 44  0  0  0  0  0  0  0  0999 V2000
   56.7090   31.4510   43.9510 C   0  0  0  0  0  0  0  0  0  0  0  0
   57.0560   31.8780   45.2640 O   0  0  0  0  0  0  0  0  0  0  0  0
   57.9640   32.9090   45.5530 C   0  0  0  0  0  0  0  0  0  0  0  0
   58.2910   33.8980   44.6030 C   0  0  0  0  0  0  0  0  0  0  0  0
   59.2040   34.9060   44.9200 C   0  0  0  0  0  0  0  0  0  0  0  0
   59.8140   34.9320   46.1750 C   0  0  0  0  0  0  0  0  0  0  0  0
   59.4930   33.9630   47.1270 C   0  0  0  0  0  0  0  0  0  0  0  0
   58.5570   32.9590   46.8310 C   0  0  0  0  0  0  0  0  0  0  0  0
   58.1790   31.9520   47.8870 C   0  0  0  0  0  0  0  0  0  0  0  0
   59.2330   30.9600   48.0500 N   0  0  0  0  0  0  0  0  0  0  0  0
   59.1620   29.6300   47.5260 C   0  0  0  0  0  0  0  0  0  0  0  0
   58.4880   28.7450   48.1180 O   0  0  0  0  0  0  0  0  0  0  0  0
   59.8350   29.3200   46.2280 C   0  0  0  0  0  0  0  0  0  0  0  0
   58.6890   29.4280   44.8070 S   0  0  0  0  0  0  0  0  0  0  0  0
   57.7270   27.9600   45.2330 C   0  0  0  0  0  0  0  0  0  0  0  0
   56.3290   28.0240   45.4100 C   0  0  0  0  0  0  0  0  0  0  0  0
   55.6190   29.2130   45.2460 O   0  0  0  0  0  0  0  0  0  0  0  0
   55.6420   26.9040   45.7570 N   0  0  0  0  0  0  0  0  0  0  0  0
   56.2540   25.7110   45.9700 C   0  0  0  0  0  0  0  0  0  0  0  0
   55.4950   24.5940   46.3400 C   0  0  0  0  0  0  0  0  0  0  0  0
   56.1240   23.3710   46.5870 C   0  0  0  0  0  0  0  0  0  0  0  0
   57.5110   23.2590   46.4720 C   0  0  0  0  0  0  0  0  0  0  0  0
   58.2780   24.3660   46.0950 C   0  0  0  0  0  0  0  0  0  0  0  0
   57.6550   25.6010   45.8320 C   0  0  0  0  0  0  0  0  0  0  0  0
   58.3890   26.7400   45.4510 C   0  0  0  0  0  0  0  0  0  0  0  0
   59.6420   26.6750   45.3210 O   0  0  0  0  0  0  0  0  0  0  0  0
   56.0164   30.5987   44.0137 H   0  0  0  0  0  0  0  0  0  0  0  0
   56.2242   32.2786   43.4124 H   0  0  0  0  0  0  0  0  0  0  0  0
   57.6183   31.1457   43.4124 H   0  0  0  0  0  0  0  0  0  0  0  0
   57.8246   33.8755   43.6070 H   0  0  0  0  0  0  0  0  0  0  0  0
   59.4432   35.6821   44.1781 H   0  0  0  0  0  0  0  0  0  0  0  0
   60.5477   35.7160   46.4139 H   0  0  0  0  0  0  0  0  0  0  0  0
   59.9761   33.9860   48.1150 H   0  0  0  0  0  0  0  0  0  0  0  0
   58.0215   32.4726   48.8431 H   0  0  0  0  0  0  0  0  0  0  0  0
   57.2561   31.4409   47.5755 H   0  0  0  0  0  0  0  0  0  0  0  0
   60.6557   30.0363   46.0754 H   0  0  0  0  0  0  0  0  0  0  0  0
   60.2076   28.2864   46.2812 H   0  0  0  0  0  0  0  0  0  0  0  0
   55.9190   30.0940   45.6440 H   0  0  0  0  0  0  0  0  0  0  0  0
   54.4026   24.6794   46.4363 H   0  0  0  0  0  0  0  0  0  0  0  0
   55.5248   22.4940   46.8729 H   0  0  0  0  0  0  0  0  0  0  0  0
   58.0022   22.2967   46.6787 H   0  0  0  0  0  0  0  0  0  0  0  0
   59.3701   24.2717   46.0038 H   0  0  0  0  0  0  0  0  0  0  0  0
  1  2  1  0
  2  3  1  0
  3  4  2  0
  4  5  1  0
  5  6  2  0
  6  7  1  0
  7  8  2  0
  8  9  1  0
  9 10  1  0
 10 11  1  0
 11 12  2  0
 11 13  1  0
 13 14  1  0
 14 15  1  0
 15 16  2  0
 16 17  1  0
 16 18  1  0
 18 19  1  0
 19 20  2  0
 20 21  1  0
 21 22  2  0
 22 23  1  0
 23 24  2  0
 24 25  1  0
 25 26  2  0
  8  3  1  0
 25 15  1  0
 24 19  1  0
  1 27  1  0
  1 28  1  0
  1 29  1  0
  4 30  1  0
  5 31  1  0
  6 32  1  0
  7 33  1  0
  9 34  1  0
  9 35  1  0
 13 36  1  0
 13 37  1  0
 17 38  1  0
 20 39  1  0
 21 40  1  0
 22 41  1  0
 23 42  1  0
M  CHG  2  10  -1  18  -1
M  END
>  <UniqueID>  (8) 
8

>  <SMILES>  (8) 
COc1ccccc1C[N-]C(=O)CSc1c(O)[n-]c2ccccc2c1=O

>  <Energy>  (8) 
38.26878262985281

>  <Genealogy>  (8) 
COc1ccccc1C[N-]C(=O)CSc1c(O)[n-]c2ccccc2c1=O (protonated)
COc1ccccc1C[N-]C(=O)CSc1c(O)[n-]c2ccccc2c1=O (3D coordinates assigned)
COc1ccccc1C[N-]C(=O)CSc1c(O)[n-]c2ccccc2c1=O (optimized conformer: 38.26878262985281 kcal/mol)

>  <smiles>  (8) 
COc1ccccc1CNC(=O)CSc1c(O)[nH]c2ccccc2c1=O

>  <score_type>  (8) 
oracle

>  <origin>  (8) 
adg

>  <m_score__min__energy>  (8) 
-12.33

>  <m_primary>  (8) 
energy

$$$$
8:0
     RDKit          3D

 31 32  0  0  0  0  0  0  0  0999 V2000
   59.1710   27.1080   46.5480 O   0  0  0  0  0  0  0  0  0  0  0  0
   58.2780   27.7520   45.9320 C   0  0  0  0  0  0  0  0  0  0  0  0
   58.3800   29.1770   45.7850 N   0  0  0  0  0  0  0  0  0  0  0  0
   59.4590   29.9630   46.3210 C   0  0  0  0  0  0  0  0  0  0  0  0
   60.5080   29.3980   46.7400 O   0  0  0  0  0  0  0  0  0  0  0  0
   59.3780   31.4430   46.3500 C   0  0  0  0  0  0  0  0  0  0  0  0
   60.4910   32.1850   46.7880 C   0  0  0  0  0  0  0  0  0  0  0  0
   60.4470   33.5820   46.8190 C   0  0  0  0  0  0  0  0  0  0  0  0
   59.2890   34.2600   46.4250 C   0  0  0  0  0  0  0  0  0  0  0  0
   59.2590   35.6540   46.4620 O   0  0  0  0  0  0  0  0  0  0  0  0
   58.1670   33.5330   46.0060 C   0  0  0  0  0  0  0  0  0  0  0  0
   58.2010   32.1330   45.9770 C   0  0  0  0  0  0  0  0  0  0  0  0
   57.0520   31.4420   45.6070 O   0  0  0  0  0  0  0  0  0  0  0  0
   57.1620   27.0600   45.3490 N   0  0  0  0  0  0  0  0  0  0  0  0
   56.8200   25.6930   45.6460 C   0  0  0  0  0  0  0  0  0  0  0  0
   57.8050   24.6860   45.6700 C   0  0  0  0  0  0  0  0  0  0  0  0
   57.4630   23.3690   45.9870 C   0  0  0  0  0  0  0  0  0  0  0  0
   56.1400   23.0420   46.2970 C   0  0  0  0  0  0  0  0  0  0  0  0
   55.1570   24.0360   46.2940 C   0  0  0  0  0  0  0  0  0  0  0  0
   55.4930   25.3590   45.9780 C   0  0  0  0  0  0  0  0  0  0  0  0
   54.5030   26.3370   45.9940 O   0  0  0  0  0  0  0  0  0  0  0  0
   57.6300   29.6620   45.2440 H   0  0  0  0  0  0  0  0  0  0  0  0
   61.4035   31.6611   47.1087 H   0  0  0  0  0  0  0  0  0  0  0  0
   61.3269   34.1503   47.1547 H   0  0  0  0  0  0  0  0  0  0  0  0
   59.2070   36.1590   47.3390 H   0  0  0  0  0  0  0  0  0  0  0  0
   57.2545   34.0645   45.6981 H   0  0  0  0  0  0  0  0  0  0  0  0
   56.6110   27.5620   44.6180 H   0  0  0  0  0  0  0  0  0  0  0  0
   58.8502   24.9383   45.4376 H   0  0  0  0  0  0  0  0  0  0  0  0
   58.2370   22.5874   45.9926 H   0  0  0  0  0  0  0  0  0  0  0  0
   55.8725   22.0038   46.5430 H   0  0  0  0  0  0  0  0  0  0  0  0
   54.1163   23.7786   46.5405 H   0  0  0  0  0  0  0  0  0  0  0  0
  1  2  2  0
  2  3  1  0
  3  4  1  0
  4  5  2  0
  4  6  1  0
  6  7  2  0
  7  8  1  0
  8  9  2  0
  9 10  1  0
  9 11  1  0
 11 12  2  0
 12 13  1  0
  2 14  1  0
 14 15  1  0
 15 16  2  0
 16 17  1  0
 17 18  2  0
 18 19  1  0
 19 20  2  0
 20 21  1  0
 12  6  1  0
 20 15  1  0
  3 22  1  0
  7 23  1  0
  8 24  1  0
 10 25  1  0
 11 26  1  0
 14 27  1  0
 16 28  1  0
 17 29  1  0
 18 30  1  0
 19 31  1  0
M  CHG  2  13  -1  21  -1
M  END
>  <UniqueID>  (9) 
9

>  <SMILES>  (9) 
O=C(NC(=O)c1ccc(O)cc1[O-])Nc1ccccc1[O-]

>  <Energy>  (9) 
40.1345993848987

>  <Genealogy>  (9) 
O=C(NC(=O)c1ccc(O)cc1[O-])Nc1ccccc1[O-] (protonated)
O=C(NC(=O)c1ccc(O)cc1[O-])Nc1ccccc1[O-] (3D coordinates assigned)
O=C(NC(=O)c1ccc(O)cc1[O-])Nc1ccccc1[O-] (optimized conformer: 40.1345993848987 kcal/mol)

>  <smiles>  (9) 
O=C(NC(=O)c1ccc(O)cc1O)Nc1ccccc1O

>  <score_type>  (9) 
oracle

>  <origin>  (9) 
adg

>  <m_score__min__energy>  (9) 
-12.08

>  <m_primary>  (9) 
energy

$$$$
9:0
     RDKit          3D

 32 34  0  0  0  0  0  0  0  0999 V2000
   58.9330   22.2250   44.1340 O   0  0  0  0  0  0  0  0  0  0  0  0
   59.0540   23.1450   44.9710 N   0  0  0  0  0  0  0  0  0  0  0  0
   60.2560   23.2890   45.6240 O   0  0  0  0  0  0  0  0  0  0  0  0
   57.9590   24.0390   45.2480 C   0  0  0  0  0  0  0  0  0  0  0  0
   58.2010   25.3940   45.5100 C   0  0  0  0  0  0  0  0  0  0  0  0
   57.1440   26.2730   45.7860 C   0  0  0  0  0  0  0  0  0  0  0  0
   57.4350   27.7290   46.0280 C   0  0  0  0  0  0  0  0  0  0  0  0
   56.5720   28.7380   44.7800 S   0  0  0  0  0  0  0  0  0  0  0  0
   57.4500   30.2320   45.2170 C   0  0  0  0  0  0  0  0  0  0  0  0
   57.0130   31.4720   44.8930 N   0  0  0  0  0  0  0  0  0  0  0  0
   57.8740   32.4190   45.3450 C   0  0  0  0  0  0  0  0  0  0  0  0
   57.7010   33.7930   45.1670 C   0  0  0  0  0  0  0  0  0  0  0  0
   58.6700   34.6680   45.6870 C   0  0  0  0  0  0  0  0  0  0  0  0
   59.7930   34.1640   46.3740 C   0  0  0  0  0  0  0  0  0  0  0  0
   59.9560   32.7800   46.5470 C   0  0  0  0  0  0  0  0  0  0  0  0
   58.9810   31.9340   46.0230 C   0  0  0  0  0  0  0  0  0  0  0  0
   58.9100   30.2580   46.0740 S   0  0  0  0  0  0  0  0  0  0  0  0
   55.8190   25.7950   45.7720 C   0  0  0  0  0  0  0  0  0  0  0  0
   54.7730   26.6860   45.9980 O   0  0  0  0  0  0  0  0  0  0  0  0
   55.5550   24.4310   45.5190 C   0  0  0  0  0  0  0  0  0  0  0  0
   54.2080   23.9130   45.5180 N   0  0  0  0  0  0  0  0  0  0  0  0
   53.6050   23.7170   46.5940 O   0  0  0  0  0  0  0  0  0  0  0  0
   53.5410   23.6630   44.3410 O   0  0  0  0  0  0  0  0  0  0  0  0
   56.6350   23.5670   45.2560 C   0  0  0  0  0  0  0  0  0  0  0  0
   59.2336   25.7731   45.4990 H   0  0  0  0  0  0  0  0  0  0  0  0
   57.0856   28.0105   47.0323 H   0  0  0  0  0  0  0  0  0  0  0  0
   58.5186   27.9030   45.9540 H   0  0  0  0  0  0  0  0  0  0  0  0
   56.8235   34.1829   44.6303 H   0  0  0  0  0  0  0  0  0  0  0  0
   58.5513   35.7538   45.5570 H   0  0  0  0  0  0  0  0  0  0  0  0
   60.5453   34.8582   46.7765 H   0  0  0  0  0  0  0  0  0  0  0  0
   60.8285   32.3754   47.0809 H   0  0  0  0  0  0  0  0  0  0  0  0
   56.4393   22.5037   45.0532 H   0  0  0  0  0  0  0  0  0  0  0  0
  1  2  2  0
  2  3  1  0
  2  4  1  0
  4  5  2  0
  5  6  1  0
  6  7  1  0
  7  8  1  0
  8  9  1  0
  9 10  2  0
 10 11  1  0
 11 12  2  0
 12 13  1  0
 13 14  2  0
 14 15  1  0
 15 16  2  0
 16 17  1  0
  6 18  2  0
 18 19  1  0
 18 20  1  0
 20 21  1  0
 21 22  2  0
 21 23  1  0
 20 24  2  0
 24  4  1  0
 17  9  1  0
 16 11  1  0
  5 25  1  0
  7 26  1  0
  7 27  1  0
 12 28  1  0
 13 29  1  0
 14 30  1  0
 15 31  1  0
 24 32  1  0
M  CHG  5   2   1   3  -1  19  -1  21   1  23  -1
M  END
>  <UniqueID>  (10) 
10

>  <SMILES>  (10) 
O=[N+]([O-])c1cc(CSc2nc3ccccc3s2)c([O-])c([N+](=O)[O-])c1

>  <Energy>  (10) 
70.22599177591007

>  <Genealogy>  (10) 
O=[N+]([O-])c1cc(CSc2nc3ccccc3s2)c([O-])c([N+](=O)[O-])c1 (protonated)
O=[N+]([O-])c1cc(CSc2nc3ccccc3s2)c([O-])c([N+](=O)[O-])c1 (3D coordinates assigned)
O=[N+]([O-])c1cc(CSc2nc3ccccc3s2)c([O-])c([N+](=O)[O-])c1 (optimized conformer: 70.22599177591007 kcal/mol)

>  <smiles>  (10) 
O=[N+]([O-])c1cc(CSc2nc3ccccc3s2)c(O)c([N+](=O)[O-])c1

>  <score_type>  (10) 
oracle

>  <origin>  (10) 
adg

>  <m_score__min__energy>  (10) 
-12.9

>  <m_primary>  (10) 
energy

$$$$
10:0
     RDKit          3D

 41 42  0  0  0  0  0  0  0  0999 V2000
   56.9860   29.2470   43.3000 C   0  0  0  0  0  0  0  0  0  0  0  0
   58.2020   29.8510   43.8590 N   0  0  0  0  0  0  0  0  0  0  0  0
   58.1630   31.3260   43.9660 C   0  0  0  0  0  0  0  0  0  0  0  0
   57.0970   31.8550   44.8860 C   0  0  0  0  0  0  0  0  0  0  0  0
   55.9130   31.4330   44.7790 O   0  0  0  0  0  0  0  0  0  0  0  0
   57.4090   32.8990   45.8130 N   0  0  0  0  0  0  0  0  0  0  0  0
   58.7020   33.1580   46.3780 C   0  0  0  0  0  0  0  0  0  0  0  0
   59.1530   32.4910   47.5310 C   0  0  0  0  0  0  0  0  0  0  0  0
   60.4560   32.6960   47.9980 C   0  0  0  0  0  0  0  0  0  0  0  0
   61.3190   33.5650   47.3190 C   0  0  0  0  0  0  0  0  0  0  0  0
   62.9750   33.7820   47.8760 S   0  0  0  0  0  0  0  0  0  0  0  0
   63.6940   32.2370   48.1590 N   0  0  0  0  0  0  0  0  0  0  0  0
   63.7670   34.5210   46.8350 O   0  0  0  0  0  0  0  0  0  0  0  0
   62.9860   34.5820   49.1490 O   0  0  0  0  0  0  0  0  0  0  0  0
   60.8750   34.2200   46.1640 C   0  0  0  0  0  0  0  0  0  0  0  0
   59.5750   34.0140   45.6950 C   0  0  0  0  0  0  0  0  0  0  0  0
   58.7190   29.0530   45.3290 S   0  0  0  0  0  0  0  0  0  0  0  0
   58.5130   29.9940   46.4830 O   0  0  0  0  0  0  0  0  0  0  0  0
   60.1910   28.7630   45.2400 O   0  0  0  0  0  0  0  0  0  0  0  0
   57.8660   27.5350   45.6630 C   0  0  0  0  0  0  0  0  0  0  0  0
   56.4620   27.5190   45.6740 C   0  0  0  0  0  0  0  0  0  0  0  0
   55.7680   26.3460   45.9870 C   0  0  0  0  0  0  0  0  0  0  0  0
   54.3780   26.3400   45.9890 O   0  0  0  0  0  0  0  0  0  0  0  0
   56.4700   25.1790   46.2950 C   0  0  0  0  0  0  0  0  0  0  0  0
   57.8660   25.1870   46.3050 C   0  0  0  0  0  0  0  0  0  0  0  0
   58.5710   26.3630   46.0070 C   0  0  0  0  0  0  0  0  0  0  0  0
   59.9630   26.3690   46.0680 O   0  0  0  0  0  0  0  0  0  0  0  0
   56.3287   28.9205   44.1194 H   0  0  0  0  0  0  0  0  0  0  0  0
   56.4596   29.9884   42.6809 H   0  0  0  0  0  0  0  0  0  0  0  0
   57.2587   28.3796   42.6809 H   0  0  0  0  0  0  0  0  0  0  0  0
   59.1396   31.6698   44.3376 H   0  0  0  0  0  0  0  0  0  0  0  0
   57.9276   31.7072   42.9614 H   0  0  0  0  0  0  0  0  0  0  0  0
   58.4796   31.8062   48.0672 H   0  0  0  0  0  0  0  0  0  0  0  0
   60.8035   32.1730   48.9012 H   0  0  0  0  0  0  0  0  0  0  0  0
   64.5120   32.1590   47.5140 H   0  0  0  0  0  0  0  0  0  0  0  0
   61.5516   34.8988   45.6242 H   0  0  0  0  0  0  0  0  0  0  0  0
   59.2351   34.5274   44.7835 H   0  0  0  0  0  0  0  0  0  0  0  0
   55.9038   28.4361   45.4346 H   0  0  0  0  0  0  0  0  0  0  0  0
   55.9233   24.2537   46.5297 H   0  0  0  0  0  0  0  0  0  0  0  0
   58.4164   24.2661   46.5479 H   0  0  0  0  0  0  0  0  0  0  0  0
   60.5010   27.2030   45.8600 H   0  0  0  0  0  0  0  0  0  0  0  0
  1  2  1  0
  2  3  1  0
  3  4  1  0
  4  5  2  0
  4  6  1  0
  6  7  1  0
  7  8  2  0
  8  9  1  0
  9 10  2  0
 10 11  1  0
 11 12  1  0
 11 13  2  0
 11 14  2  0
 10 15  1  0
 15 16  2  0
  2 17  1  0
 17 18  2  0
 17 19  2  0
 17 20  1  0
 20 21  2  0
 21 22  1  0
 22 23  1  0
 22 24  2  0
 24 25  1  0
 25 26  2  0
 26 27  1  0
 16  7  1  0
 26 20  1  0
  1 28  1  0
  1 29  1  0
  1 30  1  0
  3 31  1  0
  3 32  1  0
  8 33  1  0
  9 34  1  0
 12 35  1  0
 15 36  1  0
 16 37  1  0
 21 38  1  0
 24 39  1  0
 25 40  1  0
 27 41  1  0
M  CHG  3   6  -1  12  -1  23  -1
M  END
>  <UniqueID>  (11) 
11

>  <SMILES>  (11) 
CN(CC(=O)[N-]c1ccc(S([NH-])(=O)=O)cc1)S(=O)(=O)c1cc([O-])ccc1O

>  <Energy>  (11) 
44.36459587741603

>  <Genealogy>  (11) 
CN(CC(=O)[N-]c1ccc(S([NH-])(=O)=O)cc1)S(=O)(=O)c1cc([O-])ccc1O (protonated)
CN(CC(=O)[N-]c1ccc(S([NH-])(=O)=O)cc1)S(=O)(=O)c1cc([O-])ccc1O (3D coordinates assigned)
CN(CC(=O)[N-]c1ccc(S([NH-])(=O)=O)cc1)S(=O)(=O)c1cc([O-])ccc1O (optimized conformer: 44.36459587741603 kcal/mol)

>  <smiles>  (11) 
CN(CC(=O)Nc1ccc(S(N)(=O)=O)cc1)S(=O)(=O)c1cc(O)ccc1O

>  <score_type>  (11) 
oracle

>  <origin>  (11) 
adg

>  <m_score__min__energy>  (11) 
-13.300000000000001

>  <m_primary>  (11) 
energy

$$$$
11:0
     RDKit          3D

 57 60  0  0  0  0  0  0  0  0999 V2000
   56.9110   27.0040   46.0230 N   0  0  0  0  0  0  0  0  0  0  0  0
   58.2020   27.9260   46.7110 S   0  0  0  0  0  0  0  0  0  0  0  0
   59.5120   27.3510   46.2530 O   0  0  0  0  0  0  0  0  0  0  0  0
   58.1450   27.8380   48.2100 O   0  0  0  0  0  0  0  0  0  0  0  0
   58.0670   29.6170   46.1980 C   0  0  0  0  0  0  0  0  0  0  0  0
   57.5400   29.8830   44.9250 C   0  0  0  0  0  0  0  0  0  0  0  0
   57.4630   31.1890   44.4450 C   0  0  0  0  0  0  0  0  0  0  0  0
   57.9080   32.2500   45.2280 C   0  0  0  0  0  0  0  0  0  0  0  0
   58.4190   32.0180   46.5110 C   0  0  0  0  0  0  0  0  0  0  0  0
   58.8700   33.1200   47.3070 N   0  0  0  0  0  0  0  0  0  0  0  0
   60.0060   34.3000   46.7480 S   0  0  0  0  0  0  0  0  0  0  0  0
   60.1140   34.1950   45.2520 O   0  0  0  0  0  0  0  0  0  0  0  0
   59.5560   35.6890   47.0990 O   0  0  0  0  0  0  0  0  0  0  0  0
   61.5640   33.9800   47.5000 C   0  0  0  0  0  0  0  0  0  0  0  0
   62.6270   33.4420   46.7570 C   0  0  0  0  0  0  0  0  0  0  0  0
   63.8540   33.1830   47.3780 C   0  0  0  0  0  0  0  0  0  0  0  0
   64.0200   33.4500   48.7400 C   0  0  0  0  0  0  0  0  0  0  0  0
   62.9640   33.9830   49.4820 C   0  0  0  0  0  0  0  0  0  0  0  0
   61.7390   34.2490   48.8650 C   0  0  0  0  0  0  0  0  0  0  0  0
   58.5030   30.6970   47.0120 C   0  0  0  0  0  0  0  0  0  0  0  0
   58.9790   30.4830   48.4010 C   0  0  0  0  0  0  0  0  0  0  0  0
   58.4700   31.1400   49.3480 O   0  0  0  0  0  0  0  0  0  0  0  0
   60.0260   29.5380   48.6640 N   0  0  0  0  0  0  0  0  0  0  0  0
   61.0290   29.7020   49.6830 C   0  0  0  0  0  0  0  0  0  0  0  0
   61.2000   28.6930   50.6450 C   0  0  0  0  0  0  0  0  0  0  0  0
   62.2190   28.7850   51.5960 C   0  0  0  0  0  0  0  0  0  0  0  0
   63.0890   29.8790   51.5900 C   0  0  0  0  0  0  0  0  0  0  0  0
   64.4410   29.9650   52.7670 S   0  0  0  0  0  0  0  0  0  0  0  0
   65.3170   28.6000   51.9890 C   0  0  0  0  0  0  0  0  0  0  0  0
   64.8160   27.3020   52.1650 C   0  0  0  0  0  0  0  0  0  0  0  0
   65.4890   26.2060   51.6220 C   0  0  0  0  0  0  0  0  0  0  0  0
   66.6630   26.3980   50.8920 C   0  0  0  0  0  0  0  0  0  0  0  0
   67.1620   27.6870   50.6960 C   0  0  0  0  0  0  0  0  0  0  0  0
   66.4950   28.8000   51.2350 C   0  0  0  0  0  0  0  0  0  0  0  0
   67.0220   30.1120   51.0040 N   0  0  0  0  0  0  0  0  0  0  0  0
   62.9210   30.8950   50.6430 C   0  0  0  0  0  0  0  0  0  0  0  0
   61.9040   30.8050   49.6900 C   0  0  0  0  0  0  0  0  0  0  0  0
   56.0200   27.4660   46.3110 H   0  0  0  0  0  0  0  0  0  0  0  0
   57.1838   29.0515   44.2991 H   0  0  0  0  0  0  0  0  0  0  0  0
   57.0492   31.3819   43.4442 H   0  0  0  0  0  0  0  0  0  0  0  0
   57.8580   33.2769   44.8368 H   0  0  0  0  0  0  0  0  0  0  0  0
   62.4953   33.2241   45.6869 H   0  0  0  0  0  0  0  0  0  0  0  0
   64.6889   32.7688   46.7936 H   0  0  0  0  0  0  0  0  0  0  0  0
   64.9834   33.2400   49.2277 H   0  0  0  0  0  0  0  0  0  0  0  0
   63.0967   34.1937   50.5534 H   0  0  0  0  0  0  0  0  0  0  0  0
   60.9095   34.6706   49.4517 H   0  0  0  0  0  0  0  0  0  0  0  0
   60.0970   28.7100   48.0280 H   0  0  0  0  0  0  0  0  0  0  0  0
   60.5262   27.8235   50.6496 H   0  0  0  0  0  0  0  0  0  0  0  0
   62.3371   27.9944   52.3516 H   0  0  0  0  0  0  0  0  0  0  0  0
   63.8876   27.1466   52.7341 H   0  0  0  0  0  0  0  0  0  0  0  0
   65.0937   25.1902   51.7696 H   0  0  0  0  0  0  0  0  0  0  0  0
   67.1957   25.5327   50.4706 H   0  0  0  0  0  0  0  0  0  0  0  0
   68.0847   27.8325   50.1150 H   0  0  0  0  0  0  0  0  0  0  0  0
   66.8270   30.8870   51.6760 H   0  0  0  0  0  0  0  0  0  0  0  0
   67.6420   30.3250   50.1920 H   0  0  0  0  0  0  0  0  0  0  0  0
   63.5916   31.7669   50.6490 H   0  0  0  0  0  0  0  0  0  0  0  0
   61.7859   31.6010   48.9400 H   0  0  0  0  0  0  0  0  0  0  0  0
  1  2  1  0
  2  3  2  0
  2  4  2  0
  2  5  1  0
  5  6  2  0
  6  7  1  0
  7  8  2  0
  8  9  1  0
  9 10  1  0
 10 11  1  0
 11 12  2  0
 11 13  2  0
 11 14  1  0
 14 15  2  0
 15 16  1  0
 16 17  2  0
 17 18  1  0
 18 19  2  0
  9 20  2  0
 20 21  1  0
 21 22  2  0
 21 23  1  0
 23 24  1  0
 24 25  2  0
 25 26  1  0
 26 27  2  0
 27 28  1  0
 28 29  1  0
 29 30  2  0
 30 31  1  0
 31 32  2  0
 32 33  1  0
 33 34  2  0
 34 35  1  0
 27 36  1  0
 36 37  2  0
 20  5  1  0
 37 24  1  0
 19 14  1  0
 34 29  1  0
  1 38  1  0
  6 39  1  0
  7 40  1  0
  8 41  1  0
 15 42  1  0
 16 43  1  0
 17 44  1  0
 18 45  1  0
 19 46  1  0
 23 47  1  0
 25 48  1  0
 26 49  1  0
 30 50  1  0
 31 51  1  0
 32 52  1  0
 33 53  1  0
 35 54  1  0
 35 55  1  0
 36 56  1  0
 37 57  1  0
M  CHG  2   1  -1  10  -1
M  END
>  <UniqueID>  (12) 
12

>  <SMILES>  (12) 
[NH-]S(=O)(=O)c1cccc([N-]S(=O)(=O)c2ccccc2)c1C(=O)Nc1ccc(Sc2ccccc2N)cc1

>  <Energy>  (12) 
71.97043025472047

>  <Genealogy>  (12) 
[NH-]S(=O)(=O)c1cccc([N-]S(=O)(=O)c2ccccc2)c1C(=O)Nc1ccc(Sc2ccccc2N)cc1 (protonated)
[NH-]S(=O)(=O)c1cccc([N-]S(=O)(=O)c2ccccc2)c1C(=O)Nc1ccc(Sc2ccccc2N)cc1 (3D coordinates assigned)
[NH-]S(=O)(=O)c1cccc([N-]S(=O)(=O)c2ccccc2)c1C(=O)Nc1ccc(Sc2ccccc2N)cc1 (optimized conformer: 71.97043025472047 kcal/mol)

>  <smiles>  (12) 
Nc1ccccc1Sc1ccc(NC(=O)c2c(NS(=O)(=O)c3ccccc3)cccc2S(N)(=O)=O)cc1

>  <score_type>  (12) 
oracle

>  <origin>  (12) 
adg

>  <m_score__min__energy>  (12) 
-12.24

>  <m_primary>  (12) 
energy

$$$$
12:0
     RDKit          3D

 46 48  0  0  0  0  0  0  0  0999 V2000
   52.1420   24.0340   44.8590 C   0  0  0  0  0  0  0  0  0  0  0  0
   53.2390   23.1340   44.9850 O   0  0  0  0  0  0  0  0  0  0  0  0
   54.0660   23.0410   46.1180 C   0  0  0  0  0  0  0  0  0  0  0  0
   53.8920   22.0280   47.0830 C   0  0  0  0  0  0  0  0  0  0  0  0
   54.7290   21.9640   48.2000 C   0  0  0  0  0  0  0  0  0  0  0  0
   55.7440   22.9060   48.3690 C   0  0  0  0  0  0  0  0  0  0  0  0
   55.9260   23.9160   47.4240 C   0  0  0  0  0  0  0  0  0  0  0  0
   55.0960   23.9910   46.2930 C   0  0  0  0  0  0  0  0  0  0  0  0
   55.2780   25.1120   45.3020 C   0  0  0  0  0  0  0  0  0  0  0  0
   55.3810   26.3850   46.0040 N   0  0  0  0  0  0  0  0  0  0  0  0
   56.2750   27.4360   45.6200 C   0  0  0  0  0  0  0  0  0  0  0  0
   55.8030   28.5040   45.1410 O   0  0  0  0  0  0  0  0  0  0  0  0
   57.7480   27.2740   45.7600 C   0  0  0  0  0  0  0  0  0  0  0  0
   58.2650   26.0900   46.3140 C   0  0  0  0  0  0  0  0  0  0  0  0
   59.6380   25.9370   46.4980 C   0  0  0  0  0  0  0  0  0  0  0  0
   60.4960   26.9660   46.1240 C   0  0  0  0  0  0  0  0  0  0  0  0
   59.9980   28.1090   45.5850 N   0  0  0  0  0  0  0  0  0  0  0  0
   58.6570   28.2970   45.4000 C   0  0  0  0  0  0  0  0  0  0  0  0
   58.1890   29.4860   44.8240 O   0  0  0  0  0  0  0  0  0  0  0  0
   58.1460   30.7280   45.4710 C   0  0  0  0  0  0  0  0  0  0  0  0
   57.5980   31.8680   44.8550 C   0  0  0  0  0  0  0  0  0  0  0  0
   57.5930   33.1030   45.5220 C   0  0  0  0  0  0  0  0  0  0  0  0
   57.0550   34.3250   44.8380 C   0  0  0  0  0  0  0  0  0  0  0  0
   58.1690   33.2010   46.7980 C   0  0  0  0  0  0  0  0  0  0  0  0
   58.7220   32.0710   47.4090 C   0  0  0  0  0  0  0  0  0  0  0  0
   59.4450   32.2010   49.0010 Cl  0  0  0  0  0  0  0  0  0  0  0  0
   58.7130   30.8400   46.7450 C   0  0  0  0  0  0  0  0  0  0  0  0
   51.7887   24.3238   45.8596 H   0  0  0  0  0  0  0  0  0  0  0  0
   52.4648   24.9309   44.3101 H   0  0  0  0  0  0  0  0  0  0  0  0
   51.3254   23.5422   44.3101 H   0  0  0  0  0  0  0  0  0  0  0  0
   53.0924   21.2834   46.9558 H   0  0  0  0  0  0  0  0  0  0  0  0
   54.5873   21.1695   48.9474 H   0  0  0  0  0  0  0  0  0  0  0  0
   56.4020   22.8523   49.2489 H   0  0  0  0  0  0  0  0  0  0  0  0
   56.7249   24.6588   47.5654 H   0  0  0  0  0  0  0  0  0  0  0  0
   56.1968   24.9402   44.7222 H   0  0  0  0  0  0  0  0  0  0  0  0
   54.4107   25.1412   44.6260 H   0  0  0  0  0  0  0  0  0  0  0  0
   57.5812   25.2787   46.6043 H   0  0  0  0  0  0  0  0  0  0  0  0
   60.0395   25.0109   46.9351 H   0  0  0  0  0  0  0  0  0  0  0  0
   61.5811   26.8537   46.2652 H   0  0  0  0  0  0  0  0  0  0  0  0
   60.6720   28.8500   45.2870 H   0  0  0  0  0  0  0  0  0  0  0  0
   57.1708   31.7910   43.8443 H   0  0  0  0  0  0  0  0  0  0  0  0
   56.7330   35.0564   45.5938 H   0  0  0  0  0  0  0  0  0  0  0  0
   57.8408   34.7692   44.2093 H   0  0  0  0  0  0  0  0  0  0  0  0
   56.1968   34.0454   44.2093 H   0  0  0  0  0  0  0  0  0  0  0  0
   58.1856   34.1696   47.3192 H   0  0  0  0  0  0  0  0  0  0  0  0
   59.1541   29.9552   47.2271 H   0  0  0  0  0  0  0  0  0  0  0  0
  1  2  1  0
  2  3  1  0
  3  4  2  0
  4  5  1  0
  5  6  2  0
  6  7  1  0
  7  8  2  0
  8  9  1  0
  9 10  1  0
 10 11  1  0
 11 12  2  0
 11 13  1  0
 13 14  2  0
 14 15  1  0
 15 16  2  0
 16 17  1  0
 17 18  2  0
 18 19  1  0
 19 20  1  0
 20 21  2  0
 21 22  1  0
 22 23  1  0
 22 24  2  0
 24 25  1  0
 25 26  1  0
 25 27  2  0
  8  3  1  0
 18 13  1  0
 27 20  1  0
  1 28  1  0
  1 29  1  0
  1 30  1  0
  4 31  1  0
  5 32  1  0
  6 33  1  0
  7 34  1  0
  9 35  1  0
  9 36  1  0
 14 37  1  0
 15 38  1  0
 16 39  1  0
 17 40  1  0
 21 41  1  0
 23 42  1  0
 23 43  1  0
 23 44  1  0
 24 45  1  0
 27 46  1  0
M  CHG  2  10  -1  17   1
M  END
>  <UniqueID>  (13) 
13

>  <SMILES>  (13) 
COc1ccccc1C[N-]C(=O)c1ccc[nH+]c1Oc1cc(C)cc(Cl)c1

>  <Energy>  (13) 
50.65320621561729

>  <Genealogy>  (13) 
COc1ccccc1C[N-]C(=O)c1ccc[nH+]c1Oc1cc(C)cc(Cl)c1 (protonated)
COc1ccccc1C[N-]C(=O)c1ccc[nH+]c1Oc1cc(C)cc(Cl)c1 (3D coordinates assigned)
COc1ccccc1C[N-]C(=O)c1ccc[nH+]c1Oc1cc(C)cc(Cl)c1 (optimized conformer: 50.65320621561729 kcal/mol)

>  <smiles>  (13) 
COc1ccccc1CNC(=O)c1cccnc1Oc1cc(C)cc(Cl)c1

>  <score_type>  (13) 
oracle

>  <origin>  (13) 
adg

>  <m_score__min__energy>  (13) 
-8.9700000000000006

>  <m_primary>  (13) 
energy

$$$$
13:0
     RDKit          3D

 33 34  0  0  0  0  0  0  0  0999 V2000
   63.1520   31.6520   47.3540 N   0  0  0  0  0  0  0  0  0  0  0  0
   62.0070   32.9480   47.3610 S   0  0  0  0  0  0  0  0  0  0  0  0
   61.7590   33.3930   48.7760 O   0  0  0  0  0  0  0  0  0  0  0  0
   62.5560   34.1090   46.5790 O   0  0  0  0  0  0  0  0  0  0  0  0
   60.4970   32.3970   46.6430 C   0  0  0  0  0  0  0  0  0  0  0  0
   60.0910   31.0630   46.7770 C   0  0  0  0  0  0  0  0  0  0  0  0
   58.8850   30.6330   46.2160 C   0  0  0  0  0  0  0  0  0  0  0  0
   58.0730   31.5360   45.5050 C   0  0  0  0  0  0  0  0  0  0  0  0
   56.8180   31.1410   44.9310 N   0  0  0  0  0  0  0  0  0  0  0  0
   56.4180   29.8070   44.5990 C   0  0  0  0  0  0  0  0  0  0  0  0
   55.3120   29.3480   44.9950 O   0  0  0  0  0  0  0  0  0  0  0  0
   57.3680   28.9170   43.8700 C   0  0  0  0  0  0  0  0  0  0  0  0
   58.1010   28.1430   44.8120 O   0  0  0  0  0  0  0  0  0  0  0  0
   57.4970   27.5100   45.9020 C   0  0  0  0  0  0  0  0  0  0  0  0
   57.6790   27.9370   47.0740 O   0  0  0  0  0  0  0  0  0  0  0  0
   56.6440   26.3380   45.6810 C   0  0  0  0  0  0  0  0  0  0  0  0
   57.0350   25.1540   45.0890 C   0  0  0  0  0  0  0  0  0  0  0  0
   55.9140   24.3520   45.0940 C   0  0  0  0  0  0  0  0  0  0  0  0
   54.9120   25.0950   45.6870 C   0  0  0  0  0  0  0  0  0  0  0  0
   55.3790   26.2750   46.0270 O   0  0  0  0  0  0  0  0  0  0  0  0
   58.4700   32.8760   45.4000 C   0  0  0  0  0  0  0  0  0  0  0  0
   59.6760   33.3030   45.9590 C   0  0  0  0  0  0  0  0  0  0  0  0
   64.0960   32.0790   47.2180 H   0  0  0  0  0  0  0  0  0  0  0  0
   62.9570   31.0770   46.5020 H   0  0  0  0  0  0  0  0  0  0  0  0
   60.7241   30.3506   47.3262 H   0  0  0  0  0  0  0  0  0  0  0  0
   58.5697   29.5854   46.3307 H   0  0  0  0  0  0  0  0  0  0  0  0
   56.8061   28.2478   43.2019 H   0  0  0  0  0  0  0  0  0  0  0  0
   58.0621   29.5273   43.2735 H   0  0  0  0  0  0  0  0  0  0  0  0
   58.0313   24.9033   44.6960 H   0  0  0  0  0  0  0  0  0  0  0  0
   55.8336   23.3265   44.7042 H   0  0  0  0  0  0  0  0  0  0  0  0
   53.8799   24.7511   45.8498 H   0  0  0  0  0  0  0  0  0  0  0  0
   57.8268   33.5964   44.8734 H   0  0  0  0  0  0  0  0  0  0  0  0
   59.9828   34.3549   45.8620 H   0  0  0  0  0  0  0  0  0  0  0  0
  1  2  1  0
  2  3  2  0
  2  4  2  0
  2  5  1  0
  5  6  2  0
  6  7  1  0
  7  8  2  0
  8  9  1  0
  9 10  1  0
 10 11  2  0
 10 12  1  0
 12 13  1  0
 13 14  1  0
 14 15  2  0
 14 16  1  0
 16 17  2  0
 17 18  1  0
 18 19  2  0
 19 20  1  0
  8 21  1  0
 21 22  2  0
 22  5  1  0
 20 16  1  0
  1 23  1  0
  1 24  1  0
  6 25  1  0
  7 26  1  0
 12 27  1  0
 12 28  1  0
 17 29  1  0
 18 30  1  0
 19 31  1  0
 21 32  1  0
 22 33  1  0
M  CHG  1   9  -1
M  END
>  <UniqueID>  (14) 
14

>  <SMILES>  (14) 
NS(=O)(=O)c1ccc([N-]C(=O)COC(=O)c2ccco2)cc1

>  <Energy>  (14) 
56.772351471283955

>  <Genealogy>  (14) 
NS(=O)(=O)c1ccc([N-]C(=O)COC(=O)c2ccco2)cc1 (protonated)
NS(=O)(=O)c1ccc([N-]C(=O)COC(=O)c2ccco2)cc1 (3D coordinates assigned)
NS(=O)(=O)c1ccc([N-]C(=O)COC(=O)c2ccco2)cc1 (optimized conformer: 56.772351471283955 kcal/mol)

>  <smiles>  (14) 
NS(=O)(=O)c1ccc(NC(=O)COC(=O)c2ccco2)cc1

>  <score_type>  (14) 
oracle

>  <origin>  (14) 
adg

>  <m_score__min__energy>  (14) 
-9.1799999999999997

>  <m_primary>  (14) 
energy

$$$$
14:0
     RDKit          3D

 46 48  0  0  0  0  0  0  0  0999 V2000
   54.7460   27.0850   45.9790 H   0  0  0  0  0  0  0  0  0  0  0  0
   55.6010   26.6060   46.2310 O   0  0  0  0  0  0  0  0  0  0  0  0
   56.8670   27.0870   45.8970 C   0  0  0  0  0  0  0  0  0  0  0  0
   57.9690   26.2470   46.1020 C   0  0  0  0  0  0  0  0  0  0  0  0
   57.8124   25.2194   46.4619 H   0  0  0  0  0  0  0  0  0  0  0  0
   59.2650   26.7040   45.8530 C   0  0  0  0  0  0  0  0  0  0  0  0
   60.1238   26.0351   46.0114 H   0  0  0  0  0  0  0  0  0  0  0  0
   59.4710   28.0100   45.4030 C   0  0  0  0  0  0  0  0  0  0  0  0
   61.1010   28.5890   45.1050 Cl  0  0  0  0  0  0  0  0  0  0  0  0
   58.3780   28.8530   45.1790 C   0  0  0  0  0  0  0  0  0  0  0  0
   58.5452   29.8840   44.8338 H   0  0  0  0  0  0  0  0  0  0  0  0
   57.0720   28.3940   45.3910 C   0  0  0  0  0  0  0  0  0  0  0  0
   55.9840   29.2780   45.0950 N   0  0  0  0  0  0  0  0  0  0  0  0
   55.9440   30.2270   44.0220 C   0  0  0  0  0  0  0  0  0  0  0  0
   55.1580   30.0150   43.0610 O   0  0  0  0  0  0  0  0  0  0  0  0
   56.7610   31.4170   44.0300 N   0  0  0  0  0  0  0  0  0  0  0  0
   57.8280   31.5890   43.0380 C   0  0  0  0  0  0  0  0  0  0  0  0
   58.7870   31.7436   43.5541 H   0  0  0  0  0  0  0  0  0  0  0  0
   57.8914   30.6895   42.4080 H   0  0  0  0  0  0  0  0  0  0  0  0
   57.6056   32.4629   42.4080 H   0  0  0  0  0  0  0  0  0  0  0  0
   56.6790   32.3470   45.1620 C   0  0  0  0  0  0  0  0  0  0  0  0
   55.6234   32.5900   45.3535 H   0  0  0  0  0  0  0  0  0  0  0  0
   57.1276   31.8686   46.0451 H   0  0  0  0  0  0  0  0  0  0  0  0
   57.4460   33.6400   44.8600 C   0  0  0  0  0  0  0  0  0  0  0  0
   57.3066   33.9018   43.8007 H   0  0  0  0  0  0  0  0  0  0  0  0
   57.0563   34.4380   45.5091 H   0  0  0  0  0  0  0  0  0  0  0  0
   58.9420   33.4700   45.1410 C   0  0  0  0  0  0  0  0  0  0  0  0
   59.2903   32.5300   44.6880 H   0  0  0  0  0  0  0  0  0  0  0  0
   59.4832   34.3245   44.7086 H   0  0  0  0  0  0  0  0  0  0  0  0
   59.1950   33.4320   46.5830 N   0  0  0  0  0  0  0  0  0  0  0  0
   59.6890   32.4440   47.2830 C   0  0  0  0  0  0  0  0  0  0  0  0
   58.9630   31.2580   47.5190 C   0  0  0  0  0  0  0  0  0  0  0  0
   57.9485   31.1440   47.1094 H   0  0  0  0  0  0  0  0  0  0  0  0
   59.5300   30.2300   48.2710 C   0  0  0  0  0  0  0  0  0  0  0  0
   58.9610   29.3059   48.4508 H   0  0  0  0  0  0  0  0  0  0  0  0
   60.7790   30.3630   48.7820 N   0  0  0  0  0  0  0  0  0  0  0  0
   61.5180   31.4860   48.5850 C   0  0  0  0  0  0  0  0  0  0  0  0
   62.8020   31.5740   49.1340 C   0  0  0  0  0  0  0  0  0  0  0  0
   63.2061   30.7359   49.7208 H   0  0  0  0  0  0  0  0  0  0  0  0
   63.5730   32.7240   48.9390 C   0  0  0  0  0  0  0  0  0  0  0  0
   65.1820   32.8280   49.6290 Cl  0  0  0  0  0  0  0  0  0  0  0  0
   63.0620   33.7900   48.1940 C   0  0  0  0  0  0  0  0  0  0  0  0
   63.6709   34.6935   48.0428 H   0  0  0  0  0  0  0  0  0  0  0  0
   61.7810   33.7140   47.6400 C   0  0  0  0  0  0  0  0  0  0  0  0
   61.3874   34.5578   47.0542 H   0  0  0  0  0  0  0  0  0  0  0  0
   60.9900   32.5610   47.8280 C   0  0  0  0  0  0  0  0  0  0  0  0
  1  2  1  0
  2  3  1  0
  3  4  2  0
  4  5  1  0
  4  6  1  0
  6  7  1  0
  6  8  2  0
  8  9  1  0
  8 10  1  0
 10 11  1  0
 10 12  2  0
 12 13  1  0
 13 14  1  0
 14 15  2  0
 14 16  1  0
 16 17  1  0
 17 18  1  0
 17 19  1  0
 17 20  1  0
 16 21  1  0
 21 22  1  0
 21 23  1  0
 21 24  1  0
 24 25  1  0
 24 26  1  0
 24 27  1  0
 27 28  1  0
 27 29  1  0
 27 30  1  0
 30 31  2  0
 31 32  1  0
 32 33  1  0
 32 34  2  0
 34 35  1  0
 34 36  1  0
 36 37  1  0
 37 38  2  0
 38 39  1  0
 38 40  1  0
 40 41  1  0
 40 42  2  0
 42 43  1  0
 42 44  1  0
 44 45  1  0
 44 46  2  0
 12  3  1  0
 46 31  1  0
 46 37  1  0
M  CHG  2  13  -1  36  -1
M  END
>  <UniqueID>  (15) 
15

>  <SMILES>  (15) 
CN(CCC/N=c1\cc[n-]c2cc(Cl)ccc12)C(=O)[N-]c1cc(Cl)ccc1O

>  <Energy>  (15) 
58.78604592367888

>  <Genealogy>  (15) 
CN(CCCN=c1cc[n-]c2cc(Cl)ccc12)C(=O)[N-]c1cc(Cl)ccc1O (protonated)
CN(CCC/N=c1\cc[n-]c2cc(Cl)ccc12)C(=O)[N-]c1cc(Cl)ccc1O (cis-trans isomerization)
CN(CCC/N=c1\cc[n-]c2cc(Cl)ccc12)C(=O)[N-]c1cc(Cl)ccc1O (3D coordinates assigned)
CN(CCC/N=c1\cc[n-]c2cc(Cl)ccc12)C(=O)[N-]c1cc(Cl)ccc1O (optimized conformer: 58.78604592367888 kcal/mol)

>  <smiles>  (15) 
CN(CCCN=c1cc[nH]c2cc(Cl)ccc12)C(=O)Nc1cc(Cl)ccc1O

>  <score_type>  (15) 
oracle

>  <origin>  (15) 
adg

>  <m_score__min__energy>  (15) 
-11.06

>  <m_primary>  (15) 
energy

$$$$
15:0
     RDKit          3D

 58 62  0  0  0  0  0  0  0  0999 V2000
   55.2350   29.6100   44.9520 N   0  0  0  0  0  0  0  0  0  0  0  0
   55.8400   29.6260   43.6200 C   0  0  0  0  0  0  0  0  0  0  0  0
   56.7140   30.8420   43.4700 C   0  0  0  0  0  0  0  0  0  0  0  0
   57.0870   31.2910   42.1930 C   0  0  0  0  0  0  0  0  0  0  0  0
   57.9220   32.4030   42.0550 C   0  0  0  0  0  0  0  0  0  0  0  0
   58.4060   33.0640   43.1870 C   0  0  0  0  0  0  0  0  0  0  0  0
   58.0610   32.6180   44.4760 C   0  0  0  0  0  0  0  0  0  0  0  0
   58.5920   33.3080   45.6830 C   0  0  0  0  0  0  0  0  0  0  0  0
   59.3280   34.5010   45.5690 C   0  0  0  0  0  0  0  0  0  0  0  0
   59.8150   35.1430   46.7110 C   0  0  0  0  0  0  0  0  0  0  0  0
   59.5590   34.6140   47.9780 C   0  0  0  0  0  0  0  0  0  0  0  0
   58.8130   33.4420   48.1160 C   0  0  0  0  0  0  0  0  0  0  0  0
   58.5750   32.9390   49.4050 O   0  0  0  0  0  0  0  0  0  0  0  0
   59.3410   31.9380   50.0180 C   0  0  0  0  0  0  0  0  0  0  0  0
   59.7590   32.1060   51.3420 C   0  0  0  0  0  0  0  0  0  0  0  0
   60.5150   31.1030   51.9530 C   0  0  0  0  0  0  0  0  0  0  0  0
   60.8440   29.9490   51.2410 C   0  0  0  0  0  0  0  0  0  0  0  0
   60.4120   29.8100   49.9110 C   0  0  0  0  0  0  0  0  0  0  0  0
   60.6980   28.6670   49.1530 O   0  0  0  0  0  0  0  0  0  0  0  0
   60.3570   28.4800   47.8060 C   0  0  0  0  0  0  0  0  0  0  0  0
   60.5570   29.4850   46.8410 C   0  0  0  0  0  0  0  0  0  0  0  0
   60.1930   29.2640   45.5090 C   0  0  0  0  0  0  0  0  0  0  0  0
   59.6180   28.0480   45.1320 C   0  0  0  0  0  0  0  0  0  0  0  0
   59.3980   27.0430   46.0870 C   0  0  0  0  0  0  0  0  0  0  0  0
   58.7450   25.7480   45.6850 C   0  0  0  0  0  0  0  0  0  0  0  0
   57.2580   25.8500   45.8130 C   0  0  0  0  0  0  0  0  0  0  0  0
   56.4180   24.8030   45.7250 N   0  0  0  0  0  0  0  0  0  0  0  0
   55.2010   25.3690   45.8760 C   0  0  0  0  0  0  0  0  0  0  0  0
   54.1360   24.7000   45.8600 O   0  0  0  0  0  0  0  0  0  0  0  0
   55.2140   26.7090   46.0510 N   0  0  0  0  0  0  0  0  0  0  0  0
   56.5250   26.9980   46.0050 C   0  0  0  0  0  0  0  0  0  0  0  0
   57.0440   28.2830   46.1280 O   0  0  0  0  0  0  0  0  0  0  0  0
   59.7580   27.2740   47.4260 C   0  0  0  0  0  0  0  0  0  0  0  0
   59.6620   30.7950   49.3500 N   0  0  0  0  0  0  0  0  0  0  0  0
   58.3590   32.7760   46.9630 C   0  0  0  0  0  0  0  0  0  0  0  0
   57.2100   31.5010   44.6060 C   0  0  0  0  0  0  0  0  0  0  0  0
   55.1470   28.6130   45.2570 H   0  0  0  0  0  0  0  0  0  0  0  0
   55.9080   30.0630   45.6170 H   0  0  0  0  0  0  0  0  0  0  0  0
   56.4490   28.7200   43.4849 H   0  0  0  0  0  0  0  0  0  0  0  0
   55.0445   29.6554   42.8608 H   0  0  0  0  0  0  0  0  0  0  0  0
   56.7208   30.7659   41.2985 H   0  0  0  0  0  0  0  0  0  0  0  0
   58.1992   32.7592   41.0519 H   0  0  0  0  0  0  0  0  0  0  0  0
   59.0615   33.9395   43.0695 H   0  0  0  0  0  0  0  0  0  0  0  0
   59.5215   34.9313   44.5753 H   0  0  0  0  0  0  0  0  0  0  0  0
   60.4019   36.0680   46.6116 H   0  0  0  0  0  0  0  0  0  0  0  0
   59.9473   35.1236   48.8721 H   0  0  0  0  0  0  0  0  0  0  0  0
   59.4951   33.0186   51.8965 H   0  0  0  0  0  0  0  0  0  0  0  0
   60.8505   31.2226   52.9937 H   0  0  0  0  0  0  0  0  0  0  0  0
   61.4370   29.1542   51.7171 H   0  0  0  0  0  0  0  0  0  0  0  0
   61.0010   30.4473   47.1356 H   0  0  0  0  0  0  0  0  0  0  0  0
   60.3598   30.0491   44.7568 H   0  0  0  0  0  0  0  0  0  0  0  0
   59.3365   27.8773   44.0824 H   0  0  0  0  0  0  0  0  0  0  0  0
   59.0038   25.5210   44.6403 H   0  0  0  0  0  0  0  0  0  0  0  0
   59.1053   24.9470   46.3472 H   0  0  0  0  0  0  0  0  0  0  0  0
   57.2310   28.8450   45.3030 H   0  0  0  0  0  0  0  0  0  0  0  0
   59.5669   26.4988   48.1827 H   0  0  0  0  0  0  0  0  0  0  0  0
   57.8142   31.8258   47.0646 H   0  0  0  0  0  0  0  0  0  0  0  0
   56.9319   31.1423   45.6080 H   0  0  0  0  0  0  0  0  0  0  0  0
  1  2  1  0
  2  3  1  0
  3  4  2  0
  4  5  1  0
  5  6  2  0
  6  7  1  0
  7  8  1  0
  8  9  2  0
  9 10  1  0
 10 11  2  0
 11 12  1  0
 12 13  1  0
 13 14  1  0
 14 15  2  0
 15 16  1  0
 16 17  2  0
 17 18  1  0
 18 19  1  0
 19 20  1  0
 20 21  2  0
 21 22  1  0
 22 23  2  0
 23 24  1  0
 24 25  1  0
 25 26  1  0
 26 27  1  0
 27 28  1  0
 28 29  2  0
 28 30  1  0
 30 31  1  0
 31 32  1  0
 24 33  2  0
 18 34  2  0
 12 35  2  0
  7 36  2  0
 36  3  1  0
 35  8  1  0
 34 14  1  0
 33 20  1  0
 31 26  2  0
  1 37  1  0
  1 38  1  0
  2 39  1  0
  2 40  1  0
  4 41  1  0
  5 42  1  0
  6 43  1  0
  9 44  1  0
 10 45  1  0
 11 46  1  0
 15 47  1  0
 16 48  1  0
 17 49  1  0
 21 50  1  0
 22 51  1  0
 23 52  1  0
 25 53  1  0
 25 54  1  0
 32 55  1  0
 33 56  1  0
 35 57  1  0
 36 58  1  0
M  CHG  2  27  -1  30  -1
M  END
>  <UniqueID>  (16) 
16

>  <SMILES>  (16) 
NCc1cccc(-c2cccc(Oc3cccc(Oc4cccc(Cc5[n-]c(=O)[n-]c5O)c4)n3)c2)c1

>  <Energy>  (16) 
105.17769823259877

>  <Genealogy>  (16) 
NCc1cccc(-c2cccc(Oc3cccc(Oc4cccc(Cc5[n-]c(=O)[n-]c5O)c4)n3)c2)c1 (protonated)
NCc1cccc(-c2cccc(Oc3cccc(Oc4cccc(Cc5[n-]c(=O)[n-]c5O)c4)n3)c2)c1 (3D coordinates assigned)
NCc1cccc(-c2cccc(Oc3cccc(Oc4cccc(Cc5[n-]c(=O)[n-]c5O)c4)n3)c2)c1 (optimized conformer: 105.17769823259877 kcal/mol)

>  <smiles>  (16) 
NCc1cccc(-c2cccc(Oc3cccc(Oc4cccc(Cc5[nH]c(=O)[nH]c5O)c4)n3)c2)c1

>  <score_type>  (16) 
oracle

>  <origin>  (16) 
adg

>  <m_score__min__energy>  (16) 
-17.199999999999999

>  <m_primary>  (16) 
energy

$$$$
16:0
     RDKit          3D

 46 48  0  0  0  0  0  0  0  0999 V2000
   59.4950   27.2280   44.8620 O   0  0  0  0  0  0  0  0  0  0  0  0
   58.6680   26.9570   45.7760 C   0  0  0  0  0  0  0  0  0  0  0  0
   58.8000   25.6680   46.5270 C   0  0  0  0  0  0  0  0  0  0  0  0
   57.6770   25.4760   47.4470 N   0  0  0  0  0  0  0  0  0  0  0  0
   56.2970   24.7840   46.6410 S   0  0  0  0  0  0  0  0  0  0  0  0
   55.5040   25.8870   46.0000 O   0  0  0  0  0  0  0  0  0  0  0  0
   55.4230   24.0960   47.6530 O   0  0  0  0  0  0  0  0  0  0  0  0
   56.7960   23.6470   45.3870 C   0  0  0  0  0  0  0  0  0  0  0  0
   58.0080   22.9490   45.5030 C   0  0  0  0  0  0  0  0  0  0  0  0
   58.4040   22.0580   44.5010 C   0  0  0  0  0  0  0  0  0  0  0  0
   57.5940   21.8580   43.3800 C   0  0  0  0  0  0  0  0  0  0  0  0
   56.3850   22.5490   43.2600 C   0  0  0  0  0  0  0  0  0  0  0  0
   55.9830   23.4410   44.2610 C   0  0  0  0  0  0  0  0  0  0  0  0
   54.8080   24.1060   44.1260 F   0  0  0  0  0  0  0  0  0  0  0  0
   57.5820   27.8510   46.0620 N   0  0  0  0  0  0  0  0  0  0  0  0
   57.4260   29.1170   45.4080 C   0  0  0  0  0  0  0  0  0  0  0  0
   56.3950   29.2710   44.4700 C   0  0  0  0  0  0  0  0  0  0  0  0
   56.2330   30.4810   43.7900 C   0  0  0  0  0  0  0  0  0  0  0  0
   57.0920   31.5500   44.0500 C   0  0  0  0  0  0  0  0  0  0  0  0
   58.1050   31.4180   45.0020 C   0  0  0  0  0  0  0  0  0  0  0  0
   58.2750   30.2100   45.7000 C   0  0  0  0  0  0  0  0  0  0  0  0
   59.2680   30.1160   46.7370 N   0  0  0  0  0  0  0  0  0  0  0  0
   60.6870   30.1110   46.3770 C   0  0  0  0  0  0  0  0  0  0  0  0
   61.5180   30.6220   47.5570 C   0  0  0  0  0  0  0  0  0  0  0  0
   61.2090   29.9050   48.7380 O   0  0  0  0  0  0  0  0  0  0  0  0
   59.8670   30.1500   49.1110 C   0  0  0  0  0  0  0  0  0  0  0  0
   58.8990   29.6000   48.0580 C   0  0  0  0  0  0  0  0  0  0  0  0
   58.8228   24.8348   45.8092 H   0  0  0  0  0  0  0  0  0  0  0  0
   59.7303   25.6991   47.1132 H   0  0  0  0  0  0  0  0  0  0  0  0
   58.6479   23.1033   46.3843 H   0  0  0  0  0  0  0  0  0  0  0  0
   59.3550   21.5133   44.5953 H   0  0  0  0  0  0  0  0  0  0  0  0
   57.9077   21.1571   42.5924 H   0  0  0  0  0  0  0  0  0  0  0  0
   55.7481   22.3915   42.3771 H   0  0  0  0  0  0  0  0  0  0  0  0
   56.7890   27.4980   46.6440 H   0  0  0  0  0  0  0  0  0  0  0  0
   55.7098   28.4344   44.2683 H   0  0  0  0  0  0  0  0  0  0  0  0
   55.4276   30.5911   43.0490 H   0  0  0  0  0  0  0  0  0  0  0  0
   56.9708   32.4974   43.5044 H   0  0  0  0  0  0  0  0  0  0  0  0
   58.7750   32.2659   45.2072 H   0  0  0  0  0  0  0  0  0  0  0  0
   60.9977   29.0858   46.1272 H   0  0  0  0  0  0  0  0  0  0  0  0
   60.8456   30.7660   45.5076 H   0  0  0  0  0  0  0  0  0  0  0  0
   62.5863   30.4953   47.3274 H   0  0  0  0  0  0  0  0  0  0  0  0
   61.2843   31.6847   47.7186 H   0  0  0  0  0  0  0  0  0  0  0  0
   59.6660   29.6610   50.0756 H   0  0  0  0  0  0  0  0  0  0  0  0
   59.7173   31.2367   49.1933 H   0  0  0  0  0  0  0  0  0  0  0  0
   58.9517   28.5013   48.0501 H   0  0  0  0  0  0  0  0  0  0  0  0
   57.8742   29.9167   48.3017 H   0  0  0  0  0  0  0  0  0  0  0  0
  1  2  2  0
  2  3  1  0
  3  4  1  0
  4  5  1  0
  5  6  2  0
  5  7  2  0
  5  8  1  0
  8  9  2  0
  9 10  1  0
 10 11  2  0
 11 12  1  0
 12 13  2  0
 13 14  1  0
  2 15  1  0
 15 16  1  0
 16 17  2  0
 17 18  1  0
 18 19  2  0
 19 20  1  0
 20 21  2  0
 21 22  1  0
 22 23  1  0
 23 24  1  0
 24 25  1  0
 25 26  1  0
 26 27  1  0
 13  8  1  0
 21 16  1  0
 27 22  1  0
  3 28  1  0
  3 29  1  0
  9 30  1  0
 10 31  1  0
 11 32  1  0
 12 33  1  0
 15 34  1  0
 17 35  1  0
 18 36  1  0
 19 37  1  0
 20 38  1  0
 23 39  1  0
 23 40  1  0
 24 41  1  0
 24 42  1  0
 26 43  1  0
 26 44  1  0
 27 45  1  0
 27 46  1  0
M  CHG  1   4  -1
M  END
>  <UniqueID>  (17) 
17

>  <SMILES>  (17) 
O=C(C[N-]S(=O)(=O)c1ccccc1F)Nc1ccccc1N1CCOCC1

>  <Energy>  (17) 
54.3136263993029

>  <Genealogy>  (17) 
O=C(C[N-]S(=O)(=O)c1ccccc1F)Nc1ccccc1N1CCOCC1 (protonated)
O=C(C[N-]S(=O)(=O)c1ccccc1F)Nc1ccccc1N1CCOCC1 (3D coordinates assigned)
O=C(C[N-]S(=O)(=O)c1ccccc1F)Nc1ccccc1N1CCOCC1 (nonaromatic ring conformer: 54.3136263993029 kcal/mol)

>  <smiles>  (17) 
O=C(CNS(=O)(=O)c1ccccc1F)Nc1ccccc1N1CCOCC1

>  <score_type>  (17) 
oracle

>  <origin>  (17) 
adg

>  <m_score__min__energy>  (17) 
-9.3800000000000008

>  <m_primary>  (17) 
energy

$$$$
17:0
     RDKit          3D

 49 51  0  0  1  0  0  0  0  0999 V2000
   54.7970   26.1890   45.8120 N   0  0  0  0  0  0  0  0  0  0  0  0
   55.8090   24.8080   46.0460 S   0  0  0  0  0  0  0  0  0  0  0  0
   55.3580   24.0310   47.2670 O   0  0  0  0  0  0  0  0  0  0  0  0
   55.7240   23.9290   44.8340 O   0  0  0  0  0  0  0  0  0  0  0  0
   57.4350   25.3740   46.3120 C   0  0  0  0  0  0  0  0  0  0  0  0
   58.5540   24.7570   45.8110 C   0  0  0  0  0  0  0  0  0  0  0  0
   59.8160   25.2490   46.0540 C   0  0  0  0  0  0  0  0  0  0  0  0
   59.9950   26.3850   46.8110 C   0  0  0  0  0  0  0  0  0  0  0  0
   58.8900   27.0200   47.3240 C   0  0  0  0  0  0  0  0  0  0  0  0
   58.9600   28.2010   48.1200 N   0  0  0  0  0  0  0  0  0  0  0  0
   59.0730   29.3390   47.5180 C   0  0  0  0  0  0  0  0  0  0  0  0
   60.2100   30.1360   47.7060 C   0  0  0  0  0  0  0  0  0  0  0  0
   60.3250   31.3550   47.0590 C   0  0  0  0  0  0  0  0  0  0  0  0
   61.5030   32.1920   47.2470 C   0  0  0  0  0  0  0  0  0  0  0  0
   61.6910   33.3740   46.5550 C   0  0  0  0  0  0  0  0  0  0  0  0
   62.8270   34.1660   46.7440 C   0  0  0  0  0  0  0  0  0  0  0  0
   63.8090   33.7980   47.6350 C   0  0  0  0  0  0  0  0  0  0  0  0
   63.6330   32.6240   48.3300 C   0  0  0  0  0  0  0  0  0  0  0  0
   62.4940   31.8340   48.1360 C   0  0  0  0  0  0  0  0  0  0  0  0
   59.2930   31.6990   46.2620 N   0  0  0  0  0  0  0  0  0  0  0  0
   58.2050   30.9100   46.0960 C   0  0  0  0  0  0  0  0  0  0  0  0
   57.2360   31.2720   45.3250 N   0  0  0  0  0  0  0  0  0  0  0  0
   57.4370   31.1670   43.8930 C   0  0  0  0  0  0  0  0  0  0  0  0
   57.0050   29.7550   43.5230 C   0  0  0  0  0  0  0  0  0  0  0  0
   55.5430   29.6530   43.9680 C   0  0  0  0  0  0  0  0  0  0  0  0
   55.5130   29.0650   45.2360 O   0  0  0  0  0  0  0  0  0  0  0  0
   58.0710   29.7230   46.7150 N   0  0  0  0  0  0  0  0  0  0  0  0
   57.6090   26.5170   47.0750 C   0  0  0  0  0  0  0  0  0  0  0  0
   54.5040   26.5970   46.7460 H   0  0  0  0  0  0  0  0  0  0  0  0
   55.3090   26.9150   45.2470 H   0  0  0  0  0  0  0  0  0  0  0  0
   58.4394   23.8486   45.2014 H   0  0  0  0  0  0  0  0  0  0  0  0
   60.6917   24.7287   45.6387 H   0  0  0  0  0  0  0  0  0  0  0  0
   61.0049   26.7772   47.0017 H   0  0  0  0  0  0  0  0  0  0  0  0
   61.0156   29.7916   48.3711 H   0  0  0  0  0  0  0  0  0  0  0  0
   60.9253   33.7002   45.8357 H   0  0  0  0  0  0  0  0  0  0  0  0
   62.9379   35.0986   46.1713 H   0  0  0  0  0  0  0  0  0  0  0  0
   64.7031   34.4206   47.7861 H   0  0  0  0  0  0  0  0  0  0  0  0
   64.3996   32.3009   49.0497 H   0  0  0  0  0  0  0  0  0  0  0  0
   62.3866   30.9012   48.7090 H   0  0  0  0  0  0  0  0  0  0  0  0
   59.2950   32.5880   45.7420 H   0  0  0  0  0  0  0  0  0  0  0  0
   56.8211   31.9085   43.3631 H   0  0  0  0  0  0  0  0  0  0  0  0
   58.4831   31.3598   43.6130 H   0  0  0  0  0  0  0  0  0  0  0  0
   57.0898   29.5976   42.4376 H   0  0  0  0  0  0  0  0  0  0  0  0
   57.6354   28.9927   44.0041 H   0  0  0  0  0  0  0  0  0  0  0  0
   55.0962   30.6572   44.0124 H   0  0  0  0  0  0  0  0  0  0  0  0
   54.9695   29.0447   43.2531 H   0  0  0  0  0  0  0  0  0  0  0  0
   55.8000   29.7020   45.9550 H   0  0  0  0  0  0  0  0  0  0  0  0
   57.2170   29.1430   46.5630 H   0  0  0  0  0  0  0  0  0  0  0  0
   56.7309   27.0342   47.4892 H   0  0  0  0  0  0  0  0  0  0  0  0
  1  2  1  0
  2  3  2  0
  2  4  2  0
  2  5  1  0
  5  6  2  0
  6  7  1  0
  7  8  2  0
  8  9  1  0
  9 10  1  0
 10 11  2  0
 11 12  1  0
 12 13  2  0
 13 14  1  0
 14 15  2  0
 15 16  1  0
 16 17  2  0
 17 18  1  0
 18 19  2  0
 13 20  1  0
 20 21  1  0
 21 22  2  0
 22 23  1  0
 23 24  1  0
 24 25  1  0
 25 26  1  0
 21 27  1  0
  9 28  2  0
 28  5  1  0
 27 11  1  0
 19 14  1  0
  1 29  1  0
  1 30  1  0
  6 31  1  0
  7 32  1  0
  8 33  1  0
 12 34  1  0
 15 35  1  0
 16 36  1  0
 17 37  1  0
 18 38  1  0
 19 39  1  0
 20 40  1  0
 23 41  1  0
 23 42  1  0
 24 43  1  0
 24 44  1  0
 25 45  1  0
 25 46  1  0
 26 47  1  0
 27 48  1  0
 28 49  1  0
M  END
>  <smiles>  (18) 
NS(=O)(=O)c1cccc(N=c2cc(-c3ccccc3)[nH]c(=NCCCO)[nH]2)c1

>  <score_type>  (18) 
oracle

>  <origin>  (18) 
adg

>  <m_score__min__energy>  (18) 
-9.1099999999999994

>  <m_primary>  (18) 
energy

$$$$
18:0
     RDKit          3D

 54 56  0  0  0  0  0  0  0  0999 V2000
   54.5870   28.9810   53.9240 C   0  0  0  0  0  0  0  0  0  0  0  0
   54.0650   29.8560   52.8270 C   0  0  0  0  0  0  0  0  0  0  0  0
   52.8390   29.7140   52.2080 C   0  0  0  0  0  0  0  0  0  0  0  0
   52.8390   30.6940   51.2320 C   0  0  0  0  0  0  0  0  0  0  0  0
   51.7540   30.9660   50.2800 C   0  0  0  0  0  0  0  0  0  0  0  0
   51.0330   32.1940   50.3430 N   0  0  0  0  0  0  0  0  0  0  0  0
   51.4580   30.1110   49.4040 O   0  0  0  0  0  0  0  0  0  0  0  0
   54.0020   31.3740   51.2580 N   0  0  0  0  0  0  0  0  0  0  0  0
   54.7460   30.8580   52.2230 N   0  0  0  0  0  0  0  0  0  0  0  0
   56.1010   31.3200   52.5260 C   0  0  0  0  0  0  0  0  0  0  0  0
   57.1140   30.2700   52.1610 C   0  0  0  0  0  0  0  0  0  0  0  0
   56.7400   29.0750   52.0380 O   0  0  0  0  0  0  0  0  0  0  0  0
   58.4900   30.5900   51.9200 N   0  0  0  0  0  0  0  0  0  0  0  0
   59.4510   29.6980   51.2840 C   0  0  0  0  0  0  0  0  0  0  0  0
   59.3040   29.7930   49.7930 C   0  0  0  0  0  0  0  0  0  0  0  0
   59.2030   28.6290   49.0170 C   0  0  0  0  0  0  0  0  0  0  0  0
   59.0980   28.7150   47.6260 C   0  0  0  0  0  0  0  0  0  0  0  0
   59.1100   29.9680   46.9920 C   0  0  0  0  0  0  0  0  0  0  0  0
   58.9770   30.0710   45.4960 C   0  0  0  0  0  0  0  0  0  0  0  0
   57.8410   29.2810   45.0330 N   0  0  0  0  0  0  0  0  0  0  0  0
   56.5260   29.8130   44.8550 C   0  0  0  0  0  0  0  0  0  0  0  0
   55.5200   29.0520   44.8980 O   0  0  0  0  0  0  0  0  0  0  0  0
   56.3700   31.1840   44.6370 O   0  0  0  0  0  0  0  0  0  0  0  0
   57.3170   31.9790   43.9260 C   0  0  0  0  0  0  0  0  0  0  0  0
   57.9330   33.0060   44.8380 C   0  0  0  0  0  0  0  0  0  0  0  0
   57.4700   33.1380   46.1580 C   0  0  0  0  0  0  0  0  0  0  0  0
   58.0460   34.0810   47.0160 C   0  0  0  0  0  0  0  0  0  0  0  0
   59.0880   34.8950   46.5610 C   0  0  0  0  0  0  0  0  0  0  0  0
   59.5560   34.7670   45.2510 C   0  0  0  0  0  0  0  0  0  0  0  0
   58.9830   33.8250   44.3910 C   0  0  0  0  0  0  0  0  0  0  0  0
   59.2240   31.1320   47.7670 C   0  0  0  0  0  0  0  0  0  0  0  0
   59.3280   31.0450   49.1580 C   0  0  0  0  0  0  0  0  0  0  0  0
   54.3255   29.4193   54.8984 H   0  0  0  0  0  0  0  0  0  0  0  0
   54.1382   27.9803   53.8398 H   0  0  0  0  0  0  0  0  0  0  0  0
   55.6808   28.9006   53.8398 H   0  0  0  0  0  0  0  0  0  0  0  0
   52.0449   28.9884   52.4381 H   0  0  0  0  0  0  0  0  0  0  0  0
   50.1670   32.3370   49.7780 H   0  0  0  0  0  0  0  0  0  0  0  0
   56.3072   32.2357   51.9524 H   0  0  0  0  0  0  0  0  0  0  0  0
   56.1732   31.5216   53.6050 H   0  0  0  0  0  0  0  0  0  0  0  0
   60.4713   29.9913   51.5722 H   0  0  0  0  0  0  0  0  0  0  0  0
   59.2641   28.6635   51.6078 H   0  0  0  0  0  0  0  0  0  0  0  0
   59.2064   27.6435   49.5057 H   0  0  0  0  0  0  0  0  0  0  0  0
   59.0056   27.7979   47.0256 H   0  0  0  0  0  0  0  0  0  0  0  0
   58.8245   31.1240   45.2169 H   0  0  0  0  0  0  0  0  0  0  0  0
   59.8950   29.6862   45.0278 H   0  0  0  0  0  0  0  0  0  0  0  0
   58.1087   31.3282   43.5265 H   0  0  0  0  0  0  0  0  0  0  0  0
   56.8012   32.4968   43.1039 H   0  0  0  0  0  0  0  0  0  0  0  0
   56.6515   32.4974   46.5182 H   0  0  0  0  0  0  0  0  0  0  0  0
   57.6794   34.1821   48.0482 H   0  0  0  0  0  0  0  0  0  0  0  0
   59.5398   35.6372   47.2356 H   0  0  0  0  0  0  0  0  0  0  0  0
   60.3762   35.4080   44.8956 H   0  0  0  0  0  0  0  0  0  0  0  0
   59.3558   33.7250   43.3609 H   0  0  0  0  0  0  0  0  0  0  0  0
   59.2316   32.1172   47.2778 H   0  0  0  0  0  0  0  0  0  0  0  0
   59.4291   31.9614   49.7579 H   0  0  0  0  0  0  0  0  0  0  0  0
  1  2  1  0
  2  3  2  0
  3  4  1  0
  4  5  1  0
  5  6  1  0
  5  7  2  0
  4  8  2  0
  8  9  1  0
  9 10  1  0
 10 11  1  0
 11 12  2  0
 11 13  1  0
 13 14  1  0
 14 15  1  0
 15 16  2  0
 16 17  1  0
 17 18  2  0
 18 19  1  0
 19 20  1  0
 20 21  1  0
 21 22  2  0
 21 23  1  0
 23 24  1  0
 24 25  1  0
 25 26  2  0
 26 27  1  0
 27 28  2  0
 28 29  1  0
 29 30  2  0
 18 31  1  0
 31 32  2  0
  9  2  1  0
 32 15  1  0
 30 25  1  0
  1 33  1  0
  1 34  1  0
  1 35  1  0
  3 36  1  0
  6 37  1  0
 10 38  1  0
 10 39  1  0
 14 40  1  0
 14 41  1  0
 16 42  1  0
 17 43  1  0
 19 44  1  0
 19 45  1  0
 24 46  1  0
 24 47  1  0
 26 48  1  0
 27 49  1  0
 28 50  1  0
 29 51  1  0
 30 52  1  0
 31 53  1  0
 32 54  1  0
M  CHG  3   6  -1  13  -1  20  -1
M  END
>  <UniqueID>  (19) 
18

>  <SMILES>  (19) 
Cc1cc(C([NH-])=O)nn1CC(=O)[N-]Cc1ccc(C[N-]C(=O)OCc2ccccc2)cc1

>  <Energy>  (19) 
74.74608460137394

>  <Genealogy>  (19) 
Cc1cc(C([NH-])=O)nn1CC(=O)[N-]Cc1ccc(C[N-]C(=O)OCc2ccccc2)cc1 (protonated)
Cc1cc(C([NH-])=O)nn1CC(=O)[N-]Cc1ccc(C[N-]C(=O)OCc2ccccc2)cc1 (3D coordinates assigned)
Cc1cc(C([NH-])=O)nn1CC(=O)[N-]Cc1ccc(C[N-]C(=O)OCc2ccccc2)cc1 (optimized conformer: 74.74608460137394 kcal/mol)

>  <smiles>  (19) 
Cc1cc(C(N)=O)nn1CC(=O)NCc1ccc(CNC(=O)OCc2ccccc2)cc1

>  <score_type>  (19) 
oracle

>  <origin>  (19) 
adg

>  <m_score__min__energy>  (19) 
-15.470000000000001

>  <m_primary>  (19) 
energy

$$$$
19:0
     RDKit          3D

 44 45  0  0  0  0  0  0  0  0999 V2000
   63.3060   32.2710   47.5290 C   0  0  0  0  0  0  0  0  0  0  0  0
   62.5820   33.4790   46.9420 C   0  0  0  0  0  0  0  0  0  0  0  0
   61.2570   33.5780   47.4650 O   0  0  0  0  0  0  0  0  0  0  0  0
   60.0980   33.0590   46.8650 C   0  0  0  0  0  0  0  0  0  0  0  0
   59.1900   33.9590   46.3020 C   0  0  0  0  0  0  0  0  0  0  0  0
   58.0270   33.5020   45.6770 C   0  0  0  0  0  0  0  0  0  0  0  0
   57.7470   32.1240   45.6110 C   0  0  0  0  0  0  0  0  0  0  0  0
   56.6150   31.6210   44.9450 O   0  0  0  0  0  0  0  0  0  0  0  0
   56.6280   30.7770   43.7930 C   0  0  0  0  0  0  0  0  0  0  0  0
   55.9210   29.4580   44.0810 C   0  0  0  0  0  0  0  0  0  0  0  0
   58.6380   31.2140   46.2160 C   0  0  0  0  0  0  0  0  0  0  0  0
   58.3920   29.8010   46.1790 N   0  0  0  0  0  0  0  0  0  0  0  0
   59.4200   28.8380   45.8850 C   0  0  0  0  0  0  0  0  0  0  0  0
   60.5810   29.2350   45.5850 O   0  0  0  0  0  0  0  0  0  0  0  0
   59.1490   27.3810   45.9290 C   0  0  0  0  0  0  0  0  0  0  0  0
   60.1950   26.4410   45.9790 C   0  0  0  0  0  0  0  0  0  0  0  0
   59.9140   25.0720   46.0180 C   0  0  0  0  0  0  0  0  0  0  0  0
   58.5910   24.6260   46.0180 C   0  0  0  0  0  0  0  0  0  0  0  0
   57.5380   25.5480   45.9890 C   0  0  0  0  0  0  0  0  0  0  0  0
   55.8680   24.9900   45.9780 S   0  0  0  0  0  0  0  0  0  0  0  0
   54.8050   26.3520   45.9900 N   0  0  0  0  0  0  0  0  0  0  0  0
   55.6100   24.1390   47.1900 O   0  0  0  0  0  0  0  0  0  0  0  0
   55.6100   24.1670   44.7480 O   0  0  0  0  0  0  0  0  0  0  0  0
   57.8190   26.9210   45.9430 C   0  0  0  0  0  0  0  0  0  0  0  0
   59.8160   31.6810   46.8150 C   0  0  0  0  0  0  0  0  0  0  0  0
   63.2749   32.3229   48.6273 H   0  0  0  0  0  0  0  0  0  0  0  0
   62.8122   31.3479   47.1914 H   0  0  0  0  0  0  0  0  0  0  0  0
   64.3529   32.2713   47.1914 H   0  0  0  0  0  0  0  0  0  0  0  0
   63.1395   34.3925   47.1963 H   0  0  0  0  0  0  0  0  0  0  0  0
   62.5226   33.3589   45.8502 H   0  0  0  0  0  0  0  0  0  0  0  0
   59.3928   35.0390   46.3513 H   0  0  0  0  0  0  0  0  0  0  0  0
   57.3254   34.2239   45.2335 H   0  0  0  0  0  0  0  0  0  0  0  0
   56.1145   31.2883   42.9654 H   0  0  0  0  0  0  0  0  0  0  0  0
   57.6730   30.5654   43.5225 H   0  0  0  0  0  0  0  0  0  0  0  0
   55.8435   29.3134   45.1687 H   0  0  0  0  0  0  0  0  0  0  0  0
   54.9130   29.4786   43.6411 H   0  0  0  0  0  0  0  0  0  0  0  0
   56.4962   28.6300   43.6411 H   0  0  0  0  0  0  0  0  0  0  0  0
   57.4020   29.4880   46.2860 H   0  0  0  0  0  0  0  0  0  0  0  0
   61.2397   26.7853   45.9874 H   0  0  0  0  0  0  0  0  0  0  0  0
   60.7380   24.3439   46.0488 H   0  0  0  0  0  0  0  0  0  0  0  0
   58.3755   23.5476   46.0408 H   0  0  0  0  0  0  0  0  0  0  0  0
   55.1500   27.0140   45.2590 H   0  0  0  0  0  0  0  0  0  0  0  0
   56.9918   27.6456   45.9176 H   0  0  0  0  0  0  0  0  0  0  0  0
   60.5271   30.9635   47.2503 H   0  0  0  0  0  0  0  0  0  0  0  0
  1  2  1  0
  2  3  1  0
  3  4  1  0
  4  5  2  0
  5  6  1  0
  6  7  2  0
  7  8  1  0
  8  9  1  0
  9 10  1  0
  7 11  1  0
 11 12  1  0
 12 13  1  0
 13 14  2  0
 13 15  1  0
 15 16  2  0
 16 17  1  0
 17 18  2  0
 18 19  1  0
 19 20  1  0
 20 21  1  0
 20 22  2  0
 20 23  2  0
 19 24  2  0
 11 25  2  0
 25  4  1  0
 24 15  1  0
  1 26  1  0
  1 27  1  0
  1 28  1  0
  2 29  1  0
  2 30  1  0
  5 31  1  0
  6 32  1  0
  9 33  1  0
  9 34  1  0
 10 35  1  0
 10 36  1  0
 10 37  1  0
 12 38  1  0
 16 39  1  0
 17 40  1  0
 18 41  1  0
 21 42  1  0
 24 43  1  0
 25 44  1  0
M  CHG  1  21  -1
M  END
>  <UniqueID>  (20) 
19

>  <SMILES>  (20) 
CCOc1ccc(OCC)c(NC(=O)c2cccc(S([NH-])(=O)=O)c2)c1

>  <Energy>  (20) 
47.82653047590408

>  <Genealogy>  (20) 
CCOc1ccc(OCC)c(NC(=O)c2cccc(S([NH-])(=O)=O)c2)c1 (protonated)
CCOc1ccc(OCC)c(NC(=O)c2cccc(S([NH-])(=O)=O)c2)c1 (3D coordinates assigned)
CCOc1ccc(OCC)c(NC(=O)c2cccc(S([NH-])(=O)=O)c2)c1 (optimized conformer: 47.82653047590408 kcal/mol)

>  <smiles>  (20) 
CCOc1ccc(OCC)c(NC(=O)c2cccc(S(N)(=O)=O)c2)c1

>  <score_type>  (20) 
oracle

>  <origin>  (20) 
adg

>  <m_score__min__energy>  (20) 
-11.07

>  <m_primary>  (20) 
energy

$$$$
20:0
     RDKit          3D

 42 43  0  0  0  0  0  0  0  0999 V2000
   64.1460   32.9140   46.8690 C   0  0  0  0  0  0  0  0  0  0  0  0
   62.8960   33.3140   47.5940 C   0  0  0  0  0  0  0  0  0  0  0  0
   62.8780   33.3620   48.9950 C   0  0  0  0  0  0  0  0  0  0  0  0
   61.7060   33.7120   49.6780 C   0  0  0  0  0  0  0  0  0  0  0  0
   61.6900   33.7480   51.1790 C   0  0  0  0  0  0  0  0  0  0  0  0
   60.5310   33.9660   48.9550 C   0  0  0  0  0  0  0  0  0  0  0  0
   60.5240   33.8910   47.5510 C   0  0  0  0  0  0  0  0  0  0  0  0
   59.2900   34.1580   46.7750 C   0  0  0  0  0  0  0  0  0  0  0  0
   58.7560   35.3000   46.8390 O   0  0  0  0  0  0  0  0  0  0  0  0
   58.7050   33.1480   45.9340 N   0  0  0  0  0  0  0  0  0  0  0  0
   57.4560   33.3670   45.2090 C   0  0  0  0  0  0  0  0  0  0  0  0
   57.2520   32.2880   44.1950 C   0  0  0  0  0  0  0  0  0  0  0  0
   57.5800   32.4880   42.9940 O   0  0  0  0  0  0  0  0  0  0  0  0
   56.6440   31.0530   44.5920 N   0  0  0  0  0  0  0  0  0  0  0  0
   57.3330   29.8430   44.9350 C   0  0  0  0  0  0  0  0  0  0  0  0
   58.7320   29.8210   44.8600 C   0  0  0  0  0  0  0  0  0  0  0  0
   59.4380   28.6550   45.1670 C   0  0  0  0  0  0  0  0  0  0  0  0
   58.7500   27.4960   45.5330 C   0  0  0  0  0  0  0  0  0  0  0  0
   57.3500   27.4920   45.5800 C   0  0  0  0  0  0  0  0  0  0  0  0
   56.4760   26.0310   46.0270 S   0  0  0  0  0  0  0  0  0  0  0  0
   54.7770   26.3410   45.9960 N   0  0  0  0  0  0  0  0  0  0  0  0
   56.8050   24.9280   45.0600 O   0  0  0  0  0  0  0  0  0  0  0  0
   56.8790   25.5960   47.4090 O   0  0  0  0  0  0  0  0  0  0  0  0
   56.6440   28.6660   45.2800 C   0  0  0  0  0  0  0  0  0  0  0  0
   61.7160   33.5690   46.8790 C   0  0  0  0  0  0  0  0  0  0  0  0
   64.9293   32.6634   47.5995 H   0  0  0  0  0  0  0  0  0  0  0  0
   63.9392   32.0372   46.2378 H   0  0  0  0  0  0  0  0  0  0  0  0
   64.4866   33.7480   46.2378 H   0  0  0  0  0  0  0  0  0  0  0  0
   63.7901   33.1233   49.5617 H   0  0  0  0  0  0  0  0  0  0  0  0
   62.1072   32.8094   51.5727 H   0  0  0  0  0  0  0  0  0  0  0  0
   62.2962   34.5953   51.5319 H   0  0  0  0  0  0  0  0  0  0  0  0
   60.6548   33.8656   51.5319 H   0  0  0  0  0  0  0  0  0  0  0  0
   59.6066   34.2262   49.4914 H   0  0  0  0  0  0  0  0  0  0  0  0
   59.2060   32.2460   45.7740 H   0  0  0  0  0  0  0  0  0  0  0  0
   56.6170   33.3605   45.9203 H   0  0  0  0  0  0  0  0  0  0  0  0
   57.5049   34.3382   44.6949 H   0  0  0  0  0  0  0  0  0  0  0  0
   59.2777   30.7270   44.5577 H   0  0  0  0  0  0  0  0  0  0  0  0
   60.5370   28.6499   45.1204 H   0  0  0  0  0  0  0  0  0  0  0  0
   59.3095   26.5831   45.7852 H   0  0  0  0  0  0  0  0  0  0  0  0
   54.2990   25.4140   45.9390 H   0  0  0  0  0  0  0  0  0  0  0  0
   55.5445   28.6665   45.3147 H   0  0  0  0  0  0  0  0  0  0  0  0
   61.7237   33.5164   45.7803 H   0  0  0  0  0  0  0  0  0  0  0  0
  1  2  1  0
  2  3  2  0
  3  4  1  0
  4  5  1  0
  4  6  2  0
  6  7  1  0
  7  8  1  0
  8  9  2  0
  8 10  1  0
 10 11  1  0
 11 12  1  0
 12 13  2  0
 12 14  1  0
 14 15  1  0
 15 16  2  0
 16 17  1  0
 17 18  2  0
 18 19  1  0
 19 20  1  0
 20 21  1  0
 20 22  2  0
 20 23  2  0
 19 24  2  0
  7 25  2  0
 25  2  1  0
 24 15  1  0
  1 26  1  0
  1 27  1  0
  1 28  1  0
  3 29  1  0
  5 30  1  0
  5 31  1  0
  5 32  1  0
  6 33  1  0
 10 34  1  0
 11 35  1  0
 11 36  1  0
 16 37  1  0
 17 38  1  0
 18 39  1  0
 21 40  1  0
 24 41  1  0
 25 42  1  0
M  CHG  2  14  -1  21  -1
M  END
>  <UniqueID>  (21) 
20

>  <SMILES>  (21) 
Cc1cc(C)cc(C(=O)NCC(=O)[N-]c2cccc(S([NH-])(=O)=O)c2)c1

>  <Energy>  (21) 
42.93807352368019

>  <Genealogy>  (21) 
Cc1cc(C)cc(C(=O)NCC(=O)[N-]c2cccc(S([NH-])(=O)=O)c2)c1 (protonated)
Cc1cc(C)cc(C(=O)NCC(=O)[N-]c2cccc(S([NH-])(=O)=O)c2)c1 (3D coordinates assigned)
Cc1cc(C)cc(C(=O)NCC(=O)[N-]c2cccc(S([NH-])(=O)=O)c2)c1 (optimized conformer: 42.93807352368019 kcal/mol)

>  <smiles>  (21) 
Cc1cc(C)cc(C(=O)NCC(=O)Nc2cccc(S(N)(=O)=O)c2)c1

>  <score_type>  (21) 
oracle

>  <origin>  (21) 
adg

>  <m_score__min__energy>  (21) 
-12.91

>  <m_primary>  (21) 
energy

$$$$
21:0
     RDKit          3D

 76 80  0  0  0  0  0  0  0  0999 V2000
   62.8910   32.9630   47.5730 C   0  0  0  0  0  0  0  0  0  0  0  0
   61.6860   33.8380   47.9100 C   0  0  0  0  0  0  0  0  0  0  0  0
   61.2090   33.6700   49.3630 C   0  0  0  0  0  0  0  0  0  0  0  0
   59.6870   33.8280   49.5370 C   0  0  0  0  0  0  0  0  0  0  0  0
   59.0500   32.5990   50.1260 C   0  0  0  0  0  0  0  0  0  0  0  0
   58.0870   32.6490   51.0720 N   0  0  0  0  0  0  0  0  0  0  0  0
   57.7630   31.3930   51.3330 N   0  0  0  0  0  0  0  0  0  0  0  0
   56.7950   30.9970   52.3110 C   0  0  0  0  0  0  0  0  0  0  0  0
   55.4750   30.7710   51.8950 C   0  0  0  0  0  0  0  0  0  0  0  0
   54.4940   30.4090   52.8170 C   0  0  0  0  0  0  0  0  0  0  0  0
   54.8210   30.2760   54.1660 C   0  0  0  0  0  0  0  0  0  0  0  0
   56.1360   30.4820   54.5940 C   0  0  0  0  0  0  0  0  0  0  0  0
   57.1490   30.8180   53.6730 C   0  0  0  0  0  0  0  0  0  0  0  0
   58.5690   31.0220   54.1600 C   0  0  0  0  0  0  0  0  0  0  0  0
   59.4510   30.2450   53.4300 F   0  0  0  0  0  0  0  0  0  0  0  0
   58.6990   30.6640   55.4920 F   0  0  0  0  0  0  0  0  0  0  0  0
   58.9130   32.3540   54.0260 F   0  0  0  0  0  0  0  0  0  0  0  0
   58.5390   30.5970   50.5770 C   0  0  0  0  0  0  0  0  0  0  0  0
   58.5230   29.3370   50.6200 O   0  0  0  0  0  0  0  0  0  0  0  0
   59.3560   31.3200   49.7890 N   0  0  0  0  0  0  0  0  0  0  0  0
   60.3840   30.8240   48.8710 C   0  0  0  0  0  0  0  0  0  0  0  0
   59.8850   29.6240   48.1100 C   0  0  0  0  0  0  0  0  0  0  0  0
   58.5840   29.6130   47.5820 C   0  0  0  0  0  0  0  0  0  0  0  0
   58.1260   28.5050   46.8620 C   0  0  0  0  0  0  0  0  0  0  0  0
   58.9660   27.3990   46.6530 C   0  0  0  0  0  0  0  0  0  0  0  0
   58.4900   26.2270   45.8900 C   0  0  0  0  0  0  0  0  0  0  0  0
   58.5810   24.9580   46.4890 C   0  0  0  0  0  0  0  0  0  0  0  0
   58.1190   23.8220   45.8230 C   0  0  0  0  0  0  0  0  0  0  0  0
   57.5570   23.9380   44.5530 C   0  0  0  0  0  0  0  0  0  0  0  0
   57.4640   25.1900   43.9420 C   0  0  0  0  0  0  0  0  0  0  0  0
   57.9400   26.3430   44.5880 C   0  0  0  0  0  0  0  0  0  0  0  0
   57.8350   27.8850   43.7210 S   0  0  0  0  0  0  0  0  0  0  0  0
   57.4570   27.6910   42.2790 O   0  0  0  0  0  0  0  0  0  0  0  0
   59.1650   28.5800   43.7920 O   0  0  0  0  0  0  0  0  0  0  0  0
   56.6370   28.8810   44.4740 N   0  0  0  0  0  0  0  0  0  0  0  0
   56.5780   30.2950   44.2610 C   0  0  0  0  0  0  0  0  0  0  0  0
   55.5210   30.9350   44.5110 O   0  0  0  0  0  0  0  0  0  0  0  0
   57.7880   31.0230   43.7720 C   0  0  0  0  0  0  0  0  0  0  0  0
   58.0680   32.1990   44.6700 C   0  0  0  0  0  0  0  0  0  0  0  0
   58.7830   33.3070   44.1840 C   0  0  0  0  0  0  0  0  0  0  0  0
   58.9820   34.4130   45.0140 C   0  0  0  0  0  0  0  0  0  0  0  0
   58.4580   34.4110   46.3080 C   0  0  0  0  0  0  0  0  0  0  0  0
   57.7490   33.2950   46.7610 C   0  0  0  0  0  0  0  0  0  0  0  0
   57.5680   32.2200   45.9440 N   0  0  0  0  0  0  0  0  0  0  0  0
   60.2600   27.4050   47.1920 C   0  0  0  0  0  0  0  0  0  0  0  0
   60.7190   28.5110   47.9110 C   0  0  0  0  0  0  0  0  0  0  0  0
   63.3656   32.6184   48.5036 H   0  0  0  0  0  0  0  0  0  0  0  0
   62.5600   32.0934   46.9863 H   0  0  0  0  0  0  0  0  0  0  0  0
   63.6155   33.5469   46.9863 H   0  0  0  0  0  0  0  0  0  0  0  0
   61.9619   34.8909   47.7511 H   0  0  0  0  0  0  0  0  0  0  0  0
   60.8595   33.5268   47.2542 H   0  0  0  0  0  0  0  0  0  0  0  0
   61.4957   32.6659   49.7087 H   0  0  0  0  0  0  0  0  0  0  0  0
   61.6845   34.4682   49.9518 H   0  0  0  0  0  0  0  0  0  0  0  0
   59.4937   34.6811   50.2040 H   0  0  0  0  0  0  0  0  0  0  0  0
   59.2490   33.9901   48.5410 H   0  0  0  0  0  0  0  0  0  0  0  0
   55.2115   30.8802   50.8326 H   0  0  0  0  0  0  0  0  0  0  0  0
   53.4624   30.2284   52.4805 H   0  0  0  0  0  0  0  0  0  0  0  0
   54.0423   30.0083   54.8954 H   0  0  0  0  0  0  0  0  0  0  0  0
   56.3829   30.3808   55.6612 H   0  0  0  0  0  0  0  0  0  0  0  0
   60.6460   31.6200   48.1584 H   0  0  0  0  0  0  0  0  0  0  0  0
   61.2676   30.5290   49.4561 H   0  0  0  0  0  0  0  0  0  0  0  0
   57.9229   30.4787   47.7352 H   0  0  0  0  0  0  0  0  0  0  0  0
   57.1031   28.4997   46.4575 H   0  0  0  0  0  0  0  0  0  0  0  0
   59.0207   24.8598   47.4925 H   0  0  0  0  0  0  0  0  0  0  0  0
   58.1985   22.8344   46.3008 H   0  0  0  0  0  0  0  0  0  0  0  0
   57.1866   23.0429   44.0318 H   0  0  0  0  0  0  0  0  0  0  0  0
   57.0125   25.2745   42.9425 H   0  0  0  0  0  0  0  0  0  0  0  0
   58.6524   30.3427   43.7796 H   0  0  0  0  0  0  0  0  0  0  0  0
   57.6095   31.3806   42.7472 H   0  0  0  0  0  0  0  0  0  0  0  0
   59.1824   33.3034   43.1591 H   0  0  0  0  0  0  0  0  0  0  0  0
   59.5493   35.2820   44.6494 H   0  0  0  0  0  0  0  0  0  0  0  0
   58.6020   35.2808   46.9658 H   0  0  0  0  0  0  0  0  0  0  0  0
   57.3358   33.2846   47.7804 H   0  0  0  0  0  0  0  0  0  0  0  0
   57.0250   31.4030   46.3020 H   0  0  0  0  0  0  0  0  0  0  0  0
   60.9170   26.5346   47.0480 H   0  0  0  0  0  0  0  0  0  0  0  0
   61.7387   28.5106   48.3236 H   0  0  0  0  0  0  0  0  0  0  0  0
  1  2  1  0
  2  3  1  0
  3  4  1  0
  4  5  1  0
  5  6  2  0
  6  7  1  0
  7  8  1  0
  8  9  2  0
  9 10  1  0
 10 11  2  0
 11 12  1  0
 12 13  2  0
 13 14  1  0
 14 15  1  0
 14 16  1  0
 14 17  1  0
  7 18  1  0
 18 19  2  0
 18 20  1  0
 20 21  1  0
 21 22  1  0
 22 23  2  0
 23 24  1  0
 24 25  2  0
 25 26  1  0
 26 27  2  0
 27 28  1  0
 28 29  2  0
 29 30  1  0
 30 31  2  0
 31 32  1  0
 32 33  2  0
 32 34  2  0
 32 35  1  0
 35 36  1  0
 36 37  2  0
 36 38  1  0
 38 39  1  0
 39 40  2  0
 40 41  1  0
 41 42  2  0
 42 43  1  0
 43 44  2  0
 25 45  1  0
 45 46  2  0
 20  5  1  0
 46 22  1  0
 13  8  1  0
 31 26  1  0
 44 39  1  0
  1 47  1  0
  1 48  1  0
  1 49  1  0
  2 50  1  0
  2 51  1  0
  3 52  1  0
  3 53  1  0
  4 54  1  0
  4 55  1  0
  9 56  1  0
 10 57  1  0
 11 58  1  0
 12 59  1  0
 21 60  1  0
 21 61  1  0
 23 62  1  0
 24 63  1  0
 27 64  1  0
 28 65  1  0
 29 66  1  0
 30 67  1  0
 38 68  1  0
 38 69  1  0
 40 70  1  0
 41 71  1  0
 42 72  1  0
 43 73  1  0
 44 74  1  0
 45 75  1  0
 46 76  1  0
M  CHG  2  35  -1  44   1
M  END
>  <UniqueID>  (22) 
21

>  <SMILES>  (22) 
CCCCc1nn(-c2ccccc2C(F)(F)F)c(=O)n1Cc1ccc(-c2ccccc2S(=O)(=O)[N-]C(=O)Cc2cccc[nH+]2)cc1

>  <Energy>  (22) 
129.87774028249584

>  <Genealogy>  (22) 
CCCCc1nn(-c2ccccc2C(F)(F)F)c(=O)n1Cc1ccc(-c2ccccc2S(=O)(=O)[N-]C(=O)Cc2cccc[nH+]2)cc1 (protonated)
CCCCc1nn(-c2ccccc2C(F)(F)F)c(=O)n1Cc1ccc(-c2ccccc2S(=O)(=O)[N-]C(=O)Cc2cccc[nH+]2)cc1 (3D coordinates assigned)
CCCCc1nn(-c2ccccc2C(F)(F)F)c(=O)n1Cc1ccc(-c2ccccc2S(=O)(=O)[N-]C(=O)Cc2cccc[nH+]2)cc1 (optimized conformer: 129.87774028249584 kcal/mol)

>  <smiles>  (22) 
CCCCc1nn(-c2ccccc2C(F)(F)F)c(=O)n1Cc1ccc(-c2ccccc2S(=O)(=O)NC(=O)Cc2ccccn2)cc1

>  <score_type>  (22) 
oracle

>  <origin>  (22) 
adg

>  <m_score__min__energy>  (22) 
-10.029999999999999

>  <m_primary>  (22) 
energy

$$$$
22:0
     RDKit          3D

 52 54  0  0  0  0  0  0  0  0999 V2000
   54.7680   26.1280   45.9730 N   0  0  0  0  0  0  0  0  0  0  0  0
   56.4120   25.7320   45.6160 S   0  0  0  0  0  0  0  0  0  0  0  0
   57.0300   25.0500   46.8030 O   0  0  0  0  0  0  0  0  0  0  0  0
   56.4600   24.7960   44.4420 O   0  0  0  0  0  0  0  0  0  0  0  0
   57.3020   27.2040   45.2460 C   0  0  0  0  0  0  0  0  0  0  0  0
   58.6400   27.1360   44.8390 C   0  0  0  0  0  0  0  0  0  0  0  0
   59.3240   28.3010   44.4820 C   0  0  0  0  0  0  0  0  0  0  0  0
   58.6740   29.5360   44.5260 C   0  0  0  0  0  0  0  0  0  0  0  0
   57.3400   29.6210   44.9410 C   0  0  0  0  0  0  0  0  0  0  0  0
   56.6840   30.8960   44.8870 N   0  0  0  0  0  0  0  0  0  0  0  0
   57.3190   32.1740   44.7570 C   0  0  0  0  0  0  0  0  0  0  0  0
   57.5770   32.6520   43.6200 O   0  0  0  0  0  0  0  0  0  0  0  0
   57.6250   32.9720   45.9840 C   0  0  0  0  0  0  0  0  0  0  0  0
   58.0740   34.3140   45.6280 N   0  0  0  0  0  0  0  0  0  0  0  0
   59.3810   34.8620   45.8560 C   0  0  0  0  0  0  0  0  0  0  0  0
   59.7010   35.9240   45.2570 O   0  0  0  0  0  0  0  0  0  0  0  0
   60.3390   34.2230   46.7190 N   0  0  0  0  0  0  0  0  0  0  0  0
   59.9710   33.8120   48.0780 C   0  0  0  0  0  0  0  0  0  0  0  0
   61.1020   34.1630   49.0530 C   0  0  0  0  0  0  0  0  0  0  0  0
   62.4180   33.6000   48.6570 N   0  0  0  0  0  0  0  0  0  0  0  0
   62.8250   32.2110   49.6360 S   0  0  0  0  0  0  0  0  0  0  0  0
   64.2760   31.8680   49.4340 O   0  0  0  0  0  0  0  0  0  0  0  0
   62.5880   32.5200   51.0870 O   0  0  0  0  0  0  0  0  0  0  0  0
   61.8190   30.8400   49.1790 C   0  0  0  0  0  0  0  0  0  0  0  0
   61.3640   30.7140   47.8590 C   0  0  0  0  0  0  0  0  0  0  0  0
   60.5710   29.6230   47.4890 C   0  0  0  0  0  0  0  0  0  0  0  0
   60.2250   28.6560   48.4390 C   0  0  0  0  0  0  0  0  0  0  0  0
   59.2320   27.2870   47.9740 Cl  0  0  0  0  0  0  0  0  0  0  0  0
   60.6690   28.7830   49.7590 C   0  0  0  0  0  0  0  0  0  0  0  0
   61.4640   29.8730   50.1300 C   0  0  0  0  0  0  0  0  0  0  0  0
   62.5390   33.2470   47.2260 C   0  0  0  0  0  0  0  0  0  0  0  0
   61.7510   34.2030   46.3240 C   0  0  0  0  0  0  0  0  0  0  0  0
   56.6540   28.4460   45.2960 C   0  0  0  0  0  0  0  0  0  0  0  0
   54.7690   27.0880   46.3840 H   0  0  0  0  0  0  0  0  0  0  0  0
   59.1535   26.1640   44.8002 H   0  0  0  0  0  0  0  0  0  0  0  0
   60.3761   28.2451   44.1658 H   0  0  0  0  0  0  0  0  0  0  0  0
   59.2140   30.4483   44.2325 H   0  0  0  0  0  0  0  0  0  0  0  0
   56.7178   33.0468   46.6016 H   0  0  0  0  0  0  0  0  0  0  0  0
   58.4269   32.4675   46.5430 H   0  0  0  0  0  0  0  0  0  0  0  0
   59.0522   34.3354   48.3813 H   0  0  0  0  0  0  0  0  0  0  0  0
   59.8022   32.7252   48.0948 H   0  0  0  0  0  0  0  0  0  0  0  0
   61.1920   35.2582   49.1029 H   0  0  0  0  0  0  0  0  0  0  0  0
   60.8400   33.7226   50.0264 H   0  0  0  0  0  0  0  0  0  0  0  0
   61.6316   31.4757   47.1118 H   0  0  0  0  0  0  0  0  0  0  0  0
   60.2194   29.5252   46.4513 H   0  0  0  0  0  0  0  0  0  0  0  0
   60.3928   28.0249   50.5067 H   0  0  0  0  0  0  0  0  0  0  0  0
   61.8109   29.9713   51.1692 H   0  0  0  0  0  0  0  0  0  0  0  0
   63.6006   33.2852   46.9405 H   0  0  0  0  0  0  0  0  0  0  0  0
   62.1237   32.2373   47.0915 H   0  0  0  0  0  0  0  0  0  0  0  0
   62.1685   35.2165   46.4160 H   0  0  0  0  0  0  0  0  0  0  0  0
   61.8276   33.8587   45.2821 H   0  0  0  0  0  0  0  0  0  0  0  0
   55.6027   28.5018   45.6148 H   0  0  0  0  0  0  0  0  0  0  0  0
  1  2  1  0
  2  3  2  0
  2  4  2  0
  2  5  1  0
  5  6  2  0
  6  7  1  0
  7  8  2  0
  8  9  1  0
  9 10  1  0
 10 11  1  0
 11 12  2  0
 11 13  1  0
 13 14  1  0
 14 15  1  0
 15 16  2  0
 15 17  1  0
 17 18  1  0
 18 19  1  0
 19 20  1  0
 20 21  1  0
 21 22  2  0
 21 23  2  0
 21 24  1  0
 24 25  2  0
 25 26  1  0
 26 27  2  0
 27 28  1  0
 27 29  1  0
 29 30  2  0
 20 31  1  0
 31 32  1  0
  9 33  2  0
 33  5  1  0
 32 17  1  0
 30 24  1  0
  1 34  1  0
  6 35  1  0
  7 36  1  0
  8 37  1  0
 13 38  1  0
 13 39  1  0
 18 40  1  0
 18 41  1  0
 19 42  1  0
 19 43  1  0
 25 44  1  0
 26 45  1  0
 29 46  1  0
 30 47  1  0
 31 48  1  0
 31 49  1  0
 32 50  1  0
 32 51  1  0
 33 52  1  0
M  CHG  3   1  -1  10  -1  14  -1
M  END
>  <UniqueID>  (23) 
22

>  <SMILES>  (23) 
[NH-]S(=O)(=O)c1cccc([N-]C(=O)C[N-]C(=O)N2CCN(S(=O)(=O)c3ccc(Cl)cc3)CC2)c1

>  <Energy>  (23) 
58.255825840599485

>  <Genealogy>  (23) 
[NH-]S(=O)(=O)c1cccc([N-]C(=O)C[N-]C(=O)N2CCN(S(=O)(=O)c3ccc(Cl)cc3)CC2)c1 (protonated)
[NH-]S(=O)(=O)c1cccc([N-]C(=O)C[N-]C(=O)N2CCN(S(=O)(=O)c3ccc(Cl)cc3)CC2)c1 (3D coordinates assigned)
[NH-]S(=O)(=O)c1cccc([N-]C(=O)C[N-]C(=O)N2CCN(S(=O)(=O)c3ccc(Cl)cc3)CC2)c1 (nonaromatic ring conformer: 58.255825840599485 kcal/mol)

>  <smiles>  (23) 
NS(=O)(=O)c1cccc(NC(=O)CNC(=O)N2CCN(S(=O)(=O)c3ccc(Cl)cc3)CC2)c1

>  <score_type>  (23) 
oracle

>  <origin>  (23) 
adg

>  <m_score__min__energy>  (23) 
-15.449999999999999

>  <m_primary>  (23) 
energy

$$$$
23:0
     RDKit          3D

 44 45  0  0  0  0  0  0  0  0999 V2000
   62.3750   31.5950   47.5370 C   0  0  0  0  0  0  0  0  0  0  0  0
   62.9660   32.9780   47.2650 C   0  0  0  0  0  0  0  0  0  0  0  0
   62.0680   33.8430   46.3620 C   0  0  0  0  0  0  0  0  0  0  0  0
   60.8110   34.3760   47.0720 C   0  0  0  0  0  0  0  0  0  0  0  0
   59.8360   34.9500   46.1270 N   0  0  0  0  0  0  0  0  0  0  0  0
   60.0090   36.3200   45.6330 C   0  0  0  0  0  0  0  0  0  0  0  0
   58.7110   34.1830   45.6510 C   0  0  0  0  0  0  0  0  0  0  0  0
   57.7270   34.7790   45.1340 O   0  0  0  0  0  0  0  0  0  0  0  0
   58.6730   32.7090   45.7480 C   0  0  0  0  0  0  0  0  0  0  0  0
   58.3910   31.9380   44.6110 C   0  0  0  0  0  0  0  0  0  0  0  0
   58.3400   30.5440   44.6970 C   0  0  0  0  0  0  0  0  0  0  0  0
   58.5580   29.8960   45.9270 C   0  0  0  0  0  0  0  0  0  0  0  0
   58.5070   28.4150   46.0190 C   0  0  0  0  0  0  0  0  0  0  0  0
   59.6910   27.6610   46.0000 C   0  0  0  0  0  0  0  0  0  0  0  0
   59.6440   26.2700   46.0850 C   0  0  0  0  0  0  0  0  0  0  0  0
   58.4170   25.6030   46.1910 C   0  0  0  0  0  0  0  0  0  0  0  0
   58.4030   24.2100   46.2720 O   0  0  0  0  0  0  0  0  0  0  0  0
   57.2130   26.3410   46.2140 C   0  0  0  0  0  0  0  0  0  0  0  0
   55.8900   25.6720   46.3300 C   0  0  0  0  0  0  0  0  0  0  0  0
   55.8100   24.4900   46.7610 O   0  0  0  0  0  0  0  0  0  0  0  0
   54.7190   26.3280   45.9680 O   0  0  0  0  0  0  0  0  0  0  0  0
   57.2740   27.7460   46.1270 C   0  0  0  0  0  0  0  0  0  0  0  0
   58.8190   30.6750   47.0690 C   0  0  0  0  0  0  0  0  0  0  0  0
   58.8690   32.0690   46.9800 C   0  0  0  0  0  0  0  0  0  0  0  0
   62.3057   31.4329   48.6228 H   0  0  0  0  0  0  0  0  0  0  0  0
   61.3711   31.5313   47.0920 H   0  0  0  0  0  0  0  0  0  0  0  0
   63.0228   30.8254   47.0920 H   0  0  0  0  0  0  0  0  0  0  0  0
   63.1028   33.4969   48.2252 H   0  0  0  0  0  0  0  0  0  0  0  0
   63.9217   32.8326   46.7402 H   0  0  0  0  0  0  0  0  0  0  0  0
   62.6566   34.7014   46.0061 H   0  0  0  0  0  0  0  0  0  0  0  0
   61.7248   33.2003   45.5378 H   0  0  0  0  0  0  0  0  0  0  0  0
   60.3325   33.5470   47.6140 H   0  0  0  0  0  0  0  0  0  0  0  0
   61.1257   35.1760   47.7583 H   0  0  0  0  0  0  0  0  0  0  0  0
   60.0960   37.0091   46.4860 H   0  0  0  0  0  0  0  0  0  0  0  0
   60.9214   36.3767   45.0212 H   0  0  0  0  0  0  0  0  0  0  0  0
   59.1393   36.6018   45.0212 H   0  0  0  0  0  0  0  0  0  0  0  0
   58.2089   32.4333   43.6459 H   0  0  0  0  0  0  0  0  0  0  0  0
   58.1279   29.9489   43.7965 H   0  0  0  0  0  0  0  0  0  0  0  0
   60.6622   28.1709   45.9175 H   0  0  0  0  0  0  0  0  0  0  0  0
   60.5792   25.6912   46.0686 H   0  0  0  0  0  0  0  0  0  0  0  0
   57.5360   23.6880   46.3390 H   0  0  0  0  0  0  0  0  0  0  0  0
   56.3418   28.3297   46.1438 H   0  0  0  0  0  0  0  0  0  0  0  0
   58.9849   30.1835   48.0390 H   0  0  0  0  0  0  0  0  0  0  0  0
   59.0633   32.6677   47.8821 H   0  0  0  0  0  0  0  0  0  0  0  0
  1  2  1  0
  2  3  1  0
  3  4  1  0
  4  5  1  0
  5  6  1  0
  5  7  1  0
  7  8  2  0
  7  9  1  0
  9 10  2  0
 10 11  1  0
 11 12  2  0
 12 13  1  0
 13 14  2  0
 14 15  1  0
 15 16  2  0
 16 17  1  0
 16 18  1  0
 18 19  1  0
 19 20  2  0
 19 21  1  0
 18 22  2  0
 12 23  1  0
 23 24  2  0
 24  9  1  0
 22 13  1  0
  1 25  1  0
  1 26  1  0
  1 27  1  0
  2 28  1  0
  2 29  1  0
  3 30  1  0
  3 31  1  0
  4 32  1  0
  4 33  1  0
  6 34  1  0
  6 35  1  0
  6 36  1  0
 10 37  1  0
 11 38  1  0
 14 39  1  0
 15 40  1  0
 17 41  1  0
 22 42  1  0
 23 43  1  0
 24 44  1  0
M  CHG  1  21  -1
M  END
>  <UniqueID>  (24) 
23

>  <SMILES>  (24) 
CCCCN(C)C(=O)c1ccc(-c2ccc(O)c(C(=O)[O-])c2)cc1

>  <Energy>  (24) 
50.176705712686115

>  <Genealogy>  (24) 
CCCCN(C)C(=O)c1ccc(-c2ccc(O)c(C(=O)[O-])c2)cc1 (protonated)
CCCCN(C)C(=O)c1ccc(-c2ccc(O)c(C(=O)[O-])c2)cc1 (3D coordinates assigned)
CCCCN(C)C(=O)c1ccc(-c2ccc(O)c(C(=O)[O-])c2)cc1 (optimized conformer: 50.176705712686115 kcal/mol)

>  <smiles>  (24) 
CCCCN(C)C(=O)c1ccc(-c2ccc(O)c(C(=O)O)c2)cc1

>  <score_type>  (24) 
oracle

>  <origin>  (24) 
adg

>  <m_score__min__energy>  (24) 
-9.5399999999999991

>  <m_primary>  (24) 
energy

$$$$
24:0
     RDKit          3D

 44 46  0  0  0  0  0  0  0  0999 V2000
   55.4140   26.4910   45.9960 N   0  0  0  0  0  0  0  0  0  0  0  0
   56.7570   26.9310   45.8000 C   0  0  0  0  0  0  0  0  0  0  0  0
   57.7060   26.1730   46.1350 O   0  0  0  0  0  0  0  0  0  0  0  0
   57.0350   28.2620   45.2100 C   0  0  0  0  0  0  0  0  0  0  0  0
   58.3360   28.6020   44.7980 C   0  0  0  0  0  0  0  0  0  0  0  0
   58.6000   29.8570   44.2430 C   0  0  0  0  0  0  0  0  0  0  0  0
   57.5680   30.7950   44.0880 C   0  0  0  0  0  0  0  0  0  0  0  0
   57.8490   32.1570   43.5100 C   0  0  0  0  0  0  0  0  0  0  0  0
   58.8650   32.8760   44.3120 N   0  0  0  0  0  0  0  0  0  0  0  0
   58.5440   34.3090   44.5080 C   0  0  0  0  0  0  0  0  0  0  0  0
   57.3330   34.5280   45.4370 C   0  0  0  0  0  0  0  0  0  0  0  0
   57.2400   33.4790   46.5590 C   0  0  0  0  0  0  0  0  0  0  0  0
   58.6090   32.8510   46.8510 C   0  0  1  0  0  0  0  0  0  0  0  0
   58.5410   31.8810   48.0190 C   0  0  0  0  0  0  0  0  0  0  0  0
   58.2270   32.3500   49.3070 C   0  0  0  0  0  0  0  0  0  0  0  0
   58.1630   31.4660   50.3880 C   0  0  0  0  0  0  0  0  0  0  0  0
   58.4150   30.1040   50.2010 C   0  0  0  0  0  0  0  0  0  0  0  0
   58.3480   29.2360   51.2880 O   0  0  0  0  0  0  0  0  0  0  0  0
   58.7330   29.6270   48.9230 C   0  0  0  0  0  0  0  0  0  0  0  0
   58.7970   30.5080   47.8390 C   0  0  0  0  0  0  0  0  0  0  0  0
   59.1980   32.1770   45.5830 C   0  0  0  0  0  0  0  0  0  0  0  0
   56.2710   30.4610   44.5010 C   0  0  0  0  0  0  0  0  0  0  0  0
   56.0050   29.2070   45.0570 C   0  0  0  0  0  0  0  0  0  0  0  0
   54.7250   27.0830   46.5110 H   0  0  0  0  0  0  0  0  0  0  0  0
   59.1525   27.8740   44.9136 H   0  0  0  0  0  0  0  0  0  0  0  0
   59.6223   30.1109   43.9259 H   0  0  0  0  0  0  0  0  0  0  0  0
   58.2195   32.0412   42.4808 H   0  0  0  0  0  0  0  0  0  0  0  0
   56.9169   32.7410   43.5214 H   0  0  0  0  0  0  0  0  0  0  0  0
   59.4197   34.8084   44.9483 H   0  0  0  0  0  0  0  0  0  0  0  0
   58.2871   34.7286   43.5242 H   0  0  0  0  0  0  0  0  0  0  0  0
   57.4178   35.5246   45.8948 H   0  0  0  0  0  0  0  0  0  0  0  0
   56.4253   34.4349   44.8227 H   0  0  0  0  0  0  0  0  0  0  0  0
   56.8662   33.9641   47.4728 H   0  0  0  0  0  0  0  0  0  0  0  0
   56.5553   32.6822   46.2330 H   0  0  0  0  0  0  0  0  0  0  0  0
   59.2915   33.6627   47.1432 H   0  0  0  0  0  0  0  0  0  0  0  0
   58.0302   33.4207   49.4651 H   0  0  0  0  0  0  0  0  0  0  0  0
   57.9132   31.8440   51.3903 H   0  0  0  0  0  0  0  0  0  0  0  0
   58.9890   28.4560   51.3830 H   0  0  0  0  0  0  0  0  0  0  0  0
   58.9330   28.5560   48.7716 H   0  0  0  0  0  0  0  0  0  0  0  0
   59.0491   30.1259   46.8388 H   0  0  0  0  0  0  0  0  0  0  0  0
   60.2929   32.1479   45.6844 H   0  0  0  0  0  0  0  0  0  0  0  0
   58.7499   31.1744   45.5200 H   0  0  0  0  0  0  0  0  0  0  0  0
   55.4565   31.1914   44.3866 H   0  0  0  0  0  0  0  0  0  0  0  0
   54.9827   28.9573   45.3773 H   0  0  0  0  0  0  0  0  0  0  0  0
  1  2  1  0
  2  3  2  0
  2  4  1  0
  4  5  2  0
  5  6  1  0
  6  7  2  0
  7  8  1  0
  8  9  1  0
  9 10  1  0
 10 11  1  0
 11 12  1  0
 12 13  1  0
 13 14  1  0
 14 15  2  0
 15 16  1  0
 16 17  2  0
 17 18  1  0
 17 19  1  0
 19 20  2  0
 13 21  1  0
  7 22  1  0
 22 23  2  0
 23  4  1  0
 21  9  1  0
 20 14  1  0
  1 24  1  0
  5 25  1  0
  6 26  1  0
  8 27  1  0
  8 28  1  0
 10 29  1  0
 10 30  1  0
 11 31  1  0
 11 32  1  0
 12 33  1  0
 12 34  1  0
 13 35  1  1
 15 36  1  0
 16 37  1  0
 18 38  1  0
 19 39  1  0
 20 40  1  0
 21 41  1  0
 21 42  1  0
 22 43  1  0
 23 44  1  0
M  CHG  1   1  -1
M  END
>  <UniqueID>  (25) 
24

>  <SMILES>  (25) 
[NH-]C(=O)c1ccc(CN2CCC[C@@H](c3ccc(O)cc3)C2)cc1

>  <Energy>  (25) 
55.74372334103204

>  <Genealogy>  (25) 
[NH-]C(=O)c1ccc(CN2CCCC(c3ccc(O)cc3)C2)cc1 (protonated)
[NH-]C(=O)c1ccc(CN2CCC[C@@H](c3ccc(O)cc3)C2)cc1 (chirality)
[NH-]C(=O)c1ccc(CN2CCC[C@@H](c3ccc(O)cc3)C2)cc1 (3D coordinates assigned)
[NH-]C(=O)c1ccc(CN2CCC[C@@H](c3ccc(O)cc3)C2)cc1 (nonaromatic ring conformer: 55.74372334103204 kcal/mol)

>  <smiles>  (25) 
NC(=O)c1ccc(CN2CCCC(c3ccc(O)cc3)C2)cc1

>  <score_type>  (25) 
oracle

>  <origin>  (25) 
adg

>  <m_score__min__energy>  (25) 
-9.8699999999999992

>  <m_primary>  (25) 
energy

$$$$
25:0
     RDKit          3D

 40 42  0  0  0  0  0  0  0  0999 V2000
   57.2106   31.9460   42.4783 H   0  0  0  0  0  0  0  0  0  0  0  0
   57.0630   31.2010   43.2740 C   0  0  0  0  0  0  0  0  0  0  0  0
   56.3970   29.6690   43.0770 S   0  0  0  0  0  0  0  0  0  0  0  0
   56.5560   29.2810   44.7080 C   0  0  0  0  0  0  0  0  0  0  0  0
   56.2050   28.1610   45.2650 N   0  0  0  0  0  0  0  0  0  0  0  0
   57.0150   26.9420   45.3000 C   0  0  0  0  0  0  0  0  0  0  0  0
   57.7247   26.9600   44.4598 H   0  0  0  0  0  0  0  0  0  0  0  0
   56.3404   26.0765   45.2236 H   0  0  0  0  0  0  0  0  0  0  0  0
   57.8000   26.8270   46.6140 C   0  0  0  0  0  0  0  0  0  0  0  0
   58.3968   25.9032   46.5941 H   0  0  0  0  0  0  0  0  0  0  0  0
   57.0802   26.8105   47.4456 H   0  0  0  0  0  0  0  0  0  0  0  0
   58.7230   28.0020   46.8110 C   0  0  0  0  0  0  0  0  0  0  0  0
   58.6580   28.7670   47.9860 C   0  0  0  0  0  0  0  0  0  0  0  0
   57.9475   28.4920   48.7794 H   0  0  0  0  0  0  0  0  0  0  0  0
   59.4920   29.8770   48.1530 C   0  0  0  0  0  0  0  0  0  0  0  0
   59.4422   30.4655   49.0810 H   0  0  0  0  0  0  0  0  0  0  0  0
   60.3910   30.2420   47.1420 C   0  0  0  0  0  0  0  0  0  0  0  0
   61.4480   31.6320   47.3600 S   0  0  0  0  0  0  0  0  0  0  0  0
   62.8790   31.2240   47.1520 O   0  0  0  0  0  0  0  0  0  0  0  0
   61.0990   32.6970   46.3570 O   0  0  0  0  0  0  0  0  0  0  0  0
   61.2530   32.2560   48.9610 N   0  0  0  0  0  0  0  0  0  0  0  0
   61.9060   31.7220   49.5770 H   0  0  0  0  0  0  0  0  0  0  0  0
   60.2840   32.0140   49.2670 H   0  0  0  0  0  0  0  0  0  0  0  0
   60.4560   29.4820   45.9660 C   0  0  0  0  0  0  0  0  0  0  0  0
   61.1654   29.7596   45.1725 H   0  0  0  0  0  0  0  0  0  0  0  0
   59.6220   28.3720   45.7980 C   0  0  0  0  0  0  0  0  0  0  0  0
   59.6706   27.7863   44.8682 H   0  0  0  0  0  0  0  0  0  0  0  0
   57.1080   30.2910   45.4090 N   0  0  0  0  0  0  0  0  0  0  0  0
   57.3970   31.3660   44.6220 C   0  0  0  0  0  0  0  0  0  0  0  0
   58.0010   32.5990   45.1920 C   0  0  0  0  0  0  0  0  0  0  0  0
   57.9150   32.8960   46.5670 C   0  0  0  0  0  0  0  0  0  0  0  0
   57.3910   32.2043   47.2430 H   0  0  0  0  0  0  0  0  0  0  0  0
   58.4910   34.0640   47.0790 C   0  0  0  0  0  0  0  0  0  0  0  0
   58.4203   34.2846   48.1543 H   0  0  0  0  0  0  0  0  0  0  0  0
   59.1550   34.9500   46.2290 C   0  0  0  0  0  0  0  0  0  0  0  0
   59.7110   36.0820   46.7280 F   0  0  0  0  0  0  0  0  0  0  0  0
   59.2420   34.6720   44.8630 C   0  0  0  0  0  0  0  0  0  0  0  0
   59.7634   35.3714   44.1930 H   0  0  0  0  0  0  0  0  0  0  0  0
   58.6680   33.5070   44.3450 C   0  0  0  0  0  0  0  0  0  0  0  0
   58.7375   33.2973   43.2674 H   0  0  0  0  0  0  0  0  0  0  0  0
  1  2  1  0
  2  3  1  0
  3  4  1  0
  4  5  2  0
  5  6  1  0
  6  7  1  0
  6  8  1  0
  6  9  1  0
  9 10  1  0
  9 11  1  0
  9 12  1  0
 12 13  2  0
 13 14  1  0
 13 15  1  0
 15 16  1  0
 15 17  2  0
 17 18  1  0
 18 19  2  0
 18 20  2  0
 18 21  1  0
 21 22  1  0
 21 23  1  0
 17 24  1  0
 24 25  1  0
 24 26  2  0
 26 27  1  0
  4 28  1  0
 28 29  1  0
 29 30  1  0
 30 31  2  0
 31 32  1  0
 31 33  1  0
 33 34  1  0
 33 35  2  0
 35 36  1  0
 35 37  1  0
 37 38  1  0
 37 39  2  0
 39 40  1  0
 29  2  2  0
 39 30  1  0
 26 12  1  0
M  CHG  1  28  -1
M  END
>  <UniqueID>  (26) 
25

>  <SMILES>  (26) 
NS(=O)(=O)c1ccc(CC/N=c2/[n-]c(-c3ccc(F)cc3)cs2)cc1

>  <Energy>  (26) 
70.9524256944832

>  <Genealogy>  (26) 
NS(=O)(=O)c1ccc(CCN=c2[n-]c(-c3ccc(F)cc3)cs2)cc1 (protonated)
NS(=O)(=O)c1ccc(CC/N=c2/[n-]c(-c3ccc(F)cc3)cs2)cc1 (cis-trans isomerization)
NS(=O)(=O)c1ccc(CC/N=c2/[n-]c(-c3ccc(F)cc3)cs2)cc1 (3D coordinates assigned)
NS(=O)(=O)c1ccc(CC/N=c2/[n-]c(-c3ccc(F)cc3)cs2)cc1 (optimized conformer: 70.9524256944832 kcal/mol)

>  <smiles>  (26) 
NS(=O)(=O)c1ccc(CCN=c2[nH]c(-c3ccc(F)cc3)cs2)cc1

>  <score_type>  (26) 
oracle

>  <origin>  (26) 
adg

>  <m_score__min__energy>  (26) 
-9.5500000000000007

>  <m_primary>  (26) 
energy

$$$$
26:0
     RDKit          3D

 41 45  0  0  0  0  0  0  0  0999 V2000
   64.4932   33.6425   49.2663 H   0  0  0  0  0  0  0  0  0  0  0  0
   63.6220   33.6600   48.5950 C   0  0  0  0  0  0  0  0  0  0  0  0
   63.7960   33.4890   47.2190 C   0  0  0  0  0  0  0  0  0  0  0  0
   64.8050   33.3392   46.8074 H   0  0  0  0  0  0  0  0  0  0  0  0
   62.6910   33.5080   46.3660 C   0  0  0  0  0  0  0  0  0  0  0  0
   62.8336   33.3735   45.2836 H   0  0  0  0  0  0  0  0  0  0  0  0
   61.3970   33.6980   46.8820 C   0  0  0  0  0  0  0  0  0  0  0  0
   60.2670   33.7050   45.9960 N   0  0  0  0  0  0  0  0  0  0  0  0
   59.2980   32.6850   45.9110 C   0  0  0  0  0  0  0  0  0  0  0  0
   59.3330   31.0380   46.2220 S   0  0  0  0  0  0  0  0  0  0  0  0
   57.7480   30.8170   45.6160 C   0  0  0  0  0  0  0  0  0  0  0  0
   57.0700   29.5100   45.5310 C   0  0  0  0  0  0  0  0  0  0  0  0
   55.9340   29.4440   44.9910 O   0  0  0  0  0  0  0  0  0  0  0  0
   57.6360   28.3170   46.0940 N   0  0  0  0  0  0  0  0  0  0  0  0
   57.0530   27.1550   46.1430 C   0  0  0  0  0  0  0  0  0  0  0  0
   57.6500   26.0300   46.6270 N   0  0  0  0  0  0  0  0  0  0  0  0
   56.6920   25.1010   46.4620 C   0  0  0  0  0  0  0  0  0  0  0  0
   56.7490   23.7510   46.7980 C   0  0  0  0  0  0  0  0  0  0  0  0
   57.6510   23.3147   47.2520 H   0  0  0  0  0  0  0  0  0  0  0  0
   55.6110   22.9640   46.5360 C   0  0  0  0  0  0  0  0  0  0  0  0
   55.6171   21.8937   46.7896 H   0  0  0  0  0  0  0  0  0  0  0  0
   54.4600   23.5400   45.9490 C   0  0  0  0  0  0  0  0  0  0  0  0
   53.5776   22.9147   45.7483 H   0  0  0  0  0  0  0  0  0  0  0  0
   54.4370   24.9090   45.6200 C   0  0  0  0  0  0  0  0  0  0  0  0
   53.5506   25.3716   45.1614 H   0  0  0  0  0  0  0  0  0  0  0  0
   55.5810   25.6550   45.8980 C   0  0  0  0  0  0  0  0  0  0  0  0
   55.7950   26.9590   45.6820 N   0  0  0  0  0  0  0  0  0  0  0  0
   55.1430   27.6590   45.2630 H   0  0  0  0  0  0  0  0  0  0  0  0
   57.2400   32.0370   45.1390 C   0  0  0  0  0  0  0  0  0  0  0  0
   56.2525   32.1621   44.6708 H   0  0  0  0  0  0  0  0  0  0  0  0
   58.1550   33.0650   45.3390 C   0  0  0  0  0  0  0  0  0  0  0  0
   58.2050   34.5010   44.9740 C   0  0  0  0  0  0  0  0  0  0  0  0
   57.4157   35.0701   45.4869 H   0  0  0  0  0  0  0  0  0  0  0  0
   58.0427   34.6889   43.9024 H   0  0  0  0  0  0  0  0  0  0  0  0
   59.6230   34.9230   45.4750 C   0  0  0  0  0  0  0  0  0  0  0  0
   59.5350   35.6760   46.2720 H   0  0  0  0  0  0  0  0  0  0  0  0
   60.2149   35.3664   44.6607 H   0  0  0  0  0  0  0  0  0  0  0  0
   61.2270   33.8750   48.2700 C   0  0  0  0  0  0  0  0  0  0  0  0
   59.6450   34.1910   48.9690 Cl  0  0  0  0  0  0  0  0  0  0  0  0
   62.3420   33.8530   49.1170 C   0  0  0  0  0  0  0  0  0  0  0  0
   62.2082   33.9887   50.2004 H   0  0  0  0  0  0  0  0  0  0  0  0
  1  2  1  0
  2  3  2  0
  3  4  1  0
  3  5  1  0
  5  6  1  0
  5  7  2  0
  7  8  1  0
  8  9  1  0
  9 10  1  0
 10 11  1  0
 11 12  1  0
 12 13  2  0
 12 14  1  0
 14 15  2  0
 15 16  1  0
 16 17  1  0
 17 18  2  0
 18 19  1  0
 18 20  1  0
 20 21  1  0
 20 22  2  0
 22 23  1  0
 22 24  1  0
 24 25  1  0
 24 26  2  0
 26 27  1  0
 27 28  1  0
 11 29  2  0
 29 30  1  0
 29 31  1  0
 31 32  1  0
 32 33  1  0
 32 34  1  0
 32 35  1  0
 35 36  1  0
 35 37  1  0
  7 38  1  0
 38 39  1  0
 38 40  2  0
 40 41  1  0
 40  2  1  0
 35  8  1  0
 31  9  2  0
 27 15  1  0
 26 17  1  0
M  CHG  1  16  -1
M  END
>  <UniqueID>  (27) 
26

>  <SMILES>  (27) 
O=C(/N=c1\[n-]c2ccccc2[nH]1)c1cc2c(s1)N(c1ccccc1Cl)CC2

>  <Energy>  (27) 
148.03438922373758

>  <Genealogy>  (27) 
O=C(N=c1[n-]c2ccccc2[nH]1)c1cc2c(s1)N(c1ccccc1Cl)CC2 (protonated)
O=C(/N=c1\[n-]c2ccccc2[nH]1)c1cc2c(s1)N(c1ccccc1Cl)CC2 (cis-trans isomerization)
O=C(/N=c1\[n-]c2ccccc2[nH]1)c1cc2c(s1)N(c1ccccc1Cl)CC2 (3D coordinates assigned)
O=C(/N=c1\[n-]c2ccccc2[nH]1)c1cc2c(s1)N(c1ccccc1Cl)CC2 (nonaromatic ring conformer: 148.03438922373758 kcal/mol)

>  <smiles>  (27) 
O=C(N=c1[nH]c2ccccc2[nH]1)c1cc2c(s1)N(c1ccccc1Cl)CC2

>  <score_type>  (27) 
oracle

>  <origin>  (27) 
adg

>  <m_score__min__energy>  (27) 
-11.289999999999999

>  <m_primary>  (27) 
energy

$$$$
27:0
     RDKit          3D

 40 42  0  0  0  0  0  0  0  0999 V2000
   59.5760   35.3270   46.2800 C   0  0  0  0  0  0  0  0  0  0  0  0
   58.4450   34.4610   46.2760 O   0  0  0  0  0  0  0  0  0  0  0  0
   58.4480   33.1470   45.7830 C   0  0  0  0  0  0  0  0  0  0  0  0
   57.8400   32.8110   44.5580 C   0  0  0  0  0  0  0  0  0  0  0  0
   57.8240   31.4850   44.1170 C   0  0  0  0  0  0  0  0  0  0  0  0
   58.4210   30.4780   44.8790 C   0  0  0  0  0  0  0  0  0  0  0  0
   58.3550   29.1230   44.4160 N   0  0  0  0  0  0  0  0  0  0  0  0
   57.5960   28.0620   45.0110 C   0  0  0  0  0  0  0  0  0  0  0  0
   56.7130   28.3510   45.8610 O   0  0  0  0  0  0  0  0  0  0  0  0
   57.7580   26.6290   44.5830 C   0  0  0  0  0  0  0  0  0  0  0  0
   57.2340   25.7110   45.6430 C   0  0  0  0  0  0  0  0  0  0  0  0
   57.9500   24.7180   46.1990 N   0  0  0  0  0  0  0  0  0  0  0  0
   57.1070   24.2000   47.1170 C   0  0  0  0  0  0  0  0  0  0  0  0
   57.4190   23.2290   47.8530 O   0  0  0  0  0  0  0  0  0  0  0  0
   55.9030   24.8080   47.1870 N   0  0  0  0  0  0  0  0  0  0  0  0
   55.9980   25.7670   46.2520 C   0  0  0  0  0  0  0  0  0  0  0  0
   54.9760   26.6710   45.9720 O   0  0  0  0  0  0  0  0  0  0  0  0
   59.0070   30.8030   46.1120 C   0  0  0  0  0  0  0  0  0  0  0  0
   59.0540   32.1310   46.5510 C   0  0  0  0  0  0  0  0  0  0  0  0
   59.6730   32.4060   47.7790 O   0  0  0  0  0  0  0  0  0  0  0  0
   61.0070   32.8100   47.9340 C   0  0  0  0  0  0  0  0  0  0  0  0
   61.9830   32.2310   47.1140 C   0  0  0  0  0  0  0  0  0  0  0  0
   63.3240   32.6130   47.2320 C   0  0  0  0  0  0  0  0  0  0  0  0
   63.6940   33.5850   48.1660 C   0  0  0  0  0  0  0  0  0  0  0  0
   62.7250   34.1800   48.9770 C   0  0  0  0  0  0  0  0  0  0  0  0
   61.3840   33.8000   48.8600 C   0  0  0  0  0  0  0  0  0  0  0  0
   59.8648   35.5481   47.3181 H   0  0  0  0  0  0  0  0  0  0  0  0
   60.4143   34.8377   45.7625 H   0  0  0  0  0  0  0  0  0  0  0  0
   59.3223   36.2639   45.7625 H   0  0  0  0  0  0  0  0  0  0  0  0
   57.3750   33.5969   43.9447 H   0  0  0  0  0  0  0  0  0  0  0  0
   57.3379   31.2325   43.1631 H   0  0  0  0  0  0  0  0  0  0  0  0
   57.1996   26.4630   43.6499 H   0  0  0  0  0  0  0  0  0  0  0  0
   58.8262   26.4205   44.4232 H   0  0  0  0  0  0  0  0  0  0  0  0
   55.1420   27.5020   45.4190 H   0  0  0  0  0  0  0  0  0  0  0  0
   59.4334   30.0064   46.7394 H   0  0  0  0  0  0  0  0  0  0  0  0
   61.6940   31.4714   46.3727 H   0  0  0  0  0  0  0  0  0  0  0  0
   64.0869   32.1485   46.5899 H   0  0  0  0  0  0  0  0  0  0  0  0
   64.7489   33.8814   48.2623 H   0  0  0  0  0  0  0  0  0  0  0  0
   63.0167   34.9481   49.7084 H   0  0  0  0  0  0  0  0  0  0  0  0
   60.6217   34.2766   49.4939 H   0  0  0  0  0  0  0  0  0  0  0  0
  1  2  1  0
  2  3  1  0
  3  4  2  0
  4  5  1  0
  5  6  2  0
  6  7  1  0
  7  8  1  0
  8  9  2  0
  8 10  1  0
 10 11  1  0
 11 12  1  0
 12 13  1  0
 13 14  2  0
 13 15  1  0
 15 16  1  0
 16 17  1  0
  6 18  1  0
 18 19  2  0
 19 20  1  0
 20 21  1  0
 21 22  2  0
 22 23  1  0
 23 24  2  0
 24 25  1  0
 25 26  2  0
 19  3  1  0
 26 21  1  0
 16 11  2  0
  1 27  1  0
  1 28  1  0
  1 29  1  0
  4 30  1  0
  5 31  1  0
 10 32  1  0
 10 33  1  0
 17 34  1  0
 18 35  1  0
 22 36  1  0
 23 37  1  0
 24 38  1  0
 25 39  1  0
 26 40  1  0
M  CHG  3   7  -1  12  -1  15  -1
M  END
>  <UniqueID>  (28) 
27

>  <SMILES>  (28) 
COc1ccc([N-]C(=O)Cc2[n-]c(=O)[n-]c2O)cc1Oc1ccccc1

>  <Energy>  (28) 
81.05950162610023

>  <Genealogy>  (28) 
COc1ccc([N-]C(=O)Cc2[n-]c(=O)[n-]c2O)cc1Oc1ccccc1 (protonated)
COc1ccc([N-]C(=O)Cc2[n-]c(=O)[n-]c2O)cc1Oc1ccccc1 (3D coordinates assigned)
COc1ccc([N-]C(=O)Cc2[n-]c(=O)[n-]c2O)cc1Oc1ccccc1 (optimized conformer: 81.05950162610023 kcal/mol)

>  <smiles>  (28) 
COc1ccc(NC(=O)Cc2[nH]c(=O)[nH]c2O)cc1Oc1ccccc1

>  <score_type>  (28) 
oracle

>  <origin>  (28) 
adg

>  <m_score__min__energy>  (28) 
-13.56

>  <m_primary>  (28) 
energy

$$$$
28:0
     RDKit          3D

 24 25  0  0  0  0  0  0  0  0999 V2000
   58.5030   33.6380   44.8740 C   0  0  0  0  0  0  0  0  0  0  0  0
   57.8740   32.4740   44.2670 N   0  0  0  0  0  0  0  0  0  0  0  0
   57.0140   31.6820   44.8840 N   0  0  0  0  0  0  0  0  0  0  0  0
   56.6440   30.8040   43.9280 C   0  0  0  0  0  0  0  0  0  0  0  0
   55.6920   29.7110   44.1400 C   0  0  0  0  0  0  0  0  0  0  0  0
   54.6920   29.6000   43.3800 O   0  0  0  0  0  0  0  0  0  0  0  0
   55.8810   28.8120   45.2400 N   0  0  0  0  0  0  0  0  0  0  0  0
   57.0520   28.0270   45.5140 C   0  0  0  0  0  0  0  0  0  0  0  0
   56.8910   26.7600   46.0880 C   0  0  0  0  0  0  0  0  0  0  0  0
   58.0070   25.9720   46.3900 C   0  0  0  0  0  0  0  0  0  0  0  0
   59.2930   26.4530   46.1330 C   0  0  0  0  0  0  0  0  0  0  0  0
   59.4640   27.7270   45.5830 C   0  0  0  0  0  0  0  0  0  0  0  0
   58.3510   28.5170   45.2800 C   0  0  0  0  0  0  0  0  0  0  0  0
   57.2520   31.0630   42.7490 N   0  0  0  0  0  0  0  0  0  0  0  0
   58.0080   32.1180   43.0030 N   0  0  0  0  0  0  0  0  0  0  0  0
   58.4558   33.5507   45.9695 H   0  0  0  0  0  0  0  0  0  0  0  0
   59.5544   33.6944   44.5556 H   0  0  0  0  0  0  0  0  0  0  0  0
   57.9741   34.5484   44.5556 H   0  0  0  0  0  0  0  0  0  0  0  0
   55.8807   26.3818   46.3029 H   0  0  0  0  0  0  0  0  0  0  0  0
   57.8716   24.9730   46.8301 H   0  0  0  0  0  0  0  0  0  0  0  0
   60.1701   25.8302   46.3630 H   0  0  0  0  0  0  0  0  0  0  0  0
   60.4770   28.1088   45.3881 H   0  0  0  0  0  0  0  0  0  0  0  0
   58.4905   29.5232   44.8580 H   0  0  0  0  0  0  0  0  0  0  0  0
   58.6130   32.5980   42.3000 H   0  0  0  0  0  0  0  0  0  0  0  0
  1  2  1  0
  2  3  1  0
  3  4  2  0
  4  5  1  0
  5  6  2  0
  5  7  1  0
  7  8  1  0
  8  9  2  0
  9 10  1  0
 10 11  2  0
 11 12  1  0
 12 13  2  0
  4 14  1  0
 14 15  2  0
 15  2  1  0
 13  8  1  0
  1 16  1  0
  1 17  1  0
  1 18  1  0
  9 19  1  0
 10 20  1  0
 11 21  1  0
 12 22  1  0
 13 23  1  0
 15 24  1  0
M  CHG  2   7  -1  15   1
M  END
>  <UniqueID>  (29) 
28

>  <SMILES>  (29) 
Cn1nc(C(=O)[N-]c2ccccc2)n[nH+]1

>  <Energy>  (29) 
64.22180139373425

>  <Genealogy>  (29) 
Cn1nc(C(=O)[N-]c2ccccc2)n[nH+]1 (protonated)
Cn1nc(C(=O)[N-]c2ccccc2)n[nH+]1 (3D coordinates assigned)
Cn1nc(C(=O)[N-]c2ccccc2)n[nH+]1 (optimized conformer: 64.22180139373425 kcal/mol)

>  <smiles>  (29) 
Cn1nnc(C(=O)Nc2ccccc2)n1

>  <score_type>  (29) 
oracle

>  <origin>  (29) 
adg

>  <m_score__min__energy>  (29) 
-6.6500000000000004

>  <m_primary>  (29) 
energy

$$$$
29:0
     RDKit          3D

 42 44  0  0  0  0  0  0  0  0999 V2000
   57.7050   21.6060   43.4040 C   0  0  0  0  0  0  0  0  0  0  0  0
   57.4520   22.7280   44.3600 C   0  0  0  0  0  0  0  0  0  0  0  0
   58.5270   23.1950   45.5640 S   0  0  0  0  0  0  0  0  0  0  0  0
   57.5720   24.4300   46.1720 C   0  0  0  0  0  0  0  0  0  0  0  0
   57.9700   25.2730   47.2560 N   0  0  0  0  0  0  0  0  0  0  0  0
   58.4060   26.6310   47.1130 C   0  0  0  0  0  0  0  0  0  0  0  0
   58.1560   27.4440   48.0430 O   0  0  0  0  0  0  0  0  0  0  0  0
   59.2580   27.0740   45.9500 C   0  0  0  0  0  0  0  0  0  0  0  0
   58.5990   28.1550   45.1970 N   0  0  0  0  0  0  0  0  0  0  0  0
   58.7360   29.4440   45.6350 C   0  0  0  0  0  0  0  0  0  0  0  0
   58.1410   30.5020   44.9260 C   0  0  0  0  0  0  0  0  0  0  0  0
   58.2700   31.9140   45.3690 C   0  0  0  0  0  0  0  0  0  0  0  0
   59.2320   32.3010   46.3240 C   0  0  0  0  0  0  0  0  0  0  0  0
   59.3320   33.6360   46.7280 C   0  0  0  0  0  0  0  0  0  0  0  0
   58.4740   34.5980   46.1930 C   0  0  0  0  0  0  0  0  0  0  0  0
   57.5080   34.2260   45.2550 C   0  0  0  0  0  0  0  0  0  0  0  0
   57.4030   32.8930   44.8460 C   0  0  0  0  0  0  0  0  0  0  0  0
   57.4500   30.2170   43.7910 N   0  0  0  0  0  0  0  0  0  0  0  0
   57.3130   28.9450   43.3400 C   0  0  0  0  0  0  0  0  0  0  0  0
   57.8970   27.8940   44.0490 C   0  0  0  0  0  0  0  0  0  0  0  0
   57.7750   26.7150   43.6170 O   0  0  0  0  0  0  0  0  0  0  0  0
   56.3660   24.4950   45.4660 C   0  0  0  0  0  0  0  0  0  0  0  0
   55.2730   25.4340   45.8120 C   0  0  0  0  0  0  0  0  0  0  0  0
   54.0920   25.0230   45.9610 O   0  0  0  0  0  0  0  0  0  0  0  0
   55.5380   26.7880   45.9820 O   0  0  0  0  0  0  0  0  0  0  0  0
   56.3010   23.5250   44.4330 C   0  0  0  0  0  0  0  0  0  0  0  0
   55.1170   23.3480   43.5220 C   0  0  0  0  0  0  0  0  0  0  0  0
   57.9128   20.6843   43.9672 H   0  0  0  0  0  0  0  0  0  0  0  0
   56.8180   21.4567   42.7708 H   0  0  0  0  0  0  0  0  0  0  0  0
   58.5703   21.8518   42.7708 H   0  0  0  0  0  0  0  0  0  0  0  0
   60.2246   27.4369   46.3294 H   0  0  0  0  0  0  0  0  0  0  0  0
   59.4066   26.2169   45.2768 H   0  0  0  0  0  0  0  0  0  0  0  0
   59.3148   29.6535   46.5467 H   0  0  0  0  0  0  0  0  0  0  0  0
   59.9085   31.5478   46.7543 H   0  0  0  0  0  0  0  0  0  0  0  0
   60.0894   33.9289   47.4699 H   0  0  0  0  0  0  0  0  0  0  0  0
   58.5583   35.6481   46.5096 H   0  0  0  0  0  0  0  0  0  0  0  0
   56.8284   34.9834   44.8372 H   0  0  0  0  0  0  0  0  0  0  0  0
   56.6373   32.6067   44.1100 H   0  0  0  0  0  0  0  0  0  0  0  0
   56.7446   28.7428   42.4202 H   0  0  0  0  0  0  0  0  0  0  0  0
   54.2073   23.2120   44.1253 H   0  0  0  0  0  0  0  0  0  0  0  0
   55.0062   24.2396   42.8873 H   0  0  0  0  0  0  0  0  0  0  0  0
   55.2718   22.4630   42.8873 H   0  0  0  0  0  0  0  0  0  0  0  0
  1  2  1  0
  2  3  1  0
  3  4  1  0
  4  5  1  0
  5  6  1  0
  6  7  2  0
  6  8  1  0
  8  9  1  0
  9 10  1  0
 10 11  2  0
 11 12  1  0
 12 13  2  0
 13 14  1  0
 14 15  2  0
 15 16  1  0
 16 17  2  0
 11 18  1  0
 18 19  2  0
 19 20  1  0
 20 21  2  0
  4 22  2  0
 22 23  1  0
 23 24  2  0
 23 25  1  0
 22 26  1  0
 26 27  1  0
 26  2  2  0
 20  9  1  0
 17 12  1  0
  1 28  1  0
  1 29  1  0
  1 30  1  0
  8 31  1  0
  8 32  1  0
 10 33  1  0
 13 34  1  0
 14 35  1  0
 15 36  1  0
 16 37  1  0
 17 38  1  0
 19 39  1  0
 27 40  1  0
 27 41  1  0
 27 42  1  0
M  CHG  2   5  -1  25  -1
M  END
>  <UniqueID>  (30) 
29

>  <SMILES>  (30) 
Cc1sc([N-]C(=O)Cn2cc(-c3ccccc3)ncc2=O)c(C(=O)[O-])c1C

>  <Energy>  (30) 
85.92062701017346

>  <Genealogy>  (30) 
Cc1sc([N-]C(=O)Cn2cc(-c3ccccc3)ncc2=O)c(C(=O)[O-])c1C (protonated)
Cc1sc([N-]C(=O)Cn2cc(-c3ccccc3)ncc2=O)c(C(=O)[O-])c1C (3D coordinates assigned)
Cc1sc([N-]C(=O)Cn2cc(-c3ccccc3)ncc2=O)c(C(=O)[O-])c1C (optimized conformer: 85.92062701017346 kcal/mol)

>  <smiles>  (30) 
Cc1sc(NC(=O)Cn2cc(-c3ccccc3)ncc2=O)c(C(=O)O)c1C

>  <score_type>  (30) 
oracle

>  <origin>  (30) 
adg

>  <m_score__min__energy>  (30) 
-13.199999999999999

>  <m_primary>  (30) 
energy

$$$$
30:0
     RDKit          3D

 39 41  0  0  0  0  0  0  0  0999 V2000
   59.2860   35.3330   46.9940 C   0  0  0  0  0  0  0  0  0  0  0  0
   59.2300   33.9180   46.5720 N   0  0  0  0  0  0  0  0  0  0  0  0
   58.7310   33.6710   45.3010 C   0  0  0  0  0  0  0  0  0  0  0  0
   58.6310   34.6280   44.4810 O   0  0  0  0  0  0  0  0  0  0  0  0
   58.2870   32.4090   44.8390 C   0  0  0  0  0  0  0  0  0  0  0  0
   58.2850   31.2390   45.5980 C   0  0  0  0  0  0  0  0  0  0  0  0
   57.7290   29.9660   45.0830 C   0  0  0  0  0  0  0  0  0  0  0  0
   56.4980   29.7240   45.2220 O   0  0  0  0  0  0  0  0  0  0  0  0
   58.5680   29.0190   44.3980 N   0  0  0  0  0  0  0  0  0  0  0  0
   58.2110   27.6420   44.1850 C   0  0  0  0  0  0  0  0  0  0  0  0
   57.8700   26.8400   45.2870 C   0  0  0  0  0  0  0  0  0  0  0  0
   57.4980   25.5050   45.1030 C   0  0  0  0  0  0  0  0  0  0  0  0
   57.4480   24.9630   43.8160 C   0  0  0  0  0  0  0  0  0  0  0  0
   57.7630   25.7580   42.7110 C   0  0  0  0  0  0  0  0  0  0  0  0
   58.1370   27.0940   42.8910 C   0  0  0  0  0  0  0  0  0  0  0  0
   58.9830   31.3440   47.1210 S   0  0  0  0  0  0  0  0  0  0  0  0
   59.5390   32.8990   47.4570 C   0  0  0  0  0  0  0  0  0  0  0  0
   60.2590   33.0410   48.5390 N   0  0  0  0  0  0  0  0  0  0  0  0
   61.6830   33.1150   48.6930 C   0  0  0  0  0  0  0  0  0  0  0  0
   62.2620   32.7620   49.9190 C   0  0  0  0  0  0  0  0  0  0  0  0
   63.6530   32.7650   50.0650 C   0  0  0  0  0  0  0  0  0  0  0  0
   64.4710   33.0910   48.9790 C   0  0  0  0  0  0  0  0  0  0  0  0
   63.8990   33.4060   47.7430 C   0  0  0  0  0  0  0  0  0  0  0  0
   62.5080   33.4030   47.5940 C   0  0  0  0  0  0  0  0  0  0  0  0
   59.2882   35.3882   48.0926 H   0  0  0  0  0  0  0  0  0  0  0  0
   60.2032   35.7966   46.6018 H   0  0  0  0  0  0  0  0  0  0  0  0
   58.4083   35.8676   46.6018 H   0  0  0  0  0  0  0  0  0  0  0  0
   57.9162   32.3464   43.8053 H   0  0  0  0  0  0  0  0  0  0  0  0
   59.4410   29.3680   43.9430 H   0  0  0  0  0  0  0  0  0  0  0  0
   57.8959   27.2652   46.3011 H   0  0  0  0  0  0  0  0  0  0  0  0
   57.2444   24.8805   45.9723 H   0  0  0  0  0  0  0  0  0  0  0  0
   57.1608   23.9109   43.6729 H   0  0  0  0  0  0  0  0  0  0  0  0
   57.7168   25.3326   41.6976 H   0  0  0  0  0  0  0  0  0  0  0  0
   58.3742   27.7188   42.0173 H   0  0  0  0  0  0  0  0  0  0  0  0
   61.6214   32.4820   50.7683 H   0  0  0  0  0  0  0  0  0  0  0  0
   64.1040   32.5105   51.0355 H   0  0  0  0  0  0  0  0  0  0  0  0
   65.5646   33.0996   49.0972 H   0  0  0  0  0  0  0  0  0  0  0  0
   64.5430   33.6564   46.8871 H   0  0  0  0  0  0  0  0  0  0  0  0
   62.0600   33.6266   46.6146 H   0  0  0  0  0  0  0  0  0  0  0  0
  1  2  1  0
  2  3  1  0
  3  4  2  0
  3  5  1  0
  5  6  2  0
  6  7  1  0
  7  8  2  0
  7  9  1  0
  9 10  1  0
 10 11  2  0
 11 12  1  0
 12 13  2  0
 13 14  1  0
 14 15  2  0
  6 16  1  0
 16 17  1  0
 17 18  2  3
 18 19  1  0
 19 20  2  0
 20 21  1  0
 21 22  2  0
 22 23  1  0
 23 24  2  0
 17  2  1  0
 24 19  1  0
 15 10  1  0
  1 25  1  0
  1 26  1  0
  1 27  1  0
  5 28  1  0
  9 29  1  0
 11 30  1  0
 12 31  1  0
 13 32  1  0
 14 33  1  0
 15 34  1  0
 20 35  1  0
 21 36  1  0
 22 37  1  0
 23 38  1  0
 24 39  1  0
M  END
>  <UniqueID>  (31) 
30

>  <SMILES>  (31) 
Cn1c(=O)cc(C(=O)Nc2ccccc2)sc1=Nc1ccccc1

>  <Energy>  (31) 
74.3423884797337

>  <Genealogy>  (31) 
Cn1c(=O)cc(C(=O)Nc2ccccc2)sc1=Nc1ccccc1 (3D coordinates assigned)
Cn1c(=O)cc(C(=O)Nc2ccccc2)sc1=Nc1ccccc1 (optimized conformer: 74.3423884797337 kcal/mol)

>  <smiles>  (31) 
Cn1c(=O)cc(C(=O)Nc2ccccc2)sc1=Nc1ccccc1

>  <score_type>  (31) 
oracle

>  <origin>  (31) 
adg

>  <m_score__min__energy>  (31) 
-7.9000000000000004

>  <m_primary>  (31) 
energy

$$$$
31:0
     RDKit          3D

 53 56  0  0  0  0  0  0  0  0999 V2000
   62.5030   31.6240   47.8230 C   0  0  0  0  0  0  0  0  0  0  0  0
   60.8250   31.1460   47.3000 S   0  0  0  0  0  0  0  0  0  0  0  0
   60.0910   31.5450   48.8950 C   0  0  0  0  0  0  0  0  0  0  0  0
   59.7350   30.5070   49.6920 N   0  0  0  0  0  0  0  0  0  0  0  0
   59.1220   30.7000   50.8810 C   0  0  0  0  0  0  0  0  0  0  0  0
   58.7050   29.5990   51.6360 C   0  0  0  0  0  0  0  0  0  0  0  0
   57.9600   29.7900   52.8070 C   0  0  0  0  0  0  0  0  0  0  0  0
   57.3450   28.6470   53.5030 C   0  0  0  0  0  0  0  0  0  0  0  0
   57.9740   27.5580   53.5640 O   0  0  0  0  0  0  0  0  0  0  0  0
   56.0820   28.7570   54.1800 N   0  0  0  0  0  0  0  0  0  0  0  0
   54.7920   28.2420   53.7160 C   0  0  0  0  0  0  0  0  0  0  0  0
   53.9110   29.3410   53.1720 C   0  0  0  0  0  0  0  0  0  0  0  0
   52.7880   29.7720   53.8970 C   0  0  0  0  0  0  0  0  0  0  0  0
   51.9230   30.7290   53.3620 C   0  0  0  0  0  0  0  0  0  0  0  0
   52.1840   31.3020   52.1040 C   0  0  0  0  0  0  0  0  0  0  0  0
   51.2560   32.3010   51.5280 C   0  0  0  0  0  0  0  0  0  0  0  0
   51.0140   32.3410   50.1220 N   0  0  0  0  0  0  0  0  0  0  0  0
   50.6670   33.1290   52.2760 O   0  0  0  0  0  0  0  0  0  0  0  0
   53.3360   30.9030   51.4030 C   0  0  0  0  0  0  0  0  0  0  0  0
   54.1930   29.9340   51.9330 C   0  0  0  0  0  0  0  0  0  0  0  0
   57.7260   31.0920   53.2740 C   0  0  0  0  0  0  0  0  0  0  0  0
   58.1690   32.1950   52.5380 C   0  0  0  0  0  0  0  0  0  0  0  0
   58.8480   32.0050   51.3220 C   0  0  0  0  0  0  0  0  0  0  0  0
   59.2480   33.0780   50.5070 C   0  0  0  0  0  0  0  0  0  0  0  0
   59.0250   34.2610   50.8900 O   0  0  0  0  0  0  0  0  0  0  0  0
   59.8640   32.8420   49.2990 N   0  0  0  0  0  0  0  0  0  0  0  0
   60.2800   33.9770   48.4460 C   0  0  0  0  0  0  0  0  0  0  0  0
   59.4280   34.0710   47.2040 C   0  0  0  0  0  0  0  0  0  0  0  0
   58.1430   33.5010   47.1730 C   0  0  0  0  0  0  0  0  0  0  0  0
   57.3490   33.6100   46.0270 C   0  0  0  0  0  0  0  0  0  0  0  0
   57.8290   34.2910   44.9060 C   0  0  0  0  0  0  0  0  0  0  0  0
   59.1040   34.8620   44.9260 C   0  0  0  0  0  0  0  0  0  0  0  0
   59.9000   34.7610   46.0720 C   0  0  0  0  0  0  0  0  0  0  0  0
   62.5544   31.6386   48.9217 H   0  0  0  0  0  0  0  0  0  0  0  0
   63.2300   30.8972   47.4316 H   0  0  0  0  0  0  0  0  0  0  0  0
   62.7379   32.6248   47.4316 H   0  0  0  0  0  0  0  0  0  0  0  0
   58.9626   28.5806   51.3096 H   0  0  0  0  0  0  0  0  0  0  0  0
   54.9692   27.5020   52.9217 H   0  0  0  0  0  0  0  0  0  0  0  0
   54.2777   27.7858   54.5747 H   0  0  0  0  0  0  0  0  0  0  0  0
   52.5882   29.3525   54.8940 H   0  0  0  0  0  0  0  0  0  0  0  0
   51.0315   31.0368   53.9281 H   0  0  0  0  0  0  0  0  0  0  0  0
   50.0430   32.3040   49.7440 H   0  0  0  0  0  0  0  0  0  0  0  0
   53.5650   31.3579   50.4280 H   0  0  0  0  0  0  0  0  0  0  0  0
   55.0929   29.6353   51.3754 H   0  0  0  0  0  0  0  0  0  0  0  0
   57.1918   31.2457   54.2232 H   0  0  0  0  0  0  0  0  0  0  0  0
   57.9859   33.2134   52.9112 H   0  0  0  0  0  0  0  0  0  0  0  0
   60.1820   34.9107   49.0192 H   0  0  0  0  0  0  0  0  0  0  0  0
   61.3241   33.8162   48.1393 H   0  0  0  0  0  0  0  0  0  0  0  0
   57.7602   32.9665   48.0549 H   0  0  0  0  0  0  0  0  0  0  0  0
   56.3458   33.1591   46.0084 H   0  0  0  0  0  0  0  0  0  0  0  0
   57.2023   34.3779   44.0061 H   0  0  0  0  0  0  0  0  0  0  0  0
   59.4825   35.3917   44.0394 H   0  0  0  0  0  0  0  0  0  0  0  0
   60.8983   35.2226   46.0883 H   0  0  0  0  0  0  0  0  0  0  0  0
  1  2  1  0
  2  3  1  0
  3  4  2  0
  4  5  1  0
  5  6  2  0
  6  7  1  0
  7  8  1  0
  8  9  2  0
  8 10  1  0
 10 11  1  0
 11 12  1  0
 12 13  2  0
 13 14  1  0
 14 15  2  0
 15 16  1  0
 16 17  1  0
 16 18  2  0
 15 19  1  0
 19 20  2  0
  7 21  2  0
 21 22  1  0
 22 23  2  0
 23 24  1  0
 24 25  2  0
 24 26  1  0
 26 27  1  0
 27 28  1  0
 28 29  2  0
 29 30  1  0
 30 31  2  0
 31 32  1  0
 32 33  2  0
 26  3  1  0
 33 28  1  0
 23  5  1  0
 20 12  1  0
  1 34  1  0
  1 35  1  0
  1 36  1  0
  6 37  1  0
 11 38  1  0
 11 39  1  0
 13 40  1  0
 14 41  1  0
 17 42  1  0
 19 43  1  0
 20 44  1  0
 21 45  1  0
 22 46  1  0
 27 47  1  0
 27 48  1  0
 29 49  1  0
 30 50  1  0
 31 51  1  0
 32 52  1  0
 33 53  1  0
M  CHG  2  10  -1  17  -1
M  END
>  <UniqueID>  (32) 
31

>  <SMILES>  (32) 
CSc1nc2cc(C(=O)[N-]Cc3ccc(C([NH-])=O)cc3)ccc2c(=O)n1Cc1ccccc1

>  <Energy>  (32) 
62.2675706779759

>  <Genealogy>  (32) 
CSc1nc2cc(C(=O)[N-]Cc3ccc(C([NH-])=O)cc3)ccc2c(=O)n1Cc1ccccc1 (protonated)
CSc1nc2cc(C(=O)[N-]Cc3ccc(C([NH-])=O)cc3)ccc2c(=O)n1Cc1ccccc1 (3D coordinates assigned)
CSc1nc2cc(C(=O)[N-]Cc3ccc(C([NH-])=O)cc3)ccc2c(=O)n1Cc1ccccc1 (optimized conformer: 62.2675706779759 kcal/mol)

>  <smiles>  (32) 
CSc1nc2cc(C(=O)NCc3ccc(C(N)=O)cc3)ccc2c(=O)n1Cc1ccccc1

>  <score_type>  (32) 
oracle

>  <origin>  (32) 
adg

>  <m_score__min__energy>  (32) 
-13.880000000000001

>  <m_primary>  (32) 
energy

$$$$
32:0
     RDKit          3D

 42 46  0  0  0  0  0  0  0  0999 V2000
   55.1540   27.3990   46.0620 H   0  0  0  0  0  0  0  0  0  0  0  0
   55.0130   26.3680   45.9810 N   0  0  0  0  0  0  0  0  0  0  0  0
   56.1270   25.4780   45.9520 C   0  0  0  0  0  0  0  0  0  0  0  0
   55.9470   24.2700   45.6380 O   0  0  0  0  0  0  0  0  0  0  0  0
   57.4740   25.9750   46.2870 C   0  0  0  0  0  0  0  0  0  0  0  0
   58.5640   25.3470   45.7670 N   0  0  0  0  0  0  0  0  0  0  0  0
   59.8290   25.7690   46.0260 C   0  0  0  0  0  0  0  0  0  0  0  0
   60.6854   25.2389   45.5839 H   0  0  0  0  0  0  0  0  0  0  0  0
   60.0450   26.8740   46.8520 C   0  0  0  0  0  0  0  0  0  0  0  0
   61.0684   27.2263   47.0483 H   0  0  0  0  0  0  0  0  0  0  0  0
   58.9530   27.5300   47.4280 C   0  0  0  0  0  0  0  0  0  0  0  0
   59.2000   28.6820   48.2490 N   0  0  0  0  0  0  0  0  0  0  0  0
   60.1030   29.5980   48.0510 C   0  0  0  0  0  0  0  0  0  0  0  0
   61.1370   29.8570   48.8870 N   0  0  0  0  0  0  0  0  0  0  0  0
   61.7190   30.9360   48.3060 C   0  0  0  0  0  0  0  0  0  0  0  0
   62.7940   31.4810   48.8160 N   0  0  0  0  0  0  0  0  0  0  0  0
   63.7050   32.5880   48.4710 C   0  0  0  0  0  0  0  0  0  0  0  0
   64.4850   32.2467   49.1675 H   0  0  0  0  0  0  0  0  0  0  0  0
   63.7330   33.0940   47.0410 C   0  0  0  0  0  0  0  0  0  0  0  0
   64.6756   33.4519   46.6012 H   0  0  0  0  0  0  0  0  0  0  0  0
   63.4331   32.6883   46.0635 H   0  0  0  0  0  0  0  0  0  0  0  0
   63.0400   33.9080   48.1400 C   0  0  0  0  0  0  0  0  0  0  0  0
   63.4843   34.8516   48.4897 H   0  0  0  0  0  0  0  0  0  0  0  0
   62.0343   34.3310   48.2801 H   0  0  0  0  0  0  0  0  0  0  0  0
   61.0820   31.2780   47.1590 N   0  0  0  0  0  0  0  0  0  0  0  0
   60.1030   30.4260   46.9920 N   0  0  0  0  0  0  0  0  0  0  0  0
   59.0430   31.1040   46.3360 C   0  0  0  0  0  0  0  0  0  0  0  0
   57.8300   30.6060   46.0690 C   0  0  0  0  0  0  0  0  0  0  0  0
   57.2427   30.1824   46.8971 H   0  0  0  0  0  0  0  0  0  0  0  0
   57.2460   30.5990   44.7190 C   0  0  0  0  0  0  0  0  0  0  0  0
   57.7430   31.3210   43.7000 N   0  0  0  0  0  0  0  0  0  0  0  0
   56.9030   31.0450   42.6810 C   0  0  0  0  0  0  0  0  0  0  0  0
   57.0480   31.5360   41.5310 O   0  0  0  0  0  0  0  0  0  0  0  0
   55.8900   30.2090   42.9910 N   0  0  0  0  0  0  0  0  0  0  0  0
   56.1090   29.9430   44.2890 C   0  0  0  0  0  0  0  0  0  0  0  0
   55.2540   29.1600   45.0610 O   0  0  0  0  0  0  0  0  0  0  0  0
   55.1440   28.1680   44.8910 H   0  0  0  0  0  0  0  0  0  0  0  0
   59.5450   32.4760   46.1700 C   0  0  0  0  0  0  0  0  0  0  0  0
   59.0040   33.3012   45.6838 H   0  0  0  0  0  0  0  0  0  0  0  0
   60.7330   32.5540   46.6920 N   0  0  0  0  0  0  0  0  0  0  0  0
   57.6520   27.0910   47.1230 C   0  0  0  0  0  0  0  0  0  0  0  0
   56.7792   27.6177   47.5361 H   0  0  0  0  0  0  0  0  0  0  0  0
  1  2  1  0
  2  3  1  0
  3  4  2  0
  3  5  1  0
  5  6  2  0
  6  7  1  0
  7  8  1  0
  7  9  2  0
  9 10  1  0
  9 11  1  0
 11 12  1  0
 12 13  2  3
 13 14  1  0
 14 15  1  0
 15 16  2  3
 16 17  1  0
 17 18  1  0
 17 19  1  0
 19 20  1  0
 19 21  1  0
 19 22  1  0
 22 23  1  0
 22 24  1  0
 15 25  1  0
 25 26  1  0
 26 27  1  0
 27 28  2  0
 28 29  1  0
 28 30  1  0
 30 31  1  0
 31 32  1  0
 32 33  2  0
 32 34  1  0
 34 35  1  0
 35 36  1  0
 36 37  1  0
 27 38  1  0
 38 39  1  0
 38 40  2  0
 11 41  2  0
 41 42  1  0
 41  5  1  0
 26 13  1  0
 35 30  2  0
 22 17  1  0
 40 25  1  0
M  CHG  4   2  -1  14  -1  31  -1  34  -1
M  END
>  <UniqueID>  (33) 
32

>  <SMILES>  (33) 
[NH-]C(=O)c1cc(N=c2[n-]c(=NC3CC3)n3n2/C(=C/c2[n-]c(=O)[n-]c2O)C=N3)ccn1

>  <Energy>  (33) 
463.759251676537

>  <Genealogy>  (33) 
[NH-]C(=O)c1cc(N=c2[n-]c(=NC3CC3)n3n2C(=Cc2[n-]c(=O)[n-]c2O)C=N3)ccn1 (protonated)
[NH-]C(=O)c1cc(N=c2[n-]c(=NC3CC3)n3n2/C(=C/c2[n-]c(=O)[n-]c2O)C=N3)ccn1 (cis-trans isomerization)
[NH-]C(=O)c1cc(N=c2[n-]c(=NC3CC3)n3n2/C(=C/c2[n-]c(=O)[n-]c2O)C=N3)ccn1 (3D coordinates assigned)
[NH-]C(=O)c1cc(N=c2[n-]c(=NC3CC3)n3n2/C(=C/c2[n-]c(=O)[n-]c2O)C=N3)ccn1 (nonaromatic ring conformer: 463.759251676537 kcal/mol)

>  <smiles>  (33) 
NC(=O)c1cc(N=c2[nH]c(=NC3CC3)n3n2C(=Cc2[nH]c(=O)[nH]c2O)C=N3)ccn1

>  <score_type>  (33) 
oracle

>  <origin>  (33) 
adg

>  <m_score__min__energy>  (33) 
-15.35

>  <m_primary>  (33) 
energy

$$$$
33:0
     RDKit          3D

 44 46  0  0  1  0  0  0  0  0999 V2000
   55.6770   29.7040   44.7180 O   0  0  0  0  0  0  0  0  0  0  0  0
   56.9270   29.8520   44.7580 C   0  0  0  0  0  0  0  0  0  0  0  0
   57.6280   31.1270   44.5330 C   0  0  0  0  0  0  0  0  0  0  0  0
   57.4440   31.9620   45.6440 O   0  0  0  0  0  0  0  0  0  0  0  0
   58.1680   33.1090   45.8910 C   0  0  0  0  0  0  0  0  0  0  0  0
   58.5630   33.9580   44.8810 C   0  0  0  0  0  0  0  0  0  0  0  0
   59.2810   35.0770   45.2400 C   0  0  0  0  0  0  0  0  0  0  0  0
   59.6220   35.3870   46.5370 C   0  0  0  0  0  0  0  0  0  0  0  0
   59.2100   34.5110   47.5370 C   0  0  0  0  0  0  0  0  0  0  0  0
   58.4770   33.3590   47.2340 C   0  0  0  0  0  0  0  0  0  0  0  0
   57.7640   28.7080   45.0410 N   0  0  0  0  0  0  0  0  0  0  0  0
   57.1820   27.6960   45.5820 C   0  0  0  0  0  0  0  0  0  0  0  0
   57.8010   26.6550   46.2870 C   0  0  0  0  0  0  0  0  0  0  0  0
   56.8050   25.7610   46.7160 C   0  0  0  0  0  0  0  0  0  0  0  0
   57.1470   24.6070   47.4580 N   0  0  0  0  0  0  0  0  0  0  0  0
   57.3670   23.3050   46.9480 C   0  0  0  0  0  0  0  0  0  0  0  0
   56.2570   22.6010   46.2700 C   0  0  0  0  0  0  0  0  0  0  0  0
   56.4060   22.4310   44.8450 N   0  0  0  0  0  0  0  0  0  0  0  0
   56.5490   21.1980   44.2840 C   0  0  0  0  0  0  0  0  0  0  0  0
   56.5670   19.9600   44.9220 O   0  0  0  0  0  0  0  0  0  0  0  0
   56.6810   21.3100   42.9130 C   0  0  0  0  0  0  0  0  0  0  0  0
   56.6180   22.6260   42.6590 N   0  0  0  0  0  0  0  0  0  0  0  0
   56.4520   23.2800   43.8330 C   0  0  0  0  0  0  0  0  0  0  0  0
   56.3620   24.5250   43.8890 O   0  0  0  0  0  0  0  0  0  0  0  0
   55.6720   26.2720   46.2750 N   0  0  0  0  0  0  0  0  0  0  0  0
   55.8890   27.4030   45.6130 N   0  0  0  0  0  0  0  0  0  0  0  0
   58.7019   30.9354   44.3918 H   0  0  0  0  0  0  0  0  0  0  0  0
   57.2224   31.6158   43.6349 H   0  0  0  0  0  0  0  0  0  0  0  0
   58.3149   33.7506   43.8296 H   0  0  0  0  0  0  0  0  0  0  0  0
   59.6010   35.7640   44.4427 H   0  0  0  0  0  0  0  0  0  0  0  0
   60.1986   36.2932   46.7743 H   0  0  0  0  0  0  0  0  0  0  0  0
   59.4655   34.7286   48.5846 H   0  0  0  0  0  0  0  0  0  0  0  0
   58.1527   32.6695   48.0273 H   0  0  0  0  0  0  0  0  0  0  0  0
   58.8806   26.5548   46.4727 H   0  0  0  0  0  0  0  0  0  0  0  0
   57.2440   24.7490   48.5070 H   0  0  0  0  0  0  0  0  0  0  0  0
   58.1918   23.3781   46.2239 H   0  0  0  0  0  0  0  0  0  0  0  0
   57.5525   22.6987   47.8469 H   0  0  0  0  0  0  0  0  0  0  0  0
   56.1628   21.6026   46.7221 H   0  0  0  0  0  0  0  0  0  0  0  0
   55.3692   23.2360   46.4066 H   0  0  0  0  0  0  0  0  0  0  0  0
   57.2760   19.2790   44.6800 H   0  0  0  0  0  0  0  0  0  0  0  0
   56.8101   20.4949   42.1857 H   0  0  0  0  0  0  0  0  0  0  0  0
   56.6860   23.0700   41.7090 H   0  0  0  0  0  0  0  0  0  0  0  0
   54.7390   25.8790   46.4080 H   0  0  0  0  0  0  0  0  0  0  0  0
   55.1460   28.0010   45.1630 H   0  0  0  0  0  0  0  0  0  0  0  0
  1  2  2  0
  2  3  1  0
  3  4  1  0
  4  5  1  0
  5  6  2  0
  6  7  1  0
  7  8  2  0
  8  9  1  0
  9 10  2  0
  2 11  1  0
 11 12  2  0
 12 13  1  0
 13 14  2  0
 14 15  1  0
 15 16  1  0
 16 17  1  0
 17 18  1  0
 18 19  1  0
 19 20  1  0
 19 21  2  0
 21 22  1  0
 22 23  1  0
 23 24  2  0
 14 25  1  0
 25 26  1  0
 10  5  1  0
 26 12  1  0
 23 18  1  0
  3 27  1  0
  3 28  1  0
  6 29  1  0
  7 30  1  0
  8 31  1  0
  9 32  1  0
 10 33  1  0
 13 34  1  0
 15 35  1  0
 16 36  1  0
 16 37  1  0
 17 38  1  0
 17 39  1  0
 20 40  1  0
 21 41  1  0
 22 42  1  0
 25 43  1  0
 26 44  1  0
M  END
>  <smiles>  (34) 
O=C(COc1ccccc1)N=c1cc(NCCn2c(O)c[nH]c2=O)[nH][nH]1

>  <score_type>  (34) 
oracle

>  <origin>  (34) 
adg

>  <m_score__min__energy>  (34) 
-8.4100000000000001

>  <m_primary>  (34) 
energy

$$$$
34:0
     RDKit          3D

 48 51  0  0  0  0  0  0  0  0999 V2000
   57.0040   24.3480   48.1620 C   0  0  0  0  0  0  0  0  0  0  0  0
   57.2390   25.0140   46.8390 C   0  0  0  0  0  0  0  0  0  0  0  0
   57.7180   24.2720   45.7480 C   0  0  0  0  0  0  0  0  0  0  0  0
   57.9060   24.8810   44.5040 C   0  0  0  0  0  0  0  0  0  0  0  0
   57.6030   26.2430   44.3320 C   0  0  0  0  0  0  0  0  0  0  0  0
   57.7690   26.9010   43.1030 C   0  0  0  0  0  0  0  0  0  0  0  0
   58.2040   26.2860   42.0890 O   0  0  0  0  0  0  0  0  0  0  0  0
   57.4450   28.2530   43.0000 C   0  0  0  0  0  0  0  0  0  0  0  0
   56.9650   28.9310   44.1320 C   0  0  0  0  0  0  0  0  0  0  0  0
   56.6020   30.3620   44.0780 C   0  0  0  0  0  0  0  0  0  0  0  0
   56.2790   30.8640   42.9700 O   0  0  0  0  0  0  0  0  0  0  0  0
   56.6460   31.2110   45.2330 N   0  0  0  0  0  0  0  0  0  0  0  0
   57.6430   32.2030   45.5210 C   0  0  0  0  0  0  0  0  0  0  0  0
   57.4030   33.5650   45.2620 C   0  0  0  0  0  0  0  0  0  0  0  0
   58.3970   34.5160   45.5000 C   0  0  0  0  0  0  0  0  0  0  0  0
   59.6450   34.1180   45.9780 C   0  0  0  0  0  0  0  0  0  0  0  0
   59.9040   32.7670   46.2200 C   0  0  0  0  0  0  0  0  0  0  0  0
   58.9100   31.8000   45.9970 C   0  0  0  0  0  0  0  0  0  0  0  0
   59.1910   30.4150   46.2690 N   0  0  0  0  0  0  0  0  0  0  0  0
   60.1260   29.6840   45.4010 C   0  0  0  0  0  0  0  0  0  0  0  0
   60.0710   28.1760   45.6710 C   0  0  0  0  0  0  0  0  0  0  0  0
   60.2680   27.8610   47.1620 C   0  0  0  0  0  0  0  0  0  0  0  0
   59.5200   28.8250   48.1120 C   0  0  0  0  0  0  0  0  0  0  0  0
   58.5210   29.7270   47.3810 C   0  0  0  0  0  0  0  0  0  0  0  0
   56.8070   28.2750   45.2800 O   0  0  0  0  0  0  0  0  0  0  0  0
   57.1040   26.9870   45.4240 C   0  0  0  0  0  0  0  0  0  0  0  0
   56.9190   26.3690   46.6660 C   0  0  0  0  0  0  0  0  0  0  0  0
   57.2510   25.0479   48.9738 H   0  0  0  0  0  0  0  0  0  0  0  0
   55.9474   24.0526   48.2413 H   0  0  0  0  0  0  0  0  0  0  0  0
   57.6413   23.4549   48.2413 H   0  0  0  0  0  0  0  0  0  0  0  0
   57.9471   23.2034   45.8729 H   0  0  0  0  0  0  0  0  0  0  0  0
   58.2918   24.2934   43.6579 H   0  0  0  0  0  0  0  0  0  0  0  0
   57.5640   28.7824   42.0431 H   0  0  0  0  0  0  0  0  0  0  0  0
   56.4258   33.8826   44.8694 H   0  0  0  0  0  0  0  0  0  0  0  0
   58.1954   35.5806   45.3102 H   0  0  0  0  0  0  0  0  0  0  0  0
   60.4266   34.8691   46.1648 H   0  0  0  0  0  0  0  0  0  0  0  0
   60.8936   32.4581   46.5879 H   0  0  0  0  0  0  0  0  0  0  0  0
   59.8598   29.8701   44.3500 H   0  0  0  0  0  0  0  0  0  0  0  0
   61.1458   30.0382   45.6119 H   0  0  0  0  0  0  0  0  0  0  0  0
   59.0912   27.7916   45.3513 H   0  0  0  0  0  0  0  0  0  0  0  0
   60.8843   27.6956   45.1074 H   0  0  0  0  0  0  0  0  0  0  0  0
   59.9063   26.8394   47.3506 H   0  0  0  0  0  0  0  0  0  0  0  0
   61.3416   27.9755   47.3726 H   0  0  0  0  0  0  0  0  0  0  0  0
   58.9740   28.2290   48.8581 H   0  0  0  0  0  0  0  0  0  0  0  0
   60.2724   29.4771   48.5797 H   0  0  0  0  0  0  0  0  0  0  0  0
   57.6964   29.1145   46.9874 H   0  0  0  0  0  0  0  0  0  0  0  0
   58.1253   30.4745   48.0843 H   0  0  0  0  0  0  0  0  0  0  0  0
   56.5204   26.9490   47.5114 H   0  0  0  0  0  0  0  0  0  0  0  0
  1  2  1  0
  2  3  2  0
  3  4  1  0
  4  5  2  0
  5  6  1  0
  6  7  2  0
  6  8  1  0
  8  9  2  0
  9 10  1  0
 10 11  2  0
 10 12  1  0
 12 13  1  0
 13 14  2  0
 14 15  1  0
 15 16  2  0
 16 17  1  0
 17 18  2  0
 18 19  1  0
 19 20  1  0
 20 21  1  0
 21 22  1  0
 22 23  1  0
 23 24  1  0
  9 25  1  0
 25 26  1  0
 26 27  2  0
 27  2  1  0
 26  5  1  0
 18 13  1  0
 24 19  1  0
  1 28  1  0
  1 29  1  0
  1 30  1  0
  3 31  1  0
  4 32  1  0
  8 33  1  0
 14 34  1  0
 15 35  1  0
 16 36  1  0
 17 37  1  0
 20 38  1  0
 20 39  1  0
 21 40  1  0
 21 41  1  0
 22 42  1  0
 22 43  1  0
 23 44  1  0
 23 45  1  0
 24 46  1  0
 24 47  1  0
 27 48  1  0
M  CHG  1  12  -1
M  END
>  <UniqueID>  (35) 
33

>  <SMILES>  (35) 
Cc1ccc2c(=O)cc(C(=O)[N-]c3ccccc3N3CCCCC3)oc2c1

>  <Energy>  (35) 
66.90154623107367

>  <Genealogy>  (35) 
Cc1ccc2c(=O)cc(C(=O)[N-]c3ccccc3N3CCCCC3)oc2c1 (protonated)
Cc1ccc2c(=O)cc(C(=O)[N-]c3ccccc3N3CCCCC3)oc2c1 (3D coordinates assigned)
Cc1ccc2c(=O)cc(C(=O)[N-]c3ccccc3N3CCCCC3)oc2c1 (nonaromatic ring conformer: 66.90154623107367 kcal/mol)

>  <smiles>  (35) 
Cc1ccc2c(=O)cc(C(=O)Nc3ccccc3N3CCCCC3)oc2c1

>  <score_type>  (35) 
oracle

>  <origin>  (35) 
adg

>  <m_score__min__energy>  (35) 
-11.44

>  <m_primary>  (35) 
energy

$$$$
35:0
     RDKit          3D

 50 53  0  0  0  0  0  0  0  0999 V2000
   59.2590   34.5660   44.6100 C   0  0  0  0  0  0  0  0  0  0  0  0
   58.7370   34.6470   45.9320 O   0  0  0  0  0  0  0  0  0  0  0  0
   59.2880   33.9910   47.0430 C   0  0  0  0  0  0  0  0  0  0  0  0
   60.6430   34.1960   47.3260 C   0  0  0  0  0  0  0  0  0  0  0  0
   61.2410   33.5650   48.4190 C   0  0  0  0  0  0  0  0  0  0  0  0
   60.4930   32.7170   49.2350 C   0  0  0  0  0  0  0  0  0  0  0  0
   59.1320   32.4960   48.9690 C   0  0  0  0  0  0  0  0  0  0  0  0
   58.3390   31.5340   49.8180 C   0  0  0  0  0  0  0  0  0  0  0  0
   59.0460   30.2410   49.9270 N   0  0  0  0  0  0  0  0  0  0  0  0
   59.4440   29.7800   51.1600 C   0  0  0  0  0  0  0  0  0  0  0  0
   59.1640   30.4220   52.2080 O   0  0  0  0  0  0  0  0  0  0  0  0
   60.1440   28.6220   51.2710 N   0  0  0  0  0  0  0  0  0  0  0  0
   60.4790   27.8840   50.1870 C   0  0  0  0  0  0  0  0  0  0  0  0
   61.1340   26.8190   50.3410 O   0  0  0  0  0  0  0  0  0  0  0  0
   60.0920   28.3160   48.9150 C   0  0  0  0  0  0  0  0  0  0  0  0
   60.3980   27.6060   47.7460 C   0  0  0  0  0  0  0  0  0  0  0  0
   59.9860   28.0740   46.5390 N   0  0  0  0  0  0  0  0  0  0  0  0
   59.2750   29.2330   46.4420 C   0  0  0  0  0  0  0  0  0  0  0  0
   58.8190   29.7110   45.1650 N   0  0  0  0  0  0  0  0  0  0  0  0
   58.4170   28.7100   44.1600 C   0  0  0  0  0  0  0  0  0  0  0  0
   57.0140   28.9540   43.5840 C   0  0  0  0  0  0  0  0  0  0  0  0
   56.1070   29.7750   44.5240 C   0  0  0  0  0  0  0  0  0  0  0  0
   56.3200   31.2280   44.4430 N   0  0  0  0  0  0  0  0  0  0  0  0
   57.6570   31.6030   43.9620 C   0  0  0  0  0  0  0  0  0  0  0  0
   58.8190   31.1590   44.8850 C   0  0  0  0  0  0  0  0  0  0  0  0
   58.9680   29.9300   47.5690 N   0  0  0  0  0  0  0  0  0  0  0  0
   59.3600   29.5130   48.8040 C   0  0  0  0  0  0  0  0  0  0  0  0
   58.5320   33.1380   47.8720 C   0  0  0  0  0  0  0  0  0  0  0  0
   60.3451   34.3975   44.6543 H   0  0  0  0  0  0  0  0  0  0  0  0
   58.7799   33.7315   44.0771 H   0  0  0  0  0  0  0  0  0  0  0  0
   59.0553   35.5065   44.0771 H   0  0  0  0  0  0  0  0  0  0  0  0
   61.2412   34.8586   46.6832 H   0  0  0  0  0  0  0  0  0  0  0  0
   62.3053   33.7375   48.6369 H   0  0  0  0  0  0  0  0  0  0  0  0
   60.9713   32.2188   50.0911 H   0  0  0  0  0  0  0  0  0  0  0  0
   58.2073   31.9611   50.8231 H   0  0  0  0  0  0  0  0  0  0  0  0
   57.3589   31.3666   49.3475 H   0  0  0  0  0  0  0  0  0  0  0  0
   60.9719   26.6695   47.8058 H   0  0  0  0  0  0  0  0  0  0  0  0
   60.1980   27.5130   45.6830 H   0  0  0  0  0  0  0  0  0  0  0  0
   59.1425   28.7347   43.3335 H   0  0  0  0  0  0  0  0  0  0  0  0
   58.3956   27.7330   44.6650 H   0  0  0  0  0  0  0  0  0  0  0  0
   57.1158   29.4977   42.6332 H   0  0  0  0  0  0  0  0  0  0  0  0
   56.5402   27.9706   43.4481 H   0  0  0  0  0  0  0  0  0  0  0  0
   55.0590   29.5641   44.2646 H   0  0  0  0  0  0  0  0  0  0  0  0
   56.3581   29.4735   45.5516 H   0  0  0  0  0  0  0  0  0  0  0  0
   56.1030   31.6910   45.3560 H   0  0  0  0  0  0  0  0  0  0  0  0
   57.8081   31.1436   42.9740 H   0  0  0  0  0  0  0  0  0  0  0  0
   57.6825   32.7023   43.9333 H   0  0  0  0  0  0  0  0  0  0  0  0
   59.7706   31.4210   44.3994 H   0  0  0  0  0  0  0  0  0  0  0  0
   58.6886   31.6774   45.8464 H   0  0  0  0  0  0  0  0  0  0  0  0
   57.4654   32.9736   47.6591 H   0  0  0  0  0  0  0  0  0  0  0  0
  1  2  1  0
  2  3  1  0
  3  4  2  0
  4  5  1  0
  5  6  2  0
  6  7  1  0
  7  8  1  0
  8  9  1  0
  9 10  1  0
 10 11  2  0
 10 12  1  0
 12 13  1  0
 13 14  2  0
 13 15  1  0
 15 16  2  0
 16 17  1  0
 17 18  2  0
 18 19  1  0
 19 20  1  0
 20 21  1  0
 21 22  1  0
 22 23  1  0
 23 24  1  0
 24 25  1  0
 18 26  1  0
 26 27  2  0
  7 28  2  0
 28  3  1  0
 27  9  1  0
 27 15  1  0
 25 19  1  0
  1 29  1  0
  1 30  1  0
  1 31  1  0
  4 32  1  0
  5 33  1  0
  6 34  1  0
  8 35  1  0
  8 36  1  0
 16 37  1  0
 17 38  1  0
 20 39  1  0
 20 40  1  0
 21 41  1  0
 21 42  1  0
 22 43  1  0
 22 44  1  0
 23 45  1  0
 24 46  1  0
 24 47  1  0
 25 48  1  0
 25 49  1  0
 28 50  1  0
M  CHG  2  12  -1  17   1
M  END
>  <UniqueID>  (36) 
34

>  <SMILES>  (36) 
COc1cccc(Cn2c(=O)[n-]c(=O)c3c[nH+]c(N4CCCNCC4)nc32)c1

>  <Energy>  (36) 
70.32861473471442

>  <Genealogy>  (36) 
COc1cccc(Cn2c(=O)[n-]c(=O)c3c[nH+]c(N4CCCNCC4)nc32)c1 (protonated)
COc1cccc(Cn2c(=O)[n-]c(=O)c3c[nH+]c(N4CCCNCC4)nc32)c1 (3D coordinates assigned)
COc1cccc(Cn2c(=O)[n-]c(=O)c3c[nH+]c(N4CCCNCC4)nc32)c1 (nonaromatic ring conformer: 70.32861473471442 kcal/mol)

>  <smiles>  (36) 
COc1cccc(Cn2c(=O)[nH]c(=O)c3cnc(N4CCCNCC4)nc32)c1

>  <score_type>  (36) 
oracle

>  <origin>  (36) 
adg

>  <m_score__min__energy>  (36) 
-6.0199999999999996

>  <m_primary>  (36) 
energy

$$$$
36:0
     RDKit          3D

 35 37  0  0  0  0  0  0  0  0999 V2000
   56.7463   20.8420   42.2522 H   0  0  0  0  0  0  0  0  0  0  0  0
   56.7060   21.5820   43.0650 C   0  0  0  0  0  0  0  0  0  0  0  0
   55.6520   22.3000   43.3840 O   0  0  0  0  0  0  0  0  0  0  0  0
   55.9650   23.0700   44.3980 C   0  0  0  0  0  0  0  0  0  0  0  0
   55.0290   24.0580   45.0210 C   0  0  0  0  0  0  0  0  0  0  0  0
   54.0259   23.6128   45.0949 H   0  0  0  0  0  0  0  0  0  0  0  0
   54.9909   24.9625   44.3962 H   0  0  0  0  0  0  0  0  0  0  0  0
   55.4970   24.4170   46.3540 N   0  0  0  0  0  0  0  0  0  0  0  0
   56.5900   25.3090   46.5880 C   0  0  0  0  0  0  0  0  0  0  0  0
   57.6280   24.9080   47.1830 O   0  0  0  0  0  0  0  0  0  0  0  0
   56.4920   26.7350   46.1460 C   0  0  0  0  0  0  0  0  0  0  0  0
   55.4917   26.9140   45.7248 H   0  0  0  0  0  0  0  0  0  0  0  0
   56.6635   27.3862   47.0158 H   0  0  0  0  0  0  0  0  0  0  0  0
   57.7510   27.1090   44.8780 S   0  0  0  0  0  0  0  0  0  0  0  0
   57.3470   28.8510   44.7730 C   0  0  0  0  0  0  0  0  0  0  0  0
   56.0890   29.3340   44.8690 N   0  0  0  0  0  0  0  0  0  0  0  0
   56.0260   30.6590   44.7700 N   0  0  0  0  0  0  0  0  0  0  0  0
   57.2320   31.2360   44.5830 C   0  0  0  0  0  0  0  0  0  0  0  0
   57.3760   32.5270   44.5090 N   0  0  0  0  0  0  0  0  0  0  0  0
   58.1180   33.3560   45.4170 C   0  0  0  0  0  0  0  0  0  0  0  0
   58.1790   33.0750   46.7940 C   0  0  0  0  0  0  0  0  0  0  0  0
   57.6211   32.2204   47.2045 H   0  0  0  0  0  0  0  0  0  0  0  0
   58.9470   33.8790   47.6430 C   0  0  0  0  0  0  0  0  0  0  0  0
   58.9795   33.6647   48.7214 H   0  0  0  0  0  0  0  0  0  0  0  0
   59.6730   34.9540   47.1230 C   0  0  0  0  0  0  0  0  0  0  0  0
   60.2677   35.5921   47.7933 H   0  0  0  0  0  0  0  0  0  0  0  0
   59.6430   35.2180   45.7500 C   0  0  0  0  0  0  0  0  0  0  0  0
   60.2224   36.0579   45.3391 H   0  0  0  0  0  0  0  0  0  0  0  0
   58.8770   34.4150   44.8990 C   0  0  0  0  0  0  0  0  0  0  0  0
   58.8699   34.6153   43.8174 H   0  0  0  0  0  0  0  0  0  0  0  0
   58.4710   30.0850   44.5530 S   0  0  0  0  0  0  0  0  0  0  0  0
   57.2780   22.8620   44.7670 C   0  0  0  0  0  0  0  0  0  0  0  0
   57.8288   23.3605   45.5782 H   0  0  0  0  0  0  0  0  0  0  0  0
   57.7540   21.8980   43.9050 C   0  0  0  0  0  0  0  0  0  0  0  0
   58.7660   21.4671   43.8897 H   0  0  0  0  0  0  0  0  0  0  0  0
  1  2  1  0
  2  3  1  0
  3  4  1  0
  4  5  1  0
  5  6  1  0
  5  7  1  0
  5  8  1  0
  8  9  1  0
  9 10  2  0
  9 11  1  0
 11 12  1  0
 11 13  1  0
 11 14  1  0
 14 15  1  0
 15 16  2  0
 16 17  1  0
 17 18  1  0
 18 19  2  0
 19 20  1  0
 20 21  2  0
 21 22  1  0
 21 23  1  0
 23 24  1  0
 23 25  2  0
 25 26  1  0
 25 27  1  0
 27 28  1  0
 27 29  2  0
 29 30  1  0
 18 31  1  0
  4 32  2  0
 32 33  1  0
 32 34  1  0
 34 35  1  0
 34  2  2  0
 31 15  1  0
 29 20  1  0
M  CHG  2   8  -1  17  -1
M  END
>  <UniqueID>  (37) 
35

>  <SMILES>  (37) 
O=C(CSc1n[n-]/c(=N/c2ccccc2)s1)[N-]Cc1ccco1

>  <Energy>  (37) 
95.60915931445996

>  <Genealogy>  (37) 
O=C(CSc1n[n-]c(=Nc2ccccc2)s1)[N-]Cc1ccco1 (protonated)
O=C(CSc1n[n-]/c(=N/c2ccccc2)s1)[N-]Cc1ccco1 (cis-trans isomerization)
O=C(CSc1n[n-]/c(=N/c2ccccc2)s1)[N-]Cc1ccco1 (3D coordinates assigned)
O=C(CSc1n[n-]/c(=N/c2ccccc2)s1)[N-]Cc1ccco1 (optimized conformer: 95.60915931445996 kcal/mol)

>  <smiles>  (37) 
O=C(CSc1n[nH]c(=Nc2ccccc2)s1)NCc1ccco1

>  <score_type>  (37) 
oracle

>  <origin>  (37) 
adg

>  <m_score__min__energy>  (37) 
-12.35

>  <m_primary>  (37) 
energy

$$$$
37:0
     RDKit          3D

 60 65  0  0  0  0  0  0  0  0999 V2000
   61.4860   30.6130   50.7160 O   0  0  0  0  0  0  0  0  0  0  0  0
   61.5000   30.7280   49.4600 C   0  0  0  0  0  0  0  0  0  0  0  0
   60.8940   29.7250   48.6290 N   0  0  0  0  0  0  0  0  0  0  0  0
   59.9100   29.9050   47.7980 C   0  0  0  0  0  0  0  0  0  0  0  0
   59.4290   28.8770   47.0400 N   0  0  0  0  0  0  0  0  0  0  0  0
   58.4170   29.1290   46.1770 C   0  0  0  0  0  0  0  0  0  0  0  0
   57.7700   28.2610   45.3190 C   0  0  0  0  0  0  0  0  0  0  0  0
   58.0010   26.9680   45.0500 C   0  0  0  0  0  0  0  0  0  0  0  0
   57.3570   25.8440   45.7510 C   0  0  0  0  0  0  0  0  0  0  0  0
   58.0400   24.7870   46.2250 N   0  0  0  0  0  0  0  0  0  0  0  0
   57.1050   24.0830   46.8970 C   0  0  0  0  0  0  0  0  0  0  0  0
   57.3650   23.0070   47.4950 O   0  0  0  0  0  0  0  0  0  0  0  0
   55.8740   24.6370   46.9040 N   0  0  0  0  0  0  0  0  0  0  0  0
   56.0500   25.7630   46.1910 C   0  0  0  0  0  0  0  0  0  0  0  0
   55.0450   26.7090   46.0080 O   0  0  0  0  0  0  0  0  0  0  0  0
   56.7700   29.0470   44.7540 C   0  0  0  0  0  0  0  0  0  0  0  0
   56.8510   30.3120   45.2320 N   0  0  0  0  0  0  0  0  0  0  0  0
   57.8580   30.3400   46.0910 N   0  0  0  0  0  0  0  0  0  0  0  0
   58.3270   31.3880   46.8290 C   0  0  0  0  0  0  0  0  0  0  0  0
   57.8320   32.5910   46.7570 N   0  0  0  0  0  0  0  0  0  0  0  0
   58.4090   33.7280   46.0450 C   0  0  0  0  0  0  0  0  0  0  0  0
   59.9270   33.7580   46.0590 C   0  0  0  0  0  0  0  0  0  0  0  0
   59.1370   34.6820   46.9730 C   0  0  0  0  0  0  0  0  0  0  0  0
   59.3680   31.1530   47.6750 N   0  0  0  0  0  0  0  0  0  0  0  0
   62.1140   31.9170   48.8310 C   0  0  0  0  0  0  0  0  0  0  0  0
   62.5600   31.8210   47.5010 C   0  0  0  0  0  0  0  0  0  0  0  0
   63.1590   32.9150   46.8720 C   0  0  0  0  0  0  0  0  0  0  0  0
   63.3090   34.1210   47.5570 C   0  0  0  0  0  0  0  0  0  0  0  0
   62.8560   34.2400   48.8710 C   0  0  0  0  0  0  0  0  0  0  0  0
   62.2610   33.1460   49.5190 C   0  0  0  0  0  0  0  0  0  0  0  0
   61.7160   33.3510   50.8750 C   0  0  0  0  0  0  0  0  0  0  0  0
   62.5260   33.5880   51.8120 O   0  0  0  0  0  0  0  0  0  0  0  0
   60.3010   33.2810   51.1460 N   0  0  0  0  0  0  0  0  0  0  0  0
   59.3430   32.8520   50.1120 C   0  0  0  0  0  0  0  0  0  0  0  0
   58.2140   32.0320   50.7470 C   0  0  0  0  0  0  0  0  0  0  0  0
   57.5140   32.7690   51.9080 C   0  0  0  0  0  0  0  0  0  0  0  0
   58.3010   33.9740   52.4450 C   0  0  0  0  0  0  0  0  0  0  0  0
   59.8090   33.7080   52.4650 C   0  0  0  0  0  0  0  0  0  0  0  0
   58.7199   26.7306   44.2520 H   0  0  0  0  0  0  0  0  0  0  0  0
   55.1420   27.4670   45.3430 H   0  0  0  0  0  0  0  0  0  0  0  0
   56.0242   28.6934   44.0269 H   0  0  0  0  0  0  0  0  0  0  0  0
   57.6424   33.8199   45.2615 H   0  0  0  0  0  0  0  0  0  0  0  0
   60.4902   32.9138   46.4834 H   0  0  0  0  0  0  0  0  0  0  0  0
   60.7099   33.8977   45.2991 H   0  0  0  0  0  0  0  0  0  0  0  0
   59.1290   34.5065   48.0589 H   0  0  0  0  0  0  0  0  0  0  0  0
   59.1119   35.7676   47.1484 H   0  0  0  0  0  0  0  0  0  0  0  0
   62.4362   30.8764   46.9511 H   0  0  0  0  0  0  0  0  0  0  0  0
   63.5131   32.8254   45.8344 H   0  0  0  0  0  0  0  0  0  0  0  0
   63.7851   34.9793   47.0603 H   0  0  0  0  0  0  0  0  0  0  0  0
   62.9657   35.1968   49.4026 H   0  0  0  0  0  0  0  0  0  0  0  0
   58.9164   33.7390   49.6208 H   0  0  0  0  0  0  0  0  0  0  0  0
   59.8672   32.2298   49.3717 H   0  0  0  0  0  0  0  0  0  0  0  0
   57.4658   31.8069   49.9727 H   0  0  0  0  0  0  0  0  0  0  0  0
   58.6638   31.1175   51.1610 H   0  0  0  0  0  0  0  0  0  0  0  0
   56.5357   33.1248   51.5526 H   0  0  0  0  0  0  0  0  0  0  0  0
   57.4266   32.0501   52.7360 H   0  0  0  0  0  0  0  0  0  0  0  0
   58.1018   34.8440   51.8020 H   0  0  0  0  0  0  0  0  0  0  0  0
   57.9741   34.1616   53.4784 H   0  0  0  0  0  0  0  0  0  0  0  0
   60.3304   34.6309   52.7589 H   0  0  0  0  0  0  0  0  0  0  0  0
   60.0063   32.8994   53.1842 H   0  0  0  0  0  0  0  0  0  0  0  0
  1  2  2  0
  2  3  1  0
  3  4  2  3
  4  5  1  0
  5  6  2  0
  6  7  1  0
  7  8  2  3
  8  9  1  0
  9 10  1  0
 10 11  1  0
 11 12  2  0
 11 13  1  0
 13 14  1  0
 14 15  1  0
  7 16  1  0
 16 17  2  0
 17 18  1  0
 18 19  1  0
 19 20  2  3
 20 21  1  0
 21 22  1  0
 22 23  1  0
 19 24  1  0
  2 25  1  0
 25 26  2  0
 26 27  1  0
 27 28  2  0
 28 29  1  0
 29 30  2  0
 30 31  1  0
 31 32  2  0
 31 33  1  0
 33 34  1  0
 34 35  1  0
 35 36  1  0
 36 37  1  0
 37 38  1  0
 24  4  1  0
 30 25  1  0
 38 33  1  0
 18  6  1  0
 23 21  1  0
 14  9  2  0
  8 39  1  0
 15 40  1  0
 16 41  1  0
 21 42  1  0
 22 43  1  0
 22 44  1  0
 23 45  1  0
 23 46  1  0
 26 47  1  0
 27 48  1  0
 28 49  1  0
 29 50  1  0
 34 51  1  0
 34 52  1  0
 35 53  1  0
 35 54  1  0
 36 55  1  0
 36 56  1  0
 37 57  1  0
 37 58  1  0
 38 59  1  0
 38 60  1  0
M  CHG  3  10  -1  13  -1  24  -1
M  END
>  <UniqueID>  (38) 
36

>  <SMILES>  (38) 
O=C(N=c1nc2c(=Cc3[n-]c(=O)[n-]c3O)cnn2c(=NC2CC2)[n-]1)c1ccccc1C(=O)N1CCCCC1

>  <Energy>  (38) 
421.46874224545536

>  <Genealogy>  (38) 
O=C(N=c1nc2c(=Cc3[n-]c(=O)[n-]c3O)cnn2c(=NC2CC2)[n-]1)c1ccccc1C(=O)N1CCCCC1 (protonated)
O=C(N=c1nc2c(=Cc3[n-]c(=O)[n-]c3O)cnn2c(=NC2CC2)[n-]1)c1ccccc1C(=O)N1CCCCC1 (3D coordinates assigned)
O=C(N=c1nc2c(=Cc3[n-]c(=O)[n-]c3O)cnn2c(=NC2CC2)[n-]1)c1ccccc1C(=O)N1CCCCC1 (nonaromatic ring conformer: 421.46874224545536 kcal/mol)

>  <smiles>  (38) 
O=C(N=c1nc2c(=Cc3[nH]c(=O)[nH]c3O)cnn2c(=NC2CC2)[nH]1)c1ccccc1C(=O)N1CCCCC1

>  <score_type>  (38) 
oracle

>  <origin>  (38) 
adg

>  <m_score__min__energy>  (38) 
-16.300000000000001

>  <m_primary>  (38) 
energy

$$$$
38:0
     RDKit          3D

 44 48  0  0  0  0  0  0  0  0999 V2000
   53.1174   32.0944   53.1314 H   0  0  0  0  0  0  0  0  0  0  0  0
   53.1140   31.2080   52.4800 C   0  0  0  0  0  0  0  0  0  0  0  0
   52.3200   31.2680   51.2420 C   0  0  0  0  0  0  0  0  0  0  0  0
   52.3200   30.2960   50.3130 N   0  0  0  0  0  0  0  0  0  0  0  0
   51.3960   30.7130   49.4190 C   0  0  0  0  0  0  0  0  0  0  0  0
   51.0250   29.8660   48.0730 S   0  0  0  0  0  0  0  0  0  0  0  0
   50.7880   31.8750   49.7410 N   0  0  0  0  0  0  0  0  0  0  0  0
   51.3740   32.2070   50.9030 C   0  0  0  0  0  0  0  0  0  0  0  0
   51.0220   33.3220   51.6530 O   0  0  0  0  0  0  0  0  0  0  0  0
   53.8330   30.1450   52.8660 C   0  0  0  0  0  0  0  0  0  0  0  0
   53.3330   29.0020   53.4750 C   0  0  0  0  0  0  0  0  0  0  0  0
   52.2789   28.8323   53.7398 H   0  0  0  0  0  0  0  0  0  0  0  0
   54.3430   28.1300   53.6920 N   0  0  0  0  0  0  0  0  0  0  0  0
   54.2100   27.1950   54.1210 H   0  0  0  0  0  0  0  0  0  0  0  0
   55.4690   28.6660   53.2340 N   0  0  0  0  0  0  0  0  0  0  0  0
   56.7480   28.1690   53.1820 C   0  0  0  0  0  0  0  0  0  0  0  0
   57.1200   27.0250   53.6860 N   0  0  0  0  0  0  0  0  0  0  0  0
   57.6870   26.7280   54.9940 C   0  0  0  0  0  0  0  0  0  0  0  0
   57.2910   25.7077   55.1045 H   0  0  0  0  0  0  0  0  0  0  0  0
   59.0250   27.4150   55.1950 C   0  0  0  0  0  0  0  0  0  0  0  0
   59.8233   26.9100   55.7586 H   0  0  0  0  0  0  0  0  0  0  0  0
   59.7777   27.8616   54.5287 H   0  0  0  0  0  0  0  0  0  0  0  0
   57.7920   27.9280   55.9190 C   0  0  0  0  0  0  0  0  0  0  0  0
   57.6972   27.7942   57.0067 H   0  0  0  0  0  0  0  0  0  0  0  0
   57.2817   28.8995   55.9943 H   0  0  0  0  0  0  0  0  0  0  0  0
   57.6980   28.9340   52.5790 N   0  0  0  0  0  0  0  0  0  0  0  0
   57.3990   30.1550   52.0440 C   0  0  0  0  0  0  0  0  0  0  0  0
   58.3170   30.8770   51.4730 N   0  0  0  0  0  0  0  0  0  0  0  0
   58.3190   32.3380   51.4210 C   0  0  0  0  0  0  0  0  0  0  0  0
   57.2980   32.7075   51.5973 H   0  0  0  0  0  0  0  0  0  0  0  0
   59.0006   32.7198   52.1954 H   0  0  0  0  0  0  0  0  0  0  0  0
   58.7940   32.8190   50.0760 C   0  0  0  0  0  0  0  0  0  0  0  0
   58.1890   32.3380   48.9030 C   0  0  0  0  0  0  0  0  0  0  0  0
   57.3822   31.5932   48.9687 H   0  0  0  0  0  0  0  0  0  0  0  0
   58.6080   32.8020   47.6520 C   0  0  0  0  0  0  0  0  0  0  0  0
   58.1332   32.4186   46.7368 H   0  0  0  0  0  0  0  0  0  0  0  0
   59.6290   33.7520   47.5630 C   0  0  0  0  0  0  0  0  0  0  0  0
   60.1500   34.3360   45.9920 Cl  0  0  0  0  0  0  0  0  0  0  0  0
   60.2340   34.2400   48.7260 C   0  0  0  0  0  0  0  0  0  0  0  0
   61.0365   34.9890   48.6556 H   0  0  0  0  0  0  0  0  0  0  0  0
   59.8190   33.7760   49.9780 C   0  0  0  0  0  0  0  0  0  0  0  0
   60.2969   34.1617   50.8906 H   0  0  0  0  0  0  0  0  0  0  0  0
   56.1270   30.6290   52.1090 N   0  0  0  0  0  0  0  0  0  0  0  0
   55.1850   29.8760   52.7250 C   0  0  0  0  0  0  0  0  0  0  0  0
  1  2  1  0
  2  3  1  0
  3  4  1  0
  4  5  1  0
  5  6  2  0
  5  7  1  0
  7  8  1  0
  8  9  1  0
  2 10  2  3
 10 11  1  0
 11 12  1  0
 11 13  2  0
 13 14  1  0
 13 15  1  0
 15 16  1  0
 16 17  2  3
 17 18  1  0
 18 19  1  0
 18 20  1  0
 20 21  1  0
 20 22  1  0
 20 23  1  0
 23 24  1  0
 23 25  1  0
 16 26  1  0
 26 27  1  0
 27 28  2  0
 28 29  1  0
 29 30  1  0
 29 31  1  0
 29 32  1  0
 32 33  2  0
 33 34  1  0
 33 35  1  0
 35 36  1  0
 35 37  2  0
 37 38  1  0
 37 39  1  0
 39 40  1  0
 39 41  2  0
 41 42  1  0
 27 43  1  0
 43 44  2  0
  8  3  2  0
 44 10  1  0
 44 15  1  0
 23 18  1  0
 41 32  1  0
M  CHG  5   4  -1   7  -1   9  -1  13   1  26  -1
M  END
>  <UniqueID>  (39) 
37

>  <SMILES>  (39) 
[O-]c1[n-]c(=S)[n-]c1C=c1c[nH+]n2c(=NC3CC3)[n-]/c(=N\Cc3ccc(Cl)cc3)nc12

>  <Energy>  (39) 
395.03216010231966

>  <Genealogy>  (39) 
[O-]c1[n-]c(=S)[n-]c1C=c1c[nH+]n2c(=NC3CC3)[n-]c(=NCc3ccc(Cl)cc3)nc12 (protonated)
[O-]c1[n-]c(=S)[n-]c1C=c1c[nH+]n2c(=NC3CC3)[n-]/c(=N\Cc3ccc(Cl)cc3)nc12 (cis-trans isomerization)
[O-]c1[n-]c(=S)[n-]c1C=c1c[nH+]n2c(=NC3CC3)[n-]/c(=N\Cc3ccc(Cl)cc3)nc12 (3D coordinates assigned)
[O-]c1[n-]c(=S)[n-]c1C=c1c[nH+]n2c(=NC3CC3)[n-]/c(=N\Cc3ccc(Cl)cc3)nc12 (nonaromatic ring conformer: 395.03216010231966 kcal/mol)

>  <smiles>  (39) 
Oc1[nH]c(=S)[nH]c1C=c1cnn2c(=NC3CC3)[nH]c(=NCc3ccc(Cl)cc3)nc12

>  <score_type>  (39) 
oracle

>  <origin>  (39) 
adg

>  <m_score__min__energy>  (39) 
-17.210000000000001

>  <m_primary>  (39) 
energy

$$$$
39:0
     RDKit          3D

 59 63  0  0  1  0  0  0  0  0999 V2000
   57.0130   30.3330   43.3470 O   0  0  0  0  0  0  0  0  0  0  0  0
   57.4320   30.3970   44.5710 C   0  0  0  0  0  0  0  0  0  0  0  0
   57.4830   29.1520   45.2690 C   0  0  0  0  0  0  0  0  0  0  0  0
   58.4510   28.5630   46.0500 C   0  0  0  0  0  0  0  0  0  0  0  0
   58.0230   27.3520   46.4640 N   0  0  0  0  0  0  0  0  0  0  0  0
   58.5200   26.3580   47.2110 C   0  0  0  0  0  0  0  0  0  0  0  0
   59.6670   26.4780   47.7150 O   0  0  0  0  0  0  0  0  0  0  0  0
   57.8490   25.1890   47.4690 C   0  0  0  0  0  0  0  0  0  0  0  0
   56.5870   24.9980   46.9440 C   0  0  0  0  0  0  0  0  0  0  0  0
   55.8850   23.8100   47.3480 C   0  0  0  0  0  0  0  0  0  0  0  0
   55.5840   22.7670   46.6630 C   0  0  0  0  0  0  0  0  0  0  0  0
   55.9290   22.4280   45.3090 C   0  0  0  0  0  0  0  0  0  0  0  0
   56.6840   21.3890   44.8580 C   0  0  0  0  0  0  0  0  0  0  0  0
   57.0490   21.2060   43.5250 C   0  0  0  0  0  0  0  0  0  0  0  0
   56.6390   22.1090   42.5700 C   0  0  0  0  0  0  0  0  0  0  0  0
   55.8680   23.1720   43.0180 C   0  0  0  0  0  0  0  0  0  0  0  0
   55.5150   23.3420   44.3320 C   0  0  0  0  0  0  0  0  0  0  0  0
   56.0970   26.0030   46.1970 N   0  0  0  0  0  0  0  0  0  0  0  0
   56.7870   27.1500   45.9570 C   0  0  0  0  0  0  0  0  0  0  0  0
   56.4720   28.2390   45.2410 N   0  0  0  0  0  0  0  0  0  0  0  0
   57.7770   31.6750   45.0280 N   0  0  0  0  0  0  0  0  0  0  0  0
   58.2600   32.0130   46.3430 C   0  0  0  0  0  0  0  0  0  0  0  0
   58.0700   33.4530   46.7380 C   0  0  0  0  0  0  0  0  0  0  0  0
   58.4770   34.4280   45.7190 C   0  0  0  0  0  0  0  0  0  0  0  0
   59.6110   35.3040   46.1720 C   0  0  0  0  0  0  0  0  0  0  0  0
   60.6170   34.5280   46.9100 C   0  0  0  0  0  0  0  0  0  0  0  0
   61.6370   33.8050   46.3790 C   0  0  0  0  0  0  0  0  0  0  0  0
   62.5550   33.0910   47.1440 C   0  0  0  0  0  0  0  0  0  0  0  0
   62.4460   33.1010   48.5420 C   0  0  0  0  0  0  0  0  0  0  0  0
   61.3980   33.8430   49.0990 C   0  0  0  0  0  0  0  0  0  0  0  0
   60.5020   34.5420   48.3110 C   0  0  0  0  0  0  0  0  0  0  0  0
   58.8560   33.7100   44.4320 C   0  0  0  0  0  0  0  0  0  0  0  0
   57.6690   32.8120   44.0890 C   0  0  0  0  0  0  0  0  0  0  0  0
   59.4245   29.0107   46.2987 H   0  0  0  0  0  0  0  0  0  0  0  0
   58.3140   24.4093   48.0902 H   0  0  0  0  0  0  0  0  0  0  0  0
   55.5579   23.7923   48.3981 H   0  0  0  0  0  0  0  0  0  0  0  0
   54.9708   22.0215   47.1904 H   0  0  0  0  0  0  0  0  0  0  0  0
   57.0282   20.6460   45.5925 H   0  0  0  0  0  0  0  0  0  0  0  0
   57.6641   20.3409   43.2365 H   0  0  0  0  0  0  0  0  0  0  0  0
   56.9080   21.9940   41.5096 H   0  0  0  0  0  0  0  0  0  0  0  0
   55.5232   23.9145   42.2833 H   0  0  0  0  0  0  0  0  0  0  0  0
   54.8995   24.2063   44.6221 H   0  0  0  0  0  0  0  0  0  0  0  0
   55.1400   25.9850   45.7910 H   0  0  0  0  0  0  0  0  0  0  0  0
   57.7288   31.3854   47.0737 H   0  0  0  0  0  0  0  0  0  0  0  0
   59.3460   31.8387   46.3266 H   0  0  0  0  0  0  0  0  0  0  0  0
   57.0034   33.6105   46.9561 H   0  0  0  0  0  0  0  0  0  0  0  0
   58.7200   33.6244   47.6087 H   0  0  0  0  0  0  0  0  0  0  0  0
   57.6134   35.0857   45.5408 H   0  0  0  0  0  0  0  0  0  0  0  0
   60.0854   35.7616   45.2913 H   0  0  0  0  0  0  0  0  0  0  0  0
   59.2081   36.0789   46.8407 H   0  0  0  0  0  0  0  0  0  0  0  0
   61.7434   33.7825   45.2844 H   0  0  0  0  0  0  0  0  0  0  0  0
   63.3603   32.5229   46.6553 H   0  0  0  0  0  0  0  0  0  0  0  0
   63.1554   32.5481   49.1753 H   0  0  0  0  0  0  0  0  0  0  0  0
   61.2841   33.8709   50.1927 H   0  0  0  0  0  0  0  0  0  0  0  0
   59.6913   35.1146   48.7851 H   0  0  0  0  0  0  0  0  0  0  0  0
   59.0314   34.4372   43.6255 H   0  0  0  0  0  0  0  0  0  0  0  0
   59.7817   33.1279   44.5516 H   0  0  0  0  0  0  0  0  0  0  0  0
   56.7205   33.3490   44.2370 H   0  0  0  0  0  0  0  0  0  0  0  0
   57.6818   32.4874   43.0381 H   0  0  0  0  0  0  0  0  0  0  0  0
  1  2  2  0
  2  3  1  0
  3  4  2  0
  4  5  1  0
  5  6  1  0
  6  7  2  0
  6  8  1  0
  8  9  2  0
  9 10  1  0
 10 11  2  0
 11 12  1  0
 12 13  2  0
 13 14  1  0
 14 15  2  0
 15 16  1  0
 16 17  2  0
  9 18  1  0
 18 19  1  0
 19 20  2  0
  2 21  1  0
 21 22  1  0
 22 23  1  0
 23 24  1  0
 24 25  1  0
 25 26  1  0
 26 27  2  0
 27 28  1  0
 28 29  2  0
 29 30  1  0
 30 31  2  0
 24 32  1  0
 32 33  1  0
 20  3  1  0
 33 21  1  0
 19  5  1  0
 31 26  1  0
 17 12  1  0
  4 34  1  0
  8 35  1  0
 10 36  1  0
 11 37  1  0
 13 38  1  0
 14 39  1  0
 15 40  1  0
 16 41  1  0
 17 42  1  0
 18 43  1  0
 22 44  1  0
 22 45  1  0
 23 46  1  0
 23 47  1  0
 24 48  1  0
 25 49  1  0
 25 50  1  0
 27 51  1  0
 28 52  1  0
 29 53  1  0
 30 54  1  0
 31 55  1  0
 32 56  1  0
 32 57  1  0
 33 58  1  0
 33 59  1  0
M  END
>  <smiles>  (40) 
O=C(c1cn2c(=O)cc(C=Cc3ccccc3)[nH]c2n1)N1CCC(Cc2ccccc2)CC1

>  <score_type>  (40) 
oracle

>  <origin>  (40) 
adg

>  <m_score__min__energy>  (40) 
-10.029999999999999

>  <m_primary>  (40) 
energy

$$$$
40:0
     RDKit          3D

 50 52  0  0  0  0  0  0  0  0999 V2000
   56.6530   30.4170   42.5580 C   0  0  0  0  0  0  0  0  0  0  0  0
   57.0440   29.2610   43.2910 O   0  0  0  0  0  0  0  0  0  0  0  0
   56.5450   28.9680   44.5640 C   0  0  0  0  0  0  0  0  0  0  0  0
   55.3760   29.3250   44.8800 O   0  0  0  0  0  0  0  0  0  0  0  0
   57.4000   28.2670   45.5510 C   0  0  0  0  0  0  0  0  0  0  0  0
   56.9500   27.0640   46.1240 C   0  0  0  0  0  0  0  0  0  0  0  0
   57.6860   26.4350   47.1410 C   0  0  0  0  0  0  0  0  0  0  0  0
   57.2620   25.1970   47.7240 N   0  0  0  0  0  0  0  0  0  0  0  0
   57.2630   23.6770   46.8880 S   0  0  0  0  0  0  0  0  0  0  0  0
   58.4530   23.6280   45.9710 O   0  0  0  0  0  0  0  0  0  0  0  0
   57.3910   22.5510   47.8750 O   0  0  0  0  0  0  0  0  0  0  0  0
   55.7890   23.5740   45.9090 C   0  0  0  0  0  0  0  0  0  0  0  0
   55.7210   23.9020   44.5650 C   0  0  0  0  0  0  0  0  0  0  0  0
   56.8700   24.3240   43.7030 C   0  0  0  0  0  0  0  0  0  0  0  0
   54.4580   23.8160   44.1050 N   0  0  0  0  0  0  0  0  0  0  0  0
   53.7030   23.4460   45.1550 C   0  0  0  0  0  0  0  0  0  0  0  0
   52.2420   23.3090   45.0490 C   0  0  0  0  0  0  0  0  0  0  0  0
   51.4900   24.3200   45.0500 O   0  0  0  0  0  0  0  0  0  0  0  0
   51.6820   22.0450   44.9160 O   0  0  0  0  0  0  0  0  0  0  0  0
   54.4870   23.2760   46.2940 C   0  0  0  0  0  0  0  0  0  0  0  0
   53.9780   22.8940   47.6520 C   0  0  0  0  0  0  0  0  0  0  0  0
   58.8590   27.0320   47.6110 C   0  0  0  0  0  0  0  0  0  0  0  0
   59.3380   28.2030   47.0220 C   0  0  0  0  0  0  0  0  0  0  0  0
   58.6470   28.7990   45.9630 C   0  0  0  0  0  0  0  0  0  0  0  0
   59.2330   29.8970   45.3220 O   0  0  0  0  0  0  0  0  0  0  0  0
   59.6530   31.0660   45.9870 C   0  0  0  0  0  0  0  0  0  0  0  0
   60.7750   31.0430   46.8370 C   0  0  0  0  0  0  0  0  0  0  0  0
   61.2080   32.2050   47.4730 C   0  0  0  0  0  0  0  0  0  0  0  0
   62.7380   32.1510   48.6220 Br  0  0  0  0  0  0  0  0  0  0  0  0
   60.5180   33.4030   47.2850 C   0  0  0  0  0  0  0  0  0  0  0  0
   59.3920   33.4390   46.4610 C   0  0  0  0  0  0  0  0  0  0  0  0
   58.9420   32.2780   45.8040 C   0  0  0  0  0  0  0  0  0  0  0  0
   57.7530   32.3650   44.9180 C   0  0  0  0  0  0  0  0  0  0  0  0
   56.6690   31.8010   45.2250 O   0  0  0  0  0  0  0  0  0  0  0  0
   57.8200   33.0730   43.7240 O   0  0  0  0  0  0  0  0  0  0  0  0
   56.3812   31.2206   43.2582 H   0  0  0  0  0  0  0  0  0  0  0  0
   57.4886   30.7496   41.9247 H   0  0  0  0  0  0  0  0  0  0  0  0
   55.7870   30.1741   41.9247 H   0  0  0  0  0  0  0  0  0  0  0  0
   56.0115   26.6111   45.7717 H   0  0  0  0  0  0  0  0  0  0  0  0
   57.7119   24.6332   44.3398 H   0  0  0  0  0  0  0  0  0  0  0  0
   57.1808   23.4813   43.0679 H   0  0  0  0  0  0  0  0  0  0  0  0
   56.5615   25.1675   43.0679 H   0  0  0  0  0  0  0  0  0  0  0  0
   54.6046   23.3643   48.4241 H   0  0  0  0  0  0  0  0  0  0  0  0
   52.9389   23.2371   47.7640 H   0  0  0  0  0  0  0  0  0  0  0  0
   54.0171   21.8004   47.7640 H   0  0  0  0  0  0  0  0  0  0  0  0
   59.4072   26.5768   48.4490 H   0  0  0  0  0  0  0  0  0  0  0  0
   60.2666   28.6606   47.3940 H   0  0  0  0  0  0  0  0  0  0  0  0
   61.3151   30.0988   47.0007 H   0  0  0  0  0  0  0  0  0  0  0  0
   60.8616   34.3197   47.7865 H   0  0  0  0  0  0  0  0  0  0  0  0
   58.8496   34.3860   46.3233 H   0  0  0  0  0  0  0  0  0  0  0  0
  1  2  1  0
  2  3  1  0
  3  4  2  0
  3  5  1  0
  5  6  2  0
  6  7  1  0
  7  8  1  0
  8  9  1  0
  9 10  2  0
  9 11  2  0
  9 12  1  0
 12 13  2  0
 13 14  1  0
 13 15  1  0
 15 16  1  0
 16 17  1  0
 17 18  2  0
 17 19  1  0
 16 20  2  0
 20 21  1  0
  7 22  2  0
 22 23  1  0
 23 24  2  0
 24 25  1  0
 25 26  1  0
 26 27  2  0
 27 28  1  0
 28 29  1  0
 28 30  2  0
 30 31  1  0
 31 32  2  0
 32 33  1  0
 33 34  2  0
 33 35  1  0
 24  5  1  0
 32 26  1  0
 20 12  1  0
  1 36  1  0
  1 37  1  0
  1 38  1  0
  6 39  1  0
 14 40  1  0
 14 41  1  0
 14 42  1  0
 21 43  1  0
 21 44  1  0
 21 45  1  0
 22 46  1  0
 23 47  1  0
 27 48  1  0
 30 49  1  0
 31 50  1  0
M  CHG  4   8  -1  15  -1  19  -1  35  -1
M  END
>  <UniqueID>  (41) 
38

>  <SMILES>  (41) 
COC(=O)c1cc([N-]S(=O)(=O)c2c(C)[n-]c(C(=O)[O-])c2C)ccc1Oc1cc(Br)ccc1C(=O)[O-]

>  <Energy>  (41) 
90.87691446582352

>  <Genealogy>  (41) 
COC(=O)c1cc([N-]S(=O)(=O)c2c(C)[n-]c(C(=O)[O-])c2C)ccc1Oc1cc(Br)ccc1C(=O)[O-] (protonated)
COC(=O)c1cc([N-]S(=O)(=O)c2c(C)[n-]c(C(=O)[O-])c2C)ccc1Oc1cc(Br)ccc1C(=O)[O-] (3D coordinates assigned)
COC(=O)c1cc([N-]S(=O)(=O)c2c(C)[n-]c(C(=O)[O-])c2C)ccc1Oc1cc(Br)ccc1C(=O)[O-] (optimized conformer: 90.87691446582352 kcal/mol)

>  <smiles>  (41) 
COC(=O)c1cc(NS(=O)(=O)c2c(C)[nH]c(C(=O)O)c2C)ccc1Oc1cc(Br)ccc1C(=O)O

>  <score_type>  (41) 
oracle

>  <origin>  (41) 
adg

>  <m_score__min__energy>  (41) 
-15.51

>  <m_primary>  (41) 
energy

$$$$
41:0
     RDKit          3D

 47 49  0  0  0  0  0  0  0  0999 V2000
   59.9810   35.9640   46.1550 O   0  0  0  0  0  0  0  0  0  0  0  0
   59.9240   34.7570   46.3470 C   0  0  0  0  0  0  0  0  0  0  0  0
   61.1560   33.9310   46.0330 C   0  0  0  0  0  0  0  0  0  0  0  0
   62.0200   33.7570   47.2550 C   0  0  0  0  0  0  0  0  0  0  0  0
   61.5590   34.1650   48.5190 C   0  0  0  0  0  0  0  0  0  0  0  0
   62.3740   34.0180   49.6470 C   0  0  0  0  0  0  0  0  0  0  0  0
   63.6510   33.4680   49.5220 C   0  0  0  0  0  0  0  0  0  0  0  0
   64.1180   33.0620   48.2690 C   0  0  0  0  0  0  0  0  0  0  0  0
   63.3070   33.2050   47.1390 C   0  0  0  0  0  0  0  0  0  0  0  0
   58.6630   34.1690   46.7800 N   0  0  0  0  0  0  0  0  0  0  0  0
   58.8180   32.8400   47.4330 C   0  0  0  0  0  0  0  0  0  0  0  0
   58.1340   31.6960   46.6670 C   0  0  0  0  0  0  0  0  0  0  0  0
   58.4110   31.8330   45.2300 N   0  0  0  0  0  0  0  0  0  0  0  0
   58.1260   30.6370   44.3870 C   0  0  0  0  0  0  0  0  0  0  0  0
   56.7440   30.6550   43.6800 C   0  0  0  0  0  0  0  0  0  0  0  0
   55.6390   29.9340   44.4650 C   0  0  0  0  0  0  0  0  0  0  0  0
   56.0590   28.5900   44.8730 N   0  0  0  0  0  0  0  0  0  0  0  0
   57.1970   28.6600   45.7940 C   0  0  0  0  0  0  0  0  0  0  0  0
   58.4240   29.3170   45.1390 C   0  0  0  0  0  0  0  0  0  0  0  0
   57.8320   33.0710   44.6610 C   0  0  0  0  0  0  0  0  0  0  0  0
   57.6530   34.1990   45.6990 C   0  0  0  0  0  0  0  0  0  0  0  0
   60.8418   32.9407   45.6716 H   0  0  0  0  0  0  0  0  0  0  0  0
   61.7413   34.4562   45.2639 H   0  0  0  0  0  0  0  0  0  0  0  0
   60.5544   34.6012   48.6216 H   0  0  0  0  0  0  0  0  0  0  0  0
   62.0077   34.3365   50.6341 H   0  0  0  0  0  0  0  0  0  0  0  0
   64.2899   33.3541   50.4102 H   0  0  0  0  0  0  0  0  0  0  0  0
   65.1247   32.6295   48.1716 H   0  0  0  0  0  0  0  0  0  0  0  0
   63.6782   32.8839   46.1546 H   0  0  0  0  0  0  0  0  0  0  0  0
   58.2870   34.8090   47.5220 H   0  0  0  0  0  0  0  0  0  0  0  0
   59.8916   32.6136   47.5109 H   0  0  0  0  0  0  0  0  0  0  0  0
   58.3324   32.9052   48.4179 H   0  0  0  0  0  0  0  0  0  0  0  0
   58.5229   30.7313   47.0249 H   0  0  0  0  0  0  0  0  0  0  0  0
   57.0480   31.7396   46.8365 H   0  0  0  0  0  0  0  0  0  0  0  0
   58.8376   30.6914   43.5500 H   0  0  0  0  0  0  0  0  0  0  0  0
   56.4410   31.7027   43.5368 H   0  0  0  0  0  0  0  0  0  0  0  0
   56.8636   30.1183   42.7273 H   0  0  0  0  0  0  0  0  0  0  0  0
   55.3976   30.5211   45.3633 H   0  0  0  0  0  0  0  0  0  0  0  0
   54.7590   29.8372   43.8121 H   0  0  0  0  0  0  0  0  0  0  0  0
   56.3370   28.0420   44.0240 H   0  0  0  0  0  0  0  0  0  0  0  0
   56.9056   29.2499   46.6755 H   0  0  0  0  0  0  0  0  0  0  0  0
   57.4703   27.6329   46.0776 H   0  0  0  0  0  0  0  0  0  0  0  0
   59.1604   29.5306   45.9278 H   0  0  0  0  0  0  0  0  0  0  0  0
   58.7921   28.6058   44.3849 H   0  0  0  0  0  0  0  0  0  0  0  0
   58.4984   33.4332   43.8643 H   0  0  0  0  0  0  0  0  0  0  0  0
   56.8308   32.8166   44.2829 H   0  0  0  0  0  0  0  0  0  0  0  0
   57.7270   35.1658   45.1795 H   0  0  0  0  0  0  0  0  0  0  0  0
   56.6694   34.0539   46.1697 H   0  0  0  0  0  0  0  0  0  0  0  0
  1  2  2  0
  2  3  1  0
  3  4  1  0
  4  5  2  0
  5  6  1  0
  6  7  2  0
  7  8  1  0
  8  9  2  0
  2 10  1  0
 10 11  1  0
 11 12  1  0
 12 13  1  0
 13 14  1  0
 14 15  1  0
 15 16  1  0
 16 17  1  0
 17 18  1  0
 18 19  1  0
 13 20  1  0
 20 21  1  0
  9  4  1  0
 21 10  1  0
 19 14  1  0
  3 22  1  0
  3 23  1  0
  5 24  1  0
  6 25  1  0
  7 26  1  0
  8 27  1  0
  9 28  1  0
 10 29  1  0
 11 30  1  0
 11 31  1  0
 12 32  1  0
 12 33  1  0
 14 34  1  0
 15 35  1  0
 15 36  1  0
 16 37  1  0
 16 38  1  0
 17 39  1  0
 18 40  1  0
 18 41  1  0
 19 42  1  0
 19 43  1  0
 20 44  1  0
 20 45  1  0
 21 46  1  0
 21 47  1  0
M  CHG  1  10   1
M  END
>  <UniqueID>  (42) 
39

>  <SMILES>  (42) 
O=C(Cc1ccccc1)[NH+]1CCN(C2CCNCC2)CC1

>  <Energy>  (42) 
68.48101495437992

>  <Genealogy>  (42) 
O=C(Cc1ccccc1)[NH+]1CCN(C2CCNCC2)CC1 (protonated)
O=C(Cc1ccccc1)[NH+]1CCN(C2CCNCC2)CC1 (3D coordinates assigned)
O=C(Cc1ccccc1)[NH+]1CCN(C2CCNCC2)CC1 (nonaromatic ring conformer: 68.48101495437992 kcal/mol)

>  <smiles>  (42) 
O=C(Cc1ccccc1)N1CCN(C2CCNCC2)CC1

>  <score_type>  (42) 
oracle

>  <origin>  (42) 
adg

>  <m_score__min__energy>  (42) 
-6.6399999999999997

>  <m_primary>  (42) 
energy

$$$$
42:0
     RDKit          3D

 52 55  0  0  0  0  0  0  0  0999 V2000
   54.2610   22.6080   47.5590 C   0  0  0  0  0  0  0  0  0  0  0  0
   54.9050   23.6950   48.2870 N   0  0  0  0  0  0  0  0  0  0  0  0
   56.5730   23.8060   47.8170 S   0  0  0  0  0  0  0  0  0  0  0  0
   57.2070   24.9820   48.4990 O   0  0  0  0  0  0  0  0  0  0  0  0
   57.2920   22.5740   48.2950 O   0  0  0  0  0  0  0  0  0  0  0  0
   56.7330   23.9400   46.0480 C   0  0  0  0  0  0  0  0  0  0  0  0
   56.6780   22.7410   45.3150 C   0  0  0  0  0  0  0  0  0  0  0  0
   56.7980   22.7380   43.9240 C   0  0  0  0  0  0  0  0  0  0  0  0
   56.7420   21.4960   43.1970 C   0  0  0  0  0  0  0  0  0  0  0  0
   56.6960   20.4990   42.6120 N   0  0  0  0  0  0  0  0  0  0  0  0
   56.9750   23.9380   43.2410 C   0  0  0  0  0  0  0  0  0  0  0  0
   57.0210   25.1410   43.9420 C   0  0  0  0  0  0  0  0  0  0  0  0
   56.8840   25.1760   45.3460 C   0  0  0  0  0  0  0  0  0  0  0  0
   56.9360   26.5490   46.0090 C   0  0  2  0  0  0  0  0  0  0  0  0
   55.9330   27.4120   45.4000 N   0  0  0  0  0  0  0  0  0  0  0  0
   56.1440   28.8030   45.2200 C   0  0  0  0  0  0  0  0  0  0  0  0
   55.1820   29.5360   44.8680 O   0  0  0  0  0  0  0  0  0  0  0  0
   57.4640   29.3390   45.3670 N   0  0  0  0  0  0  0  0  0  0  0  0
   57.7070   30.6930   44.9470 C   0  0  0  0  0  0  0  0  0  0  0  0
   57.5110   31.0610   43.6090 C   0  0  0  0  0  0  0  0  0  0  0  0
   57.7290   32.3790   43.2060 C   0  0  0  0  0  0  0  0  0  0  0  0
   58.1480   33.3370   44.1340 C   0  0  0  0  0  0  0  0  0  0  0  0
   58.3680   32.9790   45.4760 C   0  0  0  0  0  0  0  0  0  0  0  0
   58.7710   34.0210   46.4900 C   0  0  0  0  0  0  0  0  0  0  0  0
   58.8930   35.2440   45.8590 F   0  0  0  0  0  0  0  0  0  0  0  0
   59.9810   33.6930   47.0770 F   0  0  0  0  0  0  0  0  0  0  0  0
   57.8180   34.1210   47.4890 F   0  0  0  0  0  0  0  0  0  0  0  0
   58.1220   31.6550   45.8790 C   0  0  0  0  0  0  0  0  0  0  0  0
   58.5470   28.4830   45.8110 C   0  0  0  0  0  0  0  0  0  0  0  0
   58.3340   27.1610   46.0650 C   0  0  0  0  0  0  0  0  0  0  0  0
   59.4440   26.3280   46.6200 C   0  0  0  0  0  0  0  0  0  0  0  0
   59.2350   25.1350   46.9710 O   0  0  0  0  0  0  0  0  0  0  0  0
   60.8310   26.8790   46.7590 C   0  0  0  0  0  0  0  0  0  0  0  0
   60.7720   28.3760   47.0240 C   0  0  0  0  0  0  0  0  0  0  0  0
   59.9470   29.0710   45.9440 C   0  0  0  0  0  0  0  0  0  0  0  0
   53.8352   21.8892   48.2745 H   0  0  0  0  0  0  0  0  0  0  0  0
   53.4583   23.0152   46.9266 H   0  0  0  0  0  0  0  0  0  0  0  0
   55.0037   22.0996   46.9266 H   0  0  0  0  0  0  0  0  0  0  0  0
   56.5379   21.7885   45.8471 H   0  0  0  0  0  0  0  0  0  0  0  0
   57.0787   23.9363   42.1459 H   0  0  0  0  0  0  0  0  0  0  0  0
   57.1669   26.0815   43.3905 H   0  0  0  0  0  0  0  0  0  0  0  0
   56.6847   26.4274   47.0730 H   0  0  0  0  0  0  0  0  0  0  0  0
   57.1847   30.3094   42.8751 H   0  0  0  0  0  0  0  0  0  0  0  0
   57.5708   32.6649   42.1557 H   0  0  0  0  0  0  0  0  0  0  0  0
   58.3065   34.3770   43.8125 H   0  0  0  0  0  0  0  0  0  0  0  0
   58.2560   31.3714   46.9333 H   0  0  0  0  0  0  0  0  0  0  0  0
   61.3387   26.3803   47.5978 H   0  0  0  0  0  0  0  0  0  0  0  0
   61.3862   26.6989   45.8266 H   0  0  0  0  0  0  0  0  0  0  0  0
   60.3083   28.5531   48.0056 H   0  0  0  0  0  0  0  0  0  0  0  0
   61.7939   28.7829   47.0122 H   0  0  0  0  0  0  0  0  0  0  0  0
   59.8591   30.1375   46.1987 H   0  0  0  0  0  0  0  0  0  0  0  0
   60.4633   28.9261   44.9836 H   0  0  0  0  0  0  0  0  0  0  0  0
  1  2  1  0
  2  3  1  0
  3  4  2  0
  3  5  2  0
  3  6  1  0
  6  7  2  0
  7  8  1  0
  8  9  1  0
  9 10  3  0
  8 11  2  0
 11 12  1  0
 12 13  2  0
 13 14  1  0
 14 15  1  0
 15 16  1  0
 16 17  2  0
 16 18  1  0
 18 19  1  0
 19 20  2  0
 20 21  1  0
 21 22  2  0
 22 23  1  0
 23 24  1  0
 24 25  1  0
 24 26  1  0
 24 27  1  0
 23 28  2  0
 18 29  1  0
 29 30  2  0
 30 31  1  0
 31 32  2  0
 31 33  1  0
 33 34  1  0
 34 35  1  0
 13  6  1  0
 30 14  1  0
 28 19  1  0
 35 29  1  0
  1 36  1  0
  1 37  1  0
  1 38  1  0
  7 39  1  0
 11 40  1  0
 12 41  1  0
 14 42  1  1
 20 43  1  0
 21 44  1  0
 22 45  1  0
 28 46  1  0
 33 47  1  0
 33 48  1  0
 34 49  1  0
 34 50  1  0
 35 51  1  0
 35 52  1  0
M  CHG  2   2  -1  15  -1
M  END
>  <UniqueID>  (43) 
40

>  <SMILES>  (43) 
C[N-]S(=O)(=O)c1cc(C#N)ccc1[C@@H]1[N-]C(=O)N(c2cccc(C(F)(F)F)c2)C2=C1C(=O)CCC2

>  <Energy>  (43) 
67.90385835986342

>  <Genealogy>  (43) 
C[N-]S(=O)(=O)c1cc(C#N)ccc1C1[N-]C(=O)N(c2cccc(C(F)(F)F)c2)C2=C1C(=O)CCC2 (protonated)
C[N-]S(=O)(=O)c1cc(C#N)ccc1[C@@H]1[N-]C(=O)N(c2cccc(C(F)(F)F)c2)C2=C1C(=O)CCC2 (chirality)
C[N-]S(=O)(=O)c1cc(C#N)ccc1[C@@H]1[N-]C(=O)N(c2cccc(C(F)(F)F)c2)C2=C1C(=O)CCC2 (3D coordinates assigned)
C[N-]S(=O)(=O)c1cc(C#N)ccc1[C@@H]1[N-]C(=O)N(c2cccc(C(F)(F)F)c2)C2=C1C(=O)CCC2 (nonaromatic ring conformer: 67.90385835986342 kcal/mol)

>  <smiles>  (43) 
CNS(=O)(=O)c1cc(C#N)ccc1C1NC(=O)N(c2cccc(C(F)(F)F)c2)C2=C1C(=O)CCC2

>  <score_type>  (43) 
oracle

>  <origin>  (43) 
adg

>  <m_score__min__energy>  (43) 
-12.220000000000001

>  <m_primary>  (43) 
energy

$$$$
43:0
     RDKit          3D

 48 50  0  0  0  0  0  0  0  0999 V2000
   57.7930   27.6420   43.3370 C   0  0  0  0  0  0  0  0  0  0  0  0
   57.4950   29.0700   43.4990 N   0  0  0  0  0  0  0  0  0  0  0  0
   56.4490   29.4800   42.5540 C   0  0  0  0  0  0  0  0  0  0  0  0
   56.9500   29.3660   45.1300 S   0  0  0  0  0  0  0  0  0  0  0  0
   57.1700   30.8080   45.4950 O   0  0  0  0  0  0  0  0  0  0  0  0
   55.4840   29.0530   45.2470 O   0  0  0  0  0  0  0  0  0  0  0  0
   57.8250   28.3600   46.2400 N   0  0  0  0  0  0  0  0  0  0  0  0
   58.7360   28.8390   47.2370 C   0  0  0  0  0  0  0  0  0  0  0  0
   58.5410   30.0650   47.8970 C   0  0  0  0  0  0  0  0  0  0  0  0
   59.4350   30.4800   48.8880 C   0  0  0  0  0  0  0  0  0  0  0  0
   60.5200   29.6670   49.2570 C   0  0  0  0  0  0  0  0  0  0  0  0
   61.4140   30.0530   50.3740 C   0  0  0  0  0  0  0  0  0  0  0  0
   61.5020   29.3040   51.3830 O   0  0  0  0  0  0  0  0  0  0  0  0
   62.2080   31.2490   50.3340 N   0  0  0  0  0  0  0  0  0  0  0  0
   62.3640   32.1100   49.1950 C   0  0  0  0  0  0  0  0  0  0  0  0
   63.4920   31.9650   48.3800 C   0  0  0  0  0  0  0  0  0  0  0  0
   63.6260   32.7340   47.2200 C   0  0  0  0  0  0  0  0  0  0  0  0
   62.6310   33.6510   46.8680 C   0  0  0  0  0  0  0  0  0  0  0  0
   61.5070   33.8200   47.6910 C   0  0  0  0  0  0  0  0  0  0  0  0
   60.4930   34.7280   47.3640 O   0  0  0  0  0  0  0  0  0  0  0  0
   59.3320   34.3990   46.6500 C   0  0  0  0  0  0  0  0  0  0  0  0
   58.2600   33.8170   47.3380 C   0  0  0  0  0  0  0  0  0  0  0  0
   57.0950   33.4510   46.6560 C   0  0  0  0  0  0  0  0  0  0  0  0
   56.9990   33.6550   45.2760 C   0  0  0  0  0  0  0  0  0  0  0  0
   58.0680   34.2210   44.5780 C   0  0  0  0  0  0  0  0  0  0  0  0
   59.2330   34.5900   45.2570 C   0  0  0  0  0  0  0  0  0  0  0  0
   61.4000   33.0820   48.8740 C   0  0  0  0  0  0  0  0  0  0  0  0
   60.7360   28.4640   48.5650 C   0  0  0  0  0  0  0  0  0  0  0  0
   59.8480   28.0550   47.5650 C   0  0  0  0  0  0  0  0  0  0  0  0
   57.8908   27.1732   44.3273 H   0  0  0  0  0  0  0  0  0  0  0  0
   56.9765   27.1578   42.7812 H   0  0  0  0  0  0  0  0  0  0  0  0
   58.7350   27.5248   42.7812 H   0  0  0  0  0  0  0  0  0  0  0  0
   55.5662   29.8260   43.1116 H   0  0  0  0  0  0  0  0  0  0  0  0
   56.8263   30.2968   41.9211 H   0  0  0  0  0  0  0  0  0  0  0  0
   56.1708   28.6244   41.9211 H   0  0  0  0  0  0  0  0  0  0  0  0
   57.6822   30.6995   47.6326 H   0  0  0  0  0  0  0  0  0  0  0  0
   59.2880   31.4512   49.3832 H   0  0  0  0  0  0  0  0  0  0  0  0
   64.2762   31.2435   48.6528 H   0  0  0  0  0  0  0  0  0  0  0  0
   64.5155   32.6174   46.5834 H   0  0  0  0  0  0  0  0  0  0  0  0
   62.7294   34.2408   45.9447 H   0  0  0  0  0  0  0  0  0  0  0  0
   58.3347   33.6465   48.4221 H   0  0  0  0  0  0  0  0  0  0  0  0
   56.2541   33.0026   47.2054 H   0  0  0  0  0  0  0  0  0  0  0  0
   56.0816   33.3697   44.7403 H   0  0  0  0  0  0  0  0  0  0  0  0
   57.9932   34.3768   43.4917 H   0  0  0  0  0  0  0  0  0  0  0  0
   60.0747   35.0306   44.7026 H   0  0  0  0  0  0  0  0  0  0  0  0
   60.5571   33.2629   49.5572 H   0  0  0  0  0  0  0  0  0  0  0  0
   61.6081   27.8403   48.8109 H   0  0  0  0  0  0  0  0  0  0  0  0
   60.0250   27.1093   47.0318 H   0  0  0  0  0  0  0  0  0  0  0  0
  1  2  1  0
  2  3  1  0
  2  4  1  0
  4  5  2  0
  4  6  2  0
  4  7  1  0
  7  8  1  0
  8  9  2  0
  9 10  1  0
 10 11  2  0
 11 12  1  0
 12 13  2  0
 12 14  1  0
 14 15  1  0
 15 16  2  0
 16 17  1  0
 17 18  2  0
 18 19  1  0
 19 20  1  0
 20 21  1  0
 21 22  2  0
 22 23  1  0
 23 24  2  0
 24 25  1  0
 25 26  2  0
 19 27  2  0
 11 28  1  0
 28 29  2  0
 29  8  1  0
 27 15  1  0
 26 21  1  0
  1 30  1  0
  1 31  1  0
  1 32  1  0
  3 33  1  0
  3 34  1  0
  3 35  1  0
  9 36  1  0
 10 37  1  0
 16 38  1  0
 17 39  1  0
 18 40  1  0
 22 41  1  0
 23 42  1  0
 24 43  1  0
 25 44  1  0
 26 45  1  0
 27 46  1  0
 28 47  1  0
 29 48  1  0
M  CHG  2   7  -1  14  -1
M  END
>  <UniqueID>  (44) 
41

>  <SMILES>  (44) 
CN(C)S(=O)(=O)[N-]c1ccc(C(=O)[N-]c2cccc(Oc3ccccc3)c2)cc1

>  <Energy>  (44) 
62.05159154685968

>  <Genealogy>  (44) 
CN(C)S(=O)(=O)[N-]c1ccc(C(=O)[N-]c2cccc(Oc3ccccc3)c2)cc1 (protonated)
CN(C)S(=O)(=O)[N-]c1ccc(C(=O)[N-]c2cccc(Oc3ccccc3)c2)cc1 (3D coordinates assigned)
CN(C)S(=O)(=O)[N-]c1ccc(C(=O)[N-]c2cccc(Oc3ccccc3)c2)cc1 (optimized conformer: 62.05159154685968 kcal/mol)

>  <smiles>  (44) 
CN(C)S(=O)(=O)Nc1ccc(C(=O)Nc2cccc(Oc3ccccc3)c2)cc1

>  <score_type>  (44) 
oracle

>  <origin>  (44) 
adg

>  <m_score__min__energy>  (44) 
-11.789999999999999

>  <m_primary>  (44) 
energy

$$$$
44:0
     RDKit          3D

 38 40  0  0  0  0  0  0  0  0999 V2000
   58.6360   31.4310   49.0940 O   0  0  0  0  0  0  0  0  0  0  0  0
   60.0210   30.9200   49.3750 S   0  0  0  0  0  0  0  0  0  0  0  0
   60.2930   30.9440   50.8530 O   0  0  0  0  0  0  0  0  0  0  0  0
   60.1800   29.2970   48.7850 N   0  0  0  0  0  0  0  0  0  0  0  0
   59.6810   28.8220   47.5270 C   0  0  0  0  0  0  0  0  0  0  0  0
   59.4190   29.6900   46.4530 C   0  0  0  0  0  0  0  0  0  0  0  0
   58.9490   29.1950   45.2200 C   0  0  0  0  0  0  0  0  0  0  0  0
   58.6920   30.0840   44.1150 N   0  0  0  0  0  0  0  0  0  0  0  0
   57.5300   31.3750   44.1650 S   0  0  0  0  0  0  0  0  0  0  0  0
   57.2680   31.8590   42.7670 O   0  0  0  0  0  0  0  0  0  0  0  0
   56.2480   30.8570   44.7540 O   0  0  0  0  0  0  0  0  0  0  0  0
   58.1500   32.7200   45.1190 C   0  0  0  0  0  0  0  0  0  0  0  0
   57.9320   32.7680   46.5030 C   0  0  0  0  0  0  0  0  0  0  0  0
   58.4420   33.8300   47.2570 C   0  0  0  0  0  0  0  0  0  0  0  0
   59.1680   34.8470   46.6330 C   0  0  0  0  0  0  0  0  0  0  0  0
   59.3820   34.8070   45.2520 C   0  0  0  0  0  0  0  0  0  0  0  0
   58.8720   33.7480   44.4950 C   0  0  0  0  0  0  0  0  0  0  0  0
   58.7250   27.8080   45.0850 C   0  0  0  0  0  0  0  0  0  0  0  0
   58.1560   27.1010   43.5770 Cl  0  0  0  0  0  0  0  0  0  0  0  0
   58.9760   26.9490   46.1590 C   0  0  0  0  0  0  0  0  0  0  0  0
   59.4520   27.4500   47.3710 C   0  0  0  0  0  0  0  0  0  0  0  0
   59.6960   26.5970   48.3980 F   0  0  0  0  0  0  0  0  0  0  0  0
   61.1850   31.9450   48.5590 C   0  0  0  0  0  0  0  0  0  0  0  0
   61.4210   33.2830   48.8330 C   0  0  0  0  0  0  0  0  0  0  0  0
   62.4240   33.8340   48.0270 C   0  0  0  0  0  0  0  0  0  0  0  0
   62.9740   32.9300   47.1260 C   0  0  0  0  0  0  0  0  0  0  0  0
   62.2140   31.4430   47.3320 S   0  0  0  0  0  0  0  0  0  0  0  0
   59.5831   30.7707   46.5766 H   0  0  0  0  0  0  0  0  0  0  0  0
   59.2620   30.0140   43.2450 H   0  0  0  0  0  0  0  0  0  0  0  0
   57.3590   31.9693   46.9967 H   0  0  0  0  0  0  0  0  0  0  0  0
   58.2710   33.8643   48.3431 H   0  0  0  0  0  0  0  0  0  0  0  0
   59.5714   35.6795   47.2282 H   0  0  0  0  0  0  0  0  0  0  0  0
   59.9520   35.6093   44.7607 H   0  0  0  0  0  0  0  0  0  0  0  0
   59.0373   33.7209   43.4078 H   0  0  0  0  0  0  0  0  0  0  0  0
   58.7968   25.8694   46.0476 H   0  0  0  0  0  0  0  0  0  0  0  0
   60.8778   33.8515   49.6022 H   0  0  0  0  0  0  0  0  0  0  0  0
   62.7464   34.8832   48.0998 H   0  0  0  0  0  0  0  0  0  0  0  0
   63.7714   33.1495   46.4008 H   0  0  0  0  0  0  0  0  0  0  0  0
  1  2  2  0
  2  3  2  0
  2  4  1  0
  4  5  1  0
  5  6  2  0
  6  7  1  0
  7  8  1  0
  8  9  1  0
  9 10  2  0
  9 11  2  0
  9 12  1  0
 12 13  2  0
 13 14  1  0
 14 15  2  0
 15 16  1  0
 16 17  2  0
  7 18  2  0
 18 19  1  0
 18 20  1  0
 20 21  2  0
 21 22  1  0
  2 23  1  0
 23 24  2  0
 24 25  1  0
 25 26  2  0
 26 27  1  0
 21  5  1  0
 27 23  1  0
 17 12  1  0
  6 28  1  0
  8 29  1  0
 13 30  1  0
 14 31  1  0
 15 32  1  0
 16 33  1  0
 17 34  1  0
 20 35  1  0
 24 36  1  0
 25 37  1  0
 26 38  1  0
M  CHG  1   4  -1
M  END
>  <UniqueID>  (45) 
42

>  <SMILES>  (45) 
O=S(=O)([N-]c1cc(NS(=O)(=O)c2ccccc2)c(Cl)cc1F)c1cccs1

>  <Energy>  (45) 
73.65870205876264

>  <Genealogy>  (45) 
O=S(=O)([N-]c1cc(NS(=O)(=O)c2ccccc2)c(Cl)cc1F)c1cccs1 (protonated)
O=S(=O)([N-]c1cc(NS(=O)(=O)c2ccccc2)c(Cl)cc1F)c1cccs1 (3D coordinates assigned)
O=S(=O)([N-]c1cc(NS(=O)(=O)c2ccccc2)c(Cl)cc1F)c1cccs1 (optimized conformer: 73.65870205876264 kcal/mol)

>  <smiles>  (45) 
O=S(=O)(Nc1cc(NS(=O)(=O)c2cccs2)c(F)cc1Cl)c1ccccc1

>  <score_type>  (45) 
oracle

>  <origin>  (45) 
adg

>  <m_score__min__energy>  (45) 
-11.949999999999999

>  <m_primary>  (45) 
energy

$$$$
45:0
     RDKit          3D

 48 52  0  0  0  0  0  0  0  0999 V2000
   57.1170   25.3040   45.6490 C   0  0  0  0  0  0  0  0  0  0  0  0
   56.4200   26.6140   45.8580 C   0  0  0  0  0  0  0  0  0  0  0  0
   55.1830   26.6040   46.1000 O   0  0  0  0  0  0  0  0  0  0  0  0
   57.1400   27.9120   45.7640 C   0  0  0  0  0  0  0  0  0  0  0  0
   56.4810   29.0510   45.2540 C   0  0  0  0  0  0  0  0  0  0  0  0
   55.1510   28.9860   44.8510 O   0  0  0  0  0  0  0  0  0  0  0  0
   57.1510   30.2730   45.1640 C   0  0  0  0  0  0  0  0  0  0  0  0
   58.4790   30.3820   45.5770 C   0  0  0  0  0  0  0  0  0  0  0  0
   59.1620   29.2600   46.0670 C   0  0  0  0  0  0  0  0  0  0  0  0
   60.5790   29.3980   46.5470 C   0  0  0  0  0  0  0  0  0  0  0  0
   60.6110   30.3080   47.6850 N   0  0  0  0  0  0  0  0  0  0  0  0
   60.6570   31.6000   47.5730 C   0  0  0  0  0  0  0  0  0  0  0  0
   60.6550   32.2670   46.3880 N   0  0  0  0  0  0  0  0  0  0  0  0
   60.5180   33.5520   46.7980 C   0  0  0  0  0  0  0  0  0  0  0  0
   60.3620   34.5430   45.9710 N   0  0  0  0  0  0  0  0  0  0  0  0
   59.0930   34.8980   45.3460 C   0  0  0  0  0  0  0  0  0  0  0  0
   57.9160   34.1590   45.9530 C   0  0  0  0  0  0  0  0  0  0  0  0
   58.4420   33.7590   44.5820 C   0  0  0  0  0  0  0  0  0  0  0  0
   60.4890   33.6490   48.1430 N   0  0  0  0  0  0  0  0  0  0  0  0
   60.5870   32.4400   48.6230 N   0  0  0  0  0  0  0  0  0  0  0  0
   59.8410   32.3980   49.8310 C   0  0  0  0  0  0  0  0  0  0  0  0
   59.6670   31.3100   50.5940 C   0  0  0  0  0  0  0  0  0  0  0  0
   58.4510   31.0240   51.3860 C   0  0  0  0  0  0  0  0  0  0  0  0
   57.6980   29.9140   51.2730 N   0  0  0  0  0  0  0  0  0  0  0  0
   56.7170   30.1000   52.1810 C   0  0  0  0  0  0  0  0  0  0  0  0
   55.8030   29.2570   52.3740 O   0  0  0  0  0  0  0  0  0  0  0  0
   56.7960   31.2580   52.8670 N   0  0  0  0  0  0  0  0  0  0  0  0
   57.8960   31.8360   52.3560 C   0  0  0  0  0  0  0  0  0  0  0  0
   58.3690   33.0760   52.7810 O   0  0  0  0  0  0  0  0  0  0  0  0
   59.3180   33.7730   49.9700 C   0  0  0  0  0  0  0  0  0  0  0  0
   59.6940   34.4800   48.9440 N   0  0  0  0  0  0  0  0  0  0  0  0
   58.4880   28.0290   46.1720 C   0  0  0  0  0  0  0  0  0  0  0  0
   59.1630   26.9470   46.6390 F   0  0  0  0  0  0  0  0  0  0  0  0
   57.3555   24.8558   46.6248 H   0  0  0  0  0  0  0  0  0  0  0  0
   56.4607   24.6254   45.0844 H   0  0  0  0  0  0  0  0  0  0  0  0
   58.0465   25.4692   45.0844 H   0  0  0  0  0  0  0  0  0  0  0  0
   56.6284   31.1549   44.7650 H   0  0  0  0  0  0  0  0  0  0  0  0
   58.9927   31.3529   45.5179 H   0  0  0  0  0  0  0  0  0  0  0  0
   60.9620   28.4130   46.8522 H   0  0  0  0  0  0  0  0  0  0  0  0
   61.2075   29.7960   45.7367 H   0  0  0  0  0  0  0  0  0  0  0  0
   59.3302   35.9471   45.1154 H   0  0  0  0  0  0  0  0  0  0  0  0
   58.0694   33.4948   46.8163 H   0  0  0  0  0  0  0  0  0  0  0  0
   56.9353   34.4540   46.3544 H   0  0  0  0  0  0  0  0  0  0  0  0
   58.9761   32.8059   44.4540 H   0  0  0  0  0  0  0  0  0  0  0  0
   57.9999   33.6450   43.5812 H   0  0  0  0  0  0  0  0  0  0  0  0
   60.4868   30.5777   50.6341 H   0  0  0  0  0  0  0  0  0  0  0  0
   59.3050   33.1970   53.1460 H   0  0  0  0  0  0  0  0  0  0  0  0
   58.7076   34.1408   50.8079 H   0  0  0  0  0  0  0  0  0  0  0  0
  1  2  1  0
  2  3  2  0
  2  4  1  0
  4  5  2  0
  5  6  1  0
  5  7  1  0
  7  8  2  0
  8  9  1  0
  9 10  1  0
 10 11  1  0
 11 12  2  3
 12 13  1  0
 13 14  1  0
 14 15  2  3
 15 16  1  0
 16 17  1  0
 17 18  1  0
 14 19  1  0
 19 20  1  0
 20 21  1  0
 21 22  2  3
 22 23  1  0
 23 24  1  0
 24 25  1  0
 25 26  2  0
 25 27  1  0
 27 28  1  0
 28 29  1  0
 21 30  1  0
 30 31  2  0
  9 32  2  0
 32 33  1  0
 32  4  1  0
 20 12  1  0
 28 23  2  0
 18 16  1  0
 31 19  1  0
  1 34  1  0
  1 35  1  0
  1 36  1  0
  7 37  1  0
  8 38  1  0
 10 39  1  0
 10 40  1  0
 16 41  1  0
 17 42  1  0
 17 43  1  0
 18 44  1  0
 18 45  1  0
 22 46  1  0
 29 47  1  0
 30 48  1  0
M  CHG  4   6  -1  13  -1  24  -1  27  -1
M  END
>  <UniqueID>  (46) 
43

>  <SMILES>  (46) 
CC(=O)c1c([O-])ccc(CN=c2[n-]c(=NC3CC3)n3n2C(=Cc2[n-]c(=O)[n-]c2O)C=N3)c1F

>  <Energy>  (46) 
445.34792888604426

>  <Genealogy>  (46) 
CC(=O)c1c([O-])ccc(CN=c2[n-]c(=NC3CC3)n3n2C(=Cc2[n-]c(=O)[n-]c2O)C=N3)c1F (protonated)
CC(=O)c1c([O-])ccc(CN=c2[n-]c(=NC3CC3)n3n2C(=Cc2[n-]c(=O)[n-]c2O)C=N3)c1F (3D coordinates assigned)
CC(=O)c1c([O-])ccc(CN=c2[n-]c(=NC3CC3)n3n2C(=Cc2[n-]c(=O)[n-]c2O)C=N3)c1F (nonaromatic ring conformer: 445.34792888604426 kcal/mol)

>  <smiles>  (46) 
CC(=O)c1c(O)ccc(CN=c2[nH]c(=NC3CC3)n3n2C(=Cc2[nH]c(=O)[nH]c2O)C=N3)c1F

>  <score_type>  (46) 
oracle

>  <origin>  (46) 
adg

>  <m_score__min__energy>  (46) 
-15.43

>  <m_primary>  (46) 
energy

$$$$
46:0
     RDKit          3D

 31 32  0  0  0  0  0  0  0  0999 V2000
   55.1340   26.3990   46.0610 N   0  0  0  0  0  0  0  0  0  0  0  0
   56.7850   25.9030   46.1680 S   0  0  0  0  0  0  0  0  0  0  0  0
   57.0800   25.4230   47.5610 O   0  0  0  0  0  0  0  0  0  0  0  0
   57.0230   24.7730   45.2060 O   0  0  0  0  0  0  0  0  0  0  0  0
   57.8340   27.2650   45.7810 C   0  0  0  0  0  0  0  0  0  0  0  0
   58.3160   27.4210   44.4750 C   0  0  0  0  0  0  0  0  0  0  0  0
   59.1400   28.5020   44.1560 C   0  0  0  0  0  0  0  0  0  0  0  0
   59.4970   29.4270   45.1400 C   0  0  0  0  0  0  0  0  0  0  0  0
   59.0460   29.2700   46.4560 C   0  0  0  0  0  0  0  0  0  0  0  0
   59.4120   30.2560   47.4310 N   0  0  0  0  0  0  0  0  0  0  0  0
   58.9760   31.6210   47.4560 C   0  0  0  0  0  0  0  0  0  0  0  0
   58.2560   32.0500   48.3970 O   0  0  0  0  0  0  0  0  0  0  0  0
   59.4350   32.5670   46.3900 C   0  0  0  0  0  0  0  0  0  0  0  0
   58.0420   33.5410   45.7180 S   0  0  0  0  0  0  0  0  0  0  0  0
   57.4220   32.2270   44.6660 C   0  0  0  0  0  0  0  0  0  0  0  0
   57.7310   32.2050   43.3050 C   0  0  0  0  0  0  0  0  0  0  0  0
   57.2210   31.1650   42.5270 C   0  0  0  0  0  0  0  0  0  0  0  0
   56.4500   30.2040   43.0990 N   0  0  0  0  0  0  0  0  0  0  0  0
   56.1650   30.2380   44.4270 C   0  0  0  0  0  0  0  0  0  0  0  0
   55.4510   29.3400   44.9410 O   0  0  0  0  0  0  0  0  0  0  0  0
   56.6510   31.2440   45.2010 N   0  0  0  0  0  0  0  0  0  0  0  0
   58.1970   28.1920   46.7700 C   0  0  0  0  0  0  0  0  0  0  0  0
   55.1310   27.4430   46.0110 H   0  0  0  0  0  0  0  0  0  0  0  0
   58.0447   26.6901   43.6990 H   0  0  0  0  0  0  0  0  0  0  0  0
   59.5090   28.6256   43.1271 H   0  0  0  0  0  0  0  0  0  0  0  0
   60.1361   30.2835   44.8794 H   0  0  0  0  0  0  0  0  0  0  0  0
   60.1791   33.2548   46.8181 H   0  0  0  0  0  0  0  0  0  0  0  0
   59.8734   31.9787   45.5704 H   0  0  0  0  0  0  0  0  0  0  0  0
   58.3607   32.9878   42.8570 H   0  0  0  0  0  0  0  0  0  0  0  0
   57.4433   31.1233   41.4505 H   0  0  0  0  0  0  0  0  0  0  0  0
   57.8163   28.0757   47.7955 H   0  0  0  0  0  0  0  0  0  0  0  0
  1  2  1  0
  2  3  2  0
  2  4  2  0
  2  5  1  0
  5  6  2  0
  6  7  1  0
  7  8  2  0
  8  9  1  0
  9 10  1  0
 10 11  1  0
 11 12  2  0
 11 13  1  0
 13 14  1  0
 14 15  1  0
 15 16  1  0
 16 17  2  0
 17 18  1  0
 18 19  1  0
 19 20  2  0
 19 21  1  0
  9 22  2  0
 22  5  1  0
 21 15  2  0
  1 23  1  0
  6 24  1  0
  7 25  1  0
  8 26  1  0
 13 27  1  0
 13 28  1  0
 16 29  1  0
 17 30  1  0
 22 31  1  0
M  CHG  3   1  -1  10  -1  18  -1
M  END
>  <UniqueID>  (47) 
44

>  <SMILES>  (47) 
[NH-]S(=O)(=O)c1cccc([N-]C(=O)CSc2cc[n-]c(=O)n2)c1

>  <Energy>  (47) 
29.90784777065286

>  <Genealogy>  (47) 
[NH-]S(=O)(=O)c1cccc([N-]C(=O)CSc2cc[n-]c(=O)n2)c1 (protonated)
[NH-]S(=O)(=O)c1cccc([N-]C(=O)CSc2cc[n-]c(=O)n2)c1 (3D coordinates assigned)
[NH-]S(=O)(=O)c1cccc([N-]C(=O)CSc2cc[n-]c(=O)n2)c1 (optimized conformer: 29.90784777065286 kcal/mol)

>  <smiles>  (47) 
NS(=O)(=O)c1cccc(NC(=O)CSc2cc[nH]c(=O)n2)c1

>  <score_type>  (47) 
oracle

>  <origin>  (47) 
adg

>  <m_score__min__energy>  (47) 
-13.130000000000001

>  <m_primary>  (47) 
energy

$$$$
47:0
     RDKit          3D

 57 60  0  0  0  0  0  0  0  0999 V2000
   58.3250   31.7810   48.5790 N   0  0  0  0  0  0  0  0  0  0  0  0
   59.1290   31.9220   50.1060 S   0  0  0  0  0  0  0  0  0  0  0  0
   59.1640   30.5850   50.7900 O   0  0  0  0  0  0  0  0  0  0  0  0
   58.3430   32.8740   50.9610 O   0  0  0  0  0  0  0  0  0  0  0  0
   60.7830   32.5330   49.8950 C   0  0  0  0  0  0  0  0  0  0  0  0
   61.1930   33.6500   50.6440 C   0  0  0  0  0  0  0  0  0  0  0  0
   62.4700   34.1910   50.4760 C   0  0  0  0  0  0  0  0  0  0  0  0
   63.3520   33.6270   49.5570 C   0  0  0  0  0  0  0  0  0  0  0  0
   62.9650   32.5150   48.8080 C   0  0  0  0  0  0  0  0  0  0  0  0
   61.6900   31.9510   48.9750 C   0  0  0  0  0  0  0  0  0  0  0  0
   61.3400   30.7630   48.1730 C   0  0  0  0  0  0  0  0  0  0  0  0
   61.3940   30.8220   46.7740 C   0  0  0  0  0  0  0  0  0  0  0  0
   61.0510   29.7050   46.0090 C   0  0  0  0  0  0  0  0  0  0  0  0
   60.6430   28.5150   46.6310 C   0  0  0  0  0  0  0  0  0  0  0  0
   60.2580   27.3150   45.8030 C   0  0  0  0  0  0  0  0  0  0  0  0
   58.8590   26.9370   46.0380 N   0  0  0  0  0  0  0  0  0  0  0  0
   58.3970   25.6750   46.1520 C   0  0  0  0  0  0  0  0  0  0  0  0
   59.1930   24.5400   46.0560 O   0  0  0  0  0  0  0  0  0  0  0  0
   57.0380   25.6590   46.3750 C   0  0  0  0  0  0  0  0  0  0  0  0
   56.6430   26.9790   46.3970 C   0  0  0  0  0  0  0  0  0  0  0  0
   57.7800   27.7480   46.1840 C   0  0  0  0  0  0  0  0  0  0  0  0
   57.7930   29.2310   46.1370 C   0  0  0  0  0  0  0  0  0  0  0  0
   57.9910   29.8930   47.1880 O   0  0  0  0  0  0  0  0  0  0  0  0
   57.5130   29.9660   44.8850 C   0  0  0  0  0  0  0  0  0  0  0  0
   56.7870   29.3150   43.8720 C   0  0  0  0  0  0  0  0  0  0  0  0
   56.5590   29.9460   42.6470 C   0  0  0  0  0  0  0  0  0  0  0  0
   57.0530   31.2320   42.4200 C   0  0  0  0  0  0  0  0  0  0  0  0
   57.7620   31.8970   43.4230 C   0  0  0  0  0  0  0  0  0  0  0  0
   57.9770   31.2870   44.6650 C   0  0  0  0  0  0  0  0  0  0  0  0
   58.6600   32.0360   45.6760 N   0  0  0  0  0  0  0  0  0  0  0  0
   58.2150   33.6530   46.1190 S   0  0  0  0  0  0  0  0  0  0  0  0
   57.6380   34.3730   44.9320 O   0  0  0  0  0  0  0  0  0  0  0  0
   57.1970   33.6160   47.2230 O   0  0  0  0  0  0  0  0  0  0  0  0
   59.6670   34.5200   46.6730 C   0  0  0  0  0  0  0  0  0  0  0  0
   60.7920   33.7640   46.3970 F   0  0  0  0  0  0  0  0  0  0  0  0
   59.5850   34.7340   48.0350 F   0  0  0  0  0  0  0  0  0  0  0  0
   59.7580   35.7360   46.0240 F   0  0  0  0  0  0  0  0  0  0  0  0
   60.6390   28.4460   48.0360 C   0  0  0  0  0  0  0  0  0  0  0  0
   60.9870   29.5620   48.8000 C   0  0  0  0  0  0  0  0  0  0  0  0
   58.8730   32.3290   47.8760 H   0  0  0  0  0  0  0  0  0  0  0  0
   57.3890   32.2410   48.6700 H   0  0  0  0  0  0  0  0  0  0  0  0
   60.5012   34.1025   51.3697 H   0  0  0  0  0  0  0  0  0  0  0  0
   62.7795   35.0635   51.0702 H   0  0  0  0  0  0  0  0  0  0  0  0
   64.3547   34.0587   49.4216 H   0  0  0  0  0  0  0  0  0  0  0  0
   63.6644   32.0767   48.0809 H   0  0  0  0  0  0  0  0  0  0  0  0
   61.7077   31.7515   46.2765 H   0  0  0  0  0  0  0  0  0  0  0  0
   61.1010   29.7584   44.9114 H   0  0  0  0  0  0  0  0  0  0  0  0
   60.3909   27.5559   44.7380 H   0  0  0  0  0  0  0  0  0  0  0  0
   60.9011   26.4706   46.0918 H   0  0  0  0  0  0  0  0  0  0  0  0
   56.3988   24.7738   46.5083 H   0  0  0  0  0  0  0  0  0  0  0  0
   55.6205   27.3531   46.5536 H   0  0  0  0  0  0  0  0  0  0  0  0
   56.3959   28.3016   44.0455 H   0  0  0  0  0  0  0  0  0  0  0  0
   55.9897   29.4293   41.8603 H   0  0  0  0  0  0  0  0  0  0  0  0
   56.8836   31.7221   41.4499 H   0  0  0  0  0  0  0  0  0  0  0  0
   58.1544   32.9074   43.2359 H   0  0  0  0  0  0  0  0  0  0  0  0
   60.3599   27.5069   48.5362 H   0  0  0  0  0  0  0  0  0  0  0  0
   60.9838   29.4972   49.8981 H   0  0  0  0  0  0  0  0  0  0  0  0
  1  2  1  0
  2  3  2  0
  2  4  2  0
  2  5  1  0
  5  6  2  0
  6  7  1  0
  7  8  2  0
  8  9  1  0
  9 10  2  0
 10 11  1  0
 11 12  2  0
 12 13  1  0
 13 14  2  0
 14 15  1  0
 15 16  1  0
 16 17  1  0
 17 18  1  0
 17 19  2  0
 19 20  1  0
 20 21  2  0
 21 22  1  0
 22 23  2  0
 22 24  1  0
 24 25  2  0
 25 26  1  0
 26 27  2  0
 27 28  1  0
 28 29  2  0
 29 30  1  0
 30 31  1  0
 31 32  2  0
 31 33  2  0
 31 34  1  0
 34 35  1  0
 34 36  1  0
 34 37  1  0
 14 38  1  0
 38 39  2  0
 10  5  1  0
 39 11  1  0
 21 16  1  0
 29 24  1  0
  1 40  1  0
  1 41  1  0
  6 42  1  0
  7 43  1  0
  8 44  1  0
  9 45  1  0
 12 46  1  0
 13 47  1  0
 15 48  1  0
 15 49  1  0
 19 50  1  0
 20 51  1  0
 25 52  1  0
 26 53  1  0
 27 54  1  0
 28 55  1  0
 38 56  1  0
 39 57  1  0
M  CHG  2  18  -1  30  -1
M  END
>  <UniqueID>  (48) 
45

>  <SMILES>  (48) 
NS(=O)(=O)c1ccccc1-c1ccc(Cn2c([O-])ccc2C(=O)c2ccccc2[N-]S(=O)(=O)C(F)(F)F)cc1

>  <Energy>  (48) 
105.31622305214992

>  <Genealogy>  (48) 
NS(=O)(=O)c1ccccc1-c1ccc(Cn2c([O-])ccc2C(=O)c2ccccc2[N-]S(=O)(=O)C(F)(F)F)cc1 (protonated)
NS(=O)(=O)c1ccccc1-c1ccc(Cn2c([O-])ccc2C(=O)c2ccccc2[N-]S(=O)(=O)C(F)(F)F)cc1 (3D coordinates assigned)
NS(=O)(=O)c1ccccc1-c1ccc(Cn2c([O-])ccc2C(=O)c2ccccc2[N-]S(=O)(=O)C(F)(F)F)cc1 (optimized conformer: 105.31622305214992 kcal/mol)

>  <smiles>  (48) 
NS(=O)(=O)c1ccccc1-c1ccc(Cn2c(O)ccc2C(=O)c2ccccc2NS(=O)(=O)C(F)(F)F)cc1

>  <score_type>  (48) 
oracle

>  <origin>  (48) 
adg

>  <m_score__min__energy>  (48) 
-13.6

>  <m_primary>  (48) 
energy

$$$$
48:0
     RDKit          3D

 49 50  0  0  0  0  0  0  0  0999 V2000
   59.3310   33.3270   49.2800 C   0  0  0  0  0  0  0  0  0  0  0  0
   59.2960   34.0510   48.0550 O   0  0  0  0  0  0  0  0  0  0  0  0
   58.9250   33.5000   46.8190 C   0  0  0  0  0  0  0  0  0  0  0  0
   58.9550   34.2400   45.6230 C   0  0  0  0  0  0  0  0  0  0  0  0
   58.5710   33.6490   44.4170 C   0  0  0  0  0  0  0  0  0  0  0  0
   58.1530   32.3050   44.3820 C   0  0  0  0  0  0  0  0  0  0  0  0
   57.7410   31.6860   43.1920 O   0  0  0  0  0  0  0  0  0  0  0  0
   57.9540   32.2160   41.8880 C   0  0  0  0  0  0  0  0  0  0  0  0
   58.1330   31.5620   45.5770 C   0  0  0  0  0  0  0  0  0  0  0  0
   57.7020   30.1920   45.5790 N   0  0  0  0  0  0  0  0  0  0  0  0
   58.2440   29.2600   46.5670 C   0  0  0  0  0  0  0  0  0  0  0  0
   59.7380   29.2770   46.5120 C   0  0  0  0  0  0  0  0  0  0  0  0
   60.3240   29.5900   45.4410 O   0  0  0  0  0  0  0  0  0  0  0  0
   60.4850   28.9470   47.6890 N   0  0  0  0  0  0  0  0  0  0  0  0
   61.2000   29.8640   48.5280 C   0  0  0  0  0  0  0  0  0  0  0  0
   61.3380   29.6590   49.9130 C   0  0  0  0  0  0  0  0  0  0  0  0
   61.9950   30.6060   50.7020 C   0  0  0  0  0  0  0  0  0  0  0  0
   62.5060   31.7700   50.1240 C   0  0  0  0  0  0  0  0  0  0  0  0
   62.3510   31.9980   48.7500 C   0  0  0  0  0  0  0  0  0  0  0  0
   62.9810   33.4650   48.0080 S   0  0  0  0  0  0  0  0  0  0  0  0
   62.0570   33.8470   46.5990 N   0  0  0  0  0  0  0  0  0  0  0  0
   64.4200   33.2750   47.6180 O   0  0  0  0  0  0  0  0  0  0  0  0
   62.8930   34.6000   48.9910 O   0  0  0  0  0  0  0  0  0  0  0  0
   61.6970   31.0430   47.9590 C   0  0  0  0  0  0  0  0  0  0  0  0
   56.3930   29.6890   44.5500 S   0  0  0  0  0  0  0  0  0  0  0  0
   57.0180   29.0540   43.0070 C   0  0  0  0  0  0  0  0  0  0  0  0
   55.6130   28.5970   45.2290 O   0  0  0  0  0  0  0  0  0  0  0  0
   55.4870   30.8570   44.2780 O   0  0  0  0  0  0  0  0  0  0  0  0
   58.5100   32.1650   46.7840 C   0  0  0  0  0  0  0  0  0  0  0  0
   59.2969   34.0320   50.1237 H   0  0  0  0  0  0  0  0  0  0  0  0
   58.4645   32.6514   49.3315 H   0  0  0  0  0  0  0  0  0  0  0  0
   60.2587   32.7381   49.3315 H   0  0  0  0  0  0  0  0  0  0  0  0
   59.2827   35.2900   45.6376 H   0  0  0  0  0  0  0  0  0  0  0  0
   58.5953   34.2378   43.4881 H   0  0  0  0  0  0  0  0  0  0  0  0
   58.3631   33.2339   41.9683 H   0  0  0  0  0  0  0  0  0  0  0  0
   58.6651   31.5769   41.3441 H   0  0  0  0  0  0  0  0  0  0  0  0
   56.9984   32.2467   41.3441 H   0  0  0  0  0  0  0  0  0  0  0  0
   57.9120   29.5592   47.5721 H   0  0  0  0  0  0  0  0  0  0  0  0
   57.8836   28.2447   46.3450 H   0  0  0  0  0  0  0  0  0  0  0  0
   60.9271   28.7498   50.3761 H   0  0  0  0  0  0  0  0  0  0  0  0
   62.1103   30.4343   51.7824 H   0  0  0  0  0  0  0  0  0  0  0  0
   63.0307   32.5086   50.7478 H   0  0  0  0  0  0  0  0  0  0  0  0
   61.1390   34.2270   46.9280 H   0  0  0  0  0  0  0  0  0  0  0  0
   61.8510   32.9440   46.1150 H   0  0  0  0  0  0  0  0  0  0  0  0
   61.5730   31.2216   46.8807 H   0  0  0  0  0  0  0  0  0  0  0  0
   57.7766   28.2832   43.2081 H   0  0  0  0  0  0  0  0  0  0  0  0
   56.1915   28.6133   42.4302 H   0  0  0  0  0  0  0  0  0  0  0  0
   57.4717   29.8734   42.4302 H   0  0  0  0  0  0  0  0  0  0  0  0
   58.4792   31.5811   47.7158 H   0  0  0  0  0  0  0  0  0  0  0  0
  1  2  1  0
  2  3  1  0
  3  4  2  0
  4  5  1  0
  5  6  2  0
  6  7  1  0
  7  8  1  0
  6  9  1  0
  9 10  1  0
 10 11  1  0
 11 12  1  0
 12 13  2  0
 12 14  1  0
 14 15  1  0
 15 16  2  0
 16 17  1  0
 17 18  2  0
 18 19  1  0
 19 20  1  0
 20 21  1  0
 20 22  2  0
 20 23  2  0
 19 24  2  0
 10 25  1  0
 25 26  1  0
 25 27  2  0
 25 28  2  0
  9 29  2  0
 29  3  1  0
 24 15  1  0
  1 30  1  0
  1 31  1  0
  1 32  1  0
  4 33  1  0
  5 34  1  0
  8 35  1  0
  8 36  1  0
  8 37  1  0
 11 38  1  0
 11 39  1  0
 16 40  1  0
 17 41  1  0
 18 42  1  0
 21 43  1  0
 21 44  1  0
 24 45  1  0
 26 46  1  0
 26 47  1  0
 26 48  1  0
 29 49  1  0
M  CHG  1  14  -1
M  END
>  <UniqueID>  (49) 
46

>  <SMILES>  (49) 
COc1ccc(OC)c(N(CC(=O)[N-]c2cccc(S(N)(=O)=O)c2)S(C)(=O)=O)c1

>  <Energy>  (49) 
47.189261794225764

>  <Genealogy>  (49) 
COc1ccc(OC)c(N(CC(=O)[N-]c2cccc(S(N)(=O)=O)c2)S(C)(=O)=O)c1 (protonated)
COc1ccc(OC)c(N(CC(=O)[N-]c2cccc(S(N)(=O)=O)c2)S(C)(=O)=O)c1 (3D coordinates assigned)
COc1ccc(OC)c(N(CC(=O)[N-]c2cccc(S(N)(=O)=O)c2)S(C)(=O)=O)c1 (optimized conformer: 47.189261794225764 kcal/mol)

>  <smiles>  (49) 
COc1ccc(OC)c(N(CC(=O)Nc2cccc(S(N)(=O)=O)c2)S(C)(=O)=O)c1

>  <score_type>  (49) 
oracle

>  <origin>  (49) 
adg

>  <m_score__min__energy>  (49) 
-10.140000000000001

>  <m_primary>  (49) 
energy

$$$$
49:0
     RDKit          3D

 59 62  0  0  0  0  0  0  0  0999 V2000
   57.6110   28.6610   43.7040 C   0  0  0  0  0  0  0  0  0  0  0  0
   57.7750   30.0580   44.1390 N   0  0  0  0  0  0  0  0  0  0  0  0
   58.4820   30.3460   45.2830 C   0  0  0  0  0  0  0  0  0  0  0  0
   59.0900   29.3010   46.0590 N   0  0  0  0  0  0  0  0  0  0  0  0
   60.1430   28.4730   45.4730 C   0  0  0  0  0  0  0  0  0  0  0  0
   59.9590   27.0070   45.8980 C   0  0  0  0  0  0  0  0  0  0  0  0
   59.5710   26.8230   47.3260 N   0  0  0  0  0  0  0  0  0  0  0  0
   58.2910   26.0910   47.4610 C   0  0  0  0  0  0  0  0  0  0  0  0
   58.0050   25.2540   46.2410 C   0  0  0  0  0  0  0  0  0  0  0  0
   58.7290   24.0730   46.0120 C   0  0  0  0  0  0  0  0  0  0  0  0
   58.4610   23.2890   44.8860 C   0  0  0  0  0  0  0  0  0  0  0  0
   57.4660   23.6760   43.9850 C   0  0  0  0  0  0  0  0  0  0  0  0
   56.7370   24.8490   44.2080 C   0  0  0  0  0  0  0  0  0  0  0  0
   57.0030   25.6370   45.3330 C   0  0  0  0  0  0  0  0  0  0  0  0
   59.6120   28.0670   48.1310 C   0  0  0  0  0  0  0  0  0  0  0  0
   58.7990   29.2000   47.4900 C   0  0  0  0  0  0  0  0  0  0  0  0
   58.6330   31.6720   45.7070 C   0  0  0  0  0  0  0  0  0  0  0  0
   58.0770   32.7160   44.9550 C   0  0  0  0  0  0  0  0  0  0  0  0
   58.1820   34.0660   45.3290 O   0  0  0  0  0  0  0  0  0  0  0  0
   59.4030   34.7620   45.5840 C   0  0  0  0  0  0  0  0  0  0  0  0
   59.7040   34.7920   47.0850 C   0  0  0  0  0  0  0  0  0  0  0  0
   60.7250   33.7460   47.4400 C   0  0  0  0  0  0  0  0  0  0  0  0
   60.3960   32.7100   48.3300 C   0  0  0  0  0  0  0  0  0  0  0  0
   61.3350   31.7200   48.6360 C   0  0  0  0  0  0  0  0  0  0  0  0
   62.6030   31.7530   48.0500 C   0  0  0  0  0  0  0  0  0  0  0  0
   62.9330   32.7720   47.1520 C   0  0  0  0  0  0  0  0  0  0  0  0
   64.1610   32.7950   46.5770 F   0  0  0  0  0  0  0  0  0  0  0  0
   61.9970   33.7640   46.8440 C   0  0  0  0  0  0  0  0  0  0  0  0
   57.4010   32.4080   43.7770 C   0  0  0  0  0  0  0  0  0  0  0  0
   57.2610   31.0770   43.3740 C   0  0  0  0  0  0  0  0  0  0  0  0
   56.6540   30.8310   42.2960 O   0  0  0  0  0  0  0  0  0  0  0  0
   57.5344   28.0088   44.5865 H   0  0  0  0  0  0  0  0  0  0  0  0
   56.6960   28.5700   43.1003 H   0  0  0  0  0  0  0  0  0  0  0  0
   58.4800   28.3605   43.1003 H   0  0  0  0  0  0  0  0  0  0  0  0
   60.0932   28.5431   44.3764 H   0  0  0  0  0  0  0  0  0  0  0  0
   61.1214   28.8306   45.8264 H   0  0  0  0  0  0  0  0  0  0  0  0
   59.1743   26.5623   45.2684 H   0  0  0  0  0  0  0  0  0  0  0  0
   60.9370   26.5192   45.7734 H   0  0  0  0  0  0  0  0  0  0  0  0
   58.3458   25.4336   48.3412 H   0  0  0  0  0  0  0  0  0  0  0  0
   57.4814   26.8271   47.5734 H   0  0  0  0  0  0  0  0  0  0  0  0
   59.5104   23.7633   46.7216 H   0  0  0  0  0  0  0  0  0  0  0  0
   59.0340   22.3668   44.7093 H   0  0  0  0  0  0  0  0  0  0  0  0
   57.2556   23.0580   43.0997 H   0  0  0  0  0  0  0  0  0  0  0  0
   55.9536   25.1522   43.4978 H   0  0  0  0  0  0  0  0  0  0  0  0
   56.4270   26.5578   45.5071 H   0  0  0  0  0  0  0  0  0  0  0  0
   59.2004   27.8566   49.1292 H   0  0  0  0  0  0  0  0  0  0  0  0
   60.6600   28.3958   48.1910 H   0  0  0  0  0  0  0  0  0  0  0  0
   57.7266   28.9969   47.6268 H   0  0  0  0  0  0  0  0  0  0  0  0
   59.0728   30.1490   47.9741 H   0  0  0  0  0  0  0  0  0  0  0  0
   59.1880   31.8943   46.6303 H   0  0  0  0  0  0  0  0  0  0  0  0
   60.2255   34.2524   45.0607 H   0  0  0  0  0  0  0  0  0  0  0  0
   59.3036   35.7959   45.2219 H   0  0  0  0  0  0  0  0  0  0  0  0
   60.0935   35.7844   47.3561 H   0  0  0  0  0  0  0  0  0  0  0  0
   58.7758   34.5843   47.6376 H   0  0  0  0  0  0  0  0  0  0  0  0
   59.3963   32.6775   48.7877 H   0  0  0  0  0  0  0  0  0  0  0  0
   61.0752   30.9145   49.3387 H   0  0  0  0  0  0  0  0  0  0  0  0
   63.3422   30.9763   48.2956 H   0  0  0  0  0  0  0  0  0  0  0  0
   62.2576   34.5614   46.1325 H   0  0  0  0  0  0  0  0  0  0  0  0
   56.9759   33.2147   43.1618 H   0  0  0  0  0  0  0  0  0  0  0  0
  1  2  1  0
  2  3  1  0
  3  4  1  0
  4  5  1  0
  5  6  1  0
  6  7  1  0
  7  8  1  0
  8  9  1  0
  9 10  2  0
 10 11  1  0
 11 12  2  0
 12 13  1  0
 13 14  2  0
  7 15  1  0
 15 16  1  0
  3 17  2  0
 17 18  1  0
 18 19  1  0
 19 20  1  0
 20 21  1  0
 21 22  1  0
 22 23  2  0
 23 24  1  0
 24 25  2  0
 25 26  1  0
 26 27  1  0
 26 28  2  0
 18 29  2  0
 29 30  1  0
 30 31  2  0
 30  2  1  0
 16  4  1  0
 28 22  1  0
 14  9  1  0
  1 32  1  0
  1 33  1  0
  1 34  1  0
  5 35  1  0
  5 36  1  0
  6 37  1  0
  6 38  1  0
  8 39  1  0
  8 40  1  0
 10 41  1  0
 11 42  1  0
 12 43  1  0
 13 44  1  0
 14 45  1  0
 15 46  1  0
 15 47  1  0
 16 48  1  0
 16 49  1  0
 17 50  1  0
 20 51  1  0
 20 52  1  0
 21 53  1  0
 21 54  1  0
 23 55  1  0
 24 56  1  0
 25 57  1  0
 28 58  1  0
 29 59  1  0
M  END
>  <UniqueID>  (50) 
47

>  <SMILES>  (50) 
Cn1c(N2CCN(Cc3ccccc3)CC2)cc(OCCc2cccc(F)c2)cc1=O

>  <Energy>  (50) 
76.36007435204209

>  <Genealogy>  (50) 
Cn1c(N2CCN(Cc3ccccc3)CC2)cc(OCCc2cccc(F)c2)cc1=O (3D coordinates assigned)
Cn1c(N2CCN(Cc3ccccc3)CC2)cc(OCCc2cccc(F)c2)cc1=O (nonaromatic ring conformer: 76.36007435204209 kcal/mol)

>  <smiles>  (50) 
Cn1c(N2CCN(Cc3ccccc3)CC2)cc(OCCc2cccc(F)c2)cc1=O

>  <score_type>  (50) 
oracle

>  <origin>  (50) 
adg

>  <m_score__min__energy>  (50) 
-8.1600000000000001

>  <m_primary>  (50) 
energy

$$$$
50:0
     RDKit          3D

 27 28  0  0  0  0  0  0  0  0999 V2000
   52.2370   24.0840   44.3420 C   0  0  0  0  0  0  0  0  0  0  0  0
   53.4930   23.4640   44.7400 N   0  0  0  0  0  0  0  0  0  0  0  0
   54.7160   23.8070   44.2960 C   0  0  0  0  0  0  0  0  0  0  0  0
   55.6390   23.0310   44.9620 C   0  0  0  0  0  0  0  0  0  0  0  0
   57.1160   22.9960   44.7450 C   0  0  0  0  0  0  0  0  0  0  0  0
   57.7670   23.8540   45.7240 N   0  0  0  0  0  0  0  0  0  0  0  0
   57.0670   24.8560   46.4690 C   0  0  0  0  0  0  0  0  0  0  0  0
   56.4550   24.5290   47.5230 O   0  0  0  0  0  0  0  0  0  0  0  0
   57.0650   26.2670   46.0010 C   0  0  0  0  0  0  0  0  0  0  0  0
   58.2810   26.9570   45.8490 C   0  0  0  0  0  0  0  0  0  0  0  0
   58.2960   28.2830   45.4090 C   0  0  0  0  0  0  0  0  0  0  0  0
   59.9670   29.1960   45.2130 Br  0  0  0  0  0  0  0  0  0  0  0  0
   57.0850   28.9180   45.1200 C   0  0  0  0  0  0  0  0  0  0  0  0
   57.0690   30.1130   44.7220 O   0  0  0  0  0  0  0  0  0  0  0  0
   55.9150   28.2460   45.2690 N   0  0  0  0  0  0  0  0  0  0  0  0
   55.8690   26.9540   45.6950 C   0  0  0  0  0  0  0  0  0  0  0  0
   54.6300   26.3370   45.8210 O   0  0  0  0  0  0  0  0  0  0  0  0
   54.8980   22.2190   45.8010 C   0  0  0  0  0  0  0  0  0  0  0  0
   53.5910   22.5140   45.6580 N   0  0  0  0  0  0  0  0  0  0  0  0
   51.6665   24.3656   45.2394 H   0  0  0  0  0  0  0  0  0  0  0  0
   52.4454   24.9828   43.7430 H   0  0  0  0  0  0  0  0  0  0  0  0
   51.6503   23.3720   43.7430 H   0  0  0  0  0  0  0  0  0  0  0  0
   54.9390   24.5709   43.5366 H   0  0  0  0  0  0  0  0  0  0  0  0
   57.4800   21.9645   44.8609 H   0  0  0  0  0  0  0  0  0  0  0  0
   57.3477   23.3529   43.7306 H   0  0  0  0  0  0  0  0  0  0  0  0
   59.2288   26.4482   46.0786 H   0  0  0  0  0  0  0  0  0  0  0  0
   55.3095   21.4548   46.4768 H   0  0  0  0  0  0  0  0  0  0  0  0
  1  2  1  0
  2  3  1  0
  3  4  2  0
  4  5  1  0
  5  6  1  0
  6  7  1  0
  7  8  2  0
  7  9  1  0
  9 10  1  0
 10 11  2  0
 11 12  1  0
 11 13  1  0
 13 14  2  0
 13 15  1  0
 15 16  1  0
 16 17  1  0
  4 18  1  0
 18 19  2  0
 19  2  1  0
 16  9  2  0
  1 20  1  0
  1 21  1  0
  1 22  1  0
  3 23  1  0
  5 24  1  0
  5 25  1  0
 10 26  1  0
 18 27  1  0
M  CHG  3   6  -1  15  -1  17  -1
M  END
>  <UniqueID>  (51) 
48

>  <SMILES>  (51) 
Cn1cc(C[N-]C(=O)c2cc(Br)c(=O)[n-]c2[O-])cn1

>  <Energy>  (51) 
56.55031736462229

>  <Genealogy>  (51) 
Cn1cc(C[N-]C(=O)c2cc(Br)c(=O)[n-]c2[O-])cn1 (protonated)
Cn1cc(C[N-]C(=O)c2cc(Br)c(=O)[n-]c2[O-])cn1 (3D coordinates assigned)
Cn1cc(C[N-]C(=O)c2cc(Br)c(=O)[n-]c2[O-])cn1 (optimized conformer: 56.55031736462229 kcal/mol)

>  <smiles>  (51) 
Cn1cc(CNC(=O)c2cc(Br)c(=O)[nH]c2O)cn1

>  <score_type>  (51) 
oracle

>  <origin>  (51) 
adg

>  <m_score__min__energy>  (51) 
-13.789999999999999

>  <m_primary>  (51) 
energy

$$$$
51:0
     RDKit          3D

 55 56  0  0  0  0  0  0  0  0999 V2000
   59.3370   34.5720   46.3830 C   0  0  0  0  0  0  0  0  0  0  0  0
   57.9300   33.9690   46.3880 C   0  0  0  0  0  0  0  0  0  0  0  0
   57.3750   33.7760   44.9660 C   0  0  0  0  0  0  0  0  0  0  0  0
   58.0770   32.6280   44.2250 C   0  0  0  0  0  0  0  0  0  0  0  0
   57.0760   31.5370   43.8170 C   0  0  0  0  0  0  0  0  0  0  0  0
   57.1660   30.3470   44.7230 C   0  0  0  0  0  0  0  0  0  0  0  0
   56.1170   29.8580   45.2180 O   0  0  0  0  0  0  0  0  0  0  0  0
   58.4290   29.8220   45.0290 O   0  0  0  0  0  0  0  0  0  0  0  0
   59.2570   30.2130   46.0910 C   0  0  0  0  0  0  0  0  0  0  0  0
   60.6560   30.0740   46.0630 C   0  0  0  0  0  0  0  0  0  0  0  0
   61.4220   30.4640   47.1660 C   0  0  0  0  0  0  0  0  0  0  0  0
   60.8040   30.9890   48.3040 C   0  0  0  0  0  0  0  0  0  0  0  0
   61.5800   31.3860   49.3880 O   0  0  0  0  0  0  0  0  0  0  0  0
   59.4030   31.1060   48.3490 C   0  0  0  0  0  0  0  0  0  0  0  0
   58.7130   31.6500   49.5290 C   0  0  0  0  0  0  0  0  0  0  0  0
   58.9270   31.2840   50.8010 C   0  0  0  0  0  0  0  0  0  0  0  0
   57.9840   31.3880   51.9460 C   0  0  0  0  0  0  0  0  0  0  0  0
   57.7600   32.5370   52.4130 O   0  0  0  0  0  0  0  0  0  0  0  0
   57.2140   30.2300   52.5310 C   0  0  0  0  0  0  0  0  0  0  0  0
   55.7540   30.2870   52.1890 C   0  0  0  0  0  0  0  0  0  0  0  0
   55.2700   31.3610   51.7410 O   0  0  0  0  0  0  0  0  0  0  0  0
   54.8790   29.1410   52.5270 C   0  0  0  0  0  0  0  0  0  0  0  0
   53.5450   29.1030   52.3970 C   0  0  0  0  0  0  0  0  0  0  0  0
   52.6490   30.2790   52.3670 C   0  0  0  0  0  0  0  0  0  0  0  0
   52.0960   30.7470   53.5680 C   0  0  0  0  0  0  0  0  0  0  0  0
   51.2220   31.8360   53.5650 C   0  0  0  0  0  0  0  0  0  0  0  0
   50.8680   32.4520   52.3610 C   0  0  0  0  0  0  0  0  0  0  0  0
   50.0010   33.5390   52.3680 O   0  0  0  0  0  0  0  0  0  0  0  0
   51.3870   31.9720   51.1530 C   0  0  0  0  0  0  0  0  0  0  0  0
   51.0290   32.5740   49.9490 O   0  0  0  0  0  0  0  0  0  0  0  0
   52.2680   30.8840   51.1540 C   0  0  0  0  0  0  0  0  0  0  0  0
   58.6490   30.7760   47.2170 C   0  0  0  0  0  0  0  0  0  0  0  0
   59.6771   34.7178   47.4189 H   0  0  0  0  0  0  0  0  0  0  0  0
   60.0263   33.8902   45.8633 H   0  0  0  0  0  0  0  0  0  0  0  0
   59.3187   35.5413   45.8633 H   0  0  0  0  0  0  0  0  0  0  0  0
   57.9656   32.9909   46.8901 H   0  0  0  0  0  0  0  0  0  0  0  0
   57.2654   34.6672   46.9179 H   0  0  0  0  0  0  0  0  0  0  0  0
   56.3002   33.5515   45.0317 H   0  0  0  0  0  0  0  0  0  0  0  0
   57.5541   34.7037   44.4026 H   0  0  0  0  0  0  0  0  0  0  0  0
   58.5611   33.0270   43.3214 H   0  0  0  0  0  0  0  0  0  0  0  0
   58.8228   32.1822   44.8995 H   0  0  0  0  0  0  0  0  0  0  0  0
   56.0573   31.9489   43.8672 H   0  0  0  0  0  0  0  0  0  0  0  0
   57.3154   31.2123   42.7937 H   0  0  0  0  0  0  0  0  0  0  0  0
   61.1487   29.6578   45.1719 H   0  0  0  0  0  0  0  0  0  0  0  0
   62.5164   30.3570   47.1377 H   0  0  0  0  0  0  0  0  0  0  0  0
   57.9539   32.4262   49.3519 H   0  0  0  0  0  0  0  0  0  0  0  0
   59.9159   30.8568   51.0236 H   0  0  0  0  0  0  0  0  0  0  0  0
   57.6331   29.2919   52.1382 H   0  0  0  0  0  0  0  0  0  0  0  0
   57.3058   30.2832   53.6259 H   0  0  0  0  0  0  0  0  0  0  0  0
   55.3684   28.2380   52.9209 H   0  0  0  0  0  0  0  0  0  0  0  0
   53.0769   28.1119   52.3047 H   0  0  0  0  0  0  0  0  0  0  0  0
   52.3521   30.2536   54.5172 H   0  0  0  0  0  0  0  0  0  0  0  0
   50.8104   32.2107   54.5138 H   0  0  0  0  0  0  0  0  0  0  0  0
   52.6645   30.4999   50.2025 H   0  0  0  0  0  0  0  0  0  0  0  0
   57.5648   30.9619   47.2132 H   0  0  0  0  0  0  0  0  0  0  0  0
  1  2  1  0
  2  3  1  0
  3  4  1  0
  4  5  1  0
  5  6  1  0
  6  7  2  0
  6  8  1  0
  8  9  1  0
  9 10  2  0
 10 11  1  0
 11 12  2  0
 12 13  1  0
 12 14  1  0
 14 15  1  0
 15 16  2  3
 16 17  1  0
 17 18  2  0
 17 19  1  0
 19 20  1  0
 20 21  2  0
 20 22  1  0
 22 23  2  3
 23 24  1  0
 24 25  2  0
 25 26  1  0
 26 27  2  0
 27 28  1  0
 27 29  1  0
 29 30  1  0
 29 31  2  0
 14 32  2  0
 32  9  1  0
 31 24  1  0
  1 33  1  0
  1 34  1  0
  1 35  1  0
  2 36  1  0
  2 37  1  0
  3 38  1  0
  3 39  1  0
  4 40  1  0
  4 41  1  0
  5 42  1  0
  5 43  1  0
 10 44  1  0
 11 45  1  0
 15 46  1  0
 16 47  1  0
 19 48  1  0
 19 49  1  0
 22 50  1  0
 23 51  1  0
 25 52  1  0
 26 53  1  0
 31 54  1  0
 32 55  1  0
M  CHG  3  13  -1  28  -1  30  -1
M  END
>  <UniqueID>  (52) 
49

>  <SMILES>  (52) 
CCCCCC(=O)Oc1ccc([O-])c(C=CC(=O)CC(=O)C=Cc2ccc([O-])c([O-])c2)c1

>  <Energy>  (52) 
66.14347387545514

>  <Genealogy>  (52) 
CCCCCC(=O)Oc1ccc([O-])c(C=CC(=O)CC(=O)C=Cc2ccc([O-])c([O-])c2)c1 (protonated)
CCCCCC(=O)Oc1ccc([O-])c(C=CC(=O)CC(=O)C=Cc2ccc([O-])c([O-])c2)c1 (3D coordinates assigned)
CCCCCC(=O)Oc1ccc([O-])c(C=CC(=O)CC(=O)C=Cc2ccc([O-])c([O-])c2)c1 (optimized conformer: 66.14347387545514 kcal/mol)

>  <smiles>  (52) 
CCCCCC(=O)Oc1ccc(O)c(C=CC(=O)CC(=O)C=Cc2ccc(O)c(O)c2)c1

>  <score_type>  (52) 
oracle

>  <origin>  (52) 
adg

>  <m_score__min__energy>  (52) 
-18.399999999999999

>  <m_primary>  (52) 
energy

$$$$
52:0
     RDKit          3D

 59 63  0  0  0  0  0  0  0  0999 V2000
   58.8730   26.0360   45.3390 O   0  0  0  0  0  0  0  0  0  0  0  0
   57.8250   26.1650   44.6510 C   0  0  0  0  0  0  0  0  0  0  0  0
   57.5600   27.4010   43.9680 N   0  0  0  0  0  0  0  0  0  0  0  0
   58.0220   28.6870   44.4180 C   0  0  0  0  0  0  0  0  0  0  0  0
   59.2330   28.8330   45.1190 C   0  0  0  0  0  0  0  0  0  0  0  0
   59.6280   30.0850   45.5960 C   0  0  0  0  0  0  0  0  0  0  0  0
   58.8110   31.2090   45.4020 C   0  0  0  0  0  0  0  0  0  0  0  0
   59.2230   32.5230   45.9400 C   0  0  0  0  0  0  0  0  0  0  0  0
   59.5100   33.4470   45.1310 O   0  0  0  0  0  0  0  0  0  0  0  0
   59.3410   32.7520   47.3600 N   0  0  0  0  0  0  0  0  0  0  0  0
   59.8170   31.6660   48.2360 C   0  0  0  0  0  0  0  0  0  0  0  0
   60.3690   32.2150   49.5580 C   0  0  0  0  0  0  0  0  0  0  0  0
   61.1820   33.4090   49.2940 N   0  0  0  0  0  0  0  0  0  0  0  0
   62.5620   33.4720   49.7070 C   0  0  0  0  0  0  0  0  0  0  0  0
   62.9220   34.1410   50.8920 C   0  0  0  0  0  0  0  0  0  0  0  0
   64.2590   34.1870   51.2990 C   0  0  0  0  0  0  0  0  0  0  0  0
   65.2460   33.5620   50.5330 C   0  0  0  0  0  0  0  0  0  0  0  0
   64.8980   32.8900   49.3590 C   0  0  0  0  0  0  0  0  0  0  0  0
   63.5630   32.8420   48.9470 C   0  0  0  0  0  0  0  0  0  0  0  0
   60.6090   34.5140   48.5070 C   0  0  0  0  0  0  0  0  0  0  0  0
   59.2590   34.1180   47.8970 C   0  0  0  0  0  0  0  0  0  0  0  0
   57.6110   31.0680   44.6910 C   0  0  0  0  0  0  0  0  0  0  0  0
   57.2160   29.8160   44.2120 C   0  0  0  0  0  0  0  0  0  0  0  0
   56.8970   25.0280   44.5360 C   0  0  0  0  0  0  0  0  0  0  0  0
   55.7270   24.8460   45.2480 C   0  0  0  0  0  0  0  0  0  0  0  0
   55.2040   23.6590   44.8950 N   0  0  0  0  0  0  0  0  0  0  0  0
   53.9950   23.0670   45.4080 C   0  0  0  0  0  0  0  0  0  0  0  0
   52.7420   23.6570   45.1580 C   0  0  0  0  0  0  0  0  0  0  0  0
   51.5730   23.0690   45.6510 C   0  0  0  0  0  0  0  0  0  0  0  0
   51.6410   21.8850   46.3890 C   0  0  0  0  0  0  0  0  0  0  0  0
   52.8790   21.2920   46.6440 C   0  0  0  0  0  0  0  0  0  0  0  0
   54.0520   21.8780   46.1550 C   0  0  0  0  0  0  0  0  0  0  0  0
   56.0630   23.1620   43.9770 C   0  0  0  0  0  0  0  0  0  0  0  0
   55.8950   22.0640   43.3840 O   0  0  0  0  0  0  0  0  0  0  0  0
   57.1160   23.9670   43.7310 N   0  0  0  0  0  0  0  0  0  0  0  0
   57.0130   27.3610   43.0800 H   0  0  0  0  0  0  0  0  0  0  0  0
   59.8730   27.9554   45.2926 H   0  0  0  0  0  0  0  0  0  0  0  0
   60.5855   30.1904   46.1270 H   0  0  0  0  0  0  0  0  0  0  0  0
   58.9789   30.9873   48.4524 H   0  0  0  0  0  0  0  0  0  0  0  0
   60.6271   31.1325   47.7173 H   0  0  0  0  0  0  0  0  0  0  0  0
   59.5330   32.4807   50.2217 H   0  0  0  0  0  0  0  0  0  0  0  0
   60.9924   31.4478   50.0404 H   0  0  0  0  0  0  0  0  0  0  0  0
   62.1475   34.6302   51.5010 H   0  0  0  0  0  0  0  0  0  0  0  0
   64.5339   34.7160   52.2235 H   0  0  0  0  0  0  0  0  0  0  0  0
   66.2973   33.5991   50.8544 H   0  0  0  0  0  0  0  0  0  0  0  0
   65.6761   32.3975   48.7573 H   0  0  0  0  0  0  0  0  0  0  0  0
   63.2943   32.3085   48.0233 H   0  0  0  0  0  0  0  0  0  0  0  0
   60.4646   35.3849   49.1633 H   0  0  0  0  0  0  0  0  0  0  0  0
   61.3035   34.7560   47.6890 H   0  0  0  0  0  0  0  0  0  0  0  0
   58.4805   34.1600   48.6730 H   0  0  0  0  0  0  0  0  0  0  0  0
   59.0074   34.8151   47.0841 H   0  0  0  0  0  0  0  0  0  0  0  0
   56.9766   31.9480   44.5091 H   0  0  0  0  0  0  0  0  0  0  0  0
   56.2648   29.7152   43.6688 H   0  0  0  0  0  0  0  0  0  0  0  0
   55.2982   25.5497   45.9767 H   0  0  0  0  0  0  0  0  0  0  0  0
   52.6819   24.5857   44.5716 H   0  0  0  0  0  0  0  0  0  0  0  0
   50.5979   23.5398   45.4573 H   0  0  0  0  0  0  0  0  0  0  0  0
   50.7195   21.4200   46.7691 H   0  0  0  0  0  0  0  0  0  0  0  0
   52.9325   20.3627   47.2302 H   0  0  0  0  0  0  0  0  0  0  0  0
   55.0245   21.4051   46.3565 H   0  0  0  0  0  0  0  0  0  0  0  0
  1  2  2  0
  2  3  1  0
  3  4  1  0
  4  5  2  0
  5  6  1  0
  6  7  2  0
  7  8  1  0
  8  9  2  0
  8 10  1  0
 10 11  1  0
 11 12  1  0
 12 13  1  0
 13 14  1  0
 14 15  2  0
 15 16  1  0
 16 17  2  0
 17 18  1  0
 18 19  2  0
 13 20  1  0
 20 21  1  0
  7 22  1  0
 22 23  2  0
  2 24  1  0
 24 25  2  0
 25 26  1  0
 26 27  1  0
 27 28  2  0
 28 29  1  0
 29 30  2  0
 30 31  1  0
 31 32  2  0
 26 33  1  0
 33 34  2  0
 33 35  1  0
 23  4  1  0
 35 24  1  0
 21 10  1  0
 32 27  1  0
 19 14  1  0
  3 36  1  0
  5 37  1  0
  6 38  1  0
 11 39  1  0
 11 40  1  0
 12 41  1  0
 12 42  1  0
 15 43  1  0
 16 44  1  0
 17 45  1  0
 18 46  1  0
 19 47  1  0
 20 48  1  0
 20 49  1  0
 21 50  1  0
 21 51  1  0
 22 52  1  0
 23 53  1  0
 25 54  1  0
 28 55  1  0
 29 56  1  0
 30 57  1  0
 31 58  1  0
 32 59  1  0
M  CHG  1  35  -1
M  END
>  <UniqueID>  (53) 
50

>  <SMILES>  (53) 
O=C(Nc1ccc(C(=O)N2CCN(c3ccccc3)CC2)cc1)c1cn(-c2ccccc2)c(=O)[n-]1

>  <Energy>  (53) 
114.19254972884376

>  <Genealogy>  (53) 
O=C(Nc1ccc(C(=O)N2CCN(c3ccccc3)CC2)cc1)c1cn(-c2ccccc2)c(=O)[n-]1 (protonated)
O=C(Nc1ccc(C(=O)N2CCN(c3ccccc3)CC2)cc1)c1cn(-c2ccccc2)c(=O)[n-]1 (3D coordinates assigned)
O=C(Nc1ccc(C(=O)N2CCN(c3ccccc3)CC2)cc1)c1cn(-c2ccccc2)c(=O)[n-]1 (nonaromatic ring conformer: 114.19254972884376 kcal/mol)

>  <smiles>  (53) 
O=C(Nc1ccc(C(=O)N2CCN(c3ccccc3)CC2)cc1)c1cn(-c2ccccc2)c(=O)[nH]1

>  <score_type>  (53) 
oracle

>  <origin>  (53) 
adg

>  <m_score__min__energy>  (53) 
-10.039999999999999

>  <m_primary>  (53) 
energy

$$$$
53:0
     RDKit          3D

 53 55  0  0  0  0  0  0  0  0999 V2000
   50.9740   31.7450   49.3820 C   0  0  0  0  0  0  0  0  0  0  0  0
   51.1200   32.2850   50.6920 O   0  0  0  0  0  0  0  0  0  0  0  0
   51.6440   31.5790   51.7860 C   0  0  0  0  0  0  0  0  0  0  0  0
   50.8590   31.2140   52.8930 C   0  0  0  0  0  0  0  0  0  0  0  0
   51.4320   30.5330   53.9690 C   0  0  0  0  0  0  0  0  0  0  0  0
   52.7970   30.1930   53.9520 C   0  0  0  0  0  0  0  0  0  0  0  0
   53.4110   29.5180   55.0200 O   0  0  0  0  0  0  0  0  0  0  0  0
   54.3750   30.0960   55.8930 C   0  0  0  0  0  0  0  0  0  0  0  0
   53.5800   30.5290   52.8360 C   0  0  0  0  0  0  0  0  0  0  0  0
   54.9770   30.1960   52.8480 N   0  0  0  0  0  0  0  0  0  0  0  0
   56.0360   30.9000   52.1880 C   0  0  0  0  0  0  0  0  0  0  0  0
   55.9890   32.1540   52.0660 O   0  0  0  0  0  0  0  0  0  0  0  0
   57.1430   30.1540   51.6600 N   0  0  0  0  0  0  0  0  0  0  0  0
   58.1670   30.6990   50.8070 C   0  0  0  0  0  0  0  0  0  0  0  0
   58.8830   31.8280   51.2320 C   0  0  0  0  0  0  0  0  0  0  0  0
   59.8960   32.3670   50.4330 C   0  0  0  0  0  0  0  0  0  0  0  0
   60.2120   31.7790   49.2010 C   0  0  0  0  0  0  0  0  0  0  0  0
   61.4490   32.4750   48.1590 S   0  0  0  0  0  0  0  0  0  0  0  0
   62.7420   31.7420   48.3850 O   0  0  0  0  0  0  0  0  0  0  0  0
   61.6640   33.9300   48.4690 O   0  0  0  0  0  0  0  0  0  0  0  0
   60.9750   32.2940   46.5010 N   0  0  0  0  0  0  0  0  0  0  0  0
   59.6220   32.1960   46.0330 C   0  0  0  0  0  0  0  0  0  0  0  0
   58.8990   33.3750   45.8130 C   0  0  0  0  0  0  0  0  0  0  0  0
   57.5850   33.3200   45.3400 C   0  0  0  0  0  0  0  0  0  0  0  0
   56.9830   32.0860   45.0820 C   0  0  0  0  0  0  0  0  0  0  0  0
   57.6930   30.8960   45.2980 C   0  0  0  0  0  0  0  0  0  0  0  0
   56.9330   29.3470   44.9410 S   0  0  0  0  0  0  0  0  0  0  0  0
   55.2190   29.5450   44.8650 N   0  0  0  0  0  0  0  0  0  0  0  0
   57.4430   28.8340   43.6230 O   0  0  0  0  0  0  0  0  0  0  0  0
   57.2620   28.3460   46.0120 O   0  0  0  0  0  0  0  0  0  0  0  0
   59.0070   30.9530   45.7830 C   0  0  0  0  0  0  0  0  0  0  0  0
   59.5200   30.6350   48.7850 C   0  0  0  0  0  0  0  0  0  0  0  0
   58.5130   30.0900   49.5850 C   0  0  0  0  0  0  0  0  0  0  0  0
   53.0000   31.2390   51.7680 C   0  0  0  0  0  0  0  0  0  0  0  0
   50.6875   30.6853   49.4521 H   0  0  0  0  0  0  0  0  0  0  0  0
   50.1939   32.3008   48.8412 H   0  0  0  0  0  0  0  0  0  0  0  0
   51.9279   31.8319   48.8412 H   0  0  0  0  0  0  0  0  0  0  0  0
   49.7884   31.4659   52.9120 H   0  0  0  0  0  0  0  0  0  0  0  0
   50.8119   30.2606   54.8357 H   0  0  0  0  0  0  0  0  0  0  0  0
   54.0778   29.9178   56.9370 H   0  0  0  0  0  0  0  0  0  0  0  0
   55.3580   29.6382   55.7084 H   0  0  0  0  0  0  0  0  0  0  0  0
   54.4343   31.1788   55.7084 H   0  0  0  0  0  0  0  0  0  0  0  0
   57.2480   29.1650   51.9820 H   0  0  0  0  0  0  0  0  0  0  0  0
   58.6459   32.2925   52.2005 H   0  0  0  0  0  0  0  0  0  0  0  0
   60.4471   33.2562   50.7730 H   0  0  0  0  0  0  0  0  0  0  0  0
   59.3678   34.3497   46.0136 H   0  0  0  0  0  0  0  0  0  0  0  0
   57.0235   34.2506   45.1705 H   0  0  0  0  0  0  0  0  0  0  0  0
   55.9491   32.0476   44.7084 H   0  0  0  0  0  0  0  0  0  0  0  0
   54.8460   29.3560   45.8230 H   0  0  0  0  0  0  0  0  0  0  0  0
   59.5616   30.0215   45.9696 H   0  0  0  0  0  0  0  0  0  0  0  0
   59.7706   30.1632   47.8235 H   0  0  0  0  0  0  0  0  0  0  0  0
   57.9874   29.1804   49.2589 H   0  0  0  0  0  0  0  0  0  0  0  0
   53.6215   31.5301   50.9083 H   0  0  0  0  0  0  0  0  0  0  0  0
  1  2  1  0
  2  3  1  0
  3  4  2  0
  4  5  1  0
  5  6  2  0
  6  7  1  0
  7  8  1  0
  6  9  1  0
  9 10  1  0
 10 11  1  0
 11 12  2  0
 11 13  1  0
 13 14  1  0
 14 15  2  0
 15 16  1  0
 16 17  2  0
 17 18  1  0
 18 19  2  0
 18 20  2  0
 18 21  1  0
 21 22  1  0
 22 23  2  0
 23 24  1  0
 24 25  2  0
 25 26  1  0
 26 27  1  0
 27 28  1  0
 27 29  2  0
 27 30  2  0
 26 31  2  0
 17 32  1  0
 32 33  2  0
  9 34  2  0
 34  3  1  0
 33 14  1  0
 31 22  1  0
  1 35  1  0
  1 36  1  0
  1 37  1  0
  4 38  1  0
  5 39  1  0
  8 40  1  0
  8 41  1  0
  8 42  1  0
 13 43  1  0
 15 44  1  0
 16 45  1  0
 23 46  1  0
 24 47  1  0
 25 48  1  0
 28 49  1  0
 31 50  1  0
 32 51  1  0
 33 52  1  0
 34 53  1  0
M  CHG  3  10  -1  21  -1  28  -1
M  END
>  <UniqueID>  (54) 
51

>  <SMILES>  (54) 
COc1ccc(OC)c([N-]C(=O)Nc2ccc(S(=O)(=O)[N-]c3cccc(S([NH-])(=O)=O)c3)cc2)c1

>  <Energy>  (54) 
64.07530460324176

>  <Genealogy>  (54) 
COc1ccc(OC)c([N-]C(=O)Nc2ccc(S(=O)(=O)[N-]c3cccc(S([NH-])(=O)=O)c3)cc2)c1 (protonated)
COc1ccc(OC)c([N-]C(=O)Nc2ccc(S(=O)(=O)[N-]c3cccc(S([NH-])(=O)=O)c3)cc2)c1 (3D coordinates assigned)
COc1ccc(OC)c([N-]C(=O)Nc2ccc(S(=O)(=O)[N-]c3cccc(S([NH-])(=O)=O)c3)cc2)c1 (optimized conformer: 64.07530460324176 kcal/mol)

>  <smiles>  (54) 
COc1ccc(OC)c(NC(=O)Nc2ccc(S(=O)(=O)Nc3cccc(S(N)(=O)=O)c3)cc2)c1

>  <score_type>  (54) 
oracle

>  <origin>  (54) 
adg

>  <m_score__min__energy>  (54) 
-13.67

>  <m_primary>  (54) 
energy

$$$$
54:0
     RDKit          3D

 48 50  0  0  0  0  0  0  0  0999 V2000
   57.4520   32.2840   41.5230 C   0  0  0  0  0  0  0  0  0  0  0  0
   58.0760   31.9210   42.7510 O   0  0  0  0  0  0  0  0  0  0  0  0
   58.0280   32.6890   43.9240 C   0  0  0  0  0  0  0  0  0  0  0  0
   58.8640   33.8060   44.1240 C   0  0  0  0  0  0  0  0  0  0  0  0
   58.7810   34.5460   45.3060 C   0  0  0  0  0  0  0  0  0  0  0  0
   57.8670   34.1840   46.2980 C   0  0  0  0  0  0  0  0  0  0  0  0
   57.0360   33.0770   46.1110 C   0  0  0  0  0  0  0  0  0  0  0  0
   57.1170   32.3260   44.9330 C   0  0  0  0  0  0  0  0  0  0  0  0
   56.2820   31.1810   44.7710 N   0  0  0  0  0  0  0  0  0  0  0  0
   56.9530   29.5860   44.8080 S   0  0  0  0  0  0  0  0  0  0  0  0
   57.4120   29.2120   43.4270 O   0  0  0  0  0  0  0  0  0  0  0  0
   55.9020   28.6060   45.2470 O   0  0  0  0  0  0  0  0  0  0  0  0
   58.3230   29.5450   45.9140 C   0  0  0  0  0  0  0  0  0  0  0  0
   58.4310   28.5140   46.8550 C   0  0  0  0  0  0  0  0  0  0  0  0
   59.4680   28.5230   47.7890 C   0  0  0  0  0  0  0  0  0  0  0  0
   60.4050   29.5590   47.7880 C   0  0  0  0  0  0  0  0  0  0  0  0
   60.3190   30.5950   46.8370 C   0  0  0  0  0  0  0  0  0  0  0  0
   61.2340   31.7040   46.8450 N   0  0  0  0  0  0  0  0  0  0  0  0
   62.2480   31.9140   47.8400 C   0  0  0  0  0  0  0  0  0  0  0  0
   62.6360   30.9630   48.5690 O   0  0  0  0  0  0  0  0  0  0  0  0
   62.9040   33.2560   47.9740 C   0  0  0  0  0  0  0  0  0  0  0  0
   62.3350   34.1300   49.4760 S   0  0  0  0  0  0  0  0  0  0  0  0
   60.8390   33.1540   49.6760 C   0  0  0  0  0  0  0  0  0  0  0  0
   59.7150   33.4300   48.8870 C   0  0  0  0  0  0  0  0  0  0  0  0
   58.5510   32.6700   49.0360 C   0  0  0  0  0  0  0  0  0  0  0  0
   58.5050   31.6390   49.9790 C   0  0  0  0  0  0  0  0  0  0  0  0
   59.6230   31.3690   50.7760 C   0  0  0  0  0  0  0  0  0  0  0  0
   60.7890   32.1280   50.6270 C   0  0  0  0  0  0  0  0  0  0  0  0
   59.2630   30.5850   45.9130 C   0  0  0  0  0  0  0  0  0  0  0  0
   56.5186   32.8270   41.7325 H   0  0  0  0  0  0  0  0  0  0  0  0
   58.1294   32.9290   40.9441 H   0  0  0  0  0  0  0  0  0  0  0  0
   57.2262   31.3763   40.9441 H   0  0  0  0  0  0  0  0  0  0  0  0
   59.5851   34.0964   43.3458 H   0  0  0  0  0  0  0  0  0  0  0  0
   59.4372   35.4160   45.4558 H   0  0  0  0  0  0  0  0  0  0  0  0
   57.8016   34.7705   47.2263 H   0  0  0  0  0  0  0  0  0  0  0  0
   56.3153   32.7945   46.8925 H   0  0  0  0  0  0  0  0  0  0  0  0
   57.6968   27.6949   46.8582 H   0  0  0  0  0  0  0  0  0  0  0  0
   59.5477   27.7121   48.5280 H   0  0  0  0  0  0  0  0  0  0  0  0
   61.2140   29.5660   48.5333 H   0  0  0  0  0  0  0  0  0  0  0  0
   61.1810   32.3910   46.0570 H   0  0  0  0  0  0  0  0  0  0  0  0
   63.9937   33.1175   48.0317 H   0  0  0  0  0  0  0  0  0  0  0  0
   62.6335   33.8626   47.0972 H   0  0  0  0  0  0  0  0  0  0  0  0
   59.7482   34.2455   48.1495 H   0  0  0  0  0  0  0  0  0  0  0  0
   57.6712   32.8833   48.4111 H   0  0  0  0  0  0  0  0  0  0  0  0
   57.5897   31.0399   50.0945 H   0  0  0  0  0  0  0  0  0  0  0  0
   59.5852   30.5597   51.5200 H   0  0  0  0  0  0  0  0  0  0  0  0
   61.6661   31.9185   51.2570 H   0  0  0  0  0  0  0  0  0  0  0  0
   59.1719   31.4010   45.1809 H   0  0  0  0  0  0  0  0  0  0  0  0
  1  2  1  0
  2  3  1  0
  3  4  2  0
  4  5  1  0
  5  6  2  0
  6  7  1  0
  7  8  2  0
  8  9  1  0
  9 10  1  0
 10 11  2  0
 10 12  2  0
 10 13  1  0
 13 14  2  0
 14 15  1  0
 15 16  2  0
 16 17  1  0
 17 18  1  0
 18 19  1  0
 19 20  2  0
 19 21  1  0
 21 22  1  0
 22 23  1  0
 23 24  2  0
 24 25  1  0
 25 26  2  0
 26 27  1  0
 27 28  2  0
 17 29  2  0
  8  3  1  0
 29 13  1  0
 28 23  1  0
  1 30  1  0
  1 31  1  0
  1 32  1  0
  4 33  1  0
  5 34  1  0
  6 35  1  0
  7 36  1  0
 14 37  1  0
 15 38  1  0
 16 39  1  0
 18 40  1  0
 21 41  1  0
 21 42  1  0
 24 43  1  0
 25 44  1  0
 26 45  1  0
 27 46  1  0
 28 47  1  0
 29 48  1  0
M  CHG  1   9  -1
M  END
>  <UniqueID>  (55) 
52

>  <SMILES>  (55) 
COc1ccccc1[N-]S(=O)(=O)c1cccc(NC(=O)CSc2ccccc2)c1

>  <Energy>  (55) 
54.03385993715304

>  <Genealogy>  (55) 
COc1ccccc1[N-]S(=O)(=O)c1cccc(NC(=O)CSc2ccccc2)c1 (protonated)
COc1ccccc1[N-]S(=O)(=O)c1cccc(NC(=O)CSc2ccccc2)c1 (3D coordinates assigned)
COc1ccccc1[N-]S(=O)(=O)c1cccc(NC(=O)CSc2ccccc2)c1 (optimized conformer: 54.03385993715304 kcal/mol)

>  <smiles>  (55) 
COc1ccccc1NS(=O)(=O)c1cccc(NC(=O)CSc2ccccc2)c1

>  <score_type>  (55) 
oracle

>  <origin>  (55) 
adg

>  <m_score__min__energy>  (55) 
-11.32

>  <m_primary>  (55) 
energy

$$$$
55:0
     RDKit          3D

 51 54  0  0  0  0  0  0  0  0999 V2000
   58.1700   31.9120   51.5950 O   0  0  0  0  0  0  0  0  0  0  0  0
   57.8210   30.7120   51.7710 C   0  0  0  0  0  0  0  0  0  0  0  0
   58.8060   29.6690   51.6990 N   0  0  0  0  0  0  0  0  0  0  0  0
   60.1310   29.8890   51.1250 C   0  0  0  0  0  0  0  0  0  0  0  0
   60.1190   29.5590   49.6580 C   0  0  0  0  0  0  0  0  0  0  0  0
   60.9350   30.2650   48.7590 C   0  0  0  0  0  0  0  0  0  0  0  0
   60.8880   29.9800   47.3920 C   0  0  0  0  0  0  0  0  0  0  0  0
   60.0240   28.9880   46.9070 C   0  0  0  0  0  0  0  0  0  0  0  0
   59.9320   28.6330   45.1850 S   0  0  0  0  0  0  0  0  0  0  0  0
   59.3380   27.2630   45.0060 O   0  0  0  0  0  0  0  0  0  0  0  0
   61.3070   28.6500   44.5750 O   0  0  0  0  0  0  0  0  0  0  0  0
   58.9250   29.8260   44.4000 N   0  0  0  0  0  0  0  0  0  0  0  0
   57.7290   29.2020   43.7890 C   0  0  0  0  0  0  0  0  0  0  0  0
   56.4460   29.4940   44.5880 C   0  0  0  0  0  0  0  0  0  0  0  0
   56.1830   30.8820   44.7310 O   0  0  0  0  0  0  0  0  0  0  0  0
   57.3530   31.6790   44.8730 C   0  0  0  0  0  0  0  0  0  0  0  0
   58.5910   30.9020   45.3500 C   0  0  0  0  0  0  0  0  0  0  0  0
   59.2050   28.2870   47.8020 C   0  0  0  0  0  0  0  0  0  0  0  0
   59.2500   28.5720   49.1680 C   0  0  0  0  0  0  0  0  0  0  0  0
   56.4000   30.4020   52.0580 C   0  0  0  0  0  0  0  0  0  0  0  0
   56.0680   29.2580   52.8050 C   0  0  0  0  0  0  0  0  0  0  0  0
   54.7340   28.9570   53.0920 C   0  0  0  0  0  0  0  0  0  0  0  0
   53.7080   29.7970   52.6430 C   0  0  0  0  0  0  0  0  0  0  0  0
   52.3650   29.5040   52.9270 C   0  0  0  0  0  0  0  0  0  0  0  0
   51.3510   30.3550   52.4790 C   0  0  0  0  0  0  0  0  0  0  0  0
   51.6670   31.5040   51.7480 C   0  0  0  0  0  0  0  0  0  0  0  0
   50.6530   32.3460   51.3070 O   0  0  0  0  0  0  0  0  0  0  0  0
   53.0020   31.8070   51.4600 C   0  0  0  0  0  0  0  0  0  0  0  0
   54.0300   30.9590   51.9010 C   0  0  0  0  0  0  0  0  0  0  0  0
   55.3720   31.2540   51.6160 C   0  0  0  0  0  0  0  0  0  0  0  0
   58.5910   28.7240   52.0880 H   0  0  0  0  0  0  0  0  0  0  0  0
   60.4151   30.9433   51.2586 H   0  0  0  0  0  0  0  0  0  0  0  0
   60.8571   29.2387   51.6348 H   0  0  0  0  0  0  0  0  0  0  0  0
   61.6140   31.0456   49.1327 H   0  0  0  0  0  0  0  0  0  0  0  0
   61.5311   30.5358   46.6938 H   0  0  0  0  0  0  0  0  0  0  0  0
   57.6074   29.5944   42.7686 H   0  0  0  0  0  0  0  0  0  0  0  0
   57.8825   28.1128   43.7846 H   0  0  0  0  0  0  0  0  0  0  0  0
   55.5960   29.0283   44.0678 H   0  0  0  0  0  0  0  0  0  0  0  0
   56.5871   29.0810   45.5977 H   0  0  0  0  0  0  0  0  0  0  0  0
   57.5838   32.1299   43.8966 H   0  0  0  0  0  0  0  0  0  0  0  0
   57.1327   32.4286   45.6473 H   0  0  0  0  0  0  0  0  0  0  0  0
   59.4435   31.5928   45.4283 H   0  0  0  0  0  0  0  0  0  0  0  0
   58.3730   30.4544   46.3309 H   0  0  0  0  0  0  0  0  0  0  0  0
   58.5238   27.5090   47.4269 H   0  0  0  0  0  0  0  0  0  0  0  0
   58.6010   28.0201   49.8638 H   0  0  0  0  0  0  0  0  0  0  0  0
   56.8663   28.5934   53.1670 H   0  0  0  0  0  0  0  0  0  0  0  0
   54.4889   28.0559   53.6734 H   0  0  0  0  0  0  0  0  0  0  0  0
   52.1101   28.6025   53.5035 H   0  0  0  0  0  0  0  0  0  0  0  0
   50.2999   30.1198   52.7025 H   0  0  0  0  0  0  0  0  0  0  0  0
   53.2470   32.7128   50.8860 H   0  0  0  0  0  0  0  0  0  0  0  0
   55.6219   32.1587   51.0424 H   0  0  0  0  0  0  0  0  0  0  0  0
  1  2  2  0
  2  3  1  0
  3  4  1  0
  4  5  1  0
  5  6  2  0
  6  7  1  0
  7  8  2  0
  8  9  1  0
  9 10  2  0
  9 11  2  0
  9 12  1  0
 12 13  1  0
 13 14  1  0
 14 15  1  0
 15 16  1  0
 16 17  1  0
  8 18  1  0
 18 19  2  0
  2 20  1  0
 20 21  2  0
 21 22  1  0
 22 23  2  0
 23 24  1  0
 24 25  2  0
 25 26  1  0
 26 27  1  0
 26 28  2  0
 28 29  1  0
 29 30  2  0
 19  5  1  0
 30 20  1  0
 17 12  1  0
 29 23  1  0
  3 31  1  0
  4 32  1  0
  4 33  1  0
  6 34  1  0
  7 35  1  0
 13 36  1  0
 13 37  1  0
 14 38  1  0
 14 39  1  0
 16 40  1  0
 16 41  1  0
 17 42  1  0
 17 43  1  0
 18 44  1  0
 19 45  1  0
 21 46  1  0
 22 47  1  0
 24 48  1  0
 25 49  1  0
 28 50  1  0
 30 51  1  0
M  CHG  1  27  -1
M  END
>  <UniqueID>  (56) 
53

>  <SMILES>  (56) 
O=C(NCc1ccc(S(=O)(=O)N2CCOCC2)cc1)c1ccc2ccc([O-])cc2c1

>  <Energy>  (56) 
69.59558795504178

>  <Genealogy>  (56) 
O=C(NCc1ccc(S(=O)(=O)N2CCOCC2)cc1)c1ccc2ccc([O-])cc2c1 (protonated)
O=C(NCc1ccc(S(=O)(=O)N2CCOCC2)cc1)c1ccc2ccc([O-])cc2c1 (3D coordinates assigned)
O=C(NCc1ccc(S(=O)(=O)N2CCOCC2)cc1)c1ccc2ccc([O-])cc2c1 (nonaromatic ring conformer: 69.59558795504178 kcal/mol)

>  <smiles>  (56) 
O=C(NCc1ccc(S(=O)(=O)N2CCOCC2)cc1)c1ccc2ccc(O)cc2c1

>  <score_type>  (56) 
oracle

>  <origin>  (56) 
adg

>  <m_score__min__energy>  (56) 
-12.9

>  <m_primary>  (56) 
energy

$$$$
56:0
     RDKit          3D

 50 52  0  0  0  0  0  0  0  0999 V2000
   54.3810   26.1210   45.9920 N   0  0  0  0  0  0  0  0  0  0  0  0
   55.6250   24.9230   46.0050 S   0  0  0  0  0  0  0  0  0  0  0  0
   55.5190   24.1010   47.2600 O   0  0  0  0  0  0  0  0  0  0  0  0
   55.4570   24.0150   44.8190 O   0  0  0  0  0  0  0  0  0  0  0  0
   57.1980   25.7090   45.9390 C   0  0  0  0  0  0  0  0  0  0  0  0
   58.3660   24.9710   46.1710 C   0  0  0  0  0  0  0  0  0  0  0  0
   59.6150   25.5910   46.0960 C   0  0  0  0  0  0  0  0  0  0  0  0
   59.7060   26.9520   45.7920 C   0  0  0  0  0  0  0  0  0  0  0  0
   58.5410   27.7090   45.5700 C   0  0  0  0  0  0  0  0  0  0  0  0
   58.6070   29.1030   45.2270 N   0  0  0  0  0  0  0  0  0  0  0  0
   57.8850   29.7000   44.1380 C   0  0  0  0  0  0  0  0  0  0  0  0
   57.3640   28.9810   43.2420 O   0  0  0  0  0  0  0  0  0  0  0  0
   57.7960   31.1930   44.0300 C   0  0  0  0  0  0  0  0  0  0  0  0
   57.5390   31.7890   45.3550 N   0  0  0  0  0  0  0  0  0  0  0  0
   58.7860   31.8300   46.1530 C   0  0  0  0  0  0  0  0  0  0  0  0
   58.6600   32.8040   47.3310 C   0  0  0  0  0  0  0  0  0  0  0  0
   58.3850   34.1970   46.8900 N   0  0  0  0  0  0  0  0  0  0  0  0
   59.5770   35.0630   46.9980 C   0  0  0  0  0  0  0  0  0  0  0  0
   60.7520   34.2790   47.5260 C   0  0  0  0  0  0  0  0  0  0  0  0
   61.7100   33.7520   46.6430 C   0  0  0  0  0  0  0  0  0  0  0  0
   62.7940   33.0170   47.1340 C   0  0  0  0  0  0  0  0  0  0  0  0
   62.9300   32.8050   48.5090 C   0  0  0  0  0  0  0  0  0  0  0  0
   61.9830   33.3250   49.3940 C   0  0  0  0  0  0  0  0  0  0  0  0
   60.8970   34.0610   48.9090 C   0  0  0  0  0  0  0  0  0  0  0  0
   59.9860   34.5580   49.7840 F   0  0  0  0  0  0  0  0  0  0  0  0
   57.8070   34.2810   45.5290 C   0  0  0  0  0  0  0  0  0  0  0  0
   56.8570   33.1060   45.2560 C   0  0  0  0  0  0  0  0  0  0  0  0
   57.2910   27.0730   45.6250 C   0  0  0  0  0  0  0  0  0  0  0  0
   54.7890   26.9890   46.4060 H   0  0  0  0  0  0  0  0  0  0  0  0
   58.2990   23.9000   46.4129 H   0  0  0  0  0  0  0  0  0  0  0  0
   60.5294   25.0068   46.2766 H   0  0  0  0  0  0  0  0  0  0  0  0
   60.6928   27.4335   45.7260 H   0  0  0  0  0  0  0  0  0  0  0  0
   59.2690   29.7110   45.7600 H   0  0  0  0  0  0  0  0  0  0  0  0
   58.7443   31.5851   43.6337 H   0  0  0  0  0  0  0  0  0  0  0  0
   56.9681   31.4536   43.3543 H   0  0  0  0  0  0  0  0  0  0  0  0
   58.9964   30.8226   46.5415 H   0  0  0  0  0  0  0  0  0  0  0  0
   59.6039   32.1742   45.5029 H   0  0  0  0  0  0  0  0  0  0  0  0
   57.8362   32.4697   47.9787 H   0  0  0  0  0  0  0  0  0  0  0  0
   59.6203   32.8063   47.8675 H   0  0  0  0  0  0  0  0  0  0  0  0
   59.8256   35.4627   46.0038 H   0  0  0  0  0  0  0  0  0  0  0  0
   59.3571   35.8867   47.6931 H   0  0  0  0  0  0  0  0  0  0  0  0
   61.6068   33.9184   45.5606 H   0  0  0  0  0  0  0  0  0  0  0  0
   63.5398   32.6056   46.4379 H   0  0  0  0  0  0  0  0  0  0  0  0
   63.7837   32.2281   48.8943 H   0  0  0  0  0  0  0  0  0  0  0  0
   62.0915   33.1553   50.4754 H   0  0  0  0  0  0  0  0  0  0  0  0
   57.2483   35.2238   45.4340 H   0  0  0  0  0  0  0  0  0  0  0  0
   58.6285   34.2418   44.7985 H   0  0  0  0  0  0  0  0  0  0  0  0
   56.0387   33.1358   45.9905 H   0  0  0  0  0  0  0  0  0  0  0  0
   56.4809   33.2117   44.2277 H   0  0  0  0  0  0  0  0  0  0  0  0
   56.3766   27.6490   45.4201 H   0  0  0  0  0  0  0  0  0  0  0  0
  1  2  1  0
  2  3  2  0
  2  4  2  0
  2  5  1  0
  5  6  2  0
  6  7  1  0
  7  8  2  0
  8  9  1  0
  9 10  1  0
 10 11  1  0
 11 12  2  0
 11 13  1  0
 13 14  1  0
 14 15  1  0
 15 16  1  0
 16 17  1  0
 17 18  1  0
 18 19  1  0
 19 20  2  0
 20 21  1  0
 21 22  2  0
 22 23  1  0
 23 24  2  0
 24 25  1  0
 17 26  1  0
 26 27  1  0
  9 28  2  0
 28  5  1  0
 27 14  1  0
 24 19  1  0
  1 29  1  0
  6 30  1  0
  7 31  1  0
  8 32  1  0
 10 33  1  0
 13 34  1  0
 13 35  1  0
 15 36  1  0
 15 37  1  0
 16 38  1  0
 16 39  1  0
 18 40  1  0
 18 41  1  0
 20 42  1  0
 21 43  1  0
 22 44  1  0
 23 45  1  0
 26 46  1  0
 26 47  1  0
 27 48  1  0
 27 49  1  0
 28 50  1  0
M  CHG  1   1  -1
M  END
>  <UniqueID>  (57) 
54

>  <SMILES>  (57) 
[NH-]S(=O)(=O)c1cccc(NC(=O)CN2CCN(Cc3ccccc3F)CC2)c1

>  <Energy>  (57) 
66.24697992843072

>  <Genealogy>  (57) 
[NH-]S(=O)(=O)c1cccc(NC(=O)CN2CCN(Cc3ccccc3F)CC2)c1 (protonated)
[NH-]S(=O)(=O)c1cccc(NC(=O)CN2CCN(Cc3ccccc3F)CC2)c1 (3D coordinates assigned)
[NH-]S(=O)(=O)c1cccc(NC(=O)CN2CCN(Cc3ccccc3F)CC2)c1 (nonaromatic ring conformer: 66.24697992843072 kcal/mol)

>  <smiles>  (57) 
NS(=O)(=O)c1cccc(NC(=O)CN2CCN(Cc3ccccc3F)CC2)c1

>  <score_type>  (57) 
oracle

>  <origin>  (57) 
adg

>  <m_score__min__energy>  (57) 
-12.73

>  <m_primary>  (57) 
energy

$$$$
57:0
     RDKit          3D

 35 38  0  0  0  0  0  0  0  0999 V2000
   58.4727   26.9928   47.6059 H   0  0  0  0  0  0  0  0  0  0  0  0
   58.1730   26.7530   46.5750 C   0  0  0  0  0  0  0  0  0  0  0  0
   58.6690   27.4820   45.5650 C   0  0  0  0  0  0  0  0  0  0  0  0
   59.5313   27.0735   45.0177 H   0  0  0  0  0  0  0  0  0  0  0  0
   58.1390   28.8040   45.1290 C   0  0  0  0  0  0  0  0  0  0  0  0
   58.6820   30.0360   45.5540 C   0  0  0  0  0  0  0  0  0  0  0  0
   59.5408   30.0471   46.2413 H   0  0  0  0  0  0  0  0  0  0  0  0
   58.1340   31.2430   45.1060 C   0  0  0  0  0  0  0  0  0  0  0  0
   58.5642   32.1980   45.4418 H   0  0  0  0  0  0  0  0  0  0  0  0
   57.0440   31.2400   44.2350 C   0  0  0  0  0  0  0  0  0  0  0  0
   56.6161   32.1913   43.8859 H   0  0  0  0  0  0  0  0  0  0  0  0
   56.4970   30.0300   43.8070 C   0  0  0  0  0  0  0  0  0  0  0  0
   55.6383   30.0279   43.1195 H   0  0  0  0  0  0  0  0  0  0  0  0
   57.0390   28.8200   44.2510 C   0  0  0  0  0  0  0  0  0  0  0  0
   56.6010   27.8702   43.9104 H   0  0  0  0  0  0  0  0  0  0  0  0
   57.2370   25.6390   46.3410 C   0  0  0  0  0  0  0  0  0  0  0  0
   57.5890   24.3290   46.3530 N   0  0  0  0  0  0  0  0  0  0  0  0
   56.4430   23.6590   46.0990 C   0  0  0  0  0  0  0  0  0  0  0  0
   55.3870   24.5130   45.9280 C   0  0  0  0  0  0  0  0  0  0  0  0
   54.1010   24.0630   45.6540 C   0  0  0  0  0  0  0  0  0  0  0  0
   53.2711   24.7725   45.5205 H   0  0  0  0  0  0  0  0  0  0  0  0
   53.8890   22.6780   45.5520 C   0  0  0  0  0  0  0  0  0  0  0  0
   52.6020   22.2270   45.2790 O   0  0  0  0  0  0  0  0  0  0  0  0
   54.9730   21.7640   45.7260 C   0  0  0  0  0  0  0  0  0  0  0  0
   54.8010   20.3620   45.6300 C   0  0  0  0  0  0  0  0  0  0  0  0
   53.5560   19.8020   45.3610 O   0  0  0  0  0  0  0  0  0  0  0  0
   55.8930   19.5050   45.8070 C   0  0  0  0  0  0  0  0  0  0  0  0
   55.7496   18.4171   45.7302 H   0  0  0  0  0  0  0  0  0  0  0  0
   57.1620   20.0170   46.0800 C   0  0  0  0  0  0  0  0  0  0  0  0
   58.0110   19.3312   46.2178 H   0  0  0  0  0  0  0  0  0  0  0  0
   57.3590   21.3940   46.1790 C   0  0  0  0  0  0  0  0  0  0  0  0
   58.3618   21.7918   46.3936 H   0  0  0  0  0  0  0  0  0  0  0  0
   56.2790   22.2720   46.0050 C   0  0  0  0  0  0  0  0  0  0  0  0
   55.8820   25.7810   46.0810 C   0  0  0  0  0  0  0  0  0  0  0  0
   55.1670   26.9700   45.9930 O   0  0  0  0  0  0  0  0  0  0  0  0
  1  2  1  0
  2  3  2  0
  3  4  1  0
  3  5  1  0
  5  6  2  0
  6  7  1  0
  6  8  1  0
  8  9  1  0
  8 10  2  0
 10 11  1  0
 10 12  1  0
 12 13  1  0
 12 14  2  0
 14 15  1  0
  2 16  1  0
 16 17  1  0
 17 18  1  0
 18 19  2  0
 19 20  1  0
 20 21  1  0
 20 22  2  0
 22 23  1  0
 22 24  1  0
 24 25  2  0
 25 26  1  0
 25 27  1  0
 27 28  1  0
 27 29  2  0
 29 30  1  0
 29 31  1  0
 31 32  1  0
 31 33  2  0
 19 34  1  0
 34 35  1  0
 14  5  1  0
 34 16  2  0
 33 18  1  0
 33 24  1  0
M  CHG  4  17  -1  23  -1  26  -1  35  -1
M  END
>  <UniqueID>  (58) 
55

>  <SMILES>  (58) 
[O-]c1c(/C=C/c2ccccc2)[n-]c2c1cc([O-])c1c([O-])cccc12

>  <Energy>  (58) 
81.51875213943774

>  <Genealogy>  (58) 
[O-]c1c(C=Cc2ccccc2)[n-]c2c1cc([O-])c1c([O-])cccc12 (protonated)
[O-]c1c(/C=C/c2ccccc2)[n-]c2c1cc([O-])c1c([O-])cccc12 (cis-trans isomerization)
[O-]c1c(/C=C/c2ccccc2)[n-]c2c1cc([O-])c1c([O-])cccc12 (3D coordinates assigned)
[O-]c1c(/C=C/c2ccccc2)[n-]c2c1cc([O-])c1c([O-])cccc12 (optimized conformer: 81.51875213943774 kcal/mol)

>  <smiles>  (58) 
Oc1c(C=Cc2ccccc2)[nH]c2c1cc(O)c1c(O)cccc12

>  <score_type>  (58) 
oracle

>  <origin>  (58) 
adg

>  <m_score__min__energy>  (58) 
-15.5

>  <m_primary>  (58) 
energy

$$$$
58:0
     RDKit          3D

 23 24  0  0  0  0  0  0  0  0999 V2000
   56.0980   30.2230   44.8700 O   0  0  0  0  0  0  0  0  0  0  0  0
   57.2440   29.7080   44.7620 C   0  0  0  0  0  0  0  0  0  0  0  0
   58.4120   30.5460   44.7360 N   0  0  0  0  0  0  0  0  0  0  0  0
   58.4320   31.9060   45.2020 C   0  0  0  0  0  0  0  0  0  0  0  0
   57.7780   32.8990   44.4580 C   0  0  0  0  0  0  0  0  0  0  0  0
   57.7990   34.2320   44.8810 C   0  0  0  0  0  0  0  0  0  0  0  0
   58.4880   34.5850   46.0440 C   0  0  0  0  0  0  0  0  0  0  0  0
   59.1620   33.6080   46.7830 C   0  0  0  0  0  0  0  0  0  0  0  0
   60.1260   34.0970   48.3580 Br  0  0  0  0  0  0  0  0  0  0  0  0
   59.1410   32.2730   46.3620 C   0  0  0  0  0  0  0  0  0  0  0  0
   57.3590   28.2460   44.6200 C   0  0  0  0  0  0  0  0  0  0  0  0
   57.7860   27.5480   43.4950 C   0  0  0  0  0  0  0  0  0  0  0  0
   57.8030   26.1590   43.6770 C   0  0  0  0  0  0  0  0  0  0  0  0
   57.3950   25.7570   44.9410 C   0  0  0  0  0  0  0  0  0  0  0  0
   57.0160   27.1300   45.8330 S   0  0  0  0  0  0  0  0  0  0  0  0
   59.2670   30.1840   44.2570 H   0  0  0  0  0  0  0  0  0  0  0  0
   57.2447   32.6274   43.5351 H   0  0  0  0  0  0  0  0  0  0  0  0
   57.2731   35.0024   44.2980 H   0  0  0  0  0  0  0  0  0  0  0  0
   58.5002   35.6328   46.3787 H   0  0  0  0  0  0  0  0  0  0  0  0
   59.6804   31.5078   46.9395 H   0  0  0  0  0  0  0  0  0  0  0  0
   58.0811   28.0382   42.5555 H   0  0  0  0  0  0  0  0  0  0  0  0
   58.1109   25.4532   42.8915 H   0  0  0  0  0  0  0  0  0  0  0  0
   57.3307   24.7184   45.2977 H   0  0  0  0  0  0  0  0  0  0  0  0
  1  2  2  0
  2  3  1  0
  3  4  1  0
  4  5  2  0
  5  6  1  0
  6  7  2  0
  7  8  1  0
  8  9  1  0
  8 10  2  0
  2 11  1  0
 11 12  2  0
 12 13  1  0
 13 14  2  0
 14 15  1  0
 10  4  1  0
 15 11  1  0
  3 16  1  0
  5 17  1  0
  6 18  1  0
  7 19  1  0
 10 20  1  0
 12 21  1  0
 13 22  1  0
 14 23  1  0
M  END
>  <UniqueID>  (59) 
56

>  <SMILES>  (59) 
O=C(Nc1cccc(Br)c1)c1cccs1

>  <Energy>  (59) 
52.67681034276913

>  <Genealogy>  (59) 
O=C(Nc1cccc(Br)c1)c1cccs1 (3D coordinates assigned)
O=C(Nc1cccc(Br)c1)c1cccs1 (optimized conformer: 52.67681034276913 kcal/mol)

>  <smiles>  (59) 
O=C(Nc1cccc(Br)c1)c1cccs1

>  <score_type>  (59) 
oracle

>  <origin>  (59) 
adg

>  <m_score__min__energy>  (59) 
-6.4800000000000004

>  <m_primary>  (59) 
energy

$$$$
59:0
     RDKit          3D

 53 56  0  0  0  0  0  0  0  0999 V2000
   54.7310   28.5820   44.5060 H   0  0  0  0  0  0  0  0  0  0  0  0
   55.6490   29.0000   44.5630 O   0  0  0  0  0  0  0  0  0  0  0  0
   56.7370   28.3770   45.1810 C   0  0  0  0  0  0  0  0  0  0  0  0
   56.4820   27.1760   45.8530 C   0  0  0  0  0  0  0  0  0  0  0  0
   55.1570   26.7740   46.0170 O   0  0  0  0  0  0  0  0  0  0  0  0
   57.5370   26.3720   46.3280 C   0  0  0  0  0  0  0  0  0  0  0  0
   57.2650   25.2670   47.0430 C   0  0  0  0  0  0  0  0  0  0  0  0
   58.0862   24.6369   47.4154 H   0  0  0  0  0  0  0  0  0  0  0  0
   56.2212   24.9927   47.2558 H   0  0  0  0  0  0  0  0  0  0  0  0
   58.8710   26.7660   46.0540 C   0  0  0  0  0  0  0  0  0  0  0  0
   60.0010   25.9460   46.3990 N   0  0  0  0  0  0  0  0  0  0  0  0
   60.9980   26.3730   47.1070 C   0  0  0  0  0  0  0  0  0  0  0  0
   61.8358   25.6993   47.3397 H   0  0  0  0  0  0  0  0  0  0  0  0
   61.0069   27.4094   47.4756 H   0  0  0  0  0  0  0  0  0  0  0  0
   59.1260   28.0130   45.4640 C   0  0  0  0  0  0  0  0  0  0  0  0
   60.4530   28.4000   45.2830 O   0  0  0  0  0  0  0  0  0  0  0  0
   58.0670   28.8720   45.0820 C   0  0  0  0  0  0  0  0  0  0  0  0
   58.3690   30.1220   44.6480 C   0  0  0  0  0  0  0  0  0  0  0  0
   58.9477   30.2011   43.7159 H   0  0  0  0  0  0  0  0  0  0  0  0
   57.9910   31.3880   45.3140 C   0  0  0  0  0  0  0  0  0  0  0  0
   58.3010   31.6790   46.6700 C   0  0  0  0  0  0  0  0  0  0  0  0
   59.1550   30.8070   47.5090 C   0  0  0  0  0  0  0  0  0  0  0  0
   58.5210   29.8370   48.3020 C   0  0  0  0  0  0  0  0  0  0  0  0
   57.4300   29.7119   48.2387 H   0  0  0  0  0  0  0  0  0  0  0  0
   59.2570   29.0310   49.1680 C   0  0  0  0  0  0  0  0  0  0  0  0
   58.7471   28.2643   49.7698 H   0  0  0  0  0  0  0  0  0  0  0  0
   60.6460   29.1940   49.2750 C   0  0  0  0  0  0  0  0  0  0  0  0
   61.4290   28.4240   50.1500 O   0  0  0  0  0  0  0  0  0  0  0  0
   62.1930   28.9580   51.2260 C   0  0  0  0  0  0  0  0  0  0  0  0
   61.7473   28.6465   52.1822 H   0  0  0  0  0  0  0  0  0  0  0  0
   63.2256   28.5839   51.1636 H   0  0  0  0  0  0  0  0  0  0  0  0
   62.1965   30.0562   51.1636 H   0  0  0  0  0  0  0  0  0  0  0  0
   61.2840   30.1580   48.4900 C   0  0  0  0  0  0  0  0  0  0  0  0
   62.3706   30.2986   48.5877 H   0  0  0  0  0  0  0  0  0  0  0  0
   60.5660   30.9530   47.5770 C   0  0  0  0  0  0  0  0  0  0  0  0
   61.3230   31.9830   46.7490 C   0  0  0  0  0  0  0  0  0  0  0  0
   62.3618   31.6377   46.6408 H   0  0  0  0  0  0  0  0  0  0  0  0
   60.7880   32.0619   45.7911 H   0  0  0  0  0  0  0  0  0  0  0  0
   61.3510   33.4210   47.3540 C   0  0  1  0  0  0  0  0  0  0  0  0
   60.6350   34.4000   46.4130 C   0  0  0  0  0  0  0  0  0  0  0  0
   60.0887   35.1470   47.0076 H   0  0  0  0  0  0  0  0  0  0  0  0
   61.3766   34.9075   45.7785 H   0  0  0  0  0  0  0  0  0  0  0  0
   59.9267   33.8471   45.7785 H   0  0  0  0  0  0  0  0  0  0  0  0
   60.4620   33.4490   48.9710 S   0  0  0  0  0  0  0  0  0  0  0  0
   61.9860   33.8430   49.8100 C   0  0  0  0  0  0  0  0  0  0  0  0
   62.0740   33.8710   51.0650 O   0  0  0  0  0  0  0  0  0  0  0  0
   63.1020   34.1030   48.9850 N   0  0  0  0  0  0  0  0  0  0  0  0
   62.7520   33.9130   47.6260 C   0  0  0  0  0  0  0  0  0  0  0  0
   63.5750   34.1650   46.7080 O   0  0  0  0  0  0  0  0  0  0  0  0
   57.7950   32.8420   47.1540 N   0  0  0  0  0  0  0  0  0  0  0  0
   56.9310   33.4920   45.8970 S   0  0  0  0  0  0  0  0  0  0  0  0
   57.1730   32.3450   44.7160 C   0  0  0  0  0  0  0  0  0  0  0  0
   56.7754   32.3426   43.6904 H   0  0  0  0  0  0  0  0  0  0  0  0
  1  2  1  0
  2  3  1  0
  3  4  2  0
  4  5  1  0
  4  6  1  0
  6  7  2  0
  7  8  1  0
  7  9  1  0
  6 10  1  0
 10 11  1  0
 11 12  2  0
 12 13  1  0
 12 14  1  0
 10 15  2  0
 15 16  1  0
 15 17  1  0
 17 18  2  0
 18 19  1  0
 18 20  1  0
 20 21  1  0
 21 22  1  0
 22 23  2  0
 23 24  1  0
 23 25  1  0
 25 26  1  0
 25 27  2  0
 27 28  1  0
 28 29  1  0
 29 30  1  0
 29 31  1  0
 29 32  1  0
 27 33  1  0
 33 34  1  0
 33 35  2  0
 35 36  1  0
 36 37  1  0
 36 38  1  0
 39 36  1  6
 39 40  1  0
 40 41  1  0
 40 42  1  0
 40 43  1  0
 39 44  1  0
 44 45  1  0
 45 46  2  0
 45 47  1  0
 47 48  1  0
 48 49  2  0
 21 50  2  0
 50 51  1  0
 51 52  1  0
 52 53  1  0
 17  3  1  0
 52 20  2  0
 35 22  1  0
 48 39  1  0
M  CHG  3   5  -1  16  -1  47  -1
M  END
>  <UniqueID>  (60) 
57

>  <SMILES>  (60) 
C=Nc1c([O-])/c(=C/c2csnc2-c2ccc(OC)cc2C[C@@]2(C)SC(=O)[N-]C2=O)c(O)c([O-])c1=C

>  <Energy>  (60) 
133.6570222497786

>  <Genealogy>  (60) 
C=Nc1c([O-])c(=Cc2csnc2-c2ccc(OC)cc2CC2(C)SC(=O)[N-]C2=O)c(O)c([O-])c1=C (protonated)
C=Nc1c([O-])c(=Cc2csnc2-c2ccc(OC)cc2C[C@@]2(C)SC(=O)[N-]C2=O)c(O)c([O-])c1=C (chirality)
C=Nc1c([O-])/c(=C/c2csnc2-c2ccc(OC)cc2C[C@@]2(C)SC(=O)[N-]C2=O)c(O)c([O-])c1=C (cis-trans isomerization)
C=Nc1c([O-])/c(=C/c2csnc2-c2ccc(OC)cc2C[C@@]2(C)SC(=O)[N-]C2=O)c(O)c([O-])c1=C (3D coordinates assigned)
C=Nc1c([O-])/c(=C/c2csnc2-c2ccc(OC)cc2C[C@@]2(C)SC(=O)[N-]C2=O)c(O)c([O-])c1=C (nonaromatic ring conformer: 133.6570222497786 kcal/mol)

>  <smiles>  (60) 
C=Nc1c(O)c(=Cc2csnc2-c2ccc(OC)cc2CC2(C)SC(=O)NC2=O)c(O)c(O)c1=C

>  <score_type>  (60) 
oracle

>  <origin>  (60) 
adg

>  <m_score__min__energy>  (60) 
-16

>  <m_primary>  (60) 
energy

$$$$
60:0
     RDKit          3D

 38 39  0  0  0  0  0  0  0  0999 V2000
   58.0370   32.3320   42.4620 C   0  0  0  0  0  0  0  0  0  0  0  0
   57.4760   31.1900   43.3040 C   0  0  0  0  0  0  0  0  0  0  0  0
   58.0650   31.1950   44.6540 N   0  0  0  0  0  0  0  0  0  0  0  0
   57.8350   32.3420   45.5410 C   0  0  0  0  0  0  0  0  0  0  0  0
   59.1390   32.8820   46.0490 C   0  0  0  0  0  0  0  0  0  0  0  0
   59.5610   33.9850   45.6070 O   0  0  0  0  0  0  0  0  0  0  0  0
   59.9310   32.1090   46.9640 N   0  0  0  0  0  0  0  0  0  0  0  0
   61.1540   32.5740   47.5600 C   0  0  0  0  0  0  0  0  0  0  0  0
   61.1820   33.7100   48.3880 C   0  0  0  0  0  0  0  0  0  0  0  0
   62.3820   34.1270   48.9740 C   0  0  0  0  0  0  0  0  0  0  0  0
   63.5580   33.4070   48.7480 C   0  0  0  0  0  0  0  0  0  0  0  0
   64.7200   33.8120   49.3180 F   0  0  0  0  0  0  0  0  0  0  0  0
   63.5350   32.2650   47.9450 C   0  0  0  0  0  0  0  0  0  0  0  0
   62.3360   31.8440   47.3590 C   0  0  0  0  0  0  0  0  0  0  0  0
   58.7180   30.0190   45.1730 C   0  0  0  0  0  0  0  0  0  0  0  0
   59.9740   30.0060   45.2880 O   0  0  0  0  0  0  0  0  0  0  0  0
   57.9480   28.8210   45.5730 C   0  0  0  0  0  0  0  0  0  0  0  0
   58.5820   27.7560   46.2300 C   0  0  0  0  0  0  0  0  0  0  0  0
   57.8510   26.6210   46.5890 C   0  0  0  0  0  0  0  0  0  0  0  0
   56.4930   26.5540   46.2730 C   0  0  0  0  0  0  0  0  0  0  0  0
   55.8190   25.5390   46.5890 O   0  0  0  0  0  0  0  0  0  0  0  0
   55.8960   27.5850   45.6170 N   0  0  0  0  0  0  0  0  0  0  0  0
   56.5850   28.7020   45.2620 C   0  0  0  0  0  0  0  0  0  0  0  0
   58.4242   33.1201   43.1245 H   0  0  0  0  0  0  0  0  0  0  0  0
   58.8518   31.9536   41.8272 H   0  0  0  0  0  0  0  0  0  0  0  0
   57.2395   32.7456   41.8272 H   0  0  0  0  0  0  0  0  0  0  0  0
   56.3852   31.3052   43.3864 H   0  0  0  0  0  0  0  0  0  0  0  0
   57.7254   30.2368   42.8149 H   0  0  0  0  0  0  0  0  0  0  0  0
   57.3088   33.1310   44.9837 H   0  0  0  0  0  0  0  0  0  0  0  0
   57.2277   32.0138   46.3974 H   0  0  0  0  0  0  0  0  0  0  0  0
   59.6600   31.1130   47.1220 H   0  0  0  0  0  0  0  0  0  0  0  0
   60.2562   34.2735   48.5759 H   0  0  0  0  0  0  0  0  0  0  0  0
   62.3997   35.0222   49.6130 H   0  0  0  0  0  0  0  0  0  0  0  0
   64.4603   31.6957   47.7728 H   0  0  0  0  0  0  0  0  0  0  0  0
   62.3197   30.9364   46.7377 H   0  0  0  0  0  0  0  0  0  0  0  0
   59.6555   27.8147   46.4627 H   0  0  0  0  0  0  0  0  0  0  0  0
   58.3406   25.7884   47.1154 H   0  0  0  0  0  0  0  0  0  0  0  0
   56.0718   29.5158   44.7288 H   0  0  0  0  0  0  0  0  0  0  0  0
  1  2  1  0
  2  3  1  0
  3  4  1  0
  4  5  1  0
  5  6  2  0
  5  7  1  0
  7  8  1  0
  8  9  2  0
  9 10  1  0
 10 11  2  0
 11 12  1  0
 11 13  1  0
 13 14  2  0
  3 15  1  0
 15 16  2  0
 15 17  1  0
 17 18  1  0
 18 19  2  0
 19 20  1  0
 20 21  2  0
 20 22  1  0
 22 23  1  0
 14  8  1  0
 23 17  2  0
  1 24  1  0
  1 25  1  0
  1 26  1  0
  2 27  1  0
  2 28  1  0
  4 29  1  0
  4 30  1  0
  7 31  1  0
  9 32  1  0
 10 33  1  0
 13 34  1  0
 14 35  1  0
 18 36  1  0
 19 37  1  0
 23 38  1  0
M  CHG  1  22  -1
M  END
>  <UniqueID>  (61) 
58

>  <SMILES>  (61) 
CCN(CC(=O)Nc1ccc(F)cc1)C(=O)c1ccc(=O)[n-]c1

>  <Energy>  (61) 
42.26296340479652

>  <Genealogy>  (61) 
CCN(CC(=O)Nc1ccc(F)cc1)C(=O)c1ccc(=O)[n-]c1 (protonated)
CCN(CC(=O)Nc1ccc(F)cc1)C(=O)c1ccc(=O)[n-]c1 (3D coordinates assigned)
CCN(CC(=O)Nc1ccc(F)cc1)C(=O)c1ccc(=O)[n-]c1 (optimized conformer: 42.26296340479652 kcal/mol)

>  <smiles>  (61) 
CCN(CC(=O)Nc1ccc(F)cc1)C(=O)c1ccc(=O)[nH]c1

>  <score_type>  (61) 
oracle

>  <origin>  (61) 
adg

>  <m_score__min__energy>  (61) 
-9.4000000000000004

>  <m_primary>  (61) 
energy

$$$$
61:0
     RDKit          3D

 52 55  0  0  0  0  0  0  0  0999 V2000
   61.2840   30.5350   47.8530 O   0  0  0  0  0  0  0  0  0  0  0  0
   60.8010   29.5250   48.4330 C   0  0  0  0  0  0  0  0  0  0  0  0
   59.9040   28.6510   47.7370 N   0  0  0  0  0  0  0  0  0  0  0  0
   59.0480   29.0130   46.6410 C   0  0  0  0  0  0  0  0  0  0  0  0
   59.3830   30.0420   45.7410 C   0  0  0  0  0  0  0  0  0  0  0  0
   58.5320   30.3500   44.6730 C   0  0  0  0  0  0  0  0  0  0  0  0
   57.3510   29.6260   44.4870 C   0  0  0  0  0  0  0  0  0  0  0  0
   56.2800   30.0200   43.1560 Cl  0  0  0  0  0  0  0  0  0  0  0  0
   57.0320   28.5740   45.3520 C   0  0  0  0  0  0  0  0  0  0  0  0
   57.8810   28.2640   46.4190 C   0  0  0  0  0  0  0  0  0  0  0  0
   61.1390   29.2410   49.7980 N   0  0  0  0  0  0  0  0  0  0  0  0
   62.1250   29.9850   50.5320 C   0  0  0  0  0  0  0  0  0  0  0  0
   62.7380   29.4040   51.6500 C   0  0  0  0  0  0  0  0  0  0  0  0
   63.7600   30.0790   52.3240 C   0  0  0  0  0  0  0  0  0  0  0  0
   64.1810   31.3350   51.8840 C   0  0  0  0  0  0  0  0  0  0  0  0
   63.5490   31.9420   50.7920 C   0  0  0  0  0  0  0  0  0  0  0  0
   64.1420   33.5170   50.1780 S   0  0  0  0  0  0  0  0  0  0  0  0
   62.7770   33.6590   49.0260 C   0  0  0  0  0  0  0  0  0  0  0  0
   61.5260   34.0840   49.4840 C   0  0  0  0  0  0  0  0  0  0  0  0
   60.4310   34.1040   48.6210 C   0  0  0  0  0  0  0  0  0  0  0  0
   60.5730   33.7160   47.2730 C   0  0  0  0  0  0  0  0  0  0  0  0
   59.4290   33.6980   46.3880 N   0  0  0  0  0  0  0  0  0  0  0  0
   59.5170   34.2500   45.0320 C   0  0  0  0  0  0  0  0  0  0  0  0
   58.4370   33.6330   44.1320 C   0  0  0  0  0  0  0  0  0  0  0  0
   57.0740   33.8160   44.6640 N   0  0  0  0  0  0  0  0  0  0  0  0
   56.9830   33.8520   46.1340 C   0  0  0  0  0  0  0  0  0  0  0  0
   58.1420   33.1380   46.8320 C   0  0  0  0  0  0  0  0  0  0  0  0
   61.8470   33.3250   46.8140 C   0  0  0  0  0  0  0  0  0  0  0  0
   62.9380   33.2930   47.6870 C   0  0  0  0  0  0  0  0  0  0  0  0
   62.5040   31.2800   50.1360 C   0  0  0  0  0  0  0  0  0  0  0  0
   60.3172   30.6064   45.8774 H   0  0  0  0  0  0  0  0  0  0  0  0
   58.7931   31.1628   43.9793 H   0  0  0  0  0  0  0  0  0  0  0  0
   56.1132   27.9905   45.1929 H   0  0  0  0  0  0  0  0  0  0  0  0
   57.6330   27.4277   47.0891 H   0  0  0  0  0  0  0  0  0  0  0  0
   60.8030   28.3360   50.1990 H   0  0  0  0  0  0  0  0  0  0  0  0
   62.4137   28.4125   51.9989 H   0  0  0  0  0  0  0  0  0  0  0  0
   64.2338   29.6190   53.2037 H   0  0  0  0  0  0  0  0  0  0  0  0
   65.0091   31.8478   52.3951 H   0  0  0  0  0  0  0  0  0  0  0  0
   61.4053   34.4039   50.5295 H   0  0  0  0  0  0  0  0  0  0  0  0
   59.4478   34.4253   48.9952 H   0  0  0  0  0  0  0  0  0  0  0  0
   59.3743   35.3399   45.0744 H   0  0  0  0  0  0  0  0  0  0  0  0
   60.5070   34.0144   44.6143 H   0  0  0  0  0  0  0  0  0  0  0  0
   58.4935   34.1065   43.1407 H   0  0  0  0  0  0  0  0  0  0  0  0
   58.6288   32.5511   44.0801 H   0  0  0  0  0  0  0  0  0  0  0  0
   56.6920   34.7160   44.2910 H   0  0  0  0  0  0  0  0  0  0  0  0
   56.9758   34.9034   46.4573 H   0  0  0  0  0  0  0  0  0  0  0  0
   56.0598   33.3242   46.4153 H   0  0  0  0  0  0  0  0  0  0  0  0
   58.0458   33.2680   47.9200 H   0  0  0  0  0  0  0  0  0  0  0  0
   58.1097   32.0687   46.5759 H   0  0  0  0  0  0  0  0  0  0  0  0
   61.9838   33.0426   45.7597 H   0  0  0  0  0  0  0  0  0  0  0  0
   63.9259   32.9789   47.3191 H   0  0  0  0  0  0  0  0  0  0  0  0
   61.9771   31.7752   49.3071 H   0  0  0  0  0  0  0  0  0  0  0  0
  1  2  2  0
  2  3  1  0
  3  4  1  0
  4  5  2  0
  5  6  1  0
  6  7  2  0
  7  8  1  0
  7  9  1  0
  9 10  2  0
  2 11  1  0
 11 12  1  0
 12 13  2  0
 13 14  1  0
 14 15  2  0
 15 16  1  0
 16 17  1  0
 17 18  1  0
 18 19  2  0
 19 20  1  0
 20 21  2  0
 21 22  1  0
 22 23  1  0
 23 24  1  0
 24 25  1  0
 25 26  1  0
 26 27  1  0
 21 28  1  0
 28 29  2  0
 16 30  2  0
 10  4  1  0
 30 12  1  0
 29 18  1  0
 27 22  1  0
  5 31  1  0
  6 32  1  0
  9 33  1  0
 10 34  1  0
 11 35  1  0
 13 36  1  0
 14 37  1  0
 15 38  1  0
 19 39  1  0
 20 40  1  0
 23 41  1  0
 23 42  1  0
 24 43  1  0
 24 44  1  0
 25 45  1  0
 26 46  1  0
 26 47  1  0
 27 48  1  0
 27 49  1  0
 28 50  1  0
 29 51  1  0
 30 52  1  0
M  CHG  1   3  -1
M  END
>  <UniqueID>  (62) 
59

>  <SMILES>  (62) 
O=C([N-]c1ccc(Cl)cc1)Nc1cccc(Sc2ccc(N3CCNCC3)cc2)c1

>  <Energy>  (62) 
65.80410856684584

>  <Genealogy>  (62) 
O=C([N-]c1ccc(Cl)cc1)Nc1cccc(Sc2ccc(N3CCNCC3)cc2)c1 (protonated)
O=C([N-]c1ccc(Cl)cc1)Nc1cccc(Sc2ccc(N3CCNCC3)cc2)c1 (3D coordinates assigned)
O=C([N-]c1ccc(Cl)cc1)Nc1cccc(Sc2ccc(N3CCNCC3)cc2)c1 (nonaromatic ring conformer: 65.80410856684584 kcal/mol)

>  <smiles>  (62) 
O=C(Nc1ccc(Cl)cc1)Nc1cccc(Sc2ccc(N3CCNCC3)cc2)c1

>  <score_type>  (62) 
oracle

>  <origin>  (62) 
adg

>  <m_score__min__energy>  (62) 
-10.73

>  <m_primary>  (62) 
energy

$$$$
62:0
     RDKit          3D

 50 52  0  0  0  0  0  0  0  0999 V2000
   58.7740   32.3140   49.2060 C   0  0  0  0  0  0  0  0  0  0  0  0
   59.3220   33.6740   48.7780 C   0  0  0  0  0  0  0  0  0  0  0  0
   60.6950   33.5480   48.1600 C   0  0  0  0  0  0  0  0  0  0  0  0
   61.6610   32.8940   48.8670 N   0  0  0  0  0  0  0  0  0  0  0  0
   62.9140   32.6960   48.3820 C   0  0  0  0  0  0  0  0  0  0  0  0
   63.2530   33.1670   47.1160 C   0  0  0  0  0  0  0  0  0  0  0  0
   62.3030   33.8580   46.3680 C   0  0  0  0  0  0  0  0  0  0  0  0
   61.0140   34.0750   46.8820 C   0  0  0  0  0  0  0  0  0  0  0  0
   60.0550   34.8610   46.0760 C   0  0  0  0  0  0  0  0  0  0  0  0
   59.7290   36.0170   46.4560 O   0  0  0  0  0  0  0  0  0  0  0  0
   59.5630   34.3850   44.8150 N   0  0  0  0  0  0  0  0  0  0  0  0
   58.6780   33.2720   44.6220 C   0  0  0  0  0  0  0  0  0  0  0  0
   58.2580   32.5400   45.7360 C   0  0  0  0  0  0  0  0  0  0  0  0
   57.4060   31.4420   45.5830 C   0  0  0  0  0  0  0  0  0  0  0  0
   56.9740   31.0460   44.3050 C   0  0  0  0  0  0  0  0  0  0  0  0
   56.0660   29.8870   44.1400 C   0  0  0  0  0  0  0  0  0  0  0  0
   55.5080   29.6750   43.0280 O   0  0  0  0  0  0  0  0  0  0  0  0
   55.8210   29.0010   45.2390 N   0  0  0  0  0  0  0  0  0  0  0  0
   56.7190   27.9160   45.6180 C   0  0  0  0  0  0  0  0  0  0  0  0
   58.1210   28.4330   45.7800 C   0  0  0  0  0  0  0  0  0  0  0  0
   59.0060   28.4540   44.6900 C   0  0  0  0  0  0  0  0  0  0  0  0
   60.3150   28.9120   44.8570 C   0  0  0  0  0  0  0  0  0  0  0  0
   60.7550   29.3460   46.1100 C   0  0  0  0  0  0  0  0  0  0  0  0
   59.8800   29.3230   47.2130 C   0  0  0  0  0  0  0  0  0  0  0  0
   60.2750   29.7400   48.4940 O   0  0  0  0  0  0  0  0  0  0  0  0
   59.9100   29.0810   49.7020 C   0  0  0  0  0  0  0  0  0  0  0  0
   58.5680   28.8650   47.0380 C   0  0  0  0  0  0  0  0  0  0  0  0
   57.4220   31.7680   43.1830 C   0  0  0  0  0  0  0  0  0  0  0  0
   58.2740   32.8650   43.3400 C   0  0  0  0  0  0  0  0  0  0  0  0
   58.7511   32.2571   50.3043 H   0  0  0  0  0  0  0  0  0  0  0  0
   57.7551   32.1884   48.8110 H   0  0  0  0  0  0  0  0  0  0  0  0
   59.4212   31.5171   48.8110 H   0  0  0  0  0  0  0  0  0  0  0  0
   58.6377   34.1192   48.0408 H   0  0  0  0  0  0  0  0  0  0  0  0
   59.4027   34.3104   49.6716 H   0  0  0  0  0  0  0  0  0  0  0  0
   63.6610   32.1637   48.9891 H   0  0  0  0  0  0  0  0  0  0  0  0
   64.2611   32.9949   46.7109 H   0  0  0  0  0  0  0  0  0  0  0  0
   62.5637   34.2362   45.3685 H   0  0  0  0  0  0  0  0  0  0  0  0
   58.6002   32.8298   46.7404 H   0  0  0  0  0  0  0  0  0  0  0  0
   57.0710   30.8836   46.4695 H   0  0  0  0  0  0  0  0  0  0  0  0
   56.3805   27.4802   46.5696 H   0  0  0  0  0  0  0  0  0  0  0  0
   56.7086   27.1501   44.8285 H   0  0  0  0  0  0  0  0  0  0  0  0
   58.6675   28.1088   43.7019 H   0  0  0  0  0  0  0  0  0  0  0  0
   61.0023   28.9311   43.9984 H   0  0  0  0  0  0  0  0  0  0  0  0
   61.7868   29.7063   46.2351 H   0  0  0  0  0  0  0  0  0  0  0  0
   60.2424   29.6811   50.5619 H   0  0  0  0  0  0  0  0  0  0  0  0
   58.8171   28.9615   49.7387 H   0  0  0  0  0  0  0  0  0  0  0  0
   60.3885   28.0912   49.7387 H   0  0  0  0  0  0  0  0  0  0  0  0
   57.8803   28.8437   47.8963 H   0  0  0  0  0  0  0  0  0  0  0  0
   57.0994   31.4669   42.1754 H   0  0  0  0  0  0  0  0  0  0  0  0
   58.6299   33.4124   42.4547 H   0  0  0  0  0  0  0  0  0  0  0  0
  1  2  1  0
  2  3  1  0
  3  4  2  0
  4  5  1  0
  5  6  2  0
  6  7  1  0
  7  8  2  0
  8  9  1  0
  9 10  2  0
  9 11  1  0
 11 12  1  0
 12 13  2  0
 13 14  1  0
 14 15  2  0
 15 16  1  0
 16 17  2  0
 16 18  1  0
 18 19  1  0
 19 20  1  0
 20 21  2  0
 21 22  1  0
 22 23  2  0
 23 24  1  0
 24 25  1  0
 25 26  1  0
 24 27  2  0
 15 28  1  0
 28 29  2  0
  8  3  1  0
 29 12  1  0
 27 20  1  0
  1 30  1  0
  1 31  1  0
  1 32  1  0
  2 33  1  0
  2 34  1  0
  5 35  1  0
  6 36  1  0
  7 37  1  0
 13 38  1  0
 14 39  1  0
 19 40  1  0
 19 41  1  0
 21 42  1  0
 22 43  1  0
 23 44  1  0
 26 45  1  0
 26 46  1  0
 26 47  1  0
 27 48  1  0
 28 49  1  0
 29 50  1  0
M  CHG  2  11  -1  18  -1
M  END
>  <UniqueID>  (63) 
60

>  <SMILES>  (63) 
CCc1ncccc1C(=O)[N-]c1ccc(C(=O)[N-]Cc2cccc(OC)c2)cc1

>  <Energy>  (63) 
58.517737589423966

>  <Genealogy>  (63) 
CCc1ncccc1C(=O)[N-]c1ccc(C(=O)[N-]Cc2cccc(OC)c2)cc1 (protonated)
CCc1ncccc1C(=O)[N-]c1ccc(C(=O)[N-]Cc2cccc(OC)c2)cc1 (3D coordinates assigned)
CCc1ncccc1C(=O)[N-]c1ccc(C(=O)[N-]Cc2cccc(OC)c2)cc1 (optimized conformer: 58.517737589423966 kcal/mol)

>  <smiles>  (63) 
CCc1ncccc1C(=O)Nc1ccc(C(=O)NCc2cccc(OC)c2)cc1

>  <score_type>  (63) 
oracle

>  <origin>  (63) 
adg

>  <m_score__min__energy>  (63) 
-11.029999999999999

>  <m_primary>  (63) 
energy

$$$$
63:0
     RDKit          3D

 78 82  0  0  0  0  0  0  0  0999 V2000
   57.4120   31.8600   42.0070 C   0  0  0  0  0  0  0  0  0  0  0  0
   57.0460   31.0700   43.2600 C   0  0  0  0  0  0  0  0  0  0  0  0
   56.4770   29.7020   42.8710 C   0  0  0  0  0  0  0  0  0  0  0  0
   58.2210   30.9100   44.0570 O   0  0  0  0  0  0  0  0  0  0  0  0
   58.4650   31.5300   45.2940 C   0  0  0  0  0  0  0  0  0  0  0  0
   57.6240   32.5310   45.8180 C   0  0  0  0  0  0  0  0  0  0  0  0
   57.8890   33.0970   47.0660 C   0  0  0  0  0  0  0  0  0  0  0  0
   59.0140   32.6970   47.8010 C   0  0  0  0  0  0  0  0  0  0  0  0
   59.2740   33.2420   49.1920 C   0  0  2  0  0  0  0  0  0  0  0  0
   60.4300   34.2590   49.1790 C   0  0  0  0  0  0  0  0  0  0  0  0
   61.7820   33.5850   49.3490 C   0  0  0  0  0  0  0  0  0  0  0  0
   62.6420   33.3890   48.2430 C   0  0  0  0  0  0  0  0  0  0  0  0
   62.1870   33.8120   46.5920 Cl  0  0  0  0  0  0  0  0  0  0  0  0
   63.9180   32.8550   48.4510 C   0  0  0  0  0  0  0  0  0  0  0  0
   64.3370   32.5260   49.7020 N   0  0  0  0  0  0  0  0  0  0  0  0
   65.6010   32.0090   49.8760 O   0  0  0  0  0  0  0  0  0  0  0  0
   63.5300   32.6950   50.7820 C   0  0  0  0  0  0  0  0  0  0  0  0
   62.2450   33.2230   50.6340 C   0  0  0  0  0  0  0  0  0  0  0  0
   61.2570   33.4150   52.0780 Cl  0  0  0  0  0  0  0  0  0  0  0  0
   59.5900   32.1830   50.0970 O   0  0  0  0  0  0  0  0  0  0  0  0
   58.6260   31.5250   50.8710 C   0  0  0  0  0  0  0  0  0  0  0  0
   57.4140   31.8730   50.8050 O   0  0  0  0  0  0  0  0  0  0  0  0
   59.0290   30.3760   51.7130 C   0  0  0  0  0  0  0  0  0  0  0  0
   58.7390   30.4420   53.0830 C   0  0  0  0  0  0  0  0  0  0  0  0
   59.1690   29.4320   53.9410 C   0  0  0  0  0  0  0  0  0  0  0  0
   59.8680   28.3720   53.4600 N   0  0  0  0  0  0  0  0  0  0  0  0
   60.1490   28.2450   52.1320 C   0  0  0  0  0  0  0  0  0  0  0  0
   60.8490   27.1180   51.6700 C   0  0  0  0  0  0  0  0  0  0  0  0
   61.1080   26.9570   50.3100 C   0  0  0  0  0  0  0  0  0  0  0  0
   60.6580   27.9100   49.3950 C   0  0  0  0  0  0  0  0  0  0  0  0
   59.9630   29.0390   49.8350 C   0  0  0  0  0  0  0  0  0  0  0  0
   59.7210   29.2410   51.2120 C   0  0  0  0  0  0  0  0  0  0  0  0
   59.8590   31.7110   47.2760 C   0  0  0  0  0  0  0  0  0  0  0  0
   59.5880   31.1180   46.0280 C   0  0  0  0  0  0  0  0  0  0  0  0
   60.3960   30.0990   45.4910 O   0  0  0  0  0  0  0  0  0  0  0  0
   59.9250   28.8380   45.0170 C   0  0  0  0  0  0  0  0  0  0  0  0
   60.0190   27.7740   46.1140 C   0  0  0  0  0  0  0  0  0  0  0  0
   58.7450   26.9750   46.1880 C   0  0  0  0  0  0  0  0  0  0  0  0
   58.7750   25.6230   46.5590 C   0  0  0  0  0  0  0  0  0  0  0  0
   57.5910   24.8830   46.6240 C   0  0  0  0  0  0  0  0  0  0  0  0
   56.3580   25.4860   46.3080 C   0  0  0  0  0  0  0  0  0  0  0  0
   55.1400   24.7910   46.3720 O   0  0  0  0  0  0  0  0  0  0  0  0
   54.4200   24.3120   45.2400 C   0  0  0  0  0  0  0  0  0  0  0  0
   54.3260   22.9350   45.3130 F   0  0  0  0  0  0  0  0  0  0  0  0
   53.1450   24.8490   45.2310 F   0  0  0  0  0  0  0  0  0  0  0  0
   56.3370   26.8300   45.9180 C   0  0  0  0  0  0  0  0  0  0  0  0
   57.5190   27.5720   45.8560 C   0  0  0  0  0  0  0  0  0  0  0  0
   57.8580   32.8226   42.2977 H   0  0  0  0  0  0  0  0  0  0  0  0
   58.1359   31.2859   41.4100 H   0  0  0  0  0  0  0  0  0  0  0  0
   56.5060   32.0410   41.4100 H   0  0  0  0  0  0  0  0  0  0  0  0
   56.2793   31.6108   43.8342 H   0  0  0  0  0  0  0  0  0  0  0  0
   56.2397   29.1314   43.7810 H   0  0  0  0  0  0  0  0  0  0  0  0
   55.5621   29.8411   42.2763 H   0  0  0  0  0  0  0  0  0  0  0  0
   57.2206   29.1512   42.2763 H   0  0  0  0  0  0  0  0  0  0  0  0
   56.7518   32.8692   45.2393 H   0  0  0  0  0  0  0  0  0  0  0  0
   57.2116   33.8610   47.4751 H   0  0  0  0  0  0  0  0  0  0  0  0
   58.3560   33.7469   49.5271 H   0  0  0  0  0  0  0  0  0  0  0  0
   60.4193   34.7969   48.2196 H   0  0  0  0  0  0  0  0  0  0  0  0
   60.2854   34.9493   50.0232 H   0  0  0  0  0  0  0  0  0  0  0  0
   64.5894   32.6996   47.5936 H   0  0  0  0  0  0  0  0  0  0  0  0
   63.8917   32.4135   51.7820 H   0  0  0  0  0  0  0  0  0  0  0  0
   58.1698   31.2945   53.4821 H   0  0  0  0  0  0  0  0  0  0  0  0
   58.9407   29.4938   55.0153 H   0  0  0  0  0  0  0  0  0  0  0  0
   60.1790   27.6370   54.1360 H   0  0  0  0  0  0  0  0  0  0  0  0
   61.1948   26.3579   52.3860 H   0  0  0  0  0  0  0  0  0  0  0  0
   61.6676   26.0780   49.9575 H   0  0  0  0  0  0  0  0  0  0  0  0
   60.8518   27.7712   48.3211 H   0  0  0  0  0  0  0  0  0  0  0  0
   59.6013   29.7766   49.1035 H   0  0  0  0  0  0  0  0  0  0  0  0
   60.7456   31.3959   47.8459 H   0  0  0  0  0  0  0  0  0  0  0  0
   58.8758   28.9401   44.7028 H   0  0  0  0  0  0  0  0  0  0  0  0
   60.5507   28.5249   44.1682 H   0  0  0  0  0  0  0  0  0  0  0  0
   60.8574   27.0977   45.8908 H   0  0  0  0  0  0  0  0  0  0  0  0
   60.1804   28.2743   47.0803 H   0  0  0  0  0  0  0  0  0  0  0  0
   59.7348   25.1426   46.8000 H   0  0  0  0  0  0  0  0  0  0  0  0
   57.6223   23.8250   46.9233 H   0  0  0  0  0  0  0  0  0  0  0  0
   54.9485   24.6088   44.3220 H   0  0  0  0  0  0  0  0  0  0  0  0
   55.3804   27.3067   45.6578 H   0  0  0  0  0  0  0  0  0  0  0  0
   57.4887   28.6270   45.5461 H   0  0  0  0  0  0  0  0  0  0  0  0
  1  2  1  0
  2  3  1  0
  2  4  1  0
  4  5  1  0
  5  6  2  0
  6  7  1  0
  7  8  2  0
  8  9  1  0
  9 10  1  0
 10 11  1  0
 11 12  2  0
 12 13  1  0
 12 14  1  0
 14 15  2  0
 15 16  1  0
 15 17  1  0
 17 18  2  0
 18 19  1  0
  9 20  1  0
 20 21  1  0
 21 22  2  0
 21 23  1  0
 23 24  2  0
 24 25  1  0
 25 26  2  0
 26 27  1  0
 27 28  2  0
 28 29  1  0
 29 30  2  0
 30 31  1  0
 31 32  2  0
  8 33  1  0
 33 34  2  0
 34 35  1  0
 35 36  1  0
 36 37  1  0
 37 38  1  0
 38 39  2  0
 39 40  1  0
 40 41  2  0
 41 42  1  0
 42 43  1  0
 43 44  1  0
 43 45  1  0
 41 46  1  0
 46 47  2  0
 34  5  1  0
 47 38  1  0
 18 11  1  0
 32 23  1  0
 32 27  1  0
  1 48  1  0
  1 49  1  0
  1 50  1  0
  2 51  1  0
  3 52  1  0
  3 53  1  0
  3 54  1  0
  6 55  1  0
  7 56  1  0
  9 57  1  1
 10 58  1  0
 10 59  1  0
 14 60  1  0
 17 61  1  0
 24 62  1  0
 25 63  1  0
 26 64  1  0
 28 65  1  0
 29 66  1  0
 30 67  1  0
 31 68  1  0
 33 69  1  0
 36 70  1  0
 36 71  1  0
 37 72  1  0
 37 73  1  0
 39 74  1  0
 40 75  1  0
 43 76  1  0
 46 77  1  0
 47 78  1  0
M  CHG  3  15   1  16  -1  26   1
M  END
>  <UniqueID>  (64) 
61

>  <SMILES>  (64) 
CC(C)Oc1ccc([C@H](Cc2c(Cl)c[n+]([O-])cc2Cl)OC(=O)c2cc[nH+]c3ccccc23)cc1OCCc1ccc(OC(F)F)cc1

>  <Energy>  (64) 
83.38001351365601

>  <Genealogy>  (64) 
CC(C)Oc1ccc(C(Cc2c(Cl)c[n+]([O-])cc2Cl)OC(=O)c2cc[nH+]c3ccccc23)cc1OCCc1ccc(OC(F)F)cc1 (protonated)
CC(C)Oc1ccc([C@H](Cc2c(Cl)c[n+]([O-])cc2Cl)OC(=O)c2cc[nH+]c3ccccc23)cc1OCCc1ccc(OC(F)F)cc1 (chirality)
CC(C)Oc1ccc([C@H](Cc2c(Cl)c[n+]([O-])cc2Cl)OC(=O)c2cc[nH+]c3ccccc23)cc1OCCc1ccc(OC(F)F)cc1 (3D coordinates assigned)
CC(C)Oc1ccc([C@H](Cc2c(Cl)c[n+]([O-])cc2Cl)OC(=O)c2cc[nH+]c3ccccc23)cc1OCCc1ccc(OC(F)F)cc1 (optimized conformer: 83.38001351365601 kcal/mol)

>  <smiles>  (64) 
CC(C)Oc1ccc(C(Cc2c(Cl)c[n+]([O-])cc2Cl)OC(=O)c2ccnc3ccccc23)cc1OCCc1ccc(OC(F)F)cc1

>  <score_type>  (64) 
oracle

>  <origin>  (64) 
adg

>  <m_score__min__energy>  (64) 
-7.8799999999999999

>  <m_primary>  (64) 
energy

$$$$
64:0
     RDKit          3D

 48 51  0  0  0  0  0  0  0  0999 V2000
   55.3740   29.3410   44.8440 O   0  0  0  0  0  0  0  0  0  0  0  0
   56.3650   30.0330   44.4920 C   0  0  0  0  0  0  0  0  0  0  0  0
   57.6190   29.3590   44.0360 C   0  0  0  0  0  0  0  0  0  0  0  0
   58.3280   28.8020   45.1880 N   0  0  0  0  0  0  0  0  0  0  0  0
   59.4610   29.2610   45.7770 C   0  0  0  0  0  0  0  0  0  0  0  0
   60.0490   30.3200   45.4300 O   0  0  0  0  0  0  0  0  0  0  0  0
   59.8940   28.4770   46.7480 O   0  0  0  0  0  0  0  0  0  0  0  0
   59.0450   27.4760   46.7980 C   0  0  0  0  0  0  0  0  0  0  0  0
   59.0580   26.3670   47.6390 C   0  0  0  0  0  0  0  0  0  0  0  0
   58.0360   25.4140   47.4740 C   0  0  0  0  0  0  0  0  0  0  0  0
   57.0420   25.5910   46.4840 C   0  0  0  0  0  0  0  0  0  0  0  0
   57.0580   26.7260   45.6510 C   0  0  0  0  0  0  0  0  0  0  0  0
   58.0810   27.6550   45.8450 C   0  0  0  0  0  0  0  0  0  0  0  0
   56.3150   31.4640   44.5410 N   0  0  0  0  0  0  0  0  0  0  0  0
   57.3170   32.3220   45.1070 C   0  0  0  0  0  0  0  0  0  0  0  0
   57.6030   33.5360   44.4710 C   0  0  0  0  0  0  0  0  0  0  0  0
   58.5610   34.4030   45.0030 C   0  0  0  0  0  0  0  0  0  0  0  0
   59.2280   34.0720   46.1850 C   0  0  0  0  0  0  0  0  0  0  0  0
   58.9270   32.8750   46.8490 C   0  0  0  0  0  0  0  0  0  0  0  0
   59.7570   32.4420   48.3420 S   0  0  0  0  0  0  0  0  0  0  0  0
   58.7370   31.9170   49.3140 O   0  0  0  0  0  0  0  0  0  0  0  0
   60.3950   33.6640   48.9440 O   0  0  0  0  0  0  0  0  0  0  0  0
   60.9600   31.2030   48.0380 N   0  0  0  0  0  0  0  0  0  0  0  0
   61.5050   30.6480   49.3020 C   0  0  0  0  0  0  0  0  0  0  0  0
   62.8540   31.2790   49.6940 C   0  0  0  0  0  0  0  0  0  0  0  0
   62.9160   32.6200   49.2630 O   0  0  0  0  0  0  0  0  0  0  0  0
   62.9810   32.6790   47.8490 C   0  0  0  0  0  0  0  0  0  0  0  0
   62.0300   31.6850   47.1410 C   0  0  0  0  0  0  0  0  0  0  0  0
   57.9710   32.0030   46.3100 C   0  0  0  0  0  0  0  0  0  0  0  0
   57.3648   28.5488   43.3367 H   0  0  0  0  0  0  0  0  0  0  0  0
   58.2643   30.0938   43.5323 H   0  0  0  0  0  0  0  0  0  0  0  0
   59.8381   26.2403   48.4041 H   0  0  0  0  0  0  0  0  0  0  0  0
   58.0101   24.5242   48.1203 H   0  0  0  0  0  0  0  0  0  0  0  0
   56.2506   24.8365   46.3638 H   0  0  0  0  0  0  0  0  0  0  0  0
   56.2921   26.8750   44.8756 H   0  0  0  0  0  0  0  0  0  0  0  0
   57.0708   33.8087   43.5477 H   0  0  0  0  0  0  0  0  0  0  0  0
   58.7905   35.3485   44.4898 H   0  0  0  0  0  0  0  0  0  0  0  0
   59.9900   34.7513   46.5949 H   0  0  0  0  0  0  0  0  0  0  0  0
   60.4570   30.4310   47.5380 H   0  0  0  0  0  0  0  0  0  0  0  0
   60.7813   30.8343   50.1092 H   0  0  0  0  0  0  0  0  0  0  0  0
   61.6734   29.5720   49.1476 H   0  0  0  0  0  0  0  0  0  0  0  0
   62.9653   31.2449   50.7878 H   0  0  0  0  0  0  0  0  0  0  0  0
   63.6648   30.7128   49.2123 H   0  0  0  0  0  0  0  0  0  0  0  0
   62.7169   33.6985   47.5314 H   0  0  0  0  0  0  0  0  0  0  0  0
   64.0064   32.4027   47.5624 H   0  0  0  0  0  0  0  0  0  0  0  0
   61.5693   32.1885   46.2783 H   0  0  0  0  0  0  0  0  0  0  0  0
   62.6243   30.8148   46.8254 H   0  0  0  0  0  0  0  0  0  0  0  0
   57.7312   31.0643   46.8309 H   0  0  0  0  0  0  0  0  0  0  0  0
  1  2  2  0
  2  3  1  0
  3  4  1  0
  4  5  1  0
  5  6  2  0
  5  7  1  0
  7  8  1  0
  8  9  2  0
  9 10  1  0
 10 11  2  0
 11 12  1  0
 12 13  2  0
  2 14  1  0
 14 15  1  0
 15 16  2  0
 16 17  1  0
 17 18  2  0
 18 19  1  0
 19 20  1  0
 20 21  2  0
 20 22  2  0
 20 23  1  0
 23 24  1  0
 24 25  1  0
 25 26  1  0
 26 27  1  0
 27 28  1  0
 19 29  2  0
 13  4  1  0
 29 15  1  0
 13  8  1  0
 28 23  1  0
  3 30  1  0
  3 31  1  0
  9 32  1  0
 10 33  1  0
 11 34  1  0
 12 35  1  0
 16 36  1  0
 17 37  1  0
 18 38  1  0
 23 39  1  0
 24 40  1  0
 24 41  1  0
 25 42  1  0
 25 43  1  0
 27 44  1  0
 27 45  1  0
 28 46  1  0
 28 47  1  0
 29 48  1  0
M  CHG  2  14  -1  23   1
M  END
>  <UniqueID>  (65) 
62

>  <SMILES>  (65) 
O=C(Cn1c(=O)oc2ccccc21)[N-]c1cccc(S(=O)(=O)[NH+]2CCOCC2)c1

>  <Energy>  (65) 
104.30669545298538

>  <Genealogy>  (65) 
O=C(Cn1c(=O)oc2ccccc21)[N-]c1cccc(S(=O)(=O)[NH+]2CCOCC2)c1 (protonated)
O=C(Cn1c(=O)oc2ccccc21)[N-]c1cccc(S(=O)(=O)[NH+]2CCOCC2)c1 (3D coordinates assigned)
O=C(Cn1c(=O)oc2ccccc21)[N-]c1cccc(S(=O)(=O)[NH+]2CCOCC2)c1 (nonaromatic ring conformer: 104.30669545298538 kcal/mol)

>  <smiles>  (65) 
O=C(Cn1c(=O)oc2ccccc21)Nc1cccc(S(=O)(=O)N2CCOCC2)c1

>  <score_type>  (65) 
oracle

>  <origin>  (65) 
adg

>  <m_score__min__energy>  (65) 
-9.7100000000000009

>  <m_primary>  (65) 
energy

$$$$
65:0
     RDKit          3D

 31 32  0  0  0  0  0  0  0  0999 V2000
   60.6050   28.8540   47.2950 C   0  0  0  0  0  0  0  0  0  0  0  0
   60.1430   27.7770   46.4870 O   0  0  0  0  0  0  0  0  0  0  0  0
   58.7970   27.3940   46.3630 C   0  0  0  0  0  0  0  0  0  0  0  0
   58.2270   26.4050   47.1910 C   0  0  0  0  0  0  0  0  0  0  0  0
   56.8830   26.0540   47.0520 C   0  0  0  0  0  0  0  0  0  0  0  0
   56.0880   26.6780   46.0880 C   0  0  0  0  0  0  0  0  0  0  0  0
   54.7470   26.3230   45.9690 O   0  0  0  0  0  0  0  0  0  0  0  0
   56.6450   27.6560   45.2550 C   0  0  0  0  0  0  0  0  0  0  0  0
   57.9960   28.0190   45.3860 C   0  0  0  0  0  0  0  0  0  0  0  0
   58.5620   29.1090   44.5120 C   0  0  0  0  0  0  0  0  0  0  0  0
   57.2550   30.2690   43.9710 S   0  0  0  0  0  0  0  0  0  0  0  0
   57.9340   31.6900   44.8320 C   0  0  0  0  0  0  0  0  0  0  0  0
   58.8920   31.5070   45.8390 C   0  0  0  0  0  0  0  0  0  0  0  0
   59.4070   32.6110   46.5260 C   0  0  0  0  0  0  0  0  0  0  0  0
   58.9740   33.9010   46.2020 C   0  0  0  0  0  0  0  0  0  0  0  0
   59.6170   35.2860   47.0660 Cl  0  0  0  0  0  0  0  0  0  0  0  0
   58.0270   34.0870   45.1880 C   0  0  0  0  0  0  0  0  0  0  0  0
   57.5100   32.9830   44.5010 C   0  0  0  0  0  0  0  0  0  0  0  0
   60.4919   28.5904   48.3569 H   0  0  0  0  0  0  0  0  0  0  0  0
   61.6655   29.0479   47.0762 H   0  0  0  0  0  0  0  0  0  0  0  0
   60.0146   29.7560   47.0762 H   0  0  0  0  0  0  0  0  0  0  0  0
   58.8457   25.9066   47.9518 H   0  0  0  0  0  0  0  0  0  0  0  0
   56.4482   25.2826   47.7046 H   0  0  0  0  0  0  0  0  0  0  0  0
   54.0990   26.4330   46.7420 H   0  0  0  0  0  0  0  0  0  0  0  0
   56.0202   28.1438   44.4923 H   0  0  0  0  0  0  0  0  0  0  0  0
   59.3228   29.6651   45.0794 H   0  0  0  0  0  0  0  0  0  0  0  0
   59.0064   28.6442   43.6195 H   0  0  0  0  0  0  0  0  0  0  0  0
   59.2391   30.4936   46.0892 H   0  0  0  0  0  0  0  0  0  0  0  0
   60.1527   32.4648   47.3213 H   0  0  0  0  0  0  0  0  0  0  0  0
   57.6890   35.1018   44.9311 H   0  0  0  0  0  0  0  0  0  0  0  0
   56.7701   33.1308   43.7005 H   0  0  0  0  0  0  0  0  0  0  0  0
  1  2  1  0
  2  3  1  0
  3  4  2  0
  4  5  1  0
  5  6  2  0
  6  7  1  0
  6  8  1  0
  8  9  2  0
  9 10  1  0
 10 11  1  0
 11 12  1  0
 12 13  2  0
 13 14  1  0
 14 15  2  0
 15 16  1  0
 15 17  1  0
 17 18  2  0
  9  3  1  0
 18 12  1  0
  1 19  1  0
  1 20  1  0
  1 21  1  0
  4 22  1  0
  5 23  1  0
  7 24  1  0
  8 25  1  0
 10 26  1  0
 10 27  1  0
 13 28  1  0
 14 29  1  0
 17 30  1  0
 18 31  1  0
M  END
>  <UniqueID>  (66) 
63

>  <SMILES>  (66) 
COc1ccc(O)cc1CSc1ccc(Cl)cc1

>  <Energy>  (66) 
25.339614437063833

>  <Genealogy>  (66) 
COc1ccc(O)cc1CSc1ccc(Cl)cc1 (3D coordinates assigned)
COc1ccc(O)cc1CSc1ccc(Cl)cc1 (optimized conformer: 25.339614437063833 kcal/mol)

>  <smiles>  (66) 
COc1ccc(O)cc1CSc1ccc(Cl)cc1

>  <score_type>  (66) 
oracle

>  <origin>  (66) 
adg

>  <m_score__min__energy>  (66) 
-7.4299999999999997

>  <m_primary>  (66) 
energy

$$$$
66:0
     RDKit          3D

 34 36  0  0  0  0  0  0  0  0999 V2000
   58.6007   25.4206   44.5277 H   0  0  0  0  0  0  0  0  0  0  0  0
   58.1590   26.4280   44.5320 C   0  0  0  0  0  0  0  0  0  0  0  0
   57.6100   26.9450   45.7090 C   0  0  0  0  0  0  0  0  0  0  0  0
   57.6270   26.3471   46.6322 H   0  0  0  0  0  0  0  0  0  0  0  0
   57.0390   28.2220   45.7140 C   0  0  0  0  0  0  0  0  0  0  0  0
   56.6261   28.6352   46.6461 H   0  0  0  0  0  0  0  0  0  0  0  0
   56.9920   28.9780   44.5300 C   0  0  0  0  0  0  0  0  0  0  0  0
   56.4660   30.3140   44.5220 N   0  0  0  0  0  0  0  0  0  0  0  0
   57.1110   31.4180   44.7710 C   0  0  0  0  0  0  0  0  0  0  0  0
   57.5170   31.6570   46.0450 N   0  0  0  0  0  0  0  0  0  0  0  0
   58.2090   32.7780   46.3780 C   0  0  0  0  0  0  0  0  0  0  0  0
   58.5010   33.7310   45.3900 C   0  0  0  0  0  0  0  0  0  0  0  0
   58.0980   33.4610   44.0770 C   0  0  0  0  0  0  0  0  0  0  0  0
   58.3292   34.1776   43.2751 H   0  0  0  0  0  0  0  0  0  0  0  0
   57.4220   32.3170   43.7880 N   0  0  0  0  0  0  0  0  0  0  0  0
   57.1860   32.1390   42.7870 H   0  0  0  0  0  0  0  0  0  0  0  0
   59.2540   34.9560   45.7370 C   0  0  0  0  0  0  0  0  0  0  0  0
   59.5300   35.8100   44.8520 O   0  0  0  0  0  0  0  0  0  0  0  0
   59.6500   35.2210   47.1640 C   0  0  0  0  0  0  0  0  0  0  0  0
   58.8682   35.8285   47.6433 H   0  0  0  0  0  0  0  0  0  0  0  0
   60.6145   35.7499   47.1580 H   0  0  0  0  0  0  0  0  0  0  0  0
   59.8260   33.9140   47.9630 C   0  0  2  0  0  0  0  0  0  0  0  0
   59.9316   34.1795   49.0252 H   0  0  0  0  0  0  0  0  0  0  0  0
   61.1090   33.1700   47.5560 C   0  0  0  0  0  0  0  0  0  0  0  0
   61.6523   32.8549   48.4591 H   0  0  0  0  0  0  0  0  0  0  0  0
   60.8456   32.2845   46.9589 H   0  0  0  0  0  0  0  0  0  0  0  0
   61.7467   33.8384   46.9589 H   0  0  0  0  0  0  0  0  0  0  0  0
   58.5810   33.0150   47.8190 C   0  0  0  0  0  0  0  0  0  0  0  0
   57.7344   33.4994   48.3276 H   0  0  0  0  0  0  0  0  0  0  0  0
   58.8167   32.0398   48.2700 H   0  0  0  0  0  0  0  0  0  0  0  0
   57.5760   28.4680   43.3630 C   0  0  0  0  0  0  0  0  0  0  0  0
   57.5858   29.0741   42.4451 H   0  0  0  0  0  0  0  0  0  0  0  0
   58.1470   27.1900   43.3610 C   0  0  0  0  0  0  0  0  0  0  0  0
   58.5864   26.7855   42.4372 H   0  0  0  0  0  0  0  0  0  0  0  0
  1  2  1  0
  2  3  2  0
  3  4  1  0
  3  5  1  0
  5  6  1  0
  5  7  2  0
  7  8  1  0
  8  9  2  0
  9 10  1  0
 10 11  2  0
 11 12  1  0
 12 13  2  0
 13 14  1  0
 13 15  1  0
 15 16  1  0
 12 17  1  0
 17 18  2  0
 17 19  1  0
 19 20  1  0
 19 21  1  0
 19 22  1  0
 22 23  1  1
 22 24  1  0
 24 25  1  0
 24 26  1  0
 24 27  1  0
 22 28  1  0
 28 29  1  0
 28 30  1  0
  7 31  1  0
 31 32  1  0
 31 33  2  0
 33 34  1  0
 33  2  1  0
 15  9  1  0
 28 11  1  0
M  END
>  <UniqueID>  (67) 
64

>  <SMILES>  (67) 
C[C@H]1CC(=O)c2c[nH]/c(=N\c3ccccc3)nc2C1

>  <Energy>  (67) 
43.98524350477911

>  <Genealogy>  (67) 
C[C@H]1CC(=O)c2c[nH]c(=Nc3ccccc3)nc2C1 (chirality)
C[C@H]1CC(=O)c2c[nH]/c(=N\c3ccccc3)nc2C1 (cis-trans isomerization)
C[C@H]1CC(=O)c2c[nH]/c(=N\c3ccccc3)nc2C1 (3D coordinates assigned)
C[C@H]1CC(=O)c2c[nH]/c(=N\c3ccccc3)nc2C1 (nonaromatic ring conformer: 43.98524350477911 kcal/mol)

>  <smiles>  (67) 
CC1CC(=O)c2c[nH]c(=Nc3ccccc3)nc2C1

>  <score_type>  (67) 
oracle

>  <origin>  (67) 
adg

>  <m_score__min__energy>  (67) 
-7.3499999999999996

>  <m_primary>  (67) 
energy

$$$$
67:0
     RDKit          3D

 62 65  0  0  0  0  0  0  0  0999 V2000
   59.1150   35.6190   48.4790 H   0  0  0  0  0  0  0  0  0  0  0  0
   59.9100   34.9550   48.3580 N   0  0  0  0  0  0  0  0  0  0  0  0
   60.1820   34.3580   47.0910 C   0  0  0  0  0  0  0  0  0  0  0  0
   61.2920   34.5760   46.5340 O   0  0  0  0  0  0  0  0  0  0  0  0
   59.1780   33.4880   46.4370 C   0  0  0  0  0  0  0  0  0  0  0  0
   59.0700   32.1310   46.7900 C   0  0  0  0  0  0  0  0  0  0  0  0
   59.7406   31.7114   47.5544 H   0  0  0  0  0  0  0  0  0  0  0  0
   58.1180   31.3110   46.1780 C   0  0  0  0  0  0  0  0  0  0  0  0
   58.0527   30.2487   46.4558 H   0  0  0  0  0  0  0  0  0  0  0  0
   57.2470   31.8320   45.2140 C   0  0  0  0  0  0  0  0  0  0  0  0
   56.2920   30.9510   44.6030 N   0  0  0  0  0  0  0  0  0  0  0  0
   56.4600   29.5480   44.3620 C   0  0  0  0  0  0  0  0  0  0  0  0
   55.6660   28.7110   44.8710 O   0  0  0  0  0  0  0  0  0  0  0  0
   57.5730   29.1000   43.5830 N   0  0  0  0  0  0  0  0  0  0  0  0
   58.2440   29.8150   43.2180 H   0  0  0  0  0  0  0  0  0  0  0  0
   57.7700   27.6850   43.2740 C   0  0  0  0  0  0  0  0  0  0  0  0
   58.5392   27.5894   42.4935 H   0  0  0  0  0  0  0  0  0  0  0  0
   56.8165   27.2632   42.9233 H   0  0  0  0  0  0  0  0  0  0  0  0
   58.2140   26.9270   44.5040 C   0  0  0  0  0  0  0  0  0  0  0  0
   57.7410   25.6180   44.7000 C   0  0  0  0  0  0  0  0  0  0  0  0
   57.0699   25.1669   43.9542 H   0  0  0  0  0  0  0  0  0  0  0  0
   58.1110   24.8810   45.8290 C   0  0  0  0  0  0  0  0  0  0  0  0
   57.5870   23.5530   45.9960 N   0  0  0  0  0  0  0  0  0  0  0  0
   56.6840   23.1880   46.8630 C   0  0  0  0  0  0  0  0  0  0  0  0
   57.0230   22.3460   47.8780 N   0  0  0  0  0  0  0  0  0  0  0  0
   56.1580   21.9720   48.8550 C   0  0  0  0  0  0  0  0  0  0  0  0
   56.5700   21.0970   49.8810 C   0  0  0  0  0  0  0  0  0  0  0  0
   57.9730   20.5380   49.9300 C   0  0  0  0  0  0  0  0  0  0  0  0
   58.4265   20.6136   48.9307 H   0  0  0  0  0  0  0  0  0  0  0  0
   57.9228   19.4865   50.2490 H   0  0  0  0  0  0  0  0  0  0  0  0
   58.7670   21.2550   50.8550 O   0  0  0  0  0  0  0  0  0  0  0  0
   58.1640   22.4930   51.1670 C   0  0  0  0  0  0  0  0  0  0  0  0
   58.1078   22.6085   52.2595 H   0  0  0  0  0  0  0  0  0  0  0  0
   58.7647   23.3108   50.7423 H   0  0  0  0  0  0  0  0  0  0  0  0
   57.1498   22.5242   50.7423 H   0  0  0  0  0  0  0  0  0  0  0  0
   55.6630   20.7610   50.8990 C   0  0  0  0  0  0  0  0  0  0  0  0
   55.9804   20.0959   51.7156 H   0  0  0  0  0  0  0  0  0  0  0  0
   54.3590   21.2660   50.8820 C   0  0  0  0  0  0  0  0  0  0  0  0
   53.6549   20.9915   51.6813 H   0  0  0  0  0  0  0  0  0  0  0  0
   53.9470   22.1170   49.8550 C   0  0  0  0  0  0  0  0  0  0  0  0
   52.9177   22.5047   49.8425 H   0  0  0  0  0  0  0  0  0  0  0  0
   54.8430   22.4780   48.8400 C   0  0  0  0  0  0  0  0  0  0  0  0
   54.4580   23.3420   47.8080 C   0  0  0  0  0  0  0  0  0  0  0  0
   53.4315   23.7367   47.7846 H   0  0  0  0  0  0  0  0  0  0  0  0
   55.3680   23.7120   46.8000 C   0  0  0  0  0  0  0  0  0  0  0  0
   54.9160   24.6350   45.7200 C   0  0  0  0  0  0  0  0  0  0  0  0
   54.7480   24.2010   44.5490 O   0  0  0  0  0  0  0  0  0  0  0  0
   54.6810   26.0190   45.9770 N   0  0  0  0  0  0  0  0  0  0  0  0
   54.7820   26.7310   45.2210 H   0  0  0  0  0  0  0  0  0  0  0  0
   59.0230   25.4330   46.7410 C   0  0  0  0  0  0  0  0  0  0  0  0
   59.3494   24.8456   47.6119 H   0  0  0  0  0  0  0  0  0  0  0  0
   59.5180   26.7230   46.5490 C   0  0  0  0  0  0  0  0  0  0  0  0
   60.2204   27.1508   47.2795 H   0  0  0  0  0  0  0  0  0  0  0  0
   59.1290   27.4810   45.4330 C   0  0  0  0  0  0  0  0  0  0  0  0
   59.6800   28.8720   45.2640 C   0  0  0  0  0  0  0  0  0  0  0  0
   59.8570   29.3190   46.2534 H   0  0  0  0  0  0  0  0  0  0  0  0
   60.6278   28.8259   44.7076 H   0  0  0  0  0  0  0  0  0  0  0  0
   58.9577   29.4874   44.7076 H   0  0  0  0  0  0  0  0  0  0  0  0
   57.3700   33.1790   44.8340 C   0  0  0  0  0  0  0  0  0  0  0  0
   56.7153   33.5889   44.0508 H   0  0  0  0  0  0  0  0  0  0  0  0
   58.3210   34.0010   45.4470 C   0  0  0  0  0  0  0  0  0  0  0  0
   58.3993   35.0579   45.1523 H   0  0  0  0  0  0  0  0  0  0  0  0
  1  2  1  0
  2  3  1  0
  3  4  2  0
  3  5  1  0
  5  6  2  0
  6  7  1  0
  6  8  1  0
  8  9  1  0
  8 10  2  0
 10 11  1  0
 11 12  1  0
 12 13  2  0
 12 14  1  0
 14 15  1  0
 14 16  1  0
 16 17  1  0
 16 18  1  0
 16 19  1  0
 19 20  2  0
 20 21  1  0
 20 22  1  0
 22 23  1  0
 23 24  2  0
 24 25  1  0
 25 26  1  0
 26 27  2  0
 27 28  1  0
 28 29  1  0
 28 30  1  0
 28 31  1  0
 31 32  1  0
 32 33  1  0
 32 34  1  0
 32 35  1  0
 27 36  1  0
 36 37  1  0
 36 38  2  0
 38 39  1  0
 38 40  1  0
 40 41  1  0
 40 42  2  0
 42 43  1  0
 43 44  1  0
 43 45  2  0
 45 46  1  0
 46 47  2  0
 46 48  1  0
 48 49  1  0
 22 50  2  0
 50 51  1  0
 50 52  1  0
 52 53  1  0
 52 54  2  0
 54 55  1  0
 55 56  1  0
 55 57  1  0
 55 58  1  0
 10 59  1  0
 59 60  1  0
 59 61  2  0
 61 62  1  0
 61  5  1  0
 54 19  1  0
 45 24  1  0
 42 26  1  0
M  CHG  4   2  -1  11  -1  25  -1  48  -1
M  END
>  <UniqueID>  (68) 
65

>  <SMILES>  (68) 
COCc1cccc2cc(C([NH-])=O)/c(=N/c3ccc(C)c(CNC(=O)[N-]c4ccc(C([NH-])=O)cc4)c3)[n-]c12

>  <Energy>  (68) 
81.99220282968865

>  <Genealogy>  (68) 
COCc1cccc2cc(C([NH-])=O)c(=Nc3ccc(C)c(CNC(=O)[N-]c4ccc(C([NH-])=O)cc4)c3)[n-]c12 (protonated)
COCc1cccc2cc(C([NH-])=O)/c(=N/c3ccc(C)c(CNC(=O)[N-]c4ccc(C([NH-])=O)cc4)c3)[n-]c12 (cis-trans isomerization)
COCc1cccc2cc(C([NH-])=O)/c(=N/c3ccc(C)c(CNC(=O)[N-]c4ccc(C([NH-])=O)cc4)c3)[n-]c12 (3D coordinates assigned)
COCc1cccc2cc(C([NH-])=O)/c(=N/c3ccc(C)c(CNC(=O)[N-]c4ccc(C([NH-])=O)cc4)c3)[n-]c12 (optimized conformer: 81.99220282968865 kcal/mol)

>  <smiles>  (68) 
COCc1cccc2cc(C(N)=O)c(=Nc3ccc(C)c(CNC(=O)Nc4ccc(C(N)=O)cc4)c3)[nH]c12

>  <score_type>  (68) 
oracle

>  <origin>  (68) 
adg

>  <m_score__min__energy>  (68) 
-18.550000000000001

>  <m_primary>  (68) 
energy

$$$$
68:0
     RDKit          3D

 54 56  0  0  0  0  0  0  0  0999 V2000
   63.3990   33.8340   46.5940 C   0  0  0  0  0  0  0  0  0  0  0  0
   63.9230   33.2970   47.8090 O   0  0  0  0  0  0  0  0  0  0  0  0
   63.2550   33.3080   49.0490 C   0  0  0  0  0  0  0  0  0  0  0  0
   63.8560   33.8400   50.2050 C   0  0  0  0  0  0  0  0  0  0  0  0
   63.1920   33.8240   51.4430 C   0  0  0  0  0  0  0  0  0  0  0  0
   63.8880   34.3740   52.6610 C   0  0  0  0  0  0  0  0  0  0  0  0
   61.9060   33.2510   51.5320 C   0  0  0  0  0  0  0  0  0  0  0  0
   61.1920   33.2350   52.7800 N   0  0  0  0  0  0  0  0  0  0  0  0
   59.5140   33.6820   52.8660 S   0  0  0  0  0  0  0  0  0  0  0  0
   59.2550   34.8650   54.1800 C   0  0  0  0  0  0  0  0  0  0  0  0
   58.6930   32.4590   53.1580 O   0  0  0  0  0  0  0  0  0  0  0  0
   59.0740   34.2660   51.5520 O   0  0  0  0  0  0  0  0  0  0  0  0
   61.3120   32.7010   50.3860 C   0  0  0  0  0  0  0  0  0  0  0  0
   61.9590   32.7450   49.1460 C   0  0  0  0  0  0  0  0  0  0  0  0
   61.3120   32.1210   48.0230 N   0  0  0  0  0  0  0  0  0  0  0  0
   60.3310   32.6170   47.3300 C   0  0  0  0  0  0  0  0  0  0  0  0
   59.5230   31.8160   46.5820 N   0  0  0  0  0  0  0  0  0  0  0  0
   58.5220   32.3270   45.8190 C   0  0  0  0  0  0  0  0  0  0  0  0
   57.6820   31.4960   45.0590 O   0  0  0  0  0  0  0  0  0  0  0  0
   57.6890   30.0910   44.9710 C   0  0  0  0  0  0  0  0  0  0  0  0
   58.8720   29.4860   44.5140 C   0  0  0  0  0  0  0  0  0  0  0  0
   58.9790   28.0960   44.4380 C   0  0  0  0  0  0  0  0  0  0  0  0
   57.8950   27.2910   44.8060 C   0  0  0  0  0  0  0  0  0  0  0  0
   56.6960   27.8740   45.2550 C   0  0  0  0  0  0  0  0  0  0  0  0
   55.5560   27.0820   45.6340 N   0  0  0  0  0  0  0  0  0  0  0  0
   55.5900   25.3740   45.9250 S   0  0  0  0  0  0  0  0  0  0  0  0
   56.5100   24.5780   44.6290 C   0  0  0  0  0  0  0  0  0  0  0  0
   54.1860   24.8340   45.9390 O   0  0  0  0  0  0  0  0  0  0  0  0
   56.2640   25.0900   47.2400 O   0  0  0  0  0  0  0  0  0  0  0  0
   56.6040   29.2700   45.3540 C   0  0  0  0  0  0  0  0  0  0  0  0
   58.3060   33.7100   45.8140 C   0  0  0  0  0  0  0  0  0  0  0  0
   57.0130   34.4240   44.8650 Cl  0  0  0  0  0  0  0  0  0  0  0  0
   59.1460   34.5190   46.5780 C   0  0  0  0  0  0  0  0  0  0  0  0
   60.1390   33.9620   47.3150 N   0  0  0  0  0  0  0  0  0  0  0  0
   62.6482   34.6034   46.8269 H   0  0  0  0  0  0  0  0  0  0  0  0
   64.2154   34.2834   46.0096 H   0  0  0  0  0  0  0  0  0  0  0  0
   62.9298   33.0289   46.0096 H   0  0  0  0  0  0  0  0  0  0  0  0
   64.8636   34.2761   50.1381 H   0  0  0  0  0  0  0  0  0  0  0  0
   63.3996   33.9881   53.5679 H   0  0  0  0  0  0  0  0  0  0  0  0
   64.9431   34.0630   52.6521 H   0  0  0  0  0  0  0  0  0  0  0  0
   63.8294   35.4724   52.6521 H   0  0  0  0  0  0  0  0  0  0  0  0
   61.7180   33.1660   53.6850 H   0  0  0  0  0  0  0  0  0  0  0  0
   59.3650   34.3628   55.1525 H   0  0  0  0  0  0  0  0  0  0  0  0
   59.9977   35.6723   54.0982 H   0  0  0  0  0  0  0  0  0  0  0  0
   58.2429   35.2881   54.0982 H   0  0  0  0  0  0  0  0  0  0  0  0
   60.3220   32.2277   50.4635 H   0  0  0  0  0  0  0  0  0  0  0  0
   59.7231   30.1144   44.2128 H   0  0  0  0  0  0  0  0  0  0  0  0
   59.9144   27.6341   44.0892 H   0  0  0  0  0  0  0  0  0  0  0  0
   57.9810   26.1961   44.7438 H   0  0  0  0  0  0  0  0  0  0  0  0
   57.2716   23.9191   45.0715 H   0  0  0  0  0  0  0  0  0  0  0  0
   55.8262   23.9820   44.0068 H   0  0  0  0  0  0  0  0  0  0  0  0
   57.0015   25.3404   44.0068 H   0  0  0  0  0  0  0  0  0  0  0  0
   55.6794   29.7300   45.7330 H   0  0  0  0  0  0  0  0  0  0  0  0
   59.0033   35.6097   46.5830 H   0  0  0  0  0  0  0  0  0  0  0  0
  1  2  1  0
  2  3  1  0
  3  4  2  0
  4  5  1  0
  5  6  1  0
  5  7  2  0
  7  8  1  0
  8  9  1  0
  9 10  1  0
  9 11  2  0
  9 12  2  0
  7 13  1  0
 13 14  2  0
 14 15  1  0
 15 16  2  3
 16 17  1  0
 17 18  2  0
 18 19  1  0
 19 20  1  0
 20 21  2  0
 21 22  1  0
 22 23  2  0
 23 24  1  0
 24 25  1  0
 25 26  1  0
 26 27  1  0
 26 28  2  0
 26 29  2  0
 24 30  2  0
 18 31  1  0
 31 32  1  0
 31 33  2  0
 33 34  1  0
 14  3  1  0
 34 16  1  0
 30 20  1  0
  1 35  1  0
  1 36  1  0
  1 37  1  0
  4 38  1  0
  6 39  1  0
  6 40  1  0
  6 41  1  0
  8 42  1  0
 10 43  1  0
 10 44  1  0
 10 45  1  0
 13 46  1  0
 21 47  1  0
 22 48  1  0
 23 49  1  0
 27 50  1  0
 27 51  1  0
 27 52  1  0
 30 53  1  0
 33 54  1  0
M  CHG  2  25  -1  34  -1
M  END
>  <UniqueID>  (69) 
66

>  <SMILES>  (69) 
COc1cc(C)c(NS(C)(=O)=O)cc1N=c1nc(Oc2cccc([N-]S(C)(=O)=O)c2)c(Cl)c[n-]1

>  <Energy>  (69) 
65.58833576076059

>  <Genealogy>  (69) 
COc1cc(C)c(NS(C)(=O)=O)cc1N=c1nc(Oc2cccc([N-]S(C)(=O)=O)c2)c(Cl)c[n-]1 (protonated)
COc1cc(C)c(NS(C)(=O)=O)cc1N=c1nc(Oc2cccc([N-]S(C)(=O)=O)c2)c(Cl)c[n-]1 (3D coordinates assigned)
COc1cc(C)c(NS(C)(=O)=O)cc1N=c1nc(Oc2cccc([N-]S(C)(=O)=O)c2)c(Cl)c[n-]1 (optimized conformer: 65.58833576076059 kcal/mol)

>  <smiles>  (69) 
COc1cc(C)c(NS(C)(=O)=O)cc1N=c1nc(Oc2cccc(NS(C)(=O)=O)c2)c(Cl)c[nH]1

>  <score_type>  (69) 
oracle

>  <origin>  (69) 
adg

>  <m_score__min__energy>  (69) 
-12.56

>  <m_primary>  (69) 
energy

$$$$
69:0
     RDKit          3D

 17 17  0  0  0  0  0  0  0  0999 V2000
   57.5580   31.6010   42.8320 C   0  0  0  0  0  0  0  0  0  0  0  0
   57.3440   31.7010   44.3130 C   0  0  0  0  0  0  0  0  0  0  0  0
   56.5950   30.8520   44.8690 O   0  0  0  0  0  0  0  0  0  0  0  0
   57.9850   32.7670   45.1290 C   0  0  0  0  0  0  0  0  0  0  0  0
   58.6600   33.8310   44.4970 C   0  0  0  0  0  0  0  0  0  0  0  0
   59.2660   34.8380   45.2520 C   0  0  0  0  0  0  0  0  0  0  0  0
   59.2100   34.7990   46.6470 C   0  0  0  0  0  0  0  0  0  0  0  0
   58.5450   33.7520   47.2890 C   0  0  0  0  0  0  0  0  0  0  0  0
   57.9360   32.7410   46.5390 C   0  0  0  0  0  0  0  0  0  0  0  0
   58.5382   31.1430   42.6333 H   0  0  0  0  0  0  0  0  0  0  0  0
   56.7662   30.9797   42.3882 H   0  0  0  0  0  0  0  0  0  0  0  0
   57.5266   32.6070   42.3882 H   0  0  0  0  0  0  0  0  0  0  0  0
   58.7100   33.8687   43.3988 H   0  0  0  0  0  0  0  0  0  0  0  0
   59.7885   35.6636   44.7467 H   0  0  0  0  0  0  0  0  0  0  0  0
   59.6892   35.5922   47.2395 H   0  0  0  0  0  0  0  0  0  0  0  0
   58.5002   33.7226   48.3877 H   0  0  0  0  0  0  0  0  0  0  0  0
   57.4148   31.9193   47.0520 H   0  0  0  0  0  0  0  0  0  0  0  0
  1  2  1  0
  2  3  2  0
  2  4  1  0
  4  5  2  0
  5  6  1  0
  6  7  2  0
  7  8  1  0
  8  9  2  0
  9  4  1  0
  1 10  1  0
  1 11  1  0
  1 12  1  0
  5 13  1  0
  6 14  1  0
  7 15  1  0
  8 16  1  0
  9 17  1  0
M  END
>  <UniqueID>  (70) 
67

>  <SMILES>  (70) 
CC(=O)c1ccccc1

>  <Energy>  (70) 
15.778894217520877

>  <Genealogy>  (70) 
CC(=O)c1ccccc1 (3D coordinates assigned)
CC(=O)c1ccccc1 (optimized conformer: 15.778894217520877 kcal/mol)

>  <smiles>  (70) 
CC(=O)c1ccccc1

>  <score_type>  (70) 
oracle

>  <origin>  (70) 
adg

>  <m_score__min__energy>  (70) 
-4.9500000000000002

>  <m_primary>  (70) 
energy

$$$$
70:0
     RDKit          3D

 40 42  0  0  0  0  0  0  0  0999 V2000
   55.1290   29.3350   44.8040 N   0  0  0  0  0  0  0  0  0  0  0  0
   56.7540   29.5420   44.2540 S   0  0  0  0  0  0  0  0  0  0  0  0
   57.4370   28.2070   44.1850 O   0  0  0  0  0  0  0  0  0  0  0  0
   56.7290   30.1520   42.8810 O   0  0  0  0  0  0  0  0  0  0  0  0
   57.6260   30.5870   45.3750 C   0  0  0  0  0  0  0  0  0  0  0  0
   57.6790   31.9720   45.1610 C   0  0  0  0  0  0  0  0  0  0  0  0
   58.3710   32.7970   46.0520 C   0  0  0  0  0  0  0  0  0  0  0  0
   59.0100   32.2540   47.1750 C   0  0  0  0  0  0  0  0  0  0  0  0
   59.7320   33.1210   48.0680 N   0  0  0  0  0  0  0  0  0  0  0  0
   61.1340   33.4160   47.9390 C   0  0  0  0  0  0  0  0  0  0  0  0
   61.7160   33.4490   46.6610 C   0  0  0  0  0  0  0  0  0  0  0  0
   63.0890   33.6450   46.5090 C   0  0  0  0  0  0  0  0  0  0  0  0
   63.9000   33.7950   47.6320 C   0  0  0  0  0  0  0  0  0  0  0  0
   63.3410   33.7560   48.9100 C   0  0  0  0  0  0  0  0  0  0  0  0
   61.9550   33.5730   49.0860 C   0  0  0  0  0  0  0  0  0  0  0  0
   61.3980   33.5880   50.4620 C   0  0  0  0  0  0  0  0  0  0  0  0
   62.1280   33.2740   51.4410 O   0  0  0  0  0  0  0  0  0  0  0  0
   60.0150   33.9300   50.6610 N   0  0  0  0  0  0  0  0  0  0  0  0
   59.0640   33.1470   51.0830 C   0  0  0  0  0  0  0  0  0  0  0  0
   58.7040   32.0300   50.3880 N   0  0  0  0  0  0  0  0  0  0  0  0
   57.7140   31.2010   50.8140 C   0  0  0  0  0  0  0  0  0  0  0  0
   57.0310   31.4820   52.0000 C   0  0  0  0  0  0  0  0  0  0  0  0
   55.7510   30.4200   52.5600 Cl  0  0  0  0  0  0  0  0  0  0  0  0
   57.3770   32.6190   52.7330 C   0  0  0  0  0  0  0  0  0  0  0  0
   58.3970   33.4580   52.2770 C   0  0  0  0  0  0  0  0  0  0  0  0
   58.7330   34.5620   52.9910 F   0  0  0  0  0  0  0  0  0  0  0  0
   58.9720   30.8620   47.3770 C   0  0  0  0  0  0  0  0  0  0  0  0
   58.2800   30.0350   46.4870 C   0  0  0  0  0  0  0  0  0  0  0  0
   58.2570   28.6960   46.7040 F   0  0  0  0  0  0  0  0  0  0  0  0
   55.1640   28.6830   45.6190 H   0  0  0  0  0  0  0  0  0  0  0  0
   57.1737   32.4109   44.2881 H   0  0  0  0  0  0  0  0  0  0  0  0
   58.4145   33.8810   45.8704 H   0  0  0  0  0  0  0  0  0  0  0  0
   59.2240   33.5220   48.8890 H   0  0  0  0  0  0  0  0  0  0  0  0
   61.0828   33.3190   45.7709 H   0  0  0  0  0  0  0  0  0  0  0  0
   63.5313   33.6811   45.5025 H   0  0  0  0  0  0  0  0  0  0  0  0
   64.9831   33.9445   47.5109 H   0  0  0  0  0  0  0  0  0  0  0  0
   63.9902   33.8695   49.7907 H   0  0  0  0  0  0  0  0  0  0  0  0
   57.4510   30.3098   50.2253 H   0  0  0  0  0  0  0  0  0  0  0  0
   56.8473   32.8538   53.6680 H   0  0  0  0  0  0  0  0  0  0  0  0
   59.4904   30.4213   48.2413 H   0  0  0  0  0  0  0  0  0  0  0  0
  1  2  1  0
  2  3  2  0
  2  4  2  0
  2  5  1  0
  5  6  2  0
  6  7  1  0
  7  8  2  0
  8  9  1  0
  9 10  1  0
 10 11  2  0
 11 12  1  0
 12 13  2  0
 13 14  1  0
 14 15  2  0
 15 16  1  0
 16 17  2  0
 16 18  1  0
 18 19  2  3
 19 20  1  0
 20 21  1  0
 21 22  2  0
 22 23  1  0
 22 24  1  0
 24 25  2  0
 25 26  1  0
  8 27  1  0
 27 28  2  0
 28 29  1  0
 28  5  1  0
 15 10  1  0
 25 19  1  0
  1 30  1  0
  6 31  1  0
  7 32  1  0
  9 33  1  0
 11 34  1  0
 12 35  1  0
 13 36  1  0
 14 37  1  0
 21 38  1  0
 24 39  1  0
 27 40  1  0
M  CHG  2   1  -1  20  -1
M  END
>  <UniqueID>  (71) 
68

>  <SMILES>  (71) 
[NH-]S(=O)(=O)c1ccc(Nc2ccccc2C(=O)N=c2[n-]cc(Cl)cc2F)cc1F

>  <Energy>  (71) 
56.32150539214697

>  <Genealogy>  (71) 
[NH-]S(=O)(=O)c1ccc(Nc2ccccc2C(=O)N=c2[n-]cc(Cl)cc2F)cc1F (protonated)
[NH-]S(=O)(=O)c1ccc(Nc2ccccc2C(=O)N=c2[n-]cc(Cl)cc2F)cc1F (3D coordinates assigned)
[NH-]S(=O)(=O)c1ccc(Nc2ccccc2C(=O)N=c2[n-]cc(Cl)cc2F)cc1F (optimized conformer: 56.32150539214697 kcal/mol)

>  <smiles>  (71) 
NS(=O)(=O)c1ccc(Nc2ccccc2C(=O)N=c2[nH]cc(Cl)cc2F)cc1F

>  <score_type>  (71) 
oracle

>  <origin>  (71) 
adg

>  <m_score__min__energy>  (71) 
-12.26

>  <m_primary>  (71) 
energy

$$$$
71:0
     RDKit          3D

 51 54  0  0  0  0  0  0  0  0999 V2000
   57.8360   23.7790   44.6503 H   0  0  0  0  0  0  0  0  0  0  0  0
   57.1000   24.5030   45.0300 C   0  0  0  0  0  0  0  0  0  0  0  0
   57.4760   25.7820   45.2900 N   0  0  0  0  0  0  0  0  0  0  0  0
   56.5830   26.6940   45.7590 C   0  0  0  0  0  0  0  0  0  0  0  0
   56.9780   27.9070   45.9960 N   0  0  0  0  0  0  0  0  0  0  0  0
   56.7850   29.2200   44.8800 S   0  0  0  0  0  0  0  0  0  0  0  0
   55.3410   29.6370   44.8290 O   0  0  0  0  0  0  0  0  0  0  0  0
   57.2230   28.7930   43.5070 O   0  0  0  0  0  0  0  0  0  0  0  0
   57.7720   30.5750   45.4150 C   0  0  0  0  0  0  0  0  0  0  0  0
   57.3850   31.8880   45.1180 C   0  0  0  0  0  0  0  0  0  0  0  0
   56.4565   32.0721   44.5576 H   0  0  0  0  0  0  0  0  0  0  0  0
   58.1740   32.9650   45.5310 C   0  0  0  0  0  0  0  0  0  0  0  0
   57.8723   33.9927   45.2802 H   0  0  0  0  0  0  0  0  0  0  0  0
   59.3460   32.7420   46.2620 C   0  0  0  0  0  0  0  0  0  0  0  0
   60.1670   33.8630   46.6270 N   0  0  0  0  0  0  0  0  0  0  0  0
   61.3390   33.8520   47.2120 C   0  0  0  0  0  0  0  0  0  0  0  0
   62.5240   33.7660   46.4520 C   0  0  0  0  0  0  0  0  0  0  0  0
   62.4698   33.7187   45.3544 H   0  0  0  0  0  0  0  0  0  0  0  0
   63.7560   33.7410   47.0850 C   0  0  0  0  0  0  0  0  0  0  0  0
   64.6797   33.6855   46.4903 H   0  0  0  0  0  0  0  0  0  0  0  0
   63.8230   33.7860   48.4680 C   0  0  0  0  0  0  0  0  0  0  0  0
   64.8008   33.7755   48.9718 H   0  0  0  0  0  0  0  0  0  0  0  0
   62.6440   33.8450   49.2260 C   0  0  0  0  0  0  0  0  0  0  0  0
   62.7770   33.8860   50.7310 C   0  0  0  0  0  0  0  0  0  0  0  0
   61.8224   33.5917   51.1916 H   0  0  0  0  0  0  0  0  0  0  0  0
   63.5673   33.1898   51.0484 H   0  0  0  0  0  0  0  0  0  0  0  0
   63.0381   34.9063   51.0484 H   0  0  0  0  0  0  0  0  0  0  0  0
   61.4130   33.8760   48.5940 N   0  0  0  0  0  0  0  0  0  0  0  0
   60.1670   33.9210   49.4000 C   0  0  0  0  0  0  0  0  0  0  0  0
   60.3493   34.5163   50.3069 H   0  0  0  0  0  0  0  0  0  0  0  0
   59.3752   34.3749   48.7860 H   0  0  0  0  0  0  0  0  0  0  0  0
   59.7180   32.5360   49.8040 C   0  0  0  0  0  0  0  0  0  0  0  0
   60.5480   31.4260   49.5610 C   0  0  0  0  0  0  0  0  0  0  0  0
   61.5162   31.5664   49.0581 H   0  0  0  0  0  0  0  0  0  0  0  0
   60.1490   30.1470   49.9550 C   0  0  0  0  0  0  0  0  0  0  0  0
   60.7995   29.2831   49.7538 H   0  0  0  0  0  0  0  0  0  0  0  0
   58.9260   29.9620   50.6040 C   0  0  0  0  0  0  0  0  0  0  0  0
   58.6108   28.9526   50.9069 H   0  0  0  0  0  0  0  0  0  0  0  0
   58.1040   31.0590   50.8680 C   0  0  0  0  0  0  0  0  0  0  0  0
   57.1440   30.9135   51.3849 H   0  0  0  0  0  0  0  0  0  0  0  0
   58.4980   32.3420   50.4770 C   0  0  0  0  0  0  0  0  0  0  0  0
   57.8509   33.2040   50.6966 H   0  0  0  0  0  0  0  0  0  0  0  0
   59.7570   31.4250   46.5220 C   0  0  0  0  0  0  0  0  0  0  0  0
   60.7024   31.2407   47.0533 H   0  0  0  0  0  0  0  0  0  0  0  0
   58.9690   30.3470   46.1080 C   0  0  0  0  0  0  0  0  0  0  0  0
   59.2890   29.3175   46.3266 H   0  0  0  0  0  0  0  0  0  0  0  0
   55.2900   26.3230   45.9740 N   0  0  0  0  0  0  0  0  0  0  0  0
   54.8750   25.0530   45.7270 C   0  0  0  0  0  0  0  0  0  0  0  0
   53.8272   24.7705   45.9070 H   0  0  0  0  0  0  0  0  0  0  0  0
   55.7800   24.1090   45.2450 C   0  0  0  0  0  0  0  0  0  0  0  0
   55.4602   23.0769   45.0390 H   0  0  0  0  0  0  0  0  0  0  0  0
  1  2  1  0
  2  3  2  0
  3  4  1  0
  4  5  2  3
  5  6  1  0
  6  7  2  0
  6  8  2  0
  6  9  1  0
  9 10  2  0
 10 11  1  0
 10 12  1  0
 12 13  1  0
 12 14  2  0
 14 15  1  0
 15 16  2  0
 16 17  1  0
 17 18  1  0
 17 19  2  0
 19 20  1  0
 19 21  1  0
 21 22  1  0
 21 23  2  0
 23 24  1  0
 24 25  1  0
 24 26  1  0
 24 27  1  0
 23 28  1  0
 28 29  1  0
 29 30  1  0
 29 31  1  0
 29 32  1  0
 32 33  2  0
 33 34  1  0
 33 35  1  0
 35 36  1  0
 35 37  2  0
 37 38  1  0
 37 39  1  0
 39 40  1  0
 39 41  2  0
 41 42  1  0
 14 43  1  0
 43 44  1  0
 43 45  2  0
 45 46  1  0
  4 47  1  0
 47 48  1  0
 48 49  1  0
 48 50  2  0
 50 51  1  0
 50  2  1  0
 45  9  1  0
 28 16  1  0
 41 32  1  0
M  CHG  1  47  -1
M  END
>  <UniqueID>  (72) 
69

>  <SMILES>  (72) 
Cc1ccc/c(=N\c2ccc(S(=O)(=O)N=c3nccc[n-]3)cc2)n1Cc1ccccc1

>  <Energy>  (72) 
76.10612026161527

>  <Genealogy>  (72) 
Cc1cccc(=Nc2ccc(S(=O)(=O)N=c3nccc[n-]3)cc2)n1Cc1ccccc1 (protonated)
Cc1ccc/c(=N\c2ccc(S(=O)(=O)N=c3nccc[n-]3)cc2)n1Cc1ccccc1 (cis-trans isomerization)
Cc1ccc/c(=N\c2ccc(S(=O)(=O)N=c3nccc[n-]3)cc2)n1Cc1ccccc1 (3D coordinates assigned)
Cc1ccc/c(=N\c2ccc(S(=O)(=O)N=c3nccc[n-]3)cc2)n1Cc1ccccc1 (optimized conformer: 76.10612026161527 kcal/mol)

>  <smiles>  (72) 
Cc1cccc(=Nc2ccc(S(=O)(=O)N=c3nccc[nH]3)cc2)n1Cc1ccccc1

>  <score_type>  (72) 
oracle

>  <origin>  (72) 
adg

>  <m_score__min__energy>  (72) 
-10.9

>  <m_primary>  (72) 
energy

$$$$
72:0
     RDKit          3D

 40 42  0  0  0  0  0  0  0  0999 V2000
   58.1220   29.4000   44.0410 N   0  0  0  0  0  0  0  0  0  0  0  0
   57.0860   30.7870   44.0230 S   0  0  0  0  0  0  0  0  0  0  0  0
   55.8240   30.4870   44.7840 O   0  0  0  0  0  0  0  0  0  0  0  0
   56.7290   31.1130   42.5980 O   0  0  0  0  0  0  0  0  0  0  0  0
   57.9100   32.1580   44.7680 C   0  0  0  0  0  0  0  0  0  0  0  0
   57.4970   33.4720   44.5090 C   0  0  0  0  0  0  0  0  0  0  0  0
   58.1740   34.5470   45.0910 C   0  0  0  0  0  0  0  0  0  0  0  0
   59.2610   34.3160   45.9400 C   0  0  0  0  0  0  0  0  0  0  0  0
   59.6880   33.0100   46.2050 C   0  0  0  0  0  0  0  0  0  0  0  0
   60.8370   32.8250   47.0470 N   0  0  0  0  0  0  0  0  0  0  0  0
   61.4990   31.3040   47.5650 S   0  0  0  0  0  0  0  0  0  0  0  0
   61.8660   31.3670   49.0250 O   0  0  0  0  0  0  0  0  0  0  0  0
   62.7510   31.0520   46.7720 O   0  0  0  0  0  0  0  0  0  0  0  0
   60.3700   29.9770   47.2830 C   0  0  0  0  0  0  0  0  0  0  0  0
   59.2340   29.8550   48.0960 C   0  0  0  0  0  0  0  0  0  0  0  0
   58.3170   28.8200   47.8840 C   0  0  0  0  0  0  0  0  0  0  0  0
   58.5160   27.8950   46.8420 C   0  0  0  0  0  0  0  0  0  0  0  0
   57.5820   26.8160   46.6210 N   0  0  0  0  0  0  0  0  0  0  0  0
   57.7650   25.4370   47.0640 C   0  0  0  0  0  0  0  0  0  0  0  0
   56.4370   24.7120   46.7430 C   0  0  0  0  0  0  0  0  0  0  0  0
   55.6110   25.6660   46.0140 N   0  0  0  0  0  0  0  0  0  0  0  0
   56.3210   26.8850   45.9790 C   0  0  0  0  0  0  0  0  0  0  0  0
   55.8990   27.8950   45.3560 O   0  0  0  0  0  0  0  0  0  0  0  0
   59.6680   28.0170   46.0370 C   0  0  0  0  0  0  0  0  0  0  0  0
   60.5860   29.0470   46.2580 C   0  0  0  0  0  0  0  0  0  0  0  0
   59.0040   31.9290   45.6170 C   0  0  0  0  0  0  0  0  0  0  0  0
   58.5550   29.3230   43.0950 H   0  0  0  0  0  0  0  0  0  0  0  0
   57.5140   28.5610   44.1590 H   0  0  0  0  0  0  0  0  0  0  0  0
   56.6386   33.6574   43.8466 H   0  0  0  0  0  0  0  0  0  0  0  0
   57.8512   35.5773   44.8809 H   0  0  0  0  0  0  0  0  0  0  0  0
   59.7837   35.1663   46.4024 H   0  0  0  0  0  0  0  0  0  0  0  0
   59.0626   30.5786   48.9066 H   0  0  0  0  0  0  0  0  0  0  0  0
   57.4354   28.7286   48.5354 H   0  0  0  0  0  0  0  0  0  0  0  0
   58.5987   24.9676   46.5211 H   0  0  0  0  0  0  0  0  0  0  0  0
   58.0063   25.3846   48.1359 H   0  0  0  0  0  0  0  0  0  0  0  0
   56.6290   23.8239   46.1230 H   0  0  0  0  0  0  0  0  0  0  0  0
   55.9365   24.3729   47.6620 H   0  0  0  0  0  0  0  0  0  0  0  0
   59.8454   27.2940   45.2272 H   0  0  0  0  0  0  0  0  0  0  0  0
   61.4817   29.1278   45.6246 H   0  0  0  0  0  0  0  0  0  0  0  0
   59.3289   30.8987   45.8242 H   0  0  0  0  0  0  0  0  0  0  0  0
  1  2  1  0
  2  3  2  0
  2  4  2  0
  2  5  1  0
  5  6  2  0
  6  7  1  0
  7  8  2  0
  8  9  1  0
  9 10  1  0
 10 11  1  0
 11 12  2  0
 11 13  2  0
 11 14  1  0
 14 15  2  0
 15 16  1  0
 16 17  2  0
 17 18  1  0
 18 19  1  0
 19 20  1  0
 20 21  1  0
 21 22  1  0
 22 23  2  0
 17 24  1  0
 24 25  2  0
  9 26  2  0
 26  5  1  0
 25 14  1  0
 22 18  1  0
  1 27  1  0
  1 28  1  0
  6 29  1  0
  7 30  1  0
  8 31  1  0
 15 32  1  0
 16 33  1  0
 19 34  1  0
 19 35  1  0
 20 36  1  0
 20 37  1  0
 24 38  1  0
 25 39  1  0
 26 40  1  0
M  CHG  2  10  -1  21  -1
M  END
>  <UniqueID>  (73) 
70

>  <SMILES>  (73) 
NS(=O)(=O)c1cccc([N-]S(=O)(=O)c2ccc(N3CC[N-]C3=O)cc2)c1

>  <Energy>  (73) 
61.9017936194005

>  <Genealogy>  (73) 
NS(=O)(=O)c1cccc([N-]S(=O)(=O)c2ccc(N3CC[N-]C3=O)cc2)c1 (protonated)
NS(=O)(=O)c1cccc([N-]S(=O)(=O)c2ccc(N3CC[N-]C3=O)cc2)c1 (3D coordinates assigned)
NS(=O)(=O)c1cccc([N-]S(=O)(=O)c2ccc(N3CC[N-]C3=O)cc2)c1 (nonaromatic ring conformer: 61.9017936194005 kcal/mol)

>  <smiles>  (73) 
NS(=O)(=O)c1cccc(NS(=O)(=O)c2ccc(N3CCNC3=O)cc2)c1

>  <score_type>  (73) 
oracle

>  <origin>  (73) 
adg

>  <m_score__min__energy>  (73) 
-11.76

>  <m_primary>  (73) 
energy

$$$$
73:0
     RDKit          3D

 43 45  0  0  0  0  0  0  0  0999 V2000
   56.8330   24.3790   44.7580 C   0  0  0  0  0  0  0  0  0  0  0  0
   55.7870   25.2780   45.8830 S   0  0  0  0  0  0  0  0  0  0  0  0
   56.1970   24.9410   47.2890 O   0  0  0  0  0  0  0  0  0  0  0  0
   54.3520   24.8850   45.6810 O   0  0  0  0  0  0  0  0  0  0  0  0
   55.9740   26.9840   45.6360 N   0  0  0  0  0  0  0  0  0  0  0  0
   57.1700   27.6920   46.0020 C   0  0  0  0  0  0  0  0  0  0  0  0
   58.1670   27.0330   46.7420 C   0  0  0  0  0  0  0  0  0  0  0  0
   59.3750   27.6670   47.0330 C   0  0  0  0  0  0  0  0  0  0  0  0
   59.6220   28.9610   46.5750 C   0  0  0  0  0  0  0  0  0  0  0  0
   60.8490   29.5650   46.8910 O   0  0  0  0  0  0  0  0  0  0  0  0
   61.0150   30.8830   47.3420 C   0  0  0  0  0  0  0  0  0  0  0  0
   59.9760   31.4830   48.0650 C   0  0  0  0  0  0  0  0  0  0  0  0
   60.1100   32.7910   48.5410 C   0  0  0  0  0  0  0  0  0  0  0  0
   61.2890   33.5040   48.3070 C   0  0  0  0  0  0  0  0  0  0  0  0
   62.3390   32.9070   47.6040 C   0  0  0  0  0  0  0  0  0  0  0  0
   62.2080   31.5980   47.1270 C   0  0  0  0  0  0  0  0  0  0  0  0
   58.6240   29.6410   45.8580 C   0  0  0  0  0  0  0  0  0  0  0  0
   57.3940   29.0220   45.5650 C   0  0  0  0  0  0  0  0  0  0  0  0
   56.3580   29.8100   44.8560 C   0  0  0  0  0  0  0  0  0  0  0  0
   55.1690   29.3940   44.8080 O   0  0  0  0  0  0  0  0  0  0  0  0
   56.7370   31.0240   44.1840 N   0  0  0  0  0  0  0  0  0  0  0  0
   57.3410   32.0770   44.6620 C   0  0  0  0  0  0  0  0  0  0  0  0
   58.2720   32.8380   43.9210 C   0  0  0  0  0  0  0  0  0  0  0  0
   58.8630   33.9600   44.5060 C   0  0  0  0  0  0  0  0  0  0  0  0
   58.5260   34.3280   45.8080 C   0  0  0  0  0  0  0  0  0  0  0  0
   57.5900   33.5690   46.5080 C   0  0  0  0  0  0  0  0  0  0  0  0
   57.0240   32.4790   45.9250 N   0  0  0  0  0  0  0  0  0  0  0  0
   57.5456   23.7665   45.3299 H   0  0  0  0  0  0  0  0  0  0  0  0
   56.2145   23.7263   44.1244 H   0  0  0  0  0  0  0  0  0  0  0  0
   57.3853   25.0886   44.1244 H   0  0  0  0  0  0  0  0  0  0  0  0
   55.1490   27.5130   45.2740 H   0  0  0  0  0  0  0  0  0  0  0  0
   57.9927   26.0060   47.0955 H   0  0  0  0  0  0  0  0  0  0  0  0
   60.1378   27.1429   47.6276 H   0  0  0  0  0  0  0  0  0  0  0  0
   59.0498   30.9223   48.2593 H   0  0  0  0  0  0  0  0  0  0  0  0
   59.2866   33.2592   49.1002 H   0  0  0  0  0  0  0  0  0  0  0  0
   61.3905   34.5352   48.6762 H   0  0  0  0  0  0  0  0  0  0  0  0
   63.2691   33.4665   47.4255 H   0  0  0  0  0  0  0  0  0  0  0  0
   63.0396   31.1267   46.5826 H   0  0  0  0  0  0  0  0  0  0  0  0
   58.8060   30.6720   45.5205 H   0  0  0  0  0  0  0  0  0  0  0  0
   58.5295   32.5492   42.8913 H   0  0  0  0  0  0  0  0  0  0  0  0
   59.5950   34.5540   43.9391 H   0  0  0  0  0  0  0  0  0  0  0  0
   58.9932   35.2066   46.2769 H   0  0  0  0  0  0  0  0  0  0  0  0
   57.3089   33.8521   47.5331 H   0  0  0  0  0  0  0  0  0  0  0  0
  1  2  1  0
  2  3  2  0
  2  4  2  0
  2  5  1  0
  5  6  1  0
  6  7  2  0
  7  8  1  0
  8  9  2  0
  9 10  1  0
 10 11  1  0
 11 12  2  0
 12 13  1  0
 13 14  2  0
 14 15  1  0
 15 16  2  0
  9 17  1  0
 17 18  2  0
 18 19  1  0
 19 20  2  0
 19 21  1  0
 21 22  2  3
 22 23  1  0
 23 24  2  0
 24 25  1  0
 25 26  2  0
 26 27  1  0
 18  6  1  0
 27 22  1  0
 16 11  1  0
  1 28  1  0
  1 29  1  0
  1 30  1  0
  5 31  1  0
  7 32  1  0
  8 33  1  0
 12 34  1  0
 13 35  1  0
 14 36  1  0
 15 37  1  0
 16 38  1  0
 17 39  1  0
 23 40  1  0
 24 41  1  0
 25 42  1  0
 26 43  1  0
M  CHG  1  27  -1
M  END
>  <UniqueID>  (74) 
71

>  <SMILES>  (74) 
CS(=O)(=O)Nc1ccc(Oc2ccccc2)cc1C(=O)N=c1cccc[n-]1

>  <Energy>  (74) 
64.58023411451893

>  <Genealogy>  (74) 
CS(=O)(=O)Nc1ccc(Oc2ccccc2)cc1C(=O)N=c1cccc[n-]1 (protonated)
CS(=O)(=O)Nc1ccc(Oc2ccccc2)cc1C(=O)N=c1cccc[n-]1 (3D coordinates assigned)
CS(=O)(=O)Nc1ccc(Oc2ccccc2)cc1C(=O)N=c1cccc[n-]1 (optimized conformer: 64.58023411451893 kcal/mol)

>  <smiles>  (74) 
CS(=O)(=O)Nc1ccc(Oc2ccccc2)cc1C(=O)N=c1cccc[nH]1

>  <score_type>  (74) 
oracle

>  <origin>  (74) 
adg

>  <m_score__min__energy>  (74) 
-10.949999999999999

>  <m_primary>  (74) 
energy

$$$$
74:0
     RDKit          3D

 34 35  0  0  0  0  0  0  0  0999 V2000
   62.3980   32.1310   47.8360 C   0  0  0  0  0  0  0  0  0  0  0  0
   61.1590   31.3210   47.5910 C   0  0  0  0  0  0  0  0  0  0  0  0
   61.2670   30.1940   47.1330 O   0  0  0  0  0  0  0  0  0  0  0  0
   59.7890   31.8700   47.8920 C   0  0  0  0  0  0  0  0  0  0  0  0
   59.3820   32.8900   46.8490 C   0  0  0  0  0  0  0  0  0  0  0  0
   59.9320   34.1830   46.9230 C   0  0  0  0  0  0  0  0  0  0  0  0
   59.6570   35.1320   45.9380 C   0  0  0  0  0  0  0  0  0  0  0  0
   58.8420   34.8020   44.8570 C   0  0  0  0  0  0  0  0  0  0  0  0
   58.2930   33.5240   44.7590 C   0  0  0  0  0  0  0  0  0  0  0  0
   58.5440   32.5590   45.7500 C   0  0  0  0  0  0  0  0  0  0  0  0
   57.9320   31.2220   45.5930 C   0  0  0  0  0  0  0  0  0  0  0  0
   56.7360   31.1240   45.2080 O   0  0  0  0  0  0  0  0  0  0  0  0
   58.7000   30.0460   45.8920 N   0  0  0  0  0  0  0  0  0  0  0  0
   58.2470   28.7060   45.6350 C   0  0  0  0  0  0  0  0  0  0  0  0
   59.1220   27.7190   45.1450 C   0  0  0  0  0  0  0  0  0  0  0  0
   58.6620   26.4170   44.9220 C   0  0  0  0  0  0  0  0  0  0  0  0
   57.3320   26.0870   45.1980 C   0  0  0  0  0  0  0  0  0  0  0  0
   56.4620   27.0550   45.7070 C   0  0  0  0  0  0  0  0  0  0  0  0
   55.1430   26.7240   45.9890 O   0  0  0  0  0  0  0  0  0  0  0  0
   56.9200   28.3590   45.9310 C   0  0  0  0  0  0  0  0  0  0  0  0
   62.5590   32.2363   48.9190 H   0  0  0  0  0  0  0  0  0  0  0  0
   63.2631   31.6235   47.3843 H   0  0  0  0  0  0  0  0  0  0  0  0
   62.2802   33.1270   47.3843 H   0  0  0  0  0  0  0  0  0  0  0  0
   59.0614   31.0450   47.8939 H   0  0  0  0  0  0  0  0  0  0  0  0
   59.8119   32.3597   48.8767 H   0  0  0  0  0  0  0  0  0  0  0  0
   60.5860   34.4485   47.7667 H   0  0  0  0  0  0  0  0  0  0  0  0
   60.0844   36.1427   46.0149 H   0  0  0  0  0  0  0  0  0  0  0  0
   58.6313   35.5511   44.0795 H   0  0  0  0  0  0  0  0  0  0  0  0
   57.6576   33.2685   43.8982 H   0  0  0  0  0  0  0  0  0  0  0  0
   59.5780   30.1680   46.4460 H   0  0  0  0  0  0  0  0  0  0  0  0
   60.1719   27.9723   44.9365 H   0  0  0  0  0  0  0  0  0  0  0  0
   59.3477   25.6519   44.5290 H   0  0  0  0  0  0  0  0  0  0  0  0
   56.9699   25.0646   45.0144 H   0  0  0  0  0  0  0  0  0  0  0  0
   56.2355   29.1159   46.3415 H   0  0  0  0  0  0  0  0  0  0  0  0
  1  2  1  0
  2  3  2  0
  2  4  1  0
  4  5  1  0
  5  6  2  0
  6  7  1  0
  7  8  2  0
  8  9  1  0
  9 10  2  0
 10 11  1  0
 11 12  2  0
 11 13  1  0
 13 14  1  0
 14 15  2  0
 15 16  1  0
 16 17  2  0
 17 18  1  0
 18 19  1  0
 18 20  2  0
 10  5  1  0
 20 14  1  0
  1 21  1  0
  1 22  1  0
  1 23  1  0
  4 24  1  0
  4 25  1  0
  6 26  1  0
  7 27  1  0
  8 28  1  0
  9 29  1  0
 13 30  1  0
 15 31  1  0
 16 32  1  0
 17 33  1  0
 20 34  1  0
M  CHG  1  19  -1
M  END
>  <UniqueID>  (75) 
72

>  <SMILES>  (75) 
CC(=O)Cc1ccccc1C(=O)Nc1cccc([O-])c1

>  <Energy>  (75) 
39.903321186381554

>  <Genealogy>  (75) 
CC(=O)Cc1ccccc1C(=O)Nc1cccc([O-])c1 (protonated)
CC(=O)Cc1ccccc1C(=O)Nc1cccc([O-])c1 (3D coordinates assigned)
CC(=O)Cc1ccccc1C(=O)Nc1cccc([O-])c1 (optimized conformer: 39.903321186381554 kcal/mol)

>  <smiles>  (75) 
CC(=O)Cc1ccccc1C(=O)Nc1cccc(O)c1

>  <score_type>  (75) 
oracle

>  <origin>  (75) 
adg

>  <m_score__min__energy>  (75) 
-11.18

>  <m_primary>  (75) 
energy

$$$$
75:0
     RDKit          3D

 44 46  0  0  0  0  0  0  0  0999 V2000
   59.0424   35.1170   47.8422 H   0  0  0  0  0  0  0  0  0  0  0  0
   58.8180   34.5610   46.9200 C   0  0  0  0  0  0  0  0  0  0  0  0
   59.5460   34.8180   45.7550 C   0  0  0  0  0  0  0  0  0  0  0  0
   60.3536   35.5647   45.7654 H   0  0  0  0  0  0  0  0  0  0  0  0
   59.2490   34.1270   44.5760 C   0  0  0  0  0  0  0  0  0  0  0  0
   59.8233   34.3324   43.6606 H   0  0  0  0  0  0  0  0  0  0  0  0
   58.2180   33.1700   44.5570 C   0  0  0  0  0  0  0  0  0  0  0  0
   57.8770   32.4610   43.2750 C   0  0  0  0  0  0  0  0  0  0  0  0
   58.5367   32.8236   42.4730 H   0  0  0  0  0  0  0  0  0  0  0  0
   56.8269   32.6666   43.0202 H   0  0  0  0  0  0  0  0  0  0  0  0
   58.0550   31.0220   43.4310 N   0  0  0  0  0  0  0  0  0  0  0  0
   58.9190   30.5860   43.0370 H   0  0  0  0  0  0  0  0  0  0  0  0
   57.1060   30.1980   44.1250 C   0  0  0  0  0  0  0  0  0  0  0  0
   56.0360   30.6950   44.5690 O   0  0  0  0  0  0  0  0  0  0  0  0
   57.3790   28.7310   44.3190 C   0  0  0  0  0  0  0  0  0  0  0  0
   58.3835   28.6121   44.7513 H   0  0  0  0  0  0  0  0  0  0  0  0
   57.3045   28.2416   43.3367 H   0  0  0  0  0  0  0  0  0  0  0  0
   56.3590   28.0690   45.2520 C   0  0  0  0  0  0  0  0  0  0  0  0
   55.6085   27.5428   44.6439 H   0  0  0  0  0  0  0  0  0  0  0  0
   55.8906   28.8556   45.8619 H   0  0  0  0  0  0  0  0  0  0  0  0
   57.0110   27.0860   46.1770 C   0  0  0  0  0  0  0  0  0  0  0  0
   56.3380   26.1200   46.6320 O   0  0  0  0  0  0  0  0  0  0  0  0
   58.3920   27.2620   46.5280 N   0  0  0  0  0  0  0  0  0  0  0  0
   58.9630   28.3840   46.8460 C   0  0  0  0  0  0  0  0  0  0  0  0
   58.5860   29.1600   47.8930 N   0  0  0  0  0  0  0  0  0  0  0  0
   59.3850   30.2520   47.9880 C   0  0  0  0  0  0  0  0  0  0  0  0
   59.2690   31.2290   48.9750 C   0  0  0  0  0  0  0  0  0  0  0  0
   58.4800   31.1627   49.7386 H   0  0  0  0  0  0  0  0  0  0  0  0
   60.1780   32.3000   48.9770 C   0  0  0  0  0  0  0  0  0  0  0  0
   60.0983   33.0781   49.7505 H   0  0  0  0  0  0  0  0  0  0  0  0
   61.1930   32.3910   47.9990 C   0  0  0  0  0  0  0  0  0  0  0  0
   62.0720   33.4820   48.0540 O   0  0  0  0  0  0  0  0  0  0  0  0
   63.2150   33.6350   47.2190 C   0  0  0  0  0  0  0  0  0  0  0  0
   64.1122   33.7551   47.8440 H   0  0  0  0  0  0  0  0  0  0  0  0
   63.3271   32.7438   46.5840 H   0  0  0  0  0  0  0  0  0  0  0  0
   63.0888   34.5243   46.5840 H   0  0  0  0  0  0  0  0  0  0  0  0
   61.2950   31.3910   47.0050 C   0  0  0  0  0  0  0  0  0  0  0  0
   62.0770   31.4409   46.2330 H   0  0  0  0  0  0  0  0  0  0  0  0
   60.3810   30.3420   47.0280 C   0  0  0  0  0  0  0  0  0  0  0  0
   60.2880   29.0140   46.0050 S   0  0  0  0  0  0  0  0  0  0  0  0
   57.5080   32.8980   45.7380 C   0  0  0  0  0  0  0  0  0  0  0  0
   56.7170   32.1336   45.7392 H   0  0  0  0  0  0  0  0  0  0  0  0
   57.8050   33.5980   46.9140 C   0  0  0  0  0  0  0  0  0  0  0  0
   57.2401   33.3896   47.8346 H   0  0  0  0  0  0  0  0  0  0  0  0
  1  2  1  0
  2  3  2  0
  3  4  1  0
  3  5  1  0
  5  6  1  0
  5  7  2  0
  7  8  1  0
  8  9  1  0
  8 10  1  0
  8 11  1  0
 11 12  1  0
 11 13  1  0
 13 14  2  0
 13 15  1  0
 15 16  1  0
 15 17  1  0
 15 18  1  0
 18 19  1  0
 18 20  1  0
 18 21  1  0
 21 22  2  0
 21 23  1  0
 23 24  2  0
 24 25  1  0
 25 26  1  0
 26 27  2  0
 27 28  1  0
 27 29  1  0
 29 30  1  0
 29 31  2  0
 31 32  1  0
 32 33  1  0
 33 34  1  0
 33 35  1  0
 33 36  1  0
 31 37  1  0
 37 38  1  0
 37 39  2  0
 39 40  1  0
  7 41  1  0
 41 42  1  0
 41 43  2  0
 43 44  1  0
 43  2  1  0
 40 24  1  0
 39 26  1  0
M  CHG  1  25  -1
M  END
>  <UniqueID>  (76) 
73

>  <SMILES>  (76) 
COc1ccc2[n-]/c(=N\C(=O)CCC(=O)NCc3ccccc3)sc2c1

>  <Energy>  (76) 
70.29387307683928

>  <Genealogy>  (76) 
COc1ccc2[n-]c(=NC(=O)CCC(=O)NCc3ccccc3)sc2c1 (protonated)
COc1ccc2[n-]/c(=N\C(=O)CCC(=O)NCc3ccccc3)sc2c1 (cis-trans isomerization)
COc1ccc2[n-]/c(=N\C(=O)CCC(=O)NCc3ccccc3)sc2c1 (3D coordinates assigned)
COc1ccc2[n-]/c(=N\C(=O)CCC(=O)NCc3ccccc3)sc2c1 (optimized conformer: 70.29387307683928 kcal/mol)

>  <smiles>  (76) 
COc1ccc2[nH]c(=NC(=O)CCC(=O)NCc3ccccc3)sc2c1

>  <score_type>  (76) 
oracle

>  <origin>  (76) 
adg

>  <m_score__min__energy>  (76) 
-10.25

>  <m_primary>  (76) 
energy

$$$$
76:0
     RDKit          3D

 36 37  0  0  0  0  0  0  0  0999 V2000
   54.6410   23.4410   44.9580 C   0  0  0  0  0  0  0  0  0  0  0  0
   55.7610   24.3480   45.3560 C   0  0  0  0  0  0  0  0  0  0  0  0
   57.1110   24.0820   45.2350 C   0  0  0  0  0  0  0  0  0  0  0  0
   57.7540   25.2390   45.6290 C   0  0  0  0  0  0  0  0  0  0  0  0
   59.1350   25.4040   45.6480 O   0  0  0  0  0  0  0  0  0  0  0  0
   56.8720   26.1960   45.9900 N   0  0  0  0  0  0  0  0  0  0  0  0
   57.2040   27.5710   46.3920 C   0  0  1  0  0  0  0  0  0  0  0  0
   58.4810   27.5820   47.2390 C   0  0  0  0  0  0  0  0  0  0  0  0
   57.3220   28.4920   45.1930 C   0  0  0  0  0  0  0  0  0  0  0  0
   57.8870   28.0870   44.1430 O   0  0  0  0  0  0  0  0  0  0  0  0
   56.8750   29.8530   45.2490 N   0  0  0  0  0  0  0  0  0  0  0  0
   57.6720   30.9690   45.6610 C   0  0  0  0  0  0  0  0  0  0  0  0
   58.5400   30.8710   46.7580 C   0  0  0  0  0  0  0  0  0  0  0  0
   59.3070   31.9730   47.1500 C   0  0  0  0  0  0  0  0  0  0  0  0
   59.1910   33.1900   46.4650 C   0  0  0  0  0  0  0  0  0  0  0  0
   60.1780   34.5680   46.9420 S   0  0  0  0  0  0  0  0  0  0  0  0
   59.6700   35.9700   46.0680 N   0  0  0  0  0  0  0  0  0  0  0  0
   61.6230   34.2860   46.6410 O   0  0  0  0  0  0  0  0  0  0  0  0
   60.0320   34.8180   48.4170 O   0  0  0  0  0  0  0  0  0  0  0  0
   58.3000   33.2960   45.3880 C   0  0  0  0  0  0  0  0  0  0  0  0
   57.5350   32.1930   44.9980 C   0  0  0  0  0  0  0  0  0  0  0  0
   55.6500   25.6540   45.7930 C   0  0  0  0  0  0  0  0  0  0  0  0
   54.4500   26.3300   45.9790 O   0  0  0  0  0  0  0  0  0  0  0  0
   54.1518   23.0448   45.8601 H   0  0  0  0  0  0  0  0  0  0  0  0
   53.9084   24.0034   44.3606 H   0  0  0  0  0  0  0  0  0  0  0  0
   55.0388   22.6075   44.3606 H   0  0  0  0  0  0  0  0  0  0  0  0
   57.5765   23.1448   44.8958 H   0  0  0  0  0  0  0  0  0  0  0  0
   56.3784   27.9571   47.0079 H   0  0  0  0  0  0  0  0  0  0  0  0
   58.2133   27.5797   48.3059 H   0  0  0  0  0  0  0  0  0  0  0  0
   59.0809   26.6890   47.0095 H   0  0  0  0  0  0  0  0  0  0  0  0
   59.0654   28.4852   47.0095 H   0  0  0  0  0  0  0  0  0  0  0  0
   58.6180   29.9240   47.3122 H   0  0  0  0  0  0  0  0  0  0  0  0
   60.0025   31.8842   47.9976 H   0  0  0  0  0  0  0  0  0  0  0  0
   59.6050   36.7520   46.7580 H   0  0  0  0  0  0  0  0  0  0  0  0
   58.2026   34.2496   44.8484 H   0  0  0  0  0  0  0  0  0  0  0  0
   56.8219   32.2880   44.1658 H   0  0  0  0  0  0  0  0  0  0  0  0
  1  2  1  0
  2  3  1  0
  3  4  2  0
  4  5  1  0
  4  6  1  0
  6  7  1  0
  7  8  1  0
  7  9  1  0
  9 10  2  0
  9 11  1  0
 11 12  1  0
 12 13  2  0
 13 14  1  0
 14 15  2  0
 15 16  1  0
 16 17  1  0
 16 18  2  0
 16 19  2  0
 15 20  1  0
 20 21  2  0
  6 22  1  0
 22 23  1  0
 22  2  2  0
 21 12  1  0
  1 24  1  0
  1 25  1  0
  1 26  1  0
  3 27  1  0
  7 28  1  1
  8 29  1  0
  8 30  1  0
  8 31  1  0
 13 32  1  0
 14 33  1  0
 17 34  1  0
 20 35  1  0
 21 36  1  0
M  CHG  4   5  -1  11  -1  17  -1  23  -1
M  END
>  <UniqueID>  (77) 
74

>  <SMILES>  (77) 
Cc1cc([O-])n([C@@H](C)C(=O)[N-]c2ccc(S([NH-])(=O)=O)cc2)c1[O-]

>  <Energy>  (77) 
66.67324983680558

>  <Genealogy>  (77) 
Cc1cc([O-])n(C(C)C(=O)[N-]c2ccc(S([NH-])(=O)=O)cc2)c1[O-] (protonated)
Cc1cc([O-])n([C@@H](C)C(=O)[N-]c2ccc(S([NH-])(=O)=O)cc2)c1[O-] (chirality)
Cc1cc([O-])n([C@@H](C)C(=O)[N-]c2ccc(S([NH-])(=O)=O)cc2)c1[O-] (3D coordinates assigned)
Cc1cc([O-])n([C@@H](C)C(=O)[N-]c2ccc(S([NH-])(=O)=O)cc2)c1[O-] (optimized conformer: 66.67324983680558 kcal/mol)

>  <smiles>  (77) 
Cc1cc(O)n(C(C)C(=O)Nc2ccc(S(N)(=O)=O)cc2)c1O

>  <score_type>  (77) 
oracle

>  <origin>  (77) 
adg

>  <m_score__min__energy>  (77) 
-13.98

>  <m_primary>  (77) 
energy

$$$$
77:0
     RDKit          3D

 40 42  0  0  0  0  0  0  0  0999 V2000
   57.4737   20.6880   42.5946 H   0  0  0  0  0  0  0  0  0  0  0  0
   57.1000   21.4420   43.3030 C   0  0  0  0  0  0  0  0  0  0  0  0
   56.2830   22.4820   42.8500 C   0  0  0  0  0  0  0  0  0  0  0  0
   56.0062   22.5403   41.7870 H   0  0  0  0  0  0  0  0  0  0  0  0
   55.8180   23.4470   43.7460 C   0  0  0  0  0  0  0  0  0  0  0  0
   55.1612   24.2537   43.3883 H   0  0  0  0  0  0  0  0  0  0  0  0
   56.1830   23.3940   45.0980 C   0  0  0  0  0  0  0  0  0  0  0  0
   55.6680   24.3880   45.9940 N   0  0  0  0  0  0  0  0  0  0  0  0
   56.0500   25.7670   46.0220 C   0  0  0  0  0  0  0  0  0  0  0  0
   55.1470   26.6440   46.0040 O   0  0  0  0  0  0  0  0  0  0  0  0
   57.4390   26.1470   46.0420 N   0  0  0  0  0  0  0  0  0  0  0  0
   58.1590   25.3960   46.1250 H   0  0  0  0  0  0  0  0  0  0  0  0
   57.9000   27.5080   46.0580 C   0  0  0  0  0  0  0  0  0  0  0  0
   59.0020   27.8480   46.8570 C   0  0  0  0  0  0  0  0  0  0  0  0
   59.4877   27.0785   47.4750 H   0  0  0  0  0  0  0  0  0  0  0  0
   59.4860   29.1590   46.8720 C   0  0  0  0  0  0  0  0  0  0  0  0
   60.3435   29.4204   47.5095 H   0  0  0  0  0  0  0  0  0  0  0  0
   58.8830   30.1380   46.0790 C   0  0  0  0  0  0  0  0  0  0  0  0
   59.2640   31.1698   46.0967 H   0  0  0  0  0  0  0  0  0  0  0  0
   57.7940   29.8090   45.2610 C   0  0  0  0  0  0  0  0  0  0  0  0
   57.0530   31.0310   44.2340 S   0  0  0  0  0  0  0  0  0  0  0  0
   58.0150   31.4290   43.1490 O   0  0  0  0  0  0  0  0  0  0  0  0
   55.8000   30.4660   43.6260 O   0  0  0  0  0  0  0  0  0  0  0  0
   56.6710   32.4270   45.1930 N   0  0  0  0  0  0  0  0  0  0  0  0
   57.5560   33.2090   45.7300 C   0  0  0  0  0  0  0  0  0  0  0  0
   58.0860   34.2630   45.0820 N   0  0  0  0  0  0  0  0  0  0  0  0
   58.9260   34.8180   45.9070 O   0  0  0  0  0  0  0  0  0  0  0  0
   58.9630   34.1730   47.0510 C   0  0  0  0  0  0  0  0  0  0  0  0
   59.8140   34.5590   48.2130 C   0  0  0  0  0  0  0  0  0  0  0  0
   59.2872   34.3201   49.1487 H   0  0  0  0  0  0  0  0  0  0  0  0
   60.7623   34.0029   48.1738 H   0  0  0  0  0  0  0  0  0  0  0  0
   60.0203   35.6388   48.1738 H   0  0  0  0  0  0  0  0  0  0  0  0
   58.0880   33.1100   47.0030 C   0  0  0  0  0  0  0  0  0  0  0  0
   57.8672   32.3669   47.7834 H   0  0  0  0  0  0  0  0  0  0  0  0
   57.3130   28.4920   45.2410 C   0  0  0  0  0  0  0  0  0  0  0  0
   56.4723   28.2266   44.5831 H   0  0  0  0  0  0  0  0  0  0  0  0
   56.9800   22.3260   45.5560 C   0  0  0  0  0  0  0  0  0  0  0  0
   57.2730   22.1910   46.8740 F   0  0  0  0  0  0  0  0  0  0  0  0
   57.4420   21.3600   44.6550 C   0  0  0  0  0  0  0  0  0  0  0  0
   58.0756   20.5347   45.0120 H   0  0  0  0  0  0  0  0  0  0  0  0
  1  2  1  0
  2  3  2  0
  3  4  1  0
  3  5  1  0
  5  6  1  0
  5  7  2  0
  7  8  1  0
  8  9  1  0
  9 10  2  0
  9 11  1  0
 11 12  1  0
 11 13  1  0
 13 14  2  0
 14 15  1  0
 14 16  1  0
 16 17  1  0
 16 18  2  0
 18 19  1  0
 18 20  1  0
 20 21  1  0
 21 22  2  0
 21 23  2  0
 21 24  1  0
 24 25  2  0
 25 26  1  0
 26 27  1  0
 27 28  1  0
 28 29  1  0
 29 30  1  0
 29 31  1  0
 29 32  1  0
 28 33  2  0
 33 34  1  0
 20 35  2  0
 35 36  1  0
  7 37  1  0
 37 38  1  0
 37 39  2  0
 39 40  1  0
 39  2  1  0
 35 13  1  0
 33 25  1  0
M  CHG  2   8  -1  26  -1
M  END
>  <UniqueID>  (78) 
75

>  <SMILES>  (78) 
Cc1c/c(=N\S(=O)(=O)c2cccc(NC(=O)[N-]c3ccccc3F)c2)[n-]o1

>  <Energy>  (78) 
85.72046197338865

>  <Genealogy>  (78) 
Cc1cc(=NS(=O)(=O)c2cccc(NC(=O)[N-]c3ccccc3F)c2)[n-]o1 (protonated)
Cc1c/c(=N\S(=O)(=O)c2cccc(NC(=O)[N-]c3ccccc3F)c2)[n-]o1 (cis-trans isomerization)
Cc1c/c(=N\S(=O)(=O)c2cccc(NC(=O)[N-]c3ccccc3F)c2)[n-]o1 (3D coordinates assigned)
Cc1c/c(=N\S(=O)(=O)c2cccc(NC(=O)[N-]c3ccccc3F)c2)[n-]o1 (optimized conformer: 85.72046197338865 kcal/mol)

>  <smiles>  (78) 
Cc1cc(=NS(=O)(=O)c2cccc(NC(=O)Nc3ccccc3F)c2)[nH]o1

>  <score_type>  (78) 
oracle

>  <origin>  (78) 
adg

>  <m_score__min__energy>  (78) 
-12.6

>  <m_primary>  (78) 
energy

$$$$
78:0
     RDKit          3D

 64 67  0  0  0  0  0  0  0  0999 V2000
   66.3970   32.5230   50.2070 C   0  0  0  0  0  0  0  0  0  0  0  0
   65.4010   33.0620   49.3420 O   0  0  0  0  0  0  0  0  0  0  0  0
   64.0290   32.7840   49.4460 C   0  0  0  0  0  0  0  0  0  0  0  0
   63.4990   32.0360   50.5130 C   0  0  0  0  0  0  0  0  0  0  0  0
   62.1340   31.7420   50.5610 C   0  0  0  0  0  0  0  0  0  0  0  0
   61.2620   32.2300   49.5710 C   0  0  0  0  0  0  0  0  0  0  0  0
   59.8040   31.8460   49.5760 C   0  0  0  0  0  0  0  0  0  0  0  0
   59.5800   30.4740   49.0190 C   0  0  0  0  0  0  0  0  0  0  0  0
   58.5220   29.7040   49.3450 N   0  0  0  0  0  0  0  0  0  0  0  0
   58.7140   28.5950   48.7010 O   0  0  0  0  0  0  0  0  0  0  0  0
   59.8270   28.6710   48.0160 C   0  0  0  0  0  0  0  0  0  0  0  0
   60.3570   27.5610   47.1600 C   0  0  0  0  0  0  0  0  0  0  0  0
   59.6900   27.4680   45.8490 N   0  0  0  0  0  0  0  0  0  0  0  0
   60.1360   28.4350   44.8310 C   0  0  0  0  0  0  0  0  0  0  0  0
   59.2940   29.7270   44.7710 C   0  0  0  0  0  0  0  0  0  0  0  0
   57.8660   29.6080   45.3790 C   0  0  0  0  0  0  0  0  0  0  0  0
   56.8870   30.6310   44.8630 N   0  0  0  0  0  0  0  0  0  0  0  0
   55.8770   30.0470   43.9470 C   0  0  0  0  0  0  0  0  0  0  0  0
   57.5760   31.7330   44.1290 C   0  0  0  0  0  0  0  0  0  0  0  0
   58.1210   32.7820   45.0540 C   0  0  0  0  0  0  0  0  0  0  0  0
   57.8750   32.7070   46.4360 C   0  0  0  0  0  0  0  0  0  0  0  0
   58.4210   33.6630   47.2970 C   0  0  0  0  0  0  0  0  0  0  0  0
   59.1990   34.7050   46.7870 C   0  0  0  0  0  0  0  0  0  0  0  0
   59.4270   34.8000   45.4120 C   0  0  0  0  0  0  0  0  0  0  0  0
   58.8840   33.8470   44.5440 C   0  0  0  0  0  0  0  0  0  0  0  0
   57.3780   28.1730   45.1060 C   0  0  0  0  0  0  0  0  0  0  0  0
   58.2420   27.1560   45.8740 C   0  0  0  0  0  0  0  0  0  0  0  0
   60.4350   29.8610   48.1730 N   0  0  0  0  0  0  0  0  0  0  0  0
   61.7890   32.9860   48.5110 C   0  0  0  0  0  0  0  0  0  0  0  0
   63.1700   33.2630   48.4410 C   0  0  0  0  0  0  0  0  0  0  0  0
   63.7270   34.0060   47.3890 O   0  0  0  0  0  0  0  0  0  0  0  0
   63.3750   33.8580   46.0160 C   0  0  0  0  0  0  0  0  0  0  0  0
   66.0996   32.6839   51.2537 H   0  0  0  0  0  0  0  0  0  0  0  0
   66.5026   31.4446   50.0175 H   0  0  0  0  0  0  0  0  0  0  0  0
   67.3576   33.0244   50.0175 H   0  0  0  0  0  0  0  0  0  0  0  0
   64.1633   31.6804   51.3144 H   0  0  0  0  0  0  0  0  0  0  0  0
   61.7378   31.1236   51.3800 H   0  0  0  0  0  0  0  0  0  0  0  0
   59.4338   31.8730   50.6115 H   0  0  0  0  0  0  0  0  0  0  0  0
   59.2633   32.5620   48.9396 H   0  0  0  0  0  0  0  0  0  0  0  0
   61.4312   27.7301   46.9942 H   0  0  0  0  0  0  0  0  0  0  0  0
   60.1637   26.6178   47.6921 H   0  0  0  0  0  0  0  0  0  0  0  0
   61.1773   28.7123   45.0519 H   0  0  0  0  0  0  0  0  0  0  0  0
   60.0235   27.9398   43.8552 H   0  0  0  0  0  0  0  0  0  0  0  0
   59.8344   30.5127   45.3193 H   0  0  0  0  0  0  0  0  0  0  0  0
   59.1566   29.9562   43.7039 H   0  0  0  0  0  0  0  0  0  0  0  0
   57.9242   29.8171   46.4574 H   0  0  0  0  0  0  0  0  0  0  0  0
   55.0729   29.5821   44.5363 H   0  0  0  0  0  0  0  0  0  0  0  0
   55.4550   30.8405   43.3127 H   0  0  0  0  0  0  0  0  0  0  0  0
   56.3541   29.2854   43.3127 H   0  0  0  0  0  0  0  0  0  0  0  0
   58.4079   31.3058   43.5498 H   0  0  0  0  0  0  0  0  0  0  0  0
   56.8351   32.2149   43.4741 H   0  0  0  0  0  0  0  0  0  0  0  0
   57.2523   31.8953   46.8401 H   0  0  0  0  0  0  0  0  0  0  0  0
   58.2375   33.5946   48.3794 H   0  0  0  0  0  0  0  0  0  0  0  0
   59.6326   35.4515   47.4687 H   0  0  0  0  0  0  0  0  0  0  0  0
   60.0342   35.6252   45.0115 H   0  0  0  0  0  0  0  0  0  0  0  0
   59.0543   33.9310   43.4605 H   0  0  0  0  0  0  0  0  0  0  0  0
   56.3315   28.0782   45.4314 H   0  0  0  0  0  0  0  0  0  0  0  0
   57.4593   27.9679   44.0284 H   0  0  0  0  0  0  0  0  0  0  0  0
   57.9084   27.1378   46.9220 H   0  0  0  0  0  0  0  0  0  0  0  0
   58.1134   26.1834   45.3766 H   0  0  0  0  0  0  0  0  0  0  0  0
   61.1174   33.3660   47.7271 H   0  0  0  0  0  0  0  0  0  0  0  0
   62.3634   33.4327   45.9406 H   0  0  0  0  0  0  0  0  0  0  0  0
   63.3969   34.8415   45.5238 H   0  0  0  0  0  0  0  0  0  0  0  0
   64.0931   33.1856   45.5238 H   0  0  0  0  0  0  0  0  0  0  0  0
  1  2  1  0
  2  3  1  0
  3  4  2  0
  4  5  1  0
  5  6  2  0
  6  7  1  0
  7  8  1  0
  8  9  2  0
  9 10  1  0
 10 11  1  0
 11 12  1  0
 12 13  1  0
 13 14  1  0
 14 15  1  0
 15 16  1  0
 16 17  1  0
 17 18  1  0
 17 19  1  0
 19 20  1  0
 20 21  2  0
 21 22  1  0
 22 23  2  0
 23 24  1  0
 24 25  2  0
 16 26  1  0
 26 27  1  0
 11 28  2  0
  6 29  1  0
 29 30  2  0
 30 31  1  0
 31 32  1  0
 30  3  1  0
 28  8  1  0
 27 13  1  0
 25 20  1  0
  1 33  1  0
  1 34  1  0
  1 35  1  0
  4 36  1  0
  5 37  1  0
  7 38  1  0
  7 39  1  0
 12 40  1  0
 12 41  1  0
 14 42  1  0
 14 43  1  0
 15 44  1  0
 15 45  1  0
 16 46  1  0
 18 47  1  0
 18 48  1  0
 18 49  1  0
 19 50  1  0
 19 51  1  0
 21 52  1  0
 22 53  1  0
 23 54  1  0
 24 55  1  0
 25 56  1  0
 26 57  1  0
 26 58  1  0
 27 59  1  0
 27 60  1  0
 29 61  1  0
 32 62  1  0
 32 63  1  0
 32 64  1  0
M  END
>  <UniqueID>  (79) 
76

>  <SMILES>  (79) 
COc1ccc(Cc2noc(CN3CCC(N(C)Cc4ccccc4)CC3)n2)cc1OC

>  <Energy>  (79) 
121.13975542578461

>  <Genealogy>  (79) 
COc1ccc(Cc2noc(CN3CCC(N(C)Cc4ccccc4)CC3)n2)cc1OC (3D coordinates assigned)
COc1ccc(Cc2noc(CN3CCC(N(C)Cc4ccccc4)CC3)n2)cc1OC (nonaromatic ring conformer: 121.13975542578461 kcal/mol)

>  <smiles>  (79) 
COc1ccc(Cc2noc(CN3CCC(N(C)Cc4ccccc4)CC3)n2)cc1OC

>  <score_type>  (79) 
oracle

>  <origin>  (79) 
adg

>  <m_score__min__energy>  (79) 
-10.460000000000001

>  <m_primary>  (79) 
energy

$$$$
79:0
     RDKit          3D

 36 36  0  0  0  0  0  0  0  0999 V2000
   62.2150   32.3100   47.4470 C   0  0  0  0  0  0  0  0  0  0  0  0
   61.1470   32.1610   48.4490 N   0  0  0  0  0  0  0  0  0  0  0  0
   61.6180   31.3010   49.5500 C   0  0  0  0  0  0  0  0  0  0  0  0
   59.9350   31.5910   47.8200 C   0  0  0  0  0  0  0  0  0  0  0  0
   59.3830   32.4900   46.7260 C   0  0  0  0  0  0  0  0  0  0  0  0
   58.8680   31.9190   45.5440 C   0  0  0  0  0  0  0  0  0  0  0  0
   58.3970   32.7290   44.5050 C   0  0  0  0  0  0  0  0  0  0  0  0
   57.7920   31.9800   42.9910 S   0  0  0  0  0  0  0  0  0  0  0  0
   57.3630   30.4050   43.8050 C   0  0  0  0  0  0  0  0  0  0  0  0
   55.9720   30.5020   44.4270 C   0  0  0  0  0  0  0  0  0  0  0  0
   55.3770   29.1730   44.5760 N   0  0  0  0  0  0  0  0  0  0  0  0
   56.5020   28.0340   45.2640 S   0  0  0  0  0  0  0  0  0  0  0  0
   55.6580   26.7000   45.9720 N   0  0  0  0  0  0  0  0  0  0  0  0
   57.2990   28.7290   46.3300 O   0  0  0  0  0  0  0  0  0  0  0  0
   57.4440   27.5270   44.2060 O   0  0  0  0  0  0  0  0  0  0  0  0
   58.3970   34.1180   44.6480 C   0  0  0  0  0  0  0  0  0  0  0  0
   58.8460   34.6960   45.8360 C   0  0  0  0  0  0  0  0  0  0  0  0
   59.3150   33.8980   46.8870 C   0  0  0  0  0  0  0  0  0  0  0  0
   59.6850   34.5390   48.0720 O   0  0  0  0  0  0  0  0  0  0  0  0
   63.1802   32.4447   47.9571 H   0  0  0  0  0  0  0  0  0  0  0  0
   62.2555   31.4088   46.8175 H   0  0  0  0  0  0  0  0  0  0  0  0
   62.0073   33.1879   46.8175 H   0  0  0  0  0  0  0  0  0  0  0  0
   61.3631   31.7664   50.5136 H   0  0  0  0  0  0  0  0  0  0  0  0
   61.1334   30.3161   49.4790 H   0  0  0  0  0  0  0  0  0  0  0  0
   62.7089   31.1789   49.4790 H   0  0  0  0  0  0  0  0  0  0  0  0
   60.1883   30.6141   47.3824 H   0  0  0  0  0  0  0  0  0  0  0  0
   59.1640   31.4914   48.5982 H   0  0  0  0  0  0  0  0  0  0  0  0
   58.8362   30.8246   45.4376 H   0  0  0  0  0  0  0  0  0  0  0  0
   57.3738   29.5952   43.0606 H   0  0  0  0  0  0  0  0  0  0  0  0
   58.0986   30.1943   44.5953 H   0  0  0  0  0  0  0  0  0  0  0  0
   56.0515   30.9749   45.4170 H   0  0  0  0  0  0  0  0  0  0  0  0
   55.3308   31.1040   43.7663 H   0  0  0  0  0  0  0  0  0  0  0  0
   54.7730   27.0800   46.3760 H   0  0  0  0  0  0  0  0  0  0  0  0
   58.0433   34.7561   43.8247 H   0  0  0  0  0  0  0  0  0  0  0  0
   58.8314   35.7902   45.9482 H   0  0  0  0  0  0  0  0  0  0  0  0
   60.3360   34.1490   48.7410 H   0  0  0  0  0  0  0  0  0  0  0  0
  1  2  1  0
  2  3  1  0
  2  4  1  0
  4  5  1  0
  5  6  2  0
  6  7  1  0
  7  8  1  0
  8  9  1  0
  9 10  1  0
 10 11  1  0
 11 12  1  0
 12 13  1  0
 12 14  2  0
 12 15  2  0
  7 16  2  0
 16 17  1  0
 17 18  2  0
 18 19  1  0
 18  5  1  0
  1 20  1  0
  1 21  1  0
  1 22  1  0
  3 23  1  0
  3 24  1  0
  3 25  1  0
  4 26  1  0
  4 27  1  0
  6 28  1  0
  9 29  1  0
  9 30  1  0
 10 31  1  0
 10 32  1  0
 13 33  1  0
 16 34  1  0
 17 35  1  0
 19 36  1  0
M  CHG  2  11  -1  13  -1
M  END
>  <UniqueID>  (80) 
77

>  <SMILES>  (80) 
CN(C)Cc1cc(SCC[N-]S([NH-])(=O)=O)ccc1O

>  <Energy>  (80) 
27.97429586090606

>  <Genealogy>  (80) 
CN(C)Cc1cc(SCC[N-]S([NH-])(=O)=O)ccc1O (protonated)
CN(C)Cc1cc(SCC[N-]S([NH-])(=O)=O)ccc1O (3D coordinates assigned)
CN(C)Cc1cc(SCC[N-]S([NH-])(=O)=O)ccc1O (optimized conformer: 27.97429586090606 kcal/mol)

>  <smiles>  (80) 
CN(C)Cc1cc(SCCNS(N)(=O)=O)ccc1O

>  <score_type>  (80) 
oracle

>  <origin>  (80) 
adg

>  <m_score__min__energy>  (80) 
-11.130000000000001

>  <m_primary>  (80) 
energy

$$$$
80:0
     RDKit          3D

 44 46  0  0  0  0  0  0  0  0999 V2000
   58.7800   22.7390   45.1480 C   0  0  0  0  0  0  0  0  0  0  0  0
   58.1280   22.5800   46.4030 O   0  0  0  0  0  0  0  0  0  0  0  0
   56.7480   22.3750   46.5660 C   0  0  0  0  0  0  0  0  0  0  0  0
   56.2220   21.1110   46.8980 C   0  0  0  0  0  0  0  0  0  0  0  0
   54.8480   20.9370   47.0600 C   0  0  0  0  0  0  0  0  0  0  0  0
   53.9840   22.0190   46.9050 C   0  0  0  0  0  0  0  0  0  0  0  0
   54.4900   23.2790   46.5820 C   0  0  0  0  0  0  0  0  0  0  0  0
   55.8730   23.4690   46.3910 C   0  0  0  0  0  0  0  0  0  0  0  0
   56.4170   24.7710   46.0930 N   0  0  0  0  0  0  0  0  0  0  0  0
   55.6590   25.9870   46.0090 C   0  0  0  0  0  0  0  0  0  0  0  0
   54.4020   25.9610   45.9390 O   0  0  0  0  0  0  0  0  0  0  0  0
   56.3520   27.2340   45.9210 N   0  0  0  0  0  0  0  0  0  0  0  0
   57.6250   27.4250   45.2910 C   0  0  0  0  0  0  0  0  0  0  0  0
   58.6120   26.7620   45.7040 O   0  0  0  0  0  0  0  0  0  0  0  0
   57.8450   28.4930   44.2590 C   0  0  0  0  0  0  0  0  0  0  0  0
   56.3510   29.5340   44.0810 S   0  0  0  0  0  0  0  0  0  0  0  0
   57.1970   31.0940   44.3830 C   0  0  0  0  0  0  0  0  0  0  0  0
   57.4180   31.4810   45.6690 N   0  0  0  0  0  0  0  0  0  0  0  0
   58.0680   32.6360   45.9600 C   0  0  0  0  0  0  0  0  0  0  0  0
   58.2900   33.0170   47.2880 C   0  0  0  0  0  0  0  0  0  0  0  0
   58.9870   34.1980   47.5660 C   0  0  0  0  0  0  0  0  0  0  0  0
   59.4630   34.9970   46.5200 C   0  0  0  0  0  0  0  0  0  0  0  0
   59.2340   34.6270   45.1910 C   0  0  0  0  0  0  0  0  0  0  0  0
   58.5310   33.4510   44.9080 C   0  0  0  0  0  0  0  0  0  0  0  0
   58.2870   33.0810   43.6240 N   0  0  0  0  0  0  0  0  0  0  0  0
   57.6230   31.9300   43.3300 C   0  0  0  0  0  0  0  0  0  0  0  0
   57.3330   31.6060   41.8950 C   0  0  0  0  0  0  0  0  0  0  0  0
   59.8365   22.9966   45.3137 H   0  0  0  0  0  0  0  0  0  0  0  0
   58.7165   21.7991   44.5801 H   0  0  0  0  0  0  0  0  0  0  0  0
   58.2909   23.5442   44.5801 H   0  0  0  0  0  0  0  0  0  0  0  0
   56.9001   20.2551   47.0304 H   0  0  0  0  0  0  0  0  0  0  0  0
   54.4457   19.9443   47.3105 H   0  0  0  0  0  0  0  0  0  0  0  0
   52.9009   21.8799   47.0375 H   0  0  0  0  0  0  0  0  0  0  0  0
   53.8029   24.1314   46.4756 H   0  0  0  0  0  0  0  0  0  0  0  0
   57.4450   24.8510   45.9200 H   0  0  0  0  0  0  0  0  0  0  0  0
   58.6912   29.1247   44.5672 H   0  0  0  0  0  0  0  0  0  0  0  0
   58.0603   28.0135   43.2927 H   0  0  0  0  0  0  0  0  0  0  0  0
   57.9175   32.3897   48.1113 H   0  0  0  0  0  0  0  0  0  0  0  0
   59.1613   34.4993   48.6095 H   0  0  0  0  0  0  0  0  0  0  0  0
   60.0192   35.9192   46.7441 H   0  0  0  0  0  0  0  0  0  0  0  0
   59.6055   35.2587   44.3706 H   0  0  0  0  0  0  0  0  0  0  0  0
   56.6001   30.7872   41.8448 H   0  0  0  0  0  0  0  0  0  0  0  0
   56.9238   32.4955   41.3937 H   0  0  0  0  0  0  0  0  0  0  0  0
   58.2623   31.2975   41.3937 H   0  0  0  0  0  0  0  0  0  0  0  0
  1  2  1  0
  2  3  1  0
  3  4  2  0
  4  5  1  0
  5  6  2  0
  6  7  1  0
  7  8  2  0
  8  9  1  0
  9 10  1  0
 10 11  2  0
 10 12  1  0
 12 13  1  0
 13 14  2  0
 13 15  1  0
 15 16  1  0
 16 17  1  0
 17 18  2  0
 18 19  1  0
 19 20  2  0
 20 21  1  0
 21 22  2  0
 22 23  1  0
 23 24  2  0
 24 25  1  0
 25 26  2  0
 26 27  1  0
  8  3  1  0
 26 17  1  0
 24 19  1  0
  1 28  1  0
  1 29  1  0
  1 30  1  0
  4 31  1  0
  5 32  1  0
  6 33  1  0
  7 34  1  0
  9 35  1  0
 15 36  1  0
 15 37  1  0
 20 38  1  0
 21 39  1  0
 22 40  1  0
 23 41  1  0
 27 42  1  0
 27 43  1  0
 27 44  1  0
M  CHG  1  12  -1
M  END
>  <UniqueID>  (81) 
78

>  <SMILES>  (81) 
COc1ccccc1NC(=O)[N-]C(=O)CSc1nc2ccccc2nc1C

>  <Energy>  (81) 
46.201768985940625

>  <Genealogy>  (81) 
COc1ccccc1NC(=O)[N-]C(=O)CSc1nc2ccccc2nc1C (protonated)
COc1ccccc1NC(=O)[N-]C(=O)CSc1nc2ccccc2nc1C (3D coordinates assigned)
COc1ccccc1NC(=O)[N-]C(=O)CSc1nc2ccccc2nc1C (optimized conformer: 46.201768985940625 kcal/mol)

>  <smiles>  (81) 
COc1ccccc1NC(=O)NC(=O)CSc1nc2ccccc2nc1C

>  <score_type>  (81) 
oracle

>  <origin>  (81) 
adg

>  <m_score__min__energy>  (81) 
-11.15

>  <m_primary>  (81) 
energy

$$$$
81:0
     RDKit          3D

 26 27  0  0  0  0  0  0  0  0999 V2000
   55.9530   23.7670   46.4760 C   0  0  0  0  0  0  0  0  0  0  0  0
   56.2880   25.0170   47.1380 N   0  0  0  0  0  0  0  0  0  0  0  0
   56.2430   26.2830   46.4730 C   0  0  0  0  0  0  0  0  0  0  0  0
   55.1610   26.7130   45.9900 O   0  0  0  0  0  0  0  0  0  0  0  0
   57.4990   27.0770   46.3060 C   0  0  0  0  0  0  0  0  0  0  0  0
   57.7670   27.4870   44.5470 S   0  0  0  0  0  0  0  0  0  0  0  0
   57.3820   29.2240   44.7480 C   0  0  0  0  0  0  0  0  0  0  0  0
   56.1560   29.7510   44.5830 N   0  0  0  0  0  0  0  0  0  0  0  0
   56.2740   31.0450   44.8390 N   0  0  0  0  0  0  0  0  0  0  0  0
   57.5700   31.2540   45.1500 C   0  0  0  0  0  0  0  0  0  0  0  0
   58.1410   32.5610   45.5220 C   0  0  0  0  0  0  0  0  0  0  0  0
   58.4860   33.5020   44.5390 C   0  0  0  0  0  0  0  0  0  0  0  0
   59.0180   34.7350   44.9220 C   0  0  0  0  0  0  0  0  0  0  0  0
   59.2000   35.0220   46.2390 N   0  0  0  0  0  0  0  0  0  0  0  0
   58.8740   34.1300   47.2120 C   0  0  0  0  0  0  0  0  0  0  0  0
   58.3390   32.8850   46.8740 C   0  0  0  0  0  0  0  0  0  0  0  0
   58.2560   30.1380   45.0900 O   0  0  0  0  0  0  0  0  0  0  0  0
   55.7462   22.9955   47.2323 H   0  0  0  0  0  0  0  0  0  0  0  0
   55.0621   23.9123   45.8474 H   0  0  0  0  0  0  0  0  0  0  0  0
   56.7972   23.4473   45.8474 H   0  0  0  0  0  0  0  0  0  0  0  0
   57.4187   28.0079   46.8865 H   0  0  0  0  0  0  0  0  0  0  0  0
   58.3489   26.4782   46.6653 H   0  0  0  0  0  0  0  0  0  0  0  0
   58.3382   33.2696   43.4740 H   0  0  0  0  0  0  0  0  0  0  0  0
   59.2907   35.4763   44.1564 H   0  0  0  0  0  0  0  0  0  0  0  0
   59.0322   34.3899   48.2691 H   0  0  0  0  0  0  0  0  0  0  0  0
   58.0746   32.1634   47.6611 H   0  0  0  0  0  0  0  0  0  0  0  0
  1  2  1  0
  2  3  1  0
  3  4  2  0
  3  5  1  0
  5  6  1  0
  6  7  1  0
  7  8  2  0
  8  9  1  0
  9 10  2  0
 10 11  1  0
 11 12  2  0
 12 13  1  0
 13 14  2  0
 14 15  1  0
 15 16  2  0
 10 17  1  0
 17  7  1  0
 16 11  1  0
  1 18  1  0
  1 19  1  0
  1 20  1  0
  5 21  1  0
  5 22  1  0
 12 23  1  0
 13 24  1  0
 15 25  1  0
 16 26  1  0
M  CHG  1   2  -1
M  END
>  <UniqueID>  (82) 
79

>  <SMILES>  (82) 
C[N-]C(=O)CSc1nnc(-c2ccncc2)o1

>  <Energy>  (82) 
53.558944126688985

>  <Genealogy>  (82) 
C[N-]C(=O)CSc1nnc(-c2ccncc2)o1 (protonated)
C[N-]C(=O)CSc1nnc(-c2ccncc2)o1 (3D coordinates assigned)
C[N-]C(=O)CSc1nnc(-c2ccncc2)o1 (optimized conformer: 53.558944126688985 kcal/mol)

>  <smiles>  (82) 
CNC(=O)CSc1nnc(-c2ccncc2)o1

>  <score_type>  (82) 
oracle

>  <origin>  (82) 
adg

>  <m_score__min__energy>  (82) 
-9.3900000000000006

>  <m_primary>  (82) 
energy

$$$$
82:0
     RDKit          3D

 50 52  0  0  0  0  0  0  0  0999 V2000
   55.5140   23.7960   44.4880 C   0  0  0  0  0  0  0  0  0  0  0  0
   54.9000   24.5730   45.9680 S   0  0  0  0  0  0  0  0  0  0  0  0
   54.1030   25.8000   45.6230 O   0  0  0  0  0  0  0  0  0  0  0  0
   54.0060   23.6030   46.6850 O   0  0  0  0  0  0  0  0  0  0  0  0
   56.2190   24.9930   47.0140 N   0  0  0  0  0  0  0  0  0  0  0  0
   57.3160   25.8550   46.6790 C   0  0  0  0  0  0  0  0  0  0  0  0
   58.4630   25.9630   47.4890 C   0  0  0  0  0  0  0  0  0  0  0  0
   59.5040   26.8210   47.1230 C   0  0  0  0  0  0  0  0  0  0  0  0
   59.4150   27.5760   45.9520 C   0  0  0  0  0  0  0  0  0  0  0  0
   58.2810   27.4720   45.1300 C   0  0  0  0  0  0  0  0  0  0  0  0
   58.1810   28.2670   43.8550 C   0  0  0  0  0  0  0  0  0  0  0  0
   57.8710   29.6650   44.1420 N   0  0  0  0  0  0  0  0  0  0  0  0
   56.6200   30.1560   44.6400 C   0  0  0  0  0  0  0  0  0  0  0  0
   55.6890   29.3390   44.8600 O   0  0  0  0  0  0  0  0  0  0  0  0
   56.3780   31.5530   44.8370 N   0  0  0  0  0  0  0  0  0  0  0  0
   57.3650   32.5170   45.2280 C   0  0  0  0  0  0  0  0  0  0  0  0
   57.5570   33.7070   44.5040 C   0  0  0  0  0  0  0  0  0  0  0  0
   58.5250   34.6260   44.9120 C   0  0  0  0  0  0  0  0  0  0  0  0
   59.3230   34.3590   46.0270 C   0  0  0  0  0  0  0  0  0  0  0  0
   59.1730   33.1530   46.7330 C   0  0  0  0  0  0  0  0  0  0  0  0
   60.0040   32.8640   47.9200 C   0  0  0  0  0  0  0  0  0  0  0  0
   59.4600   32.3390   48.9300 O   0  0  0  0  0  0  0  0  0  0  0  0
   61.4130   33.1580   47.9460 N   0  0  0  0  0  0  0  0  0  0  0  0
   62.2570   33.1960   46.7610 C   0  0  0  0  0  0  0  0  0  0  0  0
   63.6870   33.0910   47.2730 C   0  0  0  0  0  0  0  0  0  0  0  0
   63.6220   33.4420   48.7560 C   0  0  0  0  0  0  0  0  0  0  0  0
   62.1820   33.1820   49.1780 C   0  0  0  0  0  0  0  0  0  0  0  0
   58.1860   32.2400   46.3290 C   0  0  0  0  0  0  0  0  0  0  0  0
   57.2350   26.6120   45.5040 C   0  0  0  0  0  0  0  0  0  0  0  0
   56.1748   22.9597   44.7600 H   0  0  0  0  0  0  0  0  0  0  0  0
   54.6685   23.4173   43.8949 H   0  0  0  0  0  0  0  0  0  0  0  0
   56.0779   24.5310   43.8949 H   0  0  0  0  0  0  0  0  0  0  0  0
   58.5399   25.3703   48.4125 H   0  0  0  0  0  0  0  0  0  0  0  0
   60.3970   26.9017   47.7602 H   0  0  0  0  0  0  0  0  0  0  0  0
   60.2350   28.2539   45.6725 H   0  0  0  0  0  0  0  0  0  0  0  0
   59.1401   28.2124   43.3191 H   0  0  0  0  0  0  0  0  0  0  0  0
   57.3744   27.8452   43.2373 H   0  0  0  0  0  0  0  0  0  0  0  0
   56.9434   33.9140   43.6148 H   0  0  0  0  0  0  0  0  0  0  0  0
   58.6600   35.5640   44.3535 H   0  0  0  0  0  0  0  0  0  0  0  0
   60.0718   35.0956   46.3538 H   0  0  0  0  0  0  0  0  0  0  0  0
   62.0241   32.3509   46.0965 H   0  0  0  0  0  0  0  0  0  0  0  0
   62.0998   34.1159   46.1788 H   0  0  0  0  0  0  0  0  0  0  0  0
   64.0687   32.0683   47.1374 H   0  0  0  0  0  0  0  0  0  0  0  0
   64.3641   33.7637   46.7262 H   0  0  0  0  0  0  0  0  0  0  0  0
   64.3111   32.8061   49.3312 H   0  0  0  0  0  0  0  0  0  0  0  0
   63.9168   34.4857   48.9396 H   0  0  0  0  0  0  0  0  0  0  0  0
   62.1028   32.2165   49.6991 H   0  0  0  0  0  0  0  0  0  0  0  0
   61.8154   33.9527   49.8720 H   0  0  0  0  0  0  0  0  0  0  0  0
   58.0560   31.2981   46.8822 H   0  0  0  0  0  0  0  0  0  0  0  0
   56.3422   26.5325   44.8664 H   0  0  0  0  0  0  0  0  0  0  0  0
  1  2  1  0
  2  3  2  0
  2  4  2  0
  2  5  1  0
  5  6  1  0
  6  7  2  0
  7  8  1  0
  8  9  2  0
  9 10  1  0
 10 11  1  0
 11 12  1  0
 12 13  1  0
 13 14  2  0
 13 15  1  0
 15 16  1  0
 16 17  2  0
 17 18  1  0
 18 19  2  0
 19 20  1  0
 20 21  1  0
 21 22  2  0
 21 23  1  0
 23 24  1  0
 24 25  1  0
 25 26  1  0
 26 27  1  0
 20 28  2  0
 10 29  2  0
 29  6  1  0
 28 16  1  0
 27 23  1  0
  1 30  1  0
  1 31  1  0
  1 32  1  0
  7 33  1  0
  8 34  1  0
  9 35  1  0
 11 36  1  0
 11 37  1  0
 17 38  1  0
 18 39  1  0
 19 40  1  0
 24 41  1  0
 24 42  1  0
 25 43  1  0
 25 44  1  0
 26 45  1  0
 26 46  1  0
 27 47  1  0
 27 48  1  0
 28 49  1  0
 29 50  1  0
M  CHG  3   5  -1  12  -1  15  -1
M  END
>  <UniqueID>  (83) 
80

>  <SMILES>  (83) 
CS(=O)(=O)[N-]c1cccc(C[N-]C(=O)[N-]c2cccc(C(=O)N3CCCC3)c2)c1

>  <Energy>  (83) 
57.515168354592966

>  <Genealogy>  (83) 
CS(=O)(=O)[N-]c1cccc(C[N-]C(=O)[N-]c2cccc(C(=O)N3CCCC3)c2)c1 (protonated)
CS(=O)(=O)[N-]c1cccc(C[N-]C(=O)[N-]c2cccc(C(=O)N3CCCC3)c2)c1 (3D coordinates assigned)
CS(=O)(=O)[N-]c1cccc(C[N-]C(=O)[N-]c2cccc(C(=O)N3CCCC3)c2)c1 (nonaromatic ring conformer: 57.515168354592966 kcal/mol)

>  <smiles>  (83) 
CS(=O)(=O)Nc1cccc(CNC(=O)Nc2cccc(C(=O)N3CCCC3)c2)c1

>  <score_type>  (83) 
oracle

>  <origin>  (83) 
adg

>  <m_score__min__energy>  (83) 
-14.23

>  <m_primary>  (83) 
energy

$$$$
83:0
     RDKit          3D

 68 71  0  0  1  0  0  0  0  0999 V2000
   59.4210   26.2770   46.0640 C   0  0  0  0  0  0  0  0  0  0  0  0
   58.0300   26.6140   45.5890 C   0  0  0  0  0  0  0  0  0  0  0  0
   57.6980   25.5880   44.5240 C   0  0  0  0  0  0  0  0  0  0  0  0
   57.0380   26.4080   46.7170 C   0  0  0  0  0  0  0  0  0  0  0  0
   57.9150   28.0070   45.1260 C   0  0  0  0  0  0  0  0  0  0  0  0
   56.6730   28.5980   44.8700 C   0  0  0  0  0  0  0  0  0  0  0  0
   56.5700   29.9040   44.4350 C   0  0  0  0  0  0  0  0  0  0  0  0
   57.7090   30.6910   44.2370 C   0  0  0  0  0  0  0  0  0  0  0  0
   57.5770   32.0930   43.7810 C   0  0  0  0  0  0  0  0  0  0  0  0
   57.7610   32.4080   42.5800 O   0  0  0  0  0  0  0  0  0  0  0  0
   57.2360   33.0230   44.8010 N   0  0  0  0  0  0  0  0  0  0  0  0
   58.0670   33.3920   45.6990 C   0  0  0  0  0  0  0  0  0  0  0  0
   58.3450   32.6700   46.7900 N   0  0  0  0  0  0  0  0  0  0  0  0
   59.2800   33.0940   47.6920 C   0  0  0  0  0  0  0  0  0  0  0  0
   59.4870   32.2820   48.7690 O   0  0  0  0  0  0  0  0  0  0  0  0
   59.0430   32.3320   50.0400 C   0  0  0  0  0  0  0  0  0  0  0  0
   59.2770   33.5410   50.7280 C   0  0  0  0  0  0  0  0  0  0  0  0
   58.8840   33.7360   52.0220 C   0  0  0  0  0  0  0  0  0  0  0  0
   58.2330   32.7650   52.7360 C   0  0  0  0  0  0  0  0  0  0  0  0
   57.9910   31.5630   52.0750 C   0  0  0  0  0  0  0  0  0  0  0  0
   58.3950   31.3700   50.7540 C   0  0  0  0  0  0  0  0  0  0  0  0
   58.1190   30.1280   50.1410 O   0  0  0  0  0  0  0  0  0  0  0  0
   59.2570   29.3980   49.7720 C   0  0  0  0  0  0  0  0  0  0  0  0
   59.3200   28.9990   48.3250 C   0  0  0  0  0  0  0  0  0  0  0  0
   60.5950   29.5630   47.7000 C   0  0  0  0  0  0  0  0  0  0  0  0
   61.3590   30.1060   48.7330 O   0  0  0  0  0  0  0  0  0  0  0  0
   62.1460   31.2290   48.6080 C   0  0  0  0  0  0  0  0  0  0  0  0
   62.6440   31.9670   49.6580 C   0  0  0  0  0  0  0  0  0  0  0  0
   63.4350   33.0940   49.4030 C   0  0  0  0  0  0  0  0  0  0  0  0
   63.7350   33.4920   48.1160 C   0  0  0  0  0  0  0  0  0  0  0  0
   63.2370   32.7530   47.0560 C   0  0  0  0  0  0  0  0  0  0  0  0
   62.4620   31.6510   47.3250 C   0  0  0  0  0  0  0  0  0  0  0  0
   59.9360   34.2700   47.4770 C   0  0  0  0  0  0  0  0  0  0  0  0
   59.6460   35.0260   46.3370 C   0  0  0  0  0  0  0  0  0  0  0  0
   58.7120   34.5760   45.4610 N   0  0  0  0  0  0  0  0  0  0  0  0
   58.9310   30.1130   44.4880 C   0  0  0  0  0  0  0  0  0  0  0  0
   59.0290   28.7840   44.9290 C   0  0  0  0  0  0  0  0  0  0  0  0
   59.4417   26.2720   47.1638 H   0  0  0  0  0  0  0  0  0  0  0  0
   59.7065   25.2837   45.6873 H   0  0  0  0  0  0  0  0  0  0  0  0
   60.1294   27.0295   45.6873 H   0  0  0  0  0  0  0  0  0  0  0  0
   57.3933   24.6464   45.0042 H   0  0  0  0  0  0  0  0  0  0  0  0
   56.8753   25.9630   43.8974 H   0  0  0  0  0  0  0  0  0  0  0  0
   58.5844   25.4099   43.8974 H   0  0  0  0  0  0  0  0  0  0  0  0
   57.5535   26.5151   47.6828 H   0  0  0  0  0  0  0  0  0  0  0  0
   56.2378   27.1591   46.6433 H   0  0  0  0  0  0  0  0  0  0  0  0
   56.6030   25.4004   46.6433 H   0  0  0  0  0  0  0  0  0  0  0  0
   55.7567   28.0079   45.0189 H   0  0  0  0  0  0  0  0  0  0  0  0
   55.5758   30.3327   44.2409 H   0  0  0  0  0  0  0  0  0  0  0  0
   59.7951   34.3572   50.2032 H   0  0  0  0  0  0  0  0  0  0  0  0
   59.0967   34.7013   52.5047 H   0  0  0  0  0  0  0  0  0  0  0  0
   57.9177   32.9261   53.7774 H   0  0  0  0  0  0  0  0  0  0  0  0
   57.4716   30.7508   52.6047 H   0  0  0  0  0  0  0  0  0  0  0  0
   60.1421   30.0121   49.9944 H   0  0  0  0  0  0  0  0  0  0  0  0
   59.2172   28.4602   50.3456 H   0  0  0  0  0  0  0  0  0  0  0  0
   59.3267   27.9018   48.2465 H   0  0  0  0  0  0  0  0  0  0  0  0
   58.4425   29.3975   47.7947 H   0  0  0  0  0  0  0  0  0  0  0  0
   61.1557   28.7599   47.1993 H   0  0  0  0  0  0  0  0  0  0  0  0
   60.3540   30.3302   46.9495 H   0  0  0  0  0  0  0  0  0  0  0  0
   62.4212   31.6723   50.6941 H   0  0  0  0  0  0  0  0  0  0  0  0
   63.8271   33.6767   50.2496 H   0  0  0  0  0  0  0  0  0  0  0  0
   64.3584   34.3801   47.9355 H   0  0  0  0  0  0  0  0  0  0  0  0
   63.4578   33.0429   46.0181 H   0  0  0  0  0  0  0  0  0  0  0  0
   62.0705   31.0713   46.4761 H   0  0  0  0  0  0  0  0  0  0  0  0
   60.6896   34.6222   48.1968 H   0  0  0  0  0  0  0  0  0  0  0  0
   60.1694   35.9756   46.1520 H   0  0  0  0  0  0  0  0  0  0  0  0
   58.4900   35.1360   44.6110 H   0  0  0  0  0  0  0  0  0  0  0  0
   59.8480   30.7024   44.3406 H   0  0  0  0  0  0  0  0  0  0  0  0
   60.0233   28.3547   45.1215 H   0  0  0  0  0  0  0  0  0  0  0  0
  1  2  1  0
  2  3  1  0
  2  4  1  0
  2  5  1  0
  5  6  2  0
  6  7  1  0
  7  8  2  0
  8  9  1  0
  9 10  2  0
  9 11  1  0
 11 12  2  0
 12 13  1  0
 13 14  2  0
 14 15  1  0
 15 16  1  0
 16 17  2  0
 17 18  1  0
 18 19  2  0
 19 20  1  0
 20 21  2  0
 21 22  1  0
 22 23  1  0
 23 24  1  0
 24 25  1  0
 25 26  1  0
 26 27  1  0
 27 28  2  0
 28 29  1  0
 29 30  2  0
 30 31  1  0
 31 32  2  0
 14 33  1  0
 33 34  2  0
 34 35  1  0
  8 36  1  0
 36 37  2  0
 37  5  1  0
 35 12  1  0
 21 16  1  0
 32 27  1  0
  1 38  1  0
  1 39  1  0
  1 40  1  0
  3 41  1  0
  3 42  1  0
  3 43  1  0
  4 44  1  0
  4 45  1  0
  4 46  1  0
  6 47  1  0
  7 48  1  0
 17 49  1  0
 18 50  1  0
 19 51  1  0
 20 52  1  0
 23 53  1  0
 23 54  1  0
 24 55  1  0
 24 56  1  0
 25 57  1  0
 25 58  1  0
 28 59  1  0
 29 60  1  0
 30 61  1  0
 31 62  1  0
 32 63  1  0
 33 64  1  0
 34 65  1  0
 35 66  1  0
 36 67  1  0
 37 68  1  0
M  END
>  <smiles>  (84) 
CC(C)(C)c1ccc(C(=O)N=c2nc(Oc3ccccc3OCCCOc3ccccc3)cc[nH]2)cc1

>  <score_type>  (84) 
oracle

>  <origin>  (84) 
adg

>  <m_score__min__energy>  (84) 
-9.1199999999999992

>  <m_primary>  (84) 
energy

$$$$
84:0
     RDKit          3D

 37 39  0  0  0  0  0  0  0  0999 V2000
   58.5280   34.9100   45.4830 O   0  0  0  0  0  0  0  0  0  0  0  0
   58.5330   33.6680   45.7040 C   0  0  0  0  0  0  0  0  0  0  0  0
   57.9650   32.7500   44.6660 C   0  0  0  0  0  0  0  0  0  0  0  0
   56.8810   31.9660   45.2530 N   0  0  0  0  0  0  0  0  0  0  0  0
   56.7980   30.4100   44.4890 S   0  0  0  0  0  0  0  0  0  0  0  0
   55.4730   29.7610   44.7850 O   0  0  0  0  0  0  0  0  0  0  0  0
   56.9230   30.5800   43.0020 O   0  0  0  0  0  0  0  0  0  0  0  0
   58.1130   29.3920   45.0690 C   0  0  0  0  0  0  0  0  0  0  0  0
   59.4420   29.7270   44.7690 C   0  0  0  0  0  0  0  0  0  0  0  0
   60.4920   28.9380   45.2480 C   0  0  0  0  0  0  0  0  0  0  0  0
   60.2210   27.8150   46.0360 C   0  0  0  0  0  0  0  0  0  0  0  0
   58.8980   27.4800   46.3430 C   0  0  0  0  0  0  0  0  0  0  0  0
   57.8470   28.2650   45.8620 C   0  0  0  0  0  0  0  0  0  0  0  0
   59.1140   33.1600   46.9240 N   0  0  0  0  0  0  0  0  0  0  0  0
   58.2220   32.7320   47.9830 C   0  0  0  0  0  0  0  0  0  0  0  0
   58.5600   31.8410   48.8630 N   0  0  0  0  0  0  0  0  0  0  0  0
   60.1140   31.0980   48.8700 S   0  0  0  0  0  0  0  0  0  0  0  0
   60.0340   29.7250   48.2670 O   0  0  0  0  0  0  0  0  0  0  0  0
   60.6250   31.0240   50.2820 O   0  0  0  0  0  0  0  0  0  0  0  0
   61.1460   32.1210   47.9130 C   0  0  0  0  0  0  0  0  0  0  0  0
   62.5390   32.0170   48.0190 C   0  0  0  0  0  0  0  0  0  0  0  0
   63.3610   32.8690   47.2820 C   0  0  0  0  0  0  0  0  0  0  0  0
   62.7950   33.8340   46.4470 C   0  0  0  0  0  0  0  0  0  0  0  0
   61.4060   33.9360   46.3340 C   0  0  0  0  0  0  0  0  0  0  0  0
   60.5580   33.0650   47.0520 C   0  0  0  0  0  0  0  0  0  0  0  0
   57.5756   33.3428   43.8252 H   0  0  0  0  0  0  0  0  0  0  0  0
   58.7528   32.0737   44.3027 H   0  0  0  0  0  0  0  0  0  0  0  0
   59.6585   30.6135   44.1548 H   0  0  0  0  0  0  0  0  0  0  0  0
   61.5321   29.2008   45.0049 H   0  0  0  0  0  0  0  0  0  0  0  0
   61.0476   27.1955   46.4142 H   0  0  0  0  0  0  0  0  0  0  0  0
   58.6848   26.5974   46.9639 H   0  0  0  0  0  0  0  0  0  0  0  0
   56.8078   27.9989   46.1056 H   0  0  0  0  0  0  0  0  0  0  0  0
   57.2192   33.1802   48.0429 H   0  0  0  0  0  0  0  0  0  0  0  0
   62.9848   31.2627   48.6841 H   0  0  0  0  0  0  0  0  0  0  0  0
   64.4548   32.7807   47.3586 H   0  0  0  0  0  0  0  0  0  0  0  0
   63.4437   34.5154   45.8769 H   0  0  0  0  0  0  0  0  0  0  0  0
   60.9685   34.7033   45.6784 H   0  0  0  0  0  0  0  0  0  0  0  0
  1  2  2  0
  2  3  1  0
  3  4  1  0
  4  5  1  0
  5  6  2  0
  5  7  2  0
  5  8  1  0
  8  9  2  0
  9 10  1  0
 10 11  2  0
 11 12  1  0
 12 13  2  0
  2 14  1  0
 14 15  1  0
 15 16  2  0
 16 17  1  0
 17 18  2  0
 17 19  2  0
 17 20  1  0
 20 21  2  0
 21 22  1  0
 22 23  2  0
 23 24  1  0
 24 25  2  0
 13  8  1  0
 25 14  1  0
 25 20  1  0
  3 26  1  0
  3 27  1  0
  9 28  1  0
 10 29  1  0
 11 30  1  0
 12 31  1  0
 13 32  1  0
 15 33  1  0
 21 34  1  0
 22 35  1  0
 23 36  1  0
 24 37  1  0
M  CHG  1   4  -1
M  END
>  <UniqueID>  (85) 
81

>  <SMILES>  (85) 
O=C(C[N-]S(=O)(=O)c1ccccc1)N1C=NS(=O)(=O)c2ccccc21

>  <Energy>  (85) 
49.8633475726046

>  <Genealogy>  (85) 
O=C(C[N-]S(=O)(=O)c1ccccc1)N1C=NS(=O)(=O)c2ccccc21 (protonated)
O=C(C[N-]S(=O)(=O)c1ccccc1)N1C=NS(=O)(=O)c2ccccc21 (3D coordinates assigned)
O=C(C[N-]S(=O)(=O)c1ccccc1)N1C=NS(=O)(=O)c2ccccc21 (nonaromatic ring conformer: 49.8633475726046 kcal/mol)

>  <smiles>  (85) 
O=C(CNS(=O)(=O)c1ccccc1)N1C=NS(=O)(=O)c2ccccc21

>  <score_type>  (85) 
oracle

>  <origin>  (85) 
adg

>  <m_score__min__energy>  (85) 
-10.640000000000001

>  <m_primary>  (85) 
energy

$$$$
85:0
     RDKit          3D

 61 65  0  0  0  0  0  0  0  0999 V2000
   56.2880   21.4700   49.1140 C   0  0  0  0  0  0  0  0  0  0  0  0
   57.3490   21.5490   48.1800 O   0  0  0  0  0  0  0  0  0  0  0  0
   56.8530   21.4080   46.8630 C   0  0  0  0  0  0  0  0  0  0  0  0
   57.0510   22.6790   46.0830 C   0  0  0  0  0  0  0  0  0  0  0  0
   57.4870   22.6390   44.7520 C   0  0  0  0  0  0  0  0  0  0  0  0
   57.7050   23.8240   44.0460 C   0  0  0  0  0  0  0  0  0  0  0  0
   57.4910   25.0690   44.6570 C   0  0  0  0  0  0  0  0  0  0  0  0
   57.0630   25.1180   46.0030 C   0  0  0  0  0  0  0  0  0  0  0  0
   56.8390   23.9190   46.7020 C   0  0  0  0  0  0  0  0  0  0  0  0
   56.7570   26.4340   46.6690 C   0  0  0  0  0  0  0  0  0  0  0  0
   57.5820   27.5630   46.0600 C   0  0  0  0  0  0  0  0  0  0  0  0
   57.4340   27.5480   44.6010 N   0  0  0  0  0  0  0  0  0  0  0  0
   57.3600   28.7900   43.8770 C   0  0  0  0  0  0  0  0  0  0  0  0
   57.1090   28.7740   42.6400 O   0  0  0  0  0  0  0  0  0  0  0  0
   57.5700   30.0870   44.5570 C   0  0  0  0  0  0  0  0  0  0  0  0
   58.7150   30.3050   45.3410 C   0  0  0  0  0  0  0  0  0  0  0  0
   58.9230   31.5400   45.9580 C   0  0  0  0  0  0  0  0  0  0  0  0
   58.0000   32.5790   45.7860 C   0  0  0  0  0  0  0  0  0  0  0  0
   58.2230   33.8690   46.3640 N   0  0  0  0  0  0  0  0  0  0  0  0
   59.7970   34.5990   46.4590 S   0  0  0  0  0  0  0  0  0  0  0  0
   59.6560   36.0950   46.4310 O   0  0  0  0  0  0  0  0  0  0  0  0
   60.5980   34.1770   45.2550 O   0  0  0  0  0  0  0  0  0  0  0  0
   60.6600   34.0980   47.9170 C   0  0  0  0  0  0  0  0  0  0  0  0
   60.0250   34.1790   49.1770 C   0  0  0  0  0  0  0  0  0  0  0  0
   60.7120   33.8260   50.3600 C   0  0  0  0  0  0  0  0  0  0  0  0
   62.0460   33.3860   50.3060 C   0  0  0  0  0  0  0  0  0  0  0  0
   62.6560   33.3190   49.0520 C   0  0  0  0  0  0  0  0  0  0  0  0
   61.9910   33.6620   47.8990 C   0  0  0  0  0  0  0  0  0  0  0  0
   62.9220   33.5160   46.8840 C   0  0  0  0  0  0  0  0  0  0  0  0
   64.0800   33.0910   47.4400 N   0  0  0  0  0  0  0  0  0  0  0  0
   63.9230   32.9760   48.7520 N   0  0  0  0  0  0  0  0  0  0  0  0
   64.9620   32.5360   49.6810 C   0  0  0  0  0  0  0  0  0  0  0  0
   56.8290   32.3470   45.0570 C   0  0  0  0  0  0  0  0  0  0  0  0
   56.6150   31.1100   44.4420 C   0  0  0  0  0  0  0  0  0  0  0  0
   57.7790   26.3250   43.8650 C   0  0  0  0  0  0  0  0  0  0  0  0
   56.6955   21.5003   50.1353 H   0  0  0  0  0  0  0  0  0  0  0  0
   55.6054   22.3198   48.9662 H   0  0  0  0  0  0  0  0  0  0  0  0
   55.7387   20.5285   48.9662 H   0  0  0  0  0  0  0  0  0  0  0  0
   57.3885   20.5887   46.3609 H   0  0  0  0  0  0  0  0  0  0  0  0
   55.7767   21.1861   46.9116 H   0  0  0  0  0  0  0  0  0  0  0  0
   57.6584   21.6697   44.2609 H   0  0  0  0  0  0  0  0  0  0  0  0
   58.0475   23.7811   43.0016 H   0  0  0  0  0  0  0  0  0  0  0  0
   56.4937   23.9541   47.7458 H   0  0  0  0  0  0  0  0  0  0  0  0
   55.6883   26.6611   46.5417 H   0  0  0  0  0  0  0  0  0  0  0  0
   57.0107   26.3526   47.7362 H   0  0  0  0  0  0  0  0  0  0  0  0
   57.2296   28.5277   46.4539 H   0  0  0  0  0  0  0  0  0  0  0  0
   58.6414   27.4237   46.3214 H   0  0  0  0  0  0  0  0  0  0  0  0
   59.4517   29.4983   45.4695 H   0  0  0  0  0  0  0  0  0  0  0  0
   59.8153   31.6975   46.5816 H   0  0  0  0  0  0  0  0  0  0  0  0
   58.9815   34.5216   49.2375 H   0  0  0  0  0  0  0  0  0  0  0  0
   60.1992   33.8960   51.3306 H   0  0  0  0  0  0  0  0  0  0  0  0
   62.5901   33.1044   51.2196 H   0  0  0  0  0  0  0  0  0  0  0  0
   62.7504   33.7110   45.8151 H   0  0  0  0  0  0  0  0  0  0  0  0
   64.9680   32.8930   46.9250 H   0  0  0  0  0  0  0  0  0  0  0  0
   64.6156   32.6827   50.7147 H   0  0  0  0  0  0  0  0  0  0  0  0
   65.1759   31.4700   49.5137 H   0  0  0  0  0  0  0  0  0  0  0  0
   65.8764   33.1241   49.5137 H   0  0  0  0  0  0  0  0  0  0  0  0
   56.0733   33.1413   44.9673 H   0  0  0  0  0  0  0  0  0  0  0  0
   55.6943   30.9372   43.8654 H   0  0  0  0  0  0  0  0  0  0  0  0
   57.1933   26.2968   42.9343 H   0  0  0  0  0  0  0  0  0  0  0  0
   58.8600   26.3512   43.6632 H   0  0  0  0  0  0  0  0  0  0  0  0
  1  2  1  0
  2  3  1  0
  3  4  1  0
  4  5  2  0
  5  6  1  0
  6  7  2  0
  7  8  1  0
  8  9  2  0
  8 10  1  0
 10 11  1  0
 11 12  1  0
 12 13  1  0
 13 14  2  0
 13 15  1  0
 15 16  2  0
 16 17  1  0
 17 18  2  0
 18 19  1  0
 19 20  1  0
 20 21  2  0
 20 22  2  0
 20 23  1  0
 23 24  2  0
 24 25  1  0
 25 26  2  0
 26 27  1  0
 27 28  2  0
 28 29  1  0
 29 30  2  0
 30 31  1  0
 31 32  1  0
 18 33  1  0
 33 34  2  0
 12 35  1  0
  9  4  1  0
 34 15  1  0
 35  7  1  0
 28 23  1  0
 31 27  1  0
  1 36  1  0
  1 37  1  0
  1 38  1  0
  3 39  1  0
  3 40  1  0
  5 41  1  0
  6 42  1  0
  9 43  1  0
 10 44  1  0
 10 45  1  0
 11 46  1  0
 11 47  1  0
 16 48  1  0
 17 49  1  0
 24 50  1  0
 25 51  1  0
 26 52  1  0
 29 53  1  0
 30 54  1  0
 32 55  1  0
 32 56  1  0
 32 57  1  0
 33 58  1  0
 34 59  1  0
 35 60  1  0
 35 61  1  0
M  CHG  2  19  -1  30   1
M  END
>  <UniqueID>  (86) 
82

>  <SMILES>  (86) 
COCc1ccc2c(c1)CCN(C(=O)c1ccc([N-]S(=O)(=O)c3cccc4c3c[nH+]n4C)cc1)C2

>  <Energy>  (86) 
120.5778820843215

>  <Genealogy>  (86) 
COCc1ccc2c(c1)CCN(C(=O)c1ccc([N-]S(=O)(=O)c3cccc4c3c[nH+]n4C)cc1)C2 (protonated)
COCc1ccc2c(c1)CCN(C(=O)c1ccc([N-]S(=O)(=O)c3cccc4c3c[nH+]n4C)cc1)C2 (3D coordinates assigned)
COCc1ccc2c(c1)CCN(C(=O)c1ccc([N-]S(=O)(=O)c3cccc4c3c[nH+]n4C)cc1)C2 (nonaromatic ring conformer: 120.5778820843215 kcal/mol)

>  <smiles>  (86) 
COCc1ccc2c(c1)CCN(C(=O)c1ccc(NS(=O)(=O)c3cccc4c3cnn4C)cc1)C2

>  <score_type>  (86) 
oracle

>  <origin>  (86) 
adg

>  <m_score__min__energy>  (86) 
-10.279999999999999

>  <m_primary>  (86) 
energy

$$$$
86:0
     RDKit          3D

 41 42  0  0  0  0  0  0  0  0999 V2000
   54.5180   26.0010   45.7180 N   0  0  0  0  0  0  0  0  0  0  0  0
   56.1690   25.7330   46.1520 S   0  0  0  0  0  0  0  0  0  0  0  0
   56.8080   24.8080   45.1540 O   0  0  0  0  0  0  0  0  0  0  0  0
   56.2310   25.0930   47.5100 O   0  0  0  0  0  0  0  0  0  0  0  0
   57.0280   27.2690   46.1760 C   0  0  0  0  0  0  0  0  0  0  0  0
   57.9830   27.5260   47.1700 C   0  0  0  0  0  0  0  0  0  0  0  0
   58.6770   28.7390   47.1820 C   0  0  0  0  0  0  0  0  0  0  0  0
   58.4330   29.7050   46.1920 C   0  0  0  0  0  0  0  0  0  0  0  0
   59.1830   31.0100   46.2080 C   0  0  0  0  0  0  0  0  0  0  0  0
   58.2860   32.1230   46.5130 N   0  0  0  0  0  0  0  0  0  0  0  0
   57.6640   32.9940   45.5580 C   0  0  0  0  0  0  0  0  0  0  0  0
   56.6520   32.5750   44.9360 O   0  0  0  0  0  0  0  0  0  0  0  0
   58.1370   34.4090   45.3340 C   0  0  0  0  0  0  0  0  0  0  0  0
   59.6430   34.5870   45.5960 C   0  0  0  0  0  0  0  0  0  0  0  0
   60.0030   34.6940   47.0880 C   0  0  0  0  0  0  0  0  0  0  0  0
   61.2780   33.9620   47.4200 C   0  0  0  0  0  0  0  0  0  0  0  0
   61.4570   33.3830   48.6870 C   0  0  0  0  0  0  0  0  0  0  0  0
   62.6570   32.7400   49.0060 C   0  0  0  0  0  0  0  0  0  0  0  0
   63.6850   32.6680   48.0620 C   0  0  0  0  0  0  0  0  0  0  0  0
   63.5150   33.2410   46.7980 C   0  0  0  0  0  0  0  0  0  0  0  0
   62.3170   33.8880   46.4770 C   0  0  0  0  0  0  0  0  0  0  0  0
   57.4720   29.4460   45.2020 C   0  0  0  0  0  0  0  0  0  0  0  0
   56.7790   28.2330   45.1910 C   0  0  0  0  0  0  0  0  0  0  0  0
   54.1460   26.7270   46.3690 H   0  0  0  0  0  0  0  0  0  0  0  0
   58.1866   26.7703   47.9430 H   0  0  0  0  0  0  0  0  0  0  0  0
   59.4178   28.9381   47.9704 H   0  0  0  0  0  0  0  0  0  0  0  0
   59.9717   30.9628   46.9734 H   0  0  0  0  0  0  0  0  0  0  0  0
   59.6226   31.1751   45.2133 H   0  0  0  0  0  0  0  0  0  0  0  0
   57.9271   34.6880   44.2909 H   0  0  0  0  0  0  0  0  0  0  0  0
   57.6002   35.0526   46.0466 H   0  0  0  0  0  0  0  0  0  0  0  0
   60.1739   33.7220   45.1719 H   0  0  0  0  0  0  0  0  0  0  0  0
   59.9414   35.5350   45.1246 H   0  0  0  0  0  0  0  0  0  0  0  0
   60.1263   35.7558   47.3474 H   0  0  0  0  0  0  0  0  0  0  0  0
   59.1885   34.2327   47.6658 H   0  0  0  0  0  0  0  0  0  0  0  0
   60.6493   33.4356   49.4319 H   0  0  0  0  0  0  0  0  0  0  0  0
   62.7920   32.2905   50.0008 H   0  0  0  0  0  0  0  0  0  0  0  0
   64.6280   32.1605   48.3134 H   0  0  0  0  0  0  0  0  0  0  0  0
   64.3242   33.1830   46.0552 H   0  0  0  0  0  0  0  0  0  0  0  0
   62.1879   34.3405   45.4827 H   0  0  0  0  0  0  0  0  0  0  0  0
   57.2635   30.2022   44.4308 H   0  0  0  0  0  0  0  0  0  0  0  0
   56.0349   28.0343   44.4056 H   0  0  0  0  0  0  0  0  0  0  0  0
  1  2  1  0
  2  3  2  0
  2  4  2  0
  2  5  1  0
  5  6  2  0
  6  7  1  0
  7  8  2  0
  8  9  1  0
  9 10  1  0
 10 11  1  0
 11 12  2  0
 11 13  1  0
 13 14  1  0
 14 15  1  0
 15 16  1  0
 16 17  2  0
 17 18  1  0
 18 19  2  0
 19 20  1  0
 20 21  2  0
  8 22  1  0
 22 23  2  0
 23  5  1  0
 21 16  1  0
  1 24  1  0
  6 25  1  0
  7 26  1  0
  9 27  1  0
  9 28  1  0
 13 29  1  0
 13 30  1  0
 14 31  1  0
 14 32  1  0
 15 33  1  0
 15 34  1  0
 17 35  1  0
 18 36  1  0
 19 37  1  0
 20 38  1  0
 21 39  1  0
 22 40  1  0
 23 41  1  0
M  CHG  2   1  -1  10  -1
M  END
>  <UniqueID>  (87) 
83

>  <SMILES>  (87) 
[NH-]S(=O)(=O)c1ccc(C[N-]C(=O)CCCc2ccccc2)cc1

>  <Energy>  (87) 
34.031148579440966

>  <Genealogy>  (87) 
[NH-]S(=O)(=O)c1ccc(C[N-]C(=O)CCCc2ccccc2)cc1 (protonated)
[NH-]S(=O)(=O)c1ccc(C[N-]C(=O)CCCc2ccccc2)cc1 (3D coordinates assigned)
[NH-]S(=O)(=O)c1ccc(C[N-]C(=O)CCCc2ccccc2)cc1 (optimized conformer: 34.031148579440966 kcal/mol)

>  <smiles>  (87) 
NS(=O)(=O)c1ccc(CNC(=O)CCCc2ccccc2)cc1

>  <score_type>  (87) 
oracle

>  <origin>  (87) 
adg

>  <m_score__min__energy>  (87) 
-11.82

>  <m_primary>  (87) 
energy

$$$$
87:0
     RDKit          3D

 45 48  0  0  0  0  0  0  0  0999 V2000
   64.6370   32.9450   49.3480 C   0  0  0  0  0  0  0  0  0  0  0  0
   63.4290   33.2940   48.5450 C   0  0  0  0  0  0  0  0  0  0  0  0
   63.3720   33.3770   47.1590 C   0  0  0  0  0  0  0  0  0  0  0  0
   62.1210   33.7870   46.6820 C   0  0  0  0  0  0  0  0  0  0  0  0
   61.2070   34.0440   47.6970 C   0  0  0  0  0  0  0  0  0  0  0  0
   59.7780   34.4480   47.5080 C   0  0  0  0  0  0  0  0  0  0  0  0
   59.4700   34.9830   45.7880 S   0  0  0  0  0  0  0  0  0  0  0  0
   58.7980   33.4100   45.2600 C   0  0  0  0  0  0  0  0  0  0  0  0
   58.7380   32.3240   46.0680 N   0  0  0  0  0  0  0  0  0  0  0  0
   58.1470   31.2820   45.4310 C   0  0  0  0  0  0  0  0  0  0  0  0
   57.9220   30.0330   46.0100 C   0  0  0  0  0  0  0  0  0  0  0  0
   57.2850   29.0260   45.2460 C   0  0  0  0  0  0  0  0  0  0  0  0
   57.0170   27.6870   45.8240 C   0  0  0  0  0  0  0  0  0  0  0  0
   55.8740   27.1730   45.6840 O   0  0  0  0  0  0  0  0  0  0  0  0
   58.0400   26.9600   46.5250 N   0  0  0  0  0  0  0  0  0  0  0  0
   57.7810   25.6760   47.1720 C   0  0  0  0  0  0  0  0  0  0  0  0
   57.5720   24.6030   46.1370 C   0  0  0  0  0  0  0  0  0  0  0  0
   58.6750   23.9060   45.6170 C   0  0  0  0  0  0  0  0  0  0  0  0
   58.4900   22.9220   44.6400 C   0  0  0  0  0  0  0  0  0  0  0  0
   57.2040   22.6310   44.1730 C   0  0  0  0  0  0  0  0  0  0  0  0
   56.9740   21.3970   42.9470 Cl  0  0  0  0  0  0  0  0  0  0  0  0
   56.1020   23.3240   44.6840 C   0  0  0  0  0  0  0  0  0  0  0  0
   56.2830   24.3080   45.6610 C   0  0  0  0  0  0  0  0  0  0  0  0
   56.8770   29.3150   43.9210 C   0  0  0  0  0  0  0  0  0  0  0  0
   57.1100   30.5770   43.3540 C   0  0  0  0  0  0  0  0  0  0  0  0
   57.7470   31.5380   44.1310 C   0  0  0  0  0  0  0  0  0  0  0  0
   58.1310   33.1220   43.7320 S   0  0  0  0  0  0  0  0  0  0  0  0
   61.9450   33.7600   49.1840 S   0  0  0  0  0  0  0  0  0  0  0  0
   64.3976   33.0142   50.4194 H   0  0  0  0  0  0  0  0  0  0  0  0
   64.9527   31.9189   49.1083 H   0  0  0  0  0  0  0  0  0  0  0  0
   65.4513   33.6446   49.1083 H   0  0  0  0  0  0  0  0  0  0  0  0
   64.2236   33.1441   46.5029 H   0  0  0  0  0  0  0  0  0  0  0  0
   61.8856   33.8947   45.6129 H   0  0  0  0  0  0  0  0  0  0  0  0
   59.1284   33.5912   47.7399 H   0  0  0  0  0  0  0  0  0  0  0  0
   59.5602   35.2903   48.1811 H   0  0  0  0  0  0  0  0  0  0  0  0
   58.2351   29.8335   47.0455 H   0  0  0  0  0  0  0  0  0  0  0  0
   59.0230   27.3120   46.5260 H   0  0  0  0  0  0  0  0  0  0  0  0
   58.6404   25.4081   47.8041 H   0  0  0  0  0  0  0  0  0  0  0  0
   56.8733   25.7617   47.7874 H   0  0  0  0  0  0  0  0  0  0  0  0
   59.6881   24.1347   45.9794 H   0  0  0  0  0  0  0  0  0  0  0  0
   59.3568   22.3765   44.2386 H   0  0  0  0  0  0  0  0  0  0  0  0
   55.0908   23.0946   44.3167 H   0  0  0  0  0  0  0  0  0  0  0  0
   55.4138   24.8528   46.0582 H   0  0  0  0  0  0  0  0  0  0  0  0
   56.3704   28.5392   43.3281 H   0  0  0  0  0  0  0  0  0  0  0  0
   56.7973   30.8000   42.3232 H   0  0  0  0  0  0  0  0  0  0  0  0
  1  2  1  0
  2  3  2  0
  3  4  1  0
  4  5  2  0
  5  6  1  0
  6  7  1  0
  7  8  1  0
  8  9  2  0
  9 10  1  0
 10 11  2  0
 11 12  1  0
 12 13  1  0
 13 14  2  0
 13 15  1  0
 15 16  1  0
 16 17  1  0
 17 18  2  0
 18 19  1  0
 19 20  2  0
 20 21  1  0
 20 22  1  0
 22 23  2  0
 12 24  2  0
 24 25  1  0
 25 26  2  0
 26 27  1  0
  5 28  1  0
 28  2  1  0
 27  8  1  0
 26 10  1  0
 23 17  1  0
  1 29  1  0
  1 30  1  0
  1 31  1  0
  3 32  1  0
  4 33  1  0
  6 34  1  0
  6 35  1  0
 11 36  1  0
 15 37  1  0
 16 38  1  0
 16 39  1  0
 18 40  1  0
 19 41  1  0
 22 42  1  0
 23 43  1  0
 24 44  1  0
 25 45  1  0
M  END
>  <UniqueID>  (88) 
84

>  <SMILES>  (88) 
Cc1ccc(CSc2nc3cc(C(=O)NCc4ccc(Cl)cc4)ccc3s2)s1

>  <Energy>  (88) 
102.47462108813076

>  <Genealogy>  (88) 
Cc1ccc(CSc2nc3cc(C(=O)NCc4ccc(Cl)cc4)ccc3s2)s1 (3D coordinates assigned)
Cc1ccc(CSc2nc3cc(C(=O)NCc4ccc(Cl)cc4)ccc3s2)s1 (optimized conformer: 102.47462108813076 kcal/mol)

>  <smiles>  (88) 
Cc1ccc(CSc2nc3cc(C(=O)NCc4ccc(Cl)cc4)ccc3s2)s1

>  <score_type>  (88) 
oracle

>  <origin>  (88) 
adg

>  <m_score__min__energy>  (88) 
-9.6600000000000001

>  <m_primary>  (88) 
energy

$$$$
88:0
     RDKit          3D

 39 40  0  0  0  0  0  0  0  0999 V2000
   55.1740   29.3610   45.1340 N   0  0  0  0  0  0  0  0  0  0  0  0
   56.5450   30.0960   44.3810 S   0  0  0  0  0  0  0  0  0  0  0  0
   56.4030   30.0200   42.8870 O   0  0  0  0  0  0  0  0  0  0  0  0
   56.6230   31.5420   44.7880 O   0  0  0  0  0  0  0  0  0  0  0  0
   58.0040   29.2470   44.8790 C   0  0  0  0  0  0  0  0  0  0  0  0
   59.2700   29.7520   44.5530 C   0  0  0  0  0  0  0  0  0  0  0  0
   60.4210   29.0940   44.9930 C   0  0  0  0  0  0  0  0  0  0  0  0
   60.3140   27.9320   45.7620 C   0  0  0  0  0  0  0  0  0  0  0  0
   59.0560   27.4070   46.0810 C   0  0  0  0  0  0  0  0  0  0  0  0
   58.9850   26.2420   46.9150 N   0  0  0  0  0  0  0  0  0  0  0  0
   57.8870   25.3230   46.9750 C   0  0  0  0  0  0  0  0  0  0  0  0
   58.0740   24.1230   47.3100 O   0  0  0  0  0  0  0  0  0  0  0  0
   56.4950   25.8100   46.7200 C   0  0  0  0  0  0  0  0  0  0  0  0
   55.5410   24.7050   46.7900 N   0  0  0  0  0  0  0  0  0  0  0  0
   54.4930   24.4520   45.8450 C   0  0  0  0  0  0  0  0  0  0  0  0
   53.6520   25.3640   45.6240 O   0  0  0  0  0  0  0  0  0  0  0  0
   54.3370   23.1070   45.1780 C   0  0  0  0  0  0  0  0  0  0  0  0
   55.6520   22.5650   44.6700 C   0  0  0  0  0  0  0  0  0  0  0  0
   56.6410   22.1550   45.5810 C   0  0  0  0  0  0  0  0  0  0  0  0
   57.8600   21.6370   45.1200 C   0  0  0  0  0  0  0  0  0  0  0  0
   58.8450   21.2350   46.0180 O   0  0  0  0  0  0  0  0  0  0  0  0
   58.0900   21.5220   43.7460 C   0  0  0  0  0  0  0  0  0  0  0  0
   57.1090   21.9150   42.8340 C   0  0  0  0  0  0  0  0  0  0  0  0
   55.8910   22.4290   43.2880 C   0  0  0  0  0  0  0  0  0  0  0  0
   54.9200   22.7970   42.3630 O   0  0  0  0  0  0  0  0  0  0  0  0
   57.8990   28.0790   45.6460 C   0  0  0  0  0  0  0  0  0  0  0  0
   54.3950   29.3810   44.4370 H   0  0  0  0  0  0  0  0  0  0  0  0
   59.3574   30.6677   43.9498 H   0  0  0  0  0  0  0  0  0  0  0  0
   61.4135   29.4912   44.7337 H   0  0  0  0  0  0  0  0  0  0  0  0
   61.2237   27.4268   46.1188 H   0  0  0  0  0  0  0  0  0  0  0  0
   56.2315   26.5633   47.4771 H   0  0  0  0  0  0  0  0  0  0  0  0
   56.4530   26.2506   45.7130 H   0  0  0  0  0  0  0  0  0  0  0  0
   53.9191   22.3968   45.9067 H   0  0  0  0  0  0  0  0  0  0  0  0
   53.6685   23.2346   44.3139 H   0  0  0  0  0  0  0  0  0  0  0  0
   56.4576   22.2410   46.6622 H   0  0  0  0  0  0  0  0  0  0  0  0
   59.3970   20.4000   45.8620 H   0  0  0  0  0  0  0  0  0  0  0  0
   59.0473   21.1204   43.3822 H   0  0  0  0  0  0  0  0  0  0  0  0
   57.2952   21.8198   41.7540 H   0  0  0  0  0  0  0  0  0  0  0  0
   56.9063   27.6852   45.9095 H   0  0  0  0  0  0  0  0  0  0  0  0
  1  2  1  0
  2  3  2  0
  2  4  2  0
  2  5  1  0
  5  6  2  0
  6  7  1  0
  7  8  2  0
  8  9  1  0
  9 10  1  0
 10 11  1  0
 11 12  2  0
 11 13  1  0
 13 14  1  0
 14 15  1  0
 15 16  2  0
 15 17  1  0
 17 18  1  0
 18 19  2  0
 19 20  1  0
 20 21  1  0
 20 22  2  0
 22 23  1  0
 23 24  2  0
 24 25  1  0
  9 26  2  0
 26  5  1  0
 24 18  1  0
  1 27  1  0
  6 28  1  0
  7 29  1  0
  8 30  1  0
 13 31  1  0
 13 32  1  0
 17 33  1  0
 17 34  1  0
 19 35  1  0
 21 36  1  0
 22 37  1  0
 23 38  1  0
 26 39  1  0
M  CHG  4   1  -1  10  -1  14  -1  25  -1
M  END
>  <UniqueID>  (89) 
85

>  <SMILES>  (89) 
[NH-]S(=O)(=O)c1cccc([N-]C(=O)C[N-]C(=O)Cc2cc(O)ccc2[O-])c1

>  <Energy>  (89) 
38.75155820994056

>  <Genealogy>  (89) 
[NH-]S(=O)(=O)c1cccc([N-]C(=O)C[N-]C(=O)Cc2cc(O)ccc2[O-])c1 (protonated)
[NH-]S(=O)(=O)c1cccc([N-]C(=O)C[N-]C(=O)Cc2cc(O)ccc2[O-])c1 (3D coordinates assigned)
[NH-]S(=O)(=O)c1cccc([N-]C(=O)C[N-]C(=O)Cc2cc(O)ccc2[O-])c1 (optimized conformer: 38.75155820994056 kcal/mol)

>  <smiles>  (89) 
NS(=O)(=O)c1cccc(NC(=O)CNC(=O)Cc2cc(O)ccc2O)c1

>  <score_type>  (89) 
oracle

>  <origin>  (89) 
adg

>  <m_score__min__energy>  (89) 
-15.24

>  <m_primary>  (89) 
energy

$$$$
89:0
     RDKit          3D

 57 59  0  0  0  0  0  0  0  0999 V2000
   57.7040   31.7800   46.0560 N   0  0  0  0  0  0  0  0  0  0  0  0
   58.3690   32.1780   44.8180 C   0  0  0  0  0  0  0  0  0  0  0  0
   58.0970   31.1640   43.7040 C   0  0  0  0  0  0  0  0  0  0  0  0
   56.7370   30.0740   44.1120 S   0  0  0  0  0  0  0  0  0  0  0  0
   55.4430   30.8360   44.2030 O   0  0  0  0  0  0  0  0  0  0  0  0
   56.6070   29.0280   43.0390 O   0  0  0  0  0  0  0  0  0  0  0  0
   57.0570   29.2780   45.6190 N   0  0  0  0  0  0  0  0  0  0  0  0
   57.9070   28.1350   45.8120 C   0  0  0  0  0  0  0  0  0  0  0  0
   57.5770   26.8770   45.2710 C   0  0  0  0  0  0  0  0  0  0  0  0
   58.4300   25.7860   45.4430 C   0  0  0  0  0  0  0  0  0  0  0  0
   59.6190   25.9320   46.1550 C   0  0  0  0  0  0  0  0  0  0  0  0
   59.9610   27.1710   46.6980 C   0  0  0  0  0  0  0  0  0  0  0  0
   59.1170   28.2830   46.5290 C   0  0  0  0  0  0  0  0  0  0  0  0
   59.5060   29.5860   47.1250 C   0  0  0  0  0  0  0  0  0  0  0  0
   60.3390   30.3190   46.5280 O   0  0  0  0  0  0  0  0  0  0  0  0
   58.9020   30.0740   48.3300 N   0  0  0  0  0  0  0  0  0  0  0  0
   59.5100   30.1030   49.6320 C   0  0  0  0  0  0  0  0  0  0  0  0
   59.9070   28.9070   50.2610 C   0  0  0  0  0  0  0  0  0  0  0  0
   60.5400   28.9360   51.5030 C   0  0  0  0  0  0  0  0  0  0  0  0
   60.7970   30.1550   52.1290 C   0  0  0  0  0  0  0  0  0  0  0  0
   60.4280   31.3510   51.5090 C   0  0  0  0  0  0  0  0  0  0  0  0
   59.7910   31.3420   50.2540 C   0  0  0  0  0  0  0  0  0  0  0  0
   59.3930   32.6250   49.6250 C   0  0  0  0  0  0  0  0  0  0  0  0
   59.2360   33.6490   50.3450 O   0  0  0  0  0  0  0  0  0  0  0  0
   59.1910   32.7160   48.2050 N   0  0  0  0  0  0  0  0  0  0  0  0
   58.8420   33.9710   47.5420 C   0  0  0  0  0  0  0  0  0  0  0  0
   60.0460   34.9140   47.5150 C   0  0  0  0  0  0  0  0  0  0  0  0
   61.3170   34.1590   47.7960 C   0  0  0  0  0  0  0  0  0  0  0  0
   61.8300   33.2570   46.8500 C   0  0  0  0  0  0  0  0  0  0  0  0
   62.9950   32.5330   47.1260 C   0  0  0  0  0  0  0  0  0  0  0  0
   63.6480   32.6970   48.3510 C   0  0  0  0  0  0  0  0  0  0  0  0
   63.1360   33.5820   49.3040 C   0  0  0  0  0  0  0  0  0  0  0  0
   61.9720   34.3080   49.0320 C   0  0  0  0  0  0  0  0  0  0  0  0
   56.7440   31.4410   45.8190 H   0  0  0  0  0  0  0  0  0  0  0  0
   58.2230   30.9600   46.4470 H   0  0  0  0  0  0  0  0  0  0  0  0
   57.9930   33.1641   44.5077 H   0  0  0  0  0  0  0  0  0  0  0  0
   59.4532   32.2208   44.9985 H   0  0  0  0  0  0  0  0  0  0  0  0
   57.8520   31.7080   42.7799 H   0  0  0  0  0  0  0  0  0  0  0  0
   58.9999   30.5492   43.5744 H   0  0  0  0  0  0  0  0  0  0  0  0
   56.6397   26.7536   44.7086 H   0  0  0  0  0  0  0  0  0  0  0  0
   58.1631   24.8083   45.0155 H   0  0  0  0  0  0  0  0  0  0  0  0
   60.2886   25.0696   46.2891 H   0  0  0  0  0  0  0  0  0  0  0  0
   60.8986   27.2788   47.2630 H   0  0  0  0  0  0  0  0  0  0  0  0
   59.7161   27.9422   49.7684 H   0  0  0  0  0  0  0  0  0  0  0  0
   60.8372   27.9954   51.9898 H   0  0  0  0  0  0  0  0  0  0  0  0
   61.2907   30.1749   53.1118 H   0  0  0  0  0  0  0  0  0  0  0  0
   60.6373   32.3095   52.0065 H   0  0  0  0  0  0  0  0  0  0  0  0
   59.2870   31.8610   47.6120 H   0  0  0  0  0  0  0  0  0  0  0  0
   58.5243   33.7595   46.5103 H   0  0  0  0  0  0  0  0  0  0  0  0
   58.0246   34.4527   48.0986 H   0  0  0  0  0  0  0  0  0  0  0  0
   60.1159   35.3826   46.5223 H   0  0  0  0  0  0  0  0  0  0  0  0
   59.9116   35.6827   48.2902 H   0  0  0  0  0  0  0  0  0  0  0  0
   61.3140   33.1191   45.8884 H   0  0  0  0  0  0  0  0  0  0  0  0
   63.3975   31.8339   46.3781 H   0  0  0  0  0  0  0  0  0  0  0  0
   64.5654   32.1292   48.5651 H   0  0  0  0  0  0  0  0  0  0  0  0
   63.6491   33.7076   50.2689 H   0  0  0  0  0  0  0  0  0  0  0  0
   61.5673   34.9979   49.7871 H   0  0  0  0  0  0  0  0  0  0  0  0
  1  2  1  0
  2  3  1  0
  3  4  1  0
  4  5  2  0
  4  6  2  0
  4  7  1  0
  7  8  1  0
  8  9  2  0
  9 10  1  0
 10 11  2  0
 11 12  1  0
 12 13  2  0
 13 14  1  0
 14 15  2  0
 14 16  1  0
 16 17  1  0
 17 18  2  0
 18 19  1  0
 19 20  2  0
 20 21  1  0
 21 22  2  0
 22 23  1  0
 23 24  2  0
 23 25  1  0
 25 26  1  0
 26 27  1  0
 27 28  1  0
 28 29  2  0
 29 30  1  0
 30 31  2  0
 31 32  1  0
 32 33  2  0
 13  8  1  0
 22 17  1  0
 33 28  1  0
  1 34  1  0
  1 35  1  0
  2 36  1  0
  2 37  1  0
  3 38  1  0
  3 39  1  0
  9 40  1  0
 10 41  1  0
 11 42  1  0
 12 43  1  0
 18 44  1  0
 19 45  1  0
 20 46  1  0
 21 47  1  0
 25 48  1  0
 26 49  1  0
 26 50  1  0
 27 51  1  0
 27 52  1  0
 29 53  1  0
 30 54  1  0
 31 55  1  0
 32 56  1  0
 33 57  1  0
M  CHG  2   7  -1  16  -1
M  END
>  <UniqueID>  (90) 
86

>  <SMILES>  (90) 
NCCS(=O)(=O)[N-]c1ccccc1C(=O)[N-]c1ccccc1C(=O)NCCc1ccccc1

>  <Energy>  (90) 
63.33267240270569

>  <Genealogy>  (90) 
NCCS(=O)(=O)[N-]c1ccccc1C(=O)[N-]c1ccccc1C(=O)NCCc1ccccc1 (protonated)
NCCS(=O)(=O)[N-]c1ccccc1C(=O)[N-]c1ccccc1C(=O)NCCc1ccccc1 (3D coordinates assigned)
NCCS(=O)(=O)[N-]c1ccccc1C(=O)[N-]c1ccccc1C(=O)NCCc1ccccc1 (optimized conformer: 63.33267240270569 kcal/mol)

>  <smiles>  (90) 
NCCS(=O)(=O)Nc1ccccc1C(=O)Nc1ccccc1C(=O)NCCc1ccccc1

>  <score_type>  (90) 
oracle

>  <origin>  (90) 
adg

>  <m_score__min__energy>  (90) 
-10.619999999999999

>  <m_primary>  (90) 
energy

$$$$
90:0
     RDKit          3D

 43 45  0  0  0  0  0  0  0  0999 V2000
   60.3210   28.8470   47.9580 C   0  0  0  0  0  0  0  0  0  0  0  0
   59.6460   28.0090   46.9200 C   0  0  0  0  0  0  0  0  0  0  0  0
   59.7530   26.6150   46.9560 C   0  0  0  0  0  0  0  0  0  0  0  0
   59.1040   25.8560   45.9820 C   0  0  0  0  0  0  0  0  0  0  0  0
   58.3500   26.4870   44.9910 C   0  0  0  0  0  0  0  0  0  0  0  0
   58.2400   27.8950   44.9920 C   0  0  0  0  0  0  0  0  0  0  0  0
   57.5870   28.5580   44.0800 N   0  0  0  0  0  0  0  0  0  0  0  0
   56.3420   29.2670   44.2000 C   0  0  0  0  0  0  0  0  0  0  0  0
   55.6440   29.1910   45.2460 O   0  0  0  0  0  0  0  0  0  0  0  0
   55.8930   30.1410   43.0720 C   0  0  0  0  0  0  0  0  0  0  0  0
   57.2840   31.1150   42.3940 S   0  0  0  0  0  0  0  0  0  0  0  0
   57.8330   31.7360   43.9850 C   0  0  0  0  0  0  0  0  0  0  0  0
   57.3840   32.9410   44.4230 N   0  0  0  0  0  0  0  0  0  0  0  0
   57.8200   33.4720   45.5940 C   0  0  0  0  0  0  0  0  0  0  0  0
   57.3870   34.5960   45.9630 O   0  0  0  0  0  0  0  0  0  0  0  0
   58.7530   32.7710   46.3710 C   0  0  0  0  0  0  0  0  0  0  0  0
   59.3800   33.4470   47.8770 S   0  0  0  0  0  0  0  0  0  0  0  0
   58.7840   32.6900   49.0300 O   0  0  0  0  0  0  0  0  0  0  0  0
   58.9990   34.8960   48.0040 O   0  0  0  0  0  0  0  0  0  0  0  0
   61.1360   33.3230   47.8930 C   0  0  0  0  0  0  0  0  0  0  0  0
   61.8090   32.8110   49.0120 C   0  0  0  0  0  0  0  0  0  0  0  0
   63.2030   32.7080   49.0070 C   0  0  0  0  0  0  0  0  0  0  0  0
   63.9310   33.1180   47.8850 C   0  0  0  0  0  0  0  0  0  0  0  0
   63.2640   33.6290   46.7670 C   0  0  0  0  0  0  0  0  0  0  0  0
   61.8700   33.7320   46.7700 C   0  0  0  0  0  0  0  0  0  0  0  0
   59.1890   31.5250   45.9090 C   0  0  0  0  0  0  0  0  0  0  0  0
   58.7210   31.0280   44.7340 N   0  0  0  0  0  0  0  0  0  0  0  0
   58.8960   28.6020   45.9530 N   0  0  0  0  0  0  0  0  0  0  0  0
   60.0349   28.4918   48.9590 H   0  0  0  0  0  0  0  0  0  0  0  0
   61.4118   28.7695   47.8394 H   0  0  0  0  0  0  0  0  0  0  0  0
   60.0129   29.8963   47.8394 H   0  0  0  0  0  0  0  0  0  0  0  0
   60.3423   26.1226   47.7436 H   0  0  0  0  0  0  0  0  0  0  0  0
   59.1865   24.7592   45.9949 H   0  0  0  0  0  0  0  0  0  0  0  0
   57.8455   25.8922   44.2154 H   0  0  0  0  0  0  0  0  0  0  0  0
   55.4746   29.5099   42.2741 H   0  0  0  0  0  0  0  0  0  0  0  0
   55.1334   30.8389   43.4539 H   0  0  0  0  0  0  0  0  0  0  0  0
   61.2383   32.4897   49.8958 H   0  0  0  0  0  0  0  0  0  0  0  0
   63.7277   32.3044   49.8855 H   0  0  0  0  0  0  0  0  0  0  0  0
   65.0281   33.0385   47.8821 H   0  0  0  0  0  0  0  0  0  0  0  0
   63.8369   33.9501   45.8846 H   0  0  0  0  0  0  0  0  0  0  0  0
   61.3475   34.1347   45.8897 H   0  0  0  0  0  0  0  0  0  0  0  0
   59.9137   30.9449   46.4992 H   0  0  0  0  0  0  0  0  0  0  0  0
   59.0670   30.1030   44.3960 H   0  0  0  0  0  0  0  0  0  0  0  0
  1  2  1  0
  2  3  2  0
  3  4  1  0
  4  5  2  0
  5  6  1  0
  6  7  2  3
  7  8  1  0
  8  9  2  0
  8 10  1  0
 10 11  1  0
 11 12  1  0
 12 13  2  0
 13 14  1  0
 14 15  2  0
 14 16  1  0
 16 17  1  0
 17 18  2  0
 17 19  2  0
 17 20  1  0
 20 21  2  0
 21 22  1  0
 22 23  2  0
 23 24  1  0
 24 25  2  0
 16 26  2  0
 26 27  1  0
  6 28  1  0
 28  2  1  0
 27 12  1  0
 25 20  1  0
  1 29  1  0
  1 30  1  0
  1 31  1  0
  3 32  1  0
  4 33  1  0
  5 34  1  0
 10 35  1  0
 10 36  1  0
 21 37  1  0
 22 38  1  0
 23 39  1  0
 24 40  1  0
 25 41  1  0
 26 42  1  0
 27 43  1  0
M  CHG  1  28  -1
M  END
>  <UniqueID>  (91) 
87

>  <SMILES>  (91) 
Cc1cccc(=NC(=O)CSc2nc(=O)c(S(=O)(=O)c3ccccc3)c[nH]2)[n-]1

>  <Energy>  (91) 
47.70114593225016

>  <Genealogy>  (91) 
Cc1cccc(=NC(=O)CSc2nc(=O)c(S(=O)(=O)c3ccccc3)c[nH]2)[n-]1 (protonated)
Cc1cccc(=NC(=O)CSc2nc(=O)c(S(=O)(=O)c3ccccc3)c[nH]2)[n-]1 (3D coordinates assigned)
Cc1cccc(=NC(=O)CSc2nc(=O)c(S(=O)(=O)c3ccccc3)c[nH]2)[n-]1 (optimized conformer: 47.70114593225016 kcal/mol)

>  <smiles>  (91) 
Cc1cccc(=NC(=O)CSc2nc(=O)c(S(=O)(=O)c3ccccc3)c[nH]2)[nH]1

>  <score_type>  (91) 
oracle

>  <origin>  (91) 
adg

>  <m_score__min__energy>  (91) 
-11.050000000000001

>  <m_primary>  (91) 
energy

$$$$
91:0
     RDKit          3D

 43 45  0  0  0  0  0  0  0  0999 V2000
   57.2300   34.5760   44.8690 C   0  0  0  0  0  0  0  0  0  0  0  0
   58.2770   33.8320   45.5580 N   0  0  0  0  0  0  0  0  0  0  0  0
   59.3920   34.4940   46.1700 C   0  0  0  0  0  0  0  0  0  0  0  0
   59.5660   35.7290   45.9780 O   0  0  0  0  0  0  0  0  0  0  0  0
   60.3400   33.7580   46.9680 N   0  0  0  0  0  0  0  0  0  0  0  0
   61.5660   33.2110   46.3730 C   0  0  0  0  0  0  0  0  0  0  0  0
   62.7780   33.7130   47.1450 C   0  0  0  0  0  0  0  0  0  0  0  0
   62.6040   33.5460   48.6340 C   0  0  0  0  0  0  0  0  0  0  0  0
   63.7450   33.5400   49.4520 C   0  0  0  0  0  0  0  0  0  0  0  0
   63.6200   33.5030   50.8420 C   0  0  0  0  0  0  0  0  0  0  0  0
   62.3560   33.5020   51.4310 C   0  0  0  0  0  0  0  0  0  0  0  0
   61.2110   33.5210   50.6320 C   0  0  0  0  0  0  0  0  0  0  0  0
   61.3170   33.5240   49.2290 C   0  0  0  0  0  0  0  0  0  0  0  0
   60.0530   33.4870   48.3890 C   0  0  2  0  0  0  0  0  0  0  0  0
   59.2870   32.1540   48.5460 C   0  0  0  0  0  0  0  0  0  0  0  0
   59.7100   31.1800   47.5930 O   0  0  0  0  0  0  0  0  0  0  0  0
   58.9680   30.8090   46.4660 C   0  0  0  0  0  0  0  0  0  0  0  0
   59.4850   29.8640   45.5810 C   0  0  0  0  0  0  0  0  0  0  0  0
   58.7320   29.4840   44.4720 C   0  0  0  0  0  0  0  0  0  0  0  0
   57.4770   30.0630   44.2700 C   0  0  0  0  0  0  0  0  0  0  0  0
   56.6430   29.6840   43.0870 C   0  0  0  0  0  0  0  0  0  0  0  0
   57.0250   30.9940   45.1520 N   0  0  0  0  0  0  0  0  0  0  0  0
   57.7470   31.3560   46.2140 N   0  0  0  0  0  0  0  0  0  0  0  0
   56.5670   35.0471   45.6096 H   0  0  0  0  0  0  0  0  0  0  0  0
   57.6867   35.3533   44.2387 H   0  0  0  0  0  0  0  0  0  0  0  0
   56.6462   33.8891   44.2387 H   0  0  0  0  0  0  0  0  0  0  0  0
   58.2300   32.7880   45.5520 H   0  0  0  0  0  0  0  0  0  0  0  0
   61.5346   32.1123   46.4155 H   0  0  0  0  0  0  0  0  0  0  0  0
   61.6401   33.5377   45.3253 H   0  0  0  0  0  0  0  0  0  0  0  0
   63.6641   33.1455   46.8245 H   0  0  0  0  0  0  0  0  0  0  0  0
   62.8970   34.7859   46.9335 H   0  0  0  0  0  0  0  0  0  0  0  0
   64.7449   33.5646   48.9943 H   0  0  0  0  0  0  0  0  0  0  0  0
   64.5201   33.4746   51.4737 H   0  0  0  0  0  0  0  0  0  0  0  0
   62.2608   33.4862   52.5268 H   0  0  0  0  0  0  0  0  0  0  0  0
   60.2173   33.5337   51.1036 H   0  0  0  0  0  0  0  0  0  0  0  0
   59.4017   34.2888   48.7671 H   0  0  0  0  0  0  0  0  0  0  0  0
   59.4625   31.7604   49.5581 H   0  0  0  0  0  0  0  0  0  0  0  0
   58.2186   32.3537   48.3770 H   0  0  0  0  0  0  0  0  0  0  0  0
   60.4773   29.4229   45.7565 H   0  0  0  0  0  0  0  0  0  0  0  0
   59.1211   28.7372   43.7642 H   0  0  0  0  0  0  0  0  0  0  0  0
   55.6921   29.2519   43.4321 H   0  0  0  0  0  0  0  0  0  0  0  0
   56.4403   30.5784   42.4796 H   0  0  0  0  0  0  0  0  0  0  0  0
   57.1835   28.9431   42.4796 H   0  0  0  0  0  0  0  0  0  0  0  0
  1  2  1  0
  2  3  1  0
  3  4  2  0
  3  5  1  0
  5  6  1  0
  6  7  1  0
  7  8  1  0
  8  9  2  0
  9 10  1  0
 10 11  2  0
 11 12  1  0
 12 13  2  0
 13 14  1  0
 14 15  1  0
 15 16  1  0
 16 17  1  0
 17 18  2  0
 18 19  1  0
 19 20  2  0
 20 21  1  0
 20 22  1  0
 22 23  2  0
 14  5  1  0
 23 17  1  0
 13  8  1  0
  1 24  1  0
  1 25  1  0
  1 26  1  0
  2 27  1  0
  6 28  1  0
  6 29  1  0
  7 30  1  0
  7 31  1  0
  9 32  1  0
 10 33  1  0
 11 34  1  0
 12 35  1  0
 14 36  1  1
 15 37  1  0
 15 38  1  0
 18 39  1  0
 19 40  1  0
 21 41  1  0
 21 42  1  0
 21 43  1  0
M  END
>  <UniqueID>  (92) 
88

>  <SMILES>  (92) 
CNC(=O)N1CCc2ccccc2[C@@H]1COc1ccc(C)nn1

>  <Energy>  (92) 
43.02437694245327

>  <Genealogy>  (92) 
CNC(=O)N1CCc2ccccc2[C@@H]1COc1ccc(C)nn1 (chirality)
CNC(=O)N1CCc2ccccc2[C@@H]1COc1ccc(C)nn1 (3D coordinates assigned)
CNC(=O)N1CCc2ccccc2[C@@H]1COc1ccc(C)nn1 (nonaromatic ring conformer: 43.02437694245327 kcal/mol)

>  <smiles>  (92) 
CNC(=O)N1CCc2ccccc2C1COc1ccc(C)nn1

>  <score_type>  (92) 
oracle

>  <origin>  (92) 
adg

>  <m_score__min__energy>  (92) 
-7.1900000000000004

>  <m_primary>  (92) 
energy

$$$$
92:0
     RDKit          3D

 49 51  0  0  0  0  0  0  0  0999 V2000
   56.5020   23.3150   43.0660 C   0  0  0  0  0  0  0  0  0  0  0  0
   57.1100   22.3440   44.0550 C   0  0  0  0  0  0  0  0  0  0  0  0
   58.0860   23.0600   44.9640 C   0  0  0  0  0  0  0  0  0  0  0  0
   57.3390   23.4110   46.2510 C   0  0  0  0  0  0  0  0  0  0  0  0
   56.8750   24.8210   46.2060 C   0  0  0  0  0  0  0  0  0  0  0  0
   55.5910   25.2020   46.0840 N   0  0  0  0  0  0  0  0  0  0  0  0
   55.5950   26.5210   46.0780 N   0  0  0  0  0  0  0  0  0  0  0  0
   56.8570   26.9630   46.1950 C   0  0  0  0  0  0  0  0  0  0  0  0
   57.1560   28.1820   46.2170 O   0  0  0  0  0  0  0  0  0  0  0  0
   57.6930   25.8850   46.2780 N   0  0  0  0  0  0  0  0  0  0  0  0
   59.1030   26.0130   46.4050 C   0  0  0  0  0  0  0  0  0  0  0  0
   59.6350   27.3710   46.4730 C   0  0  0  0  0  0  0  0  0  0  0  0
   60.1540   28.0860   45.4190 C   0  0  0  0  0  0  0  0  0  0  0  0
   60.6430   29.3710   45.5700 C   0  0  0  0  0  0  0  0  0  0  0  0
   60.6330   30.0020   46.7860 C   0  0  0  0  0  0  0  0  0  0  0  0
   61.0940   31.3570   47.0320 C   0  0  0  0  0  0  0  0  0  0  0  0
   62.4780   31.4880   47.2340 C   0  0  0  0  0  0  0  0  0  0  0  0
   63.0680   32.7140   47.4490 C   0  0  0  0  0  0  0  0  0  0  0  0
   62.2510   33.8140   47.4590 C   0  0  0  0  0  0  0  0  0  0  0  0
   60.8980   33.6850   47.2610 C   0  0  0  0  0  0  0  0  0  0  0  0
   60.2800   32.4490   47.0420 C   0  0  0  0  0  0  0  0  0  0  0  0
   58.5760   32.3800   46.8380 S   0  0  0  0  0  0  0  0  0  0  0  0
   57.9590   31.0820   45.9430 N   0  0  0  0  0  0  0  0  0  0  0  0
   57.9570   32.4360   48.2370 O   0  0  0  0  0  0  0  0  0  0  0  0
   58.1200   33.6750   46.1860 O   0  0  0  0  0  0  0  0  0  0  0  0
   60.1140   29.3020   47.8680 C   0  0  0  0  0  0  0  0  0  0  0  0
   59.6300   28.0190   47.7070 C   0  0  0  0  0  0  0  0  0  0  0  0
   55.9950   24.1246   43.6114 H   0  0  0  0  0  0  0  0  0  0  0  0
   57.2958   23.7397   42.4339 H   0  0  0  0  0  0  0  0  0  0  0  0
   55.7733   22.7864   42.4339 H   0  0  0  0  0  0  0  0  0  0  0  0
   56.3097   21.8967   44.6628 H   0  0  0  0  0  0  0  0  0  0  0  0
   57.6469   21.5596   43.5015 H   0  0  0  0  0  0  0  0  0  0  0  0
   58.9389   22.4036   45.1914 H   0  0  0  0  0  0  0  0  0  0  0  0
   58.4731   23.9685   44.4795 H   0  0  0  0  0  0  0  0  0  0  0  0
   56.4698   22.7457   46.3597 H   0  0  0  0  0  0  0  0  0  0  0  0
   58.0185   23.2837   47.1066 H   0  0  0  0  0  0  0  0  0  0  0  0
   54.7420   27.1000   45.9960 H   0  0  0  0  0  0  0  0  0  0  0  0
   59.4035   25.4909   47.3254 H   0  0  0  0  0  0  0  0  0  0  0  0
   59.5164   25.5868   45.4790 H   0  0  0  0  0  0  0  0  0  0  0  0
   60.1811   27.6204   44.4227 H   0  0  0  0  0  0  0  0  0  0  0  0
   61.0490   29.8981   44.6941 H   0  0  0  0  0  0  0  0  0  0  0  0
   63.1081   30.5865   47.2201 H   0  0  0  0  0  0  0  0  0  0  0  0
   64.1527   32.8064   47.6065 H   0  0  0  0  0  0  0  0  0  0  0  0
   62.6835   34.8113   47.6274 H   0  0  0  0  0  0  0  0  0  0  0  0
   60.2744   34.5910   47.2752 H   0  0  0  0  0  0  0  0  0  0  0  0
   57.8930   30.2550   46.5960 H   0  0  0  0  0  0  0  0  0  0  0  0
   58.6720   30.7900   45.2360 H   0  0  0  0  0  0  0  0  0  0  0  0
   60.0885   29.7739   48.8613 H   0  0  0  0  0  0  0  0  0  0  0  0
   59.2265   27.4899   48.5829 H   0  0  0  0  0  0  0  0  0  0  0  0
  1  2  1  0
  2  3  1  0
  3  4  1  0
  4  5  1  0
  5  6  2  0
  6  7  1  0
  7  8  1  0
  8  9  2  0
  8 10  1  0
 10 11  1  0
 11 12  1  0
 12 13  2  0
 13 14  1  0
 14 15  2  0
 15 16  1  0
 16 17  2  0
 17 18  1  0
 18 19  2  0
 19 20  1  0
 20 21  2  0
 21 22  1  0
 22 23  1  0
 22 24  2  0
 22 25  2  0
 15 26  1  0
 26 27  2  0
 10  5  1  0
 27 12  1  0
 21 16  1  0
  1 28  1  0
  1 29  1  0
  1 30  1  0
  2 31  1  0
  2 32  1  0
  3 33  1  0
  3 34  1  0
  4 35  1  0
  4 36  1  0
  7 37  1  0
 11 38  1  0
 11 39  1  0
 13 40  1  0
 14 41  1  0
 17 42  1  0
 18 43  1  0
 19 44  1  0
 20 45  1  0
 23 46  1  0
 23 47  1  0
 26 48  1  0
 27 49  1  0
M  END
>  <smiles>  (93) 
CCCCc1n[nH]c(=O)n1Cc1ccc(-c2ccccc2S(N)(=O)=O)cc1

>  <score_type>  (93) 
oracle

>  <origin>  (93) 
adg

>  <m_score__min__energy>  (93) 
-9.2899999999999991

>  <m_primary>  (93) 
energy

$$$$
93:0
     RDKit          3D

 42 44  0  0  0  0  0  0  0  0999 V2000
   59.7110   27.4730   45.3320 O   0  0  0  0  0  0  0  0  0  0  0  0
   58.5460   27.9550   45.2610 C   0  0  0  0  0  0  0  0  0  0  0  0
   57.4150   27.0800   45.1000 N   0  0  0  0  0  0  0  0  0  0  0  0
   57.4850   25.6480   45.2260 C   0  0  0  0  0  0  0  0  0  0  0  0
   58.6040   25.0700   45.2830 O   0  0  0  0  0  0  0  0  0  0  0  0
   56.2500   24.8320   45.2520 C   0  0  0  0  0  0  0  0  0  0  0  0
   56.3210   23.4640   44.9290 C   0  0  0  0  0  0  0  0  0  0  0  0
   55.1700   22.6720   44.9370 C   0  0  0  0  0  0  0  0  0  0  0  0
   53.9370   23.2320   45.2750 C   0  0  0  0  0  0  0  0  0  0  0  0
   53.8540   24.5830   45.6150 C   0  0  0  0  0  0  0  0  0  0  0  0
   55.0030   25.3840   45.6160 C   0  0  0  0  0  0  0  0  0  0  0  0
   54.8940   26.7140   46.0080 O   0  0  0  0  0  0  0  0  0  0  0  0
   58.3690   29.4260   45.3260 C   0  0  0  0  0  0  0  0  0  0  0  0
   58.2890   30.0930   46.5610 C   0  0  0  0  0  0  0  0  0  0  0  0
   58.1310   31.4810   46.6090 C   0  0  0  0  0  0  0  0  0  0  0  0
   58.0650   32.2290   45.4240 C   0  0  0  0  0  0  0  0  0  0  0  0
   57.8850   33.7230   45.4830 C   0  0  0  0  0  0  0  0  0  0  0  0
   59.1440   34.3810   45.6290 O   0  0  0  0  0  0  0  0  0  0  0  0
   60.0580   34.1630   46.6730 C   0  0  0  0  0  0  0  0  0  0  0  0
   61.3690   33.7990   46.3410 C   0  0  0  0  0  0  0  0  0  0  0  0
   62.3190   33.5750   47.3410 C   0  0  0  0  0  0  0  0  0  0  0  0
   61.9660   33.7140   48.6850 C   0  0  0  0  0  0  0  0  0  0  0  0
   60.6600   34.0740   49.0300 C   0  0  0  0  0  0  0  0  0  0  0  0
   59.7070   34.2970   48.0320 C   0  0  0  0  0  0  0  0  0  0  0  0
   58.1430   31.5670   44.1900 C   0  0  0  0  0  0  0  0  0  0  0  0
   58.3030   30.1800   44.1420 C   0  0  0  0  0  0  0  0  0  0  0  0
   56.5030   27.4980   44.8110 H   0  0  0  0  0  0  0  0  0  0  0  0
   57.2906   23.0147   44.6681 H   0  0  0  0  0  0  0  0  0  0  0  0
   55.2357   21.6053   44.6765 H   0  0  0  0  0  0  0  0  0  0  0  0
   53.0308   22.6085   45.2734 H   0  0  0  0  0  0  0  0  0  0  0  0
   52.8813   25.0210   45.8835 H   0  0  0  0  0  0  0  0  0  0  0  0
   58.3512   29.5181   47.4968 H   0  0  0  0  0  0  0  0  0  0  0  0
   58.0580   31.9897   47.5816 H   0  0  0  0  0  0  0  0  0  0  0  0
   57.4050   34.0652   44.5543 H   0  0  0  0  0  0  0  0  0  0  0  0
   57.2567   33.9680   46.3521 H   0  0  0  0  0  0  0  0  0  0  0  0
   61.6533   33.6885   45.2841 H   0  0  0  0  0  0  0  0  0  0  0  0
   63.3458   33.2889   47.0693 H   0  0  0  0  0  0  0  0  0  0  0  0
   62.7151   33.5403   49.4716 H   0  0  0  0  0  0  0  0  0  0  0  0
   60.3818   34.1820   50.0887 H   0  0  0  0  0  0  0  0  0  0  0  0
   58.6799   34.5779   48.3078 H   0  0  0  0  0  0  0  0  0  0  0  0
   58.0779   32.1429   43.2551 H   0  0  0  0  0  0  0  0  0  0  0  0
   58.3780   29.6735   43.1685 H   0  0  0  0  0  0  0  0  0  0  0  0
  1  2  2  0
  2  3  1  0
  3  4  1  0
  4  5  2  0
  4  6  1  0
  6  7  2  0
  7  8  1  0
  8  9  2  0
  9 10  1  0
 10 11  2  0
 11 12  1  0
  2 13  1  0
 13 14  2  0
 14 15  1  0
 15 16  2  0
 16 17  1  0
 17 18  1  0
 18 19  1  0
 19 20  2  0
 20 21  1  0
 21 22  2  0
 22 23  1  0
 23 24  2  0
 16 25  1  0
 25 26  2  0
 11  6  1  0
 26 13  1  0
 24 19  1  0
  3 27  1  0
  7 28  1  0
  8 29  1  0
  9 30  1  0
 10 31  1  0
 14 32  1  0
 15 33  1  0
 17 34  1  0
 17 35  1  0
 20 36  1  0
 21 37  1  0
 22 38  1  0
 23 39  1  0
 24 40  1  0
 25 41  1  0
 26 42  1  0
M  CHG  1  12  -1
M  END
>  <UniqueID>  (94) 
89

>  <SMILES>  (94) 
O=C(NC(=O)c1ccccc1[O-])c1ccc(COc2ccccc2)cc1

>  <Energy>  (94) 
52.275473715325155

>  <Genealogy>  (94) 
O=C(NC(=O)c1ccccc1[O-])c1ccc(COc2ccccc2)cc1 (protonated)
O=C(NC(=O)c1ccccc1[O-])c1ccc(COc2ccccc2)cc1 (3D coordinates assigned)
O=C(NC(=O)c1ccccc1[O-])c1ccc(COc2ccccc2)cc1 (optimized conformer: 52.275473715325155 kcal/mol)

>  <smiles>  (94) 
O=C(NC(=O)c1ccccc1O)c1ccc(COc2ccccc2)cc1

>  <score_type>  (94) 
oracle

>  <origin>  (94) 
adg

>  <m_score__min__energy>  (94) 
-12.19

>  <m_primary>  (94) 
energy

$$$$
94:0
     RDKit          3D

 41 42  0  0  0  0  0  0  0  0999 V2000
   63.3070   34.0170   49.5710 N   0  0  0  0  0  0  0  0  0  0  0  0
   63.2420   33.4910   48.3880 C   0  0  0  0  0  0  0  0  0  0  0  0
   64.4500   33.0670   47.7520 N   0  0  0  0  0  0  0  0  0  0  0  0
   61.9390   33.3360   47.6920 C   0  0  0  0  0  0  0  0  0  0  0  0
   60.9490   32.4910   48.2220 C   0  0  0  0  0  0  0  0  0  0  0  0
   59.7200   32.3420   47.5730 C   0  0  0  0  0  0  0  0  0  0  0  0
   59.4530   33.0480   46.3910 C   0  0  0  0  0  0  0  0  0  0  0  0
   58.1460   32.8560   45.6710 C   0  0  0  0  0  0  0  0  0  0  0  0
   57.7320   31.4540   45.7180 N   0  0  0  0  0  0  0  0  0  0  0  0
   58.2100   30.5040   44.7540 C   0  0  0  0  0  0  0  0  0  0  0  0
   58.8740   30.9070   43.7600 O   0  0  0  0  0  0  0  0  0  0  0  0
   57.9210   29.0550   44.8950 C   0  0  0  0  0  0  0  0  0  0  0  0
   57.4830   28.5440   46.1290 C   0  0  0  0  0  0  0  0  0  0  0  0
   57.2040   27.1810   46.2750 C   0  0  0  0  0  0  0  0  0  0  0  0
   57.3430   26.3090   45.1850 C   0  0  0  0  0  0  0  0  0  0  0  0
   57.0740   24.8390   45.3520 C   0  0  0  0  0  0  0  0  0  0  0  0
   55.4110   24.5690   45.9440 S   0  0  0  0  0  0  0  0  0  0  0  0
   54.5480   26.0660   45.9920 N   0  0  0  0  0  0  0  0  0  0  0  0
   55.4710   23.9900   47.3280 O   0  0  0  0  0  0  0  0  0  0  0  0
   54.6970   23.6070   45.0360 O   0  0  0  0  0  0  0  0  0  0  0  0
   57.7760   26.8160   43.9510 C   0  0  0  0  0  0  0  0  0  0  0  0
   58.0560   28.1770   43.8050 C   0  0  0  0  0  0  0  0  0  0  0  0
   60.4420   33.8830   45.8510 C   0  0  0  0  0  0  0  0  0  0  0  0
   61.6720   34.0310   46.4980 C   0  0  0  0  0  0  0  0  0  0  0  0
   64.1920   34.0660   50.1230 H   0  0  0  0  0  0  0  0  0  0  0  0
   65.3720   33.2120   48.2230 H   0  0  0  0  0  0  0  0  0  0  0  0
   64.4330   32.5600   46.8410 H   0  0  0  0  0  0  0  0  0  0  0  0
   61.1429   31.9422   49.1554 H   0  0  0  0  0  0  0  0  0  0  0  0
   58.9584   31.6676   47.9915 H   0  0  0  0  0  0  0  0  0  0  0  0
   57.3748   33.4767   46.1506 H   0  0  0  0  0  0  0  0  0  0  0  0
   58.2742   33.1522   44.6194 H   0  0  0  0  0  0  0  0  0  0  0  0
   57.0320   31.1520   46.4330 H   0  0  0  0  0  0  0  0  0  0  0  0
   57.3586   29.2213   46.9868 H   0  0  0  0  0  0  0  0  0  0  0  0
   56.8740   26.7911   47.2492 H   0  0  0  0  0  0  0  0  0  0  0  0
   57.1987   24.3359   44.3818 H   0  0  0  0  0  0  0  0  0  0  0  0
   57.7832   24.4294   46.0863 H   0  0  0  0  0  0  0  0  0  0  0  0
   54.9740   26.6910   45.2700 H   0  0  0  0  0  0  0  0  0  0  0  0
   57.8958   26.1381   43.0931 H   0  0  0  0  0  0  0  0  0  0  0  0
   58.3847   28.5648   42.8295 H   0  0  0  0  0  0  0  0  0  0  0  0
   60.2486   34.4244   44.9132 H   0  0  0  0  0  0  0  0  0  0  0  0
   62.4371   34.6958   46.0706 H   0  0  0  0  0  0  0  0  0  0  0  0
  1  2  2  3
  2  3  1  0
  2  4  1  0
  4  5  2  0
  5  6  1  0
  6  7  2  0
  7  8  1  0
  8  9  1  0
  9 10  1  0
 10 11  2  0
 10 12  1  0
 12 13  2  0
 13 14  1  0
 14 15  2  0
 15 16  1  0
 16 17  1  0
 17 18  1  0
 17 19  2  0
 17 20  2  0
 15 21  1  0
 21 22  2  0
  7 23  1  0
 23 24  2  0
 24  4  1  0
 22 12  1  0
  1 25  1  0
  3 26  1  0
  3 27  1  0
  5 28  1  0
  6 29  1  0
  8 30  1  0
  8 31  1  0
  9 32  1  0
 13 33  1  0
 14 34  1  0
 16 35  1  0
 16 36  1  0
 18 37  1  0
 21 38  1  0
 22 39  1  0
 23 40  1  0
 24 41  1  0
M  CHG  1  18  -1
M  END
>  <UniqueID>  (95) 
90

>  <SMILES>  (95) 
N=C(N)c1ccc(CNC(=O)c2ccc(CS([NH-])(=O)=O)cc2)cc1

>  <Energy>  (95) 
38.16050757313678

>  <Genealogy>  (95) 
N=C(N)c1ccc(CNC(=O)c2ccc(CS([NH-])(=O)=O)cc2)cc1 (protonated)
N=C(N)c1ccc(CNC(=O)c2ccc(CS([NH-])(=O)=O)cc2)cc1 (3D coordinates assigned)
N=C(N)c1ccc(CNC(=O)c2ccc(CS([NH-])(=O)=O)cc2)cc1 (optimized conformer: 38.16050757313678 kcal/mol)

>  <smiles>  (95) 
N=C(N)c1ccc(CNC(=O)c2ccc(CS(N)(=O)=O)cc2)cc1

>  <score_type>  (95) 
oracle

>  <origin>  (95) 
adg

>  <m_score__min__energy>  (95) 
-10.380000000000001

>  <m_primary>  (95) 
energy

$$$$
