0:0
     RDKit          3D

 28 29  0  0  0  0  0  0  0  0999 V2000
   58.6270   33.3450   46.7800 C   0  0  0  0  0  0  0  0  0  0  0  0
   58.1840   32.5050   45.6680 N   0  0  0  0  0  0  0  0  0  0  0  0
   57.6280   31.3210   45.9420 N   0  0  0  0  0  0  0  0  0  0  0  0
   57.1760   30.4840   44.9710 C   0  0  0  0  0  0  0  0  0  0  0  0
   56.5650   29.1840   45.3370 C   0  0  0  0  0  0  0  0  0  0  0  0
   55.4700   28.8430   44.8170 O   0  0  0  0  0  0  0  0  0  0  0  0
   57.2200   28.2660   46.2230 N   0  0  0  0  0  0  0  0  0  0  0  0
   57.3500   26.8490   46.0310 C   0  0  0  0  0  0  0  0  0  0  0  0
   58.6310   26.3080   45.8730 C   0  0  0  0  0  0  0  0  0  0  0  0
   58.8020   24.9330   45.6930 C   0  0  0  0  0  0  0  0  0  0  0  0
   57.6880   24.0890   45.6520 C   0  0  0  0  0  0  0  0  0  0  0  0
   57.9040   22.3610   45.4310 Cl  0  0  0  0  0  0  0  0  0  0  0  0
   56.4020   24.6230   45.7740 C   0  0  0  0  0  0  0  0  0  0  0  0
   56.2230   26.0040   45.9490 C   0  0  0  0  0  0  0  0  0  0  0  0
   54.9360   26.5330   46.0200 O   0  0  0  0  0  0  0  0  0  0  0  0
   57.3130   30.8680   43.6320 C   0  0  0  0  0  0  0  0  0  0  0  0
   57.8940   32.0970   43.3340 C   0  0  0  0  0  0  0  0  0  0  0  0
   58.3300   32.9190   44.3730 C   0  0  0  0  0  0  0  0  0  0  0  0
   58.8550   34.0350   44.1060 O   0  0  0  0  0  0  0  0  0  0  0  0
   58.3702   32.8580   47.7323 H   0  0  0  0  0  0  0  0  0  0  0  0
   59.7165   33.4854   46.7221 H   0  0  0  0  0  0  0  0  0  0  0  0
   58.1276   34.3234   46.7221 H   0  0  0  0  0  0  0  0  0  0  0  0
   59.5094   26.9699   45.8906 H   0  0  0  0  0  0  0  0  0  0  0  0
   59.8133   24.5144   45.5835 H   0  0  0  0  0  0  0  0  0  0  0  0
   55.5267   23.9581   45.7327 H   0  0  0  0  0  0  0  0  0  0  0  0
   54.7650   27.4750   46.3510 H   0  0  0  0  0  0  0  0  0  0  0  0
   56.9656   30.2063   42.8249 H   0  0  0  0  0  0  0  0  0  0  0  0
   58.0084   32.4174   42.2879 H   0  0  0  0  0  0  0  0  0  0  0  0
  1  2  1  0
  2  3  1  0
  3  4  2  0
  4  5  1  0
  5  6  2  0
  5  7  1  0
  7  8  1  0
  8  9  2  0
  9 10  1  0
 10 11  2  0
 11 12  1  0
 11 13  1  0
 13 14  2  0
 14 15  1  0
  4 16  1  0
 16 17  2  0
 17 18  1  0
 18 19  2  0
 18  2  1  0
 14  8  1  0
  1 20  1  0
  1 21  1  0
  1 22  1  0
  9 23  1  0
 10 24  1  0
 13 25  1  0
 15 26  1  0
 16 27  1  0
 17 28  1  0
M  CHG  1   7  -1
M  END
>  <UniqueID>  (1) 
1

>  <SMILES>  (1) 
Cn1nc(C(=O)[N-]c2ccc(Cl)cc2O)ccc1=O

>  <Energy>  (1) 
35.70973485878725

>  <Genealogy>  (1) 
Cn1nc(C(=O)[N-]c2ccc(Cl)cc2O)ccc1=O (protonated)
Cn1nc(C(=O)[N-]c2ccc(Cl)cc2O)ccc1=O (3D coordinates assigned)
Cn1nc(C(=O)[N-]c2ccc(Cl)cc2O)ccc1=O (optimized conformer: 35.70973485878725 kcal/mol)

>  <smiles>  (1) 
Cn1nc(C(=O)Nc2ccc(Cl)cc2O)ccc1=O

>  <score_type>  (1) 
oracle

>  <origin>  (1) 
adg

>  <m_score__min__energy>  (1) 
-10.199999999999999

>  <m_primary>  (1) 
energy

$$$$
1:0
     RDKit          3D

 40 43  0  0  0  0  0  0  0  0999 V2000
   57.4220   27.6430   42.4770 N   0  0  0  0  0  0  0  0  0  0  0  0
   57.8820   27.8370   43.8170 C   0  0  0  0  0  0  0  0  0  0  0  0
   58.4310   28.9790   44.1510 N   0  0  0  0  0  0  0  0  0  0  0  0
   59.0610   29.2580   45.4560 C   0  0  2  0  0  0  0  0  0  0  0  0
   59.2330   30.7730   45.6300 C   0  0  0  0  0  0  0  0  0  0  0  0
   58.4160   31.6620   44.9040 C   0  0  0  0  0  0  0  0  0  0  0  0
   58.5210   33.0410   45.0900 C   0  0  0  0  0  0  0  0  0  0  0  0
   59.4180   33.5590   46.0220 C   0  0  0  0  0  0  0  0  0  0  0  0
   60.2150   32.6990   46.7940 C   0  0  0  0  0  0  0  0  0  0  0  0
   61.1510   33.2500   47.8080 C   0  0  0  0  0  0  0  0  0  0  0  0
   62.5300   33.3330   47.5380 C   0  0  0  0  0  0  0  0  0  0  0  0
   63.4090   33.8520   48.4940 C   0  0  0  0  0  0  0  0  0  0  0  0
   62.9230   34.2940   49.7260 C   0  0  0  0  0  0  0  0  0  0  0  0
   63.7760   34.7970   50.6520 F   0  0  0  0  0  0  0  0  0  0  0  0
   61.5560   34.2160   50.0060 C   0  0  0  0  0  0  0  0  0  0  0  0
   60.6730   33.6970   49.0540 C   0  0  0  0  0  0  0  0  0  0  0  0
   60.1060   31.3090   46.6020 C   0  0  0  0  0  0  0  0  0  0  0  0
   60.4030   28.5000   45.5370 C   0  0  0  0  0  0  0  0  0  0  0  0
   60.0720   27.1140   46.0840 C   0  0  0  0  0  0  0  0  0  0  0  0
   58.5790   27.1460   46.4020 C   0  0  1  0  0  0  0  0  0  0  0  0
   58.2460   28.6100   46.5740 C   0  0  0  0  0  0  0  0  0  0  0  0
   57.6080   26.4830   45.0000 S   0  0  0  0  0  0  0  0  0  0  0  0
   56.9670   26.7440   42.2040 H   0  0  0  0  0  0  0  0  0  0  0  0
   57.5350   28.3880   41.7530 H   0  0  0  0  0  0  0  0  0  0  0  0
   58.5170   29.7130   43.4110 H   0  0  0  0  0  0  0  0  0  0  0  0
   57.6871   31.2646   44.1824 H   0  0  0  0  0  0  0  0  0  0  0  0
   57.8925   33.7225   44.4979 H   0  0  0  0  0  0  0  0  0  0  0  0
   59.5021   34.6479   46.1536 H   0  0  0  0  0  0  0  0  0  0  0  0
   62.9188   32.9874   46.5688 H   0  0  0  0  0  0  0  0  0  0  0  0
   64.4853   33.9121   48.2749 H   0  0  0  0  0  0  0  0  0  0  0  0
   61.1739   34.5636   50.9772 H   0  0  0  0  0  0  0  0  0  0  0  0
   59.5982   33.6377   49.2804 H   0  0  0  0  0  0  0  0  0  0  0  0
   60.7110   30.6287   47.2194 H   0  0  0  0  0  0  0  0  0  0  0  0
   60.8565   28.4182   44.5382 H   0  0  0  0  0  0  0  0  0  0  0  0
   61.1238   29.0253   46.1808 H   0  0  0  0  0  0  0  0  0  0  0  0
   60.2880   26.3419   45.3308 H   0  0  0  0  0  0  0  0  0  0  0  0
   60.6732   26.8722   46.9729 H   0  0  0  0  0  0  0  0  0  0  0  0
   58.3448   26.5415   47.2907 H   0  0  0  0  0  0  0  0  0  0  0  0
   57.1695   28.7928   46.4407 H   0  0  0  0  0  0  0  0  0  0  0  0
   58.4788   29.0018   47.5751 H   0  0  0  0  0  0  0  0  0  0  0  0
  1  2  1  0
  2  3  2  0
  3  4  1  0
  4  5  1  1
  5  6  2  0
  6  7  1  0
  7  8  2  0
  8  9  1  0
  9 10  1  0
 10 11  2  0
 11 12  1  0
 12 13  2  0
 13 14  1  0
 13 15  1  0
 15 16  2  0
  9 17  2  0
  4 18  1  0
 18 19  1  0
 19 20  1  0
 20 21  1  0
 20 22  1  0
 22  2  1  0
 21  4  1  0
 17  5  1  0
 16 10  1  0
  1 23  1  0
  1 24  1  0
  3 25  1  0
  6 26  1  0
  7 27  1  0
  8 28  1  0
 11 29  1  0
 12 30  1  0
 15 31  1  0
 16 32  1  0
 17 33  1  0
 18 34  1  0
 18 35  1  0
 19 36  1  0
 19 37  1  0
 20 38  1  1
 21 39  1  0
 21 40  1  0
M  CHG  1   3   1
M  END
>  <UniqueID>  (2) 
2

>  <SMILES>  (2) 
NC1=[NH+][C@]2(c3cccc(-c4ccc(F)cc4)c3)CC[C@@H](C2)S1

>  <Energy>  (2) 
66.41025119315341

>  <Genealogy>  (2) 
NC1=[NH+]C2(c3cccc(-c4ccc(F)cc4)c3)CCC(C2)S1 (protonated)
NC1=[NH+][C@]2(c3cccc(-c4ccc(F)cc4)c3)CC[C@@H](C2)S1 (chirality)
NC1=[NH+][C@]2(c3cccc(-c4ccc(F)cc4)c3)CC[C@@H](C2)S1 (3D coordinates assigned)
NC1=[NH+][C@]2(c3cccc(-c4ccc(F)cc4)c3)CC[C@@H](C2)S1 (nonaromatic ring conformer: 66.41025119315341 kcal/mol)

>  <smiles>  (2) 
NC1=NC2(c3cccc(-c4ccc(F)cc4)c3)CCC(C2)S1

>  <score_type>  (2) 
oracle

>  <origin>  (2) 
adg

>  <m_score__min__energy>  (2) 
-6.7300000000000004

>  <m_primary>  (2) 
energy

$$$$
2:0
     RDKit          3D

 54 56  0  0  0  0  0  0  0  0999 V2000
   60.5970   33.4940   51.6880 C   0  0  0  0  0  0  0  0  0  0  0  0
   59.2490   34.2120   51.6050 C   0  0  0  0  0  0  0  0  0  0  0  0
   58.1060   33.4140   52.2560 C   0  0  0  0  0  0  0  0  0  0  0  0
   58.2960   31.8950   52.1690 C   0  0  0  0  0  0  0  0  0  0  0  0
   57.4420   31.3180   51.1070 N   0  0  0  0  0  0  0  0  0  0  0  0
   56.1190   30.8530   51.6050 C   0  0  0  0  0  0  0  0  0  0  0  0
   55.8260   31.1850   53.0800 C   0  0  0  0  0  0  0  0  0  0  0  0
   54.8250   30.2810   53.6350 N   0  0  0  0  0  0  0  0  0  0  0  0
   53.8060   29.6040   52.8970 C   0  0  0  0  0  0  0  0  0  0  0  0
   53.7190   28.3550   53.0030 O   0  0  0  0  0  0  0  0  0  0  0  0
   52.9020   30.3090   51.9640 C   0  0  0  0  0  0  0  0  0  0  0  0
   52.7470   29.8820   50.6340 C   0  0  0  0  0  0  0  0  0  0  0  0
   51.8790   30.5600   49.7720 C   0  0  0  0  0  0  0  0  0  0  0  0
   51.1740   31.6810   50.2240 C   0  0  0  0  0  0  0  0  0  0  0  0
   50.3100   32.3500   49.3650 O   0  0  0  0  0  0  0  0  0  0  0  0
   51.3420   32.1270   51.5410 C   0  0  0  0  0  0  0  0  0  0  0  0
   50.6490   33.2440   51.9960 O   0  0  0  0  0  0  0  0  0  0  0  0
   52.2080   31.4490   52.4050 C   0  0  0  0  0  0  0  0  0  0  0  0
   58.1750   30.3390   50.2640 C   0  0  0  0  0  0  0  0  0  0  0  0
   59.4390   30.9410   49.6700 C   0  0  0  0  0  0  0  0  0  0  0  0
   60.7000   30.4320   50.0540 C   0  0  0  0  0  0  0  0  0  0  0  0
   60.8120   29.4670   51.0500 O   0  0  0  0  0  0  0  0  0  0  0  0
   61.8660   30.8960   49.4490 C   0  0  0  0  0  0  0  0  0  0  0  0
   61.8140   31.8820   48.4710 C   0  0  0  0  0  0  0  0  0  0  0  0
   60.5880   32.4430   48.1010 C   0  0  0  0  0  0  0  0  0  0  0  0
   60.5520   33.4610   47.1370 C   0  0  0  0  0  0  0  0  0  0  0  0
   59.3390   34.0460   46.7810 C   0  0  0  0  0  0  0  0  0  0  0  0
   58.1570   33.6270   47.3870 C   0  0  0  0  0  0  0  0  0  0  0  0
   58.1760   32.6110   48.3440 C   0  0  0  0  0  0  0  0  0  0  0  0
   59.3870   31.9900   48.7100 C   0  0  0  0  0  0  0  0  0  0  0  0
   60.8705   33.3483   52.7435 H   0  0  0  0  0  0  0  0  0  0  0  0
   60.5228   32.5159   51.1901 H   0  0  0  0  0  0  0  0  0  0  0  0
   61.3672   34.1014   51.1901 H   0  0  0  0  0  0  0  0  0  0  0  0
   59.3357   35.1821   52.1163 H   0  0  0  0  0  0  0  0  0  0  0  0
   59.0034   34.3321   50.5395 H   0  0  0  0  0  0  0  0  0  0  0  0
   58.0435   33.6972   53.3171 H   0  0  0  0  0  0  0  0  0  0  0  0
   57.1856   33.6578   51.7052 H   0  0  0  0  0  0  0  0  0  0  0  0
   59.3500   31.6759   51.9429 H   0  0  0  0  0  0  0  0  0  0  0  0
   58.0100   31.4484   53.1327 H   0  0  0  0  0  0  0  0  0  0  0  0
   55.3381   31.3216   50.9880 H   0  0  0  0  0  0  0  0  0  0  0  0
   56.1318   29.7554   51.5334 H   0  0  0  0  0  0  0  0  0  0  0  0
   56.7556   31.0910   53.6605 H   0  0  0  0  0  0  0  0  0  0  0  0
   55.4366   32.2123   53.1352 H   0  0  0  0  0  0  0  0  0  0  0  0
   53.3108   29.0107   50.2694 H   0  0  0  0  0  0  0  0  0  0  0  0
   51.7503   30.2113   48.7367 H   0  0  0  0  0  0  0  0  0  0  0  0
   52.3467   31.8097   53.4349 H   0  0  0  0  0  0  0  0  0  0  0  0
   58.4501   29.4719   50.8825 H   0  0  0  0  0  0  0  0  0  0  0  0
   57.5162   30.0401   49.4354 H   0  0  0  0  0  0  0  0  0  0  0  0
   62.8382   30.4775   49.7486 H   0  0  0  0  0  0  0  0  0  0  0  0
   62.7409   32.2223   47.9862 H   0  0  0  0  0  0  0  0  0  0  0  0
   61.4843   33.7984   46.6607 H   0  0  0  0  0  0  0  0  0  0  0  0
   59.3146   34.8401   46.0201 H   0  0  0  0  0  0  0  0  0  0  0  0
   57.2031   34.0994   47.1099 H   0  0  0  0  0  0  0  0  0  0  0  0
   57.2358   32.2917   48.8175 H   0  0  0  0  0  0  0  0  0  0  0  0
  1  2  1  0
  2  3  1  0
  3  4  1  0
  4  5  1  0
  5  6  1  0
  6  7  1  0
  7  8  1  0
  8  9  1  0
  9 10  2  0
  9 11  1  0
 11 12  2  0
 12 13  1  0
 13 14  2  0
 14 15  1  0
 14 16  1  0
 16 17  1  0
 16 18  2  0
  5 19  1  0
 19 20  1  0
 20 21  2  0
 21 22  1  0
 21 23  1  0
 23 24  2  0
 24 25  1  0
 25 26  2  0
 26 27  1  0
 27 28  2  0
 28 29  1  0
 29 30  2  0
 18 11  1  0
 30 20  1  0
 30 25  1  0
  1 31  1  0
  1 32  1  0
  1 33  1  0
  2 34  1  0
  2 35  1  0
  3 36  1  0
  3 37  1  0
  4 38  1  0
  4 39  1  0
  6 40  1  0
  6 41  1  0
  7 42  1  0
  7 43  1  0
 12 44  1  0
 13 45  1  0
 18 46  1  0
 19 47  1  0
 19 48  1  0
 23 49  1  0
 24 50  1  0
 26 51  1  0
 27 52  1  0
 28 53  1  0
 29 54  1  0
M  CHG  4   8  -1  15  -1  17  -1  22  -1
M  END
>  <UniqueID>  (3) 
3

>  <SMILES>  (3) 
CCCCN(CC[N-]C(=O)c1ccc([O-])c([O-])c1)Cc1c([O-])ccc2ccccc12

>  <Energy>  (3) 
66.21607142673345

>  <Genealogy>  (3) 
CCCCN(CC[N-]C(=O)c1ccc([O-])c([O-])c1)Cc1c([O-])ccc2ccccc12 (protonated)
CCCCN(CC[N-]C(=O)c1ccc([O-])c([O-])c1)Cc1c([O-])ccc2ccccc12 (3D coordinates assigned)
CCCCN(CC[N-]C(=O)c1ccc([O-])c([O-])c1)Cc1c([O-])ccc2ccccc12 (optimized conformer: 66.21607142673345 kcal/mol)

>  <smiles>  (3) 
CCCCN(CCNC(=O)c1ccc(O)c(O)c1)Cc1c(O)ccc2ccccc12

>  <score_type>  (3) 
oracle

>  <origin>  (3) 
adg

>  <m_score__min__energy>  (3) 
-18.420000000000002

>  <m_primary>  (3) 
energy

$$$$
3:0
     RDKit          3D

 38 40  0  0  0  0  0  0  0  0999 V2000
   57.0120   21.0750   42.9900 C   0  0  0  0  0  0  0  0  0  0  0  0
   55.9690   21.9770   43.3470 O   0  0  0  0  0  0  0  0  0  0  0  0
   56.1670   23.1850   44.0320 C   0  0  0  0  0  0  0  0  0  0  0  0
   55.2940   23.6320   45.0420 C   0  0  0  0  0  0  0  0  0  0  0  0
   55.5350   24.8450   45.6950 C   0  0  0  0  0  0  0  0  0  0  0  0
   56.6400   25.6330   45.3430 C   0  0  0  0  0  0  0  0  0  0  0  0
   56.9210   26.9180   46.0740 C   0  0  0  0  0  0  0  0  0  0  0  0
   56.9130   28.0520   45.1480 N   0  0  0  0  0  0  0  0  0  0  0  0
   57.5040   29.3280   45.4560 C   0  0  0  0  0  0  0  0  0  0  0  0
   58.2920   29.5230   46.6180 C   0  0  0  0  0  0  0  0  0  0  0  0
   58.8550   30.7770   46.8930 C   0  0  0  0  0  0  0  0  0  0  0  0
   58.6260   31.8290   46.0040 C   0  0  0  0  0  0  0  0  0  0  0  0
   57.8660   31.6500   44.8790 C   0  0  0  0  0  0  0  0  0  0  0  0
   57.2940   30.4120   44.5810 C   0  0  0  0  0  0  0  0  0  0  0  0
   57.7530   32.8920   44.0810 C   0  0  0  0  0  0  0  0  0  0  0  0
   58.5730   33.9260   44.8760 C   0  0  0  0  0  0  0  0  0  0  0  0
   59.1320   33.2150   46.1240 C   0  0  0  0  0  0  0  0  0  0  0  0
   57.5180   25.1790   44.3470 C   0  0  0  0  0  0  0  0  0  0  0  0
   57.2770   23.9670   43.6940 C   0  0  0  0  0  0  0  0  0  0  0  0
   57.4771   20.6728   43.9021 H   0  0  0  0  0  0  0  0  0  0  0  0
   56.5947   20.2485   42.3961 H   0  0  0  0  0  0  0  0  0  0  0  0
   57.7697   21.6072   42.3961 H   0  0  0  0  0  0  0  0  0  0  0  0
   54.4193   23.0250   45.3185 H   0  0  0  0  0  0  0  0  0  0  0  0
   54.8535   25.1829   46.4896 H   0  0  0  0  0  0  0  0  0  0  0  0
   56.1486   27.0731   46.8417 H   0  0  0  0  0  0  0  0  0  0  0  0
   57.9146   26.8495   46.5410 H   0  0  0  0  0  0  0  0  0  0  0  0
   56.4570   27.9350   44.2120 H   0  0  0  0  0  0  0  0  0  0  0  0
   58.4630   28.6843   47.3089 H   0  0  0  0  0  0  0  0  0  0  0  0
   59.4670   30.9297   47.7942 H   0  0  0  0  0  0  0  0  0  0  0  0
   56.6861   30.2843   43.6732 H   0  0  0  0  0  0  0  0  0  0  0  0
   58.1746   32.7494   43.0751 H   0  0  0  0  0  0  0  0  0  0  0  0
   56.7089   33.2050   43.9331 H   0  0  0  0  0  0  0  0  0  0  0  0
   59.4002   34.3047   44.2577 H   0  0  0  0  0  0  0  0  0  0  0  0
   57.9425   34.7792   45.1666 H   0  0  0  0  0  0  0  0  0  0  0  0
   60.2319   33.2310   46.1232 H   0  0  0  0  0  0  0  0  0  0  0  0
   58.8213   33.6992   47.0616 H   0  0  0  0  0  0  0  0  0  0  0  0
   58.3998   25.7796   44.0790 H   0  0  0  0  0  0  0  0  0  0  0  0
   57.9659   23.6249   42.9076 H   0  0  0  0  0  0  0  0  0  0  0  0
  1  2  1  0
  2  3  1  0
  3  4  2  0
  4  5  1  0
  5  6  2  0
  6  7  1  0
  7  8  1  0
  8  9  1  0
  9 10  2  0
 10 11  1  0
 11 12  2  0
 12 13  1  0
 13 14  2  0
 13 15  1  0
 15 16  1  0
 16 17  1  0
  6 18  1  0
 18 19  2  0
 19  3  1  0
 14  9  1  0
 17 12  1  0
  1 20  1  0
  1 21  1  0
  1 22  1  0
  4 23  1  0
  5 24  1  0
  7 25  1  0
  7 26  1  0
  8 27  1  0
 10 28  1  0
 11 29  1  0
 14 30  1  0
 15 31  1  0
 15 32  1  0
 16 33  1  0
 16 34  1  0
 17 35  1  0
 17 36  1  0
 18 37  1  0
 19 38  1  0
M  END
>  <UniqueID>  (4) 
4

>  <SMILES>  (4) 
COc1ccc(CNc2ccc3c(c2)CCC3)cc1

>  <Energy>  (4) 
45.35167371581372

>  <Genealogy>  (4) 
COc1ccc(CNc2ccc3c(c2)CCC3)cc1 (3D coordinates assigned)
COc1ccc(CNc2ccc3c(c2)CCC3)cc1 (nonaromatic ring conformer: 45.35167371581372 kcal/mol)

>  <smiles>  (4) 
COc1ccc(CNc2ccc3c(c2)CCC3)cc1

>  <score_type>  (4) 
oracle

>  <origin>  (4) 
adg

>  <m_score__min__energy>  (4) 
-7.1600000000000001

>  <m_primary>  (4) 
energy

$$$$
4:0
     RDKit          3D

 79 83  0  0  0  0  0  0  0  0999 V2000
   58.3850   34.4130   46.0510 C   0  0  0  0  0  0  0  0  0  0  0  0
   58.6170   32.9330   45.8980 C   0  0  0  0  0  0  0  0  0  0  0  0
   57.7750   32.2050   45.0450 C   0  0  0  0  0  0  0  0  0  0  0  0
   57.9090   30.8120   44.8680 C   0  0  0  0  0  0  0  0  0  0  0  0
   58.8640   30.1150   45.6610 C   0  0  0  0  0  0  0  0  0  0  0  0
   59.7500   30.8650   46.4620 C   0  0  0  0  0  0  0  0  0  0  0  0
   59.6530   32.2580   46.5810 C   0  0  0  0  0  0  0  0  0  0  0  0
   60.6770   32.9680   47.4560 C   0  0  0  0  0  0  0  0  0  0  0  0
   62.0680   32.7280   46.9870 N   0  0  0  0  0  0  0  0  0  0  0  0
   62.6530   31.4980   47.5730 C   0  0  0  0  0  0  0  0  0  0  0  0
   62.9720   31.6540   49.0620 C   0  0  0  0  0  0  0  0  0  0  0  0
   63.7810   32.8520   49.2710 N   0  0  0  0  0  0  0  0  0  0  0  0
   64.7330   32.8720   50.3430 C   0  0  0  0  0  0  0  0  0  0  0  0
   66.0580   32.4740   50.1160 C   0  0  0  0  0  0  0  0  0  0  0  0
   66.9930   32.5230   51.1510 C   0  0  0  0  0  0  0  0  0  0  0  0
   66.6100   32.9700   52.4170 C   0  0  0  0  0  0  0  0  0  0  0  0
   65.2900   33.3680   52.6530 C   0  0  0  0  0  0  0  0  0  0  0  0
   64.3380   33.3200   51.6150 C   0  0  0  0  0  0  0  0  0  0  0  0
   62.9950   33.6870   51.8040 O   0  0  0  0  0  0  0  0  0  0  0  0
   62.0330   32.9420   52.5490 C   0  0  0  0  0  0  0  0  0  0  0  0
   60.9270   32.4730   51.6450 C   0  0  0  0  0  0  0  0  0  0  0  0
   60.7300   31.1040   51.3970 C   0  0  0  0  0  0  0  0  0  0  0  0
   59.6940   30.6830   50.5570 C   0  0  0  0  0  0  0  0  0  0  0  0
   58.8520   31.6220   49.9560 C   0  0  0  0  0  0  0  0  0  0  0  0
   59.0420   32.9860   50.1970 C   0  0  0  0  0  0  0  0  0  0  0  0
   60.0770   33.4120   51.0360 C   0  0  0  0  0  0  0  0  0  0  0  0
   63.3350   34.1100   48.6760 C   0  0  0  0  0  0  0  0  0  0  0  0
   62.9590   33.8950   47.2000 C   0  0  0  0  0  0  0  0  0  0  0  0
   59.0090   28.5860   45.6260 C   0  0  0  0  0  0  0  0  0  0  0  0
   59.0630   28.0100   47.0640 C   0  0  0  0  0  0  0  0  0  0  0  0
   60.3210   28.2170   44.8950 C   0  0  0  0  0  0  0  0  0  0  0  0
   57.8050   27.9160   44.9190 C   0  0  0  0  0  0  0  0  0  0  0  0
   57.4210   28.6340   43.6310 C   0  0  0  0  0  0  0  0  0  0  0  0
   56.9700   30.0920   43.8870 C   0  0  0  0  0  0  0  0  0  0  0  0
   56.9660   30.8090   42.5130 C   0  0  0  0  0  0  0  0  0  0  0  0
   55.5340   30.1090   44.4600 C   0  0  0  0  0  0  0  0  0  0  0  0
   58.3448   34.6693   47.1200 H   0  0  0  0  0  0  0  0  0  0  0  0
   59.2077   34.9645   45.5724 H   0  0  0  0  0  0  0  0  0  0  0  0
   57.4330   34.6863   45.5724 H   0  0  0  0  0  0  0  0  0  0  0  0
   56.9844   32.7375   44.4961 H   0  0  0  0  0  0  0  0  0  0  0  0
   60.5441   30.3387   47.0120 H   0  0  0  0  0  0  0  0  0  0  0  0
   60.4756   34.0492   47.4335 H   0  0  0  0  0  0  0  0  0  0  0  0
   60.5878   32.5695   48.4774 H   0  0  0  0  0  0  0  0  0  0  0  0
   62.0380   32.5580   45.9540 H   0  0  0  0  0  0  0  0  0  0  0  0
   61.9360   30.6729   47.4502 H   0  0  0  0  0  0  0  0  0  0  0  0
   63.5977   31.2935   47.0479 H   0  0  0  0  0  0  0  0  0  0  0  0
   62.0338   31.7432   49.6292 H   0  0  0  0  0  0  0  0  0  0  0  0
   63.5316   30.7725   49.4082 H   0  0  0  0  0  0  0  0  0  0  0  0
   66.3616   32.1220   49.1190 H   0  0  0  0  0  0  0  0  0  0  0  0
   68.0316   32.2095   50.9693 H   0  0  0  0  0  0  0  0  0  0  0  0
   67.3485   33.0093   53.2313 H   0  0  0  0  0  0  0  0  0  0  0  0
   64.9940   33.7197   53.6523 H   0  0  0  0  0  0  0  0  0  0  0  0
   62.5233   32.0698   53.0061 H   0  0  0  0  0  0  0  0  0  0  0  0
   61.6077   33.5866   53.3323 H   0  0  0  0  0  0  0  0  0  0  0  0
   61.3927   30.3611   51.8650 H   0  0  0  0  0  0  0  0  0  0  0  0
   59.5418   29.6099   50.3691 H   0  0  0  0  0  0  0  0  0  0  0  0
   58.0398   31.2883   49.2934 H   0  0  0  0  0  0  0  0  0  0  0  0
   58.3769   33.7250   49.7263 H   0  0  0  0  0  0  0  0  0  0  0  0
   60.2262   34.4862   51.2198 H   0  0  0  0  0  0  0  0  0  0  0  0
   62.4564   34.4802   49.2247 H   0  0  0  0  0  0  0  0  0  0  0  0
   64.1515   34.8447   48.7353 H   0  0  0  0  0  0  0  0  0  0  0  0
   62.4464   34.7972   46.8350 H   0  0  0  0  0  0  0  0  0  0  0  0
   63.8916   33.6983   46.6508 H   0  0  0  0  0  0  0  0  0  0  0  0
   58.9860   28.8317   47.7912 H   0  0  0  0  0  0  0  0  0  0  0  0
   58.2265   27.3109   47.2106 H   0  0  0  0  0  0  0  0  0  0  0  0
   60.0149   27.4786   47.2106 H   0  0  0  0  0  0  0  0  0  0  0  0
   61.1039   27.9968   45.6356 H   0  0  0  0  0  0  0  0  0  0  0  0
   60.1529   27.3313   44.2647 H   0  0  0  0  0  0  0  0  0  0  0  0
   60.6393   29.0605   44.2647 H   0  0  0  0  0  0  0  0  0  0  0  0
   58.0693   26.8755   44.6792 H   0  0  0  0  0  0  0  0  0  0  0  0
   56.9437   27.9634   45.6015 H   0  0  0  0  0  0  0  0  0  0  0  0
   58.2915   28.6453   42.9586 H   0  0  0  0  0  0  0  0  0  0  0  0
   56.5753   28.0927   43.1818 H   0  0  0  0  0  0  0  0  0  0  0  0
   56.9599   31.8980   42.6677 H   0  0  0  0  0  0  0  0  0  0  0  0
   57.8657   30.5239   41.9480 H   0  0  0  0  0  0  0  0  0  0  0  0
   56.0695   30.5139   41.9480 H   0  0  0  0  0  0  0  0  0  0  0  0
   55.5778   30.1085   45.5591 H   0  0  0  0  0  0  0  0  0  0  0  0
   55.0119   31.0134   44.1143 H   0  0  0  0  0  0  0  0  0  0  0  0
   54.9907   29.2172   44.1143 H   0  0  0  0  0  0  0  0  0  0  0  0
  1  2  1  0
  2  3  2  0
  3  4  1  0
  4  5  2  0
  5  6  1  0
  6  7  2  0
  7  8  1  0
  8  9  1  0
  9 10  1  0
 10 11  1  0
 11 12  1  0
 12 13  1  0
 13 14  2  0
 14 15  1  0
 15 16  2  0
 16 17  1  0
 17 18  2  0
 18 19  1  0
 19 20  1  0
 20 21  1  0
 21 22  2  0
 22 23  1  0
 23 24  2  0
 24 25  1  0
 25 26  2  0
 12 27  1  0
 27 28  1  0
  5 29  1  0
 29 30  1  0
 29 31  1  0
 29 32  1  0
 32 33  1  0
 33 34  1  0
 34 35  1  0
 34 36  1  0
  7  2  1  0
 28  9  1  0
 34  4  1  0
 18 13  1  0
 26 21  1  0
  1 37  1  0
  1 38  1  0
  1 39  1  0
  3 40  1  0
  6 41  1  0
  8 42  1  0
  8 43  1  0
  9 44  1  0
 10 45  1  0
 10 46  1  0
 11 47  1  0
 11 48  1  0
 14 49  1  0
 15 50  1  0
 16 51  1  0
 17 52  1  0
 20 53  1  0
 20 54  1  0
 22 55  1  0
 23 56  1  0
 24 57  1  0
 25 58  1  0
 26 59  1  0
 27 60  1  0
 27 61  1  0
 28 62  1  0
 28 63  1  0
 30 64  1  0
 30 65  1  0
 30 66  1  0
 31 67  1  0
 31 68  1  0
 31 69  1  0
 32 70  1  0
 32 71  1  0
 33 72  1  0
 33 73  1  0
 35 74  1  0
 35 75  1  0
 35 76  1  0
 36 77  1  0
 36 78  1  0
 36 79  1  0
M  CHG  1   9   1
M  END
>  <UniqueID>  (5) 
5

>  <SMILES>  (5) 
Cc1cc2c(cc1C[NH+]1CCN(c3ccccc3OCc3ccccc3)CC1)C(C)(C)CCC2(C)C

>  <Energy>  (5) 
95.43202975005278

>  <Genealogy>  (5) 
Cc1cc2c(cc1C[NH+]1CCN(c3ccccc3OCc3ccccc3)CC1)C(C)(C)CCC2(C)C (protonated)
Cc1cc2c(cc1C[NH+]1CCN(c3ccccc3OCc3ccccc3)CC1)C(C)(C)CCC2(C)C (3D coordinates assigned)
Cc1cc2c(cc1C[NH+]1CCN(c3ccccc3OCc3ccccc3)CC1)C(C)(C)CCC2(C)C (nonaromatic ring conformer: 95.43202975005278 kcal/mol)

>  <smiles>  (5) 
Cc1cc2c(cc1CN1CCN(c3ccccc3OCc3ccccc3)CC1)C(C)(C)CCC2(C)C

>  <score_type>  (5) 
oracle

>  <origin>  (5) 
adg

>  <m_score__min__energy>  (5) 
-8.4199999999999999

>  <m_primary>  (5) 
energy

$$$$
5:0
     RDKit          3D

 47 50  0  0  0  0  0  0  0  0999 V2000
   57.3850   20.9680   45.1480 C   0  0  0  0  0  0  0  0  0  0  0  0
   57.8590   22.3190   44.8380 N   0  0  0  0  0  0  0  0  0  0  0  0
   59.3000   22.5890   44.8720 C   0  0  0  0  0  0  0  0  0  0  0  0
   56.9780   23.2450   44.1740 C   0  0  0  0  0  0  0  0  0  0  0  0
   56.0570   22.8020   43.4370 O   0  0  0  0  0  0  0  0  0  0  0  0
   57.1380   24.7080   44.3230 C   0  0  0  0  0  0  0  0  0  0  0  0
   56.6920   25.3510   45.4900 C   0  0  0  0  0  0  0  0  0  0  0  0
   56.8370   26.7330   45.6350 C   0  0  0  0  0  0  0  0  0  0  0  0
   57.4380   27.4990   44.6200 C   0  0  0  0  0  0  0  0  0  0  0  0
   57.5700   28.9690   44.7660 C   0  0  0  0  0  0  0  0  0  0  0  0
   56.9750   29.8410   43.8130 C   0  0  0  0  0  0  0  0  0  0  0  0
   57.0740   31.2380   43.9550 C   0  0  0  0  0  0  0  0  0  0  0  0
   57.7770   31.7290   45.0490 C   0  0  0  0  0  0  0  0  0  0  0  0
   57.9850   33.0100   45.3840 N   0  0  0  0  0  0  0  0  0  0  0  0
   58.7190   32.9010   46.5210 C   0  0  0  0  0  0  0  0  0  0  0  0
   59.1480   34.0880   47.3220 C   0  0  0  0  0  0  0  0  0  0  0  0
   60.6310   34.0290   47.5700 C   0  0  0  0  0  0  0  0  0  0  0  0
   61.1360   34.1400   48.8760 C   0  0  0  0  0  0  0  0  0  0  0  0
   62.5120   34.0420   49.1090 C   0  0  0  0  0  0  0  0  0  0  0  0
   63.3890   33.8270   48.0450 C   0  0  0  0  0  0  0  0  0  0  0  0
   62.8930   33.7020   46.7440 C   0  0  0  0  0  0  0  0  0  0  0  0
   61.5180   33.7960   46.5070 C   0  0  0  0  0  0  0  0  0  0  0  0
   58.9630   31.6240   46.9170 N   0  0  0  0  0  0  0  0  0  0  0  0
   58.3570   30.9050   45.9610 C   0  0  0  0  0  0  0  0  0  0  0  0
   58.2770   29.5190   45.8620 C   0  0  0  0  0  0  0  0  0  0  0  0
   57.9060   26.8490   43.4650 C   0  0  0  0  0  0  0  0  0  0  0  0
   57.7640   25.4660   43.3220 C   0  0  0  0  0  0  0  0  0  0  0  0
   57.3390   20.8369   46.2392 H   0  0  0  0  0  0  0  0  0  0  0  0
   56.3825   20.8236   44.7188 H   0  0  0  0  0  0  0  0  0  0  0  0
   58.0775   20.2290   44.7188 H   0  0  0  0  0  0  0  0  0  0  0  0
   59.6367   22.6521   45.9173 H   0  0  0  0  0  0  0  0  0  0  0  0
   59.8375   21.7759   44.3621 H   0  0  0  0  0  0  0  0  0  0  0  0
   59.5067   23.5415   44.3621 H   0  0  0  0  0  0  0  0  0  0  0  0
   56.2259   24.7628   46.2942 H   0  0  0  0  0  0  0  0  0  0  0  0
   56.4782   27.2261   46.5505 H   0  0  0  0  0  0  0  0  0  0  0  0
   56.4312   29.4189   42.9550 H   0  0  0  0  0  0  0  0  0  0  0  0
   56.6107   31.9180   43.2250 H   0  0  0  0  0  0  0  0  0  0  0  0
   58.9069   35.0078   46.7689 H   0  0  0  0  0  0  0  0  0  0  0  0
   58.6189   34.0848   48.2864 H   0  0  0  0  0  0  0  0  0  0  0  0
   60.4476   34.3045   49.7180 H   0  0  0  0  0  0  0  0  0  0  0  0
   62.9034   34.1346   50.1328 H   0  0  0  0  0  0  0  0  0  0  0  0
   64.4710   33.7559   48.2301 H   0  0  0  0  0  0  0  0  0  0  0  0
   63.5847   33.5296   45.9062 H   0  0  0  0  0  0  0  0  0  0  0  0
   61.1298   33.6869   45.4836 H   0  0  0  0  0  0  0  0  0  0  0  0
   58.7496   28.8698   46.6138 H   0  0  0  0  0  0  0  0  0  0  0  0
   58.3878   27.4334   42.6673 H   0  0  0  0  0  0  0  0  0  0  0  0
   58.1457   24.9683   42.4183 H   0  0  0  0  0  0  0  0  0  0  0  0
  1  2  1  0
  2  3  1  0
  2  4  1  0
  4  5  2  0
  4  6  1  0
  6  7  2  0
  7  8  1  0
  8  9  2  0
  9 10  1  0
 10 11  2  0
 11 12  1  0
 12 13  2  0
 13 14  1  0
 14 15  1  0
 15 16  1  0
 16 17  1  0
 17 18  2  0
 18 19  1  0
 19 20  2  0
 20 21  1  0
 21 22  2  0
 15 23  2  0
 23 24  1  0
 24 25  2  0
  9 26  1  0
 26 27  2  0
 27  6  1  0
 25 10  1  0
 24 13  1  0
 22 17  1  0
  1 28  1  0
  1 29  1  0
  1 30  1  0
  3 31  1  0
  3 32  1  0
  3 33  1  0
  7 34  1  0
  8 35  1  0
 11 36  1  0
 12 37  1  0
 16 38  1  0
 16 39  1  0
 18 40  1  0
 19 41  1  0
 20 42  1  0
 21 43  1  0
 22 44  1  0
 25 45  1  0
 26 46  1  0
 27 47  1  0
M  CHG  1  14  -1
M  END
>  <UniqueID>  (6) 
6

>  <SMILES>  (6) 
CN(C)C(=O)c1ccc(-c2ccc3[n-]c(Cc4ccccc4)nc3c2)cc1

>  <Energy>  (6) 
92.58500513811933

>  <Genealogy>  (6) 
CN(C)C(=O)c1ccc(-c2ccc3[n-]c(Cc4ccccc4)nc3c2)cc1 (protonated)
CN(C)C(=O)c1ccc(-c2ccc3[n-]c(Cc4ccccc4)nc3c2)cc1 (3D coordinates assigned)
CN(C)C(=O)c1ccc(-c2ccc3[n-]c(Cc4ccccc4)nc3c2)cc1 (optimized conformer: 92.58500513811933 kcal/mol)

>  <smiles>  (6) 
CN(C)C(=O)c1ccc(-c2ccc3[nH]c(Cc4ccccc4)nc3c2)cc1

>  <score_type>  (6) 
oracle

>  <origin>  (6) 
adg

>  <m_score__min__energy>  (6) 
-9.6799999999999997

>  <m_primary>  (6) 
energy

$$$$
6:0
     RDKit          3D

 52 55  0  0  0  0  0  0  0  0999 V2000
   58.1690   32.4750   42.3120 O   0  0  0  0  0  0  0  0  0  0  0  0
   58.0610   32.2630   43.5510 C   0  0  0  0  0  0  0  0  0  0  0  0
   57.9170   30.8720   44.0430 C   0  0  0  0  0  0  0  0  0  0  0  0
   59.0370   30.1670   44.5140 C   0  0  0  0  0  0  0  0  0  0  0  0
   58.9050   28.8600   44.9880 C   0  0  0  0  0  0  0  0  0  0  0  0
   57.6470   28.2310   45.0090 C   0  0  0  0  0  0  0  0  0  0  0  0
   57.5070   26.8410   45.5130 C   0  0  0  0  0  0  0  0  0  0  0  0
   58.6200   25.9800   45.5590 C   0  0  0  0  0  0  0  0  0  0  0  0
   58.4840   24.6720   46.0330 C   0  0  0  0  0  0  0  0  0  0  0  0
   57.2400   24.2080   46.4670 C   0  0  0  0  0  0  0  0  0  0  0  0
   56.1280   25.0520   46.4260 C   0  0  0  0  0  0  0  0  0  0  0  0
   56.2570   26.3610   45.9530 C   0  0  0  0  0  0  0  0  0  0  0  0
   56.5250   28.9410   44.5480 C   0  0  0  0  0  0  0  0  0  0  0  0
   56.6590   30.2500   44.0740 C   0  0  0  0  0  0  0  0  0  0  0  0
   58.1010   33.3780   44.4590 N   0  0  0  0  0  0  0  0  0  0  0  0
   56.9050   33.7180   45.2480 C   0  0  0  0  0  0  0  0  0  0  0  0
   57.1190   33.4980   46.7570 C   0  0  0  0  0  0  0  0  0  0  0  0
   58.4290   34.0740   47.3240 C   0  0  0  0  0  0  0  0  0  0  0  0
   59.6380   33.3310   46.8830 N   0  0  2  0  0  0  0  0  0  0  0  0
   60.6050   33.1610   47.9990 C   0  0  0  0  0  0  0  0  0  0  0  0
   59.9550   32.9230   49.3420 C   0  0  0  0  0  0  0  0  0  0  0  0
   59.1530   31.8040   49.6250 C   0  0  0  0  0  0  0  0  0  0  0  0
   58.6580   31.7880   50.9210 C   0  0  0  0  0  0  0  0  0  0  0  0
   59.2080   33.1670   51.7060 S   0  0  0  0  0  0  0  0  0  0  0  0
   60.0760   33.8010   50.4150 C   0  0  0  0  0  0  0  0  0  0  0  0
   60.2920   33.8390   45.6380 C   0  0  0  0  0  0  0  0  0  0  0  0
   59.3240   34.2020   44.4890 C   0  0  0  0  0  0  0  0  0  0  0  0
   60.0261   30.6483   44.5094 H   0  0  0  0  0  0  0  0  0  0  0  0
   59.7920   28.3180   45.3478 H   0  0  0  0  0  0  0  0  0  0  0  0
   59.6029   26.3389   45.2198 H   0  0  0  0  0  0  0  0  0  0  0  0
   59.3591   24.0062   46.0643 H   0  0  0  0  0  0  0  0  0  0  0  0
   57.1363   23.1787   46.8408 H   0  0  0  0  0  0  0  0  0  0  0  0
   55.1483   24.6858   46.7667 H   0  0  0  0  0  0  0  0  0  0  0  0
   55.3773   27.0207   45.9240 H   0  0  0  0  0  0  0  0  0  0  0  0
   55.5341   28.4636   44.5601 H   0  0  0  0  0  0  0  0  0  0  0  0
   55.7714   30.7965   43.7227 H   0  0  0  0  0  0  0  0  0  0  0  0
   56.6568   34.7758   45.0763 H   0  0  0  0  0  0  0  0  0  0  0  0
   56.0883   33.0563   44.9237 H   0  0  0  0  0  0  0  0  0  0  0  0
   56.2808   33.9686   47.2917 H   0  0  0  0  0  0  0  0  0  0  0  0
   57.1765   32.4091   46.9016 H   0  0  0  0  0  0  0  0  0  0  0  0
   58.5222   35.1193   46.9943 H   0  0  0  0  0  0  0  0  0  0  0  0
   58.3754   33.9876   48.4193 H   0  0  0  0  0  0  0  0  0  0  0  0
   59.3130   32.3580   46.6640 H   0  0  0  0  0  0  0  0  0  0  0  0
   61.2508   32.3006   47.7695 H   0  0  0  0  0  0  0  0  0  0  0  0
   61.1682   34.1025   48.0794 H   0  0  0  0  0  0  0  0  0  0  0  0
   58.9381   31.0156   48.8887 H   0  0  0  0  0  0  0  0  0  0  0  0
   58.0171   31.0081   51.3581 H   0  0  0  0  0  0  0  0  0  0  0  0
   60.6410   34.7448   50.4173 H   0  0  0  0  0  0  0  0  0  0  0  0
   60.8653   34.7410   45.8982 H   0  0  0  0  0  0  0  0  0  0  0  0
   60.9169   33.0152   45.2628 H   0  0  0  0  0  0  0  0  0  0  0  0
   59.0297   35.2557   44.6032 H   0  0  0  0  0  0  0  0  0  0  0  0
   59.8600   34.0147   43.5469 H   0  0  0  0  0  0  0  0  0  0  0  0
  1  2  2  0
  2  3  1  0
  3  4  2  0
  4  5  1  0
  5  6  2  0
  6  7  1  0
  7  8  2  0
  8  9  1  0
  9 10  2  0
 10 11  1  0
 11 12  2  0
  6 13  1  0
 13 14  2  0
  2 15  1  0
 15 16  1  0
 16 17  1  0
 17 18  1  0
 18 19  1  0
 19 20  1  0
 20 21  1  0
 21 22  1  0
 22 23  2  0
 23 24  1  0
 24 25  1  0
 19 26  1  0
 26 27  1  0
 14  3  1  0
 27 15  1  0
 12  7  1  0
 25 21  2  0
  4 28  1  0
  5 29  1  0
  8 30  1  0
  9 31  1  0
 10 32  1  0
 11 33  1  0
 12 34  1  0
 13 35  1  0
 14 36  1  0
 16 37  1  0
 16 38  1  0
 17 39  1  0
 17 40  1  0
 18 41  1  0
 18 42  1  0
 19 43  1  6
 20 44  1  0
 20 45  1  0
 22 46  1  0
 23 47  1  0
 25 48  1  0
 26 49  1  0
 26 50  1  0
 27 51  1  0
 27 52  1  0
M  CHG  1  19   1
M  END
>  <UniqueID>  (7) 
7

>  <SMILES>  (7) 
O=C(c1ccc(-c2ccccc2)cc1)N1CCC[N@H+](Cc2ccsc2)CC1

>  <Energy>  (7) 
105.14912943128884

>  <Genealogy>  (7) 
O=C(c1ccc(-c2ccccc2)cc1)N1CCC[NH+](Cc2ccsc2)CC1 (protonated)
O=C(c1ccc(-c2ccccc2)cc1)N1CCC[N@H+](Cc2ccsc2)CC1 (chirality)
O=C(c1ccc(-c2ccccc2)cc1)N1CCC[N@H+](Cc2ccsc2)CC1 (3D coordinates assigned)
O=C(c1ccc(-c2ccccc2)cc1)N1CCC[N@H+](Cc2ccsc2)CC1 (nonaromatic ring conformer: 105.14912943128884 kcal/mol)

>  <smiles>  (7) 
O=C(c1ccc(-c2ccccc2)cc1)N1CCCN(Cc2ccsc2)CC1

>  <score_type>  (7) 
oracle

>  <origin>  (7) 
adg

>  <m_score__min__energy>  (7) 
-4.6200000000000001

>  <m_primary>  (7) 
energy

$$$$
7:0
     RDKit          3D

 72 77  0  0  0  0  0  0  0  0999 V2000
   56.2750   23.0350   43.0060 C   0  0  0  0  0  0  0  0  0  0  0  0
   56.2480   21.6610   43.3230 O   0  0  0  0  0  0  0  0  0  0  0  0
   57.4380   21.2780   43.9900 C   0  0  0  0  0  0  0  0  0  0  0  0
   57.1190   20.9010   45.4330 C   0  0  0  0  0  0  0  0  0  0  0  0
   57.7670   21.8060   46.3230 O   0  0  0  0  0  0  0  0  0  0  0  0
   57.7480   23.2020   46.1850 C   0  0  0  0  0  0  0  0  0  0  0  0
   56.5790   23.8890   46.5310 C   0  0  0  0  0  0  0  0  0  0  0  0
   56.5140   25.2800   46.4240 C   0  0  0  0  0  0  0  0  0  0  0  0
   57.6290   26.0080   45.9820 C   0  0  0  0  0  0  0  0  0  0  0  0
   57.5820   27.4780   45.8670 C   0  0  0  0  0  0  0  0  0  0  0  0
   56.7880   28.1160   44.9740 N   0  0  0  0  0  0  0  0  0  0  0  0
   57.0890   29.4170   45.1510 C   0  0  0  0  0  0  0  0  0  0  0  0
   56.5510   30.4790   44.4300 C   0  0  0  0  0  0  0  0  0  0  0  0
   57.0290   31.7690   44.7080 C   0  0  0  0  0  0  0  0  0  0  0  0
   58.0310   31.9700   45.6860 C   0  0  0  0  0  0  0  0  0  0  0  0
   58.5370   33.2920   45.9520 N   0  0  0  0  0  0  0  0  0  0  0  0
   58.9190   34.1580   44.8260 C   0  0  0  0  0  0  0  0  0  0  0  0
   59.5830   35.4380   45.3280 C   0  0  0  0  0  0  0  0  0  0  0  0
   60.4110   35.1320   46.4290 O   0  0  0  0  0  0  0  0  0  0  0  0
   59.6070   34.8830   47.5680 C   0  0  0  0  0  0  0  0  0  0  0  0
   58.5100   33.8190   47.3270 C   0  0  0  0  0  0  0  0  0  0  0  0
   58.5250   30.8540   46.3900 C   0  0  0  0  0  0  0  0  0  0  0  0
   58.0280   29.6240   46.0890 N   0  0  0  0  0  0  0  0  0  0  0  0
   58.3600   28.4070   46.5590 C   0  0  0  0  0  0  0  0  0  0  0  0
   59.5130   28.1420   47.4910 C   0  0  0  0  0  0  0  0  0  0  0  0
   59.2400   28.7050   48.7730 O   0  0  0  0  0  0  0  0  0  0  0  0
   59.6840   29.9670   49.2010 C   0  0  0  0  0  0  0  0  0  0  0  0
   60.8380   30.5730   48.6770 C   0  0  0  0  0  0  0  0  0  0  0  0
   61.2170   31.8420   49.1200 C   0  0  0  0  0  0  0  0  0  0  0  0
   60.4730   32.4980   50.0520 N   0  0  0  0  0  0  0  0  0  0  0  0
   59.3520   31.9350   50.5860 C   0  0  0  0  0  0  0  0  0  0  0  0
   58.5830   32.6150   51.5380 C   0  0  0  0  0  0  0  0  0  0  0  0
   57.4310   32.0200   52.0570 C   0  0  0  0  0  0  0  0  0  0  0  0
   57.0540   30.7470   51.6200 C   0  0  0  0  0  0  0  0  0  0  0  0
   55.8960   30.1580   52.1370 O   0  0  0  0  0  0  0  0  0  0  0  0
   55.7870   29.7420   53.4920 C   0  0  0  0  0  0  0  0  0  0  0  0
   57.8150   30.0970   50.6940 N   0  0  0  0  0  0  0  0  0  0  0  0
   58.9430   30.6490   50.1730 C   0  0  0  0  0  0  0  0  0  0  0  0
   58.7930   25.3200   45.6070 C   0  0  0  0  0  0  0  0  0  0  0  0
   58.8560   23.9280   45.7130 C   0  0  0  0  0  0  0  0  0  0  0  0
   56.2866   23.6253   43.9341 H   0  0  0  0  0  0  0  0  0  0  0  0
   57.1777   23.2580   42.4183 H   0  0  0  0  0  0  0  0  0  0  0  0
   55.3818   23.2933   42.4183 H   0  0  0  0  0  0  0  0  0  0  0  0
   57.8834   20.4135   43.4760 H   0  0  0  0  0  0  0  0  0  0  0  0
   58.1476   22.1184   43.9811 H   0  0  0  0  0  0  0  0  0  0  0  0
   56.0315   20.9491   45.5911 H   0  0  0  0  0  0  0  0  0  0  0  0
   57.4773   19.8796   45.6292 H   0  0  0  0  0  0  0  0  0  0  0  0
   55.7035   23.3284   46.8905 H   0  0  0  0  0  0  0  0  0  0  0  0
   55.5850   25.8069   46.6873 H   0  0  0  0  0  0  0  0  0  0  0  0
   55.7763   30.3127   43.6670 H   0  0  0  0  0  0  0  0  0  0  0  0
   56.6208   32.6313   44.1605 H   0  0  0  0  0  0  0  0  0  0  0  0
   59.6235   33.6166   44.1774 H   0  0  0  0  0  0  0  0  0  0  0  0
   58.0121   34.4277   44.2649 H   0  0  0  0  0  0  0  0  0  0  0  0
   60.1898   35.8776   44.5227 H   0  0  0  0  0  0  0  0  0  0  0  0
   58.8105   36.1579   45.6362 H   0  0  0  0  0  0  0  0  0  0  0  0
   60.2572   34.5344   48.3839 H   0  0  0  0  0  0  0  0  0  0  0  0
   59.0959   35.8249   47.8161 H   0  0  0  0  0  0  0  0  0  0  0  0
   58.6646   32.9860   48.0285 H   0  0  0  0  0  0  0  0  0  0  0  0
   57.5334   34.3000   47.4846 H   0  0  0  0  0  0  0  0  0  0  0  0
   59.2955   30.9746   47.1658 H   0  0  0  0  0  0  0  0  0  0  0  0
   59.6578   27.0563   47.5927 H   0  0  0  0  0  0  0  0  0  0  0  0
   60.4240   28.6016   47.0801 H   0  0  0  0  0  0  0  0  0  0  0  0
   61.4410   30.0497   47.9203 H   0  0  0  0  0  0  0  0  0  0  0  0
   62.1230   32.3146   48.7129 H   0  0  0  0  0  0  0  0  0  0  0  0
   60.7770   33.4510   50.3530 H   0  0  0  0  0  0  0  0  0  0  0  0
   58.8858   33.6168   51.8768 H   0  0  0  0  0  0  0  0  0  0  0  0
   56.8238   32.5502   52.8055 H   0  0  0  0  0  0  0  0  0  0  0  0
   56.0094   30.5909   54.1552 H   0  0  0  0  0  0  0  0  0  0  0  0
   54.7648   29.3842   53.6846 H   0  0  0  0  0  0  0  0  0  0  0  0
   56.5024   28.9289   53.6846 H   0  0  0  0  0  0  0  0  0  0  0  0
   59.6607   25.8795   45.2275 H   0  0  0  0  0  0  0  0  0  0  0  0
   59.7762   23.3980   45.4260 H   0  0  0  0  0  0  0  0  0  0  0  0
  1  2  1  0
  2  3  1  0
  3  4  1  0
  4  5  1  0
  5  6  1  0
  6  7  2  0
  7  8  1  0
  8  9  2  0
  9 10  1  0
 10 11  1  0
 11 12  2  0
 12 13  1  0
 13 14  2  0
 14 15  1  0
 15 16  1  0
 16 17  1  0
 17 18  1  0
 18 19  1  0
 19 20  1  0
 20 21  1  0
 15 22  2  0
 22 23  1  0
 23 24  1  0
 24 25  1  0
 25 26  1  0
 26 27  1  0
 27 28  2  0
 28 29  1  0
 29 30  2  0
 30 31  1  0
 31 32  2  0
 32 33  1  0
 33 34  2  0
 34 35  1  0
 35 36  1  0
 34 37  1  0
 37 38  2  0
  9 39  1  0
 39 40  2  0
 40  6  1  0
 24 10  2  0
 38 27  1  0
 23 12  1  0
 38 31  1  0
 21 16  1  0
  1 41  1  0
  1 42  1  0
  1 43  1  0
  3 44  1  0
  3 45  1  0
  4 46  1  0
  4 47  1  0
  7 48  1  0
  8 49  1  0
 13 50  1  0
 14 51  1  0
 17 52  1  0
 17 53  1  0
 18 54  1  0
 18 55  1  0
 20 56  1  0
 20 57  1  0
 21 58  1  0
 21 59  1  0
 22 60  1  0
 25 61  1  0
 25 62  1  0
 28 63  1  0
 29 64  1  0
 30 65  1  0
 32 66  1  0
 33 67  1  0
 36 68  1  0
 36 69  1  0
 36 70  1  0
 39 71  1  0
 40 72  1  0
M  CHG  1  30   1
M  END
>  <UniqueID>  (8) 
8

>  <SMILES>  (8) 
COCCOc1ccc(-c2nc3ccc(N4CCOCC4)cn3c2COc2cc[nH+]c3ccc(OC)nc23)cc1

>  <Energy>  (8) 
126.2855290689623

>  <Genealogy>  (8) 
COCCOc1ccc(-c2nc3ccc(N4CCOCC4)cn3c2COc2cc[nH+]c3ccc(OC)nc23)cc1 (protonated)
COCCOc1ccc(-c2nc3ccc(N4CCOCC4)cn3c2COc2cc[nH+]c3ccc(OC)nc23)cc1 (3D coordinates assigned)
COCCOc1ccc(-c2nc3ccc(N4CCOCC4)cn3c2COc2cc[nH+]c3ccc(OC)nc23)cc1 (nonaromatic ring conformer: 126.2855290689623 kcal/mol)

>  <smiles>  (8) 
COCCOc1ccc(-c2nc3ccc(N4CCOCC4)cn3c2COc2ccnc3ccc(OC)nc23)cc1

>  <score_type>  (8) 
oracle

>  <origin>  (8) 
adg

>  <m_score__min__energy>  (8) 
-8.2400000000000002

>  <m_primary>  (8) 
energy

$$$$
8:0
     RDKit          3D

 30 31  0  0  0  0  0  0  0  0999 V2000
   54.4020   29.4120   45.4000 H   0  0  0  0  0  0  0  0  0  0  0  0
   55.1590   29.3290   44.6830 N   0  0  0  0  0  0  0  0  0  0  0  0
   56.3330   29.8510   44.8480 C   0  0  0  0  0  0  0  0  0  0  0  0
   57.2420   29.2140   45.6320 N   0  0  0  0  0  0  0  0  0  0  0  0
   58.4840   29.7200   45.8450 C   0  0  0  0  0  0  0  0  0  0  0  0
   59.1934   29.1796   46.4890 H   0  0  0  0  0  0  0  0  0  0  0  0
   58.8630   30.9240   45.2490 C   0  0  0  0  0  0  0  0  0  0  0  0
   59.8649   31.3401   45.4305 H   0  0  0  0  0  0  0  0  0  0  0  0
   57.9580   31.6000   44.4170 C   0  0  0  0  0  0  0  0  0  0  0  0
   58.3580   32.9020   43.7580 C   0  0  0  0  0  0  0  0  0  0  0  0
   59.4042   32.8181   43.4287 H   0  0  0  0  0  0  0  0  0  0  0  0
   57.6667   33.0641   42.9178 H   0  0  0  0  0  0  0  0  0  0  0  0
   58.2410   34.0770   44.6490 N   0  0  0  0  0  0  0  0  0  0  0  0
   57.0870   34.0790   45.5730 C   0  0  0  0  0  0  0  0  0  0  0  0
   56.7524   35.1179   45.7100 H   0  0  0  0  0  0  0  0  0  0  0  0
   56.3090   33.4465   45.1206 H   0  0  0  0  0  0  0  0  0  0  0  0
   57.4080   33.4820   46.9600 C   0  0  0  0  0  0  0  0  0  0  0  0
   56.7322   33.9377   47.6986 H   0  0  0  0  0  0  0  0  0  0  0  0
   57.2714   32.3935   46.8798 H   0  0  0  0  0  0  0  0  0  0  0  0
   58.8560   33.7190   47.4170 C   0  0  0  0  0  0  0  0  0  0  0  0
   58.8596   33.9293   48.4967 H   0  0  0  0  0  0  0  0  0  0  0  0
   59.4403   32.8149   47.1906 H   0  0  0  0  0  0  0  0  0  0  0  0
   59.4920   34.8940   46.6820 C   0  0  0  0  0  0  0  0  0  0  0  0
   58.9044   35.8043   46.8722 H   0  0  0  0  0  0  0  0  0  0  0  0
   60.5213   35.0332   47.0441 H   0  0  0  0  0  0  0  0  0  0  0  0
   59.5210   34.6130   45.1730 C   0  0  0  0  0  0  0  0  0  0  0  0
   59.7467   35.5527   44.6476 H   0  0  0  0  0  0  0  0  0  0  0  0
   60.2896   33.8452   45.0003 H   0  0  0  0  0  0  0  0  0  0  0  0
   56.6740   31.0650   44.2320 C   0  0  0  0  0  0  0  0  0  0  0  0
   55.9390   31.5941   43.6077 H   0  0  0  0  0  0  0  0  0  0  0  0
  1  2  1  0
  2  3  2  0
  3  4  1  0
  4  5  1  0
  5  6  1  0
  5  7  2  0
  7  8  1  0
  7  9  1  0
  9 10  1  0
 10 11  1  0
 10 12  1  0
 10 13  1  0
 13 14  1  0
 14 15  1  0
 14 16  1  0
 14 17  1  0
 17 18  1  0
 17 19  1  0
 17 20  1  0
 20 21  1  0
 20 22  1  0
 20 23  1  0
 23 24  1  0
 23 25  1  0
 23 26  1  0
 26 27  1  0
 26 28  1  0
  9 29  2  0
 29 30  1  0
 29  3  1  0
 26 13  1  0
M  CHG  1   4  -1
M  END
>  <UniqueID>  (9) 
9

>  <SMILES>  (9) 
[H]/N=c1\cc(CN2CCCCC2)cc[n-]1

>  <Energy>  (9) 
41.52510457300344

>  <Genealogy>  (9) 
N=c1cc(CN2CCCCC2)cc[n-]1 (protonated)
[H]/N=c1\cc(CN2CCCCC2)cc[n-]1 (cis-trans isomerization)
[H]/N=c1\cc(CN2CCCCC2)cc[n-]1 (3D coordinates assigned)
[H]/N=c1\cc(CN2CCCCC2)cc[n-]1 (nonaromatic ring conformer: 41.52510457300344 kcal/mol)

>  <smiles>  (9) 
N=c1cc(CN2CCCCC2)cc[nH]1

>  <score_type>  (9) 
oracle

>  <origin>  (9) 
adg

>  <m_score__min__energy>  (9) 
-8.5800000000000001

>  <m_primary>  (9) 
energy

$$$$
9:0
     RDKit          3D

 42 45  0  0  0  0  0  0  0  0999 V2000
   56.3200   29.9190   43.5030 C   0  0  0  0  0  0  0  0  0  0  0  0
   57.0430   31.1320   43.9730 C   0  0  0  0  0  0  0  0  0  0  0  0
   57.8250   31.7760   43.0120 C   0  0  0  0  0  0  0  0  0  0  0  0
   58.5190   32.9060   43.3910 C   0  0  0  0  0  0  0  0  0  0  0  0
   58.4010   33.3360   44.6960 C   0  0  0  0  0  0  0  0  0  0  0  0
   57.6350   32.7080   45.6440 C   0  0  0  0  0  0  0  0  0  0  0  0
   56.9640   31.5920   45.2300 N   0  0  0  0  0  0  0  0  0  0  0  0
   57.4580   33.1100   47.0400 C   0  0  0  0  0  0  0  0  0  0  0  0
   58.4590   34.1320   47.5120 C   0  0  0  0  0  0  0  0  0  0  0  0
   59.5450   34.1600   46.5400 N   0  0  0  0  0  0  0  0  0  0  0  0
   60.8850   33.8100   46.8590 C   0  0  0  0  0  0  0  0  0  0  0  0
   61.6490   33.4770   45.9180 O   0  0  0  0  0  0  0  0  0  0  0  0
   61.3780   33.8340   48.2310 C   0  0  0  0  0  0  0  0  0  0  0  0
   61.2090   32.2380   49.0240 S   0  0  0  0  0  0  0  0  0  0  0  0
   60.4610   31.0330   47.9360 C   0  0  0  0  0  0  0  0  0  0  0  0
   59.4570   30.1850   48.1760 N   0  0  0  0  0  0  0  0  0  0  0  0
   59.1680   29.4310   47.0920 C   0  0  0  0  0  0  0  0  0  0  0  0
   58.2480   28.4410   46.8180 C   0  0  0  0  0  0  0  0  0  0  0  0
   58.1720   27.8250   45.5690 C   0  0  0  0  0  0  0  0  0  0  0  0
   59.0670   28.2460   44.5900 C   0  0  0  0  0  0  0  0  0  0  0  0
   59.9970   29.2440   44.8640 C   0  0  0  0  0  0  0  0  0  0  0  0
   60.0520   29.8390   46.1120 C   0  0  0  0  0  0  0  0  0  0  0  0
   60.8230   30.8100   46.6520 N   0  0  0  0  0  0  0  0  0  0  0  0
   59.1420   34.5650   45.1840 C   0  0  0  0  0  0  0  0  0  0  0  0
   55.9742   29.3388   44.3712 H   0  0  0  0  0  0  0  0  0  0  0  0
   55.4542   30.2207   42.8952 H   0  0  0  0  0  0  0  0  0  0  0  0
   56.9972   29.3010   42.8952 H   0  0  0  0  0  0  0  0  0  0  0  0
   57.8858   31.3932   41.9826 H   0  0  0  0  0  0  0  0  0  0  0  0
   59.1495   33.4495   42.6719 H   0  0  0  0  0  0  0  0  0  0  0  0
   56.4496   33.5348   47.1530 H   0  0  0  0  0  0  0  0  0  0  0  0
   57.6077   32.2092   47.6533 H   0  0  0  0  0  0  0  0  0  0  0  0
   57.9844   35.1224   47.5740 H   0  0  0  0  0  0  0  0  0  0  0  0
   58.8386   33.8712   48.5110 H   0  0  0  0  0  0  0  0  0  0  0  0
   62.4409   34.1171   48.2228 H   0  0  0  0  0  0  0  0  0  0  0  0
   60.7799   34.5631   48.7973 H   0  0  0  0  0  0  0  0  0  0  0  0
   57.5519   28.1271   47.6098 H   0  0  0  0  0  0  0  0  0  0  0  0
   57.4327   27.0363   45.3655 H   0  0  0  0  0  0  0  0  0  0  0  0
   59.0390   27.7859   43.5912 H   0  0  0  0  0  0  0  0  0  0  0  0
   60.6974   29.5640   44.0785 H   0  0  0  0  0  0  0  0  0  0  0  0
   61.5930   31.3210   46.1510 H   0  0  0  0  0  0  0  0  0  0  0  0
   58.4831   35.4455   45.2090 H   0  0  0  0  0  0  0  0  0  0  0  0
   59.9838   34.8604   44.5405 H   0  0  0  0  0  0  0  0  0  0  0  0
  1  2  1  0
  2  3  2  0
  3  4  1  0
  4  5  2  0
  5  6  1  0
  6  7  2  0
  6  8  1  0
  8  9  1  0
  9 10  1  0
 10 11  1  0
 11 12  2  0
 11 13  1  0
 13 14  1  0
 14 15  1  0
 15 16  2  0
 16 17  1  0
 17 18  2  0
 18 19  1  0
 19 20  2  0
 20 21  1  0
 21 22  2  0
 22 23  1  0
 10 24  1  0
  7  2  1  0
 23 15  1  0
 24  5  1  0
 22 17  1  0
  1 25  1  0
  1 26  1  0
  1 27  1  0
  3 28  1  0
  4 29  1  0
  8 30  1  0
  8 31  1  0
  9 32  1  0
  9 33  1  0
 13 34  1  0
 13 35  1  0
 18 36  1  0
 19 37  1  0
 20 38  1  0
 21 39  1  0
 23 40  1  0
 24 41  1  0
 24 42  1  0
M  END
>  <smiles>  (10) 
Cc1ccc2c(n1)CCN(C(=O)CSc1nc3ccccc3[nH]1)C2

>  <score_type>  (10) 
oracle

>  <origin>  (10) 
adg

>  <m_score__min__energy>  (10) 
-8.0500000000000007

>  <m_primary>  (10) 
energy

$$$$
10:0
     RDKit          3D

 40 43  0  0  0  0  0  0  0  0999 V2000
   54.3670   25.3840   46.3750 H   0  0  0  0  0  0  0  0  0  0  0  0
   55.3200   25.2300   45.9740 N   0  0  0  0  0  0  0  0  0  0  0  0
   56.2280   26.1490   46.0140 C   0  0  0  0  0  0  0  0  0  0  0  0
   55.9330   27.4230   45.6170 N   0  0  0  0  0  0  0  0  0  0  0  0
   56.9090   28.3600   45.6750 C   0  0  0  0  0  0  0  0  0  0  0  0
   58.1740   28.0790   46.1080 C   0  0  0  0  0  0  0  0  0  0  0  0
   58.4760   26.7780   46.5110 C   0  0  0  0  0  0  0  0  0  0  0  0
   59.8440   26.4070   46.9900 C   0  0  0  0  0  0  0  0  0  0  0  0
   59.8588   26.4030   48.0899 H   0  0  0  0  0  0  0  0  0  0  0  0
   60.1044   25.4058   46.6161 H   0  0  0  0  0  0  0  0  0  0  0  0
   60.5746   27.1395   46.6161 H   0  0  0  0  0  0  0  0  0  0  0  0
   57.4860   25.8390   46.4540 N   0  0  0  0  0  0  0  0  0  0  0  0
   59.0450   29.3030   46.0390 C   0  0  0  0  0  0  0  0  0  0  0  0
   59.4368   29.5633   47.0333 H   0  0  0  0  0  0  0  0  0  0  0  0
   59.9275   29.1653   45.3970 H   0  0  0  0  0  0  0  0  0  0  0  0
   58.1320   30.3470   45.5430 N   0  0  0  0  0  0  0  0  0  0  0  0
   58.4710   31.7420   45.4040 C   0  0  0  0  0  0  0  0  0  0  0  0
   58.0270   32.4860   44.2960 C   0  0  0  0  0  0  0  0  0  0  0  0
   57.4248   31.9979   43.5155 H   0  0  0  0  0  0  0  0  0  0  0  0
   58.3460   33.8400   44.1810 C   0  0  0  0  0  0  0  0  0  0  0  0
   57.9947   34.4136   43.3106 H   0  0  0  0  0  0  0  0  0  0  0  0
   59.1090   34.4690   45.1660 C   0  0  0  0  0  0  0  0  0  0  0  0
   59.3522   35.5377   45.0729 H   0  0  0  0  0  0  0  0  0  0  0  0
   59.5670   33.7400   46.2760 C   0  0  0  0  0  0  0  0  0  0  0  0
   60.3180   34.3400   47.2980 O   0  0  0  0  0  0  0  0  0  0  0  0
   61.5880   33.9260   47.7240 C   0  0  0  0  0  0  0  0  0  0  0  0
   61.8250   33.7830   49.0970 C   0  0  0  0  0  0  0  0  0  0  0  0
   61.0231   34.0063   49.8160 H   0  0  0  0  0  0  0  0  0  0  0  0
   63.0750   33.3580   49.5600 C   0  0  0  0  0  0  0  0  0  0  0  0
   63.2566   33.2586   50.6404 H   0  0  0  0  0  0  0  0  0  0  0  0
   64.0920   33.0600   48.6510 C   0  0  0  0  0  0  0  0  0  0  0  0
   65.0760   32.7305   49.0159 H   0  0  0  0  0  0  0  0  0  0  0  0
   63.8610   33.1800   47.2780 C   0  0  0  0  0  0  0  0  0  0  0  0
   64.6615   32.9394   46.5629 H   0  0  0  0  0  0  0  0  0  0  0  0
   62.6120   33.6060   46.8120 C   0  0  0  0  0  0  0  0  0  0  0  0
   62.4298   33.6911   45.7305 H   0  0  0  0  0  0  0  0  0  0  0  0
   59.2280   32.3880   46.3980 C   0  0  0  0  0  0  0  0  0  0  0  0
   59.5577   31.8232   47.2825 H   0  0  0  0  0  0  0  0  0  0  0  0
   56.8540   29.7470   45.3090 C   0  0  0  0  0  0  0  0  0  0  0  0
   55.8630   30.3310   44.7970 O   0  0  0  0  0  0  0  0  0  0  0  0
  1  2  1  0
  2  3  2  0
  3  4  1  0
  4  5  2  0
  5  6  1  0
  6  7  2  0
  7  8  1  0
  8  9  1  0
  8 10  1  0
  8 11  1  0
  7 12  1  0
  6 13  1  0
 13 14  1  0
 13 15  1  0
 13 16  1  0
 16 17  1  0
 17 18  2  0
 18 19  1  0
 18 20  1  0
 20 21  1  0
 20 22  2  0
 22 23  1  0
 22 24  1  0
 24 25  1  0
 25 26  1  0
 26 27  2  0
 27 28  1  0
 27 29  1  0
 29 30  1  0
 29 31  2  0
 31 32  1  0
 31 33  1  0
 33 34  1  0
 33 35  2  0
 35 36  1  0
 24 37  2  0
 37 38  1  0
 16 39  1  0
 39 40  2  0
 12  3  1  0
 37 17  1  0
 39  5  1  0
 35 26  1  0
M  CHG  1  12  -1
M  END
>  <UniqueID>  (11) 
10

>  <SMILES>  (11) 
[H]/N=c1\nc2c(c(C)[n-]1)CN(c1cccc(Oc3ccccc3)c1)C2=O

>  <Energy>  (11) 
77.97000369814849

>  <Genealogy>  (11) 
Cc1[n-]c(=N)nc2c1CN(c1cccc(Oc3ccccc3)c1)C2=O (protonated)
[H]/N=c1\nc2c(c(C)[n-]1)CN(c1cccc(Oc3ccccc3)c1)C2=O (cis-trans isomerization)
[H]/N=c1\nc2c(c(C)[n-]1)CN(c1cccc(Oc3ccccc3)c1)C2=O (3D coordinates assigned)
[H]/N=c1\nc2c(c(C)[n-]1)CN(c1cccc(Oc3ccccc3)c1)C2=O (nonaromatic ring conformer: 77.97000369814849 kcal/mol)

>  <smiles>  (11) 
Cc1[nH]c(=N)nc2c1CN(c1cccc(Oc3ccccc3)c1)C2=O

>  <score_type>  (11) 
oracle

>  <origin>  (11) 
adg

>  <m_score__min__energy>  (11) 
-10.81

>  <m_primary>  (11) 
energy

$$$$
11:0
     RDKit          3D

 47 49  0  0  0  0  0  0  0  0999 V2000
   60.1300   30.5660   47.1100 C   0  0  0  0  0  0  0  0  0  0  0  0
   60.2220   30.2660   48.5760 C   0  0  0  0  0  0  0  0  0  0  0  0
   60.7170   29.0470   49.0660 C   0  0  0  0  0  0  0  0  0  0  0  0
   60.6780   28.9420   50.4500 C   0  0  0  0  0  0  0  0  0  0  0  0
   60.0130   30.3570   51.0660 S   0  0  0  0  0  0  0  0  0  0  0  0
   59.7700   31.1190   49.5860 C   0  0  0  0  0  0  0  0  0  0  0  0
   59.1990   32.5000   49.4210 C   0  0  0  0  0  0  0  0  0  0  0  0
   59.8480   33.2600   48.3390 N   0  0  0  0  0  0  0  0  0  0  0  0
   60.9690   34.1340   48.7110 C   0  0  0  0  0  0  0  0  0  0  0  0
   62.2220   33.7950   47.9440 C   0  0  0  0  0  0  0  0  0  0  0  0
   62.2970   33.9220   46.6080 N   0  0  0  0  0  0  0  0  0  0  0  0
   63.4880   33.4820   46.2500 N   0  0  0  0  0  0  0  0  0  0  0  0
   64.1410   33.0870   47.3310 N   0  0  0  0  0  0  0  0  0  0  0  0
   63.3910   33.2770   48.4110 N   0  0  0  0  0  0  0  0  0  0  0  0
   63.8050   32.8300   49.7640 C   0  0  0  0  0  0  0  0  0  0  0  0
   63.2220   31.4440   50.1130 C   0  0  0  0  0  0  0  0  0  0  0  0
   65.3400   32.7920   49.8420 C   0  0  0  0  0  0  0  0  0  0  0  0
   63.2910   33.8360   50.8210 C   0  0  0  0  0  0  0  0  0  0  0  0
   59.0860   33.6210   47.1720 C   0  0  0  0  0  0  0  0  0  0  0  0
   57.7920   33.1150   46.9790 C   0  0  0  0  0  0  0  0  0  0  0  0
   57.0860   33.4600   45.8260 C   0  0  0  0  0  0  0  0  0  0  0  0
   57.6750   34.2920   44.8740 C   0  0  0  0  0  0  0  0  0  0  0  0
   58.9680   34.7710   45.0930 C   0  0  0  0  0  0  0  0  0  0  0  0
   59.6410   34.4220   46.2220 N   0  0  0  0  0  0  0  0  0  0  0  0
   59.8102   31.6089   46.9685 H   0  0  0  0  0  0  0  0  0  0  0  0
   61.1148   30.4179   46.6429 H   0  0  0  0  0  0  0  0  0  0  0  0
   59.3975   29.8913   46.6429 H   0  0  0  0  0  0  0  0  0  0  0  0
   61.1004   28.2486   48.4136 H   0  0  0  0  0  0  0  0  0  0  0  0
   61.0230   28.0810   51.0413 H   0  0  0  0  0  0  0  0  0  0  0  0
   58.1262   32.4121   49.1943 H   0  0  0  0  0  0  0  0  0  0  0  0
   59.3740   33.0453   50.3601 H   0  0  0  0  0  0  0  0  0  0  0  0
   60.6928   35.1773   48.4984 H   0  0  0  0  0  0  0  0  0  0  0  0
   61.1742   33.9896   49.7820 H   0  0  0  0  0  0  0  0  0  0  0  0
   61.5650   34.2760   45.9530 H   0  0  0  0  0  0  0  0  0  0  0  0
   63.1744   31.3309   51.2061 H   0  0  0  0  0  0  0  0  0  0  0  0
   62.2102   31.3549   49.6908 H   0  0  0  0  0  0  0  0  0  0  0  0
   63.8659   30.6585   49.6908 H   0  0  0  0  0  0  0  0  0  0  0  0
   65.6535   32.7842   50.8964 H   0  0  0  0  0  0  0  0  0  0  0  0
   65.7102   31.8844   49.3427 H   0  0  0  0  0  0  0  0  0  0  0  0
   65.7546   33.6802   49.3427 H   0  0  0  0  0  0  0  0  0  0  0  0
   63.4916   33.4434   51.8288 H   0  0  0  0  0  0  0  0  0  0  0  0
   63.8078   34.7986   50.6929 H   0  0  0  0  0  0  0  0  0  0  0  0
   62.2082   33.9813   50.6929 H   0  0  0  0  0  0  0  0  0  0  0  0
   57.3378   32.4520   47.7301 H   0  0  0  0  0  0  0  0  0  0  0  0
   56.0671   33.0767   45.6682 H   0  0  0  0  0  0  0  0  0  0  0  0
   57.1270   34.5677   43.9609 H   0  0  0  0  0  0  0  0  0  0  0  0
   59.4426   35.4310   44.3520 H   0  0  0  0  0  0  0  0  0  0  0  0
  1  2  1  0
  2  3  1  0
  3  4  2  0
  4  5  1  0
  5  6  1  0
  6  7  1  0
  7  8  1  0
  8  9  1  0
  9 10  1  0
 10 11  2  0
 11 12  1  0
 12 13  2  0
 13 14  1  0
 14 15  1  0
 15 16  1  0
 15 17  1  0
 15 18  1  0
  8 19  1  0
 19 20  2  0
 20 21  1  0
 21 22  2  0
 22 23  1  0
 23 24  2  0
  6  2  2  0
 14 10  1  0
 24 19  1  0
  1 25  1  0
  1 26  1  0
  1 27  1  0
  3 28  1  0
  4 29  1  0
  7 30  1  0
  7 31  1  0
  9 32  1  0
  9 33  1  0
 11 34  1  0
 16 35  1  0
 16 36  1  0
 16 37  1  0
 17 38  1  0
 17 39  1  0
 17 40  1  0
 18 41  1  0
 18 42  1  0
 18 43  1  0
 20 44  1  0
 21 45  1  0
 22 46  1  0
 23 47  1  0
M  CHG  1  11   1
M  END
>  <UniqueID>  (12) 
11

>  <SMILES>  (12) 
Cc1ccsc1CN(Cc1[nH+]nnn1C(C)(C)C)c1ccccn1

>  <Energy>  (12) 
118.54232648909009

>  <Genealogy>  (12) 
Cc1ccsc1CN(Cc1[nH+]nnn1C(C)(C)C)c1ccccn1 (protonated)
Cc1ccsc1CN(Cc1[nH+]nnn1C(C)(C)C)c1ccccn1 (3D coordinates assigned)
Cc1ccsc1CN(Cc1[nH+]nnn1C(C)(C)C)c1ccccn1 (optimized conformer: 118.54232648909009 kcal/mol)

>  <smiles>  (12) 
Cc1ccsc1CN(Cc1nnnn1C(C)(C)C)c1ccccn1

>  <score_type>  (12) 
oracle

>  <origin>  (12) 
adg

>  <m_score__min__energy>  (12) 
-6.4199999999999999

>  <m_primary>  (12) 
energy

$$$$
12:0
     RDKit          3D

 47 50  0  0  1  0  0  0  0  0999 V2000
   60.3810   29.4510   48.3760 C   0  0  0  0  0  0  0  0  0  0  0  0
   59.5380   28.7390   47.4120 N   0  0  0  0  0  0  0  0  0  0  0  0
   59.8490   27.4500   47.1940 C   0  0  0  0  0  0  0  0  0  0  0  0
   60.8050   26.8610   47.7690 O   0  0  0  0  0  0  0  0  0  0  0  0
   59.0620   26.7680   46.2880 C   0  0  0  0  0  0  0  0  0  0  0  0
   59.0950   25.4830   45.8410 N   0  0  0  0  0  0  0  0  0  0  0  0
   58.1110   25.3230   44.9660 C   0  0  0  0  0  0  0  0  0  0  0  0
   57.7610   24.0770   44.2170 C   0  0  2  0  0  0  0  0  0  0  0  0
   56.2440   24.0890   44.0730 C   0  0  0  0  0  0  0  0  0  0  0  0
   55.8270   22.7510   43.5060 C   0  0  1  0  0  0  0  0  0  0  0  0
   55.1970   22.9310   42.2780 O   0  0  0  0  0  0  0  0  0  0  0  0
   57.0110   21.8530   43.2550 C   0  0  2  0  0  0  0  0  0  0  0  0
   56.5170   20.5570   43.0120 O   0  0  0  0  0  0  0  0  0  0  0  0
   57.8360   21.7830   44.5090 C   0  0  0  0  0  0  0  0  0  0  0  0
   58.0810   23.0130   45.0640 O   0  0  0  0  0  0  0  0  0  0  0  0
   57.4610   26.4970   44.8590 N   0  0  0  0  0  0  0  0  0  0  0  0
   58.0220   27.4240   45.6650 C   0  0  0  0  0  0  0  0  0  0  0  0
   57.7190   28.7160   45.8920 N   0  0  0  0  0  0  0  0  0  0  0  0
   56.6420   29.4010   45.2470 C   0  0  0  0  0  0  0  0  0  0  0  0
   57.0320   30.4200   44.2700 C   0  0  0  0  0  0  0  0  0  0  0  0
   56.6680   30.3030   42.9300 C   0  0  0  0  0  0  0  0  0  0  0  0
   57.0270   31.2520   41.9970 C   0  0  0  0  0  0  0  0  0  0  0  0
   57.7650   32.3650   42.3420 C   0  0  0  0  0  0  0  0  0  0  0  0
   58.1350   32.4990   43.6640 C   0  0  0  0  0  0  0  0  0  0  0  0
   57.7710   31.5440   44.5900 C   0  0  0  0  0  0  0  0  0  0  0  0
   58.5140   29.3630   46.7920 C   0  0  0  0  0  0  0  0  0  0  0  0
   58.3370   30.5710   47.0930 O   0  0  0  0  0  0  0  0  0  0  0  0
   60.0707   29.1889   49.3983 H   0  0  0  0  0  0  0  0  0  0  0  0
   61.4321   29.1632   48.2267 H   0  0  0  0  0  0  0  0  0  0  0  0
   60.2731   30.5355   48.2267 H   0  0  0  0  0  0  0  0  0  0  0  0
   58.2716   24.0007   43.2457 H   0  0  0  0  0  0  0  0  0  0  0  0
   55.7753   24.2420   45.0563 H   0  0  0  0  0  0  0  0  0  0  0  0
   55.9259   24.9058   43.4084 H   0  0  0  0  0  0  0  0  0  0  0  0
   55.1572   22.2906   44.2472 H   0  0  0  0  0  0  0  0  0  0  0  0
   55.6150   22.3870   41.5700 H   0  0  0  0  0  0  0  0  0  0  0  0
   57.6086   22.2305   42.4122 H   0  0  0  0  0  0  0  0  0  0  0  0
   57.0630   19.9090   43.5150 H   0  0  0  0  0  0  0  0  0  0  0  0
   57.2999   21.1673   45.2462 H   0  0  0  0  0  0  0  0  0  0  0  0
   58.8088   21.3478   44.2364 H   0  0  0  0  0  0  0  0  0  0  0  0
   56.6390   26.6380   44.2320 H   0  0  0  0  0  0  0  0  0  0  0  0
   56.0280   28.6512   44.7265 H   0  0  0  0  0  0  0  0  0  0  0  0
   56.1083   29.9388   46.0444 H   0  0  0  0  0  0  0  0  0  0  0  0
   56.0792   29.4312   42.6086 H   0  0  0  0  0  0  0  0  0  0  0  0
   56.7169   31.1182   40.9501 H   0  0  0  0  0  0  0  0  0  0  0  0
   58.0478   33.1174   41.5911 H   0  0  0  0  0  0  0  0  0  0  0  0
   58.7236   33.3724   43.9814 H   0  0  0  0  0  0  0  0  0  0  0  0
   58.0842   31.6834   45.6352 H   0  0  0  0  0  0  0  0  0  0  0  0
  1  2  1  0
  2  3  1  0
  3  4  2  0
  3  5  1  0
  5  6  1  0
  6  7  2  0
  7  8  1  0
  8  9  1  0
  9 10  1  0
 10 11  1  0
 10 12  1  0
 12 13  1  0
 12 14  1  0
 14 15  1  0
  7 16  1  0
 16 17  1  0
 17 18  1  0
 18 19  1  0
 19 20  1  0
 20 21  2  0
 21 22  1  0
 22 23  2  0
 23 24  1  0
 24 25  2  0
 18 26  1  0
 26 27  2  0
 26  2  1  0
 17  5  2  0
 25 20  1  0
 15  8  1  0
  1 28  1  0
  1 29  1  0
  1 30  1  0
  8 31  1  6
  9 32  1  0
  9 33  1  0
 10 34  1  1
 11 35  1  0
 12 36  1  6
 13 37  1  0
 14 38  1  0
 14 39  1  0
 16 40  1  0
 19 41  1  0
 19 42  1  0
 21 43  1  0
 22 44  1  0
 23 45  1  0
 24 46  1  0
 25 47  1  0
M  END
>  <smiles>  (13) 
Cn1c(=O)c2nc(C3CC(O)C(O)CO3)[nH]c2n(Cc2ccccc2)c1=O

>  <score_type>  (13) 
oracle

>  <origin>  (13) 
adg

>  <m_score__min__energy>  (13) 
-8.4900000000000002

>  <m_primary>  (13) 
energy

$$$$
13:0
     RDKit          3D

 28 30  0  0  0  0  0  0  0  0999 V2000
   63.5600   33.3920   48.2310 C   0  0  0  0  0  0  0  0  0  0  0  0
   62.2930   32.9800   47.5410 C   0  0  0  0  0  0  0  0  0  0  0  0
   61.6150   33.8360   46.6950 C   0  0  0  0  0  0  0  0  0  0  0  0
   60.4360   33.4560   46.0500 C   0  0  0  0  0  0  0  0  0  0  0  0
   59.9220   32.1910   46.2570 C   0  0  0  0  0  0  0  0  0  0  0  0
   58.7270   31.7260   45.6390 N   0  0  0  0  0  0  0  0  0  0  0  0
   57.6380   32.5050   45.4870 C   0  0  0  0  0  0  0  0  0  0  0  0
   57.4500   34.1840   45.9860 Cl  0  0  0  0  0  0  0  0  0  0  0  0
   56.6580   31.8130   44.8750 N   0  0  0  0  0  0  0  0  0  0  0  0
   57.1590   30.5920   44.6520 C   0  0  0  0  0  0  0  0  0  0  0  0
   56.6310   29.4690   44.0670 C   0  0  0  0  0  0  0  0  0  0  0  0
   55.4120   29.4480   43.5910 N   0  0  0  0  0  0  0  0  0  0  0  0
   57.3690   28.3490   43.9680 N   0  0  0  0  0  0  0  0  0  0  0  0
   58.6450   28.3030   44.4420 C   0  0  0  0  0  0  0  0  0  0  0  0
   59.2030   29.3990   45.0290 N   0  0  0  0  0  0  0  0  0  0  0  0
   58.4690   30.5140   45.1270 C   0  0  0  0  0  0  0  0  0  0  0  0
   60.5890   31.3230   47.1010 C   0  0  0  0  0  0  0  0  0  0  0  0
   61.7700   31.7170   47.7410 C   0  0  0  0  0  0  0  0  0  0  0  0
   63.4161   33.3452   49.3205 H   0  0  0  0  0  0  0  0  0  0  0  0
   64.3742   32.7123   47.9392 H   0  0  0  0  0  0  0  0  0  0  0  0
   63.8187   34.4206   47.9392 H   0  0  0  0  0  0  0  0  0  0  0  0
   62.0153   34.8463   46.5244 H   0  0  0  0  0  0  0  0  0  0  0  0
   59.9198   34.1602   45.3810 H   0  0  0  0  0  0  0  0  0  0  0  0
   55.2330   29.1150   42.6180 H   0  0  0  0  0  0  0  0  0  0  0  0
   56.9250   27.5080   43.5110 H   0  0  0  0  0  0  0  0  0  0  0  0
   59.2289   27.3753   44.3504 H   0  0  0  0  0  0  0  0  0  0  0  0
   60.1879   30.3130   47.2714 H   0  0  0  0  0  0  0  0  0  0  0  0
   62.2871   31.0136   48.4102 H   0  0  0  0  0  0  0  0  0  0  0  0
  1  2  1  0
  2  3  2  0
  3  4  1  0
  4  5  2  0
  5  6  1  0
  6  7  1  0
  7  8  1  0
  7  9  2  0
  9 10  1  0
 10 11  1  0
 11 12  2  3
 11 13  1  0
 13 14  1  0
 14 15  2  0
 15 16  1  0
  5 17  1  0
 17 18  2  0
 18  2  1  0
 16  6  1  0
 16 10  2  0
  1 19  1  0
  1 20  1  0
  1 21  1  0
  3 22  1  0
  4 23  1  0
 12 24  1  0
 13 25  1  0
 14 26  1  0
 17 27  1  0
 18 28  1  0
M  END
>  <smiles>  (14) 
Cc1ccc(-n2c(Cl)nc3c(=N)[nH]cnc32)cc1

>  <score_type>  (14) 
oracle

>  <origin>  (14) 
adg

>  <m_score__min__energy>  (14) 
-7.0999999999999996

>  <m_primary>  (14) 
energy

$$$$
14:0
     RDKit          3D

 14 15  0  0  0  0  0  0  0  0999 V2000
   56.1770   25.2370   46.7090 O   0  0  0  0  0  0  0  0  0  0  0  0
   56.6110   26.3690   46.3680 C   0  0  0  0  0  0  0  0  0  0  0  0
   55.8300   27.1970   45.6230 N   0  0  0  0  0  0  0  0  0  0  0  0
   56.2760   28.4220   45.2430 C   0  0  0  0  0  0  0  0  0  0  0  0
   55.4950   29.2470   44.4990 N   0  0  0  0  0  0  0  0  0  0  0  0
   55.9440   30.4740   44.1180 C   0  0  0  0  0  0  0  0  0  0  0  0
   57.2250   30.8910   44.4980 C   0  0  0  0  0  0  0  0  0  0  0  0
   57.8250   32.4660   44.0200 Cl  0  0  0  0  0  0  0  0  0  0  0  0
   58.0080   30.0660   45.2420 N   0  0  0  0  0  0  0  0  0  0  0  0
   57.5630   28.8410   45.6240 C   0  0  0  0  0  0  0  0  0  0  0  0
   58.3430   28.0160   46.3670 N   0  0  0  0  0  0  0  0  0  0  0  0
   57.8970   26.7880   46.7480 C   0  0  0  0  0  0  0  0  0  0  0  0
   58.6390   26.0390   47.4390 O   0  0  0  0  0  0  0  0  0  0  0  0
   55.3037   31.1344   43.5147 H   0  0  0  0  0  0  0  0  0  0  0  0
  1  2  2  0
  2  3  1  0
  3  4  1  0
  4  5  2  0
  5  6  1  0
  6  7  2  0
  7  8  1  0
  7  9  1  0
  9 10  2  0
 10 11  1  0
 11 12  1  0
 12 13  2  0
 12  2  1  0
 10  4  1  0
  6 14  1  0
M  CHG  2   3  -1  11  -1
M  END
>  <UniqueID>  (15) 
12

>  <SMILES>  (15) 
O=c1[n-]c2ncc(Cl)nc2[n-]c1=O

>  <Energy>  (15) 
21.460672696948457

>  <Genealogy>  (15) 
O=c1[n-]c2ncc(Cl)nc2[n-]c1=O (protonated)
O=c1[n-]c2ncc(Cl)nc2[n-]c1=O (3D coordinates assigned)
O=c1[n-]c2ncc(Cl)nc2[n-]c1=O (optimized conformer: 21.460672696948457 kcal/mol)

>  <smiles>  (15) 
O=c1[nH]c2ncc(Cl)nc2[nH]c1=O

>  <score_type>  (15) 
oracle

>  <origin>  (15) 
adg

>  <m_score__min__energy>  (15) 
-9.0299999999999994

>  <m_primary>  (15) 
energy

$$$$
15:0
     RDKit          3D

 44 45  0  0  0  0  0  0  0  0999 V2000
   58.9740   31.5630   48.4350 N   0  0  0  0  0  0  0  0  0  0  0  0
   59.2680   30.1370   48.3000 C   0  0  0  0  0  0  0  0  0  0  0  0
   60.3410   29.8560   47.2340 C   0  0  0  0  0  0  0  0  0  0  0  0
   59.8390   28.9260   46.1210 C   0  0  0  0  0  0  0  0  0  0  0  0
   58.8450   29.6410   45.2460 C   0  0  0  0  0  0  0  0  0  0  0  0
   57.9340   28.9110   44.4670 C   0  0  0  0  0  0  0  0  0  0  0  0
   56.9830   29.5760   43.6880 C   0  0  0  0  0  0  0  0  0  0  0  0
   56.9280   30.9710   43.6850 C   0  0  0  0  0  0  0  0  0  0  0  0
   57.8320   31.7150   44.4620 C   0  0  0  0  0  0  0  0  0  0  0  0
   57.7460   33.2190   44.4960 C   0  0  0  0  0  0  0  0  0  0  0  0
   57.2600   33.7240   45.8620 C   0  0  0  0  0  0  0  0  0  0  0  0
   58.2940   33.5640   46.8980 N   0  0  0  0  0  0  0  0  0  0  0  0
   59.2540   34.6790   46.9350 C   0  0  0  0  0  0  0  0  0  0  0  0
   60.6340   34.2320   47.3580 C   0  0  0  0  0  0  0  0  0  0  0  0
   61.5820   33.8400   46.3980 C   0  0  0  0  0  0  0  0  0  0  0  0
   62.8540   33.4150   46.7960 C   0  0  0  0  0  0  0  0  0  0  0  0
   63.1890   33.3780   48.1520 C   0  0  0  0  0  0  0  0  0  0  0  0
   64.4220   32.9670   48.5360 F   0  0  0  0  0  0  0  0  0  0  0  0
   62.2510   33.7670   49.1130 C   0  0  0  0  0  0  0  0  0  0  0  0
   60.9780   34.1920   48.7200 C   0  0  0  0  0  0  0  0  0  0  0  0
   58.7800   31.0440   45.2500 C   0  0  0  0  0  0  0  0  0  0  0  0
   58.0060   31.7530   48.0870 H   0  0  0  0  0  0  0  0  0  0  0  0
   59.6450   32.1120   47.8520 H   0  0  0  0  0  0  0  0  0  0  0  0
   59.6248   29.7570   49.2686 H   0  0  0  0  0  0  0  0  0  0  0  0
   58.3426   29.6330   47.9843 H   0  0  0  0  0  0  0  0  0  0  0  0
   60.6480   30.8112   46.7830 H   0  0  0  0  0  0  0  0  0  0  0  0
   61.1826   29.3535   47.7332 H   0  0  0  0  0  0  0  0  0  0  0  0
   60.6927   28.6008   45.5083 H   0  0  0  0  0  0  0  0  0  0  0  0
   59.3480   28.0549   46.5793 H   0  0  0  0  0  0  0  0  0  0  0  0
   57.9686   27.8115   44.4695 H   0  0  0  0  0  0  0  0  0  0  0  0
   56.2754   28.9982   43.0752 H   0  0  0  0  0  0  0  0  0  0  0  0
   56.1751   31.4890   43.0728 H   0  0  0  0  0  0  0  0  0  0  0  0
   58.7424   33.6387   44.2936 H   0  0  0  0  0  0  0  0  0  0  0  0
   57.0231   33.5407   43.7319 H   0  0  0  0  0  0  0  0  0  0  0  0
   57.0014   34.7898   45.7773 H   0  0  0  0  0  0  0  0  0  0  0  0
   56.3828   33.1293   46.1566 H   0  0  0  0  0  0  0  0  0  0  0  0
   58.8100   32.6690   46.7240 H   0  0  0  0  0  0  0  0  0  0  0  0
   59.3183   35.1242   45.9312 H   0  0  0  0  0  0  0  0  0  0  0  0
   58.8945   35.4090   47.6752 H   0  0  0  0  0  0  0  0  0  0  0  0
   61.3230   33.8674   45.3293 H   0  0  0  0  0  0  0  0  0  0  0  0
   63.5920   33.1093   46.0398 H   0  0  0  0  0  0  0  0  0  0  0  0
   62.5149   33.7387   50.1805 H   0  0  0  0  0  0  0  0  0  0  0  0
   60.2431   34.4962   49.4799 H   0  0  0  0  0  0  0  0  0  0  0  0
   59.4771   31.6211   45.8753 H   0  0  0  0  0  0  0  0  0  0  0  0
  1  2  1  0
  2  3  1  0
  3  4  1  0
  4  5  1  0
  5  6  2  0
  6  7  1  0
  7  8  2  0
  8  9  1  0
  9 10  1  0
 10 11  1  0
 11 12  1  0
 12 13  1  0
 13 14  1  0
 14 15  2  0
 15 16  1  0
 16 17  2  0
 17 18  1  0
 17 19  1  0
 19 20  2  0
  9 21  2  0
 21  5  1  0
 20 14  1  0
  1 22  1  0
  1 23  1  0
  2 24  1  0
  2 25  1  0
  3 26  1  0
  3 27  1  0
  4 28  1  0
  4 29  1  0
  6 30  1  0
  7 31  1  0
  8 32  1  0
 10 33  1  0
 10 34  1  0
 11 35  1  0
 11 36  1  0
 12 37  1  0
 13 38  1  0
 13 39  1  0
 15 40  1  0
 16 41  1  0
 19 42  1  0
 20 43  1  0
 21 44  1  0
M  END
>  <UniqueID>  (16) 
13

>  <SMILES>  (16) 
NCCCc1cccc(CCNCc2ccc(F)cc2)c1

>  <Energy>  (16) 
37.291491437422394

>  <Genealogy>  (16) 
NCCCc1cccc(CCNCc2ccc(F)cc2)c1 (3D coordinates assigned)
NCCCc1cccc(CCNCc2ccc(F)cc2)c1 (optimized conformer: 37.291491437422394 kcal/mol)

>  <smiles>  (16) 
NCCCc1cccc(CCNCc2ccc(F)cc2)c1

>  <score_type>  (16) 
oracle

>  <origin>  (16) 
adg

>  <m_score__min__energy>  (16) 
-7.1600000000000001

>  <m_primary>  (16) 
energy

$$$$
16:0
     RDKit          3D

 67 70  0  0  0  0  0  0  0  0999 V2000
   63.0450   32.0380   47.6890 C   0  0  0  0  0  0  0  0  0  0  0  0
   62.3100   30.8520   47.9710 O   0  0  0  0  0  0  0  0  0  0  0  0
   61.8810   30.4630   49.2500 C   0  0  0  0  0  0  0  0  0  0  0  0
   62.3250   31.1250   50.4130 C   0  0  0  0  0  0  0  0  0  0  0  0
   61.8660   30.7290   51.6700 C   0  0  0  0  0  0  0  0  0  0  0  0
   60.9590   29.6750   51.7850 C   0  0  0  0  0  0  0  0  0  0  0  0
   60.5120   29.0090   50.6420 C   0  0  0  0  0  0  0  0  0  0  0  0
   60.9710   29.3910   49.3700 C   0  0  0  0  0  0  0  0  0  0  0  0
   60.5160   28.6800   48.2020 N   0  0  0  0  0  0  0  0  0  0  0  0
   59.9290   29.4180   47.0800 C   0  0  0  0  0  0  0  0  0  0  0  0
   60.1240   28.6360   45.7720 C   0  0  0  0  0  0  0  0  0  0  0  0
   59.7250   27.2010   45.8580 N   0  0  0  0  0  0  0  0  0  0  0  0
   58.6700   26.8500   44.8820 C   0  0  0  0  0  0  0  0  0  0  0  0
   58.1480   28.1040   44.1560 C   0  0  0  0  0  0  0  0  0  0  0  0
   56.8680   28.6900   44.7830 C   0  0  0  0  0  0  0  0  0  0  0  0
   56.5290   30.0550   44.2310 C   0  0  0  0  0  0  0  0  0  0  0  0
   55.9160   30.1430   43.1320 O   0  0  0  0  0  0  0  0  0  0  0  0
   56.9010   31.2650   44.9030 N   0  0  0  0  0  0  0  0  0  0  0  0
   57.8780   31.3780   45.9820 C   0  0  0  0  0  0  0  0  0  0  0  0
   58.5020   32.7510   45.9600 C   0  0  0  0  0  0  0  0  0  0  0  0
   58.1960   33.6350   44.9100 C   0  0  0  0  0  0  0  0  0  0  0  0
   58.7720   34.9060   44.8650 C   0  0  0  0  0  0  0  0  0  0  0  0
   59.6570   35.3100   45.8620 C   0  0  0  0  0  0  0  0  0  0  0  0
   59.9700   34.4450   46.9120 C   0  0  0  0  0  0  0  0  0  0  0  0
   59.4040   33.1600   46.9700 C   0  0  0  0  0  0  0  0  0  0  0  0
   59.7060   32.2930   48.0780 N   0  0  0  0  0  0  0  0  0  0  0  0
   59.2580   32.5200   49.4290 C   0  0  0  0  0  0  0  0  0  0  0  0
   59.7910   33.5930   50.1590 C   0  0  0  0  0  0  0  0  0  0  0  0
   59.3270   33.8730   51.4470 C   0  0  0  0  0  0  0  0  0  0  0  0
   58.3200   33.0890   52.0140 C   0  0  0  0  0  0  0  0  0  0  0  0
   57.7720   32.0240   51.2920 C   0  0  0  0  0  0  0  0  0  0  0  0
   58.2310   31.7440   50.0000 C   0  0  0  0  0  0  0  0  0  0  0  0
   59.3570   26.7440   47.2170 C   0  0  0  0  0  0  0  0  0  0  0  0
   60.3790   27.2200   48.2520 C   0  0  0  0  0  0  0  0  0  0  0  0
   63.3425   32.5181   48.6329 H   0  0  0  0  0  0  0  0  0  0  0  0
   63.9436   31.7831   47.1081 H   0  0  0  0  0  0  0  0  0  0  0  0
   62.4168   32.7293   47.1081 H   0  0  0  0  0  0  0  0  0  0  0  0
   63.0376   31.9588   50.3290 H   0  0  0  0  0  0  0  0  0  0  0  0
   62.2201   31.2491   52.5723 H   0  0  0  0  0  0  0  0  0  0  0  0
   60.5957   29.3684   52.7770 H   0  0  0  0  0  0  0  0  0  0  0  0
   59.7957   28.1797   50.7380 H   0  0  0  0  0  0  0  0  0  0  0  0
   58.8535   29.5605   47.2615 H   0  0  0  0  0  0  0  0  0  0  0  0
   60.4272   30.3948   46.9924 H   0  0  0  0  0  0  0  0  0  0  0  0
   59.5200   29.1166   44.9883 H   0  0  0  0  0  0  0  0  0  0  0  0
   61.2007   28.6542   45.5477 H   0  0  0  0  0  0  0  0  0  0  0  0
   59.0847   26.1517   44.1401 H   0  0  0  0  0  0  0  0  0  0  0  0
   57.8328   26.3857   45.4238 H   0  0  0  0  0  0  0  0  0  0  0  0
   58.9330   28.8741   44.1834 H   0  0  0  0  0  0  0  0  0  0  0  0
   57.8956   27.8014   43.1290 H   0  0  0  0  0  0  0  0  0  0  0  0
   56.0298   28.0078   44.5777 H   0  0  0  0  0  0  0  0  0  0  0  0
   57.0435   28.7993   45.8634 H   0  0  0  0  0  0  0  0  0  0  0  0
   57.3761   31.2197   46.9480 H   0  0  0  0  0  0  0  0  0  0  0  0
   58.6622   30.6189   45.8448 H   0  0  0  0  0  0  0  0  0  0  0  0
   57.4982   33.3230   44.1189 H   0  0  0  0  0  0  0  0  0  0  0  0
   58.5262   35.5905   44.0397 H   0  0  0  0  0  0  0  0  0  0  0  0
   60.1097   36.3117   45.8219 H   0  0  0  0  0  0  0  0  0  0  0  0
   60.6648   34.7716   47.6998 H   0  0  0  0  0  0  0  0  0  0  0  0
   60.2860   31.4420   47.8920 H   0  0  0  0  0  0  0  0  0  0  0  0
   60.5795   34.2181   49.7145 H   0  0  0  0  0  0  0  0  0  0  0  0
   59.7555   34.7120   52.0150 H   0  0  0  0  0  0  0  0  0  0  0  0
   57.9577   33.3092   53.0290 H   0  0  0  0  0  0  0  0  0  0  0  0
   56.9798   31.4061   51.7399 H   0  0  0  0  0  0  0  0  0  0  0  0
   57.7881   30.9150   49.4286 H   0  0  0  0  0  0  0  0  0  0  0  0
   58.3674   27.1481   47.4766 H   0  0  0  0  0  0  0  0  0  0  0  0
   59.3383   25.6442   47.2235 H   0  0  0  0  0  0  0  0  0  0  0  0
   60.0436   26.9217   49.2562 H   0  0  0  0  0  0  0  0  0  0  0  0
   61.3537   26.7624   48.0274 H   0  0  0  0  0  0  0  0  0  0  0  0
  1  2  1  0
  2  3  1  0
  3  4  2  0
  4  5  1  0
  5  6  2  0
  6  7  1  0
  7  8  2  0
  8  9  1  0
  9 10  1  0
 10 11  1  0
 11 12  1  0
 12 13  1  0
 13 14  1  0
 14 15  1  0
 15 16  1  0
 16 17  2  0
 16 18  1  0
 18 19  1  0
 19 20  1  0
 20 21  2  0
 21 22  1  0
 22 23  2  0
 23 24  1  0
 24 25  2  0
 25 26  1  0
 26 27  1  0
 27 28  2  0
 28 29  1  0
 29 30  2  0
 30 31  1  0
 31 32  2  0
 12 33  1  0
 33 34  1  0
  8  3  1  0
 34  9  1  0
 25 20  1  0
 32 27  1  0
  1 35  1  0
  1 36  1  0
  1 37  1  0
  4 38  1  0
  5 39  1  0
  6 40  1  0
  7 41  1  0
 10 42  1  0
 10 43  1  0
 11 44  1  0
 11 45  1  0
 13 46  1  0
 13 47  1  0
 14 48  1  0
 14 49  1  0
 15 50  1  0
 15 51  1  0
 19 52  1  0
 19 53  1  0
 21 54  1  0
 22 55  1  0
 23 56  1  0
 24 57  1  0
 26 58  1  0
 28 59  1  0
 29 60  1  0
 30 61  1  0
 31 62  1  0
 32 63  1  0
 33 64  1  0
 33 65  1  0
 34 66  1  0
 34 67  1  0
M  CHG  1  18  -1
M  END
>  <UniqueID>  (17) 
14

>  <SMILES>  (17) 
COc1ccccc1N1CCN(CCCC(=O)[N-]Cc2ccccc2Nc2ccccc2)CC1

>  <Energy>  (17) 
84.04948224410943

>  <Genealogy>  (17) 
COc1ccccc1N1CCN(CCCC(=O)[N-]Cc2ccccc2Nc2ccccc2)CC1 (protonated)
COc1ccccc1N1CCN(CCCC(=O)[N-]Cc2ccccc2Nc2ccccc2)CC1 (3D coordinates assigned)
COc1ccccc1N1CCN(CCCC(=O)[N-]Cc2ccccc2Nc2ccccc2)CC1 (nonaromatic ring conformer: 84.04948224410943 kcal/mol)

>  <smiles>  (17) 
COc1ccccc1N1CCN(CCCC(=O)NCc2ccccc2Nc2ccccc2)CC1

>  <score_type>  (17) 
oracle

>  <origin>  (17) 
adg

>  <m_score__min__energy>  (17) 
-10.83

>  <m_primary>  (17) 
energy

$$$$
17:0
     RDKit          3D

 37 40  0  0  1  0  0  0  0  0999 V2000
   60.3950   29.5890   47.9030 C   0  0  0  0  0  0  0  0  0  0  0  0
   59.5160   28.5420   47.3150 C   0  0  0  0  0  0  0  0  0  0  0  0
   59.3940   27.2740   47.8530 C   0  0  0  0  0  0  0  0  0  0  0  0
   58.5850   26.2970   47.3200 C   0  0  0  0  0  0  0  0  0  0  0  0
   57.8880   26.6320   46.2110 N   0  0  0  0  0  0  0  0  0  0  0  0
   57.9860   27.8560   45.6640 C   0  0  0  0  0  0  0  0  0  0  0  0
   57.2650   28.1140   44.5660 N   0  0  0  0  0  0  0  0  0  0  0  0
   57.3460   29.3350   44.0000 C   0  0  0  0  0  0  0  0  0  0  0  0
   56.5860   29.5420   42.8770 C   0  0  0  0  0  0  0  0  0  0  0  0
   56.6490   30.7730   42.2820 C   0  0  0  0  0  0  0  0  0  0  0  0
   57.4080   31.8190   42.7110 C   0  0  0  0  0  0  0  0  0  0  0  0
   58.1800   31.5810   43.8640 C   0  0  0  0  0  0  0  0  0  0  0  0
   58.1190   30.3560   44.4600 C   0  0  0  0  0  0  0  0  0  0  0  0
   58.8680   30.1230   45.5840 C   0  0  0  0  0  0  0  0  0  0  0  0
   59.6010   30.9560   46.0950 N   0  0  0  0  0  0  0  0  0  0  0  0
   59.4830   32.2500   46.4510 C   0  0  0  0  0  0  0  0  0  0  0  0
   58.2360   32.8390   46.7900 C   0  0  0  0  0  0  0  0  0  0  0  0
   58.1530   34.1920   47.0420 C   0  0  0  0  0  0  0  0  0  0  0  0
   59.2980   34.9920   46.9650 C   0  0  0  0  0  0  0  0  0  0  0  0
   60.5110   34.4420   46.6390 C   0  0  0  0  0  0  0  0  0  0  0  0
   60.6220   33.0930   46.3820 C   0  0  0  0  0  0  0  0  0  0  0  0
   58.7790   28.8540   46.1650 C   0  0  0  0  0  0  0  0  0  0  0  0
   60.3481   29.5331   49.0006 H   0  0  0  0  0  0  0  0  0  0  0  0
   61.4312   29.4264   47.5715 H   0  0  0  0  0  0  0  0  0  0  0  0
   60.0555   30.5814   47.5715 H   0  0  0  0  0  0  0  0  0  0  0  0
   59.9749   27.0335   48.7556 H   0  0  0  0  0  0  0  0  0  0  0  0
   58.5094   25.2970   47.7719 H   0  0  0  0  0  0  0  0  0  0  0  0
   56.6450   27.3540   44.1660 H   0  0  0  0  0  0  0  0  0  0  0  0
   55.9472   28.7452   42.4683 H   0  0  0  0  0  0  0  0  0  0  0  0
   56.0356   30.9304   41.3826 H   0  0  0  0  0  0  0  0  0  0  0  0
   57.4173   32.7878   42.1901 H   0  0  0  0  0  0  0  0  0  0  0  0
   58.8230   32.3716   44.2781 H   0  0  0  0  0  0  0  0  0  0  0  0
   57.3332   32.2136   46.8517 H   0  0  0  0  0  0  0  0  0  0  0  0
   57.1846   34.6432   47.3041 H   0  0  0  0  0  0  0  0  0  0  0  0
   59.2247   36.0707   47.1676 H   0  0  0  0  0  0  0  0  0  0  0  0
   61.4030   35.0832   46.5822 H   0  0  0  0  0  0  0  0  0  0  0  0
   61.6017   32.6661   46.1212 H   0  0  0  0  0  0  0  0  0  0  0  0
  1  2  1  0
  2  3  2  0
  3  4  1  0
  4  5  2  0
  5  6  1  0
  6  7  1  0
  7  8  1  0
  8  9  2  0
  9 10  1  0
 10 11  2  0
 11 12  1  0
 12 13  2  0
 13 14  1  0
 14 15  2  0
 15 16  1  0
 16 17  2  0
 17 18  1  0
 18 19  2  0
 19 20  1  0
 20 21  2  0
 14 22  1  0
 22  2  1  0
 22  6  2  0
 13  8  1  0
 21 16  1  0
  1 23  1  0
  1 24  1  0
  1 25  1  0
  3 26  1  0
  4 27  1  0
  7 28  1  0
  9 29  1  0
 10 30  1  0
 11 31  1  0
 12 32  1  0
 17 33  1  0
 18 34  1  0
 19 35  1  0
 20 36  1  0
 21 37  1  0
M  END
>  <smiles>  (18) 
Cc1ccnc2[nH]c3ccccc3c(=Nc3ccccc3)c12

>  <score_type>  (18) 
oracle

>  <origin>  (18) 
adg

>  <m_score__min__energy>  (18) 
-7.7000000000000002

>  <m_primary>  (18) 
energy

$$$$
18:0
     RDKit          3D

 51 53  0  0  0  0  0  0  0  0999 V2000
   58.6532   30.4011   49.3358 H   0  0  0  0  0  0  0  0  0  0  0  0
   58.8920   30.5540   48.2730 C   0  0  0  0  0  0  0  0  0  0  0  0
   58.8250   31.8360   47.7230 C   0  0  0  0  0  0  0  0  0  0  0  0
   58.5345   32.6882   48.3550 H   0  0  0  0  0  0  0  0  0  0  0  0
   59.1260   32.0420   46.3700 C   0  0  0  0  0  0  0  0  0  0  0  0
   59.0410   33.3550   45.7920 N   0  0  0  0  0  0  0  0  0  0  0  0
   58.0820   33.6470   44.7220 C   0  0  0  0  0  0  0  0  0  0  0  0
   57.3983   34.4398   45.0598 H   0  0  0  0  0  0  0  0  0  0  0  0
   58.6419   33.9699   43.8319 H   0  0  0  0  0  0  0  0  0  0  0  0
   57.2770   32.4250   44.3610 C   0  0  0  0  0  0  0  0  0  0  0  0
   56.4570   31.9780   45.2080 O   0  0  0  0  0  0  0  0  0  0  0  0
   57.4410   31.7490   43.0960 N   0  0  0  0  0  0  0  0  0  0  0  0
   56.6430   30.5480   42.8250 C   0  0  0  0  0  0  0  0  0  0  0  0
   56.3376   30.0883   43.7765 H   0  0  0  0  0  0  0  0  0  0  0  0
   55.7485   30.8247   42.2477 H   0  0  0  0  0  0  0  0  0  0  0  0
   57.2446   29.8306   42.2477 H   0  0  0  0  0  0  0  0  0  0  0  0
   58.3780   32.2510   42.0850 C   0  0  0  0  0  0  0  0  0  0  0  0
   59.2422   32.7140   42.5838 H   0  0  0  0  0  0  0  0  0  0  0  0
   58.7213   31.4160   41.4566 H   0  0  0  0  0  0  0  0  0  0  0  0
   57.8730   32.9994   41.4566 H   0  0  0  0  0  0  0  0  0  0  0  0
   59.7740   34.6880   46.6290 S   0  0  0  0  0  0  0  0  0  0  0  0
   58.8700   35.1480   47.7380 O   0  0  0  0  0  0  0  0  0  0  0  0
   59.9970   35.8400   45.6900 O   0  0  0  0  0  0  0  0  0  0  0  0
   61.3220   34.1560   47.2730 C   0  0  0  0  0  0  0  0  0  0  0  0
   62.3800   33.8150   46.4010 C   0  0  0  0  0  0  0  0  0  0  0  0
   62.2193   33.8385   45.3131 H   0  0  0  0  0  0  0  0  0  0  0  0
   63.6360   33.4460   46.9120 C   0  0  0  0  0  0  0  0  0  0  0  0
   64.4593   33.1757   46.2344 H   0  0  0  0  0  0  0  0  0  0  0  0
   63.8190   33.4290   48.2960 C   0  0  0  0  0  0  0  0  0  0  0  0
   62.7760   33.7680   49.1450 C   0  0  0  0  0  0  0  0  0  0  0  0
   63.3010   33.6810   50.7390 S   0  0  0  0  0  0  0  0  0  0  0  0
   64.8620   33.2040   50.2670 C   0  0  0  0  0  0  0  0  0  0  0  0
   65.8530   32.9590   51.0720 N   0  0  0  0  0  0  0  0  0  0  0  0
   67.2560   33.1030   50.7050 C   0  0  0  0  0  0  0  0  0  0  0  0
   67.8688   33.1659   51.6163 H   0  0  0  0  0  0  0  0  0  0  0  0
   67.5708   32.2324   50.1108 H   0  0  0  0  0  0  0  0  0  0  0  0
   67.3874   34.0194   50.1108 H   0  0  0  0  0  0  0  0  0  0  0  0
   64.9830   33.1120   48.9210 N   0  0  0  0  0  0  0  0  0  0  0  0
   65.8630   32.8400   48.4260 H   0  0  0  0  0  0  0  0  0  0  0  0
   61.5220   34.1360   48.6650 C   0  0  0  0  0  0  0  0  0  0  0  0
   60.7092   34.4040   49.3561 H   0  0  0  0  0  0  0  0  0  0  0  0
   59.4950   30.9500   45.5730 C   0  0  0  0  0  0  0  0  0  0  0  0
   59.7331   31.1039   44.5102 H   0  0  0  0  0  0  0  0  0  0  0  0
   59.5620   29.6660   46.1220 C   0  0  0  0  0  0  0  0  0  0  0  0
   59.8509   28.8151   45.4876 H   0  0  0  0  0  0  0  0  0  0  0  0
   59.2640   29.4560   47.4730 C   0  0  0  0  0  0  0  0  0  0  0  0
   59.3470   28.1500   47.9780 O   0  0  0  0  0  0  0  0  0  0  0  0
   60.3960   27.6780   48.8170 C   0  0  0  0  0  0  0  0  0  0  0  0
   60.1088   27.8072   49.8710 H   0  0  0  0  0  0  0  0  0  0  0  0
   60.5763   26.6120   48.6141 H   0  0  0  0  0  0  0  0  0  0  0  0
   61.3133   28.2501   48.6141 H   0  0  0  0  0  0  0  0  0  0  0  0
  1  2  1  0
  2  3  2  0
  3  4  1  0
  3  5  1  0
  5  6  1  0
  6  7  1  0
  7  8  1  0
  7  9  1  0
  7 10  1  0
 10 11  2  0
 10 12  1  0
 12 13  1  0
 13 14  1  0
 13 15  1  0
 13 16  1  0
 12 17  1  0
 17 18  1  0
 17 19  1  0
 17 20  1  0
  6 21  1  0
 21 22  2  0
 21 23  2  0
 21 24  1  0
 24 25  2  0
 25 26  1  0
 25 27  1  0
 27 28  1  0
 27 29  2  0
 29 30  1  0
 30 31  1  0
 31 32  1  0
 32 33  2  0
 33 34  1  0
 34 35  1  0
 34 36  1  0
 34 37  1  0
 32 38  1  0
 38 39  1  0
 30 40  2  0
 40 41  1  0
  5 42  2  0
 42 43  1  0
 42 44  1  0
 44 45  1  0
 44 46  2  0
 46 47  1  0
 47 48  1  0
 48 49  1  0
 48 50  1  0
 48 51  1  0
 46  2  1  0
 40 24  1  0
 38 29  1  0
M  END
>  <UniqueID>  (19) 
15

>  <SMILES>  (19) 
C/N=c1/[nH]c2ccc(S(=O)(=O)N(CC(=O)N(C)C)c3ccc(OC)cc3)cc2s1

>  <Energy>  (19) 
87.20329253605242

>  <Genealogy>  (19) 
C/N=c1/[nH]c2ccc(S(=O)(=O)N(CC(=O)N(C)C)c3ccc(OC)cc3)cc2s1 (cis-trans isomerization)
C/N=c1/[nH]c2ccc(S(=O)(=O)N(CC(=O)N(C)C)c3ccc(OC)cc3)cc2s1 (3D coordinates assigned)
C/N=c1/[nH]c2ccc(S(=O)(=O)N(CC(=O)N(C)C)c3ccc(OC)cc3)cc2s1 (optimized conformer: 87.20329253605242 kcal/mol)

>  <smiles>  (19) 
CN=c1[nH]c2ccc(S(=O)(=O)N(CC(=O)N(C)C)c3ccc(OC)cc3)cc2s1

>  <score_type>  (19) 
oracle

>  <origin>  (19) 
adg

>  <m_score__min__energy>  (19) 
-8.5099999999999998

>  <m_primary>  (19) 
energy

$$$$
19:0
     RDKit          3D

 40 41  0  0  0  0  0  0  0  0999 V2000
   57.3330   31.3760   42.8120 C   0  0  0  0  0  0  0  0  0  0  0  0
   56.6320   30.0480   42.9290 C   0  0  0  0  0  0  0  0  0  0  0  0
   55.5250   30.0680   43.9180 C   0  0  0  0  0  0  0  0  0  0  0  0
   55.6960   29.3940   45.1470 N   0  0  0  0  0  0  0  0  0  0  0  0
   56.6910   28.3830   45.2480 C   0  0  0  0  0  0  0  0  0  0  0  0
   57.8920   29.0440   45.9260 C   0  0  0  0  0  0  0  0  0  0  0  0
   58.8310   28.2980   46.5280 N   0  0  0  0  0  0  0  0  0  0  0  0
   59.8940   28.8840   47.1300 C   0  0  0  0  0  0  0  0  0  0  0  0
   60.7560   28.1880   47.6830 O   0  0  0  0  0  0  0  0  0  0  0  0
   59.9740   30.2680   47.1010 C   0  0  0  0  0  0  0  0  0  0  0  0
   60.8800   31.1760   47.5920 C   0  0  0  0  0  0  0  0  0  0  0  0
   60.4790   32.3980   47.2840 N   0  0  0  0  0  0  0  0  0  0  0  0
   59.3260   32.3470   46.6000 N   0  0  0  0  0  0  0  0  0  0  0  0
   58.6200   33.4860   46.1170 C   0  0  0  0  0  0  0  0  0  0  0  0
   59.2880   34.0630   44.8700 C   0  0  0  0  0  0  0  0  0  0  0  0
   58.7630   34.6030   47.1640 C   0  0  0  0  0  0  0  0  0  0  0  0
   57.1710   33.3200   45.8620 C   0  0  0  0  0  0  0  0  0  0  0  0
   58.9990   31.0470   46.4760 C   0  0  0  0  0  0  0  0  0  0  0  0
   57.9880   30.3860   45.9090 N   0  0  0  0  0  0  0  0  0  0  0  0
   57.5413   31.7705   43.8175 H   0  0  0  0  0  0  0  0  0  0  0  0
   58.2791   31.2444   42.2665 H   0  0  0  0  0  0  0  0  0  0  0  0
   56.6906   32.0829   42.2665 H   0  0  0  0  0  0  0  0  0  0  0  0
   56.2196   29.7802   41.9450 H   0  0  0  0  0  0  0  0  0  0  0  0
   57.3723   29.3116   43.2748 H   0  0  0  0  0  0  0  0  0  0  0  0
   55.3218   31.1230   44.1539 H   0  0  0  0  0  0  0  0  0  0  0  0
   54.7159   29.5124   43.4214 H   0  0  0  0  0  0  0  0  0  0  0  0
   54.7770   28.9640   45.4480 H   0  0  0  0  0  0  0  0  0  0  0  0
   56.3229   27.5431   45.8555 H   0  0  0  0  0  0  0  0  0  0  0  0
   56.9569   27.9776   44.2606 H   0  0  0  0  0  0  0  0  0  0  0  0
   61.7933   30.9266   48.1520 H   0  0  0  0  0  0  0  0  0  0  0  0
   60.0889   34.7548   45.1699 H   0  0  0  0  0  0  0  0  0  0  0  0
   59.7151   33.2451   44.2711 H   0  0  0  0  0  0  0  0  0  0  0  0
   58.5409   34.6045   44.2711 H   0  0  0  0  0  0  0  0  0  0  0  0
   58.7074   34.1689   48.1732 H   0  0  0  0  0  0  0  0  0  0  0  0
   59.7328   35.1055   47.0339 H   0  0  0  0  0  0  0  0  0  0  0  0
   57.9511   35.3336   47.0339 H   0  0  0  0  0  0  0  0  0  0  0  0
   56.6347   33.2586   46.8204 H   0  0  0  0  0  0  0  0  0  0  0  0
   56.7987   34.1814   45.2881 H   0  0  0  0  0  0  0  0  0  0  0  0
   57.0031   32.3967   45.2881 H   0  0  0  0  0  0  0  0  0  0  0  0
   57.2500   30.9160   45.4380 H   0  0  0  0  0  0  0  0  0  0  0  0
  1  2  1  0
  2  3  1  0
  3  4  1  0
  4  5  1  0
  5  6  1  0
  6  7  2  0
  7  8  1  0
  8  9  2  0
  8 10  1  0
 10 11  1  0
 11 12  2  0
 12 13  1  0
 13 14  1  0
 14 15  1  0
 14 16  1  0
 14 17  1  0
 13 18  1  0
 18 19  1  0
 19  6  1  0
 18 10  2  0
  1 20  1  0
  1 21  1  0
  1 22  1  0
  2 23  1  0
  2 24  1  0
  3 25  1  0
  3 26  1  0
  4 27  1  0
  5 28  1  0
  5 29  1  0
 11 30  1  0
 15 31  1  0
 15 32  1  0
 15 33  1  0
 16 34  1  0
 16 35  1  0
 16 36  1  0
 17 37  1  0
 17 38  1  0
 17 39  1  0
 19 40  1  0
M  END
>  <smiles>  (20) 
CCCNCc1nc(=O)c2cnn(C(C)(C)C)c2[nH]1

>  <score_type>  (20) 
oracle

>  <origin>  (20) 
adg

>  <m_score__min__energy>  (20) 
-6.7699999999999996

>  <m_primary>  (20) 
energy

$$$$
20:0
     RDKit          3D

 57 59  0  0  0  0  0  0  0  0999 V2000
   55.4280   24.6130   45.4500 C   0  0  0  0  0  0  0  0  0  0  0  0
   56.4600   23.6210   44.9180 C   0  0  0  0  0  0  0  0  0  0  0  0
   57.3760   24.2460   43.8600 C   0  0  0  0  0  0  0  0  0  0  0  0
   57.5070   25.6880   44.0700 N   0  0  0  0  0  0  0  0  0  0  0  0
   58.4330   26.2570   45.0110 C   0  0  0  0  0  0  0  0  0  0  0  0
   59.2450   25.5070   45.6200 O   0  0  0  0  0  0  0  0  0  0  0  0
   58.4700   27.7180   45.2600 C   0  0  0  0  0  0  0  0  0  0  0  0
   59.4190   28.2520   46.1450 C   0  0  0  0  0  0  0  0  0  0  0  0
   59.4600   29.6230   46.3960 C   0  0  0  0  0  0  0  0  0  0  0  0
   58.5520   30.4900   45.7750 C   0  0  0  0  0  0  0  0  0  0  0  0
   58.5680   31.8820   46.1280 N   0  0  0  0  0  0  0  0  0  0  0  0
   58.5860   32.9090   45.0860 C   0  0  0  0  0  0  0  0  0  0  0  0
   59.8170   33.8150   45.2590 C   0  0  0  0  0  0  0  0  0  0  0  0
   60.1290   34.1610   46.6740 N   0  0  0  0  0  0  0  0  0  0  0  0
   61.7080   33.5720   47.1650 S   0  0  0  0  0  0  0  0  0  0  0  0
   61.7720   32.0760   47.0260 O   0  0  0  0  0  0  0  0  0  0  0  0
   62.7870   34.1780   46.3100 O   0  0  0  0  0  0  0  0  0  0  0  0
   62.0120   33.9610   48.8850 C   0  0  0  0  0  0  0  0  0  0  0  0
   63.0900   33.0880   49.4660 C   0  0  0  0  0  0  0  0  0  0  0  0
   64.4430   33.4010   49.2550 C   0  0  0  0  0  0  0  0  0  0  0  0
   65.4450   32.6140   49.8290 C   0  0  0  0  0  0  0  0  0  0  0  0
   65.1050   31.5120   50.6180 C   0  0  0  0  0  0  0  0  0  0  0  0
   63.7610   31.1940   50.8330 C   0  0  0  0  0  0  0  0  0  0  0  0
   62.7560   31.9780   50.2600 C   0  0  0  0  0  0  0  0  0  0  0  0
   59.0800   33.7660   47.6360 C   0  0  0  0  0  0  0  0  0  0  0  0
   58.7470   32.2710   47.5300 C   0  0  0  0  0  0  0  0  0  0  0  0
   57.5970   29.9730   44.8700 C   0  0  0  0  0  0  0  0  0  0  0  0
   56.6920   30.8410   44.1640 N   0  0  0  0  0  0  0  0  0  0  0  0
   55.4730   30.8300   44.4300 O   0  0  0  0  0  0  0  0  0  0  0  0
   57.1290   31.5810   43.0900 O   0  0  0  0  0  0  0  0  0  0  0  0
   57.5580   28.5860   44.6350 C   0  0  0  0  0  0  0  0  0  0  0  0
   55.4407   24.6008   46.5499 H   0  0  0  0  0  0  0  0  0  0  0  0
   55.6724   25.6239   45.0917 H   0  0  0  0  0  0  0  0  0  0  0  0
   54.4276   24.3289   45.0917 H   0  0  0  0  0  0  0  0  0  0  0  0
   57.0777   23.2689   45.7573 H   0  0  0  0  0  0  0  0  0  0  0  0
   55.9157   22.7909   44.4439 H   0  0  0  0  0  0  0  0  0  0  0  0
   58.3707   23.7807   43.9244 H   0  0  0  0  0  0  0  0  0  0  0  0
   56.9352   24.0737   42.8670 H   0  0  0  0  0  0  0  0  0  0  0  0
   56.9910   26.3160   43.4120 H   0  0  0  0  0  0  0  0  0  0  0  0
   60.1361   27.5840   46.6446 H   0  0  0  0  0  0  0  0  0  0  0  0
   60.2128   30.0276   47.0885 H   0  0  0  0  0  0  0  0  0  0  0  0
   58.6260   32.4253   44.0989 H   0  0  0  0  0  0  0  0  0  0  0  0
   57.6748   33.5199   45.1664 H   0  0  0  0  0  0  0  0  0  0  0  0
   60.6883   33.2980   44.8305 H   0  0  0  0  0  0  0  0  0  0  0  0
   59.5868   34.7608   44.7467 H   0  0  0  0  0  0  0  0  0  0  0  0
   62.3231   35.0131   48.9638 H   0  0  0  0  0  0  0  0  0  0  0  0
   61.0838   33.7835   49.4480 H   0  0  0  0  0  0  0  0  0  0  0  0
   64.7148   34.2686   48.6358 H   0  0  0  0  0  0  0  0  0  0  0  0
   66.5031   32.8624   49.6594 H   0  0  0  0  0  0  0  0  0  0  0  0
   65.8952   30.8946   51.0700 H   0  0  0  0  0  0  0  0  0  0  0  0
   63.4941   30.3260   51.4537 H   0  0  0  0  0  0  0  0  0  0  0  0
   61.6993   31.7251   50.4313 H   0  0  0  0  0  0  0  0  0  0  0  0
   59.4318   33.9815   48.6557 H   0  0  0  0  0  0  0  0  0  0  0  0
   58.1692   34.3377   47.4045 H   0  0  0  0  0  0  0  0  0  0  0  0
   59.5698   31.6853   47.9658 H   0  0  0  0  0  0  0  0  0  0  0  0
   57.8117   32.0758   48.0751 H   0  0  0  0  0  0  0  0  0  0  0  0
   56.8013   28.1743   43.9509 H   0  0  0  0  0  0  0  0  0  0  0  0
  1  2  1  0
  2  3  1  0
  3  4  1  0
  4  5  1  0
  5  6  2  0
  5  7  1  0
  7  8  2  0
  8  9  1  0
  9 10  2  0
 10 11  1  0
 11 12  1  0
 12 13  1  0
 13 14  1  0
 14 15  1  0
 15 16  2  0
 15 17  2  0
 15 18  1  0
 18 19  1  0
 19 20  2  0
 20 21  1  0
 21 22  2  0
 22 23  1  0
 23 24  2  0
 14 25  1  0
 25 26  1  0
 10 27  1  0
 27 28  1  0
 28 29  2  0
 28 30  1  0
 27 31  2  0
 31  7  1  0
 26 11  1  0
 24 19  1  0
  1 32  1  0
  1 33  1  0
  1 34  1  0
  2 35  1  0
  2 36  1  0
  3 37  1  0
  3 38  1  0
  4 39  1  0
  8 40  1  0
  9 41  1  0
 12 42  1  0
 12 43  1  0
 13 44  1  0
 13 45  1  0
 18 46  1  0
 18 47  1  0
 20 48  1  0
 21 49  1  0
 22 50  1  0
 23 51  1  0
 24 52  1  0
 25 53  1  0
 25 54  1  0
 26 55  1  0
 26 56  1  0
 31 57  1  0
M  CHG  2  28   1  30  -1
M  END
>  <UniqueID>  (21) 
16

>  <SMILES>  (21) 
CCCNC(=O)c1ccc(N2CCN(S(=O)(=O)Cc3ccccc3)CC2)c([N+](=O)[O-])c1

>  <Energy>  (21) 
64.88688642591045

>  <Genealogy>  (21) 
CCCNC(=O)c1ccc(N2CCN(S(=O)(=O)Cc3ccccc3)CC2)c([N+](=O)[O-])c1 (3D coordinates assigned)
CCCNC(=O)c1ccc(N2CCN(S(=O)(=O)Cc3ccccc3)CC2)c([N+](=O)[O-])c1 (nonaromatic ring conformer: 64.88688642591045 kcal/mol)

>  <smiles>  (21) 
CCCNC(=O)c1ccc(N2CCN(S(=O)(=O)Cc3ccccc3)CC2)c([N+](=O)[O-])c1

>  <score_type>  (21) 
oracle

>  <origin>  (21) 
adg

>  <m_score__min__energy>  (21) 
-9.1699999999999999

>  <m_primary>  (21) 
energy

$$$$
21:0
     RDKit          3D

 29 31  0  0  0  0  0  0  0  0999 V2000
   56.6590   30.7020   42.3530 O   0  0  0  0  0  0  0  0  0  0  0  0
   57.0820   30.3980   43.5010 C   0  0  0  0  0  0  0  0  0  0  0  0
   57.0580   29.0600   43.9090 C   0  0  0  0  0  0  0  0  0  0  0  0
   57.5270   28.7010   45.1910 C   0  0  0  0  0  0  0  0  0  0  0  0
   57.5290   27.2880   45.6920 C   0  0  0  0  0  0  0  0  0  0  0  0
   56.3030   26.6590   45.9960 C   0  0  0  0  0  0  0  0  0  0  0  0
   56.2630   25.3440   46.4640 C   0  0  0  0  0  0  0  0  0  0  0  0
   57.4470   24.6140   46.6440 C   0  0  0  0  0  0  0  0  0  0  0  0
   57.4020   23.2600   47.1280 N   0  0  0  0  0  0  0  0  0  0  0  0
   57.6800   22.3040   46.3740 O   0  0  0  0  0  0  0  0  0  0  0  0
   57.0510   22.9930   48.4320 O   0  0  0  0  0  0  0  0  0  0  0  0
   58.6730   25.2290   46.3460 C   0  0  0  0  0  0  0  0  0  0  0  0
   58.7160   26.5450   45.8770 C   0  0  0  0  0  0  0  0  0  0  0  0
   57.9980   29.6860   46.0090 N   0  0  0  0  0  0  0  0  0  0  0  0
   58.0380   30.9940   45.6450 C   0  0  0  0  0  0  0  0  0  0  0  0
   58.5360   31.9510   46.5370 C   0  0  0  0  0  0  0  0  0  0  0  0
   58.5770   33.2990   46.1680 C   0  0  0  0  0  0  0  0  0  0  0  0
   59.2580   34.6020   47.3870 Br  0  0  0  0  0  0  0  0  0  0  0  0
   58.1210   33.6940   44.9060 C   0  0  0  0  0  0  0  0  0  0  0  0
   57.6230   32.7450   44.0080 C   0  0  0  0  0  0  0  0  0  0  0  0
   57.5760   31.3860   44.3700 C   0  0  0  0  0  0  0  0  0  0  0  0
   56.6727   28.2859   43.2291 H   0  0  0  0  0  0  0  0  0  0  0  0
   55.3628   27.2140   45.8620 H   0  0  0  0  0  0  0  0  0  0  0  0
   55.2942   24.8764   46.6936 H   0  0  0  0  0  0  0  0  0  0  0  0
   59.6100   24.6693   46.4830 H   0  0  0  0  0  0  0  0  0  0  0  0
   59.6873   27.0083   45.6489 H   0  0  0  0  0  0  0  0  0  0  0  0
   58.8956   31.6421   47.5296 H   0  0  0  0  0  0  0  0  0  0  0  0
   58.1543   34.7554   44.6189 H   0  0  0  0  0  0  0  0  0  0  0  0
   57.2672   33.0614   43.0164 H   0  0  0  0  0  0  0  0  0  0  0  0
  1  2  2  0
  2  3  1  0
  3  4  2  0
  4  5  1  0
  5  6  2  0
  6  7  1  0
  7  8  2  0
  8  9  1  0
  9 10  2  0
  9 11  1  0
  8 12  1  0
 12 13  2  0
  4 14  1  0
 14 15  1  0
 15 16  2  0
 16 17  1  0
 17 18  1  0
 17 19  2  0
 19 20  1  0
 20 21  2  0
 21  2  1  0
 13  5  1  0
 21 15  1  0
  3 22  1  0
  6 23  1  0
  7 24  1  0
 12 25  1  0
 13 26  1  0
 16 27  1  0
 19 28  1  0
 20 29  1  0
M  CHG  3   9   1  11  -1  14  -1
M  END
>  <UniqueID>  (22) 
17

>  <SMILES>  (22) 
O=c1cc(-c2ccc([N+](=O)[O-])cc2)[n-]c2cc(Br)ccc12

>  <Energy>  (22) 
42.556109220113385

>  <Genealogy>  (22) 
O=c1cc(-c2ccc([N+](=O)[O-])cc2)[n-]c2cc(Br)ccc12 (protonated)
O=c1cc(-c2ccc([N+](=O)[O-])cc2)[n-]c2cc(Br)ccc12 (3D coordinates assigned)
O=c1cc(-c2ccc([N+](=O)[O-])cc2)[n-]c2cc(Br)ccc12 (optimized conformer: 42.556109220113385 kcal/mol)

>  <smiles>  (22) 
O=c1cc(-c2ccc([N+](=O)[O-])cc2)[nH]c2cc(Br)ccc12

>  <score_type>  (22) 
oracle

>  <origin>  (22) 
adg

>  <m_score__min__energy>  (22) 
-8.6400000000000006

>  <m_primary>  (22) 
energy

$$$$
22:0
     RDKit          3D

 35 37  0  0  0  0  0  0  0  0999 V2000
   54.3800   28.9660   44.5170 H   0  0  0  0  0  0  0  0  0  0  0  0
   55.1600   29.3910   45.0010 O   0  0  0  0  0  0  0  0  0  0  0  0
   56.4600   28.8800   44.9510 C   0  0  0  0  0  0  0  0  0  0  0  0
   56.6650   27.5470   45.3430 C   0  0  0  0  0  0  0  0  0  0  0  0
   55.5540   26.7920   45.7520 O   0  0  0  0  0  0  0  0  0  0  0  0
   55.5600   25.3810   45.9320 C   0  0  0  0  0  0  0  0  0  0  0  0
   55.5610   25.1485   47.0072 H   0  0  0  0  0  0  0  0  0  0  0  0
   54.6637   24.9478   45.4640 H   0  0  0  0  0  0  0  0  0  0  0  0
   56.4600   24.9555   45.4640 H   0  0  0  0  0  0  0  0  0  0  0  0
   57.9650   27.0090   45.3200 C   0  0  0  0  0  0  0  0  0  0  0  0
   58.1319   25.9680   45.6337 H   0  0  0  0  0  0  0  0  0  0  0  0
   59.0420   27.7880   44.9020 C   0  0  0  0  0  0  0  0  0  0  0  0
   60.0548   27.3592   44.8850 H   0  0  0  0  0  0  0  0  0  0  0  0
   58.8400   29.1100   44.5050 C   0  0  0  0  0  0  0  0  0  0  0  0
   59.6933   29.7135   44.1621 H   0  0  0  0  0  0  0  0  0  0  0  0
   57.5550   29.6760   44.5400 C   0  0  0  0  0  0  0  0  0  0  0  0
   57.3500   31.0710   44.0820 C   0  0  0  0  0  0  0  0  0  0  0  0
   56.5191   31.2704   43.3893 H   0  0  0  0  0  0  0  0  0  0  0  0
   58.0940   32.0750   44.4500 N   0  0  0  0  0  0  0  0  0  0  0  0
   58.4460   32.4290   45.7940 C   0  0  0  0  0  0  0  0  0  0  0  0
   58.5510   31.3010   47.0580 S   0  0  0  0  0  0  0  0  0  0  0  0
   59.0950   32.4390   48.1640 C   0  0  0  0  0  0  0  0  0  0  0  0
   59.2520   33.6430   47.5820 C   0  0  0  0  0  0  0  0  0  0  0  0
   58.9080   33.6820   46.2310 C   0  0  0  0  0  0  0  0  0  0  0  0
   59.1410   34.8230   45.3860 C   0  0  0  0  0  0  0  0  0  0  0  0
   59.3300   35.7400   44.7070 N   0  0  0  0  0  0  0  0  0  0  0  0
   59.9030   34.6200   48.4790 C   0  0  0  0  0  0  0  0  0  0  0  0
   60.8737   34.9425   48.0744 H   0  0  0  0  0  0  0  0  0  0  0  0
   59.3192   35.5428   48.6115 H   0  0  0  0  0  0  0  0  0  0  0  0
   60.0860   33.8180   49.7950 C   0  0  0  0  0  0  0  0  0  0  0  0
   61.1455   33.8225   50.0907 H   0  0  0  0  0  0  0  0  0  0  0  0
   59.4958   34.2721   50.6046 H   0  0  0  0  0  0  0  0  0  0  0  0
   59.6180   32.3640   49.5380 C   0  0  0  0  0  0  0  0  0  0  0  0
   60.4584   31.6575   49.6060 H   0  0  0  0  0  0  0  0  0  0  0  0
   58.8804   32.0036   50.2702 H   0  0  0  0  0  0  0  0  0  0  0  0
  1  2  1  0
  2  3  1  0
  3  4  2  0
  4  5  1  0
  5  6  1  0
  6  7  1  0
  6  8  1  0
  6  9  1  0
  4 10  1  0
 10 11  1  0
 10 12  2  0
 12 13  1  0
 12 14  1  0
 14 15  1  0
 14 16  2  0
 16 17  1  0
 17 18  1  0
 17 19  2  0
 19 20  1  0
 20 21  1  0
 21 22  1  0
 22 23  2  0
 23 24  1  0
 24 25  1  0
 25 26  3  0
 23 27  1  0
 27 28  1  0
 27 29  1  0
 27 30  1  0
 30 31  1  0
 30 32  1  0
 30 33  1  0
 33 34  1  0
 33 35  1  0
 16  3  1  0
 24 20  2  0
 33 22  1  0
M  END
>  <UniqueID>  (23) 
18

>  <SMILES>  (23) 
COc1cccc(/C=N\c2sc3c(c2C#N)CCC3)c1O

>  <Energy>  (23) 
90.83483769465938

>  <Genealogy>  (23) 
COc1cccc(/C=N\c2sc3c(c2C#N)CCC3)c1O (cis-trans isomerization)
COc1cccc(/C=N\c2sc3c(c2C#N)CCC3)c1O (3D coordinates assigned)
COc1cccc(/C=N\c2sc3c(c2C#N)CCC3)c1O (nonaromatic ring conformer: 90.83483769465938 kcal/mol)

>  <smiles>  (23) 
COc1cccc(C=Nc2sc3c(c2C#N)CCC3)c1O

>  <score_type>  (23) 
oracle

>  <origin>  (23) 
adg

>  <m_score__min__energy>  (23) 
-8.8599999999999994

>  <m_primary>  (23) 
energy

$$$$
23:0
     RDKit          3D

 23 23  0  0  0  0  0  0  0  0999 V2000
   57.0480   27.6020   45.5210 C   0  0  0  0  0  0  0  0  0  0  0  0
   55.9040   28.4040   45.2570 O   0  0  0  0  0  0  0  0  0  0  0  0
   55.9960   29.7040   44.7510 C   0  0  0  0  0  0  0  0  0  0  0  0
   55.1940   30.1060   43.8670 O   0  0  0  0  0  0  0  0  0  0  0  0
   57.0060   30.5920   45.2330 N   0  0  0  0  0  0  0  0  0  0  0  0
   57.6130   31.6290   44.4070 C   0  0  0  0  0  0  0  0  0  0  0  0
   57.0240   33.2840   44.9080 S   0  0  0  0  0  0  0  0  0  0  0  0
   58.3260   33.5470   46.1140 C   0  0  0  0  0  0  0  0  0  0  0  0
   58.2620   32.9200   47.3650 C   0  0  0  0  0  0  0  0  0  0  0  0
   59.2800   33.1220   48.3030 C   0  0  0  0  0  0  0  0  0  0  0  0
   60.3670   33.9460   47.9910 C   0  0  0  0  0  0  0  0  0  0  0  0
   61.6420   34.1980   49.1680 Cl  0  0  0  0  0  0  0  0  0  0  0  0
   60.4360   34.5680   46.7390 C   0  0  0  0  0  0  0  0  0  0  0  0
   59.4180   34.3670   45.8010 C   0  0  0  0  0  0  0  0  0  0  0  0
   57.1853   27.5057   46.6081 H   0  0  0  0  0  0  0  0  0  0  0  0
   56.9063   26.6045   45.0796 H   0  0  0  0  0  0  0  0  0  0  0  0
   57.9374   28.0753   45.0796 H   0  0  0  0  0  0  0  0  0  0  0  0
   58.7064   31.5859   44.5196 H   0  0  0  0  0  0  0  0  0  0  0  0
   57.3292   31.4560   43.3584 H   0  0  0  0  0  0  0  0  0  0  0  0
   57.4105   32.2682   47.6100 H   0  0  0  0  0  0  0  0  0  0  0  0
   59.2259   32.6327   49.2867 H   0  0  0  0  0  0  0  0  0  0  0  0
   61.2909   35.2149   46.4927 H   0  0  0  0  0  0  0  0  0  0  0  0
   59.4749   34.8535   44.8161 H   0  0  0  0  0  0  0  0  0  0  0  0
  1  2  1  0
  2  3  1  0
  3  4  2  0
  3  5  1  0
  5  6  1  0
  6  7  1  0
  7  8  1  0
  8  9  2  0
  9 10  1  0
 10 11  2  0
 11 12  1  0
 11 13  1  0
 13 14  2  0
 14  8  1  0
  1 15  1  0
  1 16  1  0
  1 17  1  0
  6 18  1  0
  6 19  1  0
  9 20  1  0
 10 21  1  0
 13 22  1  0
 14 23  1  0
M  CHG  1   5  -1
M  END
>  <UniqueID>  (24) 
19

>  <SMILES>  (24) 
COC(=O)[N-]CSc1ccc(Cl)cc1

>  <Energy>  (24) 
12.506655979153814

>  <Genealogy>  (24) 
COC(=O)[N-]CSc1ccc(Cl)cc1 (protonated)
COC(=O)[N-]CSc1ccc(Cl)cc1 (3D coordinates assigned)
COC(=O)[N-]CSc1ccc(Cl)cc1 (optimized conformer: 12.506655979153814 kcal/mol)

>  <smiles>  (24) 
COC(=O)NCSc1ccc(Cl)cc1

>  <score_type>  (24) 
oracle

>  <origin>  (24) 
adg

>  <m_score__min__energy>  (24) 
-7.71

>  <m_primary>  (24) 
energy

$$$$
24:0
     RDKit          3D

 42 45  0  0  0  0  0  0  0  0999 V2000
   55.3320   29.9920   44.5050 O   0  0  0  0  0  0  0  0  0  0  0  0
   56.4900   30.4880   44.4840 C   0  0  0  0  0  0  0  0  0  0  0  0
   56.6510   31.8780   44.7880 N   0  0  0  0  0  0  0  0  0  0  0  0
   57.8440   32.4970   45.2870 C   0  0  0  0  0  0  0  0  0  0  0  0
   58.1140   33.8610   45.0700 C   0  0  0  0  0  0  0  0  0  0  0  0
   59.2980   34.4320   45.5460 C   0  0  0  0  0  0  0  0  0  0  0  0
   60.2320   33.6460   46.2270 C   0  0  0  0  0  0  0  0  0  0  0  0
   61.3850   34.2010   46.6900 N   0  0  0  0  0  0  0  0  0  0  0  0
   62.3170   33.4630   47.3510 C   0  0  0  0  0  0  0  0  0  0  0  0
   62.1070   32.0990   47.5700 C   0  0  0  0  0  0  0  0  0  0  0  0
   60.9340   31.5000   47.1050 C   0  0  0  0  0  0  0  0  0  0  0  0
   59.9810   32.2710   46.4270 C   0  0  0  0  0  0  0  0  0  0  0  0
   58.7920   31.7040   45.9480 C   0  0  0  0  0  0  0  0  0  0  0  0
   57.6090   29.6930   44.0600 N   0  0  0  0  0  0  0  0  0  0  0  0
   57.6250   28.2560   44.0730 C   0  0  0  0  0  0  0  0  0  0  0  0
   57.4230   27.5750   45.2810 C   0  0  0  0  0  0  0  0  0  0  0  0
   57.4110   26.1780   45.3180 C   0  0  0  0  0  0  0  0  0  0  0  0
   57.5890   25.4330   44.1390 C   0  0  0  0  0  0  0  0  0  0  0  0
   57.5760   23.9480   44.1760 C   0  0  0  0  0  0  0  0  0  0  0  0
   56.6970   23.2200   43.3510 C   0  0  0  0  0  0  0  0  0  0  0  0
   56.6870   21.8210   43.3850 C   0  0  0  0  0  0  0  0  0  0  0  0
   57.5500   21.1350   44.2430 C   0  0  0  0  0  0  0  0  0  0  0  0
   58.4260   21.8460   45.0680 C   0  0  0  0  0  0  0  0  0  0  0  0
   58.4410   23.2440   45.0350 C   0  0  0  0  0  0  0  0  0  0  0  0
   57.7710   26.1160   42.9240 C   0  0  0  0  0  0  0  0  0  0  0  0
   57.7820   27.5130   42.8900 C   0  0  0  0  0  0  0  0  0  0  0  0
   57.3892   34.4815   44.5226 H   0  0  0  0  0  0  0  0  0  0  0  0
   59.4950   35.5021   45.3843 H   0  0  0  0  0  0  0  0  0  0  0  0
   63.2386   33.9413   47.7142 H   0  0  0  0  0  0  0  0  0  0  0  0
   62.8599   31.5014   48.1047 H   0  0  0  0  0  0  0  0  0  0  0  0
   60.7592   30.4267   47.2706 H   0  0  0  0  0  0  0  0  0  0  0  0
   58.6017   30.6302   46.0917 H   0  0  0  0  0  0  0  0  0  0  0  0
   58.4250   30.1920   43.6390 H   0  0  0  0  0  0  0  0  0  0  0  0
   57.2724   28.1457   46.2093 H   0  0  0  0  0  0  0  0  0  0  0  0
   57.2613   25.6580   46.2757 H   0  0  0  0  0  0  0  0  0  0  0  0
   56.0135   23.7548   42.6751 H   0  0  0  0  0  0  0  0  0  0  0  0
   55.9986   21.2607   42.7352 H   0  0  0  0  0  0  0  0  0  0  0  0
   57.5401   20.0354   44.2693 H   0  0  0  0  0  0  0  0  0  0  0  0
   59.1045   21.3052   45.7441 H   0  0  0  0  0  0  0  0  0  0  0  0
   59.1341   23.7978   45.6853 H   0  0  0  0  0  0  0  0  0  0  0  0
   57.9058   25.5464   41.9927 H   0  0  0  0  0  0  0  0  0  0  0  0
   57.9144   28.0349   41.9308 H   0  0  0  0  0  0  0  0  0  0  0  0
  1  2  2  0
  2  3  1  0
  3  4  1  0
  4  5  2  0
  5  6  1  0
  6  7  2  0
  7  8  1  0
  8  9  2  0
  9 10  1  0
 10 11  2  0
 11 12  1  0
 12 13  2  0
  2 14  1  0
 14 15  1  0
 15 16  2  0
 16 17  1  0
 17 18  2  0
 18 19  1  0
 19 20  2  0
 20 21  1  0
 21 22  2  0
 22 23  1  0
 23 24  2  0
 18 25  1  0
 25 26  2  0
 13  4  1  0
 26 15  1  0
 12  7  1  0
 24 19  1  0
  5 27  1  0
  6 28  1  0
  9 29  1  0
 10 30  1  0
 11 31  1  0
 13 32  1  0
 14 33  1  0
 16 34  1  0
 17 35  1  0
 20 36  1  0
 21 37  1  0
 22 38  1  0
 23 39  1  0
 24 40  1  0
 25 41  1  0
 26 42  1  0
M  CHG  1   3  -1
M  END
>  <UniqueID>  (25) 
20

>  <SMILES>  (25) 
O=C([N-]c1ccc2ncccc2c1)Nc1ccc(-c2ccccc2)cc1

>  <Energy>  (25) 
62.46271572325099

>  <Genealogy>  (25) 
O=C([N-]c1ccc2ncccc2c1)Nc1ccc(-c2ccccc2)cc1 (protonated)
O=C([N-]c1ccc2ncccc2c1)Nc1ccc(-c2ccccc2)cc1 (3D coordinates assigned)
O=C([N-]c1ccc2ncccc2c1)Nc1ccc(-c2ccccc2)cc1 (optimized conformer: 62.46271572325099 kcal/mol)

>  <smiles>  (25) 
O=C(Nc1ccc(-c2ccccc2)cc1)Nc1ccc2ncccc2c1

>  <score_type>  (25) 
oracle

>  <origin>  (25) 
adg

>  <m_score__min__energy>  (25) 
-10.56

>  <m_primary>  (25) 
energy

$$$$
25:0
     RDKit          3D

 56 59  0  0  0  0  0  0  0  0999 V2000
   55.6970   28.7060   54.3990 C   0  0  0  0  0  0  0  0  0  0  0  0
   55.8040   30.1260   54.4190 O   0  0  0  0  0  0  0  0  0  0  0  0
   56.6330   30.8340   53.5440 C   0  0  0  0  0  0  0  0  0  0  0  0
   57.7170   31.5390   54.0770 C   0  0  0  0  0  0  0  0  0  0  0  0
   58.5510   32.2910   53.2500 C   0  0  0  0  0  0  0  0  0  0  0  0
   58.3260   32.3320   51.8660 C   0  0  0  0  0  0  0  0  0  0  0  0
   59.1800   33.1870   51.0040 C   0  0  0  0  0  0  0  0  0  0  0  0
   59.0750   34.4390   51.1040 O   0  0  0  0  0  0  0  0  0  0  0  0
   60.1100   32.6230   50.0460 N   0  0  0  0  0  0  0  0  0  0  0  0
   61.5480   32.5940   50.3520 C   0  0  0  0  0  0  0  0  0  0  0  0
   62.3530   32.8220   49.1010 C   0  0  0  0  0  0  0  0  0  0  0  0
   62.2600   34.0310   48.3960 C   0  0  0  0  0  0  0  0  0  0  0  0
   62.9910   34.2110   47.2220 C   0  0  0  0  0  0  0  0  0  0  0  0
   63.8040   33.1770   46.7560 C   0  0  0  0  0  0  0  0  0  0  0  0
   63.8830   32.0060   47.4440 N   0  0  0  0  0  0  0  0  0  0  0  0
   63.1810   31.8080   48.5930 C   0  0  0  0  0  0  0  0  0  0  0  0
   59.6760   32.2680   48.7180 C   0  0  0  0  0  0  0  0  0  0  0  0
   59.8930   30.9770   48.2180 C   0  0  0  0  0  0  0  0  0  0  0  0
   59.3540   30.6020   46.9870 C   0  0  0  0  0  0  0  0  0  0  0  0
   58.5980   31.5280   46.2520 C   0  0  0  0  0  0  0  0  0  0  0  0
   57.9220   31.1400   44.9950 C   0  0  0  0  0  0  0  0  0  0  0  0
   58.0600   31.9570   43.8600 C   0  0  0  0  0  0  0  0  0  0  0  0
   57.3980   31.6360   42.6720 C   0  0  0  0  0  0  0  0  0  0  0  0
   57.5210   32.4440   41.5910 F   0  0  0  0  0  0  0  0  0  0  0  0
   56.6070   30.4870   42.5990 C   0  0  0  0  0  0  0  0  0  0  0  0
   56.4780   29.6560   43.7150 C   0  0  0  0  0  0  0  0  0  0  0  0
   57.1300   29.9760   44.9110 C   0  0  0  0  0  0  0  0  0  0  0  0
   57.0090   29.1370   45.9690 F   0  0  0  0  0  0  0  0  0  0  0  0
   58.4190   32.7850   46.7470 N   0  0  0  0  0  0  0  0  0  0  0  0
   58.9450   33.1760   47.9370 C   0  0  0  0  0  0  0  0  0  0  0  0
   57.2850   31.5610   51.3210 C   0  0  0  0  0  0  0  0  0  0  0  0
   56.4160   30.8290   52.1540 C   0  0  0  0  0  0  0  0  0  0  0  0
   55.3480   30.0820   51.6320 O   0  0  0  0  0  0  0  0  0  0  0  0
   53.9860   30.4920   51.6680 C   0  0  0  0  0  0  0  0  0  0  0  0
   55.6684   28.3259   55.4308 H   0  0  0  0  0  0  0  0  0  0  0  0
   54.7744   28.4152   53.8754 H   0  0  0  0  0  0  0  0  0  0  0  0
   56.5656   28.2802   53.8754 H   0  0  0  0  0  0  0  0  0  0  0  0
   57.9136   31.5000   55.1586 H   0  0  0  0  0  0  0  0  0  0  0  0
   59.3894   32.8548   53.6851 H   0  0  0  0  0  0  0  0  0  0  0  0
   61.7797   33.3839   51.0816 H   0  0  0  0  0  0  0  0  0  0  0  0
   61.8054   31.6090   50.7685 H   0  0  0  0  0  0  0  0  0  0  0  0
   61.6108   34.8369   48.7689 H   0  0  0  0  0  0  0  0  0  0  0  0
   62.9273   35.1594   46.6684 H   0  0  0  0  0  0  0  0  0  0  0  0
   64.3826   33.3091   45.8298 H   0  0  0  0  0  0  0  0  0  0  0  0
   64.4940   31.2400   47.0820 H   0  0  0  0  0  0  0  0  0  0  0  0
   63.2626   30.8493   49.1262 H   0  0  0  0  0  0  0  0  0  0  0  0
   60.4899   30.2574   48.7976 H   0  0  0  0  0  0  0  0  0  0  0  0
   59.5205   29.5876   46.5954 H   0  0  0  0  0  0  0  0  0  0  0  0
   58.6933   32.8552   43.9071 H   0  0  0  0  0  0  0  0  0  0  0  0
   56.0858   30.2364   41.6633 H   0  0  0  0  0  0  0  0  0  0  0  0
   55.8617   28.7470   43.6531 H   0  0  0  0  0  0  0  0  0  0  0  0
   58.7974   34.2075   48.2893 H   0  0  0  0  0  0  0  0  0  0  0  0
   57.1470   31.5287   50.2302 H   0  0  0  0  0  0  0  0  0  0  0  0
   53.6601   30.5901   52.7140 H   0  0  0  0  0  0  0  0  0  0  0  0
   53.8813   31.4615   51.1589 H   0  0  0  0  0  0  0  0  0  0  0  0
   53.3636   29.7414   51.1589 H   0  0  0  0  0  0  0  0  0  0  0  0
  1  2  1  0
  2  3  1  0
  3  4  2  0
  4  5  1  0
  5  6  2  0
  6  7  1  0
  7  8  2  0
  7  9  1  0
  9 10  1  0
 10 11  1  0
 11 12  2  0
 12 13  1  0
 13 14  2  0
 14 15  1  0
 15 16  2  0
  9 17  1  0
 17 18  2  0
 18 19  1  0
 19 20  2  0
 20 21  1  0
 21 22  2  0
 22 23  1  0
 23 24  1  0
 23 25  2  0
 25 26  1  0
 26 27  2  0
 27 28  1  0
 20 29  1  0
 29 30  2  0
  6 31  1  0
 31 32  2  0
 32 33  1  0
 33 34  1  0
 32  3  1  0
 16 11  1  0
 30 17  1  0
 27 21  1  0
  1 35  1  0
  1 36  1  0
  1 37  1  0
  4 38  1  0
  5 39  1  0
 10 40  1  0
 10 41  1  0
 12 42  1  0
 13 43  1  0
 14 44  1  0
 15 45  1  0
 16 46  1  0
 18 47  1  0
 19 48  1  0
 22 49  1  0
 25 50  1  0
 26 51  1  0
 30 52  1  0
 31 53  1  0
 34 54  1  0
 34 55  1  0
 34 56  1  0
M  CHG  1  15   1
M  END
>  <UniqueID>  (26) 
21

>  <SMILES>  (26) 
COc1ccc(C(=O)N(Cc2ccc[nH+]c2)c2ccc(-c3cc(F)ccc3F)nc2)cc1OC

>  <Energy>  (26) 
78.67087287839601

>  <Genealogy>  (26) 
COc1ccc(C(=O)N(Cc2ccc[nH+]c2)c2ccc(-c3cc(F)ccc3F)nc2)cc1OC (protonated)
COc1ccc(C(=O)N(Cc2ccc[nH+]c2)c2ccc(-c3cc(F)ccc3F)nc2)cc1OC (3D coordinates assigned)
COc1ccc(C(=O)N(Cc2ccc[nH+]c2)c2ccc(-c3cc(F)ccc3F)nc2)cc1OC (optimized conformer: 78.67087287839601 kcal/mol)

>  <smiles>  (26) 
COc1ccc(C(=O)N(Cc2cccnc2)c2ccc(-c3cc(F)ccc3F)nc2)cc1OC

>  <score_type>  (26) 
oracle

>  <origin>  (26) 
adg

>  <m_score__min__energy>  (26) 
-7.8899999999999997

>  <m_primary>  (26) 
energy

$$$$
26:0
     RDKit          3D

 39 41  0  0  0  0  0  0  0  0999 V2000
   64.5350   32.5110   49.2730 C   0  0  0  0  0  0  0  0  0  0  0  0
   63.3490   33.1120   48.5790 C   0  0  0  0  0  0  0  0  0  0  0  0
   63.3100   33.1540   47.1760 C   0  0  0  0  0  0  0  0  0  0  0  0
   62.2130   33.7170   46.5190 C   0  0  0  0  0  0  0  0  0  0  0  0
   61.1430   34.2440   47.2540 C   0  0  0  0  0  0  0  0  0  0  0  0
   59.7530   34.9420   46.4300 S   0  0  0  0  0  0  0  0  0  0  0  0
   58.5810   34.9460   47.3700 O   0  0  0  0  0  0  0  0  0  0  0  0
   60.0430   36.3540   46.0030 O   0  0  0  0  0  0  0  0  0  0  0  0
   59.3550   33.9980   45.0310 N   0  0  0  0  0  0  0  0  0  0  0  0
   58.6670   32.7390   45.0510 C   0  0  0  0  0  0  0  0  0  0  0  0
   57.7650   32.3620   44.0410 C   0  0  0  0  0  0  0  0  0  0  0  0
   57.1230   31.1220   44.0970 C   0  0  0  0  0  0  0  0  0  0  0  0
   57.3560   30.2450   45.1690 C   0  0  0  0  0  0  0  0  0  0  0  0
   56.6850   28.9250   45.2110 C   0  0  0  0  0  0  0  0  0  0  0  0
   55.4740   28.8400   44.8740 O   0  0  0  0  0  0  0  0  0  0  0  0
   57.3810   27.7210   45.5680 N   0  0  0  0  0  0  0  0  0  0  0  0
   56.8420   26.5440   45.6960 C   0  0  0  0  0  0  0  0  0  0  0  0
   57.5360   25.3860   45.6620 N   0  0  0  0  0  0  0  0  0  0  0  0
   56.5920   24.4430   45.8630 C   0  0  0  0  0  0  0  0  0  0  0  0
   55.3620   25.0460   46.0200 C   0  0  0  0  0  0  0  0  0  0  0  0
   55.5260   26.3740   45.9180 N   0  0  0  0  0  0  0  0  0  0  0  0
   58.2670   30.6220   46.1710 C   0  0  0  0  0  0  0  0  0  0  0  0
   58.9090   31.8610   46.1130 C   0  0  0  0  0  0  0  0  0  0  0  0
   61.1840   34.2120   48.6540 C   0  0  0  0  0  0  0  0  0  0  0  0
   62.2810   33.6490   49.3150 C   0  0  0  0  0  0  0  0  0  0  0  0
   64.3969   32.5810   50.3620 H   0  0  0  0  0  0  0  0  0  0  0  0
   64.6330   31.4545   48.9830 H   0  0  0  0  0  0  0  0  0  0  0  0
   65.4450   33.0568   48.9830 H   0  0  0  0  0  0  0  0  0  0  0  0
   64.1462   32.7421   46.5920 H   0  0  0  0  0  0  0  0  0  0  0  0
   62.1893   33.7466   45.4197 H   0  0  0  0  0  0  0  0  0  0  0  0
   57.5637   33.0458   43.2032 H   0  0  0  0  0  0  0  0  0  0  0  0
   56.4293   30.8303   43.2947 H   0  0  0  0  0  0  0  0  0  0  0  0
   56.7756   23.3590   45.8965 H   0  0  0  0  0  0  0  0  0  0  0  0
   54.4087   24.5269   46.1985 H   0  0  0  0  0  0  0  0  0  0  0  0
   54.7890   27.1100   45.9970 H   0  0  0  0  0  0  0  0  0  0  0  0
   58.4755   29.9369   47.0060 H   0  0  0  0  0  0  0  0  0  0  0  0
   59.6111   32.1490   46.9093 H   0  0  0  0  0  0  0  0  0  0  0  0
   60.3501   34.6313   49.2360 H   0  0  0  0  0  0  0  0  0  0  0  0
   62.3067   33.6271   50.4145 H   0  0  0  0  0  0  0  0  0  0  0  0
  1  2  1  0
  2  3  2  0
  3  4  1  0
  4  5  2  0
  5  6  1  0
  6  7  2  0
  6  8  2  0
  6  9  1  0
  9 10  1  0
 10 11  2  0
 11 12  1  0
 12 13  2  0
 13 14  1  0
 14 15  2  0
 14 16  1  0
 16 17  2  3
 17 18  1  0
 18 19  1  0
 19 20  2  0
 20 21  1  0
 13 22  1  0
 22 23  2  0
  5 24  1  0
 24 25  2  0
 25  2  1  0
 23 10  1  0
 21 17  1  0
  1 26  1  0
  1 27  1  0
  1 28  1  0
  3 29  1  0
  4 30  1  0
 11 31  1  0
 12 32  1  0
 19 33  1  0
 20 34  1  0
 21 35  1  0
 22 36  1  0
 23 37  1  0
 24 38  1  0
 25 39  1  0
M  CHG  2   9  -1  18  -1
M  END
>  <UniqueID>  (27) 
22

>  <SMILES>  (27) 
Cc1ccc(S(=O)(=O)[N-]c2ccc(C(=O)N=c3[n-]cc[nH]3)cc2)cc1

>  <Energy>  (27) 
80.19217083629016

>  <Genealogy>  (27) 
Cc1ccc(S(=O)(=O)[N-]c2ccc(C(=O)N=c3[n-]cc[nH]3)cc2)cc1 (protonated)
Cc1ccc(S(=O)(=O)[N-]c2ccc(C(=O)N=c3[n-]cc[nH]3)cc2)cc1 (3D coordinates assigned)
Cc1ccc(S(=O)(=O)[N-]c2ccc(C(=O)N=c3[n-]cc[nH]3)cc2)cc1 (optimized conformer: 80.19217083629016 kcal/mol)

>  <smiles>  (27) 
Cc1ccc(S(=O)(=O)Nc2ccc(C(=O)N=c3[nH]cc[nH]3)cc2)cc1

>  <score_type>  (27) 
oracle

>  <origin>  (27) 
adg

>  <m_score__min__energy>  (27) 
-11.07

>  <m_primary>  (27) 
energy

$$$$
27:0
     RDKit          3D

 58 61  0  0  0  0  0  0  0  0999 V2000
   59.1200   33.9894   51.5601 H   0  0  0  0  0  0  0  0  0  0  0  0
   58.8490   32.9670   51.2580 C   0  0  0  0  0  0  0  0  0  0  0  0
   59.1310   32.5220   49.9620 C   0  0  0  0  0  0  0  0  0  0  0  0
   59.6348   33.1932   49.2509 H   0  0  0  0  0  0  0  0  0  0  0  0
   58.7740   31.2210   49.5630 C   0  0  0  0  0  0  0  0  0  0  0  0
   59.0870   30.7600   48.1940 C   0  0  0  0  0  0  0  0  0  0  0  0
   58.1340   30.1460   47.4360 N   0  0  0  0  0  0  0  0  0  0  0  0
   58.5710   29.8610   46.1910 C   0  0  0  0  0  0  0  0  0  0  0  0
   57.8170   29.2470   45.3240 N   0  0  0  0  0  0  0  0  0  0  0  0
   56.5750   29.6880   44.7480 C   0  0  0  0  0  0  0  0  0  0  0  0
   55.5570   28.9600   44.8880 O   0  0  0  0  0  0  0  0  0  0  0  0
   56.4140   31.0250   44.0780 C   0  0  0  0  0  0  0  0  0  0  0  0
   56.0516   31.7558   44.8160 H   0  0  0  0  0  0  0  0  0  0  0  0
   55.6931   30.9194   43.2539 H   0  0  0  0  0  0  0  0  0  0  0  0
   57.7510   31.5160   43.4990 C   0  0  0  0  0  0  0  0  0  0  0  0
   57.6392   31.6403   42.4118 H   0  0  0  0  0  0  0  0  0  0  0  0
   58.5158   30.7650   43.7461 H   0  0  0  0  0  0  0  0  0  0  0  0
   58.2030   32.8550   44.1030 C   0  0  0  0  0  0  0  0  0  0  0  0
   58.1517   33.6290   43.3230 H   0  0  0  0  0  0  0  0  0  0  0  0
   59.2295   32.7237   44.4759 H   0  0  0  0  0  0  0  0  0  0  0  0
   57.3270   33.2920   45.2900 C   0  0  0  0  0  0  0  0  0  0  0  0
   56.6960   32.4439   45.5944 H   0  0  0  0  0  0  0  0  0  0  0  0
   56.7201   34.1485   44.9614 H   0  0  0  0  0  0  0  0  0  0  0  0
   58.1610   33.7450   46.4980 C   0  0  0  0  0  0  0  0  0  0  0  0
   58.5067   32.8530   47.0410 H   0  0  0  0  0  0  0  0  0  0  0  0
   57.5183   34.3803   47.1252 H   0  0  0  0  0  0  0  0  0  0  0  0
   59.3800   34.5760   46.0970 C   0  0  0  0  0  0  0  0  0  0  0  0
   59.8971   34.9285   47.0016 H   0  0  0  0  0  0  0  0  0  0  0  0
   60.0659   33.9566   45.5004 H   0  0  0  0  0  0  0  0  0  0  0  0
   59.0541   35.4408   45.5004 H   0  0  0  0  0  0  0  0  0  0  0  0
   60.1750   30.3330   45.9800 S   0  0  0  0  0  0  0  0  0  0  0  0
   60.3180   30.9450   47.5420 C   0  0  0  0  0  0  0  0  0  0  0  0
   61.5800   31.4660   48.1050 C   0  0  0  0  0  0  0  0  0  0  0  0
   62.0660   30.9990   49.3380 C   0  0  0  0  0  0  0  0  0  0  0  0
   61.4964   30.2432   49.8987 H   0  0  0  0  0  0  0  0  0  0  0  0
   63.2680   31.4880   49.8570 C   0  0  0  0  0  0  0  0  0  0  0  0
   63.6315   31.1277   50.8307 H   0  0  0  0  0  0  0  0  0  0  0  0
   64.0120   32.4360   49.1410 C   0  0  0  0  0  0  0  0  0  0  0  0
   65.2840   32.9830   49.7200 C   0  0  0  0  0  0  0  0  0  0  0  0
   65.2272   32.9586   50.8183 H   0  0  0  0  0  0  0  0  0  0  0  0
   66.1334   32.3706   49.3831 H   0  0  0  0  0  0  0  0  0  0  0  0
   65.4237   34.0208   49.3831 H   0  0  0  0  0  0  0  0  0  0  0  0
   63.5300   32.9060   47.9090 C   0  0  0  0  0  0  0  0  0  0  0  0
   64.0992   33.6637   47.3505 H   0  0  0  0  0  0  0  0  0  0  0  0
   62.3290   32.4140   47.3900 C   0  0  0  0  0  0  0  0  0  0  0  0
   61.9682   32.7721   46.4145 H   0  0  0  0  0  0  0  0  0  0  0  0
   58.1570   30.3620   50.4910 C   0  0  0  0  0  0  0  0  0  0  0  0
   57.9057   29.3309   50.2017 H   0  0  0  0  0  0  0  0  0  0  0  0
   57.8630   30.8160   51.7790 C   0  0  0  0  0  0  0  0  0  0  0  0
   58.2230   32.1120   52.1680 C   0  0  0  0  0  0  0  0  0  0  0  0
   57.9540   32.5320   53.4740 O   0  0  0  0  0  0  0  0  0  0  0  0
   57.5720   31.5980   54.4860 C   0  0  0  0  0  0  0  0  0  0  0  0
   57.0420   32.1307   55.2893 H   0  0  0  0  0  0  0  0  0  0  0  0
   58.4760   31.1148   54.8851 H   0  0  0  0  0  0  0  0  0  0  0  0
   56.6490   30.5200   53.8990 C   0  0  0  0  0  0  0  0  0  0  0  0
   55.6676   30.9645   53.6767 H   0  0  0  0  0  0  0  0  0  0  0  0
   56.5376   29.7070   54.6316 H   0  0  0  0  0  0  0  0  0  0  0  0
   57.2090   29.9880   52.6960 O   0  0  0  0  0  0  0  0  0  0  0  0
  1  2  1  0
  2  3  2  0
  3  4  1  0
  3  5  1  0
  5  6  1  0
  6  7  1  0
  7  8  1  0
  8  9  2  0
  9 10  1  0
 10 11  2  0
 10 12  1  0
 12 13  1  0
 12 14  1  0
 12 15  1  0
 15 16  1  0
 15 17  1  0
 15 18  1  0
 18 19  1  0
 18 20  1  0
 18 21  1  0
 21 22  1  0
 21 23  1  0
 21 24  1  0
 24 25  1  0
 24 26  1  0
 24 27  1  0
 27 28  1  0
 27 29  1  0
 27 30  1  0
  8 31  1  0
 31 32  1  0
 32 33  1  0
 33 34  2  0
 34 35  1  0
 34 36  1  0
 36 37  1  0
 36 38  2  0
 38 39  1  0
 39 40  1  0
 39 41  1  0
 39 42  1  0
 38 43  1  0
 43 44  1  0
 43 45  2  0
 45 46  1  0
  5 47  2  0
 47 48  1  0
 47 49  1  0
 49 50  2  0
 50 51  1  0
 51 52  1  0
 52 53  1  0
 52 54  1  0
 52 55  1  0
 55 56  1  0
 55 57  1  0
 55 58  1  0
 50  2  1  0
 32  6  2  0
 45 33  1  0
 58 49  1  0
M  CHG  1   7  -1
M  END
>  <UniqueID>  (28) 
23

>  <SMILES>  (28) 
CCCCCCC(=O)/N=c1/[n-]c(-c2ccc3c(c2)OCCO3)c(-c2ccc(C)cc2)s1

>  <Energy>  (28) 
96.61398830869572

>  <Genealogy>  (28) 
CCCCCCC(=O)N=c1[n-]c(-c2ccc3c(c2)OCCO3)c(-c2ccc(C)cc2)s1 (protonated)
CCCCCCC(=O)/N=c1/[n-]c(-c2ccc3c(c2)OCCO3)c(-c2ccc(C)cc2)s1 (cis-trans isomerization)
CCCCCCC(=O)/N=c1/[n-]c(-c2ccc3c(c2)OCCO3)c(-c2ccc(C)cc2)s1 (3D coordinates assigned)
CCCCCCC(=O)/N=c1/[n-]c(-c2ccc3c(c2)OCCO3)c(-c2ccc(C)cc2)s1 (nonaromatic ring conformer: 96.61398830869572 kcal/mol)

>  <smiles>  (28) 
CCCCCCC(=O)N=c1[nH]c(-c2ccc3c(c2)OCCO3)c(-c2ccc(C)cc2)s1

>  <score_type>  (28) 
oracle

>  <origin>  (28) 
adg

>  <m_score__min__energy>  (28) 
-9.6600000000000001

>  <m_primary>  (28) 
energy

$$$$
28:0
     RDKit          3D

 28 30  0  0  0  0  0  0  0  0999 V2000
   55.1500   29.3320   44.4670 O   0  0  0  0  0  0  0  0  0  0  0  0
   56.2860   29.7140   44.8580 C   0  0  0  0  0  0  0  0  0  0  0  0
   56.9140   29.0830   45.9820 N   0  0  0  0  0  0  0  0  0  0  0  0
   58.1830   28.4140   45.9930 C   0  0  0  0  0  0  0  0  0  0  0  0
   58.4220   27.2740   46.7850 C   0  0  0  0  0  0  0  0  0  0  0  0
   59.6820   26.6680   46.7820 C   0  0  0  0  0  0  0  0  0  0  0  0
   60.7140   27.1980   46.0050 C   0  0  0  0  0  0  0  0  0  0  0  0
   60.4910   28.3430   45.2360 C   0  0  0  0  0  0  0  0  0  0  0  0
   59.2310   28.9530   45.2360 C   0  0  0  0  0  0  0  0  0  0  0  0
   56.9510   30.7880   44.1690 N   0  0  0  0  0  0  0  0  0  0  0  0
   56.9850   30.8950   42.8130 C   0  0  0  0  0  0  0  0  0  0  0  0
   56.4560   30.0580   42.0340 O   0  0  0  0  0  0  0  0  0  0  0  0
   57.7860   32.2820   42.2830 S   0  0  0  0  0  0  0  0  0  0  0  0
   58.1160   32.7710   43.8540 C   0  0  0  0  0  0  0  0  0  0  0  0
   58.8160   33.9020   44.2670 C   0  0  0  0  0  0  0  0  0  0  0  0
   59.0120   34.0970   45.6400 C   0  0  0  0  0  0  0  0  0  0  0  0
   58.5200   33.1610   46.5680 C   0  0  0  0  0  0  0  0  0  0  0  0
   57.8180   32.0250   46.1330 C   0  0  0  0  0  0  0  0  0  0  0  0
   57.5990   31.8430   44.7550 C   0  0  0  0  0  0  0  0  0  0  0  0
   57.6153   26.8594   47.4074 H   0  0  0  0  0  0  0  0  0  0  0  0
   59.8608   25.7712   47.3934 H   0  0  0  0  0  0  0  0  0  0  0  0
   61.7020   26.7144   45.9983 H   0  0  0  0  0  0  0  0  0  0  0  0
   61.3061   28.7655   44.6301 H   0  0  0  0  0  0  0  0  0  0  0  0
   59.0630   29.8609   44.6380 H   0  0  0  0  0  0  0  0  0  0  0  0
   59.2050   34.6237   43.5336 H   0  0  0  0  0  0  0  0  0  0  0  0
   59.5534   34.9865   45.9946 H   0  0  0  0  0  0  0  0  0  0  0  0
   58.6866   33.3203   47.6436 H   0  0  0  0  0  0  0  0  0  0  0  0
   57.4447   31.2880   46.8593 H   0  0  0  0  0  0  0  0  0  0  0  0
  1  2  2  0
  2  3  1  0
  3  4  1  0
  4  5  2  0
  5  6  1  0
  6  7  2  0
  7  8  1  0
  8  9  2  0
  2 10  1  0
 10 11  1  0
 11 12  2  0
 11 13  1  0
 13 14  1  0
 14 15  2  0
 15 16  1  0
 16 17  2  0
 17 18  1  0
 18 19  2  0
  9  4  1  0
 19 10  1  0
 19 14  1  0
  5 20  1  0
  6 21  1  0
  7 22  1  0
  8 23  1  0
  9 24  1  0
 15 25  1  0
 16 26  1  0
 17 27  1  0
 18 28  1  0
M  CHG  1   3  -1
M  END
>  <UniqueID>  (29) 
24

>  <SMILES>  (29) 
O=C([N-]c1ccccc1)n1c(=O)sc2ccccc21

>  <Energy>  (29) 
76.05632125135823

>  <Genealogy>  (29) 
O=C([N-]c1ccccc1)n1c(=O)sc2ccccc21 (protonated)
O=C([N-]c1ccccc1)n1c(=O)sc2ccccc21 (3D coordinates assigned)
O=C([N-]c1ccccc1)n1c(=O)sc2ccccc21 (optimized conformer: 76.05632125135823 kcal/mol)

>  <smiles>  (29) 
O=C(Nc1ccccc1)n1c(=O)sc2ccccc21

>  <score_type>  (29) 
oracle

>  <origin>  (29) 
adg

>  <m_score__min__energy>  (29) 
-8.8800000000000008

>  <m_primary>  (29) 
energy

$$$$
29:0
     RDKit          3D

 41 44  0  0  0  0  0  0  0  0999 V2000
   58.8860   34.9690   47.9350 O   0  0  0  0  0  0  0  0  0  0  0  0
   59.7690   34.6610   46.7590 S   0  0  0  0  0  0  0  0  0  0  0  0
   60.0040   35.9350   45.9960 O   0  0  0  0  0  0  0  0  0  0  0  0
   61.3340   34.0610   47.2990 C   0  0  0  0  0  0  0  0  0  0  0  0
   62.3340   33.7310   46.3710 C   0  0  0  0  0  0  0  0  0  0  0  0
   63.5840   33.2880   46.8160 C   0  0  0  0  0  0  0  0  0  0  0  0
   63.8390   33.1710   48.1850 C   0  0  0  0  0  0  0  0  0  0  0  0
   62.8440   33.4910   49.1120 C   0  0  0  0  0  0  0  0  0  0  0  0
   63.0930   33.3800   50.4400 F   0  0  0  0  0  0  0  0  0  0  0  0
   61.5920   33.9340   48.6710 C   0  0  0  0  0  0  0  0  0  0  0  0
   58.9600   33.4620   45.7290 C   0  0  0  0  0  0  0  0  0  0  0  0
   58.5280   33.8530   44.4560 C   0  0  0  0  0  0  0  0  0  0  0  0
   57.9120   32.9740   43.6270 N   0  0  0  0  0  0  0  0  0  0  0  0
   57.6800   31.6820   43.9920 C   0  0  0  0  0  0  0  0  0  0  0  0
   57.0340   30.7990   43.1070 C   0  0  0  0  0  0  0  0  0  0  0  0
   56.6380   31.2170   41.8780 F   0  0  0  0  0  0  0  0  0  0  0  0
   56.7910   29.4780   43.4840 C   0  0  0  0  0  0  0  0  0  0  0  0
   57.1830   29.0230   44.7420 C   0  0  0  0  0  0  0  0  0  0  0  0
   57.8250   29.8860   45.6320 C   0  0  0  0  0  0  0  0  0  0  0  0
   58.0890   31.2250   45.2710 C   0  0  0  0  0  0  0  0  0  0  0  0
   58.7390   32.1290   46.1480 C   0  0  0  0  0  0  0  0  0  0  0  0
   59.2000   31.6770   47.4810 C   0  0  0  0  0  0  0  0  0  0  0  0
   58.5230   32.1050   48.6340 C   0  0  0  0  0  0  0  0  0  0  0  0
   58.9460   31.6790   49.8970 C   0  0  0  0  0  0  0  0  0  0  0  0
   60.0520   30.8330   50.0150 C   0  0  0  0  0  0  0  0  0  0  0  0
   60.7440   30.4210   48.8720 C   0  0  0  0  0  0  0  0  0  0  0  0
   60.3250   30.8450   47.6070 C   0  0  0  0  0  0  0  0  0  0  0  0
   61.0200   30.4550   46.5080 F   0  0  0  0  0  0  0  0  0  0  0  0
   62.1346   33.8208   45.2930 H   0  0  0  0  0  0  0  0  0  0  0  0
   64.3672   33.0314   46.0874 H   0  0  0  0  0  0  0  0  0  0  0  0
   64.8240   32.8266   48.5330 H   0  0  0  0  0  0  0  0  0  0  0  0
   60.8089   34.1830   49.4023 H   0  0  0  0  0  0  0  0  0  0  0  0
   58.6906   34.8887   44.1232 H   0  0  0  0  0  0  0  0  0  0  0  0
   57.6120   33.3200   42.6870 H   0  0  0  0  0  0  0  0  0  0  0  0
   56.2881   28.7927   42.7858 H   0  0  0  0  0  0  0  0  0  0  0  0
   56.9859   27.9810   45.0343 H   0  0  0  0  0  0  0  0  0  0  0  0
   58.1280   29.5192   46.6238 H   0  0  0  0  0  0  0  0  0  0  0  0
   57.6572   32.7775   48.5437 H   0  0  0  0  0  0  0  0  0  0  0  0
   58.4081   32.0099   50.7977 H   0  0  0  0  0  0  0  0  0  0  0  0
   60.3785   30.4908   51.0081 H   0  0  0  0  0  0  0  0  0  0  0  0
   61.6196   29.7621   48.9680 H   0  0  0  0  0  0  0  0  0  0  0  0
  1  2  2  0
  2  3  2  0
  2  4  1  0
  4  5  2  0
  5  6  1  0
  6  7  2  0
  7  8  1  0
  8  9  1  0
  8 10  2  0
  2 11  1  0
 11 12  2  0
 12 13  1  0
 13 14  2  0
 14 15  1  0
 15 16  1  0
 15 17  2  0
 17 18  1  0
 18 19  2  0
 19 20  1  0
 20 21  2  0
 21 22  1  0
 22 23  2  0
 23 24  1  0
 24 25  2  0
 25 26  1  0
 26 27  2  0
 27 28  1  0
 10  4  1  0
 21 11  1  0
 27 22  1  0
 20 14  1  0
  5 29  1  0
  6 30  1  0
  7 31  1  0
 10 32  1  0
 12 33  1  0
 13 34  1  0
 17 35  1  0
 18 36  1  0
 19 37  1  0
 23 38  1  0
 24 39  1  0
 25 40  1  0
 26 41  1  0
M  CHG  1  13   1
M  END
>  <UniqueID>  (30) 
25

>  <SMILES>  (30) 
O=S(=O)(c1cccc(F)c1)c1c[nH+]c2c(F)cccc2c1-c1ccccc1F

>  <Energy>  (30) 
59.86398852068605

>  <Genealogy>  (30) 
O=S(=O)(c1cccc(F)c1)c1c[nH+]c2c(F)cccc2c1-c1ccccc1F (protonated)
O=S(=O)(c1cccc(F)c1)c1c[nH+]c2c(F)cccc2c1-c1ccccc1F (3D coordinates assigned)
O=S(=O)(c1cccc(F)c1)c1c[nH+]c2c(F)cccc2c1-c1ccccc1F (optimized conformer: 59.86398852068605 kcal/mol)

>  <smiles>  (30) 
O=S(=O)(c1cccc(F)c1)c1cnc2c(F)cccc2c1-c1ccccc1F

>  <score_type>  (30) 
oracle

>  <origin>  (30) 
adg

>  <m_score__min__energy>  (30) 
-7.2199999999999998

>  <m_primary>  (30) 
energy

$$$$
30:0
     RDKit          3D

 36 37  0  0  1  0  0  0  0  0999 V2000
   60.4110   27.0880   48.7380 C   0  0  0  0  0  0  0  0  0  0  0  0
   59.4130   26.4120   48.0370 O   0  0  0  0  0  0  0  0  0  0  0  0
   58.5730   26.9190   47.0910 C   0  0  0  0  0  0  0  0  0  0  0  0
   58.9140   27.9320   46.2090 C   0  0  0  0  0  0  0  0  0  0  0  0
   58.0110   28.4000   45.2720 C   0  0  0  0  0  0  0  0  0  0  0  0
   58.2910   29.3430   44.4330 N   0  0  0  0  0  0  0  0  0  0  0  0
   56.9950   30.3170   43.8360 S   0  0  0  0  0  0  0  0  0  0  0  0
   56.4910   29.7360   42.5390 O   0  0  0  0  0  0  0  0  0  0  0  0
   55.9120   30.2910   44.8650 O   0  0  0  0  0  0  0  0  0  0  0  0
   57.5490   31.9520   43.4990 C   0  0  0  0  0  0  0  0  0  0  0  0
   58.0070   32.6960   44.6730 C   0  0  0  0  0  0  0  0  0  0  0  0
   58.6740   33.8970   44.5280 C   0  0  0  0  0  0  0  0  0  0  0  0
   59.1190   34.6210   45.6190 C   0  0  0  0  0  0  0  0  0  0  0  0
   58.8900   34.1330   46.8740 C   0  0  0  0  0  0  0  0  0  0  0  0
   58.2270   32.9390   47.0260 C   0  0  0  0  0  0  0  0  0  0  0  0
   57.7750   32.1990   45.9520 C   0  0  0  0  0  0  0  0  0  0  0  0
   56.8040   27.8440   45.2490 N   0  0  0  0  0  0  0  0  0  0  0  0
   56.4460   26.8600   46.0920 C   0  0  0  0  0  0  0  0  0  0  0  0
   55.1600   26.3260   46.0060 O   0  0  0  0  0  0  0  0  0  0  0  0
   55.0050   24.9810   45.6180 C   0  0  0  0  0  0  0  0  0  0  0  0
   57.3300   26.4100   47.0000 N   0  0  0  0  0  0  0  0  0  0  0  0
   60.2418   26.9734   49.8188 H   0  0  0  0  0  0  0  0  0  0  0  0
   61.3930   26.6683   48.4741 H   0  0  0  0  0  0  0  0  0  0  0  0
   60.3856   28.1556   48.4741 H   0  0  0  0  0  0  0  0  0  0  0  0
   59.9212   28.3718   46.2550 H   0  0  0  0  0  0  0  0  0  0  0  0
   58.3835   31.8908   42.7850 H   0  0  0  0  0  0  0  0  0  0  0  0
   56.6806   32.4992   43.1034 H   0  0  0  0  0  0  0  0  0  0  0  0
   58.8563   34.2885   43.5163 H   0  0  0  0  0  0  0  0  0  0  0  0
   59.6489   35.5746   45.4783 H   0  0  0  0  0  0  0  0  0  0  0  0
   59.2339   34.6919   47.7568 H   0  0  0  0  0  0  0  0  0  0  0  0
   58.0497   32.5583   48.0427 H   0  0  0  0  0  0  0  0  0  0  0  0
   57.2475   31.2455   46.1025 H   0  0  0  0  0  0  0  0  0  0  0  0
   54.9319   24.3470   46.5139 H   0  0  0  0  0  0  0  0  0  0  0  0
   54.0888   24.8756   45.0185 H   0  0  0  0  0  0  0  0  0  0  0  0
   55.8732   24.6699   45.0185 H   0  0  0  0  0  0  0  0  0  0  0  0
   57.0440   25.6420   47.6550 H   0  0  0  0  0  0  0  0  0  0  0  0
  1  2  1  0
  2  3  1  0
  3  4  2  0
  4  5  1  0
  5  6  2  0
  6  7  1  0
  7  8  2  0
  7  9  2  0
  7 10  1  0
 10 11  1  0
 11 12  2  0
 12 13  1  0
 13 14  2  0
 14 15  1  0
 15 16  2  0
  5 17  1  0
 17 18  2  0
 18 19  1  0
 19 20  1  0
 18 21  1  0
 21  3  1  0
 16 11  1  0
  1 22  1  0
  1 23  1  0
  1 24  1  0
  4 25  1  0
 10 26  1  0
 10 27  1  0
 12 28  1  0
 13 29  1  0
 14 30  1  0
 15 31  1  0
 16 32  1  0
 20 33  1  0
 20 34  1  0
 20 35  1  0
 21 36  1  0
M  END
>  <smiles>  (31) 
COc1cc(=NS(=O)(=O)Cc2ccccc2)nc(OC)[nH]1

>  <score_type>  (31) 
oracle

>  <origin>  (31) 
adg

>  <m_score__min__energy>  (31) 
-7.7300000000000004

>  <m_primary>  (31) 
energy

$$$$
31:0
     RDKit          3D

 47 50  0  0  0  0  0  0  0  0999 V2000
   57.4210   32.1130   41.4870 C   0  0  0  0  0  0  0  0  0  0  0  0
   58.2180   31.9350   42.6530 O   0  0  0  0  0  0  0  0  0  0  0  0
   58.0800   32.6790   43.8360 C   0  0  0  0  0  0  0  0  0  0  0  0
   58.9270   33.7670   44.1260 C   0  0  0  0  0  0  0  0  0  0  0  0
   58.8160   34.4470   45.3400 C   0  0  0  0  0  0  0  0  0  0  0  0
   57.8680   34.0490   46.2810 C   0  0  0  0  0  0  0  0  0  0  0  0
   57.0120   32.9820   46.0010 C   0  0  0  0  0  0  0  0  0  0  0  0
   57.0880   32.3110   44.7730 C   0  0  0  0  0  0  0  0  0  0  0  0
   56.1540   31.2490   44.5210 N   0  0  0  0  0  0  0  0  0  0  0  0
   56.3310   29.8670   44.8560 C   0  0  0  0  0  0  0  0  0  0  0  0
   55.4740   29.0320   44.4640 O   0  0  0  0  0  0  0  0  0  0  0  0
   57.4560   29.4160   45.6270 N   0  0  0  0  0  0  0  0  0  0  0  0
   58.2600   30.2150   46.3660 C   0  0  0  0  0  0  0  0  0  0  0  0
   59.3060   29.4790   46.9150 C   0  0  0  0  0  0  0  0  0  0  0  0
   60.4240   30.0220   47.7170 C   0  0  0  0  0  0  0  0  0  0  0  0
   61.1380   29.2430   48.4040 O   0  0  0  0  0  0  0  0  0  0  0  0
   60.6820   31.4340   47.7400 N   0  0  0  0  0  0  0  0  0  0  0  0
   61.9450   32.0120   48.1150 C   0  0  0  0  0  0  0  0  0  0  0  0
   62.5850   31.6630   49.3190 C   0  0  0  0  0  0  0  0  0  0  0  0
   63.8250   32.2190   49.6460 C   0  0  0  0  0  0  0  0  0  0  0  0
   64.4440   33.1150   48.7710 C   0  0  0  0  0  0  0  0  0  0  0  0
   63.8250   33.4530   47.5650 C   0  0  0  0  0  0  0  0  0  0  0  0
   62.5840   32.9000   47.2340 C   0  0  0  0  0  0  0  0  0  0  0  0
   59.1010   28.1710   46.4990 C   0  0  0  0  0  0  0  0  0  0  0  0
   59.8140   26.9940   46.7530 C   0  0  0  0  0  0  0  0  0  0  0  0
   59.3260   25.7950   46.2060 C   0  0  0  0  0  0  0  0  0  0  0  0
   58.1440   25.7870   45.4390 C   0  0  0  0  0  0  0  0  0  0  0  0
   57.4420   26.9800   45.2010 C   0  0  0  0  0  0  0  0  0  0  0  0
   57.9610   28.1680   45.7280 C   0  0  0  0  0  0  0  0  0  0  0  0
   56.3867   32.3440   41.7816 H   0  0  0  0  0  0  0  0  0  0  0  0
   57.8260   32.9428   40.8892 H   0  0  0  0  0  0  0  0  0  0  0  0
   57.4345   31.1897   40.8892 H   0  0  0  0  0  0  0  0  0  0  0  0
   59.6813   34.0829   43.3903 H   0  0  0  0  0  0  0  0  0  0  0  0
   59.4781   35.2988   45.5545 H   0  0  0  0  0  0  0  0  0  0  0  0
   57.7942   34.5754   47.2441 H   0  0  0  0  0  0  0  0  0  0  0  0
   56.2718   32.6654   46.7506 H   0  0  0  0  0  0  0  0  0  0  0  0
   58.1082   31.2946   46.5123 H   0  0  0  0  0  0  0  0  0  0  0  0
   59.8830   32.0830   47.5570 H   0  0  0  0  0  0  0  0  0  0  0  0
   62.1070   30.9492   50.0060 H   0  0  0  0  0  0  0  0  0  0  0  0
   64.3143   31.9506   50.5939 H   0  0  0  0  0  0  0  0  0  0  0  0
   65.4183   33.5542   49.0314 H   0  0  0  0  0  0  0  0  0  0  0  0
   64.3147   34.1554   46.8745 H   0  0  0  0  0  0  0  0  0  0  0  0
   62.1057   33.1618   46.2787 H   0  0  0  0  0  0  0  0  0  0  0  0
   60.7294   27.0069   47.3628 H   0  0  0  0  0  0  0  0  0  0  0  0
   59.8711   24.8552   46.3780 H   0  0  0  0  0  0  0  0  0  0  0  0
   57.7685   24.8401   45.0238 H   0  0  0  0  0  0  0  0  0  0  0  0
   56.5101   26.9805   44.6166 H   0  0  0  0  0  0  0  0  0  0  0  0
  1  2  1  0
  2  3  1  0
  3  4  2  0
  4  5  1  0
  5  6  2  0
  6  7  1  0
  7  8  2  0
  8  9  1  0
  9 10  1  0
 10 11  2  0
 10 12  1  0
 12 13  1  0
 13 14  2  0
 14 15  1  0
 15 16  2  0
 15 17  1  0
 17 18  1  0
 18 19  2  0
 19 20  1  0
 20 21  2  0
 21 22  1  0
 22 23  2  0
 14 24  1  0
 24 25  2  0
 25 26  1  0
 26 27  2  0
 27 28  1  0
 28 29  2  0
  8  3  1  0
 29 12  1  0
 23 18  1  0
 29 24  1  0
  1 30  1  0
  1 31  1  0
  1 32  1  0
  4 33  1  0
  5 34  1  0
  6 35  1  0
  7 36  1  0
 13 37  1  0
 17 38  1  0
 19 39  1  0
 20 40  1  0
 21 41  1  0
 22 42  1  0
 23 43  1  0
 25 44  1  0
 26 45  1  0
 27 46  1  0
 28 47  1  0
M  CHG  1   9  -1
M  END
>  <UniqueID>  (32) 
26

>  <SMILES>  (32) 
COc1ccccc1[N-]C(=O)n1cc(C(=O)Nc2ccccc2)c2ccccc21

>  <Energy>  (32) 
96.90728520786865

>  <Genealogy>  (32) 
COc1ccccc1[N-]C(=O)n1cc(C(=O)Nc2ccccc2)c2ccccc21 (protonated)
COc1ccccc1[N-]C(=O)n1cc(C(=O)Nc2ccccc2)c2ccccc21 (3D coordinates assigned)
COc1ccccc1[N-]C(=O)n1cc(C(=O)Nc2ccccc2)c2ccccc21 (optimized conformer: 96.90728520786865 kcal/mol)

>  <smiles>  (32) 
COc1ccccc1NC(=O)n1cc(C(=O)Nc2ccccc2)c2ccccc21

>  <score_type>  (32) 
oracle

>  <origin>  (32) 
adg

>  <m_score__min__energy>  (32) 
-10.51

>  <m_primary>  (32) 
energy

$$$$
32:0
     RDKit          3D

 42 43  0  0  0  0  0  0  0  0999 V2000
   56.9008   34.0043   46.7654 H   0  0  0  0  0  0  0  0  0  0  0  0
   57.7650   33.8610   46.1000 C   0  0  0  0  0  0  0  0  0  0  0  0
   57.5330   33.7270   44.7880 C   0  0  0  0  0  0  0  0  0  0  0  0
   57.2762   34.6139   44.1901 H   0  0  0  0  0  0  0  0  0  0  0  0
   57.6180   32.3840   44.1200 C   0  0  0  0  0  0  0  0  0  0  0  0
   58.6712   32.1569   43.8980 H   0  0  0  0  0  0  0  0  0  0  0  0
   57.0302   32.4130   43.1907 H   0  0  0  0  0  0  0  0  0  0  0  0
   57.0690   31.3300   44.9970 N   0  0  0  0  0  0  0  0  0  0  0  0
   58.1660   30.6090   45.6880 C   0  0  0  0  0  0  0  0  0  0  0  0
   58.5440   31.2361   46.5089 H   0  0  0  0  0  0  0  0  0  0  0  0
   58.9590   30.4035   44.9539 H   0  0  0  0  0  0  0  0  0  0  0  0
   57.6870   29.2730   46.2630 C   0  0  0  0  0  0  0  0  0  0  0  0
   56.8525   29.4590   46.9551 H   0  0  0  0  0  0  0  0  0  0  0  0
   58.5289   28.7985   46.7884 H   0  0  0  0  0  0  0  0  0  0  0  0
   57.2100   28.3200   45.1430 C   0  0  0  0  0  0  0  0  0  0  0  0
   58.0716   27.7004   44.8538 H   0  0  0  0  0  0  0  0  0  0  0  0
   56.1470   27.4940   45.6220 O   0  0  0  0  0  0  0  0  0  0  0  0
   56.2350   26.1010   45.7180 C   0  0  0  0  0  0  0  0  0  0  0  0
   55.8970   25.5080   46.7800 O   0  0  0  0  0  0  0  0  0  0  0  0
   56.7180   25.3530   44.5990 N   0  0  0  0  0  0  0  0  0  0  0  0
   56.9950   25.8640   43.7310 H   0  0  0  0  0  0  0  0  0  0  0  0
   56.8320   23.9000   44.6330 C   0  0  0  0  0  0  0  0  0  0  0  0
   56.8588   23.5587   45.6784 H   0  0  0  0  0  0  0  0  0  0  0  0
   55.9662   23.4522   44.1231 H   0  0  0  0  0  0  0  0  0  0  0  0
   57.7570   23.5927   44.1231 H   0  0  0  0  0  0  0  0  0  0  0  0
   56.7300   29.0890   43.8950 C   0  0  0  0  0  0  0  0  0  0  0  0
   55.9741   28.4857   43.3708 H   0  0  0  0  0  0  0  0  0  0  0  0
   57.5982   29.2741   43.2454 H   0  0  0  0  0  0  0  0  0  0  0  0
   56.1130   30.4420   44.2780 C   0  0  0  0  0  0  0  0  0  0  0  0
   55.2446   30.2607   44.9284 H   0  0  0  0  0  0  0  0  0  0  0  0
   55.8258   30.9506   43.3459 H   0  0  0  0  0  0  0  0  0  0  0  0
   59.1170   33.8280   46.7110 C   0  0  0  0  0  0  0  0  0  0  0  0
   60.3000   33.8430   45.9420 C   0  0  0  0  0  0  0  0  0  0  0  0
   60.2384   33.8880   44.8446 H   0  0  0  0  0  0  0  0  0  0  0  0
   61.5500   33.8010   46.5670 C   0  0  0  0  0  0  0  0  0  0  0  0
   62.4674   33.8192   45.9604 H   0  0  0  0  0  0  0  0  0  0  0  0
   61.6370   33.7360   47.9600 C   0  0  0  0  0  0  0  0  0  0  0  0
   63.2080   33.6820   48.7400 Cl  0  0  0  0  0  0  0  0  0  0  0  0
   60.4720   33.7060   48.7300 C   0  0  0  0  0  0  0  0  0  0  0  0
   60.5400   33.6500   49.8265 H   0  0  0  0  0  0  0  0  0  0  0  0
   59.2200   33.7470   48.1100 C   0  0  0  0  0  0  0  0  0  0  0  0
   58.3071   33.7156   48.7228 H   0  0  0  0  0  0  0  0  0  0  0  0
  1  2  1  0
  2  3  2  0
  3  4  1  0
  3  5  1  0
  5  6  1  0
  5  7  1  0
  5  8  1  0
  8  9  1  0
  9 10  1  0
  9 11  1  0
  9 12  1  0
 12 13  1  0
 12 14  1  0
 12 15  1  0
 15 16  1  0
 15 17  1  0
 17 18  1  0
 18 19  2  0
 18 20  1  0
 20 21  1  0
 20 22  1  0
 22 23  1  0
 22 24  1  0
 22 25  1  0
 15 26  1  0
 26 27  1  0
 26 28  1  0
 26 29  1  0
 29 30  1  0
 29 31  1  0
  2 32  1  0
 32 33  2  0
 33 34  1  0
 33 35  1  0
 35 36  1  0
 35 37  2  0
 37 38  1  0
 37 39  1  0
 39 40  1  0
 39 41  2  0
 41 42  1  0
 29  8  1  0
 41 32  1  0
M  END
>  <UniqueID>  (33) 
27

>  <SMILES>  (33) 
CNC(=O)OC1CCN(C/C=C/c2ccc(Cl)cc2)CC1

>  <Energy>  (33) 
43.96021618229167

>  <Genealogy>  (33) 
CNC(=O)OC1CCN(C/C=C/c2ccc(Cl)cc2)CC1 (cis-trans isomerization)
CNC(=O)OC1CCN(C/C=C/c2ccc(Cl)cc2)CC1 (3D coordinates assigned)
CNC(=O)OC1CCN(C/C=C/c2ccc(Cl)cc2)CC1 (nonaromatic ring conformer: 43.96021618229167 kcal/mol)

>  <smiles>  (33) 
CNC(=O)OC1CCN(CC=Cc2ccc(Cl)cc2)CC1

>  <score_type>  (33) 
oracle

>  <origin>  (33) 
adg

>  <m_score__min__energy>  (33) 
-8.2699999999999996

>  <m_primary>  (33) 
energy

$$$$
33:0
     RDKit          3D

 42 45  0  0  1  0  0  0  0  0999 V2000
   58.9530   33.4790   52.7920 O   0  0  0  0  0  0  0  0  0  0  0  0
   59.6130   33.6650   51.7380 C   0  0  0  0  0  0  0  0  0  0  0  0
   60.8960   33.3070   51.5690 N   0  0  0  0  0  0  0  0  0  0  0  0
   61.3180   33.6580   50.2960 C   0  0  0  0  0  0  0  0  0  0  0  0
   62.6760   33.4350   49.9010 C   0  0  0  0  0  0  0  0  0  0  0  0
   63.5940   33.3270   50.9750 C   0  0  0  0  0  0  0  0  0  0  0  0
   64.8920   33.0940   50.7690 N   0  0  0  0  0  0  0  0  0  0  0  0
   65.4030   32.9490   49.5360 C   0  0  0  0  0  0  0  0  0  0  0  0
   64.5640   33.0500   48.5020 N   0  0  0  0  0  0  0  0  0  0  0  0
   63.2140   33.2950   48.6690 C   0  0  0  0  0  0  0  0  0  0  0  0
   62.6050   33.5790   47.6170 N   0  0  0  0  0  0  0  0  0  0  0  0
   61.3670   33.1320   47.2030 C   0  0  0  0  0  0  0  0  0  0  0  0
   60.9030   31.8430   47.5070 C   0  0  0  0  0  0  0  0  0  0  0  0
   59.6960   31.4240   46.9900 C   0  0  0  0  0  0  0  0  0  0  0  0
   59.1650   29.8060   47.4030 Cl  0  0  0  0  0  0  0  0  0  0  0  0
   58.9140   32.2420   46.1690 C   0  0  0  0  0  0  0  0  0  0  0  0
   57.7380   31.7190   45.7180 O   0  0  0  0  0  0  0  0  0  0  0  0
   57.4730   31.0600   44.5260 C   0  0  0  0  0  0  0  0  0  0  0  0
   57.5740   29.5890   44.6450 C   0  0  0  0  0  0  0  0  0  0  0  0
   58.6620   28.8750   44.1810 C   0  0  0  0  0  0  0  0  0  0  0  0
   58.7790   27.5090   44.2920 C   0  0  0  0  0  0  0  0  0  0  0  0
   57.7640   26.8010   44.8990 C   0  0  0  0  0  0  0  0  0  0  0  0
   56.6600   27.4630   45.3790 C   0  0  0  0  0  0  0  0  0  0  0  0
   55.6810   26.7180   45.9720 F   0  0  0  0  0  0  0  0  0  0  0  0
   56.5650   28.8340   45.2560 C   0  0  0  0  0  0  0  0  0  0  0  0
   59.4010   33.4970   45.8940 C   0  0  0  0  0  0  0  0  0  0  0  0
   58.4650   34.5680   44.8840 Cl  0  0  0  0  0  0  0  0  0  0  0  0
   60.6030   33.9760   46.3800 C   0  0  0  0  0  0  0  0  0  0  0  0
   60.2320   34.2170   49.7700 N   0  0  0  0  0  0  0  0  0  0  0  0
   59.2360   34.2220   50.6150 O   0  0  0  0  0  0  0  0  0  0  0  0
   63.2271   33.4381   52.0060 H   0  0  0  0  0  0  0  0  0  0  0  0
   66.4747   32.7539   49.3829 H   0  0  0  0  0  0  0  0  0  0  0  0
   64.9740   32.9340   47.5500 H   0  0  0  0  0  0  0  0  0  0  0  0
   61.4952   31.1753   48.1499 H   0  0  0  0  0  0  0  0  0  0  0  0
   56.4534   31.3165   44.2026 H   0  0  0  0  0  0  0  0  0  0  0  0
   58.2287   31.3841   43.7953 H   0  0  0  0  0  0  0  0  0  0  0  0
   59.4793   29.4292   43.6963 H   0  0  0  0  0  0  0  0  0  0  0  0
   59.6676   26.9903   43.9029 H   0  0  0  0  0  0  0  0  0  0  0  0
   57.8378   25.7080   44.9989 H   0  0  0  0  0  0  0  0  0  0  0  0
   55.6743   29.3470   45.6477 H   0  0  0  0  0  0  0  0  0  0  0  0
   60.9513   34.9889   46.1296 H   0  0  0  0  0  0  0  0  0  0  0  0
   60.1350   34.5760   48.8080 H   0  0  0  0  0  0  0  0  0  0  0  0
  1  2  2  0
  2  3  1  0
  3  4  2  0
  4  5  1  0
  5  6  2  0
  6  7  1  0
  7  8  2  0
  8  9  1  0
  9 10  1  0
 10 11  2  0
 11 12  1  0
 12 13  2  0
 13 14  1  0
 14 15  1  0
 14 16  2  0
 16 17  1  0
 17 18  1  0
 18 19  1  0
 19 20  2  0
 20 21  1  0
 21 22  2  0
 22 23  1  0
 23 24  1  0
 23 25  2  0
 16 26  1  0
 26 27  1  0
 26 28  2  0
  4 29  1  0
 29 30  1  0
 30  2  1  0
 10  5  1  0
 28 12  1  0
 25 19  1  0
  6 31  1  0
  8 32  1  0
  9 33  1  0
 13 34  1  0
 18 35  1  0
 18 36  1  0
 20 37  1  0
 21 38  1  0
 22 39  1  0
 25 40  1  0
 28 41  1  0
 29 42  1  0
M  END
>  <smiles>  (34) 
O=c1nc(-c2cnc[nH]c2=Nc2cc(Cl)c(OCc3cccc(F)c3)c(Cl)c2)[nH]o1

>  <score_type>  (34) 
oracle

>  <origin>  (34) 
adg

>  <m_score__min__energy>  (34) 
-8.5800000000000001

>  <m_primary>  (34) 
energy

$$$$
34:0
     RDKit          3D

 29 30  0  0  0  0  0  0  0  0999 V2000
   57.3170   34.5920   44.8730 C   0  0  0  0  0  0  0  0  0  0  0  0
   58.1340   33.8960   45.9280 C   0  0  0  0  0  0  0  0  0  0  0  0
   58.9530   34.6470   46.7870 C   0  0  0  0  0  0  0  0  0  0  0  0
   59.7050   34.0120   47.7760 C   0  0  0  0  0  0  0  0  0  0  0  0
   59.6570   32.6250   47.9120 C   0  0  0  0  0  0  0  0  0  0  0  0
   58.8440   31.8610   47.0680 C   0  0  0  0  0  0  0  0  0  0  0  0
   58.9000   30.1080   47.2170 Cl  0  0  0  0  0  0  0  0  0  0  0  0
   58.0580   32.4970   46.0830 C   0  0  0  0  0  0  0  0  0  0  0  0
   57.2130   31.7400   45.2050 N   0  0  0  0  0  0  0  0  0  0  0  0
   57.4420   31.5890   43.8010 C   0  0  0  0  0  0  0  0  0  0  0  0
   58.0860   32.4610   43.1580 O   0  0  0  0  0  0  0  0  0  0  0  0
   57.0000   30.3360   43.1170 C   0  0  0  0  0  0  0  0  0  0  0  0
   57.2410   29.1910   43.9860 N   0  0  0  0  0  0  0  0  0  0  0  0
   58.3920   28.5070   44.1180 C   0  0  0  0  0  0  0  0  0  0  0  0
   58.2430   27.4550   44.9460 N   0  0  0  0  0  0  0  0  0  0  0  0
   56.9390   27.5510   45.2890 C   0  0  0  0  0  0  0  0  0  0  0  0
   56.2900   26.6310   46.1680 N   0  0  0  0  0  0  0  0  0  0  0  0
   56.9310   26.0830   47.0870 O   0  0  0  0  0  0  0  0  0  0  0  0
   54.9560   26.3440   46.0060 O   0  0  0  0  0  0  0  0  0  0  0  0
   56.3120   28.5940   44.7090 N   0  0  0  0  0  0  0  0  0  0  0  0
   56.5645   35.2330   45.3556 H   0  0  0  0  0  0  0  0  0  0  0  0
   57.9771   35.2095   44.2462 H   0  0  0  0  0  0  0  0  0  0  0  0
   56.8122   33.8422   44.2462 H   0  0  0  0  0  0  0  0  0  0  0  0
   59.0018   35.7407   46.6796 H   0  0  0  0  0  0  0  0  0  0  0  0
   60.3378   34.6074   48.4506 H   0  0  0  0  0  0  0  0  0  0  0  0
   60.2611   32.1295   48.6863 H   0  0  0  0  0  0  0  0  0  0  0  0
   55.9258   30.4029   42.8897 H   0  0  0  0  0  0  0  0  0  0  0  0
   57.5679   30.2108   42.1833 H   0  0  0  0  0  0  0  0  0  0  0  0
   59.3333   28.7726   43.6147 H   0  0  0  0  0  0  0  0  0  0  0  0
  1  2  1  0
  2  3  2  0
  3  4  1  0
  4  5  2  0
  5  6  1  0
  6  7  1  0
  6  8  2  0
  8  9  1  0
  9 10  1  0
 10 11  2  0
 10 12  1  0
 12 13  1  0
 13 14  1  0
 14 15  2  0
 15 16  1  0
 16 17  1  0
 17 18  2  0
 17 19  1  0
 16 20  2  0
  8  2  1  0
 20 13  1  0
  1 21  1  0
  1 22  1  0
  1 23  1  0
  3 24  1  0
  4 25  1  0
  5 26  1  0
 12 27  1  0
 12 28  1  0
 14 29  1  0
M  CHG  3   9  -1  17   1  19  -1
M  END
>  <UniqueID>  (35) 
28

>  <SMILES>  (35) 
Cc1cccc(Cl)c1[N-]C(=O)Cn1cnc([N+](=O)[O-])n1

>  <Energy>  (35) 
65.79004058893626

>  <Genealogy>  (35) 
Cc1cccc(Cl)c1[N-]C(=O)Cn1cnc([N+](=O)[O-])n1 (protonated)
Cc1cccc(Cl)c1[N-]C(=O)Cn1cnc([N+](=O)[O-])n1 (3D coordinates assigned)
Cc1cccc(Cl)c1[N-]C(=O)Cn1cnc([N+](=O)[O-])n1 (optimized conformer: 65.79004058893626 kcal/mol)

>  <smiles>  (35) 
Cc1cccc(Cl)c1NC(=O)Cn1cnc([N+](=O)[O-])n1

>  <score_type>  (35) 
oracle

>  <origin>  (35) 
adg

>  <m_score__min__energy>  (35) 
-9.2100000000000009

>  <m_primary>  (35) 
energy

$$$$
35:0
     RDKit          3D

 28 30  0  0  0  0  0  0  0  0999 V2000
   58.2050   25.6020   47.0680 C   0  0  0  0  0  0  0  0  0  0  0  0
   57.7330   26.6560   46.3950 C   0  0  0  0  0  0  0  0  0  0  0  0
   56.3170   26.7550   45.9970 C   0  0  0  0  0  0  0  0  0  0  0  0
   55.5160   25.8020   46.1920 O   0  0  0  0  0  0  0  0  0  0  0  0
   55.8600   27.9230   45.3810 O   0  0  0  0  0  0  0  0  0  0  0  0
   56.6600   29.1060   45.2270 C   0  0  1  0  0  0  0  0  0  0  0  0
   57.9320   29.1260   46.0820 C   0  0  2  0  0  0  0  0  0  0  0  0
   58.7110   30.2130   45.3950 C   0  0  0  0  0  0  0  0  0  0  0  0
   58.3340   30.3020   44.1190 C   0  0  0  0  0  0  0  0  0  0  0  0
   57.2810   29.2660   43.8290 C   0  0  2  0  0  0  0  0  0  0  0  0
   56.2670   29.7490   42.7850 C   0  0  0  0  0  0  0  0  0  0  0  0
   57.9750   27.9380   43.4070 C   0  0  0  0  0  0  0  0  0  0  0  0
   59.0510   27.4790   44.4350 C   0  0  0  0  0  0  0  0  0  0  0  0
   58.6520   27.7530   45.9200 C   0  0  2  0  0  0  0  0  0  0  0  0
   59.2675   25.5601   47.3495 H   0  0  0  0  0  0  0  0  0  0  0  0
   57.5309   24.7765   47.3403 H   0  0  0  0  0  0  0  0  0  0  0  0
   55.9217   29.8768   45.4931 H   0  0  0  0  0  0  0  0  0  0  0  0
   57.7873   29.2906   47.1599 H   0  0  0  0  0  0  0  0  0  0  0  0
   59.4772   30.8409   45.8733 H   0  0  0  0  0  0  0  0  0  0  0  0
   58.7319   31.0227   43.3894 H   0  0  0  0  0  0  0  0  0  0  0  0
   55.3871   30.1681   43.2950 H   0  0  0  0  0  0  0  0  0  0  0  0
   56.7295   30.5235   42.1556 H   0  0  0  0  0  0  0  0  0  0  0  0
   55.9570   28.9018   42.1556 H   0  0  0  0  0  0  0  0  0  0  0  0
   57.2106   27.1517   43.3205 H   0  0  0  0  0  0  0  0  0  0  0  0
   58.4816   28.1142   42.4466 H   0  0  0  0  0  0  0  0  0  0  0  0
   59.2114   26.3978   44.3116 H   0  0  0  0  0  0  0  0  0  0  0  0
   59.9614   28.0621   44.2321 H   0  0  0  0  0  0  0  0  0  0  0  0
   59.5733   27.7780   46.5205 H   0  0  0  0  0  0  0  0  0  0  0  0
  1  2  2  0
  2  3  1  0
  3  4  2  0
  3  5  1  0
  5  6  1  0
  6  7  1  0
  7  8  1  0
  8  9  2  0
  9 10  1  0
 10 11  1  6
 10 12  1  0
 12 13  1  0
 13 14  1  0
 14  2  1  0
 10  6  1  0
 14  7  1  0
  1 15  1  0
  1 16  1  0
  6 17  1  1
  7 18  1  1
  8 19  1  0
  9 20  1  0
 11 21  1  0
 11 22  1  0
 11 23  1  0
 12 24  1  0
 12 25  1  0
 13 26  1  0
 13 27  1  0
 14 28  1  1
M  END
>  <UniqueID>  (36) 
29

>  <SMILES>  (36) 
C=C1C(=O)O[C@H]2[C@@H]3C=CC2(C)CCC13

>  <Energy>  (36) 
50.582287708168664

>  <Genealogy>  (36) 
C=C1C(=O)O[C@H]2[C@@H]3C=CC2(C)CCC13 (chirality)
C=C1C(=O)O[C@H]2[C@@H]3C=CC2(C)CCC13 (3D coordinates assigned)
C=C1C(=O)O[C@H]2[C@@H]3C=CC2(C)CCC13 (nonaromatic ring conformer: 50.582287708168664 kcal/mol)

>  <smiles>  (36) 
C=C1C(=O)OC2C3C=CC2(C)CCC13

>  <score_type>  (36) 
oracle

>  <origin>  (36) 
adg

>  <m_score__min__energy>  (36) 
-6.7999999999999998

>  <m_primary>  (36) 
energy

$$$$
36:0
     RDKit          3D

 30 31  0  0  0  0  0  0  0  0999 V2000
   63.2360   32.7100   47.4300 C   0  0  0  0  0  0  0  0  0  0  0  0
   62.5620   33.7990   46.6110 C   0  0  0  0  0  0  0  0  0  0  0  0
   61.1030   33.6900   46.8700 C   0  0  0  0  0  0  0  0  0  0  0  0
   60.5830   33.4450   48.1350 C   0  0  0  0  0  0  0  0  0  0  0  0
   59.2060   33.3480   48.3200 C   0  0  0  0  0  0  0  0  0  0  0  0
   58.3200   33.4920   47.2490 C   0  0  0  0  0  0  0  0  0  0  0  0
   58.8470   33.7340   45.9990 C   0  0  0  0  0  0  0  0  0  0  0  0
   57.8490   33.9350   44.5360 S   0  0  0  0  0  0  0  0  0  0  0  0
   58.2150   32.6810   43.2850 C   0  0  0  0  0  0  0  0  0  0  0  0
   57.3300   31.4910   43.4320 C   0  0  0  0  0  0  0  0  0  0  0  0
   56.9090   30.8510   44.5780 C   0  0  0  0  0  0  0  0  0  0  0  0
   56.1090   29.8110   44.1460 C   0  0  0  0  0  0  0  0  0  0  0  0
   55.5130   28.9670   44.8650 O   0  0  0  0  0  0  0  0  0  0  0  0
   56.0620   29.8400   42.7820 N   0  0  0  0  0  0  0  0  0  0  0  0
   56.8070   30.8650   42.3480 N   0  0  0  0  0  0  0  0  0  0  0  0
   60.2310   33.8310   45.8150 C   0  0  0  0  0  0  0  0  0  0  0  0
   63.1045   32.9224   48.5013 H   0  0  0  0  0  0  0  0  0  0  0  0
   62.7819   31.7371   47.1907 H   0  0  0  0  0  0  0  0  0  0  0  0
   64.3093   32.6825   47.1907 H   0  0  0  0  0  0  0  0  0  0  0  0
   62.9289   34.7884   46.9217 H   0  0  0  0  0  0  0  0  0  0  0  0
   62.7826   33.6810   45.5398 H   0  0  0  0  0  0  0  0  0  0  0  0
   61.2611   33.3273   48.9931 H   0  0  0  0  0  0  0  0  0  0  0  0
   58.8087   33.1545   49.3273 H   0  0  0  0  0  0  0  0  0  0  0  0
   57.2331   33.4144   47.3995 H   0  0  0  0  0  0  0  0  0  0  0  0
   58.0650   33.1173   42.2864 H   0  0  0  0  0  0  0  0  0  0  0  0
   59.2574   32.3552   43.4163 H   0  0  0  0  0  0  0  0  0  0  0  0
   57.1576   31.1131   45.6170 H   0  0  0  0  0  0  0  0  0  0  0  0
   55.5370   29.1800   42.1680 H   0  0  0  0  0  0  0  0  0  0  0  0
   56.9560   31.1310   41.3330 H   0  0  0  0  0  0  0  0  0  0  0  0
   60.6292   34.0236   44.8079 H   0  0  0  0  0  0  0  0  0  0  0  0
  1  2  1  0
  2  3  1  0
  3  4  2  0
  4  5  1  0
  5  6  2  0
  6  7  1  0
  7  8  1  0
  8  9  1  0
  9 10  1  0
 10 11  2  0
 11 12  1  0
 12 13  2  0
 12 14  1  0
 14 15  1  0
  7 16  2  0
 16  3  1  0
 15 10  1  0
  1 17  1  0
  1 18  1  0
  1 19  1  0
  2 20  1  0
  2 21  1  0
  4 22  1  0
  5 23  1  0
  6 24  1  0
  9 25  1  0
  9 26  1  0
 11 27  1  0
 14 28  1  0
 15 29  1  0
 16 30  1  0
M  END
>  <smiles>  (37) 
CCc1cccc(SCc2cc(=O)[nH][nH]2)c1

>  <score_type>  (37) 
oracle

>  <origin>  (37) 
adg

>  <m_score__min__energy>  (37) 
-7.0499999999999998

>  <m_primary>  (37) 
energy

$$$$
37:0
     RDKit          3D

 21 21  0  0  0  0  0  0  0  0999 V2000
   55.1470   28.5730   45.2470 H   0  0  0  0  0  0  0  0  0  0  0  0
   56.0710   29.0320   45.0920 N   0  0  0  0  0  0  0  0  0  0  0  0
   56.1570   30.2570   44.5760 N   0  0  0  0  0  0  0  0  0  0  0  0
   57.4280   30.7090   44.5090 C   0  0  0  0  0  0  0  0  0  0  0  0
   57.8770   32.3140   43.8520 S   0  0  0  0  0  0  0  0  0  0  0  0
   57.4050   33.2380   45.3550 C   0  0  0  0  0  0  0  0  0  0  0  0
   57.2080   32.5245   46.1687 H   0  0  0  0  0  0  0  0  0  0  0  0
   56.5042   33.8294   45.1338 H   0  0  0  0  0  0  0  0  0  0  0  0
   58.5150   34.1880   45.7840 C   0  0  0  0  0  0  0  0  0  0  0  0
   58.5603   34.2268   46.8824 H   0  0  0  0  0  0  0  0  0  0  0  0
   59.4773   33.8294   45.3898 H   0  0  0  0  0  0  0  0  0  0  0  0
   58.3093   35.1941   45.3898 H   0  0  0  0  0  0  0  0  0  0  0  0
   58.5270   29.5780   45.1040 S   0  0  0  0  0  0  0  0  0  0  0  0
   57.2730   28.5030   45.4270 C   0  0  0  0  0  0  0  0  0  0  0  0
   57.4520   27.3400   45.9820 N   0  0  0  0  0  0  0  0  0  0  0  0
   56.5090   26.2620   46.0150 C   0  0  0  0  0  0  0  0  0  0  0  0
   55.2780   26.5270   46.0030 O   0  0  0  0  0  0  0  0  0  0  0  0
   56.9490   24.8350   46.1630 C   0  0  0  0  0  0  0  0  0  0  0  0
   57.8720   24.7990   46.7603 H   0  0  0  0  0  0  0  0  0  0  0  0
   56.1549   24.2639   46.6662 H   0  0  0  0  0  0  0  0  0  0  0  0
   57.2560   24.1190   44.5600 Cl  0  0  0  0  0  0  0  0  0  0  0  0
  1  2  1  0
  2  3  1  0
  3  4  2  0
  4  5  1  0
  5  6  1  0
  6  7  1  0
  6  8  1  0
  6  9  1  0
  9 10  1  0
  9 11  1  0
  9 12  1  0
  4 13  1  0
 13 14  1  0
 14 15  2  0
 15 16  1  0
 16 17  2  0
 16 18  1  0
 18 19  1  0
 18 20  1  0
 18 21  1  0
 14  2  1  0
M  END
>  <UniqueID>  (38) 
30

>  <SMILES>  (38) 
CCSc1n[nH]/c(=N\C(=O)CCl)s1

>  <Energy>  (38) 
52.72391374068135

>  <Genealogy>  (38) 
CCSc1n[nH]/c(=N\C(=O)CCl)s1 (cis-trans isomerization)
CCSc1n[nH]/c(=N\C(=O)CCl)s1 (3D coordinates assigned)
CCSc1n[nH]/c(=N\C(=O)CCl)s1 (optimized conformer: 52.72391374068135 kcal/mol)

>  <smiles>  (38) 
CCSc1n[nH]c(=NC(=O)CCl)s1

>  <score_type>  (38) 
oracle

>  <origin>  (38) 
adg

>  <m_score__min__energy>  (38) 
-6.2199999999999998

>  <m_primary>  (38) 
energy

$$$$
38:0
     RDKit          3D

 50 52  0  0  0  0  0  0  0  0999 V2000
   64.4956   34.2358   51.7481 H   0  0  0  0  0  0  0  0  0  0  0  0
   64.0270   33.9240   50.8030 C   0  0  0  0  0  0  0  0  0  0  0  0
   62.7240   34.3310   50.5010 C   0  0  0  0  0  0  0  0  0  0  0  0
   62.1677   34.9623   51.2096 H   0  0  0  0  0  0  0  0  0  0  0  0
   62.1270   33.9370   49.3000 C   0  0  0  0  0  0  0  0  0  0  0  0
   61.1009   34.2579   49.0673 H   0  0  0  0  0  0  0  0  0  0  0  0
   62.8320   33.1330   48.3890 C   0  0  0  0  0  0  0  0  0  0  0  0
   62.1880   32.6750   47.1100 C   0  0  0  0  0  0  0  0  0  0  0  0
   62.8137   32.9779   46.2575 H   0  0  0  0  0  0  0  0  0  0  0  0
   61.1921   33.1335   47.0210 H   0  0  0  0  0  0  0  0  0  0  0  0
   62.0150   30.8560   47.1190 S   0  0  0  0  0  0  0  0  0  0  0  0
   60.2220   30.8570   47.0270 C   0  0  0  0  0  0  0  0  0  0  0  0
   59.6020   30.1790   45.9260 N   0  0  0  0  0  0  0  0  0  0  0  0
   59.9520   30.4080   44.9670 H   0  0  0  0  0  0  0  0  0  0  0  0
   58.6820   29.0820   46.0700 C   0  0  0  0  0  0  0  0  0  0  0  0
   58.8170   28.1380   47.1020 C   0  0  0  0  0  0  0  0  0  0  0  0
   59.6435   28.2296   47.8221 H   0  0  0  0  0  0  0  0  0  0  0  0
   57.9070   27.0830   47.2190 C   0  0  0  0  0  0  0  0  0  0  0  0
   58.0196   26.3504   48.0318 H   0  0  0  0  0  0  0  0  0  0  0  0
   56.8470   26.9540   46.3010 C   0  0  0  0  0  0  0  0  0  0  0  0
   55.9040   25.9200   46.3820 O   0  0  0  0  0  0  0  0  0  0  0  0
   55.8260   24.8290   45.4690 C   0  0  0  0  0  0  0  0  0  0  0  0
   55.7585   23.8853   46.0302 H   0  0  0  0  0  0  0  0  0  0  0  0
   54.9338   24.9437   44.8359 H   0  0  0  0  0  0  0  0  0  0  0  0
   56.7255   24.8156   44.8359 H   0  0  0  0  0  0  0  0  0  0  0  0
   56.7210   27.8910   45.2690 C   0  0  0  0  0  0  0  0  0  0  0  0
   55.8980   27.7981   44.5451 H   0  0  0  0  0  0  0  0  0  0  0  0
   57.6320   28.9430   45.1510 C   0  0  0  0  0  0  0  0  0  0  0  0
   57.5250   29.6682   44.3308 H   0  0  0  0  0  0  0  0  0  0  0  0
   59.5300   31.4460   47.9670 N   0  0  0  0  0  0  0  0  0  0  0  0
   59.6240   31.0820   48.9430 H   0  0  0  0  0  0  0  0  0  0  0  0
   58.6070   32.5400   47.7860 C   0  0  0  0  0  0  0  0  0  0  0  0
   57.6170   32.6130   48.5610 O   0  0  0  0  0  0  0  0  0  0  0  0
   58.8350   33.6220   46.7900 C   0  0  0  0  0  0  0  0  0  0  0  0
   59.4280   34.8260   47.2100 C   0  0  0  0  0  0  0  0  0  0  0  0
   59.6546   34.9759   48.2759 H   0  0  0  0  0  0  0  0  0  0  0  0
   59.7330   35.8330   46.2940 C   0  0  0  0  0  0  0  0  0  0  0  0
   60.2001   36.7671   46.6392 H   0  0  0  0  0  0  0  0  0  0  0  0
   59.4460   35.6560   44.9410 C   0  0  0  0  0  0  0  0  0  0  0  0
   59.6979   36.4454   44.2176 H   0  0  0  0  0  0  0  0  0  0  0  0
   58.8400   34.4790   44.5050 C   0  0  0  0  0  0  0  0  0  0  0  0
   58.6169   34.3456   43.4362 H   0  0  0  0  0  0  0  0  0  0  0  0
   58.5110   33.4610   45.4160 C   0  0  0  0  0  0  0  0  0  0  0  0
   57.8860   32.2710   44.9220 N   0  0  0  0  0  0  0  0  0  0  0  0
   57.0210   31.6970   45.6160 O   0  0  0  0  0  0  0  0  0  0  0  0
   58.4820   31.5710   43.9000 O   0  0  0  0  0  0  0  0  0  0  0  0
   64.1400   32.7240   48.7030 C   0  0  0  0  0  0  0  0  0  0  0  0
   64.6984   32.0885   48.0000 H   0  0  0  0  0  0  0  0  0  0  0  0
   64.7340   33.1210   49.9040 C   0  0  0  0  0  0  0  0  0  0  0  0
   65.7592   32.8011   50.1420 H   0  0  0  0  0  0  0  0  0  0  0  0
  1  2  1  0
  2  3  2  0
  3  4  1  0
  3  5  1  0
  5  6  1  0
  5  7  2  0
  7  8  1  0
  8  9  1  0
  8 10  1  0
  8 11  1  0
 11 12  1  0
 12 13  1  0
 13 14  1  0
 13 15  1  0
 15 16  2  0
 16 17  1  0
 16 18  1  0
 18 19  1  0
 18 20  2  0
 20 21  1  0
 21 22  1  0
 22 23  1  0
 22 24  1  0
 22 25  1  0
 20 26  1  0
 26 27  1  0
 26 28  2  0
 28 29  1  0
 12 30  2  0
 30 31  1  0
 30 32  1  0
 32 33  2  0
 32 34  1  0
 34 35  2  0
 35 36  1  0
 35 37  1  0
 37 38  1  0
 37 39  2  0
 39 40  1  0
 39 41  1  0
 41 42  1  0
 41 43  2  0
 43 44  1  0
 44 45  2  0
 44 46  1  0
  7 47  1  0
 47 48  1  0
 47 49  2  0
 49 50  1  0
 49  2  1  0
 28 15  1  0
 43 34  1  0
M  CHG  3  30   1  44   1  46  -1
M  END
>  <UniqueID>  (39) 
31

>  <SMILES>  (39) 
COc1ccc(N/C(=[NH+]\C(=O)c2ccccc2[N+](=O)[O-])SCc2ccccc2)cc1

>  <Energy>  (39) 
66.38898616397731

>  <Genealogy>  (39) 
COc1ccc(NC(=[NH+]C(=O)c2ccccc2[N+](=O)[O-])SCc2ccccc2)cc1 (protonated)
COc1ccc(N/C(=[NH+]\C(=O)c2ccccc2[N+](=O)[O-])SCc2ccccc2)cc1 (cis-trans isomerization)
COc1ccc(N/C(=[NH+]\C(=O)c2ccccc2[N+](=O)[O-])SCc2ccccc2)cc1 (3D coordinates assigned)
COc1ccc(N/C(=[NH+]\C(=O)c2ccccc2[N+](=O)[O-])SCc2ccccc2)cc1 (optimized conformer: 66.38898616397731 kcal/mol)

>  <smiles>  (39) 
COc1ccc(NC(=NC(=O)c2ccccc2[N+](=O)[O-])SCc2ccccc2)cc1

>  <score_type>  (39) 
oracle

>  <origin>  (39) 
adg

>  <m_score__min__energy>  (39) 
-6.5999999999999996

>  <m_primary>  (39) 
energy

$$$$
39:0
     RDKit          3D

 49 52  0  0  0  0  0  0  0  0999 V2000
   56.1690   21.4440   50.2070 C   0  0  0  0  0  0  0  0  0  0  0  0
   57.1310   21.4040   49.1580 O   0  0  0  0  0  0  0  0  0  0  0  0
   56.8200   21.5020   47.7940 C   0  0  0  0  0  0  0  0  0  0  0  0
   57.0720   20.4000   46.9740 C   0  0  0  0  0  0  0  0  0  0  0  0
   56.7770   20.4450   45.6100 C   0  0  0  0  0  0  0  0  0  0  0  0
   56.2120   21.6020   45.0400 C   0  0  0  0  0  0  0  0  0  0  0  0
   55.9090   21.6800   43.6700 O   0  0  0  0  0  0  0  0  0  0  0  0
   56.8800   21.7550   42.6310 C   0  0  0  0  0  0  0  0  0  0  0  0
   55.9440   22.7120   45.8630 C   0  0  0  0  0  0  0  0  0  0  0  0
   55.2170   24.1750   45.1890 S   0  0  0  0  0  0  0  0  0  0  0  0
   53.7200   24.0490   45.1450 O   0  0  0  0  0  0  0  0  0  0  0  0
   55.7350   24.3730   43.7920 O   0  0  0  0  0  0  0  0  0  0  0  0
   55.6340   25.5650   46.1390 N   0  0  0  0  0  0  0  0  0  0  0  0
   56.9180   26.2030   46.1540 C   0  0  0  0  0  0  0  0  0  0  0  0
   58.1150   25.4730   46.2690 C   0  0  0  0  0  0  0  0  0  0  0  0
   59.3450   26.1350   46.2630 C   0  0  0  0  0  0  0  0  0  0  0  0
   59.3950   27.5240   46.1430 C   0  0  0  0  0  0  0  0  0  0  0  0
   58.2110   28.2690   46.0290 C   0  0  0  0  0  0  0  0  0  0  0  0
   58.2680   29.7400   45.9020 C   0  0  0  0  0  0  0  0  0  0  0  0
   59.3050   30.4930   46.3590 N   0  0  0  0  0  0  0  0  0  0  0  0
   58.9180   31.7360   46.0250 C   0  0  0  0  0  0  0  0  0  0  0  0
   59.5970   32.9320   46.2480 C   0  0  0  0  0  0  0  0  0  0  0  0
   58.9930   34.1260   45.7920 C   0  0  0  0  0  0  0  0  0  0  0  0
   59.6600   35.4470   46.0380 C   0  0  0  0  0  0  0  0  0  0  0  0
   57.7240   34.0790   45.1570 C   0  0  0  0  0  0  0  0  0  0  0  0
   57.0700   32.8500   44.9520 C   0  0  0  0  0  0  0  0  0  0  0  0
   57.7090   31.6990   45.4030 C   0  0  0  0  0  0  0  0  0  0  0  0
   57.3130   30.4580   45.3310 O   0  0  0  0  0  0  0  0  0  0  0  0
   56.9750   27.5980   46.0350 C   0  0  0  0  0  0  0  0  0  0  0  0
   56.2620   22.6630   47.2290 C   0  0  0  0  0  0  0  0  0  0  0  0
   56.6847   21.4226   51.1784 H   0  0  0  0  0  0  0  0  0  0  0  0
   55.5769   22.3675   50.1265 H   0  0  0  0  0  0  0  0  0  0  0  0
   55.5023   20.5728   50.1265 H   0  0  0  0  0  0  0  0  0  0  0  0
   57.5073   19.4873   47.4071 H   0  0  0  0  0  0  0  0  0  0  0  0
   56.9874   19.5707   44.9764 H   0  0  0  0  0  0  0  0  0  0  0  0
   57.8844   21.8326   43.0727 H   0  0  0  0  0  0  0  0  0  0  0  0
   56.8220   20.8497   42.0089 H   0  0  0  0  0  0  0  0  0  0  0  0
   56.6836   22.6407   42.0089 H   0  0  0  0  0  0  0  0  0  0  0  0
   58.0823   24.3776   46.3639 H   0  0  0  0  0  0  0  0  0  0  0  0
   60.2777   25.5589   46.3532 H   0  0  0  0  0  0  0  0  0  0  0  0
   60.3675   28.0380   46.1377 H   0  0  0  0  0  0  0  0  0  0  0  0
   60.5698   32.9467   46.7613 H   0  0  0  0  0  0  0  0  0  0  0  0
   59.7464   35.6181   47.1212 H   0  0  0  0  0  0  0  0  0  0  0  0
   60.6631   35.4410   45.5866 H   0  0  0  0  0  0  0  0  0  0  0  0
   59.0596   36.2506   45.5866 H   0  0  0  0  0  0  0  0  0  0  0  0
   57.2475   35.0122   44.8221 H   0  0  0  0  0  0  0  0  0  0  0  0
   56.0904   32.8010   44.4539 H   0  0  0  0  0  0  0  0  0  0  0  0
   56.0426   28.1747   45.9453 H   0  0  0  0  0  0  0  0  0  0  0  0
   56.0730   23.5411   47.8640 H   0  0  0  0  0  0  0  0  0  0  0  0
  1  2  1  0
  2  3  1  0
  3  4  2  0
  4  5  1  0
  5  6  2  0
  6  7  1  0
  7  8  1  0
  6  9  1  0
  9 10  1  0
 10 11  2  0
 10 12  2  0
 10 13  1  0
 13 14  1  0
 14 15  2  0
 15 16  1  0
 16 17  2  0
 17 18  1  0
 18 19  1  0
 19 20  2  0
 20 21  1  0
 21 22  2  0
 22 23  1  0
 23 24  1  0
 23 25  2  0
 25 26  1  0
 26 27  2  0
 27 28  1  0
 18 29  2  0
  9 30  2  0
 30  3  1  0
 29 14  1  0
 28 19  1  0
 27 21  1  0
  1 31  1  0
  1 32  1  0
  1 33  1  0
  4 34  1  0
  5 35  1  0
  8 36  1  0
  8 37  1  0
  8 38  1  0
 15 39  1  0
 16 40  1  0
 17 41  1  0
 22 42  1  0
 24 43  1  0
 24 44  1  0
 24 45  1  0
 25 46  1  0
 26 47  1  0
 29 48  1  0
 30 49  1  0
M  CHG  1  13  -1
M  END
>  <UniqueID>  (40) 
32

>  <SMILES>  (40) 
COc1ccc(OC)c(S(=O)(=O)[N-]c2cccc(-c3nc4cc(C)ccc4o3)c2)c1

>  <Energy>  (40) 
92.32341970021356

>  <Genealogy>  (40) 
COc1ccc(OC)c(S(=O)(=O)[N-]c2cccc(-c3nc4cc(C)ccc4o3)c2)c1 (protonated)
COc1ccc(OC)c(S(=O)(=O)[N-]c2cccc(-c3nc4cc(C)ccc4o3)c2)c1 (3D coordinates assigned)
COc1ccc(OC)c(S(=O)(=O)[N-]c2cccc(-c3nc4cc(C)ccc4o3)c2)c1 (optimized conformer: 92.32341970021356 kcal/mol)

>  <smiles>  (40) 
COc1ccc(OC)c(S(=O)(=O)Nc2cccc(-c3nc4cc(C)ccc4o3)c2)c1

>  <score_type>  (40) 
oracle

>  <origin>  (40) 
adg

>  <m_score__min__energy>  (40) 
-10.470000000000001

>  <m_primary>  (40) 
energy

$$$$
40:0
     RDKit          3D

 44 47  0  0  0  0  0  0  0  0999 V2000
   63.3920   32.2790   47.5580 C   0  0  0  0  0  0  0  0  0  0  0  0
   62.0090   31.8920   47.1530 C   0  0  0  0  0  0  0  0  0  0  0  0
   61.0900   32.7710   46.7130 N   0  0  0  0  0  0  0  0  0  0  0  0
   60.0550   32.0430   46.4170 O   0  0  0  0  0  0  0  0  0  0  0  0
   60.3180   30.7790   46.6520 C   0  0  0  0  0  0  0  0  0  0  0  0
   59.3650   29.6760   46.4240 C   0  0  0  0  0  0  0  0  0  0  0  0
   58.2600   29.8650   45.5880 C   0  0  0  0  0  0  0  0  0  0  0  0
   57.3420   28.8340   45.3840 C   0  0  0  0  0  0  0  0  0  0  0  0
   57.5050   27.5790   46.0010 C   0  0  0  0  0  0  0  0  0  0  0  0
   56.4610   26.5300   45.7880 C   0  0  0  0  0  0  0  0  0  0  0  0
   56.6640   25.2560   45.2840 C   0  0  0  0  0  0  0  0  0  0  0  0
   55.4000   24.7080   45.2310 C   0  0  0  0  0  0  0  0  0  0  0  0
   55.0510   23.3740   44.7260 C   0  0  0  0  0  0  0  0  0  0  0  0
   53.8540   22.9790   44.7620 O   0  0  0  0  0  0  0  0  0  0  0  0
   56.0800   22.5200   44.2190 N   0  0  0  0  0  0  0  0  0  0  0  0
   57.0250   21.8020   45.0650 C   0  0  0  0  0  0  0  0  0  0  0  0
   56.5320   21.7600   46.4820 C   0  0  0  0  0  0  0  0  0  0  0  0
   55.4940   20.8900   46.8470 C   0  0  0  0  0  0  0  0  0  0  0  0
   55.0180   20.9020   48.1610 C   0  0  0  0  0  0  0  0  0  0  0  0
   55.5780   21.7770   49.0930 C   0  0  0  0  0  0  0  0  0  0  0  0
   56.6130   22.6290   48.6950 C   0  0  0  0  0  0  0  0  0  0  0  0
   57.0570   22.6090   47.4090 N   0  0  0  0  0  0  0  0  0  0  0  0
   54.4970   25.5990   45.6780 N   0  0  0  0  0  0  0  0  0  0  0  0
   55.1410   26.7070   46.0100 N   0  0  0  0  0  0  0  0  0  0  0  0
   58.6490   27.3720   46.8240 C   0  0  0  0  0  0  0  0  0  0  0  0
   58.9310   26.0530   47.4980 C   0  0  0  0  0  0  0  0  0  0  0  0
   59.5500   28.4300   47.0390 C   0  0  0  0  0  0  0  0  0  0  0  0
   61.5690   30.6170   47.1230 N   0  0  0  0  0  0  0  0  0  0  0  0
   63.4608   32.2982   48.6557 H   0  0  0  0  0  0  0  0  0  0  0  0
   64.1094   31.5471   47.1584 H   0  0  0  0  0  0  0  0  0  0  0  0
   63.6254   33.2769   47.1584 H   0  0  0  0  0  0  0  0  0  0  0  0
   58.1134   30.8335   45.0875 H   0  0  0  0  0  0  0  0  0  0  0  0
   56.4750   29.0050   44.7290 H   0  0  0  0  0  0  0  0  0  0  0  0
   57.6160   24.7883   44.9926 H   0  0  0  0  0  0  0  0  0  0  0  0
   57.1385   20.7741   44.6902 H   0  0  0  0  0  0  0  0  0  0  0  0
   57.9935   22.3228   45.0396 H   0  0  0  0  0  0  0  0  0  0  0  0
   55.0584   20.2042   46.1054 H   0  0  0  0  0  0  0  0  0  0  0  0
   54.2048   20.2241   48.4596 H   0  0  0  0  0  0  0  0  0  0  0  0
   55.2093   21.7962   50.1292 H   0  0  0  0  0  0  0  0  0  0  0  0
   57.0689   23.3164   49.4227 H   0  0  0  0  0  0  0  0  0  0  0  0
   58.9027   26.1856   48.5896 H   0  0  0  0  0  0  0  0  0  0  0  0
   58.1697   25.3178   47.1980 H   0  0  0  0  0  0  0  0  0  0  0  0
   59.9263   25.6934   47.1980 H   0  0  0  0  0  0  0  0  0  0  0  0
   60.4149   28.2772   47.7012 H   0  0  0  0  0  0  0  0  0  0  0  0
  1  2  1  0
  2  3  2  0
  3  4  1  0
  4  5  1  0
  5  6  1  0
  6  7  2  0
  7  8  1  0
  8  9  2  0
  9 10  1  0
 10 11  2  0
 11 12  1  0
 12 13  1  0
 13 14  2  0
 13 15  1  0
 15 16  1  0
 16 17  1  0
 17 18  2  0
 18 19  1  0
 19 20  2  0
 20 21  1  0
 21 22  2  0
 12 23  2  0
 23 24  1  0
  9 25  1  0
 25 26  1  0
 25 27  2  0
  5 28  2  0
 28  2  1  0
 27  6  1  0
 24 10  1  0
 22 17  1  0
  1 29  1  0
  1 30  1  0
  1 31  1  0
  7 32  1  0
  8 33  1  0
 11 34  1  0
 16 35  1  0
 16 36  1  0
 18 37  1  0
 19 38  1  0
 20 39  1  0
 21 40  1  0
 26 41  1  0
 26 42  1  0
 26 43  1  0
 27 44  1  0
M  CHG  2  15  -1  24  -1
M  END
>  <UniqueID>  (41) 
33

>  <SMILES>  (41) 
Cc1noc(-c2ccc(-c3cc(C(=O)[N-]Cc4ccccn4)n[n-]3)c(C)c2)n1

>  <Energy>  (41) 
111.75363854269482

>  <Genealogy>  (41) 
Cc1noc(-c2ccc(-c3cc(C(=O)[N-]Cc4ccccn4)n[n-]3)c(C)c2)n1 (protonated)
Cc1noc(-c2ccc(-c3cc(C(=O)[N-]Cc4ccccn4)n[n-]3)c(C)c2)n1 (3D coordinates assigned)
Cc1noc(-c2ccc(-c3cc(C(=O)[N-]Cc4ccccn4)n[n-]3)c(C)c2)n1 (optimized conformer: 111.75363854269482 kcal/mol)

>  <smiles>  (41) 
Cc1noc(-c2ccc(-c3cc(C(=O)NCc4ccccn4)n[nH]3)c(C)c2)n1

>  <score_type>  (41) 
oracle

>  <origin>  (41) 
adg

>  <m_score__min__energy>  (41) 
-12.119999999999999

>  <m_primary>  (41) 
energy

$$$$
41:0
     RDKit          3D

 45 47  0  0  0  0  0  0  0  0999 V2000
   61.6049   27.5322   51.2280 H   0  0  0  0  0  0  0  0  0  0  0  0
   61.2990   28.5750   51.0580 C   0  0  0  0  0  0  0  0  0  0  0  0
   62.2550   29.5390   50.7300 C   0  0  0  0  0  0  0  0  0  0  0  0
   63.3151   29.2570   50.6483 H   0  0  0  0  0  0  0  0  0  0  0  0
   61.8650   30.8600   50.5060 C   0  0  0  0  0  0  0  0  0  0  0  0
   62.6235   31.6203   50.2680 H   0  0  0  0  0  0  0  0  0  0  0  0
   60.5150   31.2250   50.5820 C   0  0  0  0  0  0  0  0  0  0  0  0
   60.1690   32.5590   50.3200 O   0  0  0  0  0  0  0  0  0  0  0  0
   59.8500   33.0680   49.0490 C   0  0  0  0  0  0  0  0  0  0  0  0
   60.7580   33.8600   48.3190 C   0  0  0  0  0  0  0  0  0  0  0  0
   61.7397   34.1066   48.7496 H   0  0  0  0  0  0  0  0  0  0  0  0
   60.4150   34.3340   47.0480 C   0  0  0  0  0  0  0  0  0  0  0  0
   61.1337   34.9377   46.4743 H   0  0  0  0  0  0  0  0  0  0  0  0
   59.1590   34.0410   46.5060 C   0  0  0  0  0  0  0  0  0  0  0  0
   58.8898   34.4133   45.5065 H   0  0  0  0  0  0  0  0  0  0  0  0
   58.2450   33.2730   47.2380 C   0  0  0  0  0  0  0  0  0  0  0  0
   57.0320   32.9740   46.7020 F   0  0  0  0  0  0  0  0  0  0  0  0
   58.5860   32.7990   48.5090 C   0  0  0  0  0  0  0  0  0  0  0  0
   57.8576   32.2119   49.0875 H   0  0  0  0  0  0  0  0  0  0  0  0
   59.5490   30.2640   50.9430 C   0  0  0  0  0  0  0  0  0  0  0  0
   58.1930   30.6770   51.1640 N   0  0  0  0  0  0  0  0  0  0  0  0
   57.6700   31.3130   52.3360 C   0  0  0  0  0  0  0  0  0  0  0  0
   58.4380   31.8200   53.1960 O   0  0  0  0  0  0  0  0  0  0  0  0
   56.1890   31.3250   52.5570 C   0  0  0  0  0  0  0  0  0  0  0  0
   55.7707   32.2480   52.1291 H   0  0  0  0  0  0  0  0  0  0  0  0
   56.0000   31.2761   53.6395 H   0  0  0  0  0  0  0  0  0  0  0  0
   55.5440   30.1700   51.9230 N   0  0  0  0  0  0  0  0  0  0  0  0
   54.3010   29.8010   52.0450 C   0  0  0  0  0  0  0  0  0  0  0  0
   53.2010   30.4810   51.3250 C   0  0  0  0  0  0  0  0  0  0  0  0
   52.7220   29.9440   50.1190 C   0  0  0  0  0  0  0  0  0  0  0  0
   53.1737   29.0286   49.7091 H   0  0  0  0  0  0  0  0  0  0  0  0
   51.6740   30.5680   49.4380 C   0  0  0  0  0  0  0  0  0  0  0  0
   51.2920   30.1332   48.5026 H   0  0  0  0  0  0  0  0  0  0  0  0
   51.1090   31.7440   49.9420 C   0  0  0  0  0  0  0  0  0  0  0  0
   50.0730   32.3620   49.2510 O   0  0  0  0  0  0  0  0  0  0  0  0
   51.5900   32.2930   51.1390 C   0  0  0  0  0  0  0  0  0  0  0  0
   51.0370   33.4690   51.6390 O   0  0  0  0  0  0  0  0  0  0  0  0
   52.6350   31.6640   51.8290 C   0  0  0  0  0  0  0  0  0  0  0  0
   53.0128   32.0972   52.7669 H   0  0  0  0  0  0  0  0  0  0  0  0
   53.9650   28.7630   53.0670 C   0  0  0  0  0  0  0  0  0  0  0  0
   54.1009   29.1830   54.0746 H   0  0  0  0  0  0  0  0  0  0  0  0
   52.9189   28.4477   52.9392 H   0  0  0  0  0  0  0  0  0  0  0  0
   54.6279   27.8945   52.9392 H   0  0  0  0  0  0  0  0  0  0  0  0
   59.9540   28.9360   51.1700 C   0  0  0  0  0  0  0  0  0  0  0  0
   59.2056   28.1757   51.4379 H   0  0  0  0  0  0  0  0  0  0  0  0
  1  2  1  0
  2  3  2  0
  3  4  1  0
  3  5  1  0
  5  6  1  0
  5  7  2  0
  7  8  1  0
  8  9  1  0
  9 10  2  0
 10 11  1  0
 10 12  1  0
 12 13  1  0
 12 14  2  0
 14 15  1  0
 14 16  1  0
 16 17  1  0
 16 18  2  0
 18 19  1  0
  7 20  1  0
 20 21  1  0
 21 22  1  0
 22 23  2  0
 22 24  1  0
 24 25  1  0
 24 26  1  0
 24 27  1  0
 27 28  2  0
 28 29  1  0
 29 30  2  0
 30 31  1  0
 30 32  1  0
 32 33  1  0
 32 34  2  0
 34 35  1  0
 34 36  1  0
 36 37  1  0
 36 38  2  0
 38 39  1  0
 28 40  1  0
 40 41  1  0
 40 42  1  0
 40 43  1  0
 20 44  2  0
 44 45  1  0
 44  2  1  0
 18  9  1  0
 38 29  1  0
M  CHG  3  21  -1  35  -1  37  -1
M  END
>  <UniqueID>  (42) 
34

>  <SMILES>  (42) 
C/C(=N/CC(=O)[N-]c1ccccc1Oc1cccc(F)c1)c1ccc([O-])c([O-])c1

>  <Energy>  (42) 
59.793941141763

>  <Genealogy>  (42) 
CC(=NCC(=O)[N-]c1ccccc1Oc1cccc(F)c1)c1ccc([O-])c([O-])c1 (protonated)
C/C(=N/CC(=O)[N-]c1ccccc1Oc1cccc(F)c1)c1ccc([O-])c([O-])c1 (cis-trans isomerization)
C/C(=N/CC(=O)[N-]c1ccccc1Oc1cccc(F)c1)c1ccc([O-])c([O-])c1 (3D coordinates assigned)
C/C(=N/CC(=O)[N-]c1ccccc1Oc1cccc(F)c1)c1ccc([O-])c([O-])c1 (optimized conformer: 59.793941141763 kcal/mol)

>  <smiles>  (42) 
CC(=NCC(=O)Nc1ccccc1Oc1cccc(F)c1)c1ccc(O)c(O)c1

>  <score_type>  (42) 
oracle

>  <origin>  (42) 
adg

>  <m_score__min__energy>  (42) 
-18.109999999999999

>  <m_primary>  (42) 
energy

$$$$
42:0
     RDKit          3D

 44 46  0  0  0  0  0  0  0  0999 V2000
   55.6820   29.7140   45.9910 H   0  0  0  0  0  0  0  0  0  0  0  0
   55.8110   29.1850   45.1000 N   0  0  0  0  0  0  0  0  0  0  0  0
   56.8350   29.3560   44.3230 C   0  0  0  0  0  0  0  0  0  0  0  0
   57.4310   30.7010   44.1280 C   0  0  0  0  0  0  0  0  0  0  0  0
   57.3540   31.3460   42.8820 C   0  0  0  0  0  0  0  0  0  0  0  0
   56.8624   30.8442   42.0355 H   0  0  0  0  0  0  0  0  0  0  0  0
   57.8980   32.6200   42.7130 C   0  0  0  0  0  0  0  0  0  0  0  0
   57.8388   33.1150   41.7325 H   0  0  0  0  0  0  0  0  0  0  0  0
   58.5170   33.2690   43.7830 C   0  0  0  0  0  0  0  0  0  0  0  0
   58.9340   34.2772   43.6429 H   0  0  0  0  0  0  0  0  0  0  0  0
   58.6110   32.6430   45.0380 C   0  0  0  0  0  0  0  0  0  0  0  0
   59.1910   33.3560   46.2040 C   0  0  0  0  0  0  0  0  0  0  0  0
   59.5630   34.5570   46.0850 O   0  0  0  0  0  0  0  0  0  0  0  0
   59.3990   32.6850   47.4530 N   0  0  0  0  0  0  0  0  0  0  0  0
   58.5910   32.1910   47.8930 H   0  0  0  0  0  0  0  0  0  0  0  0
   60.6250   32.8130   48.1960 C   0  0  0  0  0  0  0  0  0  0  0  0
   60.9680   34.0600   48.7380 C   0  0  0  0  0  0  0  0  0  0  0  0
   60.3002   34.9217   48.5915 H   0  0  0  0  0  0  0  0  0  0  0  0
   62.1510   34.2150   49.4620 C   0  0  0  0  0  0  0  0  0  0  0  0
   62.4211   35.2011   49.8679 H   0  0  0  0  0  0  0  0  0  0  0  0
   62.9920   33.1210   49.6720 C   0  0  0  0  0  0  0  0  0  0  0  0
   63.9251   33.2472   50.2407 H   0  0  0  0  0  0  0  0  0  0  0  0
   62.6510   31.8650   49.1610 C   0  0  0  0  0  0  0  0  0  0  0  0
   63.3085   31.0023   49.3440 H   0  0  0  0  0  0  0  0  0  0  0  0
   61.4710   31.7000   48.4140 C   0  0  0  0  0  0  0  0  0  0  0  0
   61.0540   30.4040   47.9580 N   0  0  0  0  0  0  0  0  0  0  0  0
   59.7680   29.7910   48.1110 C   0  0  0  0  0  0  0  0  0  0  0  0
   58.9060   30.3030   48.8760 O   0  0  0  0  0  0  0  0  0  0  0  0
   59.4850   28.5080   47.4250 C   0  0  0  0  0  0  0  0  0  0  0  0
   58.1590   28.1140   47.1590 C   0  0  0  0  0  0  0  0  0  0  0  0
   57.3257   28.7769   47.4351 H   0  0  0  0  0  0  0  0  0  0  0  0
   57.8960   26.8850   46.5460 C   0  0  0  0  0  0  0  0  0  0  0  0
   56.8575   26.5851   46.3419 H   0  0  0  0  0  0  0  0  0  0  0  0
   58.9480   26.0370   46.1920 C   0  0  0  0  0  0  0  0  0  0  0  0
   58.7378   25.0686   45.7145 H   0  0  0  0  0  0  0  0  0  0  0  0
   60.2670   26.4200   46.4450 C   0  0  0  0  0  0  0  0  0  0  0  0
   61.0957   25.7532   46.1645 H   0  0  0  0  0  0  0  0  0  0  0  0
   60.5360   27.6490   47.0540 C   0  0  0  0  0  0  0  0  0  0  0  0
   61.5775   27.9471   47.2448 H   0  0  0  0  0  0  0  0  0  0  0  0
   58.0700   31.3530   45.1960 C   0  0  0  0  0  0  0  0  0  0  0  0
   58.1487   30.8480   46.1700 H   0  0  0  0  0  0  0  0  0  0  0  0
   57.3990   28.2180   43.6640 N   0  0  0  0  0  0  0  0  0  0  0  0
   57.0080   27.2640   43.8340 H   0  0  0  0  0  0  0  0  0  0  0  0
   58.1690   28.3230   42.9680 H   0  0  0  0  0  0  0  0  0  0  0  0
  1  2  1  0
  2  3  2  0
  3  4  1  0
  4  5  2  0
  5  6  1  0
  5  7  1  0
  7  8  1  0
  7  9  2  0
  9 10  1  0
  9 11  1  0
 11 12  1  0
 12 13  2  0
 12 14  1  0
 14 15  1  0
 14 16  1  0
 16 17  2  0
 17 18  1  0
 17 19  1  0
 19 20  1  0
 19 21  2  0
 21 22  1  0
 21 23  1  0
 23 24  1  0
 23 25  2  0
 25 26  1  0
 26 27  1  0
 27 28  2  0
 27 29  1  0
 29 30  2  0
 30 31  1  0
 30 32  1  0
 32 33  1  0
 32 34  2  0
 34 35  1  0
 34 36  1  0
 36 37  1  0
 36 38  2  0
 38 39  1  0
 11 40  2  0
 40 41  1  0
  3 42  1  0
 42 43  1  0
 42 44  1  0
 40  4  1  0
 25 16  1  0
 38 29  1  0
M  CHG  1  26  -1
M  END
>  <UniqueID>  (43) 
35

>  <SMILES>  (43) 
[H]/N=C(/N)c1cccc(C(=O)Nc2ccccc2[N-]C(=O)c2ccccc2)c1

>  <Energy>  (43) 
59.43235122110028

>  <Genealogy>  (43) 
N=C(N)c1cccc(C(=O)Nc2ccccc2[N-]C(=O)c2ccccc2)c1 (protonated)
[H]/N=C(/N)c1cccc(C(=O)Nc2ccccc2[N-]C(=O)c2ccccc2)c1 (cis-trans isomerization)
[H]/N=C(/N)c1cccc(C(=O)Nc2ccccc2[N-]C(=O)c2ccccc2)c1 (3D coordinates assigned)
[H]/N=C(/N)c1cccc(C(=O)Nc2ccccc2[N-]C(=O)c2ccccc2)c1 (optimized conformer: 59.43235122110028 kcal/mol)

>  <smiles>  (43) 
N=C(N)c1cccc(C(=O)Nc2ccccc2NC(=O)c2ccccc2)c1

>  <score_type>  (43) 
oracle

>  <origin>  (43) 
adg

>  <m_score__min__energy>  (43) 
-10.02

>  <m_primary>  (43) 
energy

$$$$
43:0
     RDKit          3D

 46 47  0  0  0  0  0  0  0  0999 V2000
   59.2870   34.3840   44.8220 C   0  0  0  0  0  0  0  0  0  0  0  0
   58.3240   33.1740   44.7770 C   0  0  0  0  0  0  0  0  0  0  0  0
   56.9610   33.6210   45.3500 C   0  0  0  0  0  0  0  0  0  0  0  0
   58.1110   32.7410   43.3070 C   0  0  0  0  0  0  0  0  0  0  0  0
   58.8380   32.0470   45.6000 N   0  0  0  0  0  0  0  0  0  0  0  0
   57.9470   30.9180   45.6540 C   0  0  0  0  0  0  0  0  0  0  0  0
   56.9550   30.8590   44.8770 O   0  0  0  0  0  0  0  0  0  0  0  0
   58.1840   29.8670   46.5950 N   0  0  0  0  0  0  0  0  0  0  0  0
   59.4470   29.9440   47.7760 S   0  0  0  0  0  0  0  0  0  0  0  0
   60.5180   30.8820   47.2970 O   0  0  0  0  0  0  0  0  0  0  0  0
   60.0390   28.5720   47.9470 O   0  0  0  0  0  0  0  0  0  0  0  0
   58.8010   30.5460   49.3100 C   0  0  0  0  0  0  0  0  0  0  0  0
   58.5200   29.6440   50.3450 C   0  0  0  0  0  0  0  0  0  0  0  0
   58.0250   30.0890   51.5290 N   0  0  0  0  0  0  0  0  0  0  0  0
   57.7870   31.4060   51.7510 C   0  0  0  0  0  0  0  0  0  0  0  0
   58.0530   32.3460   50.7550 C   0  0  0  0  0  0  0  0  0  0  0  0
   58.5710   31.9210   49.5140 C   0  0  0  0  0  0  0  0  0  0  0  0
   58.8410   32.7620   48.5510 N   0  0  0  0  0  0  0  0  0  0  0  0
   59.6460   33.9820   48.6330 C   0  0  0  0  0  0  0  0  0  0  0  0
   61.0890   33.6940   48.3080 C   0  0  0  0  0  0  0  0  0  0  0  0
   61.9610   33.2420   49.3130 C   0  0  0  0  0  0  0  0  0  0  0  0
   63.2980   32.9630   49.0130 C   0  0  0  0  0  0  0  0  0  0  0  0
   63.7710   33.1250   47.7080 C   0  0  0  0  0  0  0  0  0  0  0  0
   62.9070   33.5620   46.7000 C   0  0  0  0  0  0  0  0  0  0  0  0
   61.5690   33.8400   46.9960 C   0  0  0  0  0  0  0  0  0  0  0  0
   59.4964   34.6472   45.8693 H   0  0  0  0  0  0  0  0  0  0  0  0
   60.2274   34.1233   44.3143 H   0  0  0  0  0  0  0  0  0  0  0  0
   58.8219   35.2419   44.3143 H   0  0  0  0  0  0  0  0  0  0  0  0
   57.0030   33.6072   46.4491 H   0  0  0  0  0  0  0  0  0  0  0  0
   56.7345   34.6405   45.0045 H   0  0  0  0  0  0  0  0  0  0  0  0
   56.1748   32.9336   45.0045 H   0  0  0  0  0  0  0  0  0  0  0  0
   57.6256   31.7542   43.2821 H   0  0  0  0  0  0  0  0  0  0  0  0
   57.4721   33.4769   42.7969 H   0  0  0  0  0  0  0  0  0  0  0  0
   59.0839   32.6840   42.7969 H   0  0  0  0  0  0  0  0  0  0  0  0
   59.0150   32.3740   46.5790 H   0  0  0  0  0  0  0  0  0  0  0  0
   59.7560   31.7180   45.2160 H   0  0  0  0  0  0  0  0  0  0  0  0
   58.7014   28.5691   50.1977 H   0  0  0  0  0  0  0  0  0  0  0  0
   57.3827   31.7340   52.7200 H   0  0  0  0  0  0  0  0  0  0  0  0
   57.8596   33.4135   50.9368 H   0  0  0  0  0  0  0  0  0  0  0  0
   59.2556   34.7204   47.9172 H   0  0  0  0  0  0  0  0  0  0  0  0
   59.5873   34.3748   49.6588 H   0  0  0  0  0  0  0  0  0  0  0  0
   61.5903   33.1071   50.3399 H   0  0  0  0  0  0  0  0  0  0  0  0
   63.9780   32.6157   49.8049 H   0  0  0  0  0  0  0  0  0  0  0  0
   64.8238   32.9085   47.4740 H   0  0  0  0  0  0  0  0  0  0  0  0
   63.2800   33.6874   45.6728 H   0  0  0  0  0  0  0  0  0  0  0  0
   60.8895   34.1744   46.1982 H   0  0  0  0  0  0  0  0  0  0  0  0
  1  2  1  0
  2  3  1  0
  2  4  1  0
  2  5  1  0
  5  6  1  0
  6  7  2  0
  6  8  1  0
  8  9  1  0
  9 10  2  0
  9 11  2  0
  9 12  1  0
 12 13  2  0
 13 14  1  0
 14 15  1  0
 15 16  2  0
 16 17  1  0
 17 18  2  3
 18 19  1  0
 19 20  1  0
 20 21  2  0
 21 22  1  0
 22 23  2  0
 23 24  1  0
 24 25  2  0
 17 12  1  0
 25 20  1  0
  1 26  1  0
  1 27  1  0
  1 28  1  0
  3 29  1  0
  3 30  1  0
  3 31  1  0
  4 32  1  0
  4 33  1  0
  4 34  1  0
  5 35  1  0
  5 36  1  0
 13 37  1  0
 15 38  1  0
 16 39  1  0
 19 40  1  0
 19 41  1  0
 21 42  1  0
 22 43  1  0
 23 44  1  0
 24 45  1  0
 25 46  1  0
M  CHG  3   5   1   8  -1  14  -1
M  END
>  <UniqueID>  (44) 
36

>  <SMILES>  (44) 
CC(C)(C)[NH2+]C(=O)[N-]S(=O)(=O)c1c[n-]ccc1=NCc1ccccc1

>  <Energy>  (44) 
49.94009319094583

>  <Genealogy>  (44) 
CC(C)(C)[NH2+]C(=O)[N-]S(=O)(=O)c1c[n-]ccc1=NCc1ccccc1 (protonated)
CC(C)(C)[NH2+]C(=O)[N-]S(=O)(=O)c1c[n-]ccc1=NCc1ccccc1 (3D coordinates assigned)
CC(C)(C)[NH2+]C(=O)[N-]S(=O)(=O)c1c[n-]ccc1=NCc1ccccc1 (optimized conformer: 49.94009319094583 kcal/mol)

>  <smiles>  (44) 
CC(C)(C)NC(=O)NS(=O)(=O)c1c[nH]ccc1=NCc1ccccc1

>  <score_type>  (44) 
oracle

>  <origin>  (44) 
adg

>  <m_score__min__energy>  (44) 
-8.9399999999999995

>  <m_primary>  (44) 
energy

$$$$
44:0
     RDKit          3D

 51 54  0  0  0  0  0  0  0  0999 V2000
   56.8240   20.1620   47.2340 C   0  0  0  0  0  0  0  0  0  0  0  0
   56.9860   21.3350   46.3210 C   0  0  0  0  0  0  0  0  0  0  0  0
   56.7280   21.2010   44.9380 C   0  0  0  0  0  0  0  0  0  0  0  0
   56.9250   22.3120   44.0970 C   0  0  0  0  0  0  0  0  0  0  0  0
   56.6280   22.2440   42.6290 C   0  0  0  0  0  0  0  0  0  0  0  0
   57.3460   23.4650   44.6770 N   0  0  0  0  0  0  0  0  0  0  0  0
   57.5820   24.6290   44.1060 N   0  0  0  0  0  0  0  0  0  0  0  0
   57.9840   25.4320   45.1230 C   0  0  0  0  0  0  0  0  0  0  0  0
   58.3500   26.8430   44.9450 C   0  0  0  0  0  0  0  0  0  0  0  0
   59.5690   27.1650   44.9240 O   0  0  0  0  0  0  0  0  0  0  0  0
   57.3320   27.8400   44.7560 N   0  0  0  0  0  0  0  0  0  0  0  0
   57.5680   29.2550   44.8450 C   0  0  0  0  0  0  0  0  0  0  0  0
   58.7200   29.7710   45.4660 C   0  0  0  0  0  0  0  0  0  0  0  0
   58.9120   31.1520   45.5640 C   0  0  0  0  0  0  0  0  0  0  0  0
   57.9540   32.0360   45.0520 C   0  0  0  0  0  0  0  0  0  0  0  0
   58.1720   33.7780   45.2020 S   0  0  0  0  0  0  0  0  0  0  0  0
   59.1190   34.2650   44.1400 O   0  0  0  0  0  0  0  0  0  0  0  0
   56.8410   34.4480   45.0000 O   0  0  0  0  0  0  0  0  0  0  0  0
   58.7950   34.1760   46.7870 N   0  0  0  0  0  0  0  0  0  0  0  0
   58.4860   33.0800   47.7360 C   0  0  0  0  0  0  0  0  0  0  0  0
   59.2640   33.1940   49.0480 C   0  0  0  0  0  0  0  0  0  0  0  0
   60.9910   32.9530   48.7020 S   0  0  0  0  0  0  0  0  0  0  0  0
   61.8270   33.7880   49.6320 O   0  0  0  0  0  0  0  0  0  0  0  0
   61.3590   31.5040   48.8480 O   0  0  0  0  0  0  0  0  0  0  0  0
   61.2240   33.4780   47.0200 C   0  0  0  0  0  0  0  0  0  0  0  0
   60.2200   34.5940   46.7040 C   0  0  0  0  0  0  0  0  0  0  0  0
   56.7920   31.5280   44.4600 C   0  0  0  0  0  0  0  0  0  0  0  0
   56.5980   30.1470   44.3610 C   0  0  0  0  0  0  0  0  0  0  0  0
   58.0060   24.8030   46.3310 N   0  0  0  0  0  0  0  0  0  0  0  0
   57.5960   23.5720   45.9820 C   0  0  0  0  0  0  0  0  0  0  0  0
   57.4300   22.5260   46.8250 N   0  0  0  0  0  0  0  0  0  0  0  0
   56.8709   20.5017   48.2792 H   0  0  0  0  0  0  0  0  0  0  0  0
   55.8513   19.6836   47.0472 H   0  0  0  0  0  0  0  0  0  0  0  0
   57.6307   19.4378   47.0472 H   0  0  0  0  0  0  0  0  0  0  0  0
   56.3786   20.2431   44.5253 H   0  0  0  0  0  0  0  0  0  0  0  0
   55.5655   22.0007   42.4807 H   0  0  0  0  0  0  0  0  0  0  0  0
   56.8498   23.2162   42.1646 H   0  0  0  0  0  0  0  0  0  0  0  0
   57.2507   21.4652   42.1646 H   0  0  0  0  0  0  0  0  0  0  0  0
   56.3820   27.5210   44.4590 H   0  0  0  0  0  0  0  0  0  0  0  0
   59.4741   29.0836   45.8769 H   0  0  0  0  0  0  0  0  0  0  0  0
   59.8192   31.5461   46.0452 H   0  0  0  0  0  0  0  0  0  0  0  0
   57.4098   33.1044   47.9625 H   0  0  0  0  0  0  0  0  0  0  0  0
   58.7814   32.1347   47.2573 H   0  0  0  0  0  0  0  0  0  0  0  0
   59.1089   34.1910   49.4860 H   0  0  0  0  0  0  0  0  0  0  0  0
   58.9129   32.4343   49.7618 H   0  0  0  0  0  0  0  0  0  0  0  0
   62.2489   33.8556   46.8897 H   0  0  0  0  0  0  0  0  0  0  0  0
   61.0640   32.6290   46.3391 H   0  0  0  0  0  0  0  0  0  0  0  0
   60.3806   35.4146   47.4187 H   0  0  0  0  0  0  0  0  0  0  0  0
   60.4003   34.8943   45.6613 H   0  0  0  0  0  0  0  0  0  0  0  0
   56.0285   32.2179   44.0712 H   0  0  0  0  0  0  0  0  0  0  0  0
   55.6785   29.7565   43.9005 H   0  0  0  0  0  0  0  0  0  0  0  0
  1  2  1  0
  2  3  1  0
  3  4  2  0
  4  5  1  0
  4  6  1  0
  6  7  1  0
  7  8  2  0
  8  9  1  0
  9 10  2  0
  9 11  1  0
 11 12  1  0
 12 13  2  0
 13 14  1  0
 14 15  2  0
 15 16  1  0
 16 17  2  0
 16 18  2  0
 16 19  1  0
 19 20  1  0
 20 21  1  0
 21 22  1  0
 22 23  2  0
 22 24  2  0
 22 25  1  0
 25 26  1  0
 15 27  1  0
 27 28  2  0
  8 29  1  0
 29 30  2  0
 30 31  1  0
 31  2  2  0
 30  6  1  0
 28 12  1  0
 26 19  1  0
  1 32  1  0
  1 33  1  0
  1 34  1  0
  3 35  1  0
  5 36  1  0
  5 37  1  0
  5 38  1  0
 11 39  1  0
 13 40  1  0
 14 41  1  0
 20 42  1  0
 20 43  1  0
 21 44  1  0
 21 45  1  0
 25 46  1  0
 25 47  1  0
 26 48  1  0
 26 49  1  0
 27 50  1  0
 28 51  1  0
M  END
>  <UniqueID>  (45) 
37

>  <SMILES>  (45) 
Cc1cc(C)n2nc(C(=O)Nc3ccc(S(=O)(=O)N4CCS(=O)(=O)CC4)cc3)nc2n1

>  <Energy>  (45) 
95.01702974788134

>  <Genealogy>  (45) 
Cc1cc(C)n2nc(C(=O)Nc3ccc(S(=O)(=O)N4CCS(=O)(=O)CC4)cc3)nc2n1 (3D coordinates assigned)
Cc1cc(C)n2nc(C(=O)Nc3ccc(S(=O)(=O)N4CCS(=O)(=O)CC4)cc3)nc2n1 (nonaromatic ring conformer: 95.01702974788134 kcal/mol)

>  <smiles>  (45) 
Cc1cc(C)n2nc(C(=O)Nc3ccc(S(=O)(=O)N4CCS(=O)(=O)CC4)cc3)nc2n1

>  <score_type>  (45) 
oracle

>  <origin>  (45) 
adg

>  <m_score__min__energy>  (45) 
-9.3699999999999992

>  <m_primary>  (45) 
energy

$$$$
45:0
     RDKit          3D

 49 51  0  0  1  0  0  0  0  0999 V2000
   63.2210   33.8040   50.4460 C   0  0  0  0  0  0  0  0  0  0  0  0
   62.8350   33.6900   49.0030 C   0  0  0  0  0  0  0  0  0  0  0  0
   63.8620   33.5180   48.0970 C   0  0  0  0  0  0  0  0  0  0  0  0
   63.5150   33.4130   46.7670 C   0  0  0  0  0  0  0  0  0  0  0  0
   62.1830   33.4810   46.3880 C   0  0  0  0  0  0  0  0  0  0  0  0
   61.1580   33.6500   47.2710 C   0  0  0  0  0  0  0  0  0  0  0  0
   59.7210   33.7180   46.9620 C   0  0  2  0  0  0  0  0  0  0  0  0
   59.2790   34.6330   48.1730 C   0  0  0  0  0  0  0  0  0  0  0  0
   59.3780   28.9690   44.5070 N   0  0  0  0  0  0  0  0  0  0  0  0
   59.4570   29.5050   45.6740 C   0  0  0  0  0  0  0  0  0  0  0  0
   59.1660   30.8090   45.9020 N   0  0  0  0  0  0  0  0  0  0  0  0
   59.2520   31.3570   47.1280 C   0  0  0  0  0  0  0  0  0  0  0  0
   58.9780   32.5690   47.3210 N   0  0  0  0  0  0  0  0  0  0  0  0
   58.2530   28.2270   44.0290 C   0  0  0  0  0  0  0  0  0  0  0  0
   56.9840   28.7360   44.6370 C   0  0  0  0  0  0  0  0  0  0  0  0
   56.2990   29.6920   43.6680 C   0  0  0  0  0  0  0  0  0  0  0  0
   56.9170   31.0110   43.8520 N   0  0  0  0  0  0  0  0  0  0  0  0
   57.8060   31.6170   43.0400 C   0  0  0  0  0  0  0  0  0  0  0  0
   58.1350   32.8140   43.5520 N   0  0  0  0  0  0  0  0  0  0  0  0
   57.4390   32.9460   44.6920 C   0  0  0  0  0  0  0  0  0  0  0  0
   56.6920   31.8400   44.8760 N   0  0  0  0  0  0  0  0  0  0  0  0
   59.8460   28.7190   46.6990 N   0  0  0  0  0  0  0  0  0  0  0  0
   59.9350   29.2620   47.9300 C   0  0  0  0  0  0  0  0  0  0  0  0
   60.4530   28.1710   49.2260 Cl  0  0  0  0  0  0  0  0  0  0  0  0
   59.6430   30.5880   48.1840 C   0  0  0  0  0  0  0  0  0  0  0  0
   59.7760   31.0320   49.5320 C   0  0  0  0  0  0  0  0  0  0  0  0
   59.9060   31.3950   50.6290 N   0  0  0  0  0  0  0  0  0  0  0  0
   61.5110   33.7570   48.6200 C   0  0  0  0  0  0  0  0  0  0  0  0
   62.3574   33.5490   51.0778 H   0  0  0  0  0  0  0  0  0  0  0  0
   64.0489   33.1120   50.6599 H   0  0  0  0  0  0  0  0  0  0  0  0
   63.5401   34.8347   50.6599 H   0  0  0  0  0  0  0  0  0  0  0  0
   64.9116   33.4669   48.4221 H   0  0  0  0  0  0  0  0  0  0  0  0
   64.2963   33.2750   46.0050 H   0  0  0  0  0  0  0  0  0  0  0  0
   61.9405   33.3940   45.3186 H   0  0  0  0  0  0  0  0  0  0  0  0
   59.5725   33.9597   45.8992 H   0  0  0  0  0  0  0  0  0  0  0  0
   59.5220   34.1299   49.1205 H   0  0  0  0  0  0  0  0  0  0  0  0
   59.8124   35.5936   48.1206 H   0  0  0  0  0  0  0  0  0  0  0  0
   58.1950   34.8122   48.1206 H   0  0  0  0  0  0  0  0  0  0  0  0
   58.8640   31.3910   45.0700 H   0  0  0  0  0  0  0  0  0  0  0  0
   58.1940   28.3261   42.9351 H   0  0  0  0  0  0  0  0  0  0  0  0
   58.3808   27.1716   44.3113 H   0  0  0  0  0  0  0  0  0  0  0  0
   56.3149   27.8892   44.8499 H   0  0  0  0  0  0  0  0  0  0  0  0
   57.2150   29.2676   45.5719 H   0  0  0  0  0  0  0  0  0  0  0  0
   56.4444   29.3484   42.6332 H   0  0  0  0  0  0  0  0  0  0  0  0
   55.2171   29.7366   43.8617 H   0  0  0  0  0  0  0  0  0  0  0  0
   58.2007   31.1963   42.1034 H   0  0  0  0  0  0  0  0  0  0  0  0
   57.4729   33.8149   45.3657 H   0  0  0  0  0  0  0  0  0  0  0  0
   60.0750   27.7100   46.5400 H   0  0  0  0  0  0  0  0  0  0  0  0
   60.7284   33.8954   49.3805 H   0  0  0  0  0  0  0  0  0  0  0  0
  1  2  1  0
  2  3  2  0
  3  4  1  0
  4  5  2  0
  5  6  1  0
  6  7  1  0
  7  8  1  0
  7  9  1  0
  9 10  2  0
 10 11  1  0
 11 12  1  0
 12 13  2  0
 13 14  1  0
 14 15  1  0
 15 16  1  0
 16 17  1  0
 17 18  1  0
 18 19  2  0
 19 20  1  0
 20 21  2  0
 12 22  1  0
 22 23  1  0
 23 24  1  0
 23 25  2  0
 25 26  1  0
 26 27  3  0
  6 28  2  0
 28  2  1  0
 25 10  1  0
 21 17  1  0
  1 29  1  0
  1 30  1  0
  1 31  1  0
  3 32  1  0
  4 33  1  0
  5 34  1  0
  7 35  1  6
  8 36  1  0
  8 37  1  0
  8 38  1  0
 11 39  1  0
 14 40  1  0
 14 41  1  0
 15 42  1  0
 15 43  1  0
 16 44  1  0
 16 45  1  0
 18 46  1  0
 20 47  1  0
 22 48  1  0
 28 49  1  0
M  END
>  <smiles>  (46) 
Cc1cccc(C(C)N=c2[nH]c(=NCCCn3cncn3)[nH]c(Cl)c2C#N)c1

>  <score_type>  (46) 
oracle

>  <origin>  (46) 
adg

>  <m_score__min__energy>  (46) 
-9.1199999999999992

>  <m_primary>  (46) 
energy

$$$$
46:0
     RDKit          3D

 38 40  0  0  0  0  0  0  0  0999 V2000
   56.6280   29.1580   42.6180 C   0  0  0  0  0  0  0  0  0  0  0  0
   56.5760   29.2110   44.3940 S   0  0  0  0  0  0  0  0  0  0  0  0
   57.0340   27.8880   44.9430 O   0  0  0  0  0  0  0  0  0  0  0  0
   55.1680   29.4640   44.8550 O   0  0  0  0  0  0  0  0  0  0  0  0
   57.6250   30.5020   44.9710 C   0  0  0  0  0  0  0  0  0  0  0  0
   58.7860   30.1880   45.6880 C   0  0  0  0  0  0  0  0  0  0  0  0
   59.6190   31.2050   46.1610 C   0  0  0  0  0  0  0  0  0  0  0  0
   59.2990   32.5610   45.9310 C   0  0  0  0  0  0  0  0  0  0  0  0
   60.1640   33.6340   46.3920 N   0  0  1  0  0  0  0  0  0  0  0  0
   59.5960   34.9090   46.0980 C   0  0  0  0  0  0  0  0  0  0  0  0
   59.4050   35.3190   44.9220 O   0  0  0  0  0  0  0  0  0  0  0  0
   59.2980   35.6730   47.2000 O   0  0  0  0  0  0  0  0  0  0  0  0
   59.6280   34.9630   48.3750 C   0  0  0  0  0  0  0  0  0  0  0  0
   60.2970   33.6550   47.8750 C   0  0  2  0  0  0  0  0  0  0  0  0
   61.7550   33.5730   48.3050 C   0  0  0  0  0  0  0  0  0  0  0  0
   62.1200   33.8660   49.6330 C   0  0  0  0  0  0  0  0  0  0  0  0
   63.4560   33.7770   50.0340 C   0  0  0  0  0  0  0  0  0  0  0  0
   64.4390   33.3940   49.1200 C   0  0  0  0  0  0  0  0  0  0  0  0
   64.0880   33.0930   47.8010 C   0  0  0  0  0  0  0  0  0  0  0  0
   62.7540   33.1780   47.3940 C   0  0  0  0  0  0  0  0  0  0  0  0
   58.1340   32.8640   45.2030 C   0  0  0  0  0  0  0  0  0  0  0  0
   57.3000   31.8440   44.7350 C   0  0  0  0  0  0  0  0  0  0  0  0
   57.3644   28.4074   42.2950 H   0  0  0  0  0  0  0  0  0  0  0  0
   55.6348   28.8879   42.2300 H   0  0  0  0  0  0  0  0  0  0  0  0
   56.9170   30.1459   42.2300 H   0  0  0  0  0  0  0  0  0  0  0  0
   59.0434   29.1359   45.8797 H   0  0  0  0  0  0  0  0  0  0  0  0
   60.5322   30.9472   46.7175 H   0  0  0  0  0  0  0  0  0  0  0  0
   61.0970   33.5850   45.9140 H   0  0  0  0  0  0  0  0  0  0  0  0
   60.3275   35.5434   48.9946 H   0  0  0  0  0  0  0  0  0  0  0  0
   58.7456   34.7643   49.0010 H   0  0  0  0  0  0  0  0  0  0  0  0
   59.8020   32.7781   48.3178 H   0  0  0  0  0  0  0  0  0  0  0  0
   61.3498   34.1665   50.3586 H   0  0  0  0  0  0  0  0  0  0  0  0
   63.7335   34.0094   51.0727 H   0  0  0  0  0  0  0  0  0  0  0  0
   65.4901   33.3291   49.4378 H   0  0  0  0  0  0  0  0  0  0  0  0
   64.8631   32.7887   47.0822 H   0  0  0  0  0  0  0  0  0  0  0  0
   62.4824   32.9350   46.3561 H   0  0  0  0  0  0  0  0  0  0  0  0
   57.8766   33.9140   44.9999 H   0  0  0  0  0  0  0  0  0  0  0  0
   56.3849   32.0964   44.1792 H   0  0  0  0  0  0  0  0  0  0  0  0
  1  2  1  0
  2  3  2  0
  2  4  2  0
  2  5  1  0
  5  6  2  0
  6  7  1  0
  7  8  2  0
  8  9  1  0
  9 10  1  0
 10 11  2  0
 10 12  1  0
 12 13  1  0
 13 14  1  0
 14 15  1  0
 15 16  2  0
 16 17  1  0
 17 18  2  0
 18 19  1  0
 19 20  2  0
  8 21  1  0
 21 22  2  0
 22  5  1  0
 14  9  1  0
 20 15  1  0
  1 23  1  0
  1 24  1  0
  1 25  1  0
  6 26  1  0
  7 27  1  0
  9 28  1  6
 13 29  1  0
 13 30  1  0
 14 31  1  1
 16 32  1  0
 17 33  1  0
 18 34  1  0
 19 35  1  0
 20 36  1  0
 21 37  1  0
 22 38  1  0
M  CHG  1   9   1
M  END
>  <UniqueID>  (47) 
38

>  <SMILES>  (47) 
CS(=O)(=O)c1ccc([N@H+]2C(=O)OC[C@@H]2c2ccccc2)cc1

>  <Energy>  (47) 
53.77584231867035

>  <Genealogy>  (47) 
CS(=O)(=O)c1ccc([NH+]2C(=O)OCC2c2ccccc2)cc1 (protonated)
CS(=O)(=O)c1ccc([N@H+]2C(=O)OC[C@@H]2c2ccccc2)cc1 (chirality)
CS(=O)(=O)c1ccc([N@H+]2C(=O)OC[C@@H]2c2ccccc2)cc1 (3D coordinates assigned)
CS(=O)(=O)c1ccc([N@H+]2C(=O)OC[C@@H]2c2ccccc2)cc1 (nonaromatic ring conformer: 53.77584231867035 kcal/mol)

>  <smiles>  (47) 
CS(=O)(=O)c1ccc(N2C(=O)OCC2c2ccccc2)cc1

>  <score_type>  (47) 
oracle

>  <origin>  (47) 
adg

>  <m_score__min__energy>  (47) 
-6.9199999999999999

>  <m_primary>  (47) 
energy

$$$$
47:0
     RDKit          3D

 52 55  0  0  0  0  0  0  0  0999 V2000
   63.9090   33.4551   48.5799 H   0  0  0  0  0  0  0  0  0  0  0  0
   62.8760   33.3880   48.2080 C   0  0  0  0  0  0  0  0  0  0  0  0
   62.6230   33.4590   46.8380 C   0  0  0  0  0  0  0  0  0  0  0  0
   63.4566   33.5829   46.1311 H   0  0  0  0  0  0  0  0  0  0  0  0
   61.3130   33.3730   46.3630 C   0  0  0  0  0  0  0  0  0  0  0  0
   61.1198   33.4324   45.2817 H   0  0  0  0  0  0  0  0  0  0  0  0
   60.2380   33.2110   47.2560 C   0  0  0  0  0  0  0  0  0  0  0  0
   58.8340   33.1560   46.7000 C   0  0  0  0  0  0  0  0  0  0  0  0
   58.7956   33.7218   45.7575 H   0  0  0  0  0  0  0  0  0  0  0  0
   58.1431   33.5953   47.4347 H   0  0  0  0  0  0  0  0  0  0  0  0
   58.4250   31.7300   46.4390 C   0  0  0  0  0  0  0  0  0  0  0  0
   57.7260   31.3950   45.2700 C   0  0  0  0  0  0  0  0  0  0  0  0
   57.4516   32.1824   44.5526 H   0  0  0  0  0  0  0  0  0  0  0  0
   57.3760   30.0670   45.0110 C   0  0  0  0  0  0  0  0  0  0  0  0
   56.8269   29.8162   44.0914 H   0  0  0  0  0  0  0  0  0  0  0  0
   57.7210   29.0490   45.9180 C   0  0  0  0  0  0  0  0  0  0  0  0
   57.3410   27.6430   45.6500 C   0  0  0  0  0  0  0  0  0  0  0  0
   58.1610   26.7650   45.0130 N   0  0  0  0  0  0  0  0  0  0  0  0
   57.4250   25.6450   44.9770 C   0  0  0  0  0  0  0  0  0  0  0  0
   57.7720   24.4150   44.4280 C   0  0  0  0  0  0  0  0  0  0  0  0
   58.7546   24.2617   43.9580 H   0  0  0  0  0  0  0  0  0  0  0  0
   56.8230   23.3660   44.4920 C   0  0  0  0  0  0  0  0  0  0  0  0
   57.1250   22.0340   43.9110 C   0  0  0  0  0  0  0  0  0  0  0  0
   56.8480   21.8310   42.5180 N   0  0  0  0  0  0  0  0  0  0  0  0
   56.7630   20.8970   42.0770 H   0  0  0  0  0  0  0  0  0  0  0  0
   56.6520   22.6520   41.9020 H   0  0  0  0  0  0  0  0  0  0  0  0
   57.6270   21.0920   44.6760 N   0  0  0  0  0  0  0  0  0  0  0  0
   58.6130   20.7960   44.4930 H   0  0  0  0  0  0  0  0  0  0  0  0
   56.9730   20.3540   45.7730 C   0  0  0  0  0  0  0  0  0  0  0  0
   57.6079   19.4799   45.9799 H   0  0  0  0  0  0  0  0  0  0  0  0
   55.6100   19.7770   45.3710 C   0  0  0  0  0  0  0  0  0  0  0  0
   55.0338   19.5331   46.2757 H   0  0  0  0  0  0  0  0  0  0  0  0
   55.0592   20.5191   44.7745 H   0  0  0  0  0  0  0  0  0  0  0  0
   55.7594   18.8650   44.7745 H   0  0  0  0  0  0  0  0  0  0  0  0
   56.9370   21.1540   47.0820 C   0  0  0  0  0  0  0  0  0  0  0  0
   56.9682   20.4614   47.9360 H   0  0  0  0  0  0  0  0  0  0  0  0
   57.8058   21.8274   47.1242 H   0  0  0  0  0  0  0  0  0  0  0  0
   56.0113   21.7467   47.1242 H   0  0  0  0  0  0  0  0  0  0  0  0
   55.5600   23.6040   45.1000 C   0  0  0  0  0  0  0  0  0  0  0  0
   54.8147   22.7960   45.1401 H   0  0  0  0  0  0  0  0  0  0  0  0
   55.2530   24.8620   45.6510 C   0  0  0  0  0  0  0  0  0  0  0  0
   54.2817   25.0510   46.1315 H   0  0  0  0  0  0  0  0  0  0  0  0
   56.2200   25.8580   45.5670 C   0  0  0  0  0  0  0  0  0  0  0  0
   56.1360   27.1210   46.0070 N   0  0  0  0  0  0  0  0  0  0  0  0
   58.4270   29.3860   47.0840 C   0  0  0  0  0  0  0  0  0  0  0  0
   58.7052   28.5991   47.8005 H   0  0  0  0  0  0  0  0  0  0  0  0
   58.7790   30.7150   47.3410 C   0  0  0  0  0  0  0  0  0  0  0  0
   59.3365   30.9660   48.2554 H   0  0  0  0  0  0  0  0  0  0  0  0
   60.5020   33.1450   48.6440 C   0  0  0  0  0  0  0  0  0  0  0  0
   59.2230   32.9440   49.8380 Cl  0  0  0  0  0  0  0  0  0  0  0  0
   61.8210   33.2320   49.1070 C   0  0  0  0  0  0  0  0  0  0  0  0
   62.0262   33.1770   50.1863 H   0  0  0  0  0  0  0  0  0  0  0  0
  1  2  1  0
  2  3  2  0
  3  4  1  0
  3  5  1  0
  5  6  1  0
  5  7  2  0
  7  8  1  0
  8  9  1  0
  8 10  1  0
  8 11  1  0
 11 12  2  0
 12 13  1  0
 12 14  1  0
 14 15  1  0
 14 16  2  0
 16 17  1  0
 17 18  2  0
 18 19  1  0
 19 20  2  0
 20 21  1  0
 20 22  1  0
 22 23  1  0
 23 24  1  0
 24 25  1  0
 24 26  1  0
 23 27  2  0
 27 28  1  0
 27 29  1  0
 29 30  1  0
 29 31  1  0
 31 32  1  0
 31 33  1  0
 31 34  1  0
 29 35  1  0
 35 36  1  0
 35 37  1  0
 35 38  1  0
 22 39  2  0
 39 40  1  0
 39 41  1  0
 41 42  1  0
 41 43  2  0
 43 44  1  0
 16 45  1  0
 45 46  1  0
 45 47  2  0
 47 48  1  0
  7 49  1  0
 49 50  1  0
 49 51  2  0
 51 52  1  0
 51  2  1  0
 47 11  1  0
 44 17  1  0
 43 19  1  0
M  CHG  2  27   1  44  -1
M  END
>  <UniqueID>  (48) 
39

>  <SMILES>  (48) 
CC(C)/[NH+]=C(\N)c1ccc2[n-]c(-c3ccc(Cc4ccccc4Cl)cc3)nc2c1

>  <Energy>  (48) 
98.31884593331685

>  <Genealogy>  (48) 
CC(C)[NH+]=C(N)c1ccc2[n-]c(-c3ccc(Cc4ccccc4Cl)cc3)nc2c1 (protonated)
CC(C)/[NH+]=C(\N)c1ccc2[n-]c(-c3ccc(Cc4ccccc4Cl)cc3)nc2c1 (cis-trans isomerization)
CC(C)/[NH+]=C(\N)c1ccc2[n-]c(-c3ccc(Cc4ccccc4Cl)cc3)nc2c1 (3D coordinates assigned)
CC(C)/[NH+]=C(\N)c1ccc2[n-]c(-c3ccc(Cc4ccccc4Cl)cc3)nc2c1 (optimized conformer: 98.31884593331685 kcal/mol)

>  <smiles>  (48) 
CC(C)N=C(N)c1ccc2[nH]c(-c3ccc(Cc4ccccc4Cl)cc3)nc2c1

>  <score_type>  (48) 
oracle

>  <origin>  (48) 
adg

>  <m_score__min__energy>  (48) 
-8.7400000000000002

>  <m_primary>  (48) 
energy

$$$$
48:0
     RDKit          3D

 41 43  0  0  0  0  0  0  0  0999 V2000
   55.5300   28.9630   44.8310 N   0  0  0  0  0  0  0  0  0  0  0  0
   56.4240   30.0720   44.8070 C   0  0  0  0  0  0  0  0  0  0  0  0
   55.9920   31.2110   44.4880 O   0  0  0  0  0  0  0  0  0  0  0  0
   57.8420   29.9000   45.1850 C   0  0  0  0  0  0  0  0  0  0  0  0
   58.4850   28.6420   45.2690 C   0  0  0  0  0  0  0  0  0  0  0  0
   57.8750   27.3920   44.9150 N   0  0  0  0  0  0  0  0  0  0  0  0
   58.2620   26.1450   45.5150 C   0  0  0  0  0  0  0  0  0  0  0  0
   58.9640   26.1500   46.5640 O   0  0  0  0  0  0  0  0  0  0  0  0
   57.8240   24.8520   44.9350 C   0  0  0  0  0  0  0  0  0  0  0  0
   56.9840   24.8140   43.8050 C   0  0  0  0  0  0  0  0  0  0  0  0
   56.5840   23.5890   43.2630 C   0  0  0  0  0  0  0  0  0  0  0  0
   57.0190   22.3910   43.8370 C   0  0  0  0  0  0  0  0  0  0  0  0
   57.8590   22.4180   44.9530 C   0  0  0  0  0  0  0  0  0  0  0  0
   58.2630   23.6390   45.4980 C   0  0  0  0  0  0  0  0  0  0  0  0
   59.7950   28.7030   45.7300 C   0  0  0  0  0  0  0  0  0  0  0  0
   60.1820   30.3110   46.0070 S   0  0  0  0  0  0  0  0  0  0  0  0
   58.6870   30.9500   45.5650 C   0  0  0  0  0  0  0  0  0  0  0  0
   58.3180   32.3340   45.6820 N   0  0  0  0  0  0  0  0  0  0  0  0
   59.2870   33.4220   45.5620 C   0  0  0  0  0  0  0  0  0  0  0  0
   60.0310   33.6100   46.8570 C   0  0  0  0  0  0  0  0  0  0  0  0
   61.4300   33.4890   46.9030 C   0  0  0  0  0  0  0  0  0  0  0  0
   62.1130   33.6620   48.1110 C   0  0  0  0  0  0  0  0  0  0  0  0
   61.4050   33.9630   49.2790 C   0  0  0  0  0  0  0  0  0  0  0  0
   60.0130   34.0920   49.2390 C   0  0  0  0  0  0  0  0  0  0  0  0
   59.3280   33.9180   48.0340 C   0  0  0  0  0  0  0  0  0  0  0  0
   55.1540   28.5970   45.7330 H   0  0  0  0  0  0  0  0  0  0  0  0
   56.9810   27.4270   44.3760 H   0  0  0  0  0  0  0  0  0  0  0  0
   56.6409   25.7532   43.3465 H   0  0  0  0  0  0  0  0  0  0  0  0
   55.9251   23.5678   42.3824 H   0  0  0  0  0  0  0  0  0  0  0  0
   56.7004   21.4284   43.4106 H   0  0  0  0  0  0  0  0  0  0  0  0
   58.2031   21.4754   45.4036 H   0  0  0  0  0  0  0  0  0  0  0  0
   58.9290   23.6527   46.3734 H   0  0  0  0  0  0  0  0  0  0  0  0
   60.4634   27.8435   45.8864 H   0  0  0  0  0  0  0  0  0  0  0  0
   57.3340   32.5920   45.9100 H   0  0  0  0  0  0  0  0  0  0  0  0
   60.0046   33.1813   44.7638 H   0  0  0  0  0  0  0  0  0  0  0  0
   58.7504   34.3517   45.3216 H   0  0  0  0  0  0  0  0  0  0  0  0
   61.9903   33.2573   45.9852 H   0  0  0  0  0  0  0  0  0  0  0  0
   63.2079   33.5613   48.1426 H   0  0  0  0  0  0  0  0  0  0  0  0
   61.9429   34.0983   50.2289 H   0  0  0  0  0  0  0  0  0  0  0  0
   59.4568   34.3308   50.1575 H   0  0  0  0  0  0  0  0  0  0  0  0
   58.2333   34.0226   48.0064 H   0  0  0  0  0  0  0  0  0  0  0  0
  1  2  1  0
  2  3  2  0
  2  4  1  0
  4  5  1  0
  5  6  1  0
  6  7  1  0
  7  8  2  0
  7  9  1  0
  9 10  2  0
 10 11  1  0
 11 12  2  0
 12 13  1  0
 13 14  2  0
  5 15  2  0
 15 16  1  0
 16 17  1  0
 17 18  1  0
 18 19  1  0
 19 20  1  0
 20 21  2  0
 21 22  1  0
 22 23  2  0
 23 24  1  0
 24 25  2  0
 17  4  2  0
 25 20  1  0
 14  9  1  0
  1 26  1  0
  6 27  1  0
 10 28  1  0
 11 29  1  0
 12 30  1  0
 13 31  1  0
 14 32  1  0
 15 33  1  0
 18 34  1  0
 19 35  1  0
 19 36  1  0
 21 37  1  0
 22 38  1  0
 23 39  1  0
 24 40  1  0
 25 41  1  0
M  CHG  1   1  -1
M  END
>  <UniqueID>  (49) 
40

>  <SMILES>  (49) 
[NH-]C(=O)c1c(NC(=O)c2ccccc2)csc1NCc1ccccc1

>  <Energy>  (49) 
78.34863416248884

>  <Genealogy>  (49) 
[NH-]C(=O)c1c(NC(=O)c2ccccc2)csc1NCc1ccccc1 (protonated)
[NH-]C(=O)c1c(NC(=O)c2ccccc2)csc1NCc1ccccc1 (3D coordinates assigned)
[NH-]C(=O)c1c(NC(=O)c2ccccc2)csc1NCc1ccccc1 (optimized conformer: 78.34863416248884 kcal/mol)

>  <smiles>  (49) 
NC(=O)c1c(NC(=O)c2ccccc2)csc1NCc1ccccc1

>  <score_type>  (49) 
oracle

>  <origin>  (49) 
adg

>  <m_score__min__energy>  (49) 
-11.27

>  <m_primary>  (49) 
energy

$$$$
49:0
     RDKit          3D

 52 55  0  0  0  0  0  0  0  0999 V2000
   60.8940   29.0560   49.0090 O   0  0  0  0  0  0  0  0  0  0  0  0
   60.5360   29.6840   47.9780 C   0  0  0  0  0  0  0  0  0  0  0  0
   59.8980   28.9450   46.8650 C   0  0  0  0  0  0  0  0  0  0  0  0
   58.7800   28.1270   47.1040 C   0  0  0  0  0  0  0  0  0  0  0  0
   58.1730   27.4360   46.0510 C   0  0  0  0  0  0  0  0  0  0  0  0
   58.6820   27.5450   44.7550 C   0  0  0  0  0  0  0  0  0  0  0  0
   58.0910   26.8750   43.7350 F   0  0  0  0  0  0  0  0  0  0  0  0
   59.8040   28.3400   44.5100 C   0  0  0  0  0  0  0  0  0  0  0  0
   60.4150   29.0310   45.5610 C   0  0  0  0  0  0  0  0  0  0  0  0
   60.7420   31.1060   47.9080 N   0  0  0  0  0  0  0  0  0  0  0  0
   59.7930   32.0780   48.2320 C   0  0  0  0  0  0  0  0  0  0  0  0
   58.7910   31.8540   48.9630 O   0  0  0  0  0  0  0  0  0  0  0  0
   60.1520   33.3810   47.6250 C   0  0  2  0  0  0  0  0  0  0  0  0
   60.2650   34.5100   48.6840 C   0  0  0  0  0  0  0  0  0  0  0  0
   61.2680   34.2030   49.7800 C   0  0  0  0  0  0  0  0  0  0  0  0
   62.6370   34.4050   49.5210 C   0  0  0  0  0  0  0  0  0  0  0  0
   63.5970   34.0990   50.4870 C   0  0  0  0  0  0  0  0  0  0  0  0
   63.2060   33.5920   51.7260 C   0  0  0  0  0  0  0  0  0  0  0  0
   61.8530   33.3990   52.0050 C   0  0  0  0  0  0  0  0  0  0  0  0
   60.8790   33.7020   51.0460 C   0  0  0  0  0  0  0  0  0  0  0  0
   59.1910   33.4740   51.4920 Cl  0  0  0  0  0  0  0  0  0  0  0  0
   59.1830   33.7850   46.5220 C   0  0  0  0  0  0  0  0  0  0  0  0
   58.9250   35.0100   46.3760 O   0  0  0  0  0  0  0  0  0  0  0  0
   58.5330   32.8280   45.5940 C   0  0  0  0  0  0  0  0  0  0  0  0
   57.9800   31.6180   46.0490 C   0  0  0  0  0  0  0  0  0  0  0  0
   57.3840   30.7320   45.1470 C   0  0  0  0  0  0  0  0  0  0  0  0
   57.3150   31.0520   43.7890 C   0  0  0  0  0  0  0  0  0  0  0  0
   56.5760   29.9340   42.6580 Cl  0  0  0  0  0  0  0  0  0  0  0  0
   57.8310   32.2700   43.3330 C   0  0  0  0  0  0  0  0  0  0  0  0
   58.4300   33.1560   44.2320 C   0  0  0  0  0  0  0  0  0  0  0  0
   61.4250   33.1630   47.0240 O   0  0  0  0  0  0  0  0  0  0  0  0
   61.7650   31.7800   47.1240 C   0  0  1  0  0  0  0  0  0  0  0  0
   63.1470   31.6500   47.7810 C   0  0  0  0  0  0  0  0  0  0  0  0
   63.0310   31.3350   49.1410 O   0  0  0  0  0  0  0  0  0  0  0  0
   58.3808   28.0301   48.1244 H   0  0  0  0  0  0  0  0  0  0  0  0
   57.2927   26.8052   46.2437 H   0  0  0  0  0  0  0  0  0  0  0  0
   60.2071   28.4226   43.4899 H   0  0  0  0  0  0  0  0  0  0  0  0
   61.3060   29.6458   45.3659 H   0  0  0  0  0  0  0  0  0  0  0  0
   60.5741   35.4357   48.1765 H   0  0  0  0  0  0  0  0  0  0  0  0
   59.2792   34.6100   49.1617 H   0  0  0  0  0  0  0  0  0  0  0  0
   62.9533   34.8080   48.5476 H   0  0  0  0  0  0  0  0  0  0  0  0
   64.6637   34.2580   50.2707 H   0  0  0  0  0  0  0  0  0  0  0  0
   63.9645   33.3443   52.4832 H   0  0  0  0  0  0  0  0  0  0  0  0
   61.5489   33.0056   52.9862 H   0  0  0  0  0  0  0  0  0  0  0  0
   58.0165   31.3675   47.1195 H   0  0  0  0  0  0  0  0  0  0  0  0
   56.9680   29.7797   45.5077 H   0  0  0  0  0  0  0  0  0  0  0  0
   57.7650   32.5301   42.2662 H   0  0  0  0  0  0  0  0  0  0  0  0
   58.8238   34.1174   43.8706 H   0  0  0  0  0  0  0  0  0  0  0  0
   61.8112   31.3133   46.1290 H   0  0  0  0  0  0  0  0  0  0  0  0
   63.7121   30.8536   47.2746 H   0  0  0  0  0  0  0  0  0  0  0  0
   63.6698   32.6134   47.6888 H   0  0  0  0  0  0  0  0  0  0  0  0
   62.4170   30.5570   49.2030 H   0  0  0  0  0  0  0  0  0  0  0  0
  1  2  2  0
  2  3  1  0
  3  4  2  0
  4  5  1  0
  5  6  2  0
  6  7  1  0
  6  8  1  0
  8  9  2  0
  2 10  1  0
 10 11  1  0
 11 12  2  0
 11 13  1  0
 13 14  1  1
 14 15  1  0
 15 16  2  0
 16 17  1  0
 17 18  2  0
 18 19  1  0
 19 20  2  0
 20 21  1  0
 13 22  1  0
 22 23  2  0
 22 24  1  0
 24 25  2  0
 25 26  1  0
 26 27  2  0
 27 28  1  0
 27 29  1  0
 29 30  2  0
 13 31  1  0
 31 32  1  0
 32 33  1  0
 33 34  1  0
  9  3  1  0
 32 10  1  0
 20 15  1  0
 30 24  1  0
  4 35  1  0
  5 36  1  0
  8 37  1  0
  9 38  1  0
 14 39  1  0
 14 40  1  0
 16 41  1  0
 17 42  1  0
 18 43  1  0
 19 44  1  0
 25 45  1  0
 26 46  1  0
 29 47  1  0
 30 48  1  0
 32 49  1  6
 33 50  1  0
 33 51  1  0
 34 52  1  0
M  END
>  <UniqueID>  (50) 
41

>  <SMILES>  (50) 
O=C(c1ccc(F)cc1)N1C(=O)[C@](Cc2ccccc2Cl)(C(=O)c2ccc(Cl)cc2)O[C@H]1CO

>  <Energy>  (50) 
75.85815640478351

>  <Genealogy>  (50) 
O=C(c1ccc(F)cc1)N1C(=O)[C@](Cc2ccccc2Cl)(C(=O)c2ccc(Cl)cc2)O[C@H]1CO (chirality)
O=C(c1ccc(F)cc1)N1C(=O)[C@](Cc2ccccc2Cl)(C(=O)c2ccc(Cl)cc2)O[C@H]1CO (3D coordinates assigned)
O=C(c1ccc(F)cc1)N1C(=O)[C@](Cc2ccccc2Cl)(C(=O)c2ccc(Cl)cc2)O[C@H]1CO (nonaromatic ring conformer: 75.85815640478351 kcal/mol)

>  <smiles>  (50) 
O=C(c1ccc(F)cc1)N1C(=O)C(Cc2ccccc2Cl)(C(=O)c2ccc(Cl)cc2)OC1CO

>  <score_type>  (50) 
oracle

>  <origin>  (50) 
adg

>  <m_score__min__energy>  (50) 
-8.9600000000000009

>  <m_primary>  (50) 
energy

$$$$
50:0
     RDKit          3D

 41 42  0  0  0  0  0  0  0  0999 V2000
   55.8260   26.3770   46.3850 O   0  0  0  0  0  0  0  0  0  0  0  0
   57.0590   26.1480   46.2620 C   0  0  0  0  0  0  0  0  0  0  0  0
   57.5410   25.2840   45.1380 C   0  0  0  0  0  0  0  0  0  0  0  0
   57.4190   25.9650   43.8920 O   0  0  0  0  0  0  0  0  0  0  0  0
   57.8940   27.2630   43.6740 C   0  0  0  0  0  0  0  0  0  0  0  0
   58.9680   27.4600   43.0430 O   0  0  0  0  0  0  0  0  0  0  0  0
   57.1410   28.4240   44.2370 C   0  0  0  0  0  0  0  0  0  0  0  0
   57.7270   29.6860   43.7820 N   0  0  0  0  0  0  0  0  0  0  0  0
   57.1230   30.9450   44.1000 C   0  0  0  0  0  0  0  0  0  0  0  0
   56.0730   30.9850   44.7980 O   0  0  0  0  0  0  0  0  0  0  0  0
   57.7610   32.2270   43.6500 C   0  0  0  0  0  0  0  0  0  0  0  0
   58.2350   33.0320   44.8310 C   0  0  0  0  0  0  0  0  0  0  0  0
   57.7840   32.7250   46.1260 C   0  0  0  0  0  0  0  0  0  0  0  0
   58.1860   33.5050   47.2160 C   0  0  0  0  0  0  0  0  0  0  0  0
   59.0330   34.5990   47.0200 C   0  0  0  0  0  0  0  0  0  0  0  0
   59.4850   34.9130   45.7340 C   0  0  0  0  0  0  0  0  0  0  0  0
   59.0850   34.1350   44.6410 C   0  0  0  0  0  0  0  0  0  0  0  0
   58.0060   26.6670   47.2060 N   0  0  0  0  0  0  0  0  0  0  0  0
   58.7830   27.8690   47.0960 C   0  0  0  0  0  0  0  0  0  0  0  0
   59.7890   27.9240   46.1210 C   0  0  0  0  0  0  0  0  0  0  0  0
   60.5520   29.0840   45.9520 C   0  0  0  0  0  0  0  0  0  0  0  0
   60.3090   30.2030   46.7520 C   0  0  0  0  0  0  0  0  0  0  0  0
   61.0480   31.3280   46.5870 F   0  0  0  0  0  0  0  0  0  0  0  0
   59.2960   30.1670   47.7140 C   0  0  0  0  0  0  0  0  0  0  0  0
   58.5270   29.0100   47.8820 C   0  0  0  0  0  0  0  0  0  0  0  0
   58.5971   25.0269   45.3073 H   0  0  0  0  0  0  0  0  0  0  0  0
   56.9272   24.3718   45.1044 H   0  0  0  0  0  0  0  0  0  0  0  0
   56.0936   28.3711   43.9052 H   0  0  0  0  0  0  0  0  0  0  0  0
   57.1941   28.3831   45.3350 H   0  0  0  0  0  0  0  0  0  0  0  0
   58.6040   29.6800   43.2100 H   0  0  0  0  0  0  0  0  0  0  0  0
   58.6203   31.9947   43.0037 H   0  0  0  0  0  0  0  0  0  0  0  0
   57.0149   32.8172   43.0978 H   0  0  0  0  0  0  0  0  0  0  0  0
   57.1124   31.8682   46.2835 H   0  0  0  0  0  0  0  0  0  0  0  0
   57.8348   33.2567   48.2284 H   0  0  0  0  0  0  0  0  0  0  0  0
   59.3445   35.2136   47.8775 H   0  0  0  0  0  0  0  0  0  0  0  0
   60.1552   35.7718   45.5814 H   0  0  0  0  0  0  0  0  0  0  0  0
   59.4372   34.3879   43.6300 H   0  0  0  0  0  0  0  0  0  0  0  0
   59.9798   27.0478   45.4838 H   0  0  0  0  0  0  0  0  0  0  0  0
   61.3436   29.1151   45.1889 H   0  0  0  0  0  0  0  0  0  0  0  0
   59.1027   31.0502   48.3406 H   0  0  0  0  0  0  0  0  0  0  0  0
   57.7204   28.9913   48.6297 H   0  0  0  0  0  0  0  0  0  0  0  0
  1  2  2  0
  2  3  1  0
  3  4  1  0
  4  5  1  0
  5  6  2  0
  5  7  1  0
  7  8  1  0
  8  9  1  0
  9 10  2  0
  9 11  1  0
 11 12  1  0
 12 13  2  0
 13 14  1  0
 14 15  2  0
 15 16  1  0
 16 17  2  0
  2 18  1  0
 18 19  1  0
 19 20  2  0
 20 21  1  0
 21 22  2  0
 22 23  1  0
 22 24  1  0
 24 25  2  0
 17 12  1  0
 25 19  1  0
  3 26  1  0
  3 27  1  0
  7 28  1  0
  7 29  1  0
  8 30  1  0
 11 31  1  0
 11 32  1  0
 13 33  1  0
 14 34  1  0
 15 35  1  0
 16 36  1  0
 17 37  1  0
 20 38  1  0
 21 39  1  0
 24 40  1  0
 25 41  1  0
M  CHG  1  18  -1
M  END
>  <UniqueID>  (51) 
42

>  <SMILES>  (51) 
O=C(COC(=O)CNC(=O)Cc1ccccc1)[N-]c1ccc(F)cc1

>  <Energy>  (51) 
38.372176520012744

>  <Genealogy>  (51) 
O=C(COC(=O)CNC(=O)Cc1ccccc1)[N-]c1ccc(F)cc1 (protonated)
O=C(COC(=O)CNC(=O)Cc1ccccc1)[N-]c1ccc(F)cc1 (3D coordinates assigned)
O=C(COC(=O)CNC(=O)Cc1ccccc1)[N-]c1ccc(F)cc1 (optimized conformer: 38.372176520012744 kcal/mol)

>  <smiles>  (51) 
O=C(Cc1ccccc1)NCC(=O)OCC(=O)Nc1ccc(F)cc1

>  <score_type>  (51) 
oracle

>  <origin>  (51) 
adg

>  <m_score__min__energy>  (51) 
-9.5399999999999991

>  <m_primary>  (51) 
energy

$$$$
51:0
     RDKit          3D

 27 28  0  0  0  0  0  0  0  0999 V2000
   59.2100   35.1880   47.3560 N   0  0  0  0  0  0  0  0  0  0  0  0
   58.8790   34.3330   46.6490 C   0  0  0  0  0  0  0  0  0  0  0  0
   58.4680   33.2700   45.7700 C   0  0  0  0  0  0  0  0  0  0  0  0
   58.1590   33.5470   44.4320 C   0  0  0  0  0  0  0  0  0  0  0  0
   57.7690   32.5130   43.5770 C   0  0  0  0  0  0  0  0  0  0  0  0
   57.6800   31.2020   44.0540 C   0  0  0  0  0  0  0  0  0  0  0  0
   57.9690   30.9150   45.4010 C   0  0  0  0  0  0  0  0  0  0  0  0
   57.9070   29.5730   45.9120 N   0  0  0  0  0  0  0  0  0  0  0  0
   56.9550   28.5910   45.4690 C   0  0  0  0  0  0  0  0  0  0  0  0
   55.8790   28.9620   44.9250 O   0  0  0  0  0  0  0  0  0  0  0  0
   57.1840   27.1480   45.7130 C   0  0  0  0  0  0  0  0  0  0  0  0
   58.5010   26.6500   45.7330 C   0  0  0  0  0  0  0  0  0  0  0  0
   58.7430   25.2910   45.9540 C   0  0  0  0  0  0  0  0  0  0  0  0
   57.6770   24.4160   46.1670 C   0  0  0  0  0  0  0  0  0  0  0  0
   56.3670   24.8970   46.1680 C   0  0  0  0  0  0  0  0  0  0  0  0
   56.1140   26.2570   45.9520 C   0  0  0  0  0  0  0  0  0  0  0  0
   54.8000   26.7100   46.0050 O   0  0  0  0  0  0  0  0  0  0  0  0
   58.3800   31.9570   46.2500 C   0  0  0  0  0  0  0  0  0  0  0  0
   58.2234   34.5782   44.0546 H   0  0  0  0  0  0  0  0  0  0  0  0
   57.5313   32.7312   42.5254 H   0  0  0  0  0  0  0  0  0  0  0  0
   57.3826   30.3908   43.3731 H   0  0  0  0  0  0  0  0  0  0  0  0
   58.5170   29.3270   46.7250 H   0  0  0  0  0  0  0  0  0  0  0  0
   59.3461   27.3358   45.5735 H   0  0  0  0  0  0  0  0  0  0  0  0
   59.7752   24.9108   45.9600 H   0  0  0  0  0  0  0  0  0  0  0  0
   57.8695   23.3460   46.3343 H   0  0  0  0  0  0  0  0  0  0  0  0
   55.5296   24.2046   46.3392 H   0  0  0  0  0  0  0  0  0  0  0  0
   58.6342   31.7400   47.2980 H   0  0  0  0  0  0  0  0  0  0  0  0
  1  2  3  0
  2  3  1  0
  3  4  2  0
  4  5  1  0
  5  6  2  0
  6  7  1  0
  7  8  1  0
  8  9  1  0
  9 10  2  0
  9 11  1  0
 11 12  2  0
 12 13  1  0
 13 14  2  0
 14 15  1  0
 15 16  2  0
 16 17  1  0
  7 18  2  0
 18  3  1  0
 16 11  1  0
  4 19  1  0
  5 20  1  0
  6 21  1  0
  8 22  1  0
 12 23  1  0
 13 24  1  0
 14 25  1  0
 15 26  1  0
 18 27  1  0
M  CHG  1  17  -1
M  END
>  <UniqueID>  (52) 
43

>  <SMILES>  (52) 
N#Cc1cccc(NC(=O)c2ccccc2[O-])c1

>  <Energy>  (52) 
34.62187108802497

>  <Genealogy>  (52) 
N#Cc1cccc(NC(=O)c2ccccc2[O-])c1 (protonated)
N#Cc1cccc(NC(=O)c2ccccc2[O-])c1 (3D coordinates assigned)
N#Cc1cccc(NC(=O)c2ccccc2[O-])c1 (optimized conformer: 34.62187108802497 kcal/mol)

>  <smiles>  (52) 
N#Cc1cccc(NC(=O)c2ccccc2O)c1

>  <score_type>  (52) 
oracle

>  <origin>  (52) 
adg

>  <m_score__min__energy>  (52) 
-11.220000000000001

>  <m_primary>  (52) 
energy

$$$$
52:0
     RDKit          3D

 30 32  0  0  0  0  0  0  0  0999 V2000
   56.2190   29.8860   42.9080 O   0  0  0  0  0  0  0  0  0  0  0  0
   56.2110   29.9590   44.1630 C   0  0  0  0  0  0  0  0  0  0  0  0
   55.2190   29.2930   44.8740 O   0  0  0  0  0  0  0  0  0  0  0  0
   57.2090   30.7700   44.8830 C   0  0  0  0  0  0  0  0  0  0  0  0
   57.0210   32.0960   45.2450 C   0  0  0  0  0  0  0  0  0  0  0  0
   58.1430   32.5580   45.8210 N   0  0  0  0  0  0  0  0  0  0  0  0
   58.3840   33.7920   46.3300 C   0  0  0  0  0  0  0  0  0  0  0  0
   59.6350   34.0250   46.9140 C   0  0  0  0  0  0  0  0  0  0  0  0
   60.5600   33.0200   46.9640 N   0  0  0  0  0  0  0  0  0  0  0  0
   60.2960   31.7820   46.4490 C   0  0  0  0  0  0  0  0  0  0  0  0
   61.1560   30.8660   46.5330 O   0  0  0  0  0  0  0  0  0  0  0  0
   59.0480   31.5640   45.8460 C   0  0  0  0  0  0  0  0  0  0  0  0
   58.5100   30.4170   45.2670 C   0  0  0  0  0  0  0  0  0  0  0  0
   59.1670   29.0990   45.1360 C   0  0  0  0  0  0  0  0  0  0  0  0
   60.2980   29.0350   44.5840 O   0  0  0  0  0  0  0  0  0  0  0  0
   58.5340   27.8540   45.6400 C   0  0  0  0  0  0  0  0  0  0  0  0
   58.4050   27.6120   47.0300 C   0  0  0  0  0  0  0  0  0  0  0  0
   59.0550   28.7090   48.2450 Cl  0  0  0  0  0  0  0  0  0  0  0  0
   57.7970   26.4340   47.4830 C   0  0  0  0  0  0  0  0  0  0  0  0
   57.3240   25.4890   46.5750 C   0  0  0  0  0  0  0  0  0  0  0  0
   57.4590   25.7080   45.2050 C   0  0  0  0  0  0  0  0  0  0  0  0
   58.0620   26.8760   44.7300 C   0  0  0  0  0  0  0  0  0  0  0  0
   58.1480   27.1040   42.9840 Cl  0  0  0  0  0  0  0  0  0  0  0  0
   56.1002   32.6763   45.0858 H   0  0  0  0  0  0  0  0  0  0  0  0
   57.6216   34.5837   46.2854 H   0  0  0  0  0  0  0  0  0  0  0  0
   59.8728   35.0145   47.3316 H   0  0  0  0  0  0  0  0  0  0  0  0
   61.4850   33.2060   47.4140 H   0  0  0  0  0  0  0  0  0  0  0  0
   57.6923   26.2539   48.5631 H   0  0  0  0  0  0  0  0  0  0  0  0
   56.8435   24.5691   46.9396 H   0  0  0  0  0  0  0  0  0  0  0  0
   57.0883   24.9562   44.4927 H   0  0  0  0  0  0  0  0  0  0  0  0
  1  2  2  0
  2  3  1  0
  2  4  1  0
  4  5  2  0
  5  6  1  0
  6  7  1  0
  7  8  2  0
  8  9  1  0
  9 10  1  0
 10 11  2  0
 10 12  1  0
 12 13  2  0
 13 14  1  0
 14 15  2  0
 14 16  1  0
 16 17  2  0
 17 18  1  0
 17 19  1  0
 19 20  2  0
 20 21  1  0
 21 22  2  0
 22 23  1  0
 13  4  1  0
 22 16  1  0
 12  6  1  0
  5 24  1  0
  7 25  1  0
  8 26  1  0
  9 27  1  0
 19 28  1  0
 20 29  1  0
 21 30  1  0
M  CHG  1   3  -1
M  END
>  <UniqueID>  (53) 
44

>  <SMILES>  (53) 
O=C([O-])c1cn2cc[nH]c(=O)c2c1C(=O)c1c(Cl)cccc1Cl

>  <Energy>  (53) 
79.9727145597578

>  <Genealogy>  (53) 
O=C([O-])c1cn2cc[nH]c(=O)c2c1C(=O)c1c(Cl)cccc1Cl (protonated)
O=C([O-])c1cn2cc[nH]c(=O)c2c1C(=O)c1c(Cl)cccc1Cl (3D coordinates assigned)
O=C([O-])c1cn2cc[nH]c(=O)c2c1C(=O)c1c(Cl)cccc1Cl (optimized conformer: 79.9727145597578 kcal/mol)

>  <smiles>  (53) 
O=C(O)c1cn2cc[nH]c(=O)c2c1C(=O)c1c(Cl)cccc1Cl

>  <score_type>  (53) 
oracle

>  <origin>  (53) 
adg

>  <m_score__min__energy>  (53) 
-8.9299999999999997

>  <m_primary>  (53) 
energy

$$$$
53:0
     RDKit          3D

 41 43  0  0  0  0  0  0  0  0999 V2000
   56.2750   22.9320   48.5510 C   0  0  0  0  0  0  0  0  0  0  0  0
   57.0170   23.2550   47.3810 O   0  0  0  0  0  0  0  0  0  0  0  0
   57.2060   24.5520   46.8810 C   0  0  0  0  0  0  0  0  0  0  0  0
   58.4750   25.1640   46.9090 C   0  0  0  0  0  0  0  0  0  0  0  0
   58.6430   26.4750   46.4630 C   0  0  0  0  0  0  0  0  0  0  0  0
   57.5500   27.2130   45.9990 C   0  0  0  0  0  0  0  0  0  0  0  0
   57.7500   28.5620   45.5410 N   0  0  0  0  0  0  0  0  0  0  0  0
   56.7480   29.3250   44.8480 C   0  0  0  0  0  0  0  0  0  0  0  0
   55.5310   29.0180   44.9760 O   0  0  0  0  0  0  0  0  0  0  0  0
   57.1220   30.4980   44.0200 C   0  0  0  0  0  0  0  0  0  0  0  0
   56.8370   30.5100   42.6410 C   0  0  0  0  0  0  0  0  0  0  0  0
   57.1940   31.6080   41.8520 C   0  0  0  0  0  0  0  0  0  0  0  0
   57.8440   32.7020   42.4260 C   0  0  0  0  0  0  0  0  0  0  0  0
   58.1430   32.6990   43.7900 C   0  0  0  0  0  0  0  0  0  0  0  0
   58.7830   33.7580   44.3440 F   0  0  0  0  0  0  0  0  0  0  0  0
   57.7880   31.6040   44.5840 C   0  0  0  0  0  0  0  0  0  0  0  0
   56.2890   26.5990   45.9380 C   0  0  0  0  0  0  0  0  0  0  0  0
   56.1070   25.2750   46.3600 C   0  0  0  0  0  0  0  0  0  0  0  0
   54.7820   24.7290   46.2540 N   0  0  0  0  0  0  0  0  0  0  0  0
   54.3270   23.1970   45.5780 S   0  0  0  0  0  0  0  0  0  0  0  0
   53.0440   23.3440   44.8100 O   0  0  0  0  0  0  0  0  0  0  0  0
   54.1680   22.1740   46.6660 O   0  0  0  0  0  0  0  0  0  0  0  0
   55.5900   22.6650   44.4870 C   0  0  0  0  0  0  0  0  0  0  0  0
   56.7880   22.1000   44.8660 C   0  0  0  0  0  0  0  0  0  0  0  0
   57.4580   21.8390   43.6890 C   0  0  0  0  0  0  0  0  0  0  0  0
   56.6250   22.2630   42.6710 C   0  0  0  0  0  0  0  0  0  0  0  0
   55.5170   22.7500   43.1790 O   0  0  0  0  0  0  0  0  0  0  0  0
   56.8658   23.1892   49.4425 H   0  0  0  0  0  0  0  0  0  0  0  0
   55.3342   23.5020   48.5576 H   0  0  0  0  0  0  0  0  0  0  0  0
   56.0512   21.8550   48.5576 H   0  0  0  0  0  0  0  0  0  0  0  0
   59.3421   24.6021   47.2865 H   0  0  0  0  0  0  0  0  0  0  0  0
   59.6436   26.9318   46.4765 H   0  0  0  0  0  0  0  0  0  0  0  0
   58.6290   29.0500   45.8280 H   0  0  0  0  0  0  0  0  0  0  0  0
   56.3297   29.6492   42.1810 H   0  0  0  0  0  0  0  0  0  0  0  0
   56.9621   31.6097   40.7767 H   0  0  0  0  0  0  0  0  0  0  0  0
   58.1205   33.5661   41.8040 H   0  0  0  0  0  0  0  0  0  0  0  0
   58.0305   31.6062   45.6569 H   0  0  0  0  0  0  0  0  0  0  0  0
   55.4293   27.1667   45.5525 H   0  0  0  0  0  0  0  0  0  0  0  0
   57.1363   21.8996   45.8900 H   0  0  0  0  0  0  0  0  0  0  0  0
   58.4542   21.3850   43.5821 H   0  0  0  0  0  0  0  0  0  0  0  0
   56.8557   22.2016   41.5972 H   0  0  0  0  0  0  0  0  0  0  0  0
  1  2  1  0
  2  3  1  0
  3  4  2  0
  4  5  1  0
  5  6  2  0
  6  7  1  0
  7  8  1  0
  8  9  2  0
  8 10  1  0
 10 11  2  0
 11 12  1  0
 12 13  2  0
 13 14  1  0
 14 15  1  0
 14 16  2  0
  6 17  1  0
 17 18  2  0
 18 19  1  0
 19 20  1  0
 20 21  2  0
 20 22  2  0
 20 23  1  0
 23 24  2  0
 24 25  1  0
 25 26  2  0
 26 27  1  0
 18  3  1  0
 27 23  1  0
 16 10  1  0
  1 28  1  0
  1 29  1  0
  1 30  1  0
  4 31  1  0
  5 32  1  0
  7 33  1  0
 11 34  1  0
 12 35  1  0
 13 36  1  0
 16 37  1  0
 17 38  1  0
 24 39  1  0
 25 40  1  0
 26 41  1  0
M  CHG  1  19  -1
M  END
>  <UniqueID>  (54) 
45

>  <SMILES>  (54) 
COc1ccc(NC(=O)c2cccc(F)c2)cc1[N-]S(=O)(=O)c1ccco1

>  <Energy>  (54) 
81.86730763395717

>  <Genealogy>  (54) 
COc1ccc(NC(=O)c2cccc(F)c2)cc1[N-]S(=O)(=O)c1ccco1 (protonated)
COc1ccc(NC(=O)c2cccc(F)c2)cc1[N-]S(=O)(=O)c1ccco1 (3D coordinates assigned)
COc1ccc(NC(=O)c2cccc(F)c2)cc1[N-]S(=O)(=O)c1ccco1 (optimized conformer: 81.86730763395717 kcal/mol)

>  <smiles>  (54) 
COc1ccc(NC(=O)c2cccc(F)c2)cc1NS(=O)(=O)c1ccco1

>  <score_type>  (54) 
oracle

>  <origin>  (54) 
adg

>  <m_score__min__energy>  (54) 
-10.07

>  <m_primary>  (54) 
energy

$$$$
54:0
     RDKit          3D

 62 66  0  0  1  0  0  0  0  0999 V2000
   57.0610   21.1670   43.2970 C   0  0  0  0  0  0  0  0  0  0  0  0
   57.6320   22.4310   43.7600 N   0  0  0  0  0  0  0  0  0  0  0  0
   56.8280   23.5860   43.5610 C   0  0  0  0  0  0  0  0  0  0  0  0
   55.6990   23.4390   43.0080 O   0  0  0  0  0  0  0  0  0  0  0  0
   57.2450   24.9250   43.9590 C   0  0  0  0  0  0  0  0  0  0  0  0
   57.7700   25.8470   43.0500 C   0  0  0  0  0  0  0  0  0  0  0  0
   58.1270   27.1310   43.4850 C   0  0  0  0  0  0  0  0  0  0  0  0
   57.9770   27.5200   44.7940 C   0  0  0  0  0  0  0  0  0  0  0  0
   58.2710   28.7880   45.3170 N   0  0  0  0  0  0  0  0  0  0  0  0
   58.9420   29.0510   46.3790 C   0  0  0  0  0  0  0  0  0  0  0  0
   58.6010   30.1420   47.0740 N   0  0  0  0  0  0  0  0  0  0  0  0
   59.2400   30.5020   48.2130 C   0  0  0  0  0  0  0  0  0  0  0  0
   58.8870   31.6270   48.9460 O   0  0  0  0  0  0  0  0  0  0  0  0
   57.9940   32.5140   48.3370 C   0  0  0  0  0  0  0  0  0  0  0  0
   58.6060   33.3480   47.2710 C   0  0  0  0  0  0  0  0  0  0  0  0
   58.1000   33.1310   45.9850 C   0  0  0  0  0  0  0  0  0  0  0  0
   58.5400   33.8170   44.8820 C   0  0  0  0  0  0  0  0  0  0  0  0
   59.5350   34.7600   45.0940 C   0  0  0  0  0  0  0  0  0  0  0  0
   60.0340   34.9720   46.3650 C   0  0  0  0  0  0  0  0  0  0  0  0
   59.5890   34.2790   47.4760 C   0  0  0  0  0  0  0  0  0  0  0  0
   60.2810   29.6530   48.6080 C   0  0  0  0  0  0  0  0  0  0  0  0
   61.0180   30.0410   49.8260 C   0  0  0  0  0  0  0  0  0  0  0  0
   61.3910   31.4680   49.8780 C   0  0  0  0  0  0  0  0  0  0  0  0
   60.8800   32.1960   50.9650 C   0  0  0  0  0  0  0  0  0  0  0  0
   61.1530   33.5380   51.1230 C   0  0  0  0  0  0  0  0  0  0  0  0
   61.9500   34.1960   50.1910 C   0  0  0  0  0  0  0  0  0  0  0  0
   62.4550   33.4640   49.1120 C   0  0  0  0  0  0  0  0  0  0  0  0
   63.2490   34.1610   48.2140 C   0  0  0  0  0  0  0  0  0  0  0  0
   63.7570   33.4270   47.1390 C   0  0  0  0  0  0  0  0  0  0  0  0
   63.4760   32.0730   46.9900 C   0  0  0  0  0  0  0  0  0  0  0  0
   62.6850   31.4070   47.8980 C   0  0  0  0  0  0  0  0  0  0  0  0
   62.1770   32.1140   48.9580 C   0  0  0  0  0  0  0  0  0  0  0  0
   60.6070   28.5240   47.8550 C   0  0  0  0  0  0  0  0  0  0  0  0
   59.9290   28.2120   46.7200 N   0  0  0  0  0  0  0  0  0  0  0  0
   57.4490   26.5930   45.7140 C   0  0  0  0  0  0  0  0  0  0  0  0
   57.1100   25.3430   45.2470 C   0  0  0  0  0  0  0  0  0  0  0  0
   56.7826   20.5508   44.1646 H   0  0  0  0  0  0  0  0  0  0  0  0
   56.1669   21.3694   42.6890 H   0  0  0  0  0  0  0  0  0  0  0  0
   57.8039   20.6299   42.6890 H   0  0  0  0  0  0  0  0  0  0  0  0
   58.5640   22.5100   44.2050 H   0  0  0  0  0  0  0  0  0  0  0  0
   57.9030   25.5659   41.9949 H   0  0  0  0  0  0  0  0  0  0  0  0
   58.5386   27.8468   42.7582 H   0  0  0  0  0  0  0  0  0  0  0  0
   57.1750   31.9298   47.8922 H   0  0  0  0  0  0  0  0  0  0  0  0
   57.6448   33.2030   49.1201 H   0  0  0  0  0  0  0  0  0  0  0  0
   57.3123   32.3747   45.8523 H   0  0  0  0  0  0  0  0  0  0  0  0
   58.1252   33.6291   43.8807 H   0  0  0  0  0  0  0  0  0  0  0  0
   59.9283   35.3413   44.2470 H   0  0  0  0  0  0  0  0  0  0  0  0
   60.8222   35.7274   46.4994 H   0  0  0  0  0  0  0  0  0  0  0  0
   60.0050   34.4668   48.4769 H   0  0  0  0  0  0  0  0  0  0  0  0
   60.3856   29.8177   50.6979 H   0  0  0  0  0  0  0  0  0  0  0  0
   61.9572   29.4684   49.8233 H   0  0  0  0  0  0  0  0  0  0  0  0
   60.2484   31.6844   51.7062 H   0  0  0  0  0  0  0  0  0  0  0  0
   60.7421   34.0870   51.9831 H   0  0  0  0  0  0  0  0  0  0  0  0
   62.1773   35.2667   50.3006 H   0  0  0  0  0  0  0  0  0  0  0  0
   63.4668   35.2317   48.3408 H   0  0  0  0  0  0  0  0  0  0  0  0
   64.3922   33.9304   46.3953 H   0  0  0  0  0  0  0  0  0  0  0  0
   63.8930   31.5254   46.1320 H   0  0  0  0  0  0  0  0  0  0  0  0
   62.4659   30.3359   47.7769 H   0  0  0  0  0  0  0  0  0  0  0  0
   61.4296   27.8737   48.1873 H   0  0  0  0  0  0  0  0  0  0  0  0
   60.1480   27.3770   46.1370 H   0  0  0  0  0  0  0  0  0  0  0  0
   57.3119   26.8595   46.7724 H   0  0  0  0  0  0  0  0  0  0  0  0
   56.6976   24.6258   45.9720 H   0  0  0  0  0  0  0  0  0  0  0  0
  1  2  1  0
  2  3  1  0
  3  4  2  0
  3  5  1  0
  5  6  2  0
  6  7  1  0
  7  8  2  0
  8  9  1  0
  9 10  2  0
 10 11  1  0
 11 12  2  0
 12 13  1  0
 13 14  1  0
 14 15  1  0
 15 16  2  0
 16 17  1  0
 17 18  2  0
 18 19  1  0
 19 20  2  0
 12 21  1  0
 21 22  1  0
 22 23  1  0
 23 24  2  0
 24 25  1  0
 25 26  2  0
 26 27  1  0
 27 28  2  0
 28 29  1  0
 29 30  2  0
 30 31  1  0
 31 32  2  0
 21 33  2  0
 33 34  1  0
  8 35  1  0
 35 36  2  0
 36  5  1  0
 34 10  1  0
 20 15  1  0
 32 23  1  0
 32 27  1  0
  1 37  1  0
  1 38  1  0
  1 39  1  0
  2 40  1  0
  6 41  1  0
  7 42  1  0
 14 43  1  0
 14 44  1  0
 16 45  1  0
 17 46  1  0
 18 47  1  0
 19 48  1  0
 20 49  1  0
 22 50  1  0
 22 51  1  0
 24 52  1  0
 25 53  1  0
 26 54  1  0
 28 55  1  0
 29 56  1  0
 30 57  1  0
 31 58  1  0
 33 59  1  0
 34 60  1  0
 35 61  1  0
 36 62  1  0
M  END
>  <smiles>  (55) 
CNC(=O)c1ccc(N=c2nc(OCc3ccccc3)c(Cc3cccc4ccccc34)c[nH]2)cc1

>  <score_type>  (55) 
oracle

>  <origin>  (55) 
adg

>  <m_score__min__energy>  (55) 
-9.8599999999999994

>  <m_primary>  (55) 
energy

$$$$
55:0
     RDKit          3D

 58 60  0  0  0  0  0  0  0  0999 V2000
   58.2682   30.8657   51.4246 H   0  0  0  0  0  0  0  0  0  0  0  0
   59.1560   30.9160   50.7770 C   0  0  0  0  0  0  0  0  0  0  0  0
   60.0450   29.9170   50.8410 C   0  0  0  0  0  0  0  0  0  0  0  0
   60.8493   29.9611   51.5901 H   0  0  0  0  0  0  0  0  0  0  0  0
   59.9700   28.7360   49.9130 C   0  0  0  0  0  0  0  0  0  0  0  0
   60.9498   28.2363   49.8949 H   0  0  0  0  0  0  0  0  0  0  0  0
   59.1850   28.0615   50.2857 H   0  0  0  0  0  0  0  0  0  0  0  0
   59.6020   29.1450   48.4960 C   0  0  0  0  0  0  0  0  0  0  0  0
   58.4750   29.5700   48.2680 O   0  0  0  0  0  0  0  0  0  0  0  0
   60.5680   29.0810   47.4070 N   0  0  2  0  0  0  0  0  0  0  0  0
   61.5110   28.9330   47.8420 H   0  0  0  0  0  0  0  0  0  0  0  0
   60.6610   30.3780   46.6850 C   0  0  0  0  0  0  0  0  0  0  0  0
   60.9876   30.1859   45.6523 H   0  0  0  0  0  0  0  0  0  0  0  0
   59.6678   30.8501   46.7095 H   0  0  0  0  0  0  0  0  0  0  0  0
   61.6440   31.3280   47.3390 C   0  0  0  0  0  0  0  0  0  0  0  0
   61.9130   32.5770   46.7530 C   0  0  0  0  0  0  0  0  0  0  0  0
   61.4022   32.8667   45.8229 H   0  0  0  0  0  0  0  0  0  0  0  0
   62.8270   33.4530   47.3470 C   0  0  0  0  0  0  0  0  0  0  0  0
   63.0343   34.4286   46.8831 H   0  0  0  0  0  0  0  0  0  0  0  0
   63.4770   33.0900   48.5290 C   0  0  0  0  0  0  0  0  0  0  0  0
   64.1957   33.7797   48.9956 H   0  0  0  0  0  0  0  0  0  0  0  0
   63.2140   31.8500   49.1190 C   0  0  0  0  0  0  0  0  0  0  0  0
   63.7267   31.5654   50.0497 H   0  0  0  0  0  0  0  0  0  0  0  0
   62.3010   30.9710   48.5290 C   0  0  0  0  0  0  0  0  0  0  0  0
   62.0962   29.9971   48.9975 H   0  0  0  0  0  0  0  0  0  0  0  0
   60.3270   27.8740   46.5520 C   0  0  0  0  0  0  0  0  0  0  0  0
   60.7458   28.0762   45.5551 H   0  0  0  0  0  0  0  0  0  0  0  0
   60.8083   27.0340   47.0743 H   0  0  0  0  0  0  0  0  0  0  0  0
   58.8750   27.4760   46.3760 C   0  0  0  0  0  0  0  0  0  0  0  0
   58.4080   26.2470   46.8650 C   0  0  0  0  0  0  0  0  0  0  0  0
   59.1025   25.5594   47.3700 H   0  0  0  0  0  0  0  0  0  0  0  0
   57.0660   25.8920   46.7140 C   0  0  0  0  0  0  0  0  0  0  0  0
   56.7076   24.9260   47.0993 H   0  0  0  0  0  0  0  0  0  0  0  0
   56.1770   26.7600   46.0750 C   0  0  0  0  0  0  0  0  0  0  0  0
   54.8420   26.3920   45.9300 O   0  0  0  0  0  0  0  0  0  0  0  0
   56.6220   27.9950   45.5840 C   0  0  0  0  0  0  0  0  0  0  0  0
   55.6940   28.8400   44.9550 O   0  0  0  0  0  0  0  0  0  0  0  0
   56.0150   29.7440   43.9010 C   0  0  0  0  0  0  0  0  0  0  0  0
   56.3542   30.6993   44.3279 H   0  0  0  0  0  0  0  0  0  0  0  0
   56.8156   29.3147   43.2808 H   0  0  0  0  0  0  0  0  0  0  0  0
   55.1229   29.9157   43.2808 H   0  0  0  0  0  0  0  0  0  0  0  0
   57.9770   28.3490   45.7390 C   0  0  0  0  0  0  0  0  0  0  0  0
   58.3348   29.3169   45.3581 H   0  0  0  0  0  0  0  0  0  0  0  0
   59.3050   32.0870   49.8790 C   0  0  0  0  0  0  0  0  0  0  0  0
   58.5040   32.1610   48.7290 C   0  0  0  0  0  0  0  0  0  0  0  0
   57.7897   31.3539   48.5091 H   0  0  0  0  0  0  0  0  0  0  0  0
   58.6060   33.2510   47.8610 C   0  0  0  0  0  0  0  0  0  0  0  0
   57.9781   33.2898   46.9586 H   0  0  0  0  0  0  0  0  0  0  0  0
   59.4990   34.2930   48.1290 C   0  0  0  0  0  0  0  0  0  0  0  0
   59.5680   35.3620   47.2230 O   0  0  0  0  0  0  0  0  0  0  0  0
   59.6380   35.2150   45.8070 C   0  0  0  0  0  0  0  0  0  0  0  0
   60.0990   34.2470   45.5612 H   0  0  0  0  0  0  0  0  0  0  0  0
   58.6236   35.2562   45.3835 H   0  0  0  0  0  0  0  0  0  0  0  0
   60.2454   36.0284   45.3835 H   0  0  0  0  0  0  0  0  0  0  0  0
   60.2930   34.2350   49.2910 C   0  0  0  0  0  0  0  0  0  0  0  0
   60.9958   35.0508   49.5158 H   0  0  0  0  0  0  0  0  0  0  0  0
   60.1910   33.1440   50.1600 C   0  0  0  0  0  0  0  0  0  0  0  0
   60.8079   33.1117   51.0701 H   0  0  0  0  0  0  0  0  0  0  0  0
  1  2  1  0
  2  3  2  0
  3  4  1  0
  3  5  1  0
  5  6  1  0
  5  7  1  0
  5  8  1  0
  8  9  2  0
  8 10  1  0
 10 11  1  1
 10 12  1  0
 12 13  1  0
 12 14  1  0
 12 15  1  0
 15 16  2  0
 16 17  1  0
 16 18  1  0
 18 19  1  0
 18 20  2  0
 20 21  1  0
 20 22  1  0
 22 23  1  0
 22 24  2  0
 24 25  1  0
 10 26  1  0
 26 27  1  0
 26 28  1  0
 26 29  1  0
 29 30  2  0
 30 31  1  0
 30 32  1  0
 32 33  1  0
 32 34  2  0
 34 35  1  0
 34 36  1  0
 36 37  1  0
 37 38  1  0
 38 39  1  0
 38 40  1  0
 38 41  1  0
 36 42  2  0
 42 43  1  0
  2 44  1  0
 44 45  2  0
 45 46  1  0
 45 47  1  0
 47 48  1  0
 47 49  2  0
 49 50  1  0
 50 51  1  0
 51 52  1  0
 51 53  1  0
 51 54  1  0
 49 55  1  0
 55 56  1  0
 55 57  2  0
 57 58  1  0
 24 15  1  0
 42 29  1  0
 57 44  1  0
M  CHG  2  10   1  35  -1
M  END
>  <UniqueID>  (56) 
46

>  <SMILES>  (56) 
COc1ccc(/C=C/CC(=O)[N@H+](Cc2ccccc2)Cc2ccc([O-])c(OC)c2)cc1

>  <Energy>  (56) 
73.00265372798106

>  <Genealogy>  (56) 
COc1ccc(C=CCC(=O)[NH+](Cc2ccccc2)Cc2ccc([O-])c(OC)c2)cc1 (protonated)
COc1ccc(C=CCC(=O)[N@H+](Cc2ccccc2)Cc2ccc([O-])c(OC)c2)cc1 (chirality)
COc1ccc(/C=C/CC(=O)[N@H+](Cc2ccccc2)Cc2ccc([O-])c(OC)c2)cc1 (cis-trans isomerization)
COc1ccc(/C=C/CC(=O)[N@H+](Cc2ccccc2)Cc2ccc([O-])c(OC)c2)cc1 (3D coordinates assigned)
COc1ccc(/C=C/CC(=O)[N@H+](Cc2ccccc2)Cc2ccc([O-])c(OC)c2)cc1 (optimized conformer: 73.00265372798106 kcal/mol)

>  <smiles>  (56) 
COc1ccc(C=CCC(=O)N(Cc2ccccc2)Cc2ccc(O)c(OC)c2)cc1

>  <score_type>  (56) 
oracle

>  <origin>  (56) 
adg

>  <m_score__min__energy>  (56) 
-10.880000000000001

>  <m_primary>  (56) 
energy

$$$$
56:0
     RDKit          3D

 40 42  0  0  0  0  0  0  0  0999 V2000
   62.4480   33.4440   47.0010 C   0  0  0  0  0  0  0  0  0  0  0  0
   61.1460   33.2480   47.5460 O   0  0  0  0  0  0  0  0  0  0  0  0
   60.0570   32.7160   46.8370 C   0  0  0  0  0  0  0  0  0  0  0  0
   60.0530   31.3870   46.3650 C   0  0  0  0  0  0  0  0  0  0  0  0
   58.9490   30.8880   45.6600 C   0  0  0  0  0  0  0  0  0  0  0  0
   58.9270   29.5700   45.1830 C   0  0  0  0  0  0  0  0  0  0  0  0
   57.8100   29.0870   44.4800 C   0  0  0  0  0  0  0  0  0  0  0  0
   57.7730   27.6920   43.9710 C   0  0  0  0  0  0  0  0  0  0  0  0
   57.8380   27.2680   42.6510 C   0  0  0  0  0  0  0  0  0  0  0  0
   57.7730   25.9240   42.6080 N   0  0  0  0  0  0  0  0  0  0  0  0
   57.6710   25.4830   43.8530 N   0  0  0  0  0  0  0  0  0  0  0  0
   57.5810   24.0630   44.2010 C   0  0  0  0  0  0  0  0  0  0  0  0
   56.4090   23.4030   43.4720 C   0  0  0  0  0  0  0  0  0  0  0  0
   57.4580   23.8900   45.7180 C   0  0  0  0  0  0  0  0  0  0  0  0
   57.6670   26.5260   44.7080 C   0  0  0  0  0  0  0  0  0  0  0  0
   56.7260   29.9600   44.2720 C   0  0  0  0  0  0  0  0  0  0  0  0
   56.7660   31.2340   44.7400 N   0  0  0  0  0  0  0  0  0  0  0  0
   57.8370   31.7170   45.4230 C   0  0  0  0  0  0  0  0  0  0  0  0
   57.8350   33.0350   45.8880 C   0  0  0  0  0  0  0  0  0  0  0  0
   58.9390   33.5410   46.5930 C   0  0  0  0  0  0  0  0  0  0  0  0
   58.9270   34.9590   47.0910 C   0  0  0  0  0  0  0  0  0  0  0  0
   63.1752   33.5535   47.8190 H   0  0  0  0  0  0  0  0  0  0  0  0
   62.7206   32.5768   46.3816 H   0  0  0  0  0  0  0  0  0  0  0  0
   62.4532   34.3530   46.3816 H   0  0  0  0  0  0  0  0  0  0  0  0
   60.9215   30.7381   46.5512 H   0  0  0  0  0  0  0  0  0  0  0  0
   59.7890   28.9100   45.3600 H   0  0  0  0  0  0  0  0  0  0  0  0
   57.9286   27.9279   41.7756 H   0  0  0  0  0  0  0  0  0  0  0  0
   58.5050   23.5626   43.8758 H   0  0  0  0  0  0  0  0  0  0  0  0
   55.6975   23.0023   44.2091 H   0  0  0  0  0  0  0  0  0  0  0  0
   55.9027   24.1486   42.8414 H   0  0  0  0  0  0  0  0  0  0  0  0
   56.7841   22.5835   42.8414 H   0  0  0  0  0  0  0  0  0  0  0  0
   58.0237   24.6857   46.2248 H   0  0  0  0  0  0  0  0  0  0  0  0
   56.3990   23.9505   46.0093 H   0  0  0  0  0  0  0  0  0  0  0  0
   57.8630   22.9096   46.0093 H   0  0  0  0  0  0  0  0  0  0  0  0
   57.5923   26.4608   45.8035 H   0  0  0  0  0  0  0  0  0  0  0  0
   55.8388   29.6073   43.7257 H   0  0  0  0  0  0  0  0  0  0  0  0
   56.9636   33.6797   45.7006 H   0  0  0  0  0  0  0  0  0  0  0  0
   58.9270   34.9613   48.1910 H   0  0  0  0  0  0  0  0  0  0  0  0
   59.8207   35.4844   46.7232 H   0  0  0  0  0  0  0  0  0  0  0  0
   58.0245   35.4692   46.7232 H   0  0  0  0  0  0  0  0  0  0  0  0
  1  2  1  0
  2  3  1  0
  3  4  2  0
  4  5  1  0
  5  6  2  0
  6  7  1  0
  7  8  1  0
  8  9  1  0
  9 10  2  0
 10 11  1  0
 11 12  1  0
 12 13  1  0
 12 14  1  0
 11 15  1  0
  7 16  2  0
 16 17  1  0
 17 18  2  0
 18 19  1  0
 19 20  2  0
 20 21  1  0
 20  3  1  0
 18  5  1  0
 15  8  2  0
  1 22  1  0
  1 23  1  0
  1 24  1  0
  4 25  1  0
  6 26  1  0
  9 27  1  0
 12 28  1  0
 13 29  1  0
 13 30  1  0
 13 31  1  0
 14 32  1  0
 14 33  1  0
 14 34  1  0
 15 35  1  0
 16 36  1  0
 19 37  1  0
 21 38  1  0
 21 39  1  0
 21 40  1  0
M  END
>  <UniqueID>  (57) 
47

>  <SMILES>  (57) 
COc1cc2cc(-c3cnn(C(C)C)c3)cnc2cc1C

>  <Energy>  (57) 
71.68956985520248

>  <Genealogy>  (57) 
COc1cc2cc(-c3cnn(C(C)C)c3)cnc2cc1C (3D coordinates assigned)
COc1cc2cc(-c3cnn(C(C)C)c3)cnc2cc1C (optimized conformer: 71.68956985520248 kcal/mol)

>  <smiles>  (57) 
COc1cc2cc(-c3cnn(C(C)C)c3)cnc2cc1C

>  <score_type>  (57) 
oracle

>  <origin>  (57) 
adg

>  <m_score__min__energy>  (57) 
-6.8799999999999999

>  <m_primary>  (57) 
energy

$$$$
57:0
     RDKit          3D

 34 35  0  0  0  0  0  0  0  0999 V2000
   55.6520   29.7150   43.1750 C   0  0  0  0  0  0  0  0  0  0  0  0
   56.6380   28.9900   44.0950 C   0  0  1  0  0  0  0  0  0  0  0  0
   57.7960   29.9120   44.5240 C   0  0  0  0  0  0  0  0  0  0  0  0
   57.3990   30.7690   45.6430 N   0  0  0  0  0  0  0  0  0  0  0  0
   57.9610   32.0660   45.9240 C   0  0  0  0  0  0  0  0  0  0  0  0
   57.9550   33.0450   44.9170 C   0  0  0  0  0  0  0  0  0  0  0  0
   58.4930   34.3130   45.1540 C   0  0  0  0  0  0  0  0  0  0  0  0
   59.0500   34.6170   46.3980 C   0  0  0  0  0  0  0  0  0  0  0  0
   59.0710   33.6500   47.4100 C   0  0  0  0  0  0  0  0  0  0  0  0
   59.6500   33.9620   48.6910 C   0  0  0  0  0  0  0  0  0  0  0  0
   60.1150   34.2140   49.7200 N   0  0  0  0  0  0  0  0  0  0  0  0
   58.5330   32.3770   47.1750 C   0  0  0  0  0  0  0  0  0  0  0  0
   55.9500   28.4190   45.2550 N   0  0  0  0  0  0  0  0  0  0  0  0
   56.2510   27.1690   45.8890 C   0  0  0  0  0  0  0  0  0  0  0  0
   55.3360   26.3430   46.1500 O   0  0  0  0  0  0  0  0  0  0  0  0
   57.6410   26.8520   46.2390 C   0  0  0  0  0  0  0  0  0  0  0  0
   58.3540   25.7310   45.8290 C   0  0  0  0  0  0  0  0  0  0  0  0
   59.6620   25.6970   46.3270 C   0  0  0  0  0  0  0  0  0  0  0  0
   59.9830   26.7850   47.1300 C   0  0  0  0  0  0  0  0  0  0  0  0
   58.6380   27.7900   47.2180 S   0  0  0  0  0  0  0  0  0  0  0  0
   54.9138   30.2578   43.7837 H   0  0  0  0  0  0  0  0  0  0  0  0
   56.1990   30.4276   42.5402 H   0  0  0  0  0  0  0  0  0  0  0  0
   55.1348   28.9805   42.5402 H   0  0  0  0  0  0  0  0  0  0  0  0
   57.0790   28.1600   43.5235 H   0  0  0  0  0  0  0  0  0  0  0  0
   58.6528   29.2941   44.8308 H   0  0  0  0  0  0  0  0  0  0  0  0
   58.0675   30.5525   43.6719 H   0  0  0  0  0  0  0  0  0  0  0  0
   56.6750   30.3910   46.2960 H   0  0  0  0  0  0  0  0  0  0  0  0
   57.5229   32.8117   43.9327 H   0  0  0  0  0  0  0  0  0  0  0  0
   58.4776   35.0731   44.3590 H   0  0  0  0  0  0  0  0  0  0  0  0
   59.4721   35.6159   46.5826 H   0  0  0  0  0  0  0  0  0  0  0  0
   58.5571   31.6172   47.9700 H   0  0  0  0  0  0  0  0  0  0  0  0
   57.9330   24.9498   45.1790 H   0  0  0  0  0  0  0  0  0  0  0  0
   60.3696   24.8850   46.1036 H   0  0  0  0  0  0  0  0  0  0  0  0
   60.9508   26.9587   47.6232 H   0  0  0  0  0  0  0  0  0  0  0  0
  1  2  1  0
  2  3  1  0
  3  4  1  0
  4  5  1  0
  5  6  2  0
  6  7  1  0
  7  8  2  0
  8  9  1  0
  9 10  1  0
 10 11  3  0
  9 12  2  0
  2 13  1  0
 13 14  1  0
 14 15  2  0
 14 16  1  0
 16 17  2  0
 17 18  1  0
 18 19  2  0
 19 20  1  0
 12  5  1  0
 20 16  1  0
  1 21  1  0
  1 22  1  0
  1 23  1  0
  2 24  1  6
  3 25  1  0
  3 26  1  0
  4 27  1  0
  6 28  1  0
  7 29  1  0
  8 30  1  0
 12 31  1  0
 17 32  1  0
 18 33  1  0
 19 34  1  0
M  CHG  1  13  -1
M  END
>  <UniqueID>  (58) 
48

>  <SMILES>  (58) 
C[C@@H](CNc1cccc(C#N)c1)[N-]C(=O)c1cccs1

>  <Energy>  (58) 
53.93272187315563

>  <Genealogy>  (58) 
CC(CNc1cccc(C#N)c1)[N-]C(=O)c1cccs1 (protonated)
C[C@@H](CNc1cccc(C#N)c1)[N-]C(=O)c1cccs1 (chirality)
C[C@@H](CNc1cccc(C#N)c1)[N-]C(=O)c1cccs1 (3D coordinates assigned)
C[C@@H](CNc1cccc(C#N)c1)[N-]C(=O)c1cccs1 (optimized conformer: 53.93272187315563 kcal/mol)

>  <smiles>  (58) 
CC(CNc1cccc(C#N)c1)NC(=O)c1cccs1

>  <score_type>  (58) 
oracle

>  <origin>  (58) 
adg

>  <m_score__min__energy>  (58) 
-8.8800000000000008

>  <m_primary>  (58) 
energy

$$$$
58:0
     RDKit          3D

 32 34  0  0  0  0  0  0  0  0999 V2000
   61.1050   26.8810   50.5230 C   0  0  0  0  0  0  0  0  0  0  0  0
   60.7630   26.7170   49.1510 O   0  0  0  0  0  0  0  0  0  0  0  0
   60.0980   27.6830   48.3800 C   0  0  0  0  0  0  0  0  0  0  0  0
   59.8570   27.5170   47.0030 C   0  0  0  0  0  0  0  0  0  0  0  0
   59.1920   28.5110   46.2800 C   0  0  0  0  0  0  0  0  0  0  0  0
   58.7690   29.6910   46.9130 C   0  0  0  0  0  0  0  0  0  0  0  0
   58.0570   30.7270   46.1330 C   0  0  0  0  0  0  0  0  0  0  0  0
   57.0840   30.4360   45.2460 N   0  0  0  0  0  0  0  0  0  0  0  0
   56.6510   31.5840   44.7460 N   0  0  0  0  0  0  0  0  0  0  0  0
   57.3640   32.5600   45.3360 C   0  0  0  0  0  0  0  0  0  0  0  0
   57.2200   34.1400   44.9280 S   0  0  0  0  0  0  0  0  0  0  0  0
   58.2620   32.0630   46.2130 N   0  0  0  0  0  0  0  0  0  0  0  0
   59.2950   32.7750   46.9180 C   0  0  0  0  0  0  0  0  0  0  0  0
   60.6440   32.4300   46.7360 C   0  0  0  0  0  0  0  0  0  0  0  0
   61.6460   33.1150   47.4300 C   0  0  0  0  0  0  0  0  0  0  0  0
   61.3080   34.1500   48.3090 C   0  0  0  0  0  0  0  0  0  0  0  0
   59.9660   34.4990   48.4930 C   0  0  0  0  0  0  0  0  0  0  0  0
   58.9620   33.8150   47.8010 C   0  0  0  0  0  0  0  0  0  0  0  0
   58.9900   29.8440   48.2900 C   0  0  0  0  0  0  0  0  0  0  0  0
   59.6560   28.8500   49.0140 C   0  0  0  0  0  0  0  0  0  0  0  0
   60.2918   26.4910   51.1527 H   0  0  0  0  0  0  0  0  0  0  0  0
   62.0321   26.3295   50.7382 H   0  0  0  0  0  0  0  0  0  0  0  0
   61.2554   27.9492   50.7382 H   0  0  0  0  0  0  0  0  0  0  0  0
   60.1933   26.6015   46.4943 H   0  0  0  0  0  0  0  0  0  0  0  0
   58.9984   28.3680   45.2067 H   0  0  0  0  0  0  0  0  0  0  0  0
   60.9134   31.6178   46.0448 H   0  0  0  0  0  0  0  0  0  0  0  0
   62.7011   32.8400   47.2849 H   0  0  0  0  0  0  0  0  0  0  0  0
   62.0968   34.6886   48.8547 H   0  0  0  0  0  0  0  0  0  0  0  0
   59.7001   35.3131   49.1834 H   0  0  0  0  0  0  0  0  0  0  0  0
   57.9078   34.0924   47.9487 H   0  0  0  0  0  0  0  0  0  0  0  0
   58.6374   30.7509   48.8030 H   0  0  0  0  0  0  0  0  0  0  0  0
   59.8340   28.9864   50.0909 H   0  0  0  0  0  0  0  0  0  0  0  0
  1  2  1  0
  2  3  1  0
  3  4  2  0
  4  5  1  0
  5  6  2  0
  6  7  1  0
  7  8  2  0
  8  9  1  0
  9 10  1  0
 10 11  2  0
 10 12  1  0
 12 13  1  0
 13 14  2  0
 14 15  1  0
 15 16  2  0
 16 17  1  0
 17 18  2  0
  6 19  1  0
 19 20  2  0
 20  3  1  0
 12  7  1  0
 18 13  1  0
  1 21  1  0
  1 22  1  0
  1 23  1  0
  4 24  1  0
  5 25  1  0
 14 26  1  0
 15 27  1  0
 16 28  1  0
 17 29  1  0
 18 30  1  0
 19 31  1  0
 20 32  1  0
M  CHG  1   9  -1
M  END
>  <UniqueID>  (59) 
49

>  <SMILES>  (59) 
COc1ccc(-c2n[n-]c(=S)n2-c2ccccc2)cc1

>  <Energy>  (59) 
79.56158393927495

>  <Genealogy>  (59) 
COc1ccc(-c2n[n-]c(=S)n2-c2ccccc2)cc1 (protonated)
COc1ccc(-c2n[n-]c(=S)n2-c2ccccc2)cc1 (3D coordinates assigned)
COc1ccc(-c2n[n-]c(=S)n2-c2ccccc2)cc1 (optimized conformer: 79.56158393927495 kcal/mol)

>  <smiles>  (59) 
COc1ccc(-c2n[nH]c(=S)n2-c2ccccc2)cc1

>  <score_type>  (59) 
oracle

>  <origin>  (59) 
adg

>  <m_score__min__energy>  (59) 
-7.7599999999999998

>  <m_primary>  (59) 
energy

$$$$
59:0
     RDKit          3D

 45 47  0  0  0  0  0  0  0  0999 V2000
   56.5870   24.8160   44.6350 C   0  0  0  0  0  0  0  0  0  0  0  0
   56.1540   25.5200   46.2120 S   0  0  0  0  0  0  0  0  0  0  0  0
   55.1410   26.6080   45.9910 O   0  0  0  0  0  0  0  0  0  0  0  0
   55.5550   24.4740   47.1120 O   0  0  0  0  0  0  0  0  0  0  0  0
   57.5550   26.2180   46.9620 N   0  0  0  0  0  0  0  0  0  0  0  0
   58.2570   27.3870   46.5150 C   0  0  0  0  0  0  0  0  0  0  0  0
   58.6870   27.5420   45.1850 C   0  0  0  0  0  0  0  0  0  0  0  0
   59.3180   28.7210   44.7880 C   0  0  0  0  0  0  0  0  0  0  0  0
   59.5710   29.7340   45.7190 C   0  0  0  0  0  0  0  0  0  0  0  0
   59.2000   29.5700   47.0650 C   0  0  0  0  0  0  0  0  0  0  0  0
   59.5430   30.5980   48.0770 C   0  0  0  0  0  0  0  0  0  0  0  0
   60.4480   30.3660   48.9220 O   0  0  0  0  0  0  0  0  0  0  0  0
   58.8500   31.8530   48.0930 N   0  0  0  0  0  0  0  0  0  0  0  0
   58.7210   32.7540   46.9790 C   0  0  0  0  0  0  0  0  0  0  0  0
   57.5460   32.7950   46.2040 C   0  0  0  0  0  0  0  0  0  0  0  0
   57.4130   33.7180   45.1620 C   0  0  0  0  0  0  0  0  0  0  0  0
   58.4410   34.6200   44.8910 C   0  0  0  0  0  0  0  0  0  0  0  0
   59.6060   34.5990   45.6620 C   0  0  0  0  0  0  0  0  0  0  0  0
   59.7540   33.6730   46.7100 C   0  0  0  0  0  0  0  0  0  0  0  0
   60.9710   33.6470   47.4730 N   0  0  0  0  0  0  0  0  0  0  0  0
   62.2320   33.4650   46.7420 C   0  0  0  0  0  0  0  0  0  0  0  0
   63.3870   33.1660   47.7000 C   0  0  0  0  0  0  0  0  0  0  0  0
   63.3990   34.0940   48.7650 O   0  0  0  0  0  0  0  0  0  0  0  0
   62.2710   33.8670   49.5840 C   0  0  0  0  0  0  0  0  0  0  0  0
   60.9670   34.1950   48.8380 C   0  0  0  0  0  0  0  0  0  0  0  0
   58.5300   28.3940   47.4480 C   0  0  0  0  0  0  0  0  0  0  0  0
   57.1574   23.8886   44.7917 H   0  0  0  0  0  0  0  0  0  0  0  0
   55.6705   24.5917   44.0695 H   0  0  0  0  0  0  0  0  0  0  0  0
   57.2006   25.5328   44.0695 H   0  0  0  0  0  0  0  0  0  0  0  0
   58.5256   26.7330   44.4573 H   0  0  0  0  0  0  0  0  0  0  0  0
   59.6180   28.8548   43.7382 H   0  0  0  0  0  0  0  0  0  0  0  0
   60.0627   30.6635   45.3962 H   0  0  0  0  0  0  0  0  0  0  0  0
   56.7256   32.0948   46.4202 H   0  0  0  0  0  0  0  0  0  0  0  0
   56.4957   33.7324   44.5551 H   0  0  0  0  0  0  0  0  0  0  0  0
   58.3351   35.3466   44.0720 H   0  0  0  0  0  0  0  0  0  0  0  0
   60.4147   35.3131   45.4474 H   0  0  0  0  0  0  0  0  0  0  0  0
   62.1218   32.6258   46.0394 H   0  0  0  0  0  0  0  0  0  0  0  0
   62.4592   34.3955   46.2011 H   0  0  0  0  0  0  0  0  0  0  0  0
   63.2671   32.1507   48.1059 H   0  0  0  0  0  0  0  0  0  0  0  0
   64.3358   33.2444   47.1490 H   0  0  0  0  0  0  0  0  0  0  0  0
   62.2547   32.8097   49.8872 H   0  0  0  0  0  0  0  0  0  0  0  0
   62.3426   34.5221   50.4648 H   0  0  0  0  0  0  0  0  0  0  0  0
   60.1204   33.7645   49.3929 H   0  0  0  0  0  0  0  0  0  0  0  0
   60.8762   35.2891   48.7690 H   0  0  0  0  0  0  0  0  0  0  0  0
   58.2165   28.2641   48.4944 H   0  0  0  0  0  0  0  0  0  0  0  0
  1  2  1  0
  2  3  2  0
  2  4  2  0
  2  5  1  0
  5  6  1  0
  6  7  2  0
  7  8  1  0
  8  9  2  0
  9 10  1  0
 10 11  1  0
 11 12  2  0
 11 13  1  0
 13 14  1  0
 14 15  2  0
 15 16  1  0
 16 17  2  0
 17 18  1  0
 18 19  2  0
 19 20  1  0
 20 21  1  0
 21 22  1  0
 22 23  1  0
 23 24  1  0
 24 25  1  0
 10 26  2  0
 26  6  1  0
 19 14  1  0
 25 20  1  0
  1 27  1  0
  1 28  1  0
  1 29  1  0
  7 30  1  0
  8 31  1  0
  9 32  1  0
 15 33  1  0
 16 34  1  0
 17 35  1  0
 18 36  1  0
 21 37  1  0
 21 38  1  0
 22 39  1  0
 22 40  1  0
 24 41  1  0
 24 42  1  0
 25 43  1  0
 25 44  1  0
 26 45  1  0
M  CHG  2   5  -1  13  -1
M  END
>  <UniqueID>  (60) 
50

>  <SMILES>  (60) 
CS(=O)(=O)[N-]c1cccc(C(=O)[N-]c2ccccc2N2CCOCC2)c1

>  <Energy>  (60) 
57.27443643488726

>  <Genealogy>  (60) 
CS(=O)(=O)[N-]c1cccc(C(=O)[N-]c2ccccc2N2CCOCC2)c1 (protonated)
CS(=O)(=O)[N-]c1cccc(C(=O)[N-]c2ccccc2N2CCOCC2)c1 (3D coordinates assigned)
CS(=O)(=O)[N-]c1cccc(C(=O)[N-]c2ccccc2N2CCOCC2)c1 (nonaromatic ring conformer: 57.27443643488726 kcal/mol)

>  <smiles>  (60) 
CS(=O)(=O)Nc1cccc(C(=O)Nc2ccccc2N2CCOCC2)c1

>  <score_type>  (60) 
oracle

>  <origin>  (60) 
adg

>  <m_score__min__energy>  (60) 
-11.66

>  <m_primary>  (60) 
energy

$$$$
60:0
     RDKit          3D

 51 53  0  0  0  0  0  0  0  0999 V2000
   55.9680   30.1800   44.4740 O   0  0  0  0  0  0  0  0  0  0  0  0
   57.0050   30.8620   44.6800 C   0  0  0  0  0  0  0  0  0  0  0  0
   58.3500   30.1940   44.5640 C   0  0  0  0  0  0  0  0  0  0  0  0
   58.3900   28.9770   45.3930 N   0  0  0  0  0  0  0  0  0  0  0  0
   58.7530   29.0870   46.7080 C   0  0  0  0  0  0  0  0  0  0  0  0
   58.7610   27.9700   47.5410 C   0  0  0  0  0  0  0  0  0  0  0  0
   58.4040   26.7280   47.0270 C   0  0  0  0  0  0  0  0  0  0  0  0
   58.0530   26.6020   45.6800 C   0  0  0  0  0  0  0  0  0  0  0  0
   57.6750   25.3130   45.1720 N   0  0  0  0  0  0  0  0  0  0  0  0
   56.4030   24.7030   45.4410 C   0  0  0  0  0  0  0  0  0  0  0  0
   55.4850   25.3700   45.9910 O   0  0  0  0  0  0  0  0  0  0  0  0
   56.1330   23.2740   45.0390 C   0  0  0  0  0  0  0  0  0  0  0  0
   57.3890   22.4030   45.2610 C   0  0  0  0  0  0  0  0  0  0  0  0
   57.2250   21.0380   44.5850 C   0  0  0  0  0  0  0  0  0  0  0  0
   57.0280   21.1590   43.0590 C   0  0  0  0  0  0  0  0  0  0  0  0
   56.5610   22.5540   42.6030 C   0  0  0  0  0  0  0  0  0  0  0  0
   55.5680   23.1770   43.5940 C   0  0  0  0  0  0  0  0  0  0  0  0
   58.0220   27.7580   44.8730 C   0  0  0  0  0  0  0  0  0  0  0  0
   57.6280   27.6700   43.6770 O   0  0  0  0  0  0  0  0  0  0  0  0
   56.8580   32.2430   45.0360 N   0  0  0  0  0  0  0  0  0  0  0  0
   57.9410   33.2180   45.0910 C   0  0  0  0  0  0  0  0  0  0  0  0
   58.4820   33.2850   46.4940 C   0  0  0  0  0  0  0  0  0  0  0  0
   58.1640   32.2630   47.4080 C   0  0  0  0  0  0  0  0  0  0  0  0
   58.6350   32.3160   48.7210 C   0  0  0  0  0  0  0  0  0  0  0  0
   59.4200   33.3910   49.1400 C   0  0  0  0  0  0  0  0  0  0  0  0
   59.7310   34.4200   48.2490 C   0  0  0  0  0  0  0  0  0  0  0  0
   59.2640   34.3770   46.9290 C   0  0  0  0  0  0  0  0  0  0  0  0
   59.6680   35.7130   45.8550 Cl  0  0  0  0  0  0  0  0  0  0  0  0
   58.5313   29.9234   43.5133 H   0  0  0  0  0  0  0  0  0  0  0  0
   59.1265   30.8904   44.9133 H   0  0  0  0  0  0  0  0  0  0  0  0
   59.0418   30.0685   47.1120 H   0  0  0  0  0  0  0  0  0  0  0  0
   59.0478   28.0699   48.5982 H   0  0  0  0  0  0  0  0  0  0  0  0
   58.3979   25.8438   47.6813 H   0  0  0  0  0  0  0  0  0  0  0  0
   58.3010   24.8670   44.4640 H   0  0  0  0  0  0  0  0  0  0  0  0
   55.3438   22.8714   45.6909 H   0  0  0  0  0  0  0  0  0  0  0  0
   58.2640   22.9150   44.8342 H   0  0  0  0  0  0  0  0  0  0  0  0
   57.5275   22.2493   46.3414 H   0  0  0  0  0  0  0  0  0  0  0  0
   58.1257   20.4370   44.7787 H   0  0  0  0  0  0  0  0  0  0  0  0
   56.3260   20.5616   45.0032 H   0  0  0  0  0  0  0  0  0  0  0  0
   57.9858   20.9354   42.5665 H   0  0  0  0  0  0  0  0  0  0  0  0
   56.2362   20.4482   42.7800 H   0  0  0  0  0  0  0  0  0  0  0  0
   57.4381   23.2123   42.5171 H   0  0  0  0  0  0  0  0  0  0  0  0
   56.0520   22.4435   41.6341 H   0  0  0  0  0  0  0  0  0  0  0  0
   55.3156   24.1900   43.2474 H   0  0  0  0  0  0  0  0  0  0  0  0
   54.6840   22.5233   43.6292 H   0  0  0  0  0  0  0  0  0  0  0  0
   58.7433   32.9147   44.4023 H   0  0  0  0  0  0  0  0  0  0  0  0
   57.5605   34.2071   44.7961 H   0  0  0  0  0  0  0  0  0  0  0  0
   57.5399   31.4166   47.0854 H   0  0  0  0  0  0  0  0  0  0  0  0
   58.3870   31.5092   49.4264 H   0  0  0  0  0  0  0  0  0  0  0  0
   59.7943   33.4277   50.1737 H   0  0  0  0  0  0  0  0  0  0  0  0
   60.3455   35.2682   48.5851 H   0  0  0  0  0  0  0  0  0  0  0  0
  1  2  2  0
  2  3  1  0
  3  4  1  0
  4  5  1  0
  5  6  2  0
  6  7  1  0
  7  8  2  0
  8  9  1  0
  9 10  1  0
 10 11  2  0
 10 12  1  0
 12 13  1  0
 13 14  1  0
 14 15  1  0
 15 16  1  0
 16 17  1  0
  8 18  1  0
 18 19  2  0
  2 20  1  0
 20 21  1  0
 21 22  1  0
 22 23  2  0
 23 24  1  0
 24 25  2  0
 25 26  1  0
 26 27  2  0
 27 28  1  0
 18  4  1  0
 27 22  1  0
 17 12  1  0
  3 29  1  0
  3 30  1  0
  5 31  1  0
  6 32  1  0
  7 33  1  0
  9 34  1  0
 12 35  1  0
 13 36  1  0
 13 37  1  0
 14 38  1  0
 14 39  1  0
 15 40  1  0
 15 41  1  0
 16 42  1  0
 16 43  1  0
 17 44  1  0
 17 45  1  0
 21 46  1  0
 21 47  1  0
 23 48  1  0
 24 49  1  0
 25 50  1  0
 26 51  1  0
M  CHG  1  20  -1
M  END
>  <UniqueID>  (61) 
51

>  <SMILES>  (61) 
O=C(Cn1cccc(NC(=O)C2CCCCC2)c1=O)[N-]Cc1ccccc1Cl

>  <Energy>  (61) 
59.6683026406374

>  <Genealogy>  (61) 
O=C(Cn1cccc(NC(=O)C2CCCCC2)c1=O)[N-]Cc1ccccc1Cl (protonated)
O=C(Cn1cccc(NC(=O)C2CCCCC2)c1=O)[N-]Cc1ccccc1Cl (3D coordinates assigned)
O=C(Cn1cccc(NC(=O)C2CCCCC2)c1=O)[N-]Cc1ccccc1Cl (nonaromatic ring conformer: 59.6683026406374 kcal/mol)

>  <smiles>  (61) 
O=C(Cn1cccc(NC(=O)C2CCCCC2)c1=O)NCc1ccccc1Cl

>  <score_type>  (61) 
oracle

>  <origin>  (61) 
adg

>  <m_score__min__energy>  (61) 
-10.73

>  <m_primary>  (61) 
energy

$$$$
61:0
     RDKit          3D

 25 26  0  0  0  0  0  0  0  0999 V2000
   54.7780   28.9670   45.4530 H   0  0  0  0  0  0  0  0  0  0  0  0
   55.1660   29.0410   44.4850 N   0  0  0  0  0  0  0  0  0  0  0  0
   55.9840   29.9880   44.1550 C   0  0  0  0  0  0  0  0  0  0  0  0
   56.6580   30.6720   45.1180 N   0  0  0  0  0  0  0  0  0  0  0  0
   57.5290   31.6720   44.8090 C   0  0  0  0  0  0  0  0  0  0  0  0
   58.2330   32.3880   45.9040 C   0  0  0  0  0  0  0  0  0  0  0  0
   58.5850   33.7470   45.7860 C   0  0  0  0  0  0  0  0  0  0  0  0
   58.3303   34.2987   44.8691 H   0  0  0  0  0  0  0  0  0  0  0  0
   59.2550   34.4000   46.8240 C   0  0  0  0  0  0  0  0  0  0  0  0
   59.5293   35.4598   46.7162 H   0  0  0  0  0  0  0  0  0  0  0  0
   59.5800   33.7120   48.0030 C   0  0  0  0  0  0  0  0  0  0  0  0
   60.3340   34.4040   49.0990 C   0  0  0  0  0  0  0  0  0  0  0  0
   59.9599   34.0607   50.0748 H   0  0  0  0  0  0  0  0  0  0  0  0
   61.4049   34.1678   49.0131 H   0  0  0  0  0  0  0  0  0  0  0  0
   60.1903   35.4912   49.0131 H   0  0  0  0  0  0  0  0  0  0  0  0
   59.2590   32.3520   48.1140 C   0  0  0  0  0  0  0  0  0  0  0  0
   59.5350   31.7972   49.0228 H   0  0  0  0  0  0  0  0  0  0  0  0
   58.5900   31.6970   47.0760 C   0  0  0  0  0  0  0  0  0  0  0  0
   58.3402   30.6305   47.1767 H   0  0  0  0  0  0  0  0  0  0  0  0
   57.7210   32.0100   43.4610 C   0  0  0  0  0  0  0  0  0  0  0  0
   58.4088   32.8210   43.1795 H   0  0  0  0  0  0  0  0  0  0  0  0
   57.0230   31.2980   42.4830 C   0  0  0  0  0  0  0  0  0  0  0  0
   57.1800   31.5840   41.2660 O   0  0  0  0  0  0  0  0  0  0  0  0
   56.1720   30.3010   42.8430 N   0  0  0  0  0  0  0  0  0  0  0  0
   55.6530   29.7730   42.1040 H   0  0  0  0  0  0  0  0  0  0  0  0
  1  2  1  0
  2  3  2  0
  3  4  1  0
  4  5  1  0
  5  6  1  0
  6  7  2  0
  7  8  1  0
  7  9  1  0
  9 10  1  0
  9 11  2  0
 11 12  1  0
 12 13  1  0
 12 14  1  0
 12 15  1  0
 11 16  1  0
 16 17  1  0
 16 18  2  0
 18 19  1  0
  5 20  2  0
 20 21  1  0
 20 22  1  0
 22 23  2  0
 22 24  1  0
 24 25  1  0
 24  3  1  0
 18  6  1  0
M  CHG  1   4  -1
M  END
>  <UniqueID>  (62) 
52

>  <SMILES>  (62) 
[H]/N=c1\[n-]c(-c2ccc(C)cc2)cc(=O)[nH]1

>  <Energy>  (62) 
29.429156020813508

>  <Genealogy>  (62) 
Cc1ccc(-c2cc(=O)[nH]c(=N)[n-]2)cc1 (protonated)
[H]/N=c1\[n-]c(-c2ccc(C)cc2)cc(=O)[nH]1 (cis-trans isomerization)
[H]/N=c1\[n-]c(-c2ccc(C)cc2)cc(=O)[nH]1 (3D coordinates assigned)
[H]/N=c1\[n-]c(-c2ccc(C)cc2)cc(=O)[nH]1 (optimized conformer: 29.429156020813508 kcal/mol)

>  <smiles>  (62) 
Cc1ccc(-c2cc(=O)[nH]c(=N)[nH]2)cc1

>  <score_type>  (62) 
oracle

>  <origin>  (62) 
adg

>  <m_score__min__energy>  (62) 
-8.8800000000000008

>  <m_primary>  (62) 
energy

$$$$
62:0
     RDKit          3D

 47 49  0  0  0  0  0  0  0  0999 V2000
   55.9100   25.8770   46.0000 C   0  0  0  0  0  0  0  0  0  0  0  0
   56.8700   25.0410   45.2700 N   0  0  0  0  0  0  0  0  0  0  0  0
   56.4390   24.3420   44.0500 C   0  0  0  0  0  0  0  0  0  0  0  0
   56.5970   22.8590   44.2070 C   0  0  0  0  0  0  0  0  0  0  0  0
   57.6110   22.0650   43.7010 C   0  0  0  0  0  0  0  0  0  0  0  0
   57.3950   20.7980   44.0990 N   0  0  0  0  0  0  0  0  0  0  0  0
   56.3040   20.7700   44.8490 N   0  0  0  0  0  0  0  0  0  0  0  0
   55.7230   19.5580   45.4130 C   0  0  0  0  0  0  0  0  0  0  0  0
   55.7870   22.0090   44.9350 C   0  0  0  0  0  0  0  0  0  0  0  0
   58.2050   24.8890   45.8080 C   0  0  0  0  0  0  0  0  0  0  0  0
   58.4870   23.8650   46.4900 O   0  0  0  0  0  0  0  0  0  0  0  0
   59.2770   25.9330   45.6250 C   0  0  0  0  0  0  0  0  0  0  0  0
   58.6810   27.3100   45.4850 C   0  0  0  0  0  0  0  0  0  0  0  0
   58.1840   27.7510   44.2480 C   0  0  0  0  0  0  0  0  0  0  0  0
   57.6280   29.0260   44.1230 C   0  0  0  0  0  0  0  0  0  0  0  0
   57.5650   29.8840   45.2350 C   0  0  0  0  0  0  0  0  0  0  0  0
   57.0200   31.1730   45.1450 O   0  0  0  0  0  0  0  0  0  0  0  0
   57.7170   32.3670   45.3890 C   0  0  0  0  0  0  0  0  0  0  0  0
   57.8280   32.9130   46.6810 C   0  0  0  0  0  0  0  0  0  0  0  0
   58.5410   34.1000   46.8840 C   0  0  0  0  0  0  0  0  0  0  0  0
   59.1540   34.7410   45.8050 C   0  0  0  0  0  0  0  0  0  0  0  0
   59.0640   34.1930   44.5220 C   0  0  0  0  0  0  0  0  0  0  0  0
   58.3570   33.0040   44.3170 C   0  0  0  0  0  0  0  0  0  0  0  0
   58.0990   29.4620   46.4560 C   0  0  0  0  0  0  0  0  0  0  0  0
   58.6510   28.1850   46.5840 C   0  0  0  0  0  0  0  0  0  0  0  0
   56.0592   25.7471   47.0821 H   0  0  0  0  0  0  0  0  0  0  0  0
   56.0654   26.9326   45.7326 H   0  0  0  0  0  0  0  0  0  0  0  0
   54.8858   25.5780   45.7326 H   0  0  0  0  0  0  0  0  0  0  0  0
   55.3816   24.5742   43.8549 H   0  0  0  0  0  0  0  0  0  0  0  0
   57.0640   24.6780   43.2095 H   0  0  0  0  0  0  0  0  0  0  0  0
   58.4503   22.4106   43.0796 H   0  0  0  0  0  0  0  0  0  0  0  0
   57.9800   19.9660   43.8580 H   0  0  0  0  0  0  0  0  0  0  0  0
   55.7503   19.6150   46.5112 H   0  0  0  0  0  0  0  0  0  0  0  0
   54.6802   19.4604   45.0767 H   0  0  0  0  0  0  0  0  0  0  0  0
   56.3000   18.6839   45.0767 H   0  0  0  0  0  0  0  0  0  0  0  0
   54.8797   22.2948   45.4874 H   0  0  0  0  0  0  0  0  0  0  0  0
   59.9445   25.9185   46.4992 H   0  0  0  0  0  0  0  0  0  0  0  0
   59.8350   25.7008   44.7059 H   0  0  0  0  0  0  0  0  0  0  0  0
   58.2329   27.0879   43.3717 H   0  0  0  0  0  0  0  0  0  0  0  0
   57.2377   29.3604   43.1504 H   0  0  0  0  0  0  0  0  0  0  0  0
   57.3532   32.4056   47.5337 H   0  0  0  0  0  0  0  0  0  0  0  0
   58.6187   34.5285   47.8941 H   0  0  0  0  0  0  0  0  0  0  0  0
   59.7080   35.6778   45.9649 H   0  0  0  0  0  0  0  0  0  0  0  0
   59.5495   34.6973   43.6735 H   0  0  0  0  0  0  0  0  0  0  0  0
   58.3029   32.5664   43.3092 H   0  0  0  0  0  0  0  0  0  0  0  0
   58.0845   30.1401   47.3220 H   0  0  0  0  0  0  0  0  0  0  0  0
   59.0646   27.8626   47.5509 H   0  0  0  0  0  0  0  0  0  0  0  0
  1  2  1  0
  2  3  1  0
  3  4  1  0
  4  5  1  0
  5  6  2  0
  6  7  1  0
  7  8  1  0
  7  9  1  0
  2 10  1  0
 10 11  2  0
 10 12  1  0
 12 13  1  0
 13 14  2  0
 14 15  1  0
 15 16  2  0
 16 17  1  0
 17 18  1  0
 18 19  2  0
 19 20  1  0
 20 21  2  0
 21 22  1  0
 22 23  2  0
 16 24  1  0
 24 25  2  0
  9  4  2  0
 25 13  1  0
 23 18  1  0
  1 26  1  0
  1 27  1  0
  1 28  1  0
  3 29  1  0
  3 30  1  0
  5 31  1  0
  6 32  1  0
  8 33  1  0
  8 34  1  0
  8 35  1  0
  9 36  1  0
 12 37  1  0
 12 38  1  0
 14 39  1  0
 15 40  1  0
 19 41  1  0
 20 42  1  0
 21 43  1  0
 22 44  1  0
 23 45  1  0
 24 46  1  0
 25 47  1  0
M  CHG  1   6   1
M  END
>  <UniqueID>  (63) 
53

>  <SMILES>  (63) 
CN(Cc1c[nH+]n(C)c1)C(=O)Cc1ccc(Oc2ccccc2)cc1

>  <Energy>  (63) 
80.86043460205518

>  <Genealogy>  (63) 
CN(Cc1c[nH+]n(C)c1)C(=O)Cc1ccc(Oc2ccccc2)cc1 (protonated)
CN(Cc1c[nH+]n(C)c1)C(=O)Cc1ccc(Oc2ccccc2)cc1 (3D coordinates assigned)
CN(Cc1c[nH+]n(C)c1)C(=O)Cc1ccc(Oc2ccccc2)cc1 (optimized conformer: 80.86043460205518 kcal/mol)

>  <smiles>  (63) 
CN(Cc1cnn(C)c1)C(=O)Cc1ccc(Oc2ccccc2)cc1

>  <score_type>  (63) 
oracle

>  <origin>  (63) 
adg

>  <m_score__min__energy>  (63) 
-7.1200000000000001

>  <m_primary>  (63) 
energy

$$$$
63:0
     RDKit          3D

 51 55  0  0  0  0  0  0  0  0999 V2000
   56.9129   21.5944   43.3073 H   0  0  0  0  0  0  0  0  0  0  0  0
   56.6400   22.5000   43.8690 C   0  0  0  0  0  0  0  0  0  0  0  0
   55.5350   22.4860   44.7240 C   0  0  0  0  0  0  0  0  0  0  0  0
   54.9439   21.5659   44.8422 H   0  0  0  0  0  0  0  0  0  0  0  0
   55.1790   23.6400   45.4300 C   0  0  0  0  0  0  0  0  0  0  0  0
   54.3175   23.6207   46.1138 H   0  0  0  0  0  0  0  0  0  0  0  0
   55.9200   24.8260   45.2680 C   0  0  0  0  0  0  0  0  0  0  0  0
   55.6130   26.0250   46.0000 N   0  0  0  0  0  0  0  0  0  0  0  0
   56.2890   27.1380   45.9970 C   0  0  0  0  0  0  0  0  0  0  0  0
   55.9060   28.1960   45.2310 N   0  0  0  0  0  0  0  0  0  0  0  0
   56.6360   29.3380   45.2220 C   0  0  0  0  0  0  0  0  0  0  0  0
   56.2480   30.3400   44.4900 N   0  0  0  0  0  0  0  0  0  0  0  0
   57.1430   31.2200   43.7350 C   0  0  0  0  0  0  0  0  0  0  0  0
   56.5833   31.6722   42.9030 H   0  0  0  0  0  0  0  0  0  0  0  0
   57.9835   30.6196   43.3569 H   0  0  0  0  0  0  0  0  0  0  0  0
   57.6960   32.3170   44.6090 C   0  0  0  0  0  0  0  0  0  0  0  0
   58.4350   33.3690   44.0430 C   0  0  0  0  0  0  0  0  0  0  0  0
   58.6019   33.3988   42.9561 H   0  0  0  0  0  0  0  0  0  0  0  0
   58.9590   34.3780   44.8560 C   0  0  0  0  0  0  0  0  0  0  0  0
   59.5438   35.1954   44.4088 H   0  0  0  0  0  0  0  0  0  0  0  0
   58.7410   34.3500   46.2370 C   0  0  0  0  0  0  0  0  0  0  0  0
   59.1561   35.1438   46.8755 H   0  0  0  0  0  0  0  0  0  0  0  0
   57.9960   33.3140   46.8060 C   0  0  0  0  0  0  0  0  0  0  0  0
   57.8220   33.2947   47.8920 H   0  0  0  0  0  0  0  0  0  0  0  0
   57.4710   32.3010   45.9960 C   0  0  0  0  0  0  0  0  0  0  0  0
   56.8803   31.4896   46.4463 H   0  0  0  0  0  0  0  0  0  0  0  0
   57.7640   29.4180   45.9740 N   0  0  0  0  0  0  0  0  0  0  0  0
   58.1620   28.3620   46.7340 C   0  0  0  0  0  0  0  0  0  0  0  0
   59.2510   28.4190   47.4400 N   0  0  0  0  0  0  0  0  0  0  0  0
   59.9700   29.6300   47.7310 C   0  0  0  0  0  0  0  0  0  0  0  0
   61.0670   29.9550   46.9250 C   0  0  0  0  0  0  0  0  0  0  0  0
   61.3696   29.2721   46.1175 H   0  0  0  0  0  0  0  0  0  0  0  0
   61.7810   31.1350   47.1340 C   0  0  0  0  0  0  0  0  0  0  0  0
   62.6369   31.3793   46.4876 H   0  0  0  0  0  0  0  0  0  0  0  0
   61.4140   32.0060   48.1590 C   0  0  0  0  0  0  0  0  0  0  0  0
   61.9708   32.9428   48.3084 H   0  0  0  0  0  0  0  0  0  0  0  0
   60.3370   31.6910   49.0000 C   0  0  0  0  0  0  0  0  0  0  0  0
   59.9770   32.5650   50.0390 C   0  0  0  0  0  0  0  0  0  0  0  0
   60.5312   33.5043   50.1824 H   0  0  0  0  0  0  0  0  0  0  0  0
   58.9180   32.2450   50.8900 C   0  0  0  0  0  0  0  0  0  0  0  0
   58.6338   32.9377   51.6959 H   0  0  0  0  0  0  0  0  0  0  0  0
   58.2190   31.0500   50.7220 C   0  0  0  0  0  0  0  0  0  0  0  0
   57.3931   30.7984   51.4035 H   0  0  0  0  0  0  0  0  0  0  0  0
   58.5630   30.1710   49.6920 C   0  0  0  0  0  0  0  0  0  0  0  0
   58.0131   29.2256   49.5745 H   0  0  0  0  0  0  0  0  0  0  0  0
   59.6100   30.4870   48.8020 C   0  0  0  0  0  0  0  0  0  0  0  0
   57.4220   27.2250   46.7380 N   0  0  0  0  0  0  0  0  0  0  0  0
   57.0460   24.8200   44.4320 C   0  0  0  0  0  0  0  0  0  0  0  0
   57.6558   25.7298   44.3297 H   0  0  0  0  0  0  0  0  0  0  0  0
   57.3980   23.6650   43.7280 C   0  0  0  0  0  0  0  0  0  0  0  0
   58.2733   23.6733   43.0618 H   0  0  0  0  0  0  0  0  0  0  0  0
  1  2  1  0
  2  3  2  0
  3  4  1  0
  3  5  1  0
  5  6  1  0
  5  7  2  0
  7  8  1  0
  8  9  2  3
  9 10  1  0
 10 11  1  0
 11 12  2  0
 12 13  1  0
 13 14  1  0
 13 15  1  0
 13 16  1  0
 16 17  2  0
 17 18  1  0
 17 19  1  0
 19 20  1  0
 19 21  2  0
 21 22  1  0
 21 23  1  0
 23 24  1  0
 23 25  2  0
 25 26  1  0
 11 27  1  0
 27 28  1  0
 28 29  2  0
 29 30  1  0
 30 31  2  0
 31 32  1  0
 31 33  1  0
 33 34  1  0
 33 35  2  0
 35 36  1  0
 35 37  1  0
 37 38  2  0
 38 39  1  0
 38 40  1  0
 40 41  1  0
 40 42  2  0
 42 43  1  0
 42 44  1  0
 44 45  1  0
 44 46  2  0
 28 47  1  0
  7 48  1  0
 48 49  1  0
 48 50  2  0
 50 51  1  0
 50  2  1  0
 47  9  1  0
 25 16  1  0
 46 30  1  0
 46 37  1  0
M  CHG  3  10  -1  27  -1  47  -1
M  END
>  <UniqueID>  (64) 
54

>  <SMILES>  (64) 
c1ccc(C/N=c2/[n-]c(=Nc3ccccc3)[n-]/c(=N/c3cccc4ccccc34)[n-]2)cc1

>  <Energy>  (64) 
72.75561860234153

>  <Genealogy>  (64) 
c1ccc(CN=c2[n-]c(=Nc3ccccc3)[n-]c(=Nc3cccc4ccccc34)[n-]2)cc1 (protonated)
c1ccc(C/N=c2/[n-]c(=Nc3ccccc3)[n-]/c(=N/c3cccc4ccccc34)[n-]2)cc1 (cis-trans isomerization)
c1ccc(C/N=c2/[n-]c(=Nc3ccccc3)[n-]/c(=N/c3cccc4ccccc34)[n-]2)cc1 (3D coordinates assigned)
c1ccc(C/N=c2/[n-]c(=Nc3ccccc3)[n-]/c(=N/c3cccc4ccccc34)[n-]2)cc1 (optimized conformer: 72.75561860234153 kcal/mol)

>  <smiles>  (64) 
c1ccc(CN=c2[nH]c(=Nc3ccccc3)[nH]c(=Nc3cccc4ccccc34)[nH]2)cc1

>  <score_type>  (64) 
oracle

>  <origin>  (64) 
adg

>  <m_score__min__energy>  (64) 
-14.23

>  <m_primary>  (64) 
energy

$$$$
64:0
     RDKit          3D

 40 43  0  0  1  0  0  0  0  0999 V2000
   58.9470   32.3050   50.3170 C   0  0  0  0  0  0  0  0  0  0  0  0
   58.9120   33.1250   49.1610 O   0  0  0  0  0  0  0  0  0  0  0  0
   60.0530   33.2450   48.3650 C   0  0  0  0  0  0  0  0  0  0  0  0
   61.2450   32.6570   48.7250 C   0  0  0  0  0  0  0  0  0  0  0  0
   62.3830   32.7660   47.9500 C   0  0  0  0  0  0  0  0  0  0  0  0
   62.3210   33.4930   46.7640 C   0  0  0  0  0  0  0  0  0  0  0  0
   61.1350   34.1010   46.3660 C   0  0  0  0  0  0  0  0  0  0  0  0
   60.0360   33.9560   47.1850 C   0  0  0  0  0  0  0  0  0  0  0  0
   58.7720   34.6380   46.7090 C   0  0  0  0  0  0  0  0  0  0  0  0
   57.7820   33.6780   46.4040 N   0  0  0  0  0  0  0  0  0  0  0  0
   57.8960   32.7700   45.5330 C   0  0  0  0  0  0  0  0  0  0  0  0
   57.6580   32.9710   44.2230 N   0  0  0  0  0  0  0  0  0  0  0  0
   57.7680   32.0470   43.2870 C   0  0  0  0  0  0  0  0  0  0  0  0
   57.5250   32.3200   42.0850 O   0  0  0  0  0  0  0  0  0  0  0  0
   58.1410   30.7890   43.5890 N   0  0  0  0  0  0  0  0  0  0  0  0
   58.3950   30.5220   44.8880 C   0  0  0  0  0  0  0  0  0  0  0  0
   58.2840   31.4770   45.8850 C   0  0  0  0  0  0  0  0  0  0  0  0
   58.6060   30.8720   47.0430 N   0  0  0  0  0  0  0  0  0  0  0  0
   58.9130   29.5750   46.8090 C   0  0  0  0  0  0  0  0  0  0  0  0
   59.2990   28.5220   47.6280 C   0  0  0  0  0  0  0  0  0  0  0  0
   59.5550   27.2500   47.1020 C   0  0  0  0  0  0  0  0  0  0  0  0
   59.4130   27.0650   45.7390 C   0  0  0  0  0  0  0  0  0  0  0  0
   59.0340   28.0790   44.9020 C   0  0  0  0  0  0  0  0  0  0  0  0
   58.7900   29.3180   45.4630 C   0  0  0  0  0  0  0  0  0  0  0  0
   58.9200   32.9378   51.2164 H   0  0  0  0  0  0  0  0  0  0  0  0
   58.0768   31.6322   50.3158 H   0  0  0  0  0  0  0  0  0  0  0  0
   59.8714   31.7088   50.3158 H   0  0  0  0  0  0  0  0  0  0  0  0
   61.2924   32.0813   49.6611 H   0  0  0  0  0  0  0  0  0  0  0  0
   63.3220   32.2868   48.2642 H   0  0  0  0  0  0  0  0  0  0  0  0
   63.2189   33.5874   46.1356 H   0  0  0  0  0  0  0  0  0  0  0  0
   61.0763   34.6771   45.4308 H   0  0  0  0  0  0  0  0  0  0  0  0
   58.3993   35.3047   47.5006 H   0  0  0  0  0  0  0  0  0  0  0  0
   58.9984   35.2188   45.8027 H   0  0  0  0  0  0  0  0  0  0  0  0
   57.3650   33.9290   43.9510 H   0  0  0  0  0  0  0  0  0  0  0  0
   58.2160   30.0920   42.8290 H   0  0  0  0  0  0  0  0  0  0  0  0
   58.6060   31.3670   47.9700 H   0  0  0  0  0  0  0  0  0  0  0  0
   59.4056   28.6904   48.7098 H   0  0  0  0  0  0  0  0  0  0  0  0
   59.8610   26.4198   47.7556 H   0  0  0  0  0  0  0  0  0  0  0  0
   59.6112   26.0701   45.3137 H   0  0  0  0  0  0  0  0  0  0  0  0
   58.9272   27.9135   43.8198 H   0  0  0  0  0  0  0  0  0  0  0  0
  1  2  1  0
  2  3  1  0
  3  4  2  0
  4  5  1  0
  5  6  2  0
  6  7  1  0
  7  8  2  0
  8  9  1  0
  9 10  1  0
 10 11  2  0
 11 12  1  0
 12 13  1  0
 13 14  2  0
 13 15  1  0
 15 16  1  0
 16 17  2  0
 17 18  1  0
 18 19  1  0
 19 20  2  0
 20 21  1  0
 21 22  2  0
 22 23  1  0
 23 24  2  0
  8  3  1  0
 17 11  1  0
 24 19  1  0
 24 16  1  0
  1 25  1  0
  1 26  1  0
  1 27  1  0
  4 28  1  0
  5 29  1  0
  6 30  1  0
  7 31  1  0
  9 32  1  0
  9 33  1  0
 12 34  1  0
 15 35  1  0
 18 36  1  0
 20 37  1  0
 21 38  1  0
 22 39  1  0
 23 40  1  0
M  END
>  <smiles>  (65) 
COc1ccccc1CN=c1[nH]c(=O)[nH]c2c1[nH]c1ccccc12

>  <score_type>  (65) 
oracle

>  <origin>  (65) 
adg

>  <m_score__min__energy>  (65) 
-7.8799999999999999

>  <m_primary>  (65) 
energy

$$$$
65:0
     RDKit          3D

 45 48  0  0  0  0  0  0  0  0999 V2000
   56.4960   32.0490   45.2370 O   0  0  0  0  0  0  0  0  0  0  0  0
   57.1160   30.7370   44.8460 S   0  0  0  0  0  0  0  0  0  0  0  0
   56.0260   29.7010   44.8150 O   0  0  0  0  0  0  0  0  0  0  0  0
   58.3320   30.2690   46.0440 C   0  0  0  0  0  0  0  0  0  0  0  0
   58.9150   31.1600   46.9450 C   0  0  0  0  0  0  0  0  0  0  0  0
   58.7470   32.5850   46.9610 N   0  0  0  0  0  0  0  0  0  0  0  0
   59.1380   33.3870   45.8020 C   0  0  0  0  0  0  0  0  0  0  0  0
   60.3010   34.3000   46.2020 C   0  0  0  0  0  0  0  0  0  0  0  0
   59.9720   35.0650   47.3490 O   0  0  0  0  0  0  0  0  0  0  0  0
   59.7640   34.2120   48.4620 C   0  0  0  0  0  0  0  0  0  0  0  0
   58.5600   33.2970   48.2260 C   0  0  0  0  0  0  0  0  0  0  0  0
   59.9120   30.3140   48.0020 S   0  0  0  0  0  0  0  0  0  0  0  0
   59.6430   28.7980   47.3250 C   0  0  0  0  0  0  0  0  0  0  0  0
   60.2470   27.5180   47.8270 C   0  0  0  0  0  0  0  0  0  0  0  0
   59.2430   26.6710   48.2550 F   0  0  0  0  0  0  0  0  0  0  0  0
   60.9650   26.9050   46.8170 F   0  0  0  0  0  0  0  0  0  0  0  0
   61.1000   27.7740   48.8860 F   0  0  0  0  0  0  0  0  0  0  0  0
   58.7450   28.9360   46.2590 C   0  0  0  0  0  0  0  0  0  0  0  0
   58.2900   27.8000   45.4390 C   0  0  0  0  0  0  0  0  0  0  0  0
   58.5500   27.7720   44.0620 C   0  0  0  0  0  0  0  0  0  0  0  0
   58.1250   26.6860   43.2900 C   0  0  0  0  0  0  0  0  0  0  0  0
   57.4390   25.6260   43.8890 C   0  0  0  0  0  0  0  0  0  0  0  0
   57.0290   24.5720   43.1400 F   0  0  0  0  0  0  0  0  0  0  0  0
   57.1740   25.6530   45.2620 C   0  0  0  0  0  0  0  0  0  0  0  0
   57.5960   26.7370   46.0350 C   0  0  0  0  0  0  0  0  0  0  0  0
   57.8970   30.9090   43.2410 C   0  0  0  0  0  0  0  0  0  0  0  0
   57.0250   31.4630   42.1250 C   0  0  0  0  0  0  0  0  0  0  0  0
   58.0590   32.3530   42.7940 C   0  0  0  0  0  0  0  0  0  0  0  0
   59.4536   32.7237   44.9832 H   0  0  0  0  0  0  0  0  0  0  0  0
   58.2857   33.9946   45.4637 H   0  0  0  0  0  0  0  0  0  0  0  0
   61.1844   33.6826   46.4221 H   0  0  0  0  0  0  0  0  0  0  0  0
   60.5106   34.9875   45.3693 H   0  0  0  0  0  0  0  0  0  0  0  0
   60.6614   33.5950   48.6165 H   0  0  0  0  0  0  0  0  0  0  0  0
   59.5685   34.8312   49.3499 H   0  0  0  0  0  0  0  0  0  0  0  0
   58.4800   32.5721   49.0495 H   0  0  0  0  0  0  0  0  0  0  0  0
   57.6387   33.8965   48.1838 H   0  0  0  0  0  0  0  0  0  0  0  0
   59.0891   28.6054   43.5878 H   0  0  0  0  0  0  0  0  0  0  0  0
   58.3310   26.6662   42.2096 H   0  0  0  0  0  0  0  0  0  0  0  0
   56.6326   24.8196   45.7336 H   0  0  0  0  0  0  0  0  0  0  0  0
   57.3835   26.7570   47.1141 H   0  0  0  0  0  0  0  0  0  0  0  0
   58.5492   30.0285   43.3370 H   0  0  0  0  0  0  0  0  0  0  0  0
   57.1773   31.1257   41.0891 H   0  0  0  0  0  0  0  0  0  0  0  0
   55.9420   31.5292   41.9442 H   0  0  0  0  0  0  0  0  0  0  0  0
   58.9597   32.6601   42.2423 H   0  0  0  0  0  0  0  0  0  0  0  0
   58.0343   33.3304   43.2980 H   0  0  0  0  0  0  0  0  0  0  0  0
  1  2  2  0
  2  3  2  0
  2  4  1  0
  4  5  2  0
  5  6  1  0
  6  7  1  0
  7  8  1  0
  8  9  1  0
  9 10  1  0
 10 11  1  0
  5 12  1  0
 12 13  1  0
 13 14  1  0
 14 15  1  0
 14 16  1  0
 14 17  1  0
 13 18  2  0
 18 19  1  0
 19 20  2  0
 20 21  1  0
 21 22  2  0
 22 23  1  0
 22 24  1  0
 24 25  2  0
  2 26  1  0
 26 27  1  0
 27 28  1  0
 18  4  1  0
 25 19  1  0
 28 26  1  0
 11  6  1  0
  7 29  1  0
  7 30  1  0
  8 31  1  0
  8 32  1  0
 10 33  1  0
 10 34  1  0
 11 35  1  0
 11 36  1  0
 20 37  1  0
 21 38  1  0
 24 39  1  0
 25 40  1  0
 26 41  1  0
 27 42  1  0
 27 43  1  0
 28 44  1  0
 28 45  1  0
M  END
>  <UniqueID>  (66) 
55

>  <SMILES>  (66) 
O=S(=O)(c1c(N2CCOCC2)sc(C(F)(F)F)c1-c1ccc(F)cc1)C1CC1

>  <Energy>  (66) 
348.3474789851151

>  <Genealogy>  (66) 
O=S(=O)(c1c(N2CCOCC2)sc(C(F)(F)F)c1-c1ccc(F)cc1)C1CC1 (3D coordinates assigned)
O=S(=O)(c1c(N2CCOCC2)sc(C(F)(F)F)c1-c1ccc(F)cc1)C1CC1 (nonaromatic ring conformer: 348.3474789851151 kcal/mol)

>  <smiles>  (66) 
O=S(=O)(c1c(N2CCOCC2)sc(C(F)(F)F)c1-c1ccc(F)cc1)C1CC1

>  <score_type>  (66) 
oracle

>  <origin>  (66) 
adg

>  <m_score__min__energy>  (66) 
-8.0899999999999999

>  <m_primary>  (66) 
energy

$$$$
66:0
     RDKit          3D

 43 45  0  0  0  0  0  0  0  0999 V2000
   55.7160   30.0840   43.5930 C   0  0  0  0  0  0  0  0  0  0  0  0
   56.3160   30.0400   44.8840 O   0  0  0  0  0  0  0  0  0  0  0  0
   57.5950   29.5240   45.1460 C   0  0  0  0  0  0  0  0  0  0  0  0
   58.3320   28.8120   44.1830 C   0  0  0  0  0  0  0  0  0  0  0  0
   59.6010   28.3180   44.4970 C   0  0  0  0  0  0  0  0  0  0  0  0
   60.1460   28.5300   45.7650 C   0  0  0  0  0  0  0  0  0  0  0  0
   59.4180   29.2400   46.7380 C   0  0  0  0  0  0  0  0  0  0  0  0
   59.9160   29.4830   48.0290 O   0  0  0  0  0  0  0  0  0  0  0  0
   60.2760   30.7650   48.5470 C   0  0  0  0  0  0  0  0  0  0  0  0
   59.0990   31.4510   49.1910 C   0  0  0  0  0  0  0  0  0  0  0  0
   58.3310   30.7980   49.9460 O   0  0  0  0  0  0  0  0  0  0  0  0
   58.7520   32.8020   48.8610 N   0  0  0  0  0  0  0  0  0  0  0  0
   58.6340   33.3330   47.5340 C   0  0  0  0  0  0  0  0  0  0  0  0
   57.3840   33.3600   46.8950 C   0  0  0  0  0  0  0  0  0  0  0  0
   57.2720   33.7970   45.5740 C   0  0  0  0  0  0  0  0  0  0  0  0
   58.4110   34.1890   44.8700 C   0  0  0  0  0  0  0  0  0  0  0  0
   59.6650   34.1410   45.4840 C   0  0  0  0  0  0  0  0  0  0  0  0
   59.7930   33.7120   46.8170 C   0  0  0  0  0  0  0  0  0  0  0  0
   61.1350   33.6840   47.4470 C   0  0  0  0  0  0  0  0  0  0  0  0
   62.2290   33.1080   46.7750 C   0  0  0  0  0  0  0  0  0  0  0  0
   63.4900   33.0770   47.3780 C   0  0  0  0  0  0  0  0  0  0  0  0
   63.6680   33.6120   48.6570 C   0  0  0  0  0  0  0  0  0  0  0  0
   62.5860   34.1760   49.3360 C   0  0  0  0  0  0  0  0  0  0  0  0
   61.3230   34.2110   48.7370 C   0  0  0  0  0  0  0  0  0  0  0  0
   58.1470   29.7320   46.4160 C   0  0  0  0  0  0  0  0  0  0  0  0
   54.6240   30.1641   43.6987 H   0  0  0  0  0  0  0  0  0  0  0  0
   56.0960   30.9567   43.0416 H   0  0  0  0  0  0  0  0  0  0  0  0
   55.9646   29.1652   43.0416 H   0  0  0  0  0  0  0  0  0  0  0  0
   57.9092   28.6437   43.1815 H   0  0  0  0  0  0  0  0  0  0  0  0
   60.1733   27.7595   43.7416 H   0  0  0  0  0  0  0  0  0  0  0  0
   61.1468   28.1411   46.0040 H   0  0  0  0  0  0  0  0  0  0  0  0
   61.0698   30.6371   49.2977 H   0  0  0  0  0  0  0  0  0  0  0  0
   60.6244   31.3895   47.7111 H   0  0  0  0  0  0  0  0  0  0  0  0
   56.4857   33.0341   47.4398 H   0  0  0  0  0  0  0  0  0  0  0  0
   56.2858   33.8323   45.0881 H   0  0  0  0  0  0  0  0  0  0  0  0
   58.3215   34.5363   43.8301 H   0  0  0  0  0  0  0  0  0  0  0  0
   60.5601   34.4415   44.9197 H   0  0  0  0  0  0  0  0  0  0  0  0
   62.0915   32.6803   45.7709 H   0  0  0  0  0  0  0  0  0  0  0  0
   64.3429   32.6311   46.8453 H   0  0  0  0  0  0  0  0  0  0  0  0
   64.6613   33.5887   49.1291 H   0  0  0  0  0  0  0  0  0  0  0  0
   62.7275   34.5935   50.3438 H   0  0  0  0  0  0  0  0  0  0  0  0
   60.4728   34.6527   49.2773 H   0  0  0  0  0  0  0  0  0  0  0  0
   57.5741   30.2898   47.1715 H   0  0  0  0  0  0  0  0  0  0  0  0
  1  2  1  0
  2  3  1  0
  3  4  2  0
  4  5  1  0
  5  6  2  0
  6  7  1  0
  7  8  1  0
  8  9  1  0
  9 10  1  0
 10 11  2  0
 10 12  1  0
 12 13  1  0
 13 14  2  0
 14 15  1  0
 15 16  2  0
 16 17  1  0
 17 18  2  0
 18 19  1  0
 19 20  2  0
 20 21  1  0
 21 22  2  0
 22 23  1  0
 23 24  2  0
  7 25  2  0
 25  3  1  0
 18 13  1  0
 24 19  1  0
  1 26  1  0
  1 27  1  0
  1 28  1  0
  4 29  1  0
  5 30  1  0
  6 31  1  0
  9 32  1  0
  9 33  1  0
 14 34  1  0
 15 35  1  0
 16 36  1  0
 17 37  1  0
 20 38  1  0
 21 39  1  0
 22 40  1  0
 23 41  1  0
 24 42  1  0
 25 43  1  0
M  CHG  1  12  -1
M  END
>  <UniqueID>  (67) 
56

>  <SMILES>  (67) 
COc1cccc(OCC(=O)[N-]c2ccccc2-c2ccccc2)c1

>  <Energy>  (67) 
57.27706444033685

>  <Genealogy>  (67) 
COc1cccc(OCC(=O)[N-]c2ccccc2-c2ccccc2)c1 (protonated)
COc1cccc(OCC(=O)[N-]c2ccccc2-c2ccccc2)c1 (3D coordinates assigned)
COc1cccc(OCC(=O)[N-]c2ccccc2-c2ccccc2)c1 (optimized conformer: 57.27706444033685 kcal/mol)

>  <smiles>  (67) 
COc1cccc(OCC(=O)Nc2ccccc2-c2ccccc2)c1

>  <score_type>  (67) 
oracle

>  <origin>  (67) 
adg

>  <m_score__min__energy>  (67) 
-9.5399999999999991

>  <m_primary>  (67) 
energy

$$$$
67:0
     RDKit          3D

 26 27  0  0  0  0  0  0  0  0999 V2000
   57.7500   32.3700   41.0430 C   0  0  0  0  0  0  0  0  0  0  0  0
   57.0480   31.9320   42.2000 O   0  0  0  0  0  0  0  0  0  0  0  0
   57.5450   32.0950   43.4980 C   0  0  0  0  0  0  0  0  0  0  0  0
   58.2240   33.2300   43.8230 N   0  0  0  0  0  0  0  0  0  0  0  0
   58.7180   33.4520   45.0670 C   0  0  0  0  0  0  0  0  0  0  0  0
   59.4090   34.6360   45.3480 C   0  0  0  0  0  0  0  0  0  0  0  0
   59.9170   34.8620   46.6320 C   0  0  0  0  0  0  0  0  0  0  0  0
   59.7370   33.9050   47.6380 C   0  0  0  0  0  0  0  0  0  0  0  0
   60.4350   34.2190   49.3880 Br  0  0  0  0  0  0  0  0  0  0  0  0
   59.0470   32.7190   47.3630 C   0  0  0  0  0  0  0  0  0  0  0  0
   58.5340   32.4880   46.0770 C   0  0  0  0  0  0  0  0  0  0  0  0
   57.8410   31.3110   45.7710 C   0  0  0  0  0  0  0  0  0  0  0  0
   57.3350   31.0930   44.4750 C   0  0  0  0  0  0  0  0  0  0  0  0
   56.6040   29.8340   44.1520 C   0  0  0  0  0  0  0  0  0  0  0  0
   57.0070   28.9630   42.9990 C   0  0  0  0  0  0  0  0  0  0  0  0
   55.6030   29.4900   44.8350 O   0  0  0  0  0  0  0  0  0  0  0  0
   58.6466   32.9294   41.3480 H   0  0  0  0  0  0  0  0  0  0  0  0
   58.0485   31.4976   40.4431 H   0  0  0  0  0  0  0  0  0  0  0  0
   57.0977   33.0216   40.4431 H   0  0  0  0  0  0  0  0  0  0  0  0
   59.5528   35.3892   44.5593 H   0  0  0  0  0  0  0  0  0  0  0  0
   60.4590   35.7937   46.8516 H   0  0  0  0  0  0  0  0  0  0  0  0
   58.9067   31.9680   48.1544 H   0  0  0  0  0  0  0  0  0  0  0  0
   57.6902   30.5492   46.5501 H   0  0  0  0  0  0  0  0  0  0  0  0
   57.4402   28.0267   43.3807 H   0  0  0  0  0  0  0  0  0  0  0  0
   56.1230   28.7347   42.3854 H   0  0  0  0  0  0  0  0  0  0  0  0
   57.7533   29.4890   42.3854 H   0  0  0  0  0  0  0  0  0  0  0  0
  1  2  1  0
  2  3  1  0
  3  4  2  0
  4  5  1  0
  5  6  2  0
  6  7  1  0
  7  8  2  0
  8  9  1  0
  8 10  1  0
 10 11  2  0
 11 12  1  0
 12 13  2  0
 13 14  1  0
 14 15  1  0
 14 16  2  0
 13  3  1  0
 11  5  1  0
  1 17  1  0
  1 18  1  0
  1 19  1  0
  6 20  1  0
  7 21  1  0
 10 22  1  0
 12 23  1  0
 15 24  1  0
 15 25  1  0
 15 26  1  0
M  END
>  <UniqueID>  (68) 
57

>  <SMILES>  (68) 
COc1nc2ccc(Br)cc2cc1C(C)=O

>  <Energy>  (68) 
29.212252963341093

>  <Genealogy>  (68) 
COc1nc2ccc(Br)cc2cc1C(C)=O (3D coordinates assigned)
COc1nc2ccc(Br)cc2cc1C(C)=O (optimized conformer: 29.212252963341093 kcal/mol)

>  <smiles>  (68) 
COc1nc2ccc(Br)cc2cc1C(C)=O

>  <score_type>  (68) 
oracle

>  <origin>  (68) 
adg

>  <m_score__min__energy>  (68) 
-6.9000000000000004

>  <m_primary>  (68) 
energy

$$$$
68:0
     RDKit          3D

 36 38  0  0  0  0  0  0  0  0999 V2000
   60.4300   29.2080   48.5850 C   0  0  0  0  0  0  0  0  0  0  0  0
   59.8050   27.8160   48.5880 C   0  0  0  0  0  0  0  0  0  0  0  0
   60.8430   26.7450   48.2600 C   0  0  0  0  0  0  0  0  0  0  0  0
   61.0870   26.6530   46.4550 S   0  0  0  0  0  0  0  0  0  0  0  0
   59.4020   27.1810   46.0860 C   0  0  0  0  0  0  0  0  0  0  0  0
   59.2110   28.4320   45.5910 N   0  0  0  0  0  0  0  0  0  0  0  0
   57.9950   28.9050   45.2910 N   0  0  0  0  0  0  0  0  0  0  0  0
   57.8850   30.2470   44.7740 C   0  0  0  0  0  0  0  0  0  0  0  0
   57.4980   30.4720   43.4400 C   0  0  0  0  0  0  0  0  0  0  0  0
   57.4100   31.7750   42.9430 C   0  0  0  0  0  0  0  0  0  0  0  0
   57.7140   32.8620   43.7680 C   0  0  0  0  0  0  0  0  0  0  0  0
   58.1080   32.6460   45.0920 C   0  0  0  0  0  0  0  0  0  0  0  0
   58.1970   31.3440   45.5930 C   0  0  0  0  0  0  0  0  0  0  0  0
   56.8760   28.1380   45.4870 C   0  0  0  0  0  0  0  0  0  0  0  0
   55.7340   28.6150   45.2350 O   0  0  0  0  0  0  0  0  0  0  0  0
   57.0050   26.8250   45.9880 C   0  0  0  0  0  0  0  0  0  0  0  0
   55.8990   25.9700   46.2060 C   0  0  0  0  0  0  0  0  0  0  0  0
   54.7200   26.3400   45.9550 O   0  0  0  0  0  0  0  0  0  0  0  0
   56.1030   24.7210   46.6950 N   0  0  0  0  0  0  0  0  0  0  0  0
   57.3230   24.2690   46.9800 N   0  0  0  0  0  0  0  0  0  0  0  0
   58.4260   25.0360   46.7950 C   0  0  0  0  0  0  0  0  0  0  0  0
   58.2940   26.3410   46.2930 C   0  0  0  0  0  0  0  0  0  0  0  0
   60.5810   29.5444   49.6214 H   0  0  0  0  0  0  0  0  0  0  0  0
   61.3991   29.1737   48.0657 H   0  0  0  0  0  0  0  0  0  0  0  0
   59.7604   29.9094   48.0657 H   0  0  0  0  0  0  0  0  0  0  0  0
   59.3831   27.6141   49.5836 H   0  0  0  0  0  0  0  0  0  0  0  0
   59.0178   27.7855   47.8203 H   0  0  0  0  0  0  0  0  0  0  0  0
   61.7968   27.0003   48.7448 H   0  0  0  0  0  0  0  0  0  0  0  0
   60.4887   25.7710   48.6286 H   0  0  0  0  0  0  0  0  0  0  0  0
   60.0530   29.0310   45.4330 H   0  0  0  0  0  0  0  0  0  0  0  0
   57.2639   29.6191   42.7860 H   0  0  0  0  0  0  0  0  0  0  0  0
   57.1011   31.9457   41.9012 H   0  0  0  0  0  0  0  0  0  0  0  0
   57.6432   33.8871   43.3755 H   0  0  0  0  0  0  0  0  0  0  0  0
   58.3482   33.5016   45.7402 H   0  0  0  0  0  0  0  0  0  0  0  0
   58.5129   31.1781   46.6335 H   0  0  0  0  0  0  0  0  0  0  0  0
   59.4219   24.6369   47.0376 H   0  0  0  0  0  0  0  0  0  0  0  0
  1  2  1  0
  2  3  1  0
  3  4  1  0
  4  5  1  0
  5  6  2  0
  6  7  1  0
  7  8  1  0
  8  9  2  0
  9 10  1  0
 10 11  2  0
 11 12  1  0
 12 13  2  0
  7 14  1  0
 14 15  2  0
 14 16  1  0
 16 17  1  0
 17 18  2  0
 17 19  1  0
 19 20  1  0
 20 21  2  0
 21 22  1  0
 22  5  1  0
 13  8  1  0
 22 16  2  0
  1 23  1  0
  1 24  1  0
  1 25  1  0
  2 26  1  0
  2 27  1  0
  3 28  1  0
  3 29  1  0
  6 30  1  0
  9 31  1  0
 10 32  1  0
 11 33  1  0
 12 34  1  0
 13 35  1  0
 21 36  1  0
M  CHG  2   6   1  19  -1
M  END
>  <UniqueID>  (69) 
58

>  <SMILES>  (69) 
CCCSc1[nH+]n(-c2ccccc2)c(=O)c2c(=O)[n-]ncc12

>  <Energy>  (69) 
47.034991371037535

>  <Genealogy>  (69) 
CCCSc1[nH+]n(-c2ccccc2)c(=O)c2c(=O)[n-]ncc12 (protonated)
CCCSc1[nH+]n(-c2ccccc2)c(=O)c2c(=O)[n-]ncc12 (3D coordinates assigned)
CCCSc1[nH+]n(-c2ccccc2)c(=O)c2c(=O)[n-]ncc12 (optimized conformer: 47.034991371037535 kcal/mol)

>  <smiles>  (69) 
CCCSc1nn(-c2ccccc2)c(=O)c2c(=O)[nH]ncc12

>  <score_type>  (69) 
oracle

>  <origin>  (69) 
adg

>  <m_score__min__energy>  (69) 
-7.6600000000000001

>  <m_primary>  (69) 
energy

$$$$
69:0
     RDKit          3D

 44 45  0  0  0  0  0  0  0  0999 V2000
   62.7040   33.8960   48.5750 C   0  0  0  0  0  0  0  0  0  0  0  0
   61.4420   34.5530   48.5310 O   0  0  0  0  0  0  0  0  0  0  0  0
   60.3470   34.1170   47.7700 C   0  0  0  0  0  0  0  0  0  0  0  0
   59.1900   33.5700   48.3580 C   0  0  0  0  0  0  0  0  0  0  0  0
   58.1250   33.1480   47.5560 C   0  0  0  0  0  0  0  0  0  0  0  0
   58.2000   33.2600   46.1590 C   0  0  0  0  0  0  0  0  0  0  0  0
   57.0600   32.7990   45.2880 C   0  0  0  0  0  0  0  0  0  0  0  0
   57.0310   31.3240   45.1680 N   0  0  0  0  0  0  0  0  0  0  0  0
   56.6880   30.8430   43.8020 C   0  0  0  0  0  0  0  0  0  0  0  0
   55.6160   29.7340   43.7250 C   0  0  0  0  0  0  0  0  0  0  0  0
   55.1500   29.3810   44.9990 O   0  0  0  0  0  0  0  0  0  0  0  0
   58.2480   30.7200   45.7590 C   0  0  0  0  0  0  0  0  0  0  0  0
   58.9440   29.7130   44.8170 C   0  0  0  0  0  0  0  0  0  0  0  0
   58.4210   28.3030   44.9660 C   0  0  0  0  0  0  0  0  0  0  0  0
   58.2950   27.4640   43.8450 C   0  0  0  0  0  0  0  0  0  0  0  0
   57.8010   26.1630   43.9880 C   0  0  0  0  0  0  0  0  0  0  0  0
   57.4120   25.6960   45.2450 C   0  0  0  0  0  0  0  0  0  0  0  0
   57.5060   26.5320   46.3610 C   0  0  0  0  0  0  0  0  0  0  0  0
   58.0000   27.8320   46.2230 C   0  0  0  0  0  0  0  0  0  0  0  0
   59.3510   33.8110   45.5760 C   0  0  0  0  0  0  0  0  0  0  0  0
   60.4160   34.2330   46.3780 C   0  0  0  0  0  0  0  0  0  0  0  0
   63.0006   33.7416   49.6229 H   0  0  0  0  0  0  0  0  0  0  0  0
   62.6286   32.9227   48.0680 H   0  0  0  0  0  0  0  0  0  0  0  0
   63.4580   34.5160   48.0680 H   0  0  0  0  0  0  0  0  0  0  0  0
   59.1239   33.4744   49.4518 H   0  0  0  0  0  0  0  0  0  0  0  0
   57.2230   32.7257   48.0229 H   0  0  0  0  0  0  0  0  0  0  0  0
   56.1121   33.1404   45.7296 H   0  0  0  0  0  0  0  0  0  0  0  0
   57.1996   33.2243   44.2832 H   0  0  0  0  0  0  0  0  0  0  0  0
   56.3234   31.7045   43.2233 H   0  0  0  0  0  0  0  0  0  0  0  0
   57.6100   30.3928   43.4055 H   0  0  0  0  0  0  0  0  0  0  0  0
   54.7699   30.0959   43.1225 H   0  0  0  0  0  0  0  0  0  0  0  0
   56.0717   28.8446   43.2654 H   0  0  0  0  0  0  0  0  0  0  0  0
   55.4690   30.0830   45.6240 H   0  0  0  0  0  0  0  0  0  0  0  0
   58.9584   31.5255   45.9967 H   0  0  0  0  0  0  0  0  0  0  0  0
   57.9363   30.1670   46.6573 H   0  0  0  0  0  0  0  0  0  0  0  0
   58.7846   30.0376   43.7781 H   0  0  0  0  0  0  0  0  0  0  0  0
   60.0109   29.6971   45.0844 H   0  0  0  0  0  0  0  0  0  0  0  0
   58.5863   27.8324   42.8503 H   0  0  0  0  0  0  0  0  0  0  0  0
   57.7189   25.5070   43.1088 H   0  0  0  0  0  0  0  0  0  0  0  0
   57.0315   24.6700   45.3569 H   0  0  0  0  0  0  0  0  0  0  0  0
   57.1907   26.1663   47.3494 H   0  0  0  0  0  0  0  0  0  0  0  0
   58.0600   28.4906   47.1020 H   0  0  0  0  0  0  0  0  0  0  0  0
   59.4160   33.9116   44.4825 H   0  0  0  0  0  0  0  0  0  0  0  0
   61.3155   34.6597   45.9101 H   0  0  0  0  0  0  0  0  0  0  0  0
  1  2  1  0
  2  3  1  0
  3  4  2  0
  4  5  1  0
  5  6  2  0
  6  7  1  0
  7  8  1  0
  8  9  1  0
  9 10  1  0
 10 11  1  0
  8 12  1  0
 12 13  1  0
 13 14  1  0
 14 15  2  0
 15 16  1  0
 16 17  2  0
 17 18  1  0
 18 19  2  0
  6 20  1  0
 20 21  2  0
 21  3  1  0
 19 14  1  0
  1 22  1  0
  1 23  1  0
  1 24  1  0
  4 25  1  0
  5 26  1  0
  7 27  1  0
  7 28  1  0
  9 29  1  0
  9 30  1  0
 10 31  1  0
 10 32  1  0
 11 33  1  0
 12 34  1  0
 12 35  1  0
 13 36  1  0
 13 37  1  0
 15 38  1  0
 16 39  1  0
 17 40  1  0
 18 41  1  0
 19 42  1  0
 20 43  1  0
 21 44  1  0
M  END
>  <UniqueID>  (70) 
59

>  <SMILES>  (70) 
COc1ccc(CN(CCO)CCc2ccccc2)cc1

>  <Energy>  (70) 
49.27309309634857

>  <Genealogy>  (70) 
COc1ccc(CN(CCO)CCc2ccccc2)cc1 (3D coordinates assigned)
COc1ccc(CN(CCO)CCc2ccccc2)cc1 (optimized conformer: 49.27309309634857 kcal/mol)

>  <smiles>  (70) 
COc1ccc(CN(CCO)CCc2ccccc2)cc1

>  <score_type>  (70) 
oracle

>  <origin>  (70) 
adg

>  <m_score__min__energy>  (70) 
-7.5700000000000003

>  <m_primary>  (70) 
energy

$$$$
70:0
     RDKit          3D

 36 37  0  0  0  0  0  0  0  0999 V2000
   58.0566   20.8060   46.2577 H   0  0  0  0  0  0  0  0  0  0  0  0
   57.8050   21.8410   45.9830 C   0  0  0  0  0  0  0  0  0  0  0  0
   57.4010   22.7610   46.8980 N   0  0  0  0  0  0  0  0  0  0  0  0
   57.1430   23.9550   46.3180 C   0  0  0  0  0  0  0  0  0  0  0  0
   56.7800   25.0200   46.9640 N   0  0  0  0  0  0  0  0  0  0  0  0
   56.3240   26.2460   46.3720 C   0  0  0  0  0  0  0  0  0  0  0  0
   55.1230   26.3830   46.0100 O   0  0  0  0  0  0  0  0  0  0  0  0
   57.2930   27.3930   46.2300 C   0  0  2  0  0  0  0  0  0  0  0  0
   57.0898   28.0804   47.0644 H   0  0  0  0  0  0  0  0  0  0  0  0
   57.0810   28.0860   44.9570 N   0  0  0  0  0  0  0  0  0  0  0  0
   56.4240   29.3520   44.7930 C   0  0  0  0  0  0  0  0  0  0  0  0
   55.1670   29.3960   44.8400 O   0  0  0  0  0  0  0  0  0  0  0  0
   57.1790   30.6100   44.6330 C   0  0  0  0  0  0  0  0  0  0  0  0
   57.2140   31.2480   43.3840 C   0  0  0  0  0  0  0  0  0  0  0  0
   56.7184   30.7850   42.5180 H   0  0  0  0  0  0  0  0  0  0  0  0
   57.8770   32.4710   43.2360 C   0  0  0  0  0  0  0  0  0  0  0  0
   57.8906   32.9740   42.2578 H   0  0  0  0  0  0  0  0  0  0  0  0
   58.5220   33.0540   44.3300 C   0  0  0  0  0  0  0  0  0  0  0  0
   59.1570   34.2420   44.1890 F   0  0  0  0  0  0  0  0  0  0  0  0
   58.5120   32.4110   45.5720 C   0  0  0  0  0  0  0  0  0  0  0  0
   59.0275   32.8660   46.4306 H   0  0  0  0  0  0  0  0  0  0  0  0
   57.8470   31.1900   45.7230 C   0  0  0  0  0  0  0  0  0  0  0  0
   57.8474   30.6825   46.6989 H   0  0  0  0  0  0  0  0  0  0  0  0
   58.7750   26.9550   46.3590 C   0  0  0  0  0  0  0  0  0  0  0  0
   58.7818   25.8728   46.1622 H   0  0  0  0  0  0  0  0  0  0  0  0
   59.6620   27.6520   45.3180 C   0  0  0  0  0  0  0  0  0  0  0  0
   60.4269   28.2530   45.8315 H   0  0  0  0  0  0  0  0  0  0  0  0
   60.1523   26.8950   44.6883 H   0  0  0  0  0  0  0  0  0  0  0  0
   59.0424   28.3074   44.6883 H   0  0  0  0  0  0  0  0  0  0  0  0
   59.3480   27.1550   47.7730 C   0  0  0  0  0  0  0  0  0  0  0  0
   58.5848   26.8886   48.5190 H   0  0  0  0  0  0  0  0  0  0  0  0
   60.2304   26.5117   47.9054 H   0  0  0  0  0  0  0  0  0  0  0  0
   59.6385   28.2077   47.9054 H   0  0  0  0  0  0  0  0  0  0  0  0
   57.4150   23.9230   44.6630 S   0  0  0  0  0  0  0  0  0  0  0  0
   57.8770   22.3050   44.6720 C   0  0  0  0  0  0  0  0  0  0  0  0
   58.1828   21.7161   43.7947 H   0  0  0  0  0  0  0  0  0  0  0  0
  1  2  1  0
  2  3  1  0
  3  4  1  0
  4  5  2  0
  5  6  1  0
  6  7  2  0
  6  8  1  0
  8  9  1  1
  8 10  1  0
 10 11  1  0
 11 12  2  0
 11 13  1  0
 13 14  2  0
 14 15  1  0
 14 16  1  0
 16 17  1  0
 16 18  2  0
 18 19  1  0
 18 20  1  0
 20 21  1  0
 20 22  2  0
 22 23  1  0
  8 24  1  0
 24 25  1  0
 24 26  1  0
 26 27  1  0
 26 28  1  0
 26 29  1  0
 24 30  1  0
 30 31  1  0
 30 32  1  0
 30 33  1  0
  4 34  1  0
 34 35  1  0
 35 36  1  0
 35  2  2  0
 22 13  1  0
M  CHG  2   3  -1  10  -1
M  END
>  <UniqueID>  (71) 
60

>  <SMILES>  (71) 
CC(C)[C@@H]([N-]C(=O)c1ccc(F)cc1)C(=O)/N=c1\[n-]ccs1

>  <Energy>  (71) 
66.1795534472872

>  <Genealogy>  (71) 
CC(C)C([N-]C(=O)c1ccc(F)cc1)C(=O)N=c1[n-]ccs1 (protonated)
CC(C)[C@@H]([N-]C(=O)c1ccc(F)cc1)C(=O)N=c1[n-]ccs1 (chirality)
CC(C)[C@@H]([N-]C(=O)c1ccc(F)cc1)C(=O)/N=c1\[n-]ccs1 (cis-trans isomerization)
CC(C)[C@@H]([N-]C(=O)c1ccc(F)cc1)C(=O)/N=c1\[n-]ccs1 (3D coordinates assigned)
CC(C)[C@@H]([N-]C(=O)c1ccc(F)cc1)C(=O)/N=c1\[n-]ccs1 (optimized conformer: 66.1795534472872 kcal/mol)

>  <smiles>  (71) 
CC(C)C(NC(=O)c1ccc(F)cc1)C(=O)N=c1[nH]ccs1

>  <score_type>  (71) 
oracle

>  <origin>  (71) 
adg

>  <m_score__min__energy>  (71) 
-10.949999999999999

>  <m_primary>  (71) 
energy

$$$$
71:0
     RDKit          3D

 49 51  0  0  0  0  0  0  0  0999 V2000
   61.4880   33.4630   51.1300 C   0  0  0  0  0  0  0  0  0  0  0  0
   60.0620   32.9860   51.0940 C   0  0  0  0  0  0  0  0  0  0  0  0
   59.2110   33.2670   52.1760 C   0  0  0  0  0  0  0  0  0  0  0  0
   57.9000   32.7820   52.1920 C   0  0  0  0  0  0  0  0  0  0  0  0
   57.4310   31.9990   51.1360 C   0  0  0  0  0  0  0  0  0  0  0  0
   58.2710   31.6990   50.0610 C   0  0  0  0  0  0  0  0  0  0  0  0
   59.5840   32.1890   50.0310 C   0  0  0  0  0  0  0  0  0  0  0  0
   60.4340   31.8510   48.9270 N   0  0  0  0  0  0  0  0  0  0  0  0
   61.0870   30.5420   48.8860 C   0  0  0  0  0  0  0  0  0  0  0  0
   60.5670   29.7330   47.7380 C   0  0  0  0  0  0  0  0  0  0  0  0
   59.7880   28.7670   47.9630 O   0  0  0  0  0  0  0  0  0  0  0  0
   60.9830   30.0330   46.4000 N   0  0  0  0  0  0  0  0  0  0  0  0
   60.4540   29.3290   45.2350 C   0  0  0  0  0  0  0  0  0  0  0  0
   58.9920   29.6360   45.0740 C   0  0  0  0  0  0  0  0  0  0  0  0
   58.5740   30.8550   44.5210 C   0  0  0  0  0  0  0  0  0  0  0  0
   57.2090   31.1010   44.3490 C   0  0  0  0  0  0  0  0  0  0  0  0
   56.2960   30.1590   44.7100 N   0  0  0  0  0  0  0  0  0  0  0  0
   56.6750   28.9650   45.2390 C   0  0  0  0  0  0  0  0  0  0  0  0
   58.0290   28.6790   45.4250 C   0  0  0  0  0  0  0  0  0  0  0  0
   60.8400   33.0890   47.7780 S   0  0  0  0  0  0  0  0  0  0  0  0
   61.9780   32.6160   46.9180 O   0  0  0  0  0  0  0  0  0  0  0  0
   61.2710   34.3320   48.5050 O   0  0  0  0  0  0  0  0  0  0  0  0
   59.4400   33.4840   46.7860 C   0  0  0  0  0  0  0  0  0  0  0  0
   59.6120   34.2040   45.5960 C   0  0  0  0  0  0  0  0  0  0  0  0
   58.5030   34.5570   44.8210 C   0  0  0  0  0  0  0  0  0  0  0  0
   57.2170   34.1950   45.2330 C   0  0  0  0  0  0  0  0  0  0  0  0
   57.0420   33.4780   46.4200 C   0  0  0  0  0  0  0  0  0  0  0  0
   58.1480   33.1220   47.1960 C   0  0  0  0  0  0  0  0  0  0  0  0
   61.8121   33.5714   52.1756 H   0  0  0  0  0  0  0  0  0  0  0  0
   62.1323   32.7315   50.6204 H   0  0  0  0  0  0  0  0  0  0  0  0
   61.5625   34.4350   50.6204 H   0  0  0  0  0  0  0  0  0  0  0  0
   59.5791   33.8732   53.0169 H   0  0  0  0  0  0  0  0  0  0  0  0
   57.2373   33.0177   53.0377 H   0  0  0  0  0  0  0  0  0  0  0  0
   56.3992   31.6179   51.1503 H   0  0  0  0  0  0  0  0  0  0  0  0
   57.9004   31.0753   49.2341 H   0  0  0  0  0  0  0  0  0  0  0  0
   62.1717   30.6820   48.7685 H   0  0  0  0  0  0  0  0  0  0  0  0
   60.8733   30.0080   49.8236 H   0  0  0  0  0  0  0  0  0  0  0  0
   61.6500   30.8210   46.2390 H   0  0  0  0  0  0  0  0  0  0  0  0
   60.9964   29.6538   44.3349 H   0  0  0  0  0  0  0  0  0  0  0  0
   60.5838   28.2458   45.3759 H   0  0  0  0  0  0  0  0  0  0  0  0
   59.3150   31.6120   44.2248 H   0  0  0  0  0  0  0  0  0  0  0  0
   56.8725   32.0570   43.9214 H   0  0  0  0  0  0  0  0  0  0  0  0
   55.9134   28.2230   45.5209 H   0  0  0  0  0  0  0  0  0  0  0  0
   58.3380   27.7100   45.8439 H   0  0  0  0  0  0  0  0  0  0  0  0
   60.6225   34.4923   45.2707 H   0  0  0  0  0  0  0  0  0  0  0  0
   58.6425   35.1200   43.8864 H   0  0  0  0  0  0  0  0  0  0  0  0
   56.3444   34.4740   44.6241 H   0  0  0  0  0  0  0  0  0  0  0  0
   56.0302   33.1931   46.7443 H   0  0  0  0  0  0  0  0  0  0  0  0
   58.0056   32.5574   48.1292 H   0  0  0  0  0  0  0  0  0  0  0  0
  1  2  1  0
  2  3  2  0
  3  4  1  0
  4  5  2  0
  5  6  1  0
  6  7  2  0
  7  8  1  0
  8  9  1  0
  9 10  1  0
 10 11  2  0
 10 12  1  0
 12 13  1  0
 13 14  1  0
 14 15  2  0
 15 16  1  0
 16 17  2  0
 17 18  1  0
 18 19  2  0
  8 20  1  0
 20 21  2  0
 20 22  2  0
 20 23  1  0
 23 24  2  0
 24 25  1  0
 25 26  2  0
 26 27  1  0
 27 28  2  0
  7  2  1  0
 19 14  1  0
 28 23  1  0
  1 29  1  0
  1 30  1  0
  1 31  1  0
  3 32  1  0
  4 33  1  0
  5 34  1  0
  6 35  1  0
  9 36  1  0
  9 37  1  0
 12 38  1  0
 13 39  1  0
 13 40  1  0
 15 41  1  0
 16 42  1  0
 18 43  1  0
 19 44  1  0
 24 45  1  0
 25 46  1  0
 26 47  1  0
 27 48  1  0
 28 49  1  0
M  END
>  <UniqueID>  (72) 
61

>  <SMILES>  (72) 
Cc1ccccc1N(CC(=O)NCc1ccncc1)S(=O)(=O)c1ccccc1

>  <Energy>  (72) 
53.481490442238076

>  <Genealogy>  (72) 
Cc1ccccc1N(CC(=O)NCc1ccncc1)S(=O)(=O)c1ccccc1 (3D coordinates assigned)
Cc1ccccc1N(CC(=O)NCc1ccncc1)S(=O)(=O)c1ccccc1 (optimized conformer: 53.481490442238076 kcal/mol)

>  <smiles>  (72) 
Cc1ccccc1N(CC(=O)NCc1ccncc1)S(=O)(=O)c1ccccc1

>  <score_type>  (72) 
oracle

>  <origin>  (72) 
adg

>  <m_score__min__energy>  (72) 
-9.3599999999999994

>  <m_primary>  (72) 
energy

$$$$
72:0
     RDKit          3D

 47 50  0  0  0  0  0  0  0  0999 V2000
   59.2740   34.9800   48.0070 C   0  0  0  0  0  0  0  0  0  0  0  0
   59.3130   33.8240   47.0620 C   0  0  0  0  0  0  0  0  0  0  0  0
   58.4250   33.5980   46.1280 O   0  0  0  0  0  0  0  0  0  0  0  0
   58.8000   32.5060   45.4950 C   0  0  0  0  0  0  0  0  0  0  0  0
   58.0600   31.9260   44.3570 C   0  0  0  0  0  0  0  0  0  0  0  0
   57.2450   30.7910   44.5330 C   0  0  0  0  0  0  0  0  0  0  0  0
   56.5510   30.2440   43.4480 C   0  0  0  0  0  0  0  0  0  0  0  0
   56.6650   30.8230   42.1800 C   0  0  0  0  0  0  0  0  0  0  0  0
   57.4710   31.9500   41.9960 C   0  0  0  0  0  0  0  0  0  0  0  0
   58.1640   32.5030   43.0790 C   0  0  0  0  0  0  0  0  0  0  0  0
   59.9430   31.9810   45.9960 N   0  0  0  0  0  0  0  0  0  0  0  0
   60.2570   32.8200   47.0020 C   0  0  0  0  0  0  0  0  0  0  0  0
   61.5130   32.7100   47.8150 C   0  0  0  0  0  0  0  0  0  0  0  0
   62.1710   31.3460   47.6130 C   0  0  0  0  0  0  0  0  0  0  0  0
   61.3280   30.3220   48.1370 O   0  0  0  0  0  0  0  0  0  0  0  0
   60.3850   29.6060   47.3870 C   0  0  0  0  0  0  0  0  0  0  0  0
   59.0460   29.4620   47.7960 C   0  0  0  0  0  0  0  0  0  0  0  0
   58.1470   28.7270   47.0170 C   0  0  0  0  0  0  0  0  0  0  0  0
   58.5670   28.1380   45.8140 C   0  0  0  0  0  0  0  0  0  0  0  0
   57.6110   27.3130   44.9970 C   0  0  0  0  0  0  0  0  0  0  0  0
   57.1640   26.1170   45.7800 C   0  0  0  0  0  0  0  0  0  0  0  0
   58.1430   24.8070   46.1940 S   0  0  0  0  0  0  0  0  0  0  0  0
   56.8700   23.9830   46.9230 C   0  0  0  0  0  0  0  0  0  0  0  0
   56.9790   22.8630   47.4860 O   0  0  0  0  0  0  0  0  0  0  0  0
   55.7040   24.6610   46.8600 N   0  0  0  0  0  0  0  0  0  0  0  0
   55.8660   25.8470   46.2130 C   0  0  0  0  0  0  0  0  0  0  0  0
   54.8000   26.7140   46.0020 O   0  0  0  0  0  0  0  0  0  0  0  0
   59.9040   28.2790   45.4100 C   0  0  0  0  0  0  0  0  0  0  0  0
   60.8030   29.0100   46.1910 C   0  0  0  0  0  0  0  0  0  0  0  0
   59.2865   34.6080   49.0421 H   0  0  0  0  0  0  0  0  0  0  0  0
   60.1510   35.6220   47.8374 H   0  0  0  0  0  0  0  0  0  0  0  0
   58.3557   35.5614   47.8374 H   0  0  0  0  0  0  0  0  0  0  0  0
   57.1535   30.3321   45.5285 H   0  0  0  0  0  0  0  0  0  0  0  0
   55.9153   29.3580   43.5925 H   0  0  0  0  0  0  0  0  0  0  0  0
   56.1203   30.3914   41.3274 H   0  0  0  0  0  0  0  0  0  0  0  0
   57.5609   32.4033   40.9978 H   0  0  0  0  0  0  0  0  0  0  0  0
   58.7929   33.3931   42.9297 H   0  0  0  0  0  0  0  0  0  0  0  0
   62.2142   33.4985   47.5042 H   0  0  0  0  0  0  0  0  0  0  0  0
   61.2563   32.8241   48.8785 H   0  0  0  0  0  0  0  0  0  0  0  0
   62.3313   31.1731   46.5386 H   0  0  0  0  0  0  0  0  0  0  0  0
   63.1369   31.3266   48.1390 H   0  0  0  0  0  0  0  0  0  0  0  0
   58.7055   29.9293   48.7318 H   0  0  0  0  0  0  0  0  0  0  0  0
   57.1048   28.6097   47.3487 H   0  0  0  0  0  0  0  0  0  0  0  0
   56.7350   27.9244   44.7350 H   0  0  0  0  0  0  0  0  0  0  0  0
   58.1188   26.9748   44.0817 H   0  0  0  0  0  0  0  0  0  0  0  0
   60.2455   27.8119   44.4744 H   0  0  0  0  0  0  0  0  0  0  0  0
   61.8476   29.1181   45.8635 H   0  0  0  0  0  0  0  0  0  0  0  0
  1  2  1  0
  2  3  1  0
  3  4  1  0
  4  5  1  0
  5  6  2  0
  6  7  1  0
  7  8  2  0
  8  9  1  0
  9 10  2  0
  4 11  2  0
 11 12  1  0
 12 13  1  0
 13 14  1  0
 14 15  1  0
 15 16  1  0
 16 17  2  0
 17 18  1  0
 18 19  2  0
 19 20  1  0
 20 21  1  0
 21 22  1  0
 22 23  1  0
 23 24  2  0
 23 25  1  0
 25 26  1  0
 26 27  1  0
 19 28  1  0
 28 29  2  0
 12  2  2  0
 29 16  1  0
 10  5  1  0
 26 21  2  0
  1 30  1  0
  1 31  1  0
  1 32  1  0
  6 33  1  0
  7 34  1  0
  8 35  1  0
  9 36  1  0
 10 37  1  0
 13 38  1  0
 13 39  1  0
 14 40  1  0
 14 41  1  0
 17 42  1  0
 18 43  1  0
 20 44  1  0
 20 45  1  0
 28 46  1  0
 29 47  1  0
M  CHG  2  25  -1  27  -1
M  END
>  <UniqueID>  (73) 
62

>  <SMILES>  (73) 
Cc1oc(-c2ccccc2)nc1CCOc1ccc(Cc2sc(=O)[n-]c2[O-])cc1

>  <Energy>  (73) 
105.04749672605593

>  <Genealogy>  (73) 
Cc1oc(-c2ccccc2)nc1CCOc1ccc(Cc2sc(=O)[n-]c2[O-])cc1 (protonated)
Cc1oc(-c2ccccc2)nc1CCOc1ccc(Cc2sc(=O)[n-]c2[O-])cc1 (3D coordinates assigned)
Cc1oc(-c2ccccc2)nc1CCOc1ccc(Cc2sc(=O)[n-]c2[O-])cc1 (optimized conformer: 105.04749672605593 kcal/mol)

>  <smiles>  (73) 
Cc1oc(-c2ccccc2)nc1CCOc1ccc(Cc2sc(=O)[nH]c2O)cc1

>  <score_type>  (73) 
oracle

>  <origin>  (73) 
adg

>  <m_score__min__energy>  (73) 
-15.949999999999999

>  <m_primary>  (73) 
energy

$$$$
73:0
     RDKit          3D

 38 42  0  0  0  0  0  0  0  0999 V2000
   55.1470   28.9600   44.4610 O   0  0  0  0  0  0  0  0  0  0  0  0
   56.2970   29.4420   45.0720 C   0  0  0  0  0  0  0  0  0  0  0  0
   57.0690   28.5860   45.8920 C   0  0  0  0  0  0  0  0  0  0  0  0
   58.2400   29.0570   46.5150 C   0  0  0  0  0  0  0  0  0  0  0  0
   58.6060   30.3850   46.2980 C   0  0  0  0  0  0  0  0  0  0  0  0
   59.6910   31.0210   46.7830 N   0  0  0  0  0  0  0  0  0  0  0  0
   59.6160   32.2760   46.2780 C   0  0  0  0  0  0  0  0  0  0  0  0
   58.4850   32.4380   45.5060 C   0  0  0  0  0  0  0  0  0  0  0  0
   57.8490   31.2170   45.5050 C   0  0  0  0  0  0  0  0  0  0  0  0
   56.6890   30.7790   44.8690 C   0  0  0  0  0  0  0  0  0  0  0  0
   58.1930   33.6980   44.7540 C   0  0  0  0  0  0  0  0  0  0  0  0
   58.8380   34.8960   45.4880 C   0  0  0  0  0  0  0  0  0  0  0  0
   60.2350   34.5990   46.0110 C   0  0  0  0  0  0  0  0  0  0  0  0
   60.5780   33.3780   46.4710 C   0  0  0  0  0  0  0  0  0  0  0  0
   61.9210   33.1300   47.0330 C   0  0  0  0  0  0  0  0  0  0  0  0
   63.1380   33.4700   46.4460 C   0  0  0  0  0  0  0  0  0  0  0  0
   64.1670   33.1200   47.2500 N   0  0  0  0  0  0  0  0  0  0  0  0
   63.6150   32.5600   48.3400 C   0  0  0  0  0  0  0  0  0  0  0  0
   64.2810   32.0310   49.4440 C   0  0  0  0  0  0  0  0  0  0  0  0
   63.5050   31.4660   50.4730 C   0  0  0  0  0  0  0  0  0  0  0  0
   62.0970   31.4380   50.3720 C   0  0  0  0  0  0  0  0  0  0  0  0
   61.4510   31.9780   49.2460 C   0  0  0  0  0  0  0  0  0  0  0  0
   62.2450   32.5470   48.2480 C   0  0  0  0  0  0  0  0  0  0  0  0
   56.7516   27.5438   46.0440 H   0  0  0  0  0  0  0  0  0  0  0  0
   58.8474   28.3982   47.1530 H   0  0  0  0  0  0  0  0  0  0  0  0
   60.4250   30.6250   47.4110 H   0  0  0  0  0  0  0  0  0  0  0  0
   56.1002   31.4542   44.2307 H   0  0  0  0  0  0  0  0  0  0  0  0
   58.6081   33.6235   43.7381 H   0  0  0  0  0  0  0  0  0  0  0  0
   57.1047   33.8464   44.6948 H   0  0  0  0  0  0  0  0  0  0  0  0
   58.8997   35.7423   44.7880 H   0  0  0  0  0  0  0  0  0  0  0  0
   58.2055   35.1239   46.3586 H   0  0  0  0  0  0  0  0  0  0  0  0
   60.9866   35.4021   46.0143 H   0  0  0  0  0  0  0  0  0  0  0  0
   63.2465   33.9556   45.4650 H   0  0  0  0  0  0  0  0  0  0  0  0
   65.1840   33.2590   47.0590 H   0  0  0  0  0  0  0  0  0  0  0  0
   65.3788   32.0544   49.5090 H   0  0  0  0  0  0  0  0  0  0  0  0
   63.9981   31.0438   51.3610 H   0  0  0  0  0  0  0  0  0  0  0  0
   61.5007   30.9902   51.1807 H   0  0  0  0  0  0  0  0  0  0  0  0
   60.3551   31.9531   49.1541 H   0  0  0  0  0  0  0  0  0  0  0  0
  1  2  1  0
  2  3  2  0
  3  4  1  0
  4  5  2  0
  5  6  1  0
  6  7  1  0
  7  8  2  0
  8  9  1  0
  9 10  2  0
  8 11  1  0
 11 12  1  0
 12 13  1  0
 13 14  2  0
 14 15  1  0
 15 16  2  0
 16 17  1  0
 17 18  1  0
 18 19  2  0
 19 20  1  0
 20 21  2  0
 21 22  1  0
 22 23  2  0
 10  2  1  0
 23 15  1  0
  9  5  1  0
 23 18  1  0
 14  7  1  0
  3 24  1  0
  4 25  1  0
  6 26  1  0
 10 27  1  0
 11 28  1  0
 11 29  1  0
 12 30  1  0
 12 31  1  0
 13 32  1  0
 16 33  1  0
 17 34  1  0
 19 35  1  0
 20 36  1  0
 21 37  1  0
 22 38  1  0
M  CHG  1   1  -1
M  END
>  <UniqueID>  (74) 
63

>  <SMILES>  (74) 
[O-]c1ccc2[nH]c3c(c2c1)CCC=C3c1c[nH]c2ccccc12

>  <Energy>  (74) 
118.92074399342881

>  <Genealogy>  (74) 
[O-]c1ccc2[nH]c3c(c2c1)CCC=C3c1c[nH]c2ccccc12 (protonated)
[O-]c1ccc2[nH]c3c(c2c1)CCC=C3c1c[nH]c2ccccc12 (3D coordinates assigned)
[O-]c1ccc2[nH]c3c(c2c1)CCC=C3c1c[nH]c2ccccc12 (nonaromatic ring conformer: 118.92074399342881 kcal/mol)

>  <smiles>  (74) 
Oc1ccc2[nH]c3c(c2c1)CCC=C3c1c[nH]c2ccccc12

>  <score_type>  (74) 
oracle

>  <origin>  (74) 
adg

>  <m_score__min__energy>  (74) 
-11.41

>  <m_primary>  (74) 
energy

$$$$
74:0
     RDKit          3D

 48 51  0  0  0  0  0  0  0  0999 V2000
   56.2332   31.0913   43.5848 H   0  0  0  0  0  0  0  0  0  0  0  0
   57.0630   30.9150   44.2850 C   0  0  0  0  0  0  0  0  0  0  0  0
   57.7970   31.9760   44.6540 C   0  0  0  0  0  0  0  0  0  0  0  0
   58.2940   32.2040   46.3670 S   0  0  0  0  0  0  0  0  0  0  0  0
   58.9970   33.7900   45.8950 C   0  0  0  0  0  0  0  0  0  0  0  0
   59.4570   34.6240   46.7830 N   0  0  0  0  0  0  0  0  0  0  0  0
   59.2750   35.6450   46.6630 H   0  0  0  0  0  0  0  0  0  0  0  0
   60.2540   34.2160   47.9030 C   0  0  0  0  0  0  0  0  0  0  0  0
   59.6650   34.1690   49.1740 C   0  0  0  0  0  0  0  0  0  0  0  0
   58.6031   34.4303   49.2927 H   0  0  0  0  0  0  0  0  0  0  0  0
   60.4170   33.7920   50.2950 C   0  0  0  0  0  0  0  0  0  0  0  0
   59.7710   33.7190   51.6480 C   0  0  0  0  0  0  0  0  0  0  0  0
   60.5421   33.8061   52.4276 H   0  0  0  0  0  0  0  0  0  0  0  0
   59.0479   34.5412   51.7539 H   0  0  0  0  0  0  0  0  0  0  0  0
   59.2496   32.7562   51.7539 H   0  0  0  0  0  0  0  0  0  0  0  0
   61.7590   33.4230   50.1330 C   0  0  0  0  0  0  0  0  0  0  0  0
   62.3506   33.1122   51.0067 H   0  0  0  0  0  0  0  0  0  0  0  0
   62.3490   33.4480   48.8670 C   0  0  0  0  0  0  0  0  0  0  0  0
   63.4069   33.1694   48.7523 H   0  0  0  0  0  0  0  0  0  0  0  0
   61.6020   33.8260   47.7400 C   0  0  0  0  0  0  0  0  0  0  0  0
   62.2590   33.8400   46.3860 C   0  0  0  0  0  0  0  0  0  0  0  0
   63.3519   33.8633   46.5090 H   0  0  0  0  0  0  0  0  0  0  0  0
   61.9718   32.9355   45.8297 H   0  0  0  0  0  0  0  0  0  0  0  0
   61.9335   34.7314   45.8297 H   0  0  0  0  0  0  0  0  0  0  0  0
   58.9650   34.0790   44.4980 N   0  0  0  0  0  0  0  0  0  0  0  0
   59.3460   34.9390   44.0440 H   0  0  0  0  0  0  0  0  0  0  0  0
   58.3160   33.0420   43.7890 C   0  0  0  0  0  0  0  0  0  0  0  0
   58.2740   33.0280   42.5310 O   0  0  0  0  0  0  0  0  0  0  0  0
   57.2820   29.5310   44.7450 C   0  0  0  0  0  0  0  0  0  0  0  0
   56.3160   28.5740   45.0360 C   0  0  0  0  0  0  0  0  0  0  0  0
   55.2371   28.6992   44.8621 H   0  0  0  0  0  0  0  0  0  0  0  0
   56.8900   27.4650   45.5640 N   0  0  0  0  0  0  0  0  0  0  0  0
   56.1590   26.3040   45.9980 C   0  0  0  0  0  0  0  0  0  0  0  0
   54.8990   26.3250   45.9880 O   0  0  0  0  0  0  0  0  0  0  0  0
   56.8520   25.0770   46.5020 C   0  0  0  0  0  0  0  0  0  0  0  0
   56.8500   25.0805   47.6020 H   0  0  0  0  0  0  0  0  0  0  0  0
   56.3256   24.1826   46.1372 H   0  0  0  0  0  0  0  0  0  0  0  0
   57.8897   25.0660   46.1372 H   0  0  0  0  0  0  0  0  0  0  0  0
   58.2180   27.7170   45.6170 C   0  0  0  0  0  0  0  0  0  0  0  0
   59.2590   26.8730   46.0290 C   0  0  0  0  0  0  0  0  0  0  0  0
   59.0525   25.8502   46.3773 H   0  0  0  0  0  0  0  0  0  0  0  0
   60.5740   27.3690   45.9850 C   0  0  0  0  0  0  0  0  0  0  0  0
   61.4088   26.7317   46.3120 H   0  0  0  0  0  0  0  0  0  0  0  0
   60.8310   28.6770   45.5250 C   0  0  0  0  0  0  0  0  0  0  0  0
   61.8630   29.0573   45.5077 H   0  0  0  0  0  0  0  0  0  0  0  0
   59.7780   29.4970   45.0890 C   0  0  0  0  0  0  0  0  0  0  0  0
   59.9683   30.5149   44.7179 H   0  0  0  0  0  0  0  0  0  0  0  0
   58.4830   28.9810   45.1410 C   0  0  0  0  0  0  0  0  0  0  0  0
  1  2  1  0
  2  3  2  3
  3  4  1  0
  4  5  1  0
  5  6  2  0
  6  7  1  0
  6  8  1  0
  8  9  2  0
  9 10  1  0
  9 11  1  0
 11 12  1  0
 12 13  1  0
 12 14  1  0
 12 15  1  0
 11 16  2  0
 16 17  1  0
 16 18  1  0
 18 19  1  0
 18 20  2  0
 20 21  1  0
 21 22  1  0
 21 23  1  0
 21 24  1  0
  5 25  1  0
 25 26  1  0
 25 27  1  0
 27 28  2  0
  2 29  1  0
 29 30  2  0
 30 31  1  0
 30 32  1  0
 32 33  1  0
 33 34  2  0
 33 35  1  0
 35 36  1  0
 35 37  1  0
 35 38  1  0
 32 39  1  0
 39 40  2  0
 40 41  1  0
 40 42  1  0
 42 43  1  0
 42 44  2  0
 44 45  1  0
 44 46  1  0
 46 47  1  0
 46 48  2  0
 27  3  1  0
 48 29  1  0
 20  8  1  0
 48 39  1  0
M  CHG  1   6   1
M  END
>  <UniqueID>  (75) 
64

>  <SMILES>  (75) 
CC(=O)n1cc(C=C2S/C(=[NH+]/c3cc(C)ccc3C)NC2=O)c2ccccc21

>  <Energy>  (75) 
120.77648823247817

>  <Genealogy>  (75) 
CC(=O)n1cc(C=C2SC(=[NH+]c3cc(C)ccc3C)NC2=O)c2ccccc21 (protonated)
CC(=O)n1cc(C=C2S/C(=[NH+]/c3cc(C)ccc3C)NC2=O)c2ccccc21 (cis-trans isomerization)
CC(=O)n1cc(C=C2S/C(=[NH+]/c3cc(C)ccc3C)NC2=O)c2ccccc21 (3D coordinates assigned)
CC(=O)n1cc(C=C2S/C(=[NH+]/c3cc(C)ccc3C)NC2=O)c2ccccc21 (nonaromatic ring conformer: 120.77648823247817 kcal/mol)

>  <smiles>  (75) 
CC(=O)n1cc(C=C2SC(=Nc3cc(C)ccc3C)NC2=O)c2ccccc21

>  <score_type>  (75) 
oracle

>  <origin>  (75) 
adg

>  <m_score__min__energy>  (75) 
-8.0299999999999994

>  <m_primary>  (75) 
energy

$$$$
75:0
     RDKit          3D

 71 74  0  0  1  0  0  0  0  0999 V2000
   56.3620   29.3870   43.5380 C   0  0  0  0  0  0  0  0  0  0  0  0
   56.7050   29.4370   44.9230 O   0  0  0  0  0  0  0  0  0  0  0  0
   57.4260   30.5190   45.3690 C   0  0  0  0  0  0  0  0  0  0  0  0
   57.3090   31.7000   44.6580 C   0  0  0  0  0  0  0  0  0  0  0  0
   58.0300   32.7600   45.1220 C   0  0  0  0  0  0  0  0  0  0  0  0
   57.9130   33.9290   44.4440 N   0  0  0  0  0  0  0  0  0  0  0  0
   58.6140   34.9660   44.9170 C   0  0  0  0  0  0  0  0  0  0  0  0
   59.4030   34.9170   45.9990 N   0  0  0  0  0  0  0  0  0  0  0  0
   59.4890   33.7220   46.6610 C   0  0  0  0  0  0  0  0  0  0  0  0
   60.2160   33.6830   47.6580 N   0  0  0  0  0  0  0  0  0  0  0  0
   61.2700   32.9790   48.0960 C   0  0  0  0  0  0  0  0  0  0  0  0
   62.4490   32.9520   47.2880 C   0  0  0  0  0  0  0  0  0  0  0  0
   63.5560   32.3110   47.7990 C   0  0  0  0  0  0  0  0  0  0  0  0
   63.5570   31.7230   49.0270 C   0  0  0  0  0  0  0  0  0  0  0  0
   62.3760   31.7530   49.8380 C   0  0  0  0  0  0  0  0  0  0  0  0
   62.6620   30.9330   51.3670 S   0  0  0  0  0  0  0  0  0  0  0  0
   63.7920   31.5810   52.0450 O   0  0  0  0  0  0  0  0  0  0  0  0
   63.0320   29.4780   50.9270 O   0  0  0  0  0  0  0  0  0  0  0  0
   61.3170   30.7590   52.4000 N   0  0  0  0  0  0  0  0  0  0  0  0
   59.9110   30.8640   52.0580 C   0  0  0  0  0  0  0  0  0  0  0  0
   59.1110   29.7980   51.7780 C   0  0  0  0  0  0  0  0  0  0  0  0
   57.7440   29.9880   51.5890 C   0  0  0  0  0  0  0  0  0  0  0  0
   57.2020   31.2570   51.6880 C   0  0  0  0  0  0  0  0  0  0  0  0
   58.0070   32.3120   51.9660 C   0  0  0  0  0  0  0  0  0  0  0  0
   59.3470   32.1430   52.1550 C   0  0  0  0  0  0  0  0  0  0  0  0
   60.4350   33.4910   52.5140 Cl  0  0  0  0  0  0  0  0  0  0  0  0
   61.2760   32.3630   49.3670 C   0  0  0  0  0  0  0  0  0  0  0  0
   58.8180   32.6140   46.2420 C   0  0  0  0  0  0  0  0  0  0  0  0
   58.9290   31.4470   46.9370 C   0  0  0  0  0  0  0  0  0  0  0  0
   58.1990   30.3320   46.4790 C   0  0  0  0  0  0  0  0  0  0  0  0
   58.2210   29.1070   47.0870 O   0  0  0  0  0  0  0  0  0  0  0  0
   58.6610   28.9840   48.4090 C   0  0  0  0  0  0  0  0  0  0  0  0
   60.1720   28.9120   48.5130 C   0  0  0  0  0  0  0  0  0  0  0  0
   60.7150   27.6010   48.0080 C   0  0  0  0  0  0  0  0  0  0  0  0
   60.3710   27.2870   46.5920 C   0  0  0  0  0  0  0  0  0  0  0  0
   59.5360   26.0680   46.3710 C   0  0  0  0  0  0  0  0  0  0  0  0
   58.3320   25.9660   47.2480 C   0  0  0  0  0  0  0  0  0  0  0  0
   57.1680   26.3640   46.3990 C   0  0  0  0  0  0  0  0  0  0  0  0
   57.3540   27.0880   45.1880 O   0  0  0  0  0  0  0  0  0  0  0  0
   55.9940   26.0730   46.7250 N   0  0  0  0  0  0  0  0  0  0  0  0
   54.9470   26.6220   45.9930 O   0  0  0  0  0  0  0  0  0  0  0  0
   55.2784   29.2290   43.4341 H   0  0  0  0  0  0  0  0  0  0  0  0
   56.6421   30.3355   43.0564 H   0  0  0  0  0  0  0  0  0  0  0  0
   56.9012   28.5580   43.0564 H   0  0  0  0  0  0  0  0  0  0  0  0
   56.6691   31.7795   43.7668 H   0  0  0  0  0  0  0  0  0  0  0  0
   57.3060   33.9470   43.5810 H   0  0  0  0  0  0  0  0  0  0  0  0
   58.5374   35.9237   44.3813 H   0  0  0  0  0  0  0  0  0  0  0  0
   62.4714   33.4254   46.2953 H   0  0  0  0  0  0  0  0  0  0  0  0
   64.4730   32.2728   47.1926 H   0  0  0  0  0  0  0  0  0  0  0  0
   64.4651   31.2245   49.3969 H   0  0  0  0  0  0  0  0  0  0  0  0
   61.5100   30.5790   53.4140 H   0  0  0  0  0  0  0  0  0  0  0  0
   59.5432   28.7894   51.7013 H   0  0  0  0  0  0  0  0  0  0  0  0
   57.0956   29.1292   51.3611 H   0  0  0  0  0  0  0  0  0  0  0  0
   56.1225   31.4094   51.5418 H   0  0  0  0  0  0  0  0  0  0  0  0
   57.5725   33.3198   52.0402 H   0  0  0  0  0  0  0  0  0  0  0  0
   60.3640   32.3832   49.9817 H   0  0  0  0  0  0  0  0  0  0  0  0
   59.5692   31.3775   47.8288 H   0  0  0  0  0  0  0  0  0  0  0  0
   58.3091   29.8554   48.9806 H   0  0  0  0  0  0  0  0  0  0  0  0
   58.2529   28.0451   48.8114 H   0  0  0  0  0  0  0  0  0  0  0  0
   60.6074   29.7285   47.9182 H   0  0  0  0  0  0  0  0  0  0  0  0
   60.4422   29.0027   49.5754 H   0  0  0  0  0  0  0  0  0  0  0  0
   61.8111   27.6276   48.0963 H   0  0  0  0  0  0  0  0  0  0  0  0
   60.2497   26.8156   48.6217 H   0  0  0  0  0  0  0  0  0  0  0  0
   59.8235   28.1479   46.1808 H   0  0  0  0  0  0  0  0  0  0  0  0
   61.3303   27.0810   46.0947 H   0  0  0  0  0  0  0  0  0  0  0  0
   59.1977   26.0702   45.3243 H   0  0  0  0  0  0  0  0  0  0  0  0
   60.1737   25.2068   46.6194 H   0  0  0  0  0  0  0  0  0  0  0  0
   58.2075   24.9339   47.6075 H   0  0  0  0  0  0  0  0  0  0  0  0
   58.4234   26.6115   48.1340 H   0  0  0  0  0  0  0  0  0  0  0  0
   56.5310   27.2810   44.6090 H   0  0  0  0  0  0  0  0  0  0  0  0
   55.1360   27.4900   45.4480 H   0  0  0  0  0  0  0  0  0  0  0  0
  1  2  1  0
  2  3  1  0
  3  4  2  0
  4  5  1  0
  5  6  1  0
  6  7  1  0
  7  8  2  0
  8  9  1  0
  9 10  2  0
 10 11  1  0
 11 12  2  0
 12 13  1  0
 13 14  2  0
 14 15  1  0
 15 16  1  0
 16 17  2  0
 16 18  2  0
 16 19  1  0
 19 20  1  0
 20 21  2  0
 21 22  1  0
 22 23  2  0
 23 24  1  0
 24 25  2  0
 25 26  1  0
 15 27  2  0
  9 28  1  0
 28 29  1  0
 29 30  2  0
 30 31  1  0
 31 32  1  0
 32 33  1  0
 33 34  1  0
 34 35  1  0
 35 36  1  0
 36 37  1  0
 37 38  1  0
 38 39  1  0
 38 40  2  0
 40 41  1  0
 30  3  1  0
 28  5  2  0
 27 11  1  0
 25 20  1  0
  1 42  1  0
  1 43  1  0
  1 44  1  0
  4 45  1  0
  6 46  1  0
  7 47  1  0
 12 48  1  0
 13 49  1  0
 14 50  1  0
 19 51  1  0
 21 52  1  0
 22 53  1  0
 23 54  1  0
 24 55  1  0
 27 56  1  0
 29 57  1  0
 32 58  1  0
 32 59  1  0
 33 60  1  0
 33 61  1  0
 34 62  1  0
 34 63  1  0
 35 64  1  0
 35 65  1  0
 36 66  1  0
 36 67  1  0
 37 68  1  0
 37 69  1  0
 39 70  1  0
 41 71  1  0
M  END
>  <smiles>  (76) 
COc1cc2[nH]cnc(=Nc3cccc(S(=O)(=O)Nc4ccccc4Cl)c3)c2cc1OCCCCCCC(O)=NO

>  <score_type>  (76) 
oracle

>  <origin>  (76) 
adg

>  <m_score__min__energy>  (76) 
-11.56

>  <m_primary>  (76) 
energy

$$$$
76:0
     RDKit          3D

 44 46  0  0  0  0  0  0  0  0999 V2000
   64.0980   33.4590   48.5270 C   0  0  0  0  0  0  0  0  0  0  0  0
   62.6250   33.2040   48.4050 C   0  0  0  0  0  0  0  0  0  0  0  0
   61.7060   34.2150   48.7210 C   0  0  0  0  0  0  0  0  0  0  0  0
   60.3380   33.9960   48.5570 C   0  0  0  0  0  0  0  0  0  0  0  0
   59.8750   32.7710   48.0740 C   0  0  0  0  0  0  0  0  0  0  0  0
   60.7790   31.7440   47.7490 C   0  0  0  0  0  0  0  0  0  0  0  0
   60.2680   30.4550   47.2240 C   0  0  0  0  0  0  0  0  0  0  0  0
   60.7690   29.3800   47.6570 O   0  0  0  0  0  0  0  0  0  0  0  0
   59.2140   30.4130   46.2440 N   0  0  0  0  0  0  0  0  0  0  0  0
   58.7310   29.2020   45.6370 C   0  0  0  0  0  0  0  0  0  0  0  0
   59.2750   28.7170   44.4360 C   0  0  0  0  0  0  0  0  0  0  0  0
   58.7840   27.5410   43.8650 C   0  0  0  0  0  0  0  0  0  0  0  0
   57.7320   26.8530   44.4720 C   0  0  0  0  0  0  0  0  0  0  0  0
   57.1440   27.3470   45.6420 C   0  0  0  0  0  0  0  0  0  0  0  0
   56.0700   26.6060   46.2390 N   0  0  0  0  0  0  0  0  0  0  0  0
   55.5150   25.3740   45.7590 C   0  0  0  0  0  0  0  0  0  0  0  0
   54.2670   25.2460   45.6350 O   0  0  0  0  0  0  0  0  0  0  0  0
   56.4180   24.2910   45.3080 C   0  0  0  0  0  0  0  0  0  0  0  0
   57.5740   24.0210   46.0630 C   0  0  0  0  0  0  0  0  0  0  0  0
   58.4920   23.0570   45.6420 C   0  0  0  0  0  0  0  0  0  0  0  0
   58.2710   22.3490   44.4630 C   0  0  0  0  0  0  0  0  0  0  0  0
   57.1210   22.5890   43.7090 C   0  0  0  0  0  0  0  0  0  0  0  0
   56.1790   23.5440   44.1250 C   0  0  0  0  0  0  0  0  0  0  0  0
   54.9710   23.6920   43.3650 N   0  0  0  0  0  0  0  0  0  0  0  0
   57.6560   28.5190   46.2280 C   0  0  0  0  0  0  0  0  0  0  0  0
   62.1590   31.9780   47.9020 C   0  0  0  0  0  0  0  0  0  0  0  0
   64.3750   33.5069   49.5905 H   0  0  0  0  0  0  0  0  0  0  0  0
   64.6529   32.6436   48.0400 H   0  0  0  0  0  0  0  0  0  0  0  0
   64.3465   34.4135   48.0400 H   0  0  0  0  0  0  0  0  0  0  0  0
   62.0648   35.1836   49.0993 H   0  0  0  0  0  0  0  0  0  0  0  0
   59.6216   34.7917   48.8093 H   0  0  0  0  0  0  0  0  0  0  0  0
   58.7947   32.6077   47.9466 H   0  0  0  0  0  0  0  0  0  0  0  0
   58.7240   31.2980   45.9830 H   0  0  0  0  0  0  0  0  0  0  0  0
   60.0911   29.2659   43.9433 H   0  0  0  0  0  0  0  0  0  0  0  0
   59.2272   27.1560   42.9348 H   0  0  0  0  0  0  0  0  0  0  0  0
   57.3629   25.9167   44.0280 H   0  0  0  0  0  0  0  0  0  0  0  0
   57.7566   24.5755   46.9953 H   0  0  0  0  0  0  0  0  0  0  0  0
   59.3915   22.8562   46.2425 H   0  0  0  0  0  0  0  0  0  0  0  0
   59.0031   21.6004   44.1259 H   0  0  0  0  0  0  0  0  0  0  0  0
   56.9510   22.0248   42.7802 H   0  0  0  0  0  0  0  0  0  0  0  0
   54.9010   23.2950   42.4020 H   0  0  0  0  0  0  0  0  0  0  0  0
   54.0970   24.0770   43.7840 H   0  0  0  0  0  0  0  0  0  0  0  0
   57.2103   28.9036   47.1572 H   0  0  0  0  0  0  0  0  0  0  0  0
   62.8788   31.1936   47.6251 H   0  0  0  0  0  0  0  0  0  0  0  0
  1  2  1  0
  2  3  2  0
  3  4  1  0
  4  5  2  0
  5  6  1  0
  6  7  1  0
  7  8  2  0
  7  9  1  0
  9 10  1  0
 10 11  2  0
 11 12  1  0
 12 13  2  0
 13 14  1  0
 14 15  1  0
 15 16  1  0
 16 17  2  0
 16 18  1  0
 18 19  2  0
 19 20  1  0
 20 21  2  0
 21 22  1  0
 22 23  2  0
 23 24  1  0
 14 25  2  0
  6 26  2  0
 26  2  1  0
 25 10  1  0
 23 18  1  0
  1 27  1  0
  1 28  1  0
  1 29  1  0
  3 30  1  0
  4 31  1  0
  5 32  1  0
  9 33  1  0
 11 34  1  0
 12 35  1  0
 13 36  1  0
 19 37  1  0
 20 38  1  0
 21 39  1  0
 22 40  1  0
 24 41  1  0
 24 42  1  0
 25 43  1  0
 26 44  1  0
M  CHG  1  15  -1
M  END
>  <UniqueID>  (77) 
65

>  <SMILES>  (77) 
Cc1cccc(C(=O)Nc2cccc([N-]C(=O)c3ccccc3N)c2)c1

>  <Energy>  (77) 
61.462008895272675

>  <Genealogy>  (77) 
Cc1cccc(C(=O)Nc2cccc([N-]C(=O)c3ccccc3N)c2)c1 (protonated)
Cc1cccc(C(=O)Nc2cccc([N-]C(=O)c3ccccc3N)c2)c1 (3D coordinates assigned)
Cc1cccc(C(=O)Nc2cccc([N-]C(=O)c3ccccc3N)c2)c1 (optimized conformer: 61.462008895272675 kcal/mol)

>  <smiles>  (77) 
Cc1cccc(C(=O)Nc2cccc(NC(=O)c3ccccc3N)c2)c1

>  <score_type>  (77) 
oracle

>  <origin>  (77) 
adg

>  <m_score__min__energy>  (77) 
-10.58

>  <m_primary>  (77) 
energy

$$$$
77:0
     RDKit          3D

 37 38  0  0  0  0  0  0  0  0999 V2000
   62.6337   33.3016   50.4755 H   0  0  0  0  0  0  0  0  0  0  0  0
   62.5050   33.4490   49.3930 C   0  0  0  0  0  0  0  0  0  0  0  0
   61.2790   33.8990   48.8930 C   0  0  0  0  0  0  0  0  0  0  0  0
   60.4497   34.1039   49.5860 H   0  0  0  0  0  0  0  0  0  0  0  0
   61.0970   34.0920   47.5110 C   0  0  0  0  0  0  0  0  0  0  0  0
   59.7980   34.5680   46.9790 C   0  0  0  0  0  0  0  0  0  0  0  0
   59.6550   35.7860   46.6830 O   0  0  0  0  0  0  0  0  0  0  0  0
   58.7140   33.6390   46.8040 N   0  0  0  0  0  0  0  0  0  0  0  0
   58.3950   33.0010   45.7170 C   0  0  0  0  0  0  0  0  0  0  0  0
   58.4460   33.5530   44.1220 S   0  0  0  0  0  0  0  0  0  0  0  0
   57.8900   32.2220   43.2010 C   0  0  0  0  0  0  0  0  0  0  0  0
   57.7560   32.2770   41.7110 C   0  0  0  0  0  0  0  0  0  0  0  0
   56.7683   32.6824   41.4464 H   0  0  0  0  0  0  0  0  0  0  0  0
   58.5417   32.9254   41.2959 H   0  0  0  0  0  0  0  0  0  0  0  0
   57.8596   31.2636   41.2959 H   0  0  0  0  0  0  0  0  0  0  0  0
   57.5800   31.1030   43.9980 C   0  0  0  0  0  0  0  0  0  0  0  0
   57.0180   29.8000   43.4790 C   0  0  0  0  0  0  0  0  0  0  0  0
   57.1638   29.7695   42.3891 H   0  0  0  0  0  0  0  0  0  0  0  0
   55.5170   29.7180   43.7730 C   0  0  0  0  0  0  0  0  0  0  0  0
   55.3565   29.7092   44.8612 H   0  0  0  0  0  0  0  0  0  0  0  0
   55.0093   30.5897   43.3345 H   0  0  0  0  0  0  0  0  0  0  0  0
   55.1073   28.7961   43.3345 H   0  0  0  0  0  0  0  0  0  0  0  0
   57.7600   28.6000   44.0780 C   0  0  0  0  0  0  0  0  0  0  0  0
   57.7243   28.6577   45.1759 H   0  0  0  0  0  0  0  0  0  0  0  0
   57.2802   27.6682   43.7440 H   0  0  0  0  0  0  0  0  0  0  0  0
   58.8080   28.6129   43.7440 H   0  0  0  0  0  0  0  0  0  0  0  0
   57.8270   31.4190   45.6680 S   0  0  0  0  0  0  0  0  0  0  0  0
   62.1700   33.8240   46.6430 C   0  0  0  0  0  0  0  0  0  0  0  0
   62.0451   33.9694   45.5598 H   0  0  0  0  0  0  0  0  0  0  0  0
   63.3950   33.3740   47.1460 C   0  0  0  0  0  0  0  0  0  0  0  0
   64.2253   33.1677   46.4545 H   0  0  0  0  0  0  0  0  0  0  0  0
   63.5740   33.1840   48.5190 C   0  0  0  0  0  0  0  0  0  0  0  0
   64.8230   32.7310   48.9730 O   0  0  0  0  0  0  0  0  0  0  0  0
   65.4180   33.1170   50.2070 C   0  0  0  0  0  0  0  0  0  0  0  0
   64.8170   32.7271   51.0417 H   0  0  0  0  0  0  0  0  0  0  0  0
   66.4373   32.7076   50.2665 H   0  0  0  0  0  0  0  0  0  0  0  0
   65.4596   34.2146   50.2665 H   0  0  0  0  0  0  0  0  0  0  0  0
  1  2  1  0
  2  3  2  0
  3  4  1  0
  3  5  1  0
  5  6  1  0
  6  7  2  0
  6  8  1  0
  8  9  2  0
  9 10  1  0
 10 11  1  0
 11 12  1  0
 12 13  1  0
 12 14  1  0
 12 15  1  0
 11 16  2  0
 16 17  1  0
 17 18  1  0
 17 19  1  0
 19 20  1  0
 19 21  1  0
 19 22  1  0
 17 23  1  0
 23 24  1  0
 23 25  1  0
 23 26  1  0
 16 27  1  0
  5 28  2  0
 28 29  1  0
 28 30  1  0
 30 31  1  0
 30 32  2  0
 32 33  1  0
 33 34  1  0
 34 35  1  0
 34 36  1  0
 34 37  1  0
 32  2  1  0
 27  9  1  0
M  END
>  <UniqueID>  (78) 
66

>  <SMILES>  (78) 
COc1ccc(C(=O)/N=c2\sc(C)c(C(C)C)s2)cc1

>  <Energy>  (78) 
59.385756017231415

>  <Genealogy>  (78) 
COc1ccc(C(=O)/N=c2\sc(C)c(C(C)C)s2)cc1 (cis-trans isomerization)
COc1ccc(C(=O)/N=c2\sc(C)c(C(C)C)s2)cc1 (3D coordinates assigned)
COc1ccc(C(=O)/N=c2\sc(C)c(C(C)C)s2)cc1 (optimized conformer: 59.385756017231415 kcal/mol)

>  <smiles>  (78) 
COc1ccc(C(=O)N=c2sc(C)c(C(C)C)s2)cc1

>  <score_type>  (78) 
oracle

>  <origin>  (78) 
adg

>  <m_score__min__energy>  (78) 
-7.4400000000000004

>  <m_primary>  (78) 
energy

$$$$
78:0
     RDKit          3D

 35 37  0  0  0  0  0  0  0  0999 V2000
   58.6510   28.1480   44.1280 C   0  0  0  0  0  0  0  0  0  0  0  0
   57.4170   28.5860   43.6400 C   0  0  0  0  0  0  0  0  0  0  0  0
   56.9050   29.8260   44.0390 C   0  0  0  0  0  0  0  0  0  0  0  0
   57.6280   30.6340   44.9370 C   0  0  0  0  0  0  0  0  0  0  0  0
   57.1590   31.8910   45.3440 O   0  0  0  0  0  0  0  0  0  0  0  0
   57.9670   32.9970   45.6520 C   0  0  0  0  0  0  0  0  0  0  0  0
   58.3730   33.8410   44.6140 C   0  0  0  0  0  0  0  0  0  0  0  0
   59.1860   34.9440   44.8800 C   0  0  0  0  0  0  0  0  0  0  0  0
   59.6070   35.2070   46.1860 C   0  0  0  0  0  0  0  0  0  0  0  0
   59.2260   34.3630   47.2410 C   0  0  0  0  0  0  0  0  0  0  0  0
   59.6820   34.6560   48.5760 N   0  0  0  0  0  0  0  0  0  0  0  0
   60.6610   33.8500   49.3050 C   0  0  0  0  0  0  0  0  0  0  0  0
   61.6260   33.2590   48.3810 N   0  0  0  0  0  0  0  0  0  0  0  0
   62.7330   33.8370   47.8900 C   0  0  0  0  0  0  0  0  0  0  0  0
   63.3930   32.9030   47.1230 C   0  0  0  0  0  0  0  0  0  0  0  0
   62.7110   31.7390   47.1420 N   0  0  0  0  0  0  0  0  0  0  0  0
   61.6410   31.9910   47.9250 C   0  0  0  0  0  0  0  0  0  0  0  0
   58.4120   33.2480   46.9620 C   0  0  0  0  0  0  0  0  0  0  0  0
   58.8730   30.1960   45.4040 C   0  0  0  0  0  0  0  0  0  0  0  0
   59.3800   28.9540   45.0080 C   0  0  0  0  0  0  0  0  0  0  0  0
   59.0487   27.1697   43.8201 H   0  0  0  0  0  0  0  0  0  0  0  0
   56.8474   27.9555   42.9415 H   0  0  0  0  0  0  0  0  0  0  0  0
   55.9353   30.1701   43.6500 H   0  0  0  0  0  0  0  0  0  0  0  0
   58.0502   33.6348   43.5828 H   0  0  0  0  0  0  0  0  0  0  0  0
   59.4960   35.6078   44.0594 H   0  0  0  0  0  0  0  0  0  0  0  0
   60.2418   36.0821   46.3891 H   0  0  0  0  0  0  0  0  0  0  0  0
   59.2720   35.4780   49.0760 H   0  0  0  0  0  0  0  0  0  0  0  0
   61.1933   34.4899   50.0242 H   0  0  0  0  0  0  0  0  0  0  0  0
   60.1340   33.0423   49.8341 H   0  0  0  0  0  0  0  0  0  0  0  0
   63.0560   34.8732   48.0685 H   0  0  0  0  0  0  0  0  0  0  0  0
   64.3323   33.0789   46.5783 H   0  0  0  0  0  0  0  0  0  0  0  0
   60.8683   31.2455   48.1640 H   0  0  0  0  0  0  0  0  0  0  0  0
   58.1218   32.5675   47.7761 H   0  0  0  0  0  0  0  0  0  0  0  0
   59.4558   30.8322   46.0863 H   0  0  0  0  0  0  0  0  0  0  0  0
   60.3531   28.6109   45.3892 H   0  0  0  0  0  0  0  0  0  0  0  0
  1  2  2  0
  2  3  1  0
  3  4  2  0
  4  5  1  0
  5  6  1  0
  6  7  2  0
  7  8  1  0
  8  9  2  0
  9 10  1  0
 10 11  1  0
 11 12  1  0
 12 13  1  0
 13 14  1  0
 14 15  2  0
 15 16  1  0
 16 17  2  0
 10 18  2  0
  4 19  1  0
 19 20  2  0
 20  1  1  0
 18  6  1  0
 17 13  1  0
  1 21  1  0
  2 22  1  0
  3 23  1  0
  7 24  1  0
  8 25  1  0
  9 26  1  0
 11 27  1  0
 12 28  1  0
 12 29  1  0
 14 30  1  0
 15 31  1  0
 17 32  1  0
 18 33  1  0
 19 34  1  0
 20 35  1  0
M  END
>  <UniqueID>  (79) 
67

>  <SMILES>  (79) 
c1ccc(Oc2cccc(NCn3ccnc3)c2)cc1

>  <Energy>  (79) 
69.64618562398687

>  <Genealogy>  (79) 
c1ccc(Oc2cccc(NCn3ccnc3)c2)cc1 (3D coordinates assigned)
c1ccc(Oc2cccc(NCn3ccnc3)c2)cc1 (optimized conformer: 69.64618562398687 kcal/mol)

>  <smiles>  (79) 
c1ccc(Oc2cccc(NCn3ccnc3)c2)cc1

>  <score_type>  (79) 
oracle

>  <origin>  (79) 
adg

>  <m_score__min__energy>  (79) 
-6.9400000000000004

>  <m_primary>  (79) 
energy

$$$$
79:0
     RDKit          3D

 27 28  0  0  0  0  0  0  0  0999 V2000
   55.1550   28.0120   45.0120 H   0  0  0  0  0  0  0  0  0  0  0  0
   55.9210   28.6830   45.2370 N   0  0  0  0  0  0  0  0  0  0  0  0
   57.0080   28.3340   45.8520 C   0  0  0  0  0  0  0  0  0  0  0  0
   57.2520   27.0890   46.3970 C   0  0  0  0  0  0  0  0  0  0  0  0
   56.4080   25.8830   46.3600 C   0  0  0  0  0  0  0  0  0  0  0  0
   56.8770   24.7770   46.7380 O   0  0  0  0  0  0  0  0  0  0  0  0
   55.0610   25.9560   45.8990 N   0  0  0  0  0  0  0  0  0  0  0  0
   54.7560   26.7190   45.2550 H   0  0  0  0  0  0  0  0  0  0  0  0
   58.4750   27.2300   47.0320 C   0  0  0  0  0  0  0  0  0  0  0  0
   58.9964   26.4365   47.5874 H   0  0  0  0  0  0  0  0  0  0  0  0
   58.9290   28.4900   46.8650 N   0  0  0  0  0  0  0  0  0  0  0  0
   58.0400   29.1560   46.1410 N   0  0  0  0  0  0  0  0  0  0  0  0
   58.2190   30.5280   45.7510 C   0  0  0  0  0  0  0  0  0  0  0  0
   57.6460   30.9950   44.5630 C   0  0  0  0  0  0  0  0  0  0  0  0
   57.0716   30.3117   43.9202 H   0  0  0  0  0  0  0  0  0  0  0  0
   57.8070   32.3320   44.1980 C   0  0  0  0  0  0  0  0  0  0  0  0
   57.3700   32.7030   43.2592 H   0  0  0  0  0  0  0  0  0  0  0  0
   58.5280   33.2040   45.0310 C   0  0  0  0  0  0  0  0  0  0  0  0
   58.7260   34.5570   44.7210 O   0  0  0  0  0  0  0  0  0  0  0  0
   59.6040   35.4230   45.4340 C   0  0  0  0  0  0  0  0  0  0  0  0
   59.4604   35.2814   46.5154 H   0  0  0  0  0  0  0  0  0  0  0  0
   60.6455   35.1887   45.1686 H   0  0  0  0  0  0  0  0  0  0  0  0
   59.3841   36.4676   45.1686 H   0  0  0  0  0  0  0  0  0  0  0  0
   59.0650   32.7030   46.2210 C   0  0  0  0  0  0  0  0  0  0  0  0
   59.6270   33.3715   46.8898 H   0  0  0  0  0  0  0  0  0  0  0  0
   58.8980   31.3940   46.5590 N   0  0  0  0  0  0  0  0  0  0  0  0
   59.2800   31.0630   47.4720 H   0  0  0  0  0  0  0  0  0  0  0  0
  1  2  1  0
  2  3  2  0
  3  4  1  0
  4  5  1  0
  5  6  2  0
  5  7  1  0
  7  8  1  0
  4  9  2  0
  9 10  1  0
  9 11  1  0
 11 12  1  0
 12 13  1  0
 13 14  2  0
 14 15  1  0
 14 16  1  0
 16 17  1  0
 16 18  2  0
 18 19  1  0
 19 20  1  0
 20 21  1  0
 20 22  1  0
 20 23  1  0
 18 24  1  0
 24 25  1  0
 24 26  2  0
 26 27  1  0
 12  3  1  0
 26 13  1  0
M  CHG  3   7  -1  11  -1  26   1
M  END
>  <UniqueID>  (80) 
68

>  <SMILES>  (80) 
[H]/N=c1/c(C([NH-])=O)c[n-]n1-c1ccc(OC)c[nH+]1

>  <Energy>  (80) 
64.19870923737636

>  <Genealogy>  (80) 
COc1ccc(-n2[n-]cc(C([NH-])=O)c2=N)[nH+]c1 (protonated)
[H]/N=c1/c(C([NH-])=O)c[n-]n1-c1ccc(OC)c[nH+]1 (cis-trans isomerization)
[H]/N=c1/c(C([NH-])=O)c[n-]n1-c1ccc(OC)c[nH+]1 (3D coordinates assigned)
[H]/N=c1/c(C([NH-])=O)c[n-]n1-c1ccc(OC)c[nH+]1 (optimized conformer: 64.19870923737636 kcal/mol)

>  <smiles>  (80) 
COc1ccc(-n2[nH]cc(C(N)=O)c2=N)nc1

>  <score_type>  (80) 
oracle

>  <origin>  (80) 
adg

>  <m_score__min__energy>  (80) 
-7.6299999999999999

>  <m_primary>  (80) 
energy

$$$$
80:0
     RDKit          3D

 42 45  0  0  0  0  0  0  0  0999 V2000
   59.8193   35.9294   45.8330 H   0  0  0  0  0  0  0  0  0  0  0  0
   59.3140   34.9560   45.7480 C   0  0  0  0  0  0  0  0  0  0  0  0
   59.1320   34.3700   44.4910 C   0  0  0  0  0  0  0  0  0  0  0  0
   59.5018   34.8784   43.5883 H   0  0  0  0  0  0  0  0  0  0  0  0
   61.6000   30.6230   47.5180 C   0  0  0  0  0  0  0  0  0  0  0  0
   61.2300   30.4315   46.4999 H   0  0  0  0  0  0  0  0  0  0  0  0
   61.1030   29.8720   48.5920 C   0  0  0  0  0  0  0  0  0  0  0  0
   57.3640   31.2040   45.4470 N   0  0  0  0  0  0  0  0  0  0  0  0
   57.7990   30.0840   45.9550 C   0  0  0  0  0  0  0  0  0  0  0  0
   57.2780   28.9190   45.4960 N   0  0  0  0  0  0  0  0  0  0  0  0
   57.6980   27.7240   45.9880 C   0  0  0  0  0  0  0  0  0  0  0  0
   57.1150   26.4560   45.4870 C   0  0  0  0  0  0  0  0  0  0  0  0
   57.7700   25.7140   44.4850 C   0  0  0  0  0  0  0  0  0  0  0  0
   58.7225   26.0769   44.0714 H   0  0  0  0  0  0  0  0  0  0  0  0
   57.2180   24.5190   44.0120 C   0  0  0  0  0  0  0  0  0  0  0  0
   57.7373   23.9468   43.2291 H   0  0  0  0  0  0  0  0  0  0  0  0
   56.0100   24.0510   44.5310 C   0  0  0  0  0  0  0  0  0  0  0  0
   55.5779   23.1109   44.1574 H   0  0  0  0  0  0  0  0  0  0  0  0
   55.3500   24.7770   45.5250 C   0  0  0  0  0  0  0  0  0  0  0  0
   54.1760   24.3200   46.0290 F   0  0  0  0  0  0  0  0  0  0  0  0
   55.8960   25.9730   46.0020 C   0  0  0  0  0  0  0  0  0  0  0  0
   55.3702   26.5401   46.7843 H   0  0  0  0  0  0  0  0  0  0  0  0
   58.6600   27.7060   46.9460 N   0  0  0  0  0  0  0  0  0  0  0  0
   59.2150   28.8590   47.3990 C   0  0  0  0  0  0  0  0  0  0  0  0
   60.1330   28.8440   48.3240 N   0  0  0  0  0  0  0  0  0  0  0  0
   57.9830   32.4950   45.5300 C   0  0  0  0  0  0  0  0  0  0  0  0
   61.6250   30.0890   49.8820 C   0  0  0  0  0  0  0  0  0  0  0  0
   61.2735   29.4773   50.7259 H   0  0  0  0  0  0  0  0  0  0  0  0
   62.5630   31.6140   47.7320 C   0  0  0  0  0  0  0  0  0  0  0  0
   62.9348   32.2108   46.8861 H   0  0  0  0  0  0  0  0  0  0  0  0
   63.0540   31.8470   49.0210 C   0  0  0  0  0  0  0  0  0  0  0  0
   64.2650   33.0880   49.2880 Cl  0  0  0  0  0  0  0  0  0  0  0  0
   62.5890   31.0800   50.0930 C   0  0  0  0  0  0  0  0  0  0  0  0
   62.9822   31.2563   51.1051 H   0  0  0  0  0  0  0  0  0  0  0  0
   58.4800   33.1380   44.3820 C   0  0  0  0  0  0  0  0  0  0  0  0
   58.3552   32.6697   43.3945 H   0  0  0  0  0  0  0  0  0  0  0  0
   58.7820   30.0520   46.9050 N   0  0  0  0  0  0  0  0  0  0  0  0
   59.2460   30.9250   47.2400 H   0  0  0  0  0  0  0  0  0  0  0  0
   58.2010   33.0730   46.7900 C   0  0  0  0  0  0  0  0  0  0  0  0
   57.7690   32.4450   47.9120 F   0  0  0  0  0  0  0  0  0  0  0  0
   58.8540   34.3050   46.8960 C   0  0  0  0  0  0  0  0  0  0  0  0
   59.0059   34.7626   47.8847 H   0  0  0  0  0  0  0  0  0  0  0  0
  1  2  1  0
  2  3  2  0
  3  4  1  0
  3  5  1  0
  5  6  1  0
  5  7  2  0
  7  8  1  0
  8  9  2  0
  9 10  1  0
 10 11  2  0
 11 12  1  0
 12 13  2  0
 13 14  1  0
 13 15  1  0
 15 16  1  0
 15 17  2  0
 17 18  1  0
 17 19  1  0
 19 20  1  0
 19 21  2  0
 21 22  1  0
 11 23  1  0
 23 24  1  0
 24 25  2  0
 25 26  1  0
 26 27  2  0
 27 28  1  0
 27 29  1  0
 29 30  1  0
 29 31  2  0
 31 32  1  0
 31 33  1  0
 33 34  1  0
 33 35  2  0
 35 36  1  0
 24 37  1  0
 37 38  1  0
  7 39  1  0
 39 40  1  0
 39 41  2  0
 41 42  1  0
 41  2  1  0
 37  9  1  0
 21 12  1  0
 35 26  1  0
M  CHG  1  23  -1
M  END
>  <UniqueID>  (81) 
69

>  <SMILES>  (81) 
Fc1cccc(-c2n/c(=N/c3ccccc3F)[nH]/c(=N/c3ccc(Cl)cc3)[n-]2)c1

>  <Energy>  (81) 
63.837100371215385

>  <Genealogy>  (81) 
Fc1cccc(-c2nc(=Nc3ccccc3F)[nH]c(=Nc3ccc(Cl)cc3)[n-]2)c1 (protonated)
Fc1cccc(-c2n/c(=N/c3ccccc3F)[nH]/c(=N/c3ccc(Cl)cc3)[n-]2)c1 (cis-trans isomerization)
Fc1cccc(-c2n/c(=N/c3ccccc3F)[nH]/c(=N/c3ccc(Cl)cc3)[n-]2)c1 (3D coordinates assigned)
Fc1cccc(-c2n/c(=N/c3ccccc3F)[nH]/c(=N/c3ccc(Cl)cc3)[n-]2)c1 (optimized conformer: 63.837100371215385 kcal/mol)

>  <smiles>  (81) 
Fc1cccc(-c2nc(=Nc3ccccc3F)[nH]c(=Nc3ccc(Cl)cc3)[nH]2)c1

>  <score_type>  (81) 
oracle

>  <origin>  (81) 
adg

>  <m_score__min__energy>  (81) 
-9.6300000000000008

>  <m_primary>  (81) 
energy

$$$$
81:0
     RDKit          3D

 38 40  0  0  0  0  0  0  0  0999 V2000
   56.3190   29.8680   42.7990 O   0  0  0  0  0  0  0  0  0  0  0  0
   56.4020   29.9250   44.2970 S   0  0  0  0  0  0  0  0  0  0  0  0
   55.1420   29.3510   44.8830 O   0  0  0  0  0  0  0  0  0  0  0  0
   56.5660   31.5770   44.7970 N   0  0  0  0  0  0  0  0  0  0  0  0
   57.7010   32.1250   45.4810 C   0  0  0  0  0  0  0  0  0  0  0  0
   58.3740   33.2070   44.9010 C   0  0  0  0  0  0  0  0  0  0  0  0
   59.4880   33.7680   45.5320 C   0  0  0  0  0  0  0  0  0  0  0  0
   59.9460   33.2620   46.7570 C   0  0  0  0  0  0  0  0  0  0  0  0
   61.0900   33.8710   47.3830 N   0  0  0  0  0  0  0  0  0  0  0  0
   62.6810   33.1770   47.3770 S   0  0  0  0  0  0  0  0  0  0  0  0
   62.5760   31.7090   47.0730 O   0  0  0  0  0  0  0  0  0  0  0  0
   63.5060   33.8400   46.3100 O   0  0  0  0  0  0  0  0  0  0  0  0
   63.4600   33.4360   48.9360 C   0  0  0  0  0  0  0  0  0  0  0  0
   62.7560   34.0390   49.9880 C   0  0  0  0  0  0  0  0  0  0  0  0
   63.3830   34.2550   51.2180 C   0  0  0  0  0  0  0  0  0  0  0  0
   64.7150   33.8700   51.4030 C   0  0  0  0  0  0  0  0  0  0  0  0
   65.4200   33.2640   50.3580 C   0  0  0  0  0  0  0  0  0  0  0  0
   67.0900   32.7830   50.5880 Cl  0  0  0  0  0  0  0  0  0  0  0  0
   64.7920   33.0450   49.1270 C   0  0  0  0  0  0  0  0  0  0  0  0
   59.2720   32.1710   47.3360 C   0  0  0  0  0  0  0  0  0  0  0  0
   58.1580   31.6110   46.7060 C   0  0  0  0  0  0  0  0  0  0  0  0
   57.7950   29.0010   44.8260 C   0  0  0  0  0  0  0  0  0  0  0  0
   57.7540   27.8220   45.5550 C   0  0  0  0  0  0  0  0  0  0  0  0
   59.0250   27.2990   45.8140 C   0  0  0  0  0  0  0  0  0  0  0  0
   60.0610   28.0630   45.2910 C   0  0  0  0  0  0  0  0  0  0  0  0
   59.3950   29.3930   44.5020 S   0  0  0  0  0  0  0  0  0  0  0  0
   58.0239   33.6182   43.9427 H   0  0  0  0  0  0  0  0  0  0  0  0
   60.0105   34.6148   45.0630 H   0  0  0  0  0  0  0  0  0  0  0  0
   60.9560   34.7430   47.9430 H   0  0  0  0  0  0  0  0  0  0  0  0
   61.7084   34.3425   49.8449 H   0  0  0  0  0  0  0  0  0  0  0  0
   62.8285   34.7283   52.0417 H   0  0  0  0  0  0  0  0  0  0  0  0
   65.2082   34.0439   52.3707 H   0  0  0  0  0  0  0  0  0  0  0  0
   65.3455   32.5645   48.3068 H   0  0  0  0  0  0  0  0  0  0  0  0
   59.6248   31.7560   48.2917 H   0  0  0  0  0  0  0  0  0  0  0  0
   57.6355   30.7625   47.1719 H   0  0  0  0  0  0  0  0  0  0  0  0
   56.8207   27.3484   45.8937 H   0  0  0  0  0  0  0  0  0  0  0  0
   59.1891   26.3696   46.3790 H   0  0  0  0  0  0  0  0  0  0  0  0
   61.1341   27.8373   45.3777 H   0  0  0  0  0  0  0  0  0  0  0  0
  1  2  2  0
  2  3  2  0
  2  4  1  0
  4  5  1  0
  5  6  2  0
  6  7  1  0
  7  8  2  0
  8  9  1  0
  9 10  1  0
 10 11  2  0
 10 12  2  0
 10 13  1  0
 13 14  2  0
 14 15  1  0
 15 16  2  0
 16 17  1  0
 17 18  1  0
 17 19  2  0
  8 20  1  0
 20 21  2  0
  2 22  1  0
 22 23  2  0
 23 24  1  0
 24 25  2  0
 25 26  1  0
 21  5  1  0
 26 22  1  0
 19 13  1  0
  6 27  1  0
  7 28  1  0
  9 29  1  0
 14 30  1  0
 15 31  1  0
 16 32  1  0
 19 33  1  0
 20 34  1  0
 21 35  1  0
 23 36  1  0
 24 37  1  0
 25 38  1  0
M  CHG  1   4  -1
M  END
>  <UniqueID>  (82) 
70

>  <SMILES>  (82) 
O=S(=O)([N-]c1ccc(NS(=O)(=O)c2cccc(Cl)c2)cc1)c1cccs1

>  <Energy>  (82) 
71.90179419150269

>  <Genealogy>  (82) 
O=S(=O)([N-]c1ccc(NS(=O)(=O)c2cccc(Cl)c2)cc1)c1cccs1 (protonated)
O=S(=O)([N-]c1ccc(NS(=O)(=O)c2cccc(Cl)c2)cc1)c1cccs1 (3D coordinates assigned)
O=S(=O)([N-]c1ccc(NS(=O)(=O)c2cccc(Cl)c2)cc1)c1cccs1 (optimized conformer: 71.90179419150269 kcal/mol)

>  <smiles>  (82) 
O=S(=O)(Nc1ccc(NS(=O)(=O)c2cccs2)cc1)c1cccc(Cl)c1

>  <score_type>  (82) 
oracle

>  <origin>  (82) 
adg

>  <m_score__min__energy>  (82) 
-11.220000000000001

>  <m_primary>  (82) 
energy

$$$$
82:0
     RDKit          3D

 43 45  0  0  0  0  0  0  0  0999 V2000
   60.0360   28.1620   46.3280 C   0  0  0  0  0  0  0  0  0  0  0  0
   60.3730   28.9590   45.2310 C   0  0  0  0  0  0  0  0  0  0  0  0
   59.3720   29.6200   44.5110 C   0  0  0  0  0  0  0  0  0  0  0  0
   58.0240   29.4770   44.8810 C   0  0  0  0  0  0  0  0  0  0  0  0
   56.9360   30.1850   44.1180 C   0  0  0  0  0  0  0  0  0  0  0  0
   56.5220   31.3640   44.8100 O   0  0  0  0  0  0  0  0  0  0  0  0
   57.3720   32.3950   45.2440 C   0  0  0  0  0  0  0  0  0  0  0  0
   57.7560   33.4650   44.4140 C   0  0  0  0  0  0  0  0  0  0  0  0
   58.6130   34.4570   44.8950 C   0  0  0  0  0  0  0  0  0  0  0  0
   59.0940   34.3950   46.2030 C   0  0  0  0  0  0  0  0  0  0  0  0
   58.7100   33.3430   47.0480 C   0  0  0  0  0  0  0  0  0  0  0  0
   59.2050   33.3000   48.4710 C   0  0  0  0  0  0  0  0  0  0  0  0
   59.4530   31.9130   48.8990 N   0  0  0  0  0  0  0  0  0  0  0  0
   60.4580   31.2350   48.0660 C   0  0  0  0  0  0  0  0  0  0  0  0
   61.7340   32.0320   47.9920 C   0  0  0  0  0  0  0  0  0  0  0  0
   62.0180   32.8320   46.8760 C   0  0  0  0  0  0  0  0  0  0  0  0
   63.2170   33.5430   46.8130 C   0  0  0  0  0  0  0  0  0  0  0  0
   64.1240   33.4490   47.8700 C   0  0  0  0  0  0  0  0  0  0  0  0
   63.8320   32.6790   48.9520 N   0  0  0  0  0  0  0  0  0  0  0  0
   62.6670   31.9820   49.0390 C   0  0  0  0  0  0  0  0  0  0  0  0
   57.8580   32.3410   46.5560 C   0  0  0  0  0  0  0  0  0  0  0  0
   57.6950   28.6780   45.9880 C   0  0  0  0  0  0  0  0  0  0  0  0
   58.6990   28.0240   46.7080 C   0  0  0  0  0  0  0  0  0  0  0  0
   60.8243   27.6428   46.8929 H   0  0  0  0  0  0  0  0  0  0  0  0
   61.4264   29.0669   44.9332 H   0  0  0  0  0  0  0  0  0  0  0  0
   59.6410   30.2534   43.6529 H   0  0  0  0  0  0  0  0  0  0  0  0
   57.3145   30.4637   43.1235 H   0  0  0  0  0  0  0  0  0  0  0  0
   56.0734   29.5093   44.0213 H   0  0  0  0  0  0  0  0  0  0  0  0
   57.3793   33.5200   43.3820 H   0  0  0  0  0  0  0  0  0  0  0  0
   58.9097   35.2899   44.2405 H   0  0  0  0  0  0  0  0  0  0  0  0
   59.7769   35.1738   46.5732 H   0  0  0  0  0  0  0  0  0  0  0  0
   60.1415   33.8724   48.5441 H   0  0  0  0  0  0  0  0  0  0  0  0
   58.4356   33.7373   49.1243 H   0  0  0  0  0  0  0  0  0  0  0  0
   59.8370   31.9530   49.8730 H   0  0  0  0  0  0  0  0  0  0  0  0
   60.6764   30.2480   48.4998 H   0  0  0  0  0  0  0  0  0  0  0  0
   60.0534   31.1314   47.0484 H   0  0  0  0  0  0  0  0  0  0  0  0
   61.2951   32.8991   46.0496 H   0  0  0  0  0  0  0  0  0  0  0  0
   63.4452   34.1712   45.9393 H   0  0  0  0  0  0  0  0  0  0  0  0
   65.0760   33.9985   47.8275 H   0  0  0  0  0  0  0  0  0  0  0  0
   62.4556   31.3771   49.9331 H   0  0  0  0  0  0  0  0  0  0  0  0
   57.5691   31.5041   47.2088 H   0  0  0  0  0  0  0  0  0  0  0  0
   56.6431   28.5663   46.2897 H   0  0  0  0  0  0  0  0  0  0  0  0
   58.4358   27.4000   47.5748 H   0  0  0  0  0  0  0  0  0  0  0  0
  1  2  2  0
  2  3  1  0
  3  4  2  0
  4  5  1  0
  5  6  1  0
  6  7  1  0
  7  8  2  0
  8  9  1  0
  9 10  2  0
 10 11  1  0
 11 12  1  0
 12 13  1  0
 13 14  1  0
 14 15  1  0
 15 16  2  0
 16 17  1  0
 17 18  2  0
 18 19  1  0
 19 20  2  0
 11 21  2  0
  4 22  1  0
 22 23  2  0
 23  1  1  0
 21  7  1  0
 20 15  1  0
  1 24  1  0
  2 25  1  0
  3 26  1  0
  5 27  1  0
  5 28  1  0
  8 29  1  0
  9 30  1  0
 10 31  1  0
 12 32  1  0
 12 33  1  0
 13 34  1  0
 14 35  1  0
 14 36  1  0
 16 37  1  0
 17 38  1  0
 18 39  1  0
 20 40  1  0
 21 41  1  0
 22 42  1  0
 23 43  1  0
M  END
>  <UniqueID>  (83) 
71

>  <SMILES>  (83) 
c1ccc(COc2cccc(CNCc3cccnc3)c2)cc1

>  <Energy>  (83) 
40.974306830004934

>  <Genealogy>  (83) 
c1ccc(COc2cccc(CNCc3cccnc3)c2)cc1 (3D coordinates assigned)
c1ccc(COc2cccc(CNCc3cccnc3)c2)cc1 (optimized conformer: 40.974306830004934 kcal/mol)

>  <smiles>  (83) 
c1ccc(COc2cccc(CNCc3cccnc3)c2)cc1

>  <score_type>  (83) 
oracle

>  <origin>  (83) 
adg

>  <m_score__min__energy>  (83) 
-7.4900000000000002

>  <m_primary>  (83) 
energy

$$$$
83:0
     RDKit          3D

 44 46  0  0  0  0  0  0  0  0999 V2000
   54.8370   25.9550   45.6680 N   0  0  0  0  0  0  0  0  0  0  0  0
   54.7880   24.2540   45.9740 S   0  0  0  0  0  0  0  0  0  0  0  0
   53.5220   23.7000   45.3810 O   0  0  0  0  0  0  0  0  0  0  0  0
   54.7920   24.0240   47.4580 O   0  0  0  0  0  0  0  0  0  0  0  0
   56.1890   23.4520   45.2470 C   0  0  0  0  0  0  0  0  0  0  0  0
   56.0560   22.1380   44.7700 C   0  0  0  0  0  0  0  0  0  0  0  0
   57.1470   21.4750   44.2020 C   0  0  0  0  0  0  0  0  0  0  0  0
   58.3810   22.1160   44.1030 C   0  0  0  0  0  0  0  0  0  0  0  0
   58.5280   23.4240   44.5650 C   0  0  0  0  0  0  0  0  0  0  0  0
   57.4400   24.1030   45.1370 C   0  0  0  0  0  0  0  0  0  0  0  0
   57.6390   25.4910   45.5990 C   0  0  0  0  0  0  0  0  0  0  0  0
   57.6420   25.7540   46.9750 C   0  0  0  0  0  0  0  0  0  0  0  0
   57.8170   27.0560   47.4410 C   0  0  0  0  0  0  0  0  0  0  0  0
   57.9840   28.1070   46.5400 C   0  0  0  0  0  0  0  0  0  0  0  0
   57.9730   27.8710   45.1540 C   0  0  0  0  0  0  0  0  0  0  0  0
   58.1430   28.9620   44.2300 N   0  0  0  0  0  0  0  0  0  0  0  0
   57.0040   30.2640   44.0950 S   0  0  0  0  0  0  0  0  0  0  0  0
   56.6610   30.4710   42.6470 O   0  0  0  0  0  0  0  0  0  0  0  0
   55.7540   29.9130   44.8510 O   0  0  0  0  0  0  0  0  0  0  0  0
   57.6910   31.7280   44.7930 C   0  0  0  0  0  0  0  0  0  0  0  0
   57.8140   32.8790   44.0050 C   0  0  0  0  0  0  0  0  0  0  0  0
   58.3480   34.0470   44.5480 C   0  0  0  0  0  0  0  0  0  0  0  0
   58.7580   34.0780   45.8840 C   0  0  0  0  0  0  0  0  0  0  0  0
   58.6180   32.9390   46.6960 C   0  0  0  0  0  0  0  0  0  0  0  0
   59.1010   32.9540   48.1250 C   0  0  0  0  0  0  0  0  0  0  0  0
   60.2570   32.2040   48.2590 F   0  0  0  0  0  0  0  0  0  0  0  0
   59.3760   34.2480   48.5320 F   0  0  0  0  0  0  0  0  0  0  0  0
   58.1210   32.4220   48.9420 F   0  0  0  0  0  0  0  0  0  0  0  0
   58.1040   31.7570   46.1330 C   0  0  0  0  0  0  0  0  0  0  0  0
   57.8030   26.5510   44.6810 C   0  0  0  0  0  0  0  0  0  0  0  0
   57.7690   26.2200   42.9460 Cl  0  0  0  0  0  0  0  0  0  0  0  0
   53.8980   26.3380   45.9150 H   0  0  0  0  0  0  0  0  0  0  0  0
   55.0850   21.6264   44.8441 H   0  0  0  0  0  0  0  0  0  0  0  0
   57.0320   20.4454   43.8323 H   0  0  0  0  0  0  0  0  0  0  0  0
   59.2396   21.5899   43.6602 H   0  0  0  0  0  0  0  0  0  0  0  0
   59.5027   23.9269   44.4807 H   0  0  0  0  0  0  0  0  0  0  0  0
   57.5057   24.9297   47.6906 H   0  0  0  0  0  0  0  0  0  0  0  0
   57.8234   27.2550   48.5228 H   0  0  0  0  0  0  0  0  0  0  0  0
   58.1257   29.1305   46.9172 H   0  0  0  0  0  0  0  0  0  0  0  0
   58.9090   28.9340   43.5210 H   0  0  0  0  0  0  0  0  0  0  0  0
   57.4884   32.8617   42.9544 H   0  0  0  0  0  0  0  0  0  0  0  0
   58.4469   34.9468   43.9231 H   0  0  0  0  0  0  0  0  0  0  0  0
   59.1923   34.9981   46.3020 H   0  0  0  0  0  0  0  0  0  0  0  0
   58.0253   30.8486   46.7483 H   0  0  0  0  0  0  0  0  0  0  0  0
  1  2  1  0
  2  3  2  0
  2  4  2  0
  2  5  1  0
  5  6  2  0
  6  7  1  0
  7  8  2  0
  8  9  1  0
  9 10  2  0
 10 11  1  0
 11 12  2  0
 12 13  1  0
 13 14  2  0
 14 15  1  0
 15 16  1  0
 16 17  1  0
 17 18  2  0
 17 19  2  0
 17 20  1  0
 20 21  2  0
 21 22  1  0
 22 23  2  0
 23 24  1  0
 24 25  1  0
 25 26  1  0
 25 27  1  0
 25 28  1  0
 24 29  2  0
 15 30  2  0
 30 31  1  0
 10  5  1  0
 30 11  1  0
 29 20  1  0
  1 32  1  0
  6 33  1  0
  7 34  1  0
  8 35  1  0
  9 36  1  0
 12 37  1  0
 13 38  1  0
 14 39  1  0
 16 40  1  0
 21 41  1  0
 22 42  1  0
 23 43  1  0
 29 44  1  0
M  CHG  1   1  -1
M  END
>  <UniqueID>  (84) 
72

>  <SMILES>  (84) 
[NH-]S(=O)(=O)c1ccccc1-c1cccc(NS(=O)(=O)c2cccc(C(F)(F)F)c2)c1Cl

>  <Energy>  (84) 
60.607429383085766

>  <Genealogy>  (84) 
[NH-]S(=O)(=O)c1ccccc1-c1cccc(NS(=O)(=O)c2cccc(C(F)(F)F)c2)c1Cl (protonated)
[NH-]S(=O)(=O)c1ccccc1-c1cccc(NS(=O)(=O)c2cccc(C(F)(F)F)c2)c1Cl (3D coordinates assigned)
[NH-]S(=O)(=O)c1ccccc1-c1cccc(NS(=O)(=O)c2cccc(C(F)(F)F)c2)c1Cl (optimized conformer: 60.607429383085766 kcal/mol)

>  <smiles>  (84) 
NS(=O)(=O)c1ccccc1-c1cccc(NS(=O)(=O)c2cccc(C(F)(F)F)c2)c1Cl

>  <score_type>  (84) 
oracle

>  <origin>  (84) 
adg

>  <m_score__min__energy>  (84) 
-12.93

>  <m_primary>  (84) 
energy

$$$$
84:0
     RDKit          3D

 27 29  0  0  0  0  0  0  0  0999 V2000
   61.1250   28.2250   45.1430 O   0  0  0  0  0  0  0  0  0  0  0  0
   59.8660   28.3100   45.1520 C   0  0  0  0  0  0  0  0  0  0  0  0
   59.2230   29.5650   44.7250 C   0  0  0  0  0  0  0  0  0  0  0  0
   57.8870   29.6970   44.7140 C   0  0  0  0  0  0  0  0  0  0  0  0
   57.1550   31.2230   44.2140 S   0  0  0  0  0  0  0  0  0  0  0  0
   57.3440   31.4500   42.7400 O   0  0  0  0  0  0  0  0  0  0  0  0
   55.6800   31.1910   44.5010 O   0  0  0  0  0  0  0  0  0  0  0  0
   57.9070   32.5360   45.0970 C   0  0  0  0  0  0  0  0  0  0  0  0
   58.3620   33.7270   44.5530 C   0  0  0  0  0  0  0  0  0  0  0  0
   58.8850   34.6000   45.5150 C   0  0  0  0  0  0  0  0  0  0  0  0
   58.8360   34.0970   46.8090 C   0  0  0  0  0  0  0  0  0  0  0  0
   58.1400   32.5660   46.7600 S   0  0  0  0  0  0  0  0  0  0  0  0
   57.0220   28.5750   45.1530 C   0  0  0  0  0  0  0  0  0  0  0  0
   55.7690   28.7120   45.1620 O   0  0  0  0  0  0  0  0  0  0  0  0
   57.6340   27.2970   45.5860 C   0  0  0  0  0  0  0  0  0  0  0  0
   56.8490   26.2090   46.0000 C   0  0  0  0  0  0  0  0  0  0  0  0
   57.4410   25.0490   46.3920 N   0  0  0  0  0  0  0  0  0  0  0  0
   58.7920   24.9020   46.3990 C   0  0  0  0  0  0  0  0  0  0  0  0
   59.6140   25.9550   45.9970 C   0  0  0  0  0  0  0  0  0  0  0  0
   59.0350   27.1650   45.5850 C   0  0  0  0  0  0  0  0  0  0  0  0
   59.8505   30.4113   44.4087 H   0  0  0  0  0  0  0  0  0  0  0  0
   58.3170   33.9616   43.4792 H   0  0  0  0  0  0  0  0  0  0  0  0
   59.2958   35.5904   45.2693 H   0  0  0  0  0  0  0  0  0  0  0  0
   59.1921   34.6126   47.7130 H   0  0  0  0  0  0  0  0  0  0  0  0
   55.7524   26.2950   46.0073 H   0  0  0  0  0  0  0  0  0  0  0  0
   59.2386   23.9502   46.7225 H   0  0  0  0  0  0  0  0  0  0  0  0
   60.7077   25.8377   46.0029 H   0  0  0  0  0  0  0  0  0  0  0  0
  1  2  2  0
  2  3  1  0
  3  4  2  0
  4  5  1  0
  5  6  2  0
  5  7  2  0
  5  8  1  0
  8  9  2  0
  9 10  1  0
 10 11  2  0
 11 12  1  0
  4 13  1  0
 13 14  2  0
 13 15  1  0
 15 16  2  0
 16 17  1  0
 17 18  2  0
 18 19  1  0
 19 20  2  0
 20  2  1  0
 12  8  1  0
 20 15  1  0
  3 21  1  0
  9 22  1  0
 10 23  1  0
 11 24  1  0
 16 25  1  0
 18 26  1  0
 19 27  1  0
M  END
>  <UniqueID>  (85) 
73

>  <SMILES>  (85) 
O=C1C=C(S(=O)(=O)c2cccs2)C(=O)c2cnccc21

>  <Energy>  (85) 
60.17998209084212

>  <Genealogy>  (85) 
O=C1C=C(S(=O)(=O)c2cccs2)C(=O)c2cnccc21 (3D coordinates assigned)
O=C1C=C(S(=O)(=O)c2cccs2)C(=O)c2cnccc21 (nonaromatic ring conformer: 60.17998209084212 kcal/mol)

>  <smiles>  (85) 
O=C1C=C(S(=O)(=O)c2cccs2)C(=O)c2cnccc21

>  <score_type>  (85) 
oracle

>  <origin>  (85) 
adg

>  <m_score__min__energy>  (85) 
-8.0299999999999994

>  <m_primary>  (85) 
energy

$$$$
85:0
     RDKit          3D

 43 45  0  0  0  0  0  0  0  0999 V2000
   60.4260   27.7430   49.1110 C   0  0  0  0  0  0  0  0  0  0  0  0
   60.1330   29.0310   48.4010 C   0  0  0  0  0  0  0  0  0  0  0  0
   59.5520   30.1020   49.0950 C   0  0  0  0  0  0  0  0  0  0  0  0
   59.2420   31.2890   48.4260 C   0  0  0  0  0  0  0  0  0  0  0  0
   59.4840   31.4130   47.0490 C   0  0  0  0  0  0  0  0  0  0  0  0
   59.1280   32.6580   46.3330 C   0  0  0  0  0  0  0  0  0  0  0  0
   57.9120   32.7240   45.6310 C   0  0  0  0  0  0  0  0  0  0  0  0
   57.5740   33.8680   44.9060 C   0  0  0  0  0  0  0  0  0  0  0  0
   58.4420   34.9600   44.8720 C   0  0  0  0  0  0  0  0  0  0  0  0
   59.6490   34.9150   45.5730 C   0  0  0  0  0  0  0  0  0  0  0  0
   59.9990   33.7750   46.3150 C   0  0  0  0  0  0  0  0  0  0  0  0
   61.2140   33.7820   47.0820 N   0  0  0  0  0  0  0  0  0  0  0  0
   61.1350   34.0530   48.5250 C   0  0  0  0  0  0  0  0  0  0  0  0
   62.5210   34.0360   49.1810 C   0  0  0  0  0  0  0  0  0  0  0  0
   63.3420   32.8580   48.6350 C   0  0  0  0  0  0  0  0  0  0  0  0
   64.6730   32.7280   49.3840 C   0  0  0  0  0  0  0  0  0  0  0  0
   63.5720   32.9860   47.1080 C   0  0  0  0  0  0  0  0  0  0  0  0
   62.5060   33.8350   46.3870 C   0  0  0  0  0  0  0  0  0  0  0  0
   60.0620   30.3390   46.3540 C   0  0  0  0  0  0  0  0  0  0  0  0
   60.3750   29.1510   47.0240 C   0  0  0  0  0  0  0  0  0  0  0  0
   60.3887   27.9069   50.1981 H   0  0  0  0  0  0  0  0  0  0  0  0
   59.6763   26.9895   48.8279 H   0  0  0  0  0  0  0  0  0  0  0  0
   61.4279   27.3879   48.8279 H   0  0  0  0  0  0  0  0  0  0  0  0
   59.3394   30.0074   50.1701 H   0  0  0  0  0  0  0  0  0  0  0  0
   58.8055   32.1317   48.9821 H   0  0  0  0  0  0  0  0  0  0  0  0
   57.2217   31.8679   45.6531 H   0  0  0  0  0  0  0  0  0  0  0  0
   56.6202   33.9088   44.3596 H   0  0  0  0  0  0  0  0  0  0  0  0
   58.1755   35.8565   44.2929 H   0  0  0  0  0  0  0  0  0  0  0  0
   60.3302   35.7782   45.5438 H   0  0  0  0  0  0  0  0  0  0  0  0
   60.6803   35.0429   48.6776 H   0  0  0  0  0  0  0  0  0  0  0  0
   60.5255   33.2639   48.9897 H   0  0  0  0  0  0  0  0  0  0  0  0
   63.0421   34.9786   48.9576 H   0  0  0  0  0  0  0  0  0  0  0  0
   62.4059   33.9243   50.2692 H   0  0  0  0  0  0  0  0  0  0  0  0
   62.7622   31.9388   48.8050 H   0  0  0  0  0  0  0  0  0  0  0  0
   64.4870   32.7462   50.4680 H   0  0  0  0  0  0  0  0  0  0  0  0
   65.1563   31.7784   49.1108 H   0  0  0  0  0  0  0  0  0  0  0  0
   65.3309   33.5662   49.1108 H   0  0  0  0  0  0  0  0  0  0  0  0
   64.5552   33.4508   46.9432 H   0  0  0  0  0  0  0  0  0  0  0  0
   63.5105   31.9709   46.6886 H   0  0  0  0  0  0  0  0  0  0  0  0
   62.8480   34.8798   46.3478 H   0  0  0  0  0  0  0  0  0  0  0  0
   62.3693   33.4288   45.3739 H   0  0  0  0  0  0  0  0  0  0  0  0
   60.2698   30.4317   45.2778 H   0  0  0  0  0  0  0  0  0  0  0  0
   60.8124   28.3080   46.4691 H   0  0  0  0  0  0  0  0  0  0  0  0
  1  2  1  0
  2  3  2  0
  3  4  1  0
  4  5  2  0
  5  6  1  0
  6  7  2  0
  7  8  1  0
  8  9  2  0
  9 10  1  0
 10 11  2  0
 11 12  1  0
 12 13  1  0
 13 14  1  0
 14 15  1  0
 15 16  1  0
 15 17  1  0
 17 18  1  0
  5 19  1  0
 19 20  2  0
 20  2  1  0
 11  6  1  0
 18 12  1  0
  1 21  1  0
  1 22  1  0
  1 23  1  0
  3 24  1  0
  4 25  1  0
  7 26  1  0
  8 27  1  0
  9 28  1  0
 10 29  1  0
 13 30  1  0
 13 31  1  0
 14 32  1  0
 14 33  1  0
 15 34  1  0
 16 35  1  0
 16 36  1  0
 16 37  1  0
 17 38  1  0
 17 39  1  0
 18 40  1  0
 18 41  1  0
 19 42  1  0
 20 43  1  0
M  END
>  <UniqueID>  (86) 
74

>  <SMILES>  (86) 
Cc1ccc(-c2ccccc2N2CCC(C)CC2)cc1

>  <Energy>  (86) 
52.26310880213705

>  <Genealogy>  (86) 
Cc1ccc(-c2ccccc2N2CCC(C)CC2)cc1 (3D coordinates assigned)
Cc1ccc(-c2ccccc2N2CCC(C)CC2)cc1 (nonaromatic ring conformer: 52.26310880213705 kcal/mol)

>  <smiles>  (86) 
Cc1ccc(-c2ccccc2N2CCC(C)CC2)cc1

>  <score_type>  (86) 
oracle

>  <origin>  (86) 
adg

>  <m_score__min__energy>  (86) 
-7.2400000000000002

>  <m_primary>  (86) 
energy

$$$$
86:0
     RDKit          3D

 43 45  0  0  0  0  0  0  0  0999 V2000
   58.2795   34.0674   52.7873 H   0  0  0  0  0  0  0  0  0  0  0  0
   58.6750   33.4880   51.9400 C   0  0  0  0  0  0  0  0  0  0  0  0
   59.3200   34.1220   50.9260 N   0  0  0  0  0  0  0  0  0  0  0  0
   59.8260   33.4490   49.8540 C   0  0  0  0  0  0  0  0  0  0  0  0
   60.5190   34.2000   48.7810 C   0  0  0  0  0  0  0  0  0  0  0  0
   61.7470   34.5940   48.9730 N   0  0  0  0  0  0  0  0  0  0  0  0
   62.8130   33.8290   49.5630 C   0  0  0  0  0  0  0  0  0  0  0  0
   63.0770   33.9010   50.9440 C   0  0  0  0  0  0  0  0  0  0  0  0
   62.4450   34.5285   51.5896 H   0  0  0  0  0  0  0  0  0  0  0  0
   64.1370   33.1800   51.4990 C   0  0  0  0  0  0  0  0  0  0  0  0
   64.3280   33.2294   52.5812 H   0  0  0  0  0  0  0  0  0  0  0  0
   64.9540   32.3970   50.6820 C   0  0  0  0  0  0  0  0  0  0  0  0
   65.7813   31.8215   51.1229 H   0  0  0  0  0  0  0  0  0  0  0  0
   64.7230   32.3430   49.3060 C   0  0  0  0  0  0  0  0  0  0  0  0
   65.3755   31.7313   48.6656 H   0  0  0  0  0  0  0  0  0  0  0  0
   63.6610   33.0660   48.7340 C   0  0  0  0  0  0  0  0  0  0  0  0
   63.4210   33.0020   47.2520 C   0  0  0  0  0  0  0  0  0  0  0  0
   62.3742   32.7228   47.0618 H   0  0  0  0  0  0  0  0  0  0  0  0
   63.6252   33.9860   46.8047 H   0  0  0  0  0  0  0  0  0  0  0  0
   64.0880   32.2503   46.8047 H   0  0  0  0  0  0  0  0  0  0  0  0
   59.7910   34.6140   47.6100 N   0  0  0  0  0  0  0  0  0  0  0  0
   59.8790   35.6110   47.3080 H   0  0  0  0  0  0  0  0  0  0  0  0
   58.9750   33.7300   46.8220 C   0  0  0  0  0  0  0  0  0  0  0  0
   57.7970   34.1790   46.1990 C   0  0  0  0  0  0  0  0  0  0  0  0
   57.4906   35.2304   46.3026 H   0  0  0  0  0  0  0  0  0  0  0  0
   57.0130   33.2980   45.4490 C   0  0  0  0  0  0  0  0  0  0  0  0
   56.0988   33.6617   44.9572 H   0  0  0  0  0  0  0  0  0  0  0  0
   57.3880   31.9470   45.3200 C   0  0  0  0  0  0  0  0  0  0  0  0
   56.6360   31.0240   44.5780 O   0  0  0  0  0  0  0  0  0  0  0  0
   56.8700   30.7130   43.2080 C   0  0  0  0  0  0  0  0  0  0  0  0
   57.5300   29.8358   43.1387 H   0  0  0  0  0  0  0  0  0  0  0  0
   55.9127   30.4915   42.7136 H   0  0  0  0  0  0  0  0  0  0  0  0
   57.3480   31.5715   42.7136 H   0  0  0  0  0  0  0  0  0  0  0  0
   58.5510   31.4990   45.9550 C   0  0  0  0  0  0  0  0  0  0  0  0
   58.8507   30.4446   45.8639 H   0  0  0  0  0  0  0  0  0  0  0  0
   59.3360   32.3810   46.7050 C   0  0  0  0  0  0  0  0  0  0  0  0
   60.2432   32.0130   47.2066 H   0  0  0  0  0  0  0  0  0  0  0  0
   59.6830   32.0520   49.7930 C   0  0  0  0  0  0  0  0  0  0  0  0
   60.0872   31.4906   48.9378 H   0  0  0  0  0  0  0  0  0  0  0  0
   59.0240   31.3820   50.8260 C   0  0  0  0  0  0  0  0  0  0  0  0
   58.9072   30.2889   50.7876 H   0  0  0  0  0  0  0  0  0  0  0  0
   58.5140   32.1020   51.9070 C   0  0  0  0  0  0  0  0  0  0  0  0
   57.9910   31.5831   52.7239 H   0  0  0  0  0  0  0  0  0  0  0  0
  1  2  1  0
  2  3  2  0
  3  4  1  0
  4  5  1  0
  5  6  2  0
  6  7  1  0
  7  8  2  0
  8  9  1  0
  8 10  1  0
 10 11  1  0
 10 12  2  0
 12 13  1  0
 12 14  1  0
 14 15  1  0
 14 16  2  0
 16 17  1  0
 17 18  1  0
 17 19  1  0
 17 20  1  0
  5 21  1  0
 21 22  1  0
 21 23  1  0
 23 24  2  0
 24 25  1  0
 24 26  1  0
 26 27  1  0
 26 28  2  0
 28 29  1  0
 29 30  1  0
 30 31  1  0
 30 32  1  0
 30 33  1  0
 28 34  1  0
 34 35  1  0
 34 36  2  0
 36 37  1  0
  4 38  2  0
 38 39  1  0
 38 40  1  0
 40 41  1  0
 40 42  2  0
 42 43  1  0
 42  2  1  0
 16  7  1  0
 36 23  1  0
M  END
>  <UniqueID>  (87) 
75

>  <SMILES>  (87) 
COc1ccc(N/C(=N\c2ccccc2C)c2ccccn2)cc1

>  <Energy>  (87) 
56.63482408313252

>  <Genealogy>  (87) 
COc1ccc(N/C(=N\c2ccccc2C)c2ccccn2)cc1 (cis-trans isomerization)
COc1ccc(N/C(=N\c2ccccc2C)c2ccccn2)cc1 (3D coordinates assigned)
COc1ccc(N/C(=N\c2ccccc2C)c2ccccn2)cc1 (optimized conformer: 56.63482408313252 kcal/mol)

>  <smiles>  (87) 
COc1ccc(NC(=Nc2ccccc2C)c2ccccn2)cc1

>  <score_type>  (87) 
oracle

>  <origin>  (87) 
adg

>  <m_score__min__energy>  (87) 
-7.3300000000000001

>  <m_primary>  (87) 
energy

$$$$
87:0
     RDKit          3D

 48 50  0  0  0  0  0  0  0  0999 V2000
   58.4760   25.1393   42.9291 H   0  0  0  0  0  0  0  0  0  0  0  0
   57.7520   25.4730   43.6870 C   0  0  0  0  0  0  0  0  0  0  0  0
   57.0270   24.4810   44.4440 N   0  0  0  0  0  0  0  0  0  0  0  0
   55.9300   24.8450   45.3450 C   0  0  0  0  0  0  0  0  0  0  0  0
   56.2607   24.7353   46.3884 H   0  0  0  0  0  0  0  0  0  0  0  0
   55.6358   25.8889   45.1615 H   0  0  0  0  0  0  0  0  0  0  0  0
   55.0701   24.1840   45.1615 H   0  0  0  0  0  0  0  0  0  0  0  0
   57.3040   23.0630   44.2110 C   0  0  0  0  0  0  0  0  0  0  0  0
   57.4051   22.5457   45.1765 H   0  0  0  0  0  0  0  0  0  0  0  0
   56.4761   22.6166   43.6407 H   0  0  0  0  0  0  0  0  0  0  0  0
   58.2391   22.9609   43.6407 H   0  0  0  0  0  0  0  0  0  0  0  0
   57.5770   26.7520   43.8720 N   0  0  0  0  0  0  0  0  0  0  0  0
   56.9730   27.3030   43.2240 H   0  0  0  0  0  0  0  0  0  0  0  0
   58.1440   27.4500   44.9930 C   0  0  0  0  0  0  0  0  0  0  0  0
   59.0670   26.9560   45.9060 C   0  0  0  0  0  0  0  0  0  0  0  0
   59.6440   25.6390   45.9490 C   0  0  0  0  0  0  0  0  0  0  0  0
   60.1080   24.5790   45.9830 N   0  0  0  0  0  0  0  0  0  0  0  0
   59.4120   28.0060   46.7330 C   0  0  0  0  0  0  0  0  0  0  0  0
   60.1137   27.9458   47.5780 H   0  0  0  0  0  0  0  0  0  0  0  0
   58.7540   29.1180   46.3430 N   0  0  0  0  0  0  0  0  0  0  0  0
   58.7410   30.3410   47.0420 N   0  0  0  0  0  0  0  0  0  0  0  0
   57.8270   30.8300   47.1800 H   0  0  0  0  0  0  0  0  0  0  0  0
   59.9190   30.9100   47.6350 C   0  0  0  0  0  0  0  0  0  0  0  0
   61.1310   30.9850   46.9230 C   0  0  0  0  0  0  0  0  0  0  0  0
   61.1908   30.5847   45.9002 H   0  0  0  0  0  0  0  0  0  0  0  0
   62.2590   31.5660   47.5100 C   0  0  0  0  0  0  0  0  0  0  0  0
   63.2054   31.6142   46.9515 H   0  0  0  0  0  0  0  0  0  0  0  0
   62.1860   32.0860   48.8060 C   0  0  0  0  0  0  0  0  0  0  0  0
   63.0765   32.5358   49.2693 H   0  0  0  0  0  0  0  0  0  0  0  0
   60.9820   32.0340   49.5120 C   0  0  0  0  0  0  0  0  0  0  0  0
   60.9229   32.4494   50.5288 H   0  0  0  0  0  0  0  0  0  0  0  0
   59.8510   31.4540   48.9270 C   0  0  0  0  0  0  0  0  0  0  0  0
   58.9025   31.4242   49.4833 H   0  0  0  0  0  0  0  0  0  0  0  0
   57.9720   28.7970   45.2870 C   0  0  0  0  0  0  0  0  0  0  0  0
   57.0900   29.7410   44.5710 C   0  0  0  0  0  0  0  0  0  0  0  0
   56.7190   29.4840   43.3950 O   0  0  0  0  0  0  0  0  0  0  0  0
   56.7100   30.9740   45.1950 N   0  0  0  0  0  0  0  0  0  0  0  0
   57.4610   32.1960   45.2050 C   0  0  0  0  0  0  0  0  0  0  0  0
   58.1900   32.6330   44.0830 C   0  0  0  0  0  0  0  0  0  0  0  0
   58.2131   32.0200   43.1699 H   0  0  0  0  0  0  0  0  0  0  0  0
   58.8850   33.8460   44.1280 C   0  0  0  0  0  0  0  0  0  0  0  0
   59.4636   34.1789   43.2537 H   0  0  0  0  0  0  0  0  0  0  0  0
   58.8470   34.6360   45.2790 C   0  0  0  0  0  0  0  0  0  0  0  0
   59.3993   35.5867   45.3125 H   0  0  0  0  0  0  0  0  0  0  0  0
   58.1070   34.2180   46.3880 C   0  0  0  0  0  0  0  0  0  0  0  0
   58.0720   34.8426   47.2928 H   0  0  0  0  0  0  0  0  0  0  0  0
   57.4110   33.0060   46.3480 C   0  0  0  0  0  0  0  0  0  0  0  0
   56.8204   32.6860   47.2191 H   0  0  0  0  0  0  0  0  0  0  0  0
  1  2  1  0
  2  3  1  0
  3  4  1  0
  4  5  1  0
  4  6  1  0
  4  7  1  0
  3  8  1  0
  8  9  1  0
  8 10  1  0
  8 11  1  0
  2 12  2  0
 12 13  1  0
 12 14  1  0
 14 15  1  0
 15 16  1  0
 16 17  3  0
 15 18  2  0
 18 19  1  0
 18 20  1  0
 20 21  1  0
 21 22  1  0
 21 23  1  0
 23 24  2  0
 24 25  1  0
 24 26  1  0
 26 27  1  0
 26 28  2  0
 28 29  1  0
 28 30  1  0
 30 31  1  0
 30 32  2  0
 32 33  1  0
 20 34  1  0
 34 35  1  0
 35 36  2  0
 35 37  1  0
 37 38  1  0
 38 39  2  0
 39 40  1  0
 39 41  1  0
 41 42  1  0
 41 43  2  0
 43 44  1  0
 43 45  1  0
 45 46  1  0
 45 47  2  0
 47 48  1  0
 34 14  2  0
 47 38  1  0
 32 23  1  0
M  CHG  2  12   1  37  -1
M  END
>  <UniqueID>  (88) 
76

>  <SMILES>  (88) 
CN(C)/C=[NH+]/c1c(C#N)cn(Nc2ccccc2)c1C(=O)[N-]c1ccccc1

>  <Energy>  (88) 
89.21762806263663

>  <Genealogy>  (88) 
CN(C)C=[NH+]c1c(C#N)cn(Nc2ccccc2)c1C(=O)[N-]c1ccccc1 (protonated)
CN(C)/C=[NH+]/c1c(C#N)cn(Nc2ccccc2)c1C(=O)[N-]c1ccccc1 (cis-trans isomerization)
CN(C)/C=[NH+]/c1c(C#N)cn(Nc2ccccc2)c1C(=O)[N-]c1ccccc1 (3D coordinates assigned)
CN(C)/C=[NH+]/c1c(C#N)cn(Nc2ccccc2)c1C(=O)[N-]c1ccccc1 (optimized conformer: 89.21762806263663 kcal/mol)

>  <smiles>  (88) 
CN(C)C=Nc1c(C#N)cn(Nc2ccccc2)c1C(=O)Nc1ccccc1

>  <score_type>  (88) 
oracle

>  <origin>  (88) 
adg

>  <m_score__min__energy>  (88) 
-7.3200000000000003

>  <m_primary>  (88) 
energy

$$$$
88:0
     RDKit          3D

 45 48  0  0  0  0  0  0  0  0999 V2000
   55.5430   29.1560   44.9030 O   0  0  0  0  0  0  0  0  0  0  0  0
   56.7530   29.2860   45.2200 C   0  0  0  0  0  0  0  0  0  0  0  0
   57.2440   30.5860   45.5800 N   0  0  0  0  0  0  0  0  0  0  0  0
   57.3880   31.7250   44.6710 C   0  0  0  0  0  0  0  0  0  0  0  0
   58.0760   32.8820   45.3500 C   0  0  0  0  0  0  0  0  0  0  0  0
   58.2280   32.9060   46.7430 C   0  0  0  0  0  0  0  0  0  0  0  0
   58.9170   33.9560   47.3520 C   0  0  0  0  0  0  0  0  0  0  0  0
   59.4420   34.9790   46.5620 C   0  0  0  0  0  0  0  0  0  0  0  0
   59.2700   34.9580   45.2120 N   0  0  0  0  0  0  0  0  0  0  0  0
   58.5990   33.9460   44.5970 C   0  0  0  0  0  0  0  0  0  0  0  0
   57.6080   28.0920   45.2780 C   0  0  0  0  0  0  0  0  0  0  0  0
   57.2960   26.8720   44.7150 C   0  0  0  0  0  0  0  0  0  0  0  0
   58.1800   25.9580   45.1670 N   0  0  0  0  0  0  0  0  0  0  0  0
   58.1800   24.5440   44.8930 C   0  0  0  0  0  0  0  0  0  0  0  0
   59.1500   23.7140   45.4870 C   0  0  0  0  0  0  0  0  0  0  0  0
   59.1510   22.3370   45.2430 C   0  0  0  0  0  0  0  0  0  0  0  0
   58.1820   21.7720   44.4120 C   0  0  0  0  0  0  0  0  0  0  0  0
   57.2070   22.5820   43.8260 C   0  0  0  0  0  0  0  0  0  0  0  0
   57.2030   23.9600   44.0640 C   0  0  0  0  0  0  0  0  0  0  0  0
   59.0470   26.5430   45.9810 N   0  0  0  0  0  0  0  0  0  0  0  0
   58.7240   27.8510   46.0700 C   0  0  0  0  0  0  0  0  0  0  0  0
   59.4570   28.8080   46.9290 C   0  0  0  0  0  0  0  0  0  0  0  0
   60.3590   29.7140   46.3470 C   0  0  0  0  0  0  0  0  0  0  0  0
   61.0660   30.6190   47.1440 C   0  0  0  0  0  0  0  0  0  0  0  0
   60.8720   30.6350   48.5270 C   0  0  0  0  0  0  0  0  0  0  0  0
   59.9670   29.7490   49.1140 C   0  0  0  0  0  0  0  0  0  0  0  0
   59.2580   28.8410   48.3210 C   0  0  0  0  0  0  0  0  0  0  0  0
   57.9833   31.4152   43.7994 H   0  0  0  0  0  0  0  0  0  0  0  0
   56.3845   32.0509   44.3599 H   0  0  0  0  0  0  0  0  0  0  0  0
   57.8043   32.0972   47.3565 H   0  0  0  0  0  0  0  0  0  0  0  0
   59.0448   33.9767   48.4444 H   0  0  0  0  0  0  0  0  0  0  0  0
   59.9965   35.8049   47.0315 H   0  0  0  0  0  0  0  0  0  0  0  0
   59.6680   35.7320   44.6350 H   0  0  0  0  0  0  0  0  0  0  0  0
   58.4657   33.9615   43.5052 H   0  0  0  0  0  0  0  0  0  0  0  0
   56.4683   26.6774   44.0171 H   0  0  0  0  0  0  0  0  0  0  0  0
   59.9126   24.1519   46.1478 H   0  0  0  0  0  0  0  0  0  0  0  0
   59.9168   21.6979   45.7068 H   0  0  0  0  0  0  0  0  0  0  0  0
   58.1865   20.6891   44.2188 H   0  0  0  0  0  0  0  0  0  0  0  0
   56.4405   22.1351   43.1758 H   0  0  0  0  0  0  0  0  0  0  0  0
   56.4313   24.5921   43.6004 H   0  0  0  0  0  0  0  0  0  0  0  0
   60.5099   29.7113   45.2574 H   0  0  0  0  0  0  0  0  0  0  0  0
   61.7764   31.3198   46.6811 H   0  0  0  0  0  0  0  0  0  0  0  0
   61.4319   31.3452   49.1532 H   0  0  0  0  0  0  0  0  0  0  0  0
   59.8111   29.7650   50.2028 H   0  0  0  0  0  0  0  0  0  0  0  0
   58.5414   28.1494   48.7881 H   0  0  0  0  0  0  0  0  0  0  0  0
  1  2  2  0
  2  3  1  0
  3  4  1  0
  4  5  1  0
  5  6  2  0
  6  7  1  0
  7  8  2  0
  8  9  1  0
  9 10  2  0
  2 11  1  0
 11 12  2  0
 12 13  1  0
 13 14  1  0
 14 15  2  0
 15 16  1  0
 16 17  2  0
 17 18  1  0
 18 19  2  0
 13 20  1  0
 20 21  2  0
 21 22  1  0
 22 23  2  0
 23 24  1  0
 24 25  2  0
 25 26  1  0
 26 27  2  0
 10  5  1  0
 21 11  1  0
 27 22  1  0
 19 14  1  0
  4 28  1  0
  4 29  1  0
  6 30  1  0
  7 31  1  0
  8 32  1  0
  9 33  1  0
 10 34  1  0
 12 35  1  0
 15 36  1  0
 16 37  1  0
 17 38  1  0
 18 39  1  0
 19 40  1  0
 23 41  1  0
 24 42  1  0
 25 43  1  0
 26 44  1  0
 27 45  1  0
M  CHG  2   3  -1   9   1
M  END
>  <UniqueID>  (89) 
77

>  <SMILES>  (89) 
O=C([N-]Cc1ccc[nH+]c1)c1cn(-c2ccccc2)nc1-c1ccccc1

>  <Energy>  (89) 
86.78102941594891

>  <Genealogy>  (89) 
O=C([N-]Cc1ccc[nH+]c1)c1cn(-c2ccccc2)nc1-c1ccccc1 (protonated)
O=C([N-]Cc1ccc[nH+]c1)c1cn(-c2ccccc2)nc1-c1ccccc1 (3D coordinates assigned)
O=C([N-]Cc1ccc[nH+]c1)c1cn(-c2ccccc2)nc1-c1ccccc1 (optimized conformer: 86.78102941594891 kcal/mol)

>  <smiles>  (89) 
O=C(NCc1cccnc1)c1cn(-c2ccccc2)nc1-c1ccccc1

>  <score_type>  (89) 
oracle

>  <origin>  (89) 
adg

>  <m_score__min__energy>  (89) 
-8.4499999999999993

>  <m_primary>  (89) 
energy

$$$$
