0:0
     RDKit          3D

 32 33  0  0  0  0  0  0  0  0999 V2000
   54.3690   26.7010   46.7640 H   0  0  0  0  0  0  0  0  0  0  0  0
   54.9670   26.4680   45.9800 O   0  0  0  0  0  0  0  0  0  0  0  0
   56.3300   26.7610   45.9730 C   0  0  0  0  0  0  0  0  0  0  0  0
   57.2330   25.7830   46.4050 C   0  0  0  0  0  0  0  0  0  0  0  0
   56.8598   24.8038   46.7394 H   0  0  0  0  0  0  0  0  0  0  0  0
   58.6050   26.0430   46.4140 C   0  0  0  0  0  0  0  0  0  0  0  0
   59.3089   25.2711   46.7585 H   0  0  0  0  0  0  0  0  0  0  0  0
   59.0830   27.2820   45.9860 C   0  0  0  0  0  0  0  0  0  0  0  0
   60.1640   27.4852   45.9919 H   0  0  0  0  0  0  0  0  0  0  0  0
   58.1910   28.2650   45.5500 C   0  0  0  0  0  0  0  0  0  0  0  0
   58.5740   29.2385   45.2100 H   0  0  0  0  0  0  0  0  0  0  0  0
   56.8030   28.0170   45.5430 C   0  0  0  0  0  0  0  0  0  0  0  0
   55.8710   28.9820   45.1220 O   0  0  0  0  0  0  0  0  0  0  0  0
   55.8900   29.6540   43.8620 C   0  0  0  0  0  0  0  0  0  0  0  0
   54.8665   29.9618   43.6018 H   0  0  0  0  0  0  0  0  0  0  0  0
   56.2876   28.9663   43.1011 H   0  0  0  0  0  0  0  0  0  0  0  0
   56.7670   30.8650   43.9200 C   0  0  0  0  0  0  0  0  0  0  0  0
   57.4940   31.1510   42.9310 O   0  0  0  0  0  0  0  0  0  0  0  0
   56.6790   31.7480   45.0490 N   0  0  0  0  0  0  0  0  0  0  0  0
   57.5070   32.6930   45.3970 C   0  0  0  0  0  0  0  0  0  0  0  0
   57.9920   32.6870   46.6680 N   0  0  0  0  0  0  0  0  0  0  0  0
   58.8720   33.6220   47.1210 C   0  0  0  0  0  0  0  0  0  0  0  0
   59.3710   33.5550   48.5300 C   0  0  0  0  0  0  0  0  0  0  0  0
   58.5254   33.6685   49.2243 H   0  0  0  0  0  0  0  0  0  0  0  0
   59.8577   32.5834   48.7008 H   0  0  0  0  0  0  0  0  0  0  0  0
   60.0968   34.3638   48.7008 H   0  0  0  0  0  0  0  0  0  0  0  0
   59.3200   34.6270   46.2590 C   0  0  0  0  0  0  0  0  0  0  0  0
   60.0296   35.3886   46.6145 H   0  0  0  0  0  0  0  0  0  0  0  0
   58.8580   34.6540   44.9440 C   0  0  0  0  0  0  0  0  0  0  0  0
   59.2070   35.4375   44.2552 H   0  0  0  0  0  0  0  0  0  0  0  0
   57.9530   33.6880   44.5000 C   0  0  0  0  0  0  0  0  0  0  0  0
   57.5909   33.7020   43.4614 H   0  0  0  0  0  0  0  0  0  0  0  0
  1  2  1  0
  2  3  1  0
  3  4  2  0
  4  5  1  0
  4  6  1  0
  6  7  1  0
  6  8  2  0
  8  9  1  0
  8 10  1  0
 10 11  1  0
 10 12  2  0
 12 13  1  0
 13 14  1  0
 14 15  1  0
 14 16  1  0
 14 17  1  0
 17 18  2  0
 17 19  1  0
 19 20  2  0
 20 21  1  0
 21 22  1  0
 22 23  1  0
 23 24  1  0
 23 25  1  0
 23 26  1  0
 22 27  2  0
 27 28  1  0
 27 29  1  0
 29 30  1  0
 29 31  2  0
 31 32  1  0
 12  3  1  0
 31 20  1  0
M  CHG  1  21  -1
M  END
>  <UniqueID>  (1) 
1

>  <SMILES>  (1) 
Cc1ccc/c(=N\C(=O)COc2ccccc2O)[n-]1

>  <Energy>  (1) 
37.958911792467

>  <Genealogy>  (1) 
Cc1cccc(=NC(=O)COc2ccccc2O)[n-]1 (protonated)
Cc1ccc/c(=N\C(=O)COc2ccccc2O)[n-]1 (cis-trans isomerization)
Cc1ccc/c(=N\C(=O)COc2ccccc2O)[n-]1 (3D coordinates assigned)
Cc1ccc/c(=N\C(=O)COc2ccccc2O)[n-]1 (optimized conformer: 37.958911792467 kcal/mol)

>  <smiles>  (1) 
Cc1cccc(=NC(=O)COc2ccccc2O)[nH]1

>  <score_type>  (1) 
oracle

>  <origin>  (1) 
adg

>  <m_score__min__energy>  (1) 
-9.7899999999999991

>  <m_primary>  (1) 
energy

$$$$
1:0
     RDKit          3D

 25 26  0  0  0  0  0  0  0  0999 V2000
   57.8949   27.2149   43.9240 H   0  0  0  0  0  0  0  0  0  0  0  0
   57.5030   27.3240   44.9460 C   0  0  0  0  0  0  0  0  0  0  0  0
   57.4080   28.5710   45.4420 C   0  0  0  0  0  0  0  0  0  0  0  0
   58.0650   28.8720   46.6890 C   0  0  0  0  0  0  0  0  0  0  0  0
   58.5900   29.1140   47.6920 N   0  0  0  0  0  0  0  0  0  0  0  0
   56.5700   29.6270   44.8310 C   0  0  0  0  0  0  0  0  0  0  0  0
   55.3160   29.5030   44.8540 O   0  0  0  0  0  0  0  0  0  0  0  0
   57.1330   30.8420   44.3100 N   0  0  0  0  0  0  0  0  0  0  0  0
   57.5910   31.8460   45.0000 C   0  0  0  0  0  0  0  0  0  0  0  0
   56.8230   32.9460   45.2490 N   0  0  0  0  0  0  0  0  0  0  0  0
   57.2810   33.9940   45.9840 C   0  0  0  0  0  0  0  0  0  0  0  0
   56.6346   34.8666   46.1597 H   0  0  0  0  0  0  0  0  0  0  0  0
   58.5720   33.9630   46.5160 C   0  0  0  0  0  0  0  0  0  0  0  0
   58.9496   34.8083   47.1100 H   0  0  0  0  0  0  0  0  0  0  0  0
   59.3770   32.8470   46.2850 C   0  0  0  0  0  0  0  0  0  0  0  0
   60.3952   32.8070   46.6993 H   0  0  0  0  0  0  0  0  0  0  0  0
   58.8880   31.7810   45.5270 C   0  0  0  0  0  0  0  0  0  0  0  0
   59.5163   30.8966   45.3449 H   0  0  0  0  0  0  0  0  0  0  0  0
   57.1230   26.0880   45.6640 C   0  0  0  0  0  0  0  0  0  0  0  0
   58.1530   24.8460   46.1660 S   0  0  0  0  0  0  0  0  0  0  0  0
   56.9270   24.0340   46.9750 C   0  0  0  0  0  0  0  0  0  0  0  0
   57.0800   22.9480   47.5910 O   0  0  0  0  0  0  0  0  0  0  0  0
   55.7440   24.6800   46.9060 N   0  0  0  0  0  0  0  0  0  0  0  0
   55.8570   25.8280   46.1870 C   0  0  0  0  0  0  0  0  0  0  0  0
   54.7720   26.6750   45.9960 O   0  0  0  0  0  0  0  0  0  0  0  0
  1  2  1  0
  2  3  2  3
  3  4  1  0
  4  5  3  0
  3  6  1  0
  6  7  2  0
  6  8  1  0
  8  9  2  0
  9 10  1  0
 10 11  1  0
 11 12  1  0
 11 13  2  0
 13 14  1  0
 13 15  1  0
 15 16  1  0
 15 17  2  0
 17 18  1  0
  2 19  1  0
 19 20  1  0
 20 21  1  0
 21 22  2  0
 21 23  1  0
 23 24  1  0
 24 25  1  0
 17  9  1  0
 24 19  2  0
M  CHG  3  10  -1  23  -1  25  -1
M  END
>  <UniqueID>  (2) 
2

>  <SMILES>  (2) 
N#CC(=Cc1sc(=O)[n-]c1[O-])C(=O)/N=c1/cccc[n-]1

>  <Energy>  (2) 
69.47457898369146

>  <Genealogy>  (2) 
N#CC(=Cc1sc(=O)[n-]c1[O-])C(=O)N=c1cccc[n-]1 (protonated)
N#CC(=Cc1sc(=O)[n-]c1[O-])C(=O)/N=c1/cccc[n-]1 (cis-trans isomerization)
N#CC(=Cc1sc(=O)[n-]c1[O-])C(=O)/N=c1/cccc[n-]1 (3D coordinates assigned)
N#CC(=Cc1sc(=O)[n-]c1[O-])C(=O)/N=c1/cccc[n-]1 (optimized conformer: 69.47457898369146 kcal/mol)

>  <smiles>  (2) 
N#CC(=Cc1sc(=O)[nH]c1O)C(=O)N=c1cccc[nH]1

>  <score_type>  (2) 
oracle

>  <origin>  (2) 
adg

>  <m_score__min__energy>  (2) 
-14.92

>  <m_primary>  (2) 
energy

$$$$
2:0
     RDKit          3D

 33 34  0  0  0  0  0  0  0  0999 V2000
   54.7690   26.3180   45.9680 N   0  0  0  0  0  0  0  0  0  0  0  0
   56.3610   25.6540   46.0670 S   0  0  0  0  0  0  0  0  0  0  0  0
   56.5730   24.6840   44.9390 O   0  0  0  0  0  0  0  0  0  0  0  0
   56.5160   24.9220   47.3690 O   0  0  0  0  0  0  0  0  0  0  0  0
   57.5450   26.9530   45.9660 C   0  0  0  0  0  0  0  0  0  0  0  0
   57.9460   27.6370   47.1220 C   0  0  0  0  0  0  0  0  0  0  0  0
   58.8780   28.6740   47.0380 C   0  0  0  0  0  0  0  0  0  0  0  0
   59.4100   29.0540   45.8000 C   0  0  0  0  0  0  0  0  0  0  0  0
   60.3510   30.0950   45.7660 O   0  0  0  0  0  0  0  0  0  0  0  0
   60.3210   31.2380   46.5740 C   0  0  0  0  0  0  0  0  0  0  0  0
   61.3860   31.7370   47.0260 O   0  0  0  0  0  0  0  0  0  0  0  0
   59.0640   31.8700   46.8310 N   0  0  0  0  0  0  0  0  0  0  0  0
   58.4560   32.8490   45.9370 C   0  0  0  0  0  0  0  0  0  0  0  0
   57.8770   32.1650   44.7280 C   0  0  0  0  0  0  0  0  0  0  0  0
   57.0510   31.0370   44.8720 C   0  0  0  0  0  0  0  0  0  0  0  0
   56.5370   30.3920   43.7430 C   0  0  0  0  0  0  0  0  0  0  0  0
   56.8470   30.8650   42.4650 C   0  0  0  0  0  0  0  0  0  0  0  0
   57.6720   31.9830   42.3130 C   0  0  0  0  0  0  0  0  0  0  0  0
   58.1880   32.6300   43.4400 C   0  0  0  0  0  0  0  0  0  0  0  0
   59.0160   28.3580   44.6410 C   0  0  0  0  0  0  0  0  0  0  0  0
   58.0830   27.3210   44.7260 C   0  0  0  0  0  0  0  0  0  0  0  0
   54.7120   27.0830   46.6760 H   0  0  0  0  0  0  0  0  0  0  0  0
   57.5252   27.3561   48.0987 H   0  0  0  0  0  0  0  0  0  0  0  0
   59.1966   29.1964   47.9521 H   0  0  0  0  0  0  0  0  0  0  0  0
   57.6547   33.3800   46.4718 H   0  0  0  0  0  0  0  0  0  0  0  0
   59.2275   33.5614   45.6094 H   0  0  0  0  0  0  0  0  0  0  0  0
   56.8081   30.6603   45.8765 H   0  0  0  0  0  0  0  0  0  0  0  0
   55.8881   29.5116   43.8608 H   0  0  0  0  0  0  0  0  0  0  0  0
   56.4413   30.3569   41.5777 H   0  0  0  0  0  0  0  0  0  0  0  0
   57.9154   32.3540   41.3064 H   0  0  0  0  0  0  0  0  0  0  0  0
   58.8404   33.5071   43.3172 H   0  0  0  0  0  0  0  0  0  0  0  0
   59.4441   28.6315   43.6653 H   0  0  0  0  0  0  0  0  0  0  0  0
   57.7695   26.7910   43.8145 H   0  0  0  0  0  0  0  0  0  0  0  0
  1  2  1  0
  2  3  2  0
  2  4  2  0
  2  5  1  0
  5  6  2  0
  6  7  1  0
  7  8  2  0
  8  9  1  0
  9 10  1  0
 10 11  2  0
 10 12  1  0
 12 13  1  0
 13 14  1  0
 14 15  2  0
 15 16  1  0
 16 17  2  0
 17 18  1  0
 18 19  2  0
  8 20  1  0
 20 21  2  0
 21  5  1  0
 19 14  1  0
  1 22  1  0
  6 23  1  0
  7 24  1  0
 13 25  1  0
 13 26  1  0
 15 27  1  0
 16 28  1  0
 17 29  1  0
 18 30  1  0
 19 31  1  0
 20 32  1  0
 21 33  1  0
M  CHG  2   1  -1  12  -1
M  END
>  <UniqueID>  (3) 
3

>  <SMILES>  (3) 
[NH-]S(=O)(=O)c1ccc(OC(=O)[N-]Cc2ccccc2)cc1

>  <Energy>  (3) 
35.339314407113655

>  <Genealogy>  (3) 
[NH-]S(=O)(=O)c1ccc(OC(=O)[N-]Cc2ccccc2)cc1 (protonated)
[NH-]S(=O)(=O)c1ccc(OC(=O)[N-]Cc2ccccc2)cc1 (3D coordinates assigned)
[NH-]S(=O)(=O)c1ccc(OC(=O)[N-]Cc2ccccc2)cc1 (optimized conformer: 35.339314407113655 kcal/mol)

>  <smiles>  (3) 
NS(=O)(=O)c1ccc(OC(=O)NCc2ccccc2)cc1

>  <score_type>  (3) 
oracle

>  <origin>  (3) 
adg

>  <m_score__min__energy>  (3) 
-10.76

>  <m_primary>  (3) 
energy

$$$$
3:0
     RDKit          3D

 48 51  0  0  0  0  0  0  0  0999 V2000
   58.1350   30.1290   50.7830 C   0  0  0  0  0  0  0  0  0  0  0  0
   59.0780   30.3780   49.6430 C   0  0  0  0  0  0  0  0  0  0  0  0
   59.2510   29.5650   48.5390 C   0  0  0  0  0  0  0  0  0  0  0  0
   58.5050   28.3850   48.2240 N   0  0  0  0  0  0  0  0  0  0  0  0
   58.9260   27.3480   47.3290 C   0  0  0  0  0  0  0  0  0  0  0  0
   59.5040   26.3370   47.8070 O   0  0  0  0  0  0  0  0  0  0  0  0
   58.7610   27.4540   45.8350 C   0  0  0  0  0  0  0  0  0  0  0  0
   57.0060   27.5040   45.3230 S   0  0  0  0  0  0  0  0  0  0  0  0
   56.9360   29.2850   45.1620 C   0  0  0  0  0  0  0  0  0  0  0  0
   57.8510   30.1140   45.6960 N   0  0  0  0  0  0  0  0  0  0  0  0
   57.3830   31.3200   45.3160 C   0  0  0  0  0  0  0  0  0  0  0  0
   58.0460   32.6000   45.6460 C   0  0  0  0  0  0  0  0  0  0  0  0
   58.1430   33.0270   46.9830 C   0  0  0  0  0  0  0  0  0  0  0  0
   58.7750   34.2360   47.2940 C   0  0  0  0  0  0  0  0  0  0  0  0
   59.3140   35.0270   46.2770 C   0  0  0  0  0  0  0  0  0  0  0  0
   59.2200   34.6120   44.9460 C   0  0  0  0  0  0  0  0  0  0  0  0
   58.5900   33.4050   44.6290 C   0  0  0  0  0  0  0  0  0  0  0  0
   56.2450   31.2240   44.6000 N   0  0  0  0  0  0  0  0  0  0  0  0
   55.9620   29.9380   44.5040 N   0  0  0  0  0  0  0  0  0  0  0  0
   60.2480   30.1640   47.8010 C   0  0  0  0  0  0  0  0  0  0  0  0
   60.6860   29.7740   46.6860 O   0  0  0  0  0  0  0  0  0  0  0  0
   60.6810   31.2650   48.4500 N   0  0  0  0  0  0  0  0  0  0  0  0
   61.7380   32.1380   48.0120 C   0  0  0  0  0  0  0  0  0  0  0  0
   61.5890   32.8980   46.8410 C   0  0  0  0  0  0  0  0  0  0  0  0
   62.6130   33.7560   46.4250 C   0  0  0  0  0  0  0  0  0  0  0  0
   63.7860   33.8640   47.1760 C   0  0  0  0  0  0  0  0  0  0  0  0
   63.9360   33.1150   48.3470 C   0  0  0  0  0  0  0  0  0  0  0  0
   62.9150   32.2570   48.7660 C   0  0  0  0  0  0  0  0  0  0  0  0
   59.9650   31.4020   49.5660 N   0  0  0  0  0  0  0  0  0  0  0  0
   60.1330   32.4710   50.5540 C   0  0  0  0  0  0  0  0  0  0  0  0
   58.6665   30.2693   51.7358 H   0  0  0  0  0  0  0  0  0  0  0  0
   57.2943   30.8359   50.7245 H   0  0  0  0  0  0  0  0  0  0  0  0
   57.7529   29.0992   50.7245 H   0  0  0  0  0  0  0  0  0  0  0  0
   59.2549   28.3745   45.4905 H   0  0  0  0  0  0  0  0  0  0  0  0
   59.2138   26.5580   45.3854 H   0  0  0  0  0  0  0  0  0  0  0  0
   57.7200   32.4075   47.7876 H   0  0  0  0  0  0  0  0  0  0  0  0
   58.8475   34.5640   48.3414 H   0  0  0  0  0  0  0  0  0  0  0  0
   59.8122   35.9762   46.5236 H   0  0  0  0  0  0  0  0  0  0  0  0
   59.6429   35.2368   44.1455 H   0  0  0  0  0  0  0  0  0  0  0  0
   58.5194   33.0834   43.5794 H   0  0  0  0  0  0  0  0  0  0  0  0
   60.6651   32.8188   46.2492 H   0  0  0  0  0  0  0  0  0  0  0  0
   62.4941   34.3467   45.5047 H   0  0  0  0  0  0  0  0  0  0  0  0
   64.5907   34.5376   46.8464 H   0  0  0  0  0  0  0  0  0  0  0  0
   64.8588   33.2010   48.9395 H   0  0  0  0  0  0  0  0  0  0  0  0
   63.0349   31.6730   49.6904 H   0  0  0  0  0  0  0  0  0  0  0  0
   60.0665   32.0477   51.5671 H   0  0  0  0  0  0  0  0  0  0  0  0
   61.1166   32.9445   50.4183 H   0  0  0  0  0  0  0  0  0  0  0  0
   59.3421   33.2233   50.4183 H   0  0  0  0  0  0  0  0  0  0  0  0
  1  2  1  0
  2  3  2  0
  3  4  1  0
  4  5  1  0
  5  6  2  0
  5  7  1  0
  7  8  1  0
  8  9  1  0
  9 10  2  0
 10 11  1  0
 11 12  1  0
 12 13  2  0
 13 14  1  0
 14 15  2  0
 15 16  1  0
 16 17  2  0
 11 18  2  0
 18 19  1  0
  3 20  1  0
 20 21  2  0
 20 22  1  0
 22 23  1  0
 23 24  2  0
 24 25  1  0
 25 26  2  0
 26 27  1  0
 27 28  2  0
 22 29  1  0
 29 30  1  0
 29  2  1  0
 19  9  1  0
 28 23  1  0
 17 12  1  0
  1 31  1  0
  1 32  1  0
  1 33  1  0
  7 34  1  0
  7 35  1  0
 13 36  1  0
 14 37  1  0
 15 38  1  0
 16 39  1  0
 17 40  1  0
 24 41  1  0
 25 42  1  0
 26 43  1  0
 27 44  1  0
 28 45  1  0
 30 46  1  0
 30 47  1  0
 30 48  1  0
M  CHG  2   4  -1  19  -1
M  END
>  <UniqueID>  (4) 
4

>  <SMILES>  (4) 
Cc1c([N-]C(=O)CSc2nc(-c3ccccc3)n[n-]2)c(=O)n(-c2ccccc2)n1C

>  <Energy>  (4) 
126.21783577212449

>  <Genealogy>  (4) 
Cc1c([N-]C(=O)CSc2nc(-c3ccccc3)n[n-]2)c(=O)n(-c2ccccc2)n1C (protonated)
Cc1c([N-]C(=O)CSc2nc(-c3ccccc3)n[n-]2)c(=O)n(-c2ccccc2)n1C (3D coordinates assigned)
Cc1c([N-]C(=O)CSc2nc(-c3ccccc3)n[n-]2)c(=O)n(-c2ccccc2)n1C (optimized conformer: 126.21783577212449 kcal/mol)

>  <smiles>  (4) 
Cc1c(NC(=O)CSc2nc(-c3ccccc3)n[nH]2)c(=O)n(-c2ccccc2)n1C

>  <score_type>  (4) 
oracle

>  <origin>  (4) 
adg

>  <m_score__min__energy>  (4) 
-13.32

>  <m_primary>  (4) 
energy

$$$$
4:0
     RDKit          3D

 44 47  0  0  0  0  0  0  0  0999 V2000
   59.8980   28.7140   48.0970 O   0  0  0  0  0  0  0  0  0  0  0  0
   59.2510   29.7330   47.7320 C   0  0  0  0  0  0  0  0  0  0  0  0
   59.3210   30.9780   48.5600 C   0  0  0  0  0  0  0  0  0  0  0  0
   59.8100   32.1230   47.7280 C   0  0  0  0  0  0  0  0  0  0  0  0
   61.1230   32.5790   47.6450 C   0  0  0  0  0  0  0  0  0  0  0  0
   61.2210   33.5760   46.7380 N   0  0  0  0  0  0  0  0  0  0  0  0
   59.9840   33.7460   46.2370 C   0  0  0  0  0  0  0  0  0  0  0  0
   59.5890   34.6530   45.2550 C   0  0  0  0  0  0  0  0  0  0  0  0
   58.2370   34.6520   44.8650 C   0  0  0  0  0  0  0  0  0  0  0  0
   57.3220   33.7550   45.4590 C   0  0  0  0  0  0  0  0  0  0  0  0
   57.7500   32.8500   46.4470 C   0  0  0  0  0  0  0  0  0  0  0  0
   59.0960   32.8750   46.8140 C   0  0  0  0  0  0  0  0  0  0  0  0
   58.5310   29.7350   46.4890 N   0  0  0  0  0  0  0  0  0  0  0  0
   58.2900   28.5620   45.6960 C   0  0  0  0  0  0  0  0  0  0  0  0
   58.4090   28.6400   44.3010 C   0  0  0  0  0  0  0  0  0  0  0  0
   58.1680   27.5170   43.5060 C   0  0  0  0  0  0  0  0  0  0  0  0
   57.7950   26.3080   44.0960 C   0  0  0  0  0  0  0  0  0  0  0  0
   57.6410   26.2170   45.4880 C   0  0  0  0  0  0  0  0  0  0  0  0
   57.2580   24.9080   46.1270 C   0  0  0  0  0  0  0  0  0  0  0  0
   55.8880   24.4710   45.6610 C   0  0  0  0  0  0  0  0  0  0  0  0
   54.8080   25.3720   45.6360 C   0  0  0  0  0  0  0  0  0  0  0  0
   54.9810   26.7030   46.0010 O   0  0  0  0  0  0  0  0  0  0  0  0
   53.5770   24.9490   45.2470 N   0  0  0  0  0  0  0  0  0  0  0  0
   53.3610   23.6600   44.8840 C   0  0  0  0  0  0  0  0  0  0  0  0
   52.2130   23.2910   44.5280 O   0  0  0  0  0  0  0  0  0  0  0  0
   54.3840   22.7670   44.9060 N   0  0  0  0  0  0  0  0  0  0  0  0
   55.6330   23.1390   45.2850 C   0  0  0  0  0  0  0  0  0  0  0  0
   56.5540   22.2790   45.2950 O   0  0  0  0  0  0  0  0  0  0  0  0
   57.8880   27.3490   46.2830 C   0  0  0  0  0  0  0  0  0  0  0  0
   58.3193   31.2128   48.9491 H   0  0  0  0  0  0  0  0  0  0  0  0
   60.0186   30.8161   49.3949 H   0  0  0  0  0  0  0  0  0  0  0  0
   61.9628   32.1832   48.2350 H   0  0  0  0  0  0  0  0  0  0  0  0
   62.0860   34.0960   46.4710 H   0  0  0  0  0  0  0  0  0  0  0  0
   60.3108   35.3470   44.7997 H   0  0  0  0  0  0  0  0  0  0  0  0
   57.8905   35.3543   44.0926 H   0  0  0  0  0  0  0  0  0  0  0  0
   56.2673   33.7642   45.1468 H   0  0  0  0  0  0  0  0  0  0  0  0
   57.0466   32.1456   46.9150 H   0  0  0  0  0  0  0  0  0  0  0  0
   58.2470   30.6600   46.0920 H   0  0  0  0  0  0  0  0  0  0  0  0
   58.6941   29.5921   43.8295 H   0  0  0  0  0  0  0  0  0  0  0  0
   58.2723   27.5854   42.4131 H   0  0  0  0  0  0  0  0  0  0  0  0
   57.6210   25.4226   43.4669 H   0  0  0  0  0  0  0  0  0  0  0  0
   57.9961   24.1407   45.8503 H   0  0  0  0  0  0  0  0  0  0  0  0
   57.2370   25.0384   47.2190 H   0  0  0  0  0  0  0  0  0  0  0  0
   57.7658   27.2858   47.3744 H   0  0  0  0  0  0  0  0  0  0  0  0
  1  2  2  0
  2  3  1  0
  3  4  1  0
  4  5  2  0
  5  6  1  0
  6  7  1  0
  7  8  2  0
  8  9  1  0
  9 10  2  0
 10 11  1  0
 11 12  2  0
  2 13  1  0
 13 14  1  0
 14 15  2  0
 15 16  1  0
 16 17  2  0
 17 18  1  0
 18 19  1  0
 19 20  1  0
 20 21  2  0
 21 22  1  0
 21 23  1  0
 23 24  1  0
 24 25  2  0
 24 26  1  0
 26 27  1  0
 27 28  2  0
 18 29  2  0
 12  4  1  0
 29 14  1  0
 12  7  1  0
 27 20  1  0
  3 30  1  0
  3 31  1  0
  5 32  1  0
  6 33  1  0
  8 34  1  0
  9 35  1  0
 10 36  1  0
 11 37  1  0
 13 38  1  0
 15 39  1  0
 16 40  1  0
 17 41  1  0
 19 42  1  0
 19 43  1  0
 29 44  1  0
M  CHG  3  22  -1  23  -1  26  -1
M  END
>  <UniqueID>  (5) 
5

>  <SMILES>  (5) 
O=C(Cc1c[nH]c2ccccc12)Nc1cccc(Cc2c([O-])[n-]c(=O)[n-]c2=O)c1

>  <Energy>  (5) 
83.74640946927425

>  <Genealogy>  (5) 
O=C(Cc1c[nH]c2ccccc12)Nc1cccc(Cc2c([O-])[n-]c(=O)[n-]c2=O)c1 (protonated)
O=C(Cc1c[nH]c2ccccc12)Nc1cccc(Cc2c([O-])[n-]c(=O)[n-]c2=O)c1 (3D coordinates assigned)
O=C(Cc1c[nH]c2ccccc12)Nc1cccc(Cc2c([O-])[n-]c(=O)[n-]c2=O)c1 (optimized conformer: 83.74640946927425 kcal/mol)

>  <smiles>  (5) 
O=C(Cc1c[nH]c2ccccc12)Nc1cccc(Cc2c(O)[nH]c(=O)[nH]c2=O)c1

>  <score_type>  (5) 
oracle

>  <origin>  (5) 
adg

>  <m_score__min__energy>  (5) 
-17.399999999999999

>  <m_primary>  (5) 
energy

$$$$
5:0
     RDKit          3D

 54 57  0  0  0  0  0  0  0  0999 V2000
   60.4290   27.4970   48.7580 C   0  0  0  0  0  0  0  0  0  0  0  0
   60.4040   26.6810   47.5950 O   0  0  0  0  0  0  0  0  0  0  0  0
   59.2620   26.5250   46.8040 C   0  0  0  0  0  0  0  0  0  0  0  0
   59.3170   25.9040   45.7070 O   0  0  0  0  0  0  0  0  0  0  0  0
   57.9610   27.0880   47.2770 C   0  0  0  0  0  0  0  0  0  0  0  0
   57.3870   27.9870   46.2710 N   0  0  0  0  0  0  0  0  0  0  0  0
   56.2020   27.8240   45.6480 C   0  0  0  0  0  0  0  0  0  0  0  0
   55.3830   26.7120   45.8010 O   0  0  0  0  0  0  0  0  0  0  0  0
   55.9170   28.9170   44.8680 C   0  0  0  0  0  0  0  0  0  0  0  0
   54.7730   29.0970   44.1000 O   0  0  0  0  0  0  0  0  0  0  0  0
   56.9710   29.8020   44.9940 C   0  0  0  0  0  0  0  0  0  0  0  0
   57.0490   31.1440   44.3790 C   0  0  0  0  0  0  0  0  0  0  0  0
   56.6920   31.2880   43.1800 O   0  0  0  0  0  0  0  0  0  0  0  0
   57.5540   32.3120   45.1200 C   0  0  0  0  0  0  0  0  0  0  0  0
   58.6620   33.0650   44.7810 C   0  0  0  0  0  0  0  0  0  0  0  0
   58.7580   34.0430   45.7480 C   0  0  0  0  0  0  0  0  0  0  0  0
   57.7110   33.8230   46.6200 C   0  0  0  0  0  0  0  0  0  0  0  0
   57.0160   32.7830   46.2210 O   0  0  0  0  0  0  0  0  0  0  0  0
   57.8700   29.1930   45.8720 C   0  0  0  0  0  0  0  0  0  0  0  0
   59.1050   29.7990   46.4030 C   0  0  0  0  0  0  0  0  0  0  0  0
   60.3320   29.5660   45.7660 C   0  0  0  0  0  0  0  0  0  0  0  0
   61.5030   30.1380   46.2670 C   0  0  0  0  0  0  0  0  0  0  0  0
   61.4630   30.9250   47.4260 C   0  0  0  0  0  0  0  0  0  0  0  0
   62.6970   31.5380   47.9390 C   0  0  0  0  0  0  0  0  0  0  0  0
   63.7580   31.3880   47.2790 O   0  0  0  0  0  0  0  0  0  0  0  0
   62.7500   32.2800   49.1700 N   0  0  0  0  0  0  0  0  0  0  0  0
   62.0420   33.5070   49.5570 C   0  0  0  0  0  0  0  0  0  0  0  0
   61.0260   33.2920   50.6850 C   0  0  0  0  0  0  0  0  0  0  0  0
   59.6640   33.6710   50.1160 C   0  0  0  0  0  0  0  0  0  0  0  0
   59.9410   34.5740   48.9280 C   0  0  0  0  0  0  0  0  0  0  0  0
   61.2980   34.1500   48.3860 C   0  0  0  0  0  0  0  0  0  0  0  0
   60.2280   31.2090   48.0260 C   0  0  0  0  0  0  0  0  0  0  0  0
   59.0550   30.6390   47.5230 C   0  0  0  0  0  0  0  0  0  0  0  0
   60.4095   26.8591   49.6540 H   0  0  0  0  0  0  0  0  0  0  0  0
   61.3462   28.1043   48.7602 H   0  0  0  0  0  0  0  0  0  0  0  0
   59.5507   28.1593   48.7602 H   0  0  0  0  0  0  0  0  0  0  0  0
   57.2585   26.2630   47.4664 H   0  0  0  0  0  0  0  0  0  0  0  0
   58.1384   27.6590   48.2003 H   0  0  0  0  0  0  0  0  0  0  0  0
   59.3287   32.9152   43.9190 H   0  0  0  0  0  0  0  0  0  0  0  0
   59.5157   34.8378   45.8117 H   0  0  0  0  0  0  0  0  0  0  0  0
   57.4922   34.4269   47.5130 H   0  0  0  0  0  0  0  0  0  0  0  0
   60.3723   28.9307   44.8689 H   0  0  0  0  0  0  0  0  0  0  0  0
   62.4597   29.9705   45.7506 H   0  0  0  0  0  0  0  0  0  0  0  0
   62.8429   34.1736   49.9095 H   0  0  0  0  0  0  0  0  0  0  0  0
   61.0262   32.2385   51.0014 H   0  0  0  0  0  0  0  0  0  0  0  0
   61.2737   33.9022   51.5661 H   0  0  0  0  0  0  0  0  0  0  0  0
   59.1212   32.7705   49.7928 H   0  0  0  0  0  0  0  0  0  0  0  0
   59.0405   34.1763   50.8683 H   0  0  0  0  0  0  0  0  0  0  0  0
   59.1648   34.4435   48.1596 H   0  0  0  0  0  0  0  0  0  0  0  0
   59.9370   35.6348   49.2188 H   0  0  0  0  0  0  0  0  0  0  0  0
   61.1726   33.4242   47.5690 H   0  0  0  0  0  0  0  0  0  0  0  0
   61.8538   35.0080   47.9800 H   0  0  0  0  0  0  0  0  0  0  0  0
   60.1821   31.8821   48.8948 H   0  0  0  0  0  0  0  0  0  0  0  0
   58.0905   30.8505   48.0077 H   0  0  0  0  0  0  0  0  0  0  0  0
  1  2  1  0
  2  3  1  0
  3  4  2  0
  3  5  1  0
  5  6  1  0
  6  7  1  0
  7  8  1  0
  7  9  2  0
  9 10  1  0
  9 11  1  0
 11 12  1  0
 12 13  2  0
 12 14  1  0
 14 15  2  0
 15 16  1  0
 16 17  2  0
 17 18  1  0
 11 19  2  0
 19 20  1  0
 20 21  2  0
 21 22  1  0
 22 23  2  0
 23 24  1  0
 24 25  2  0
 24 26  1  0
 26 27  1  0
 27 28  1  0
 28 29  1  0
 29 30  1  0
 30 31  1  0
 23 32  1  0
 32 33  2  0
 19  6  1  0
 33 20  1  0
 18 14  1  0
 31 27  1  0
  1 34  1  0
  1 35  1  0
  1 36  1  0
  5 37  1  0
  5 38  1  0
 15 39  1  0
 16 40  1  0
 17 41  1  0
 21 42  1  0
 22 43  1  0
 27 44  1  0
 28 45  1  0
 28 46  1  0
 29 47  1  0
 29 48  1  0
 30 49  1  0
 30 50  1  0
 31 51  1  0
 31 52  1  0
 32 53  1  0
 33 54  1  0
M  CHG  3   8  -1  10  -1  26  -1
M  END
>  <UniqueID>  (6) 
6

>  <SMILES>  (6) 
COC(=O)Cn1c([O-])c([O-])c(C(=O)c2ccco2)c1-c1ccc(C(=O)[N-]C2CCCC2)cc1

>  <Energy>  (6) 
122.70868775421192

>  <Genealogy>  (6) 
COC(=O)Cn1c([O-])c([O-])c(C(=O)c2ccco2)c1-c1ccc(C(=O)[N-]C2CCCC2)cc1 (protonated)
COC(=O)Cn1c([O-])c([O-])c(C(=O)c2ccco2)c1-c1ccc(C(=O)[N-]C2CCCC2)cc1 (3D coordinates assigned)
COC(=O)Cn1c([O-])c([O-])c(C(=O)c2ccco2)c1-c1ccc(C(=O)[N-]C2CCCC2)cc1 (nonaromatic ring conformer: 122.70868775421192 kcal/mol)

>  <smiles>  (6) 
COC(=O)Cn1c(O)c(O)c(C(=O)c2ccco2)c1-c1ccc(C(=O)NC2CCCC2)cc1

>  <score_type>  (6) 
oracle

>  <origin>  (6) 
adg

>  <m_score__min__energy>  (6) 
-13.5

>  <m_primary>  (6) 
energy

$$$$
6:0
     RDKit          3D

 25 26  0  0  0  0  0  0  0  0999 V2000
   54.7350   25.3400   45.3840 H   0  0  0  0  0  0  0  0  0  0  0  0
   55.0480   24.4850   45.8970 N   0  0  0  0  0  0  0  0  0  0  0  0
   55.9920   23.7260   45.4370 C   0  0  0  0  0  0  0  0  0  0  0  0
   55.6730   22.6530   44.6640 N   0  0  0  0  0  0  0  0  0  0  0  0
   56.6270   21.8150   44.1880 C   0  0  0  0  0  0  0  0  0  0  0  0
   56.2570   20.7310   43.3970 O   0  0  0  0  0  0  0  0  0  0  0  0
   56.7970   19.8740   43.3870 H   0  0  0  0  0  0  0  0  0  0  0  0
   57.9660   22.0470   44.5020 C   0  0  0  0  0  0  0  0  0  0  0  0
   58.7531   21.3732   44.1325 H   0  0  0  0  0  0  0  0  0  0  0  0
   58.2880   23.1490   45.2930 C   0  0  0  0  0  0  0  0  0  0  0  0
   59.4950   23.3700   45.5850 O   0  0  0  0  0  0  0  0  0  0  0  0
   57.3040   23.9880   45.7390 N   0  0  0  0  0  0  0  0  0  0  0  0
   57.6490   25.0880   46.5510 N   0  0  0  0  0  0  0  0  0  0  0  0
   58.0450   24.9020   47.5010 H   0  0  0  0  0  0  0  0  0  0  0  0
   57.6020   26.4450   46.0760 C   0  0  0  0  0  0  0  0  0  0  0  0
   58.7970   27.1670   45.9270 C   0  0  0  0  0  0  0  0  0  0  0  0
   59.7569   26.6943   46.1824 H   0  0  0  0  0  0  0  0  0  0  0  0
   58.7740   28.4830   45.4560 C   0  0  0  0  0  0  0  0  0  0  0  0
   59.7137   29.0443   45.3474 H   0  0  0  0  0  0  0  0  0  0  0  0
   57.5580   29.0860   45.1230 C   0  0  0  0  0  0  0  0  0  0  0  0
   57.5410   30.1231   44.7568 H   0  0  0  0  0  0  0  0  0  0  0  0
   56.3630   28.3720   45.2550 C   0  0  0  0  0  0  0  0  0  0  0  0
   55.1560   28.9700   44.9140 O   0  0  0  0  0  0  0  0  0  0  0  0
   56.3830   27.0540   45.7260 C   0  0  0  0  0  0  0  0  0  0  0  0
   55.4422   26.4924   45.8228 H   0  0  0  0  0  0  0  0  0  0  0  0
  1  2  1  0
  2  3  2  0
  3  4  1  0
  4  5  1  0
  5  6  1  0
  6  7  1  0
  5  8  2  0
  8  9  1  0
  8 10  1  0
 10 11  2  0
 10 12  1  0
 12 13  1  0
 13 14  1  0
 13 15  1  0
 15 16  2  0
 16 17  1  0
 16 18  1  0
 18 19  1  0
 18 20  2  0
 20 21  1  0
 20 22  1  0
 22 23  1  0
 22 24  2  0
 24 25  1  0
 12  3  1  0
 24 15  1  0
M  CHG  2   4  -1  23  -1
M  END
>  <UniqueID>  (7) 
7

>  <SMILES>  (7) 
[H]/N=c1\[n-]c(O)cc(=O)n1Nc1cccc([O-])c1

>  <Energy>  (7) 
34.64111181531581

>  <Genealogy>  (7) 
N=c1[n-]c(O)cc(=O)n1Nc1cccc([O-])c1 (protonated)
[H]/N=c1\[n-]c(O)cc(=O)n1Nc1cccc([O-])c1 (cis-trans isomerization)
[H]/N=c1\[n-]c(O)cc(=O)n1Nc1cccc([O-])c1 (3D coordinates assigned)
[H]/N=c1\[n-]c(O)cc(=O)n1Nc1cccc([O-])c1 (optimized conformer: 34.64111181531581 kcal/mol)

>  <smiles>  (7) 
N=c1[nH]c(O)cc(=O)n1Nc1cccc(O)c1

>  <score_type>  (7) 
oracle

>  <origin>  (7) 
adg

>  <m_score__min__energy>  (7) 
-10.66

>  <m_primary>  (7) 
energy

$$$$
7:0
     RDKit          3D

 53 55  0  0  0  0  0  0  0  0999 V2000
   57.7770   32.0330   43.3890 C   0  0  0  0  0  0  0  0  0  0  0  0
   58.4210   31.7810   44.7240 C   0  0  0  0  0  0  0  0  0  0  0  0
   58.6980   32.8550   45.5840 C   0  0  0  0  0  0  0  0  0  0  0  0
   59.3170   32.6360   46.8210 C   0  0  0  0  0  0  0  0  0  0  0  0
   59.6880   33.9960   47.8810 S   0  0  0  0  0  0  0  0  0  0  0  0
   59.2570   33.6600   49.2830 O   0  0  0  0  0  0  0  0  0  0  0  0
   58.8930   35.1900   47.4330 O   0  0  0  0  0  0  0  0  0  0  0  0
   61.3910   34.4030   47.8810 N   0  0  0  0  0  0  0  0  0  0  0  0
   62.1240   33.8000   46.7470 C   0  0  0  0  0  0  0  0  0  0  0  0
   62.9390   32.5610   47.1520 C   0  0  0  0  0  0  0  0  0  0  0  0
   62.3290   31.9030   48.2370 O   0  0  0  0  0  0  0  0  0  0  0  0
   62.4500   32.6940   49.4020 C   0  0  0  0  0  0  0  0  0  0  0  0
   62.0310   34.1680   49.1890 C   0  0  0  0  0  0  0  0  0  0  0  0
   59.6480   31.3310   47.2050 C   0  0  0  0  0  0  0  0  0  0  0  0
   59.3850   30.2570   46.3530 C   0  0  0  0  0  0  0  0  0  0  0  0
   58.7750   30.4700   45.1010 C   0  0  0  0  0  0  0  0  0  0  0  0
   58.5090   29.4140   44.2120 O   0  0  0  0  0  0  0  0  0  0  0  0
   57.2110   29.0100   43.7710 C   0  0  0  0  0  0  0  0  0  0  0  0
   56.2960   28.7270   44.9350 C   0  0  0  0  0  0  0  0  0  0  0  0
   55.3930   29.5530   45.2320 O   0  0  0  0  0  0  0  0  0  0  0  0
   56.3330   27.4720   45.6260 N   0  0  0  0  0  0  0  0  0  0  0  0
   57.4940   26.6550   45.8140 C   0  0  0  0  0  0  0  0  0  0  0  0
   58.6920   27.2520   46.2220 C   0  0  0  0  0  0  0  0  0  0  0  0
   59.8460   26.4810   46.3820 C   0  0  0  0  0  0  0  0  0  0  0  0
   59.8140   25.1090   46.1170 C   0  0  0  0  0  0  0  0  0  0  0  0
   58.6290   24.5040   45.6770 C   0  0  0  0  0  0  0  0  0  0  0  0
   58.6100   22.7800   45.3230 S   0  0  0  0  0  0  0  0  0  0  0  0
   60.2250   22.1650   45.3850 N   0  0  0  0  0  0  0  0  0  0  0  0
   57.7670   22.0490   46.3320 O   0  0  0  0  0  0  0  0  0  0  0  0
   58.0370   22.5590   43.9520 O   0  0  0  0  0  0  0  0  0  0  0  0
   57.4740   25.2820   45.5130 C   0  0  0  0  0  0  0  0  0  0  0  0
   56.7624   32.4300   43.5405 H   0  0  0  0  0  0  0  0  0  0  0  0
   58.3760   32.7631   42.8249 H   0  0  0  0  0  0  0  0  0  0  0  0
   57.7214   31.0903   42.8249 H   0  0  0  0  0  0  0  0  0  0  0  0
   58.4265   33.8778   45.2838 H   0  0  0  0  0  0  0  0  0  0  0  0
   61.3968   33.5051   45.9762 H   0  0  0  0  0  0  0  0  0  0  0  0
   62.8330   34.5539   46.3742 H   0  0  0  0  0  0  0  0  0  0  0  0
   62.9982   31.8713   46.2972 H   0  0  0  0  0  0  0  0  0  0  0  0
   63.9479   32.8809   47.4514 H   0  0  0  0  0  0  0  0  0  0  0  0
   61.8123   32.2599   50.1862 H   0  0  0  0  0  0  0  0  0  0  0  0
   63.5130   32.6958   49.6848 H   0  0  0  0  0  0  0  0  0  0  0  0
   61.3217   34.4486   49.9816 H   0  0  0  0  0  0  0  0  0  0  0  0
   62.9460   34.7777   49.2214 H   0  0  0  0  0  0  0  0  0  0  0  0
   60.1178   31.1510   48.1832 H   0  0  0  0  0  0  0  0  0  0  0  0
   59.6561   29.2365   46.6615 H   0  0  0  0  0  0  0  0  0  0  0  0
   56.7745   29.8141   43.1604 H   0  0  0  0  0  0  0  0  0  0  0  0
   57.3179   28.0864   43.1832 H   0  0  0  0  0  0  0  0  0  0  0  0
   58.7253   28.3339   46.4178 H   0  0  0  0  0  0  0  0  0  0  0  0
   60.7808   26.9542   46.7169 H   0  0  0  0  0  0  0  0  0  0  0  0
   60.7214   24.5025   46.2542 H   0  0  0  0  0  0  0  0  0  0  0  0
   60.7380   22.5730   44.5720 H   0  0  0  0  0  0  0  0  0  0  0  0
   60.1650   21.1360   45.2180 H   0  0  0  0  0  0  0  0  0  0  0  0
   56.5475   24.8155   45.1469 H   0  0  0  0  0  0  0  0  0  0  0  0
  1  2  1  0
  2  3  2  0
  3  4  1  0
  4  5  1  0
  5  6  2  0
  5  7  2  0
  5  8  1  0
  8  9  1  0
  9 10  1  0
 10 11  1  0
 11 12  1  0
 12 13  1  0
  4 14  2  0
 14 15  1  0
 15 16  2  0
 16 17  1  0
 17 18  1  0
 18 19  1  0
 19 20  2  0
 19 21  1  0
 21 22  1  0
 22 23  2  0
 23 24  1  0
 24 25  2  0
 25 26  1  0
 26 27  1  0
 27 28  1  0
 27 29  2  0
 27 30  2  0
 26 31  2  0
 16  2  1  0
 31 22  1  0
 13  8  1  0
  1 32  1  0
  1 33  1  0
  1 34  1  0
  3 35  1  0
  9 36  1  0
  9 37  1  0
 10 38  1  0
 10 39  1  0
 12 40  1  0
 12 41  1  0
 13 42  1  0
 13 43  1  0
 14 44  1  0
 15 45  1  0
 18 46  1  0
 18 47  1  0
 23 48  1  0
 24 49  1  0
 25 50  1  0
 28 51  1  0
 28 52  1  0
 31 53  1  0
M  CHG  1  21  -1
M  END
>  <UniqueID>  (8) 
8

>  <SMILES>  (8) 
Cc1cc(S(=O)(=O)N2CCOCC2)ccc1OCC(=O)[N-]c1cccc(S(N)(=O)=O)c1

>  <Energy>  (8) 
68.36717486652552

>  <Genealogy>  (8) 
Cc1cc(S(=O)(=O)N2CCOCC2)ccc1OCC(=O)[N-]c1cccc(S(N)(=O)=O)c1 (protonated)
Cc1cc(S(=O)(=O)N2CCOCC2)ccc1OCC(=O)[N-]c1cccc(S(N)(=O)=O)c1 (3D coordinates assigned)
Cc1cc(S(=O)(=O)N2CCOCC2)ccc1OCC(=O)[N-]c1cccc(S(N)(=O)=O)c1 (nonaromatic ring conformer: 68.36717486652552 kcal/mol)

>  <smiles>  (8) 
Cc1cc(S(=O)(=O)N2CCOCC2)ccc1OCC(=O)Nc1cccc(S(N)(=O)=O)c1

>  <score_type>  (8) 
oracle

>  <origin>  (8) 
adg

>  <m_score__min__energy>  (8) 
-11.300000000000001

>  <m_primary>  (8) 
energy

$$$$
8:0
     RDKit          3D

 57 60  0  0  0  0  0  0  0  0999 V2000
   55.0020   25.8210   45.2120 H   0  0  0  0  0  0  0  0  0  0  0  0
   55.6030   25.3780   45.9450 N   0  0  0  0  0  0  0  0  0  0  0  0
   56.7120   25.9240   46.3260 C   0  0  0  0  0  0  0  0  0  0  0  0
   56.7490   27.2660   46.5850 N   0  0  0  0  0  0  0  0  0  0  0  0
   57.9200   27.8260   46.9840 C   0  0  0  0  0  0  0  0  0  0  0  0
   59.0590   27.0780   47.1250 C   0  0  0  0  0  0  0  0  0  0  0  0
   59.0260   25.7150   46.8530 C   0  0  0  0  0  0  0  0  0  0  0  0
   59.9305   25.0976   46.9566 H   0  0  0  0  0  0  0  0  0  0  0  0
   57.8460   25.1630   46.4550 N   0  0  0  0  0  0  0  0  0  0  0  0
   60.1970   27.9260   47.5380 C   0  0  0  0  0  0  0  0  0  0  0  0
   60.5772   27.6230   48.5247 H   0  0  0  0  0  0  0  0  0  0  0  0
   61.0572   27.8561   46.8560 H   0  0  0  0  0  0  0  0  0  0  0  0
   59.6090   29.2750   47.5900 N   0  0  0  0  0  0  0  0  0  0  0  0
   60.3750   30.4720   47.8630 C   0  0  0  0  0  0  0  0  0  0  0  0
   59.7360   31.6800   48.2050 C   0  0  0  0  0  0  0  0  0  0  0  0
   58.6441   31.7042   48.3363 H   0  0  0  0  0  0  0  0  0  0  0  0
   60.4880   32.8540   48.3790 C   0  0  0  0  0  0  0  0  0  0  0  0
   59.8170   34.1460   48.6600 C   0  0  0  0  0  0  0  0  0  0  0  0
   59.9210   34.6660   49.8000 O   0  0  0  0  0  0  0  0  0  0  0  0
   59.0800   34.8460   47.6460 N   0  0  0  0  0  0  0  0  0  0  0  0
   58.5990   34.2360   46.4400 C   0  0  0  0  0  0  0  0  0  0  0  0
   59.3150   34.4120   45.2470 C   0  0  0  0  0  0  0  0  0  0  0  0
   60.1875   35.0815   45.2242 H   0  0  0  0  0  0  0  0  0  0  0  0
   58.9220   33.7380   44.0860 C   0  0  0  0  0  0  0  0  0  0  0  0
   59.4935   33.8731   43.1559 H   0  0  0  0  0  0  0  0  0  0  0  0
   57.8000   32.8880   44.1000 C   0  0  0  0  0  0  0  0  0  0  0  0
   57.4250   32.0890   42.8730 C   0  0  0  0  0  0  0  0  0  0  0  0
   56.3953   32.3507   42.5881 H   0  0  0  0  0  0  0  0  0  0  0  0
   58.1518   32.3420   42.0870 H   0  0  0  0  0  0  0  0  0  0  0  0
   57.4970   30.6210   43.0790 N   0  0  0  0  0  0  0  0  0  0  0  0
   56.1800   29.9270   43.0580 C   0  0  0  0  0  0  0  0  0  0  0  0
   55.4825   30.5366   42.4649 H   0  0  0  0  0  0  0  0  0  0  0  0
   56.3641   28.9313   42.6283 H   0  0  0  0  0  0  0  0  0  0  0  0
   55.5500   29.6890   44.4370 C   0  0  0  0  0  0  0  0  0  0  0  0
   56.2712   29.9615   45.2216 H   0  0  0  0  0  0  0  0  0  0  0  0
   54.6462   30.3077   44.5389 H   0  0  0  0  0  0  0  0  0  0  0  0
   55.2810   28.6273   44.5389 H   0  0  0  0  0  0  0  0  0  0  0  0
   58.4360   30.2120   44.1470 C   0  0  0  0  0  0  0  0  0  0  0  0
   59.3790   30.7650   44.0253 H   0  0  0  0  0  0  0  0  0  0  0  0
   57.9734   30.4375   45.1192 H   0  0  0  0  0  0  0  0  0  0  0  0
   58.7280   28.7130   44.0900 C   0  0  0  0  0  0  0  0  0  0  0  0
   58.8055   28.3154   45.1127 H   0  0  0  0  0  0  0  0  0  0  0  0
   57.9128   28.2006   43.5581 H   0  0  0  0  0  0  0  0  0  0  0  0
   59.6759   28.5441   43.5581 H   0  0  0  0  0  0  0  0  0  0  0  0
   57.0400   32.7720   45.2780 C   0  0  0  0  0  0  0  0  0  0  0  0
   56.1303   32.1537   45.2851 H   0  0  0  0  0  0  0  0  0  0  0  0
   57.4380   33.4410   46.4410 C   0  0  0  0  0  0  0  0  0  0  0  0
   56.8407   33.3450   47.3597 H   0  0  0  0  0  0  0  0  0  0  0  0
   61.8870   32.7830   48.2630 C   0  0  0  0  0  0  0  0  0  0  0  0
   62.4933   33.6880   48.4161 H   0  0  0  0  0  0  0  0  0  0  0  0
   62.4980   31.6050   47.9630 N   0  0  0  0  0  0  0  0  0  0  0  0
   63.5390   31.5720   47.8800 H   0  0  0  0  0  0  0  0  0  0  0  0
   61.7830   30.4670   47.7530 C   0  0  0  0  0  0  0  0  0  0  0  0
   62.3062   29.5344   47.4952 H   0  0  0  0  0  0  0  0  0  0  0  0
   58.1770   29.2620   47.2460 C   0  0  0  0  0  0  0  0  0  0  0  0
   57.5643   29.6288   48.0827 H   0  0  0  0  0  0  0  0  0  0  0  0
   57.9255   29.9135   46.3961 H   0  0  0  0  0  0  0  0  0  0  0  0
  1  2  1  0
  2  3  2  0
  3  4  1  0
  4  5  2  0
  5  6  1  0
  6  7  2  0
  7  8  1  0
  7  9  1  0
  6 10  1  0
 10 11  1  0
 10 12  1  0
 10 13  1  0
 13 14  1  0
 14 15  2  0
 15 16  1  0
 15 17  1  0
 17 18  1  0
 18 19  2  0
 18 20  1  0
 20 21  1  0
 21 22  2  0
 22 23  1  0
 22 24  1  0
 24 25  1  0
 24 26  2  0
 26 27  1  0
 27 28  1  0
 27 29  1  0
 27 30  1  0
 30 31  1  0
 31 32  1  0
 31 33  1  0
 31 34  1  0
 34 35  1  0
 34 36  1  0
 34 37  1  0
 30 38  1  0
 38 39  1  0
 38 40  1  0
 38 41  1  0
 41 42  1  0
 41 43  1  0
 41 44  1  0
 26 45  1  0
 45 46  1  0
 45 47  2  0
 47 48  1  0
 17 49  2  0
 49 50  1  0
 49 51  1  0
 51 52  1  0
 51 53  2  0
 53 54  1  0
 13 55  1  0
 55 56  1  0
 55 57  1  0
  9  3  1  0
 53 14  1  0
 55  5  1  0
 47 21  1  0
M  CHG  3   9  -1  20  -1  51   1
M  END
>  <UniqueID>  (9) 
9

>  <SMILES>  (9) 
[H]/N=c1/nc2c(c[n-]1)CN(c1c[nH+]cc(C(=O)[N-]c3ccc(CN(CC)CC)cc3)c1)C2

>  <Energy>  (9) 
86.3950164926808

>  <Genealogy>  (9) 
CCN(CC)Cc1ccc([N-]C(=O)c2c[nH+]cc(N3Cc4c[n-]c(=N)nc4C3)c2)cc1 (protonated)
[H]/N=c1/nc2c(c[n-]1)CN(c1c[nH+]cc(C(=O)[N-]c3ccc(CN(CC)CC)cc3)c1)C2 (cis-trans isomerization)
[H]/N=c1/nc2c(c[n-]1)CN(c1c[nH+]cc(C(=O)[N-]c3ccc(CN(CC)CC)cc3)c1)C2 (3D coordinates assigned)
[H]/N=c1/nc2c(c[n-]1)CN(c1c[nH+]cc(C(=O)[N-]c3ccc(CN(CC)CC)cc3)c1)C2 (nonaromatic ring conformer: 86.3950164926808 kcal/mol)

>  <smiles>  (9) 
CCN(CC)Cc1ccc(NC(=O)c2cncc(N3Cc4c[nH]c(=N)nc4C3)c2)cc1

>  <score_type>  (9) 
oracle

>  <origin>  (9) 
adg

>  <m_score__min__energy>  (9) 
-9.9299999999999997

>  <m_primary>  (9) 
energy

$$$$
9:0
     RDKit          3D

 60 64  0  0  1  0  0  0  0  0999 V2000
   56.3580   29.9790   44.2130 C   0  0  0  0  0  0  0  0  0  0  0  0
   57.4040   29.7120   45.1830 N   0  0  0  0  0  0  0  0  0  0  0  0
   58.3760   30.6370   45.4160 C   0  0  0  0  0  0  0  0  0  0  0  0
   58.3400   31.7150   44.7790 O   0  0  0  0  0  0  0  0  0  0  0  0
   59.3530   30.3690   46.3300 C   0  0  0  0  0  0  0  0  0  0  0  0
   60.4370   31.2550   46.6360 N   0  0  0  0  0  0  0  0  0  0  0  0
   61.7930   30.7880   46.7800 C   0  0  0  0  0  0  0  0  0  0  0  0
   62.6290   31.6170   47.6630 C   0  0  0  0  0  0  0  0  0  0  0  0
   62.6930   31.3630   49.0390 C   0  0  0  0  0  0  0  0  0  0  0  0
   63.4960   32.1810   49.8350 C   0  0  0  0  0  0  0  0  0  0  0  0
   64.1990   33.2120   49.2380 C   0  0  0  0  0  0  0  0  0  0  0  0
   64.1310   33.4600   47.8710 C   0  0  0  0  0  0  0  0  0  0  0  0
   63.3410   32.6540   47.0850 C   0  0  0  0  0  0  0  0  0  0  0  0
   60.0540   32.6370   46.7770 C   0  0  0  0  0  0  0  0  0  0  0  0
   59.6440   33.1430   48.0000 C   0  0  0  0  0  0  0  0  0  0  0  0
   59.2640   34.4520   48.1900 C   0  0  0  0  0  0  0  0  0  0  0  0
   59.2800   35.3320   47.1320 C   0  0  0  0  0  0  0  0  0  0  0  0
   59.6840   34.8450   45.9130 C   0  0  0  0  0  0  0  0  0  0  0  0
   60.0660   33.5250   45.7260 C   0  0  0  0  0  0  0  0  0  0  0  0
   59.3700   29.1580   47.0330 C   0  0  0  0  0  0  0  0  0  0  0  0
   58.3680   28.2480   46.7670 C   0  0  0  0  0  0  0  0  0  0  0  0
   58.3710   27.0460   47.4540 C   0  0  0  0  0  0  0  0  0  0  0  0
   57.3870   26.1590   47.1900 N   0  0  0  0  0  0  0  0  0  0  0  0
   56.4390   26.4650   46.2750 C   0  0  0  0  0  0  0  0  0  0  0  0
   55.4970   25.6170   46.0200 N   0  0  0  0  0  0  0  0  0  0  0  0
   55.7070   24.4690   45.1640 C   0  0  0  0  0  0  0  0  0  0  0  0
   57.0510   24.7460   44.4800 C   0  0  0  0  0  0  0  0  0  0  0  0
   57.7090   23.4530   44.0780 C   0  0  0  0  0  0  0  0  0  0  0  0
   56.7640   22.4870   43.7790 O   0  0  0  0  0  0  0  0  0  0  0  0
   56.0100   22.0860   44.8720 C   0  0  0  0  0  0  0  0  0  0  0  0
   55.8820   23.1830   45.9110 C   0  0  0  0  0  0  0  0  0  0  0  0
   56.4260   27.6300   45.6020 N   0  0  0  0  0  0  0  0  0  0  0  0
   57.3820   28.5340   45.8350 C   0  0  0  0  0  0  0  0  0  0  0  0
   55.4221   30.2179   44.7394 H   0  0  0  0  0  0  0  0  0  0  0  0
   56.6517   30.8310   43.5822 H   0  0  0  0  0  0  0  0  0  0  0  0
   56.2074   29.0905   43.5822 H   0  0  0  0  0  0  0  0  0  0  0  0
   61.7642   29.7680   47.1909 H   0  0  0  0  0  0  0  0  0  0  0  0
   62.2495   30.8337   45.7802 H   0  0  0  0  0  0  0  0  0  0  0  0
   62.1215   30.5349   49.4835 H   0  0  0  0  0  0  0  0  0  0  0  0
   63.5687   32.0088   50.9190 H   0  0  0  0  0  0  0  0  0  0  0  0
   64.8325   33.8568   49.8648 H   0  0  0  0  0  0  0  0  0  0  0  0
   64.7007   34.2886   47.4251 H   0  0  0  0  0  0  0  0  0  0  0  0
   63.2752   32.8326   46.0016 H   0  0  0  0  0  0  0  0  0  0  0  0
   59.6210   32.4629   48.8642 H   0  0  0  0  0  0  0  0  0  0  0  0
   58.9478   34.7945   49.1864 H   0  0  0  0  0  0  0  0  0  0  0  0
   58.9812   36.3832   47.2576 H   0  0  0  0  0  0  0  0  0  0  0  0
   59.7054   35.5286   45.0515 H   0  0  0  0  0  0  0  0  0  0  0  0
   60.3814   33.1849   44.7286 H   0  0  0  0  0  0  0  0  0  0  0  0
   60.1552   28.9399   47.7718 H   0  0  0  0  0  0  0  0  0  0  0  0
   59.1527   26.8196   48.1940 H   0  0  0  0  0  0  0  0  0  0  0  0
   57.3780   25.2530   47.6990 H   0  0  0  0  0  0  0  0  0  0  0  0
   54.8360   24.3509   44.5026 H   0  0  0  0  0  0  0  0  0  0  0  0
   56.8821   25.3612   43.5839 H   0  0  0  0  0  0  0  0  0  0  0  0
   57.7078   25.2780   45.1840 H   0  0  0  0  0  0  0  0  0  0  0  0
   58.3362   23.6290   43.1916 H   0  0  0  0  0  0  0  0  0  0  0  0
   58.3214   23.0954   44.9189 H   0  0  0  0  0  0  0  0  0  0  0  0
   55.0040   21.8067   44.5255 H   0  0  0  0  0  0  0  0  0  0  0  0
   56.5219   21.2331   45.3417 H   0  0  0  0  0  0  0  0  0  0  0  0
   55.0086   22.9963   46.5531 H   0  0  0  0  0  0  0  0  0  0  0  0
   56.7715   23.2201   46.5571 H   0  0  0  0  0  0  0  0  0  0  0  0
  1  2  1  0
  2  3  1  0
  3  4  2  0
  3  5  1  0
  5  6  1  0
  6  7  1  0
  7  8  1  0
  8  9  2  0
  9 10  1  0
 10 11  2  0
 11 12  1  0
 12 13  2  0
  6 14  1  0
 14 15  2  0
 15 16  1  0
 16 17  2  0
 17 18  1  0
 18 19  2  0
  5 20  2  0
 20 21  1  0
 21 22  2  0
 22 23  1  0
 23 24  1  0
 24 25  2  0
 25 26  1  0
 26 27  1  0
 27 28  1  0
 28 29  1  0
 29 30  1  0
 30 31  1  0
 24 32  1  0
 32 33  2  0
 33  2  1  0
 13  8  1  0
 19 14  1  0
 33 21  1  0
 31 26  1  0
  1 34  1  0
  1 35  1  0
  1 36  1  0
  7 37  1  0
  7 38  1  0
  9 39  1  0
 10 40  1  0
 11 41  1  0
 12 42  1  0
 13 43  1  0
 15 44  1  0
 16 45  1  0
 17 46  1  0
 18 47  1  0
 19 48  1  0
 20 49  1  0
 22 50  1  0
 23 51  1  0
 26 52  1  0
 27 53  1  0
 27 54  1  0
 28 55  1  0
 28 56  1  0
 30 57  1  0
 30 58  1  0
 31 59  1  0
 31 60  1  0
M  END
>  <smiles>  (10) 
Cn1c(=O)c(N(Cc2ccccc2)c2ccccc2)cc2c[nH]c(=NC3CCOCC3)nc21

>  <score_type>  (10) 
oracle

>  <origin>  (10) 
adg

>  <m_score__min__energy>  (10) 
-9.3200000000000003

>  <m_primary>  (10) 
energy

$$$$
10:0
     RDKit          3D

 51 53  0  0  1  0  0  0  0  0999 V2000
   58.8220   33.8030   51.9040 C   0  0  0  0  0  0  0  0  0  0  0  0
   58.8530   32.4960   51.1980 C   0  0  0  0  0  0  0  0  0  0  0  0
   57.8070   31.6110   51.3850 C   0  0  0  0  0  0  0  0  0  0  0  0
   57.8330   30.4150   50.7390 N   0  0  0  0  0  0  0  0  0  0  0  0
   58.8710   30.1190   49.9370 C   0  0  0  0  0  0  0  0  0  0  0  0
   58.8810   28.9910   49.3390 N   0  0  0  0  0  0  0  0  0  0  0  0
   59.8660   28.5120   48.4320 C   0  0  0  0  0  0  0  0  0  0  0  0
   59.2110   27.9250   47.2160 C   0  0  0  0  0  0  0  0  0  0  0  0
   58.9480   26.5800   47.0960 C   0  0  0  0  0  0  0  0  0  0  0  0
   58.3430   26.0220   45.9810 C   0  0  0  0  0  0  0  0  0  0  0  0
   57.9950   26.8730   44.9530 C   0  0  0  0  0  0  0  0  0  0  0  0
   58.2320   28.2270   45.0130 C   0  0  0  0  0  0  0  0  0  0  0  0
   57.8930   29.1420   43.9860 N   0  0  0  0  0  0  0  0  0  0  0  0
   57.0460   30.6130   44.2500 S   0  0  0  0  0  0  0  0  0  0  0  0
   57.3920   31.8590   43.0600 C   0  0  0  0  0  0  0  0  0  0  0  0
   55.5550   30.3910   44.2750 O   0  0  0  0  0  0  0  0  0  0  0  0
   57.3820   31.1610   45.6300 O   0  0  0  0  0  0  0  0  0  0  0  0
   58.8320   28.7210   46.1390 C   0  0  0  0  0  0  0  0  0  0  0  0
   59.9020   30.9550   49.7350 N   0  0  0  0  0  0  0  0  0  0  0  0
   59.9040   32.1410   50.3570 C   0  0  0  0  0  0  0  0  0  0  0  0
   60.8450   33.0150   50.2310 N   0  0  0  0  0  0  0  0  0  0  0  0
   61.5810   33.0140   48.9780 C   0  0  0  0  0  0  0  0  0  0  0  0
   60.5580   33.3840   47.9370 C   0  0  0  0  0  0  0  0  0  0  0  0
   59.8670   34.5810   47.9980 C   0  0  0  0  0  0  0  0  0  0  0  0
   58.9310   34.9130   47.0400 C   0  0  0  0  0  0  0  0  0  0  0  0
   58.6980   34.0170   46.0130 C   0  0  0  0  0  0  0  0  0  0  0  0
   57.8370   34.3360   45.1430 O   0  0  0  0  0  0  0  0  0  0  0  0
   59.3700   32.8460   45.9500 N   0  0  0  0  0  0  0  0  0  0  0  0
   60.2930   32.5080   46.8840 C   0  0  0  0  0  0  0  0  0  0  0  0
   58.8260   33.6329   52.9908 H   0  0  0  0  0  0  0  0  0  0  0  0
   59.7064   34.3932   51.6220 H   0  0  0  0  0  0  0  0  0  0  0  0
   57.9106   34.3506   51.6220 H   0  0  0  0  0  0  0  0  0  0  0  0
   56.9670   31.8706   52.0461 H   0  0  0  0  0  0  0  0  0  0  0  0
   57.0590   29.7280   50.8610 H   0  0  0  0  0  0  0  0  0  0  0  0
   60.5156   29.3459   48.1277 H   0  0  0  0  0  0  0  0  0  0  0  0
   60.4623   27.7328   48.9292 H   0  0  0  0  0  0  0  0  0  0  0  0
   59.2317   25.9152   47.9252 H   0  0  0  0  0  0  0  0  0  0  0  0
   58.1477   24.9413   45.9183 H   0  0  0  0  0  0  0  0  0  0  0  0
   57.5126   26.4560   44.0566 H   0  0  0  0  0  0  0  0  0  0  0  0
   58.1820   28.8960   43.0070 H   0  0  0  0  0  0  0  0  0  0  0  0
   57.6521   32.7956   43.5749 H   0  0  0  0  0  0  0  0  0  0  0  0
   58.2356   31.5403   42.4301 H   0  0  0  0  0  0  0  0  0  0  0  0
   56.5048   32.0210   42.4301 H   0  0  0  0  0  0  0  0  0  0  0  0
   59.0247   29.8025   46.1960 H   0  0  0  0  0  0  0  0  0  0  0  0
   60.6930   30.7010   49.1090 H   0  0  0  0  0  0  0  0  0  0  0  0
   62.3938   33.7547   49.0044 H   0  0  0  0  0  0  0  0  0  0  0  0
   62.0533   32.0421   48.7721 H   0  0  0  0  0  0  0  0  0  0  0  0
   60.0670   35.2796   48.8238 H   0  0  0  0  0  0  0  0  0  0  0  0
   58.3842   35.8661   47.0920 H   0  0  0  0  0  0  0  0  0  0  0  0
   59.1460   32.2100   45.1430 H   0  0  0  0  0  0  0  0  0  0  0  0
   60.8289   31.5501   46.8120 H   0  0  0  0  0  0  0  0  0  0  0  0
  1  2  1  0
  2  3  2  0
  3  4  1  0
  4  5  1  0
  5  6  2  0
  6  7  1  0
  7  8  1  0
  8  9  2  0
  9 10  1  0
 10 11  2  0
 11 12  1  0
 12 13  1  0
 13 14  1  0
 14 15  1  0
 14 16  2  0
 14 17  2  0
 12 18  2  0
  5 19  1  0
 19 20  1  0
 20 21  2  0
 21 22  1  0
 22 23  1  0
 23 24  1  0
 24 25  2  0
 25 26  1  0
 26 27  2  0
 26 28  1  0
 28 29  1  0
 20  2  1  0
 29 23  2  0
 18  8  1  0
  1 30  1  0
  1 31  1  0
  1 32  1  0
  3 33  1  0
  4 34  1  0
  7 35  1  0
  7 36  1  0
  9 37  1  0
 10 38  1  0
 11 39  1  0
 13 40  1  0
 15 41  1  0
 15 42  1  0
 15 43  1  0
 18 44  1  0
 19 45  1  0
 22 46  1  0
 22 47  1  0
 24 48  1  0
 25 49  1  0
 28 50  1  0
 29 51  1  0
M  END
>  <smiles>  (11) 
Cc1c[nH]c(=NCc2cccc(NS(C)(=O)=O)c2)[nH]c1=NCc1ccc(=O)[nH]c1

>  <score_type>  (11) 
oracle

>  <origin>  (11) 
adg

>  <m_score__min__energy>  (11) 
-9.4600000000000009

>  <m_primary>  (11) 
energy

$$$$
11:0
     RDKit          3D

 30 31  0  0  0  0  0  0  0  0999 V2000
   56.4205   25.5661   46.3018 H   0  0  0  0  0  0  0  0  0  0  0  0
   56.7900   26.5410   45.9510 C   0  0  0  0  0  0  0  0  0  0  0  0
   55.9600   27.5650   45.6240 N   0  0  0  0  0  0  0  0  0  0  0  0
   56.6520   28.6600   45.2360 C   0  0  0  0  0  0  0  0  0  0  0  0
   56.1070   29.7830   44.8740 N   0  0  0  0  0  0  0  0  0  0  0  0
   56.7450   30.8360   44.1330 C   0  0  0  0  0  0  0  0  0  0  0  0
   56.6250   30.9120   42.8800 O   0  0  0  0  0  0  0  0  0  0  0  0
   57.5500   31.8380   44.8430 C   0  0  0  0  0  0  0  0  0  0  0  0
   58.1570   31.6690   46.4040 S   0  0  0  0  0  0  0  0  0  0  0  0
   58.9130   33.1710   46.4680 C   0  0  0  0  0  0  0  0  0  0  0  0
   59.7300   33.6590   47.6280 C   0  0  0  0  0  0  0  0  0  0  0  0
   59.5132   33.0374   48.5093 H   0  0  0  0  0  0  0  0  0  0  0  0
   59.4689   34.7087   47.8279 H   0  0  0  0  0  0  0  0  0  0  0  0
   61.2190   33.5760   47.3110 C   0  0  0  0  0  0  0  0  0  0  0  0
   61.7924   33.5440   48.2492 H   0  0  0  0  0  0  0  0  0  0  0  0
   61.4195   32.6653   46.7276 H   0  0  0  0  0  0  0  0  0  0  0  0
   61.5194   34.4588   46.7276 H   0  0  0  0  0  0  0  0  0  0  0  0
   58.7170   33.8200   45.2460 C   0  0  0  0  0  0  0  0  0  0  0  0
   59.2480   35.1850   44.9290 C   0  0  0  0  0  0  0  0  0  0  0  0
   59.4575   35.7234   45.8651 H   0  0  0  0  0  0  0  0  0  0  0  0
   60.1752   35.0911   44.3446 H   0  0  0  0  0  0  0  0  0  0  0  0
   58.5011   35.7424   44.3446 H   0  0  0  0  0  0  0  0  0  0  0  0
   57.9420   33.0760   44.3430 C   0  0  0  0  0  0  0  0  0  0  0  0
   57.6713   33.4358   43.3394 H   0  0  0  0  0  0  0  0  0  0  0  0
   58.3140   28.4140   45.2850 S   0  0  0  0  0  0  0  0  0  0  0  0
   58.1450   26.8230   45.8070 C   0  0  0  0  0  0  0  0  0  0  0  0
   59.2680   25.9100   46.1670 C   0  0  0  0  0  0  0  0  0  0  0  0
   59.3498   25.8435   47.2619 H   0  0  0  0  0  0  0  0  0  0  0  0
   59.0746   24.9097   45.7523 H   0  0  0  0  0  0  0  0  0  0  0  0
   60.2078   26.3035   45.7523 H   0  0  0  0  0  0  0  0  0  0  0  0
  1  2  1  0
  2  3  1  0
  3  4  1  0
  4  5  2  0
  5  6  1  0
  6  7  2  0
  6  8  1  0
  8  9  1  0
  9 10  1  0
 10 11  1  0
 11 12  1  0
 11 13  1  0
 11 14  1  0
 14 15  1  0
 14 16  1  0
 14 17  1  0
 10 18  2  0
 18 19  1  0
 19 20  1  0
 19 21  1  0
 19 22  1  0
 18 23  1  0
 23 24  1  0
  4 25  1  0
 25 26  1  0
 26 27  1  0
 27 28  1  0
 27 29  1  0
 27 30  1  0
 26  2  2  0
 23  8  2  0
M  CHG  1   3  -1
M  END
>  <UniqueID>  (12) 
10

>  <SMILES>  (12) 
CCc1sc(C(=O)/N=c2\[n-]cc(C)s2)cc1C

>  <Energy>  (12) 
80.87065721071532

>  <Genealogy>  (12) 
CCc1sc(C(=O)N=c2[n-]cc(C)s2)cc1C (protonated)
CCc1sc(C(=O)/N=c2\[n-]cc(C)s2)cc1C (cis-trans isomerization)
CCc1sc(C(=O)/N=c2\[n-]cc(C)s2)cc1C (3D coordinates assigned)
CCc1sc(C(=O)/N=c2\[n-]cc(C)s2)cc1C (optimized conformer: 80.87065721071532 kcal/mol)

>  <smiles>  (12) 
CCc1sc(C(=O)N=c2[nH]cc(C)s2)cc1C

>  <score_type>  (12) 
oracle

>  <origin>  (12) 
adg

>  <m_score__min__energy>  (12) 
-8.9199999999999999

>  <m_primary>  (12) 
energy

$$$$
12:0
     RDKit          3D

 44 45  0  0  1  0  0  0  0  0999 V2000
   63.6340   33.3630   46.8680 C   0  0  0  0  0  0  0  0  0  0  0  0
   63.3150   33.4860   48.3610 C   0  0  0  0  0  0  0  0  0  0  0  0
   64.4130   32.7350   49.0810 C   0  0  0  0  0  0  0  0  0  0  0  0
   62.0070   32.7540   48.5920 C   0  0  0  0  0  0  0  0  0  0  0  0
   60.8430   33.4590   47.9930 C   0  0  0  0  0  0  0  0  0  0  0  0
   60.1110   33.0990   46.8580 C   0  0  0  0  0  0  0  0  0  0  0  0
   59.1270   34.0530   46.6910 C   0  0  0  0  0  0  0  0  0  0  0  0
   58.2430   34.0690   45.7450 N   0  0  0  0  0  0  0  0  0  0  0  0
   58.6400   33.7160   44.3880 C   0  0  0  0  0  0  0  0  0  0  0  0
   57.9220   32.4840   43.9820 C   0  0  0  0  0  0  0  0  0  0  0  0
   57.7110   32.2900   42.6360 C   0  0  0  0  0  0  0  0  0  0  0  0
   57.0510   31.1670   42.1990 C   0  0  0  0  0  0  0  0  0  0  0  0
   56.5990   30.2300   43.1310 C   0  0  0  0  0  0  0  0  0  0  0  0
   56.7970   30.3990   44.4870 C   0  0  0  0  0  0  0  0  0  0  0  0
   56.3200   29.4210   45.4050 N   0  0  0  0  0  0  0  0  0  0  0  0
   57.0200   27.8440   45.5240 S   0  0  0  0  0  0  0  0  0  0  0  0
   57.9540   27.5240   44.0470 C   0  0  0  0  0  0  0  0  0  0  0  0
   57.9200   27.7950   46.7390 O   0  0  0  0  0  0  0  0  0  0  0  0
   55.9070   26.8550   45.7150 O   0  0  0  0  0  0  0  0  0  0  0  0
   57.4640   31.5410   44.8840 C   0  0  0  0  0  0  0  0  0  0  0  0
   59.2650   34.9510   47.6920 N   0  0  0  0  0  0  0  0  0  0  0  0
   60.2830   34.6010   48.4670 N   0  0  0  0  0  0  0  0  0  0  0  0
   64.6536   32.9699   46.7421 H   0  0  0  0  0  0  0  0  0  0  0  0
   62.9156   32.6774   46.3948 H   0  0  0  0  0  0  0  0  0  0  0  0
   63.5619   34.3534   46.3948 H   0  0  0  0  0  0  0  0  0  0  0  0
   63.2444   34.5294   48.7022 H   0  0  0  0  0  0  0  0  0  0  0  0
   64.2717   32.8316   50.1676 H   0  0  0  0  0  0  0  0  0  0  0  0
   64.3758   31.6723   48.7995 H   0  0  0  0  0  0  0  0  0  0  0  0
   65.3899   33.1549   48.7995 H   0  0  0  0  0  0  0  0  0  0  0  0
   62.0804   31.7519   48.1442 H   0  0  0  0  0  0  0  0  0  0  0  0
   61.8418   32.7022   49.6783 H   0  0  0  0  0  0  0  0  0  0  0  0
   60.2859   32.2212   46.2185 H   0  0  0  0  0  0  0  0  0  0  0  0
   58.3817   34.5366   43.7026 H   0  0  0  0  0  0  0  0  0  0  0  0
   59.7258   33.5437   44.3505 H   0  0  0  0  0  0  0  0  0  0  0  0
   58.0707   33.0340   41.9100 H   0  0  0  0  0  0  0  0  0  0  0  0
   56.8800   31.0072   41.1242 H   0  0  0  0  0  0  0  0  0  0  0  0
   56.0710   29.3331   42.7751 H   0  0  0  0  0  0  0  0  0  0  0  0
   55.5170   29.7130   46.0090 H   0  0  0  0  0  0  0  0  0  0  0  0
   58.9624   27.1785   44.3185 H   0  0  0  0  0  0  0  0  0  0  0  0
   57.4478   26.7480   43.4540 H   0  0  0  0  0  0  0  0  0  0  0  0
   58.0300   28.4473   43.4540 H   0  0  0  0  0  0  0  0  0  0  0  0
   57.6375   31.7068   45.9575 H   0  0  0  0  0  0  0  0  0  0  0  0
   58.6570   35.8040   47.8400 H   0  0  0  0  0  0  0  0  0  0  0  0
   60.6030   35.1330   49.3190 H   0  0  0  0  0  0  0  0  0  0  0  0
  1  2  1  0
  2  3  1  0
  2  4  1  0
  4  5  1  0
  5  6  2  0
  6  7  1  0
  7  8  2  0
  8  9  1  0
  9 10  1  0
 10 11  2  0
 11 12  1  0
 12 13  2  0
 13 14  1  0
 14 15  1  0
 15 16  1  0
 16 17  1  0
 16 18  2  0
 16 19  2  0
 14 20  2  0
  7 21  1  0
 21 22  1  0
 22  5  1  0
 20 10  1  0
  1 23  1  0
  1 24  1  0
  1 25  1  0
  2 26  1  0
  3 27  1  0
  3 28  1  0
  3 29  1  0
  4 30  1  0
  4 31  1  0
  6 32  1  0
  9 33  1  0
  9 34  1  0
 11 35  1  0
 12 36  1  0
 13 37  1  0
 15 38  1  0
 17 39  1  0
 17 40  1  0
 17 41  1  0
 20 42  1  0
 21 43  1  0
 22 44  1  0
M  END
>  <smiles>  (13) 
CC(C)Cc1cc(=NCc2cccc(NS(C)(=O)=O)c2)[nH][nH]1

>  <score_type>  (13) 
oracle

>  <origin>  (13) 
adg

>  <m_score__min__energy>  (13) 
-8.1300000000000008

>  <m_primary>  (13) 
energy

$$$$
13:0
     RDKit          3D

 43 44  0  0  0  0  0  0  0  0999 V2000
   58.5490   30.6390   49.8100 C   0  0  0  0  0  0  0  0  0  0  0  0
   59.6600   31.2970   49.0380 C   0  0  0  0  0  0  0  0  0  0  0  0
   60.5580   32.1440   49.7090 C   0  0  0  0  0  0  0  0  0  0  0  0
   61.6060   32.7560   49.0200 C   0  0  0  0  0  0  0  0  0  0  0  0
   61.7760   32.5230   47.6530 C   0  0  0  0  0  0  0  0  0  0  0  0
   62.8650   33.1450   46.9470 C   0  0  0  0  0  0  0  0  0  0  0  0
   63.7410   33.6470   46.3800 N   0  0  0  0  0  0  0  0  0  0  0  0
   60.8950   31.6740   46.9740 C   0  0  0  0  0  0  0  0  0  0  0  0
   59.8270   31.0610   47.6530 C   0  0  0  0  0  0  0  0  0  0  0  0
   58.9450   30.1620   46.9540 N   0  0  0  0  0  0  0  0  0  0  0  0
   58.8060   28.7730   47.2890 C   0  0  0  0  0  0  0  0  0  0  0  0
   59.4810   28.2670   48.2240 O   0  0  0  0  0  0  0  0  0  0  0  0
   57.9220   27.8840   46.4660 C   0  0  0  0  0  0  0  0  0  0  0  0
   57.7850   28.4350   45.1220 N   0  0  0  0  0  0  0  0  0  0  0  0
   56.6440   29.1830   44.6890 C   0  0  0  0  0  0  0  0  0  0  0  0
   55.5180   28.9960   45.2260 O   0  0  0  0  0  0  0  0  0  0  0  0
   56.7920   30.2170   43.6170 C   0  0  0  0  0  0  0  0  0  0  0  0
   58.1250   30.9650   43.7320 C   0  0  0  0  0  0  0  0  0  0  0  0
   58.0210   32.7060   43.1640 S   0  0  0  0  0  0  0  0  0  0  0  0
   58.3940   33.4390   44.7580 C   0  0  0  0  0  0  0  0  0  0  0  0
   57.6330   33.0980   45.8830 C   0  0  0  0  0  0  0  0  0  0  0  0
   57.9150   33.6810   47.1210 C   0  0  0  0  0  0  0  0  0  0  0  0
   58.9540   34.6100   47.2370 C   0  0  0  0  0  0  0  0  0  0  0  0
   59.7080   34.9610   46.1140 C   0  0  0  0  0  0  0  0  0  0  0  0
   59.4240   34.3810   44.8740 C   0  0  0  0  0  0  0  0  0  0  0  0
   58.7361   30.7498   50.8883 H   0  0  0  0  0  0  0  0  0  0  0  0
   57.5916   31.1158   49.5531 H   0  0  0  0  0  0  0  0  0  0  0  0
   58.5070   29.5702   49.5531 H   0  0  0  0  0  0  0  0  0  0  0  0
   60.4339   32.3263   50.7867 H   0  0  0  0  0  0  0  0  0  0  0  0
   62.2991   33.4227   49.5539 H   0  0  0  0  0  0  0  0  0  0  0  0
   61.0391   31.4845   45.9001 H   0  0  0  0  0  0  0  0  0  0  0  0
   58.4570   30.5120   46.1010 H   0  0  0  0  0  0  0  0  0  0  0  0
   58.3673   26.8800   46.4059 H   0  0  0  0  0  0  0  0  0  0  0  0
   56.9298   27.8204   46.9366 H   0  0  0  0  0  0  0  0  0  0  0  0
   56.7440   29.7226   42.6356 H   0  0  0  0  0  0  0  0  0  0  0  0
   55.9775   30.9477   43.7301 H   0  0  0  0  0  0  0  0  0  0  0  0
   58.4410   30.9583   44.7856 H   0  0  0  0  0  0  0  0  0  0  0  0
   58.8485   30.4498   43.0831 H   0  0  0  0  0  0  0  0  0  0  0  0
   56.8128   32.3707   45.7920 H   0  0  0  0  0  0  0  0  0  0  0  0
   57.3195   33.4092   48.0050 H   0  0  0  0  0  0  0  0  0  0  0  0
   59.1779   35.0648   48.2132 H   0  0  0  0  0  0  0  0  0  0  0  0
   60.5241   35.6928   46.2055 H   0  0  0  0  0  0  0  0  0  0  0  0
   60.0106   34.6650   43.9878 H   0  0  0  0  0  0  0  0  0  0  0  0
  1  2  1  0
  2  3  2  0
  3  4  1  0
  4  5  2  0
  5  6  1  0
  6  7  3  0
  5  8  1  0
  8  9  2  0
  9 10  1  0
 10 11  1  0
 11 12  2  0
 11 13  1  0
 13 14  1  0
 14 15  1  0
 15 16  2  0
 15 17  1  0
 17 18  1  0
 18 19  1  0
 19 20  1  0
 20 21  2  0
 21 22  1  0
 22 23  2  0
 23 24  1  0
 24 25  2  0
  9  2  1  0
 25 20  1  0
  1 26  1  0
  1 27  1  0
  1 28  1  0
  3 29  1  0
  4 30  1  0
  8 31  1  0
 10 32  1  0
 13 33  1  0
 13 34  1  0
 17 35  1  0
 17 36  1  0
 18 37  1  0
 18 38  1  0
 21 39  1  0
 22 40  1  0
 23 41  1  0
 24 42  1  0
 25 43  1  0
M  CHG  1  14  -1
M  END
>  <UniqueID>  (14) 
11

>  <SMILES>  (14) 
Cc1ccc(C#N)cc1NC(=O)C[N-]C(=O)CCSc1ccccc1

>  <Energy>  (14) 
34.78767736512775

>  <Genealogy>  (14) 
Cc1ccc(C#N)cc1NC(=O)C[N-]C(=O)CCSc1ccccc1 (protonated)
Cc1ccc(C#N)cc1NC(=O)C[N-]C(=O)CCSc1ccccc1 (3D coordinates assigned)
Cc1ccc(C#N)cc1NC(=O)C[N-]C(=O)CCSc1ccccc1 (optimized conformer: 34.78767736512775 kcal/mol)

>  <smiles>  (14) 
Cc1ccc(C#N)cc1NC(=O)CNC(=O)CCSc1ccccc1

>  <score_type>  (14) 
oracle

>  <origin>  (14) 
adg

>  <m_score__min__energy>  (14) 
-10.27

>  <m_primary>  (14) 
energy

$$$$
14:0
     RDKit          3D

 33 35  0  0  0  0  0  0  0  0999 V2000
   54.3640   29.0500   44.4530 H   0  0  0  0  0  0  0  0  0  0  0  0
   55.2690   29.3290   44.8970 N   0  0  0  0  0  0  0  0  0  0  0  0
   56.0710   30.1680   44.3270 C   0  0  0  0  0  0  0  0  0  0  0  0
   56.8010   31.0250   45.0870 N   0  0  0  0  0  0  0  0  0  0  0  0
   57.6610   31.9180   44.5240 C   0  0  0  0  0  0  0  0  0  0  0  0
   58.4190   32.8420   45.4010 C   0  0  0  0  0  0  0  0  0  0  0  0
   57.9310   34.1230   45.7120 C   0  0  0  0  0  0  0  0  0  0  0  0
   56.7710   34.5940   45.1890 F   0  0  0  0  0  0  0  0  0  0  0  0
   58.6890   34.9420   46.5420 C   0  0  0  0  0  0  0  0  0  0  0  0
   58.3216   35.9437   46.8096 H   0  0  0  0  0  0  0  0  0  0  0  0
   59.8810   34.5070   47.0220 N   0  0  0  0  0  0  0  0  0  0  0  0
   60.3650   33.2760   46.7050 C   0  0  0  0  0  0  0  0  0  0  0  0
   61.6430   32.8570   47.2300 N   0  0  0  0  0  0  0  0  0  0  0  0
   62.8860   33.4960   46.7820 C   0  0  0  0  0  0  0  0  0  0  0  0
   63.2392   33.0001   45.8658 H   0  0  0  0  0  0  0  0  0  0  0  0
   62.6899   34.5599   46.5829 H   0  0  0  0  0  0  0  0  0  0  0  0
   63.9620   33.3820   47.8650 C   0  0  0  0  0  0  0  0  0  0  0  0
   64.9227   33.7279   47.4557 H   0  0  0  0  0  0  0  0  0  0  0  0
   63.6635   34.0024   48.7229 H   0  0  0  0  0  0  0  0  0  0  0  0
   64.1000   32.0440   48.3020 O   0  0  0  0  0  0  0  0  0  0  0  0
   62.9110   31.6340   48.9490 C   0  0  0  0  0  0  0  0  0  0  0  0
   63.0610   30.6323   49.3780 H   0  0  0  0  0  0  0  0  0  0  0  0
   62.6734   32.3587   49.7417 H   0  0  0  0  0  0  0  0  0  0  0  0
   61.7420   31.5870   47.9610 C   0  0  0  0  0  0  0  0  0  0  0  0
   61.9042   30.7677   47.2452 H   0  0  0  0  0  0  0  0  0  0  0  0
   60.8083   31.4203   48.5181 H   0  0  0  0  0  0  0  0  0  0  0  0
   59.6300   32.4530   45.8960 N   0  0  0  0  0  0  0  0  0  0  0  0
   59.9770   31.4920   45.6820 H   0  0  0  0  0  0  0  0  0  0  0  0
   57.7740   31.9650   43.1260 C   0  0  0  0  0  0  0  0  0  0  0  0
   58.4463   32.6888   42.6421 H   0  0  0  0  0  0  0  0  0  0  0  0
   57.0180   31.0770   42.3620 C   0  0  0  0  0  0  0  0  0  0  0  0
   57.0975   31.0896   41.2649 H   0  0  0  0  0  0  0  0  0  0  0  0
   56.1840   30.1970   42.9720 N   0  0  0  0  0  0  0  0  0  0  0  0
  1  2  1  0
  2  3  2  0
  3  4  1  0
  4  5  2  0
  5  6  1  0
  6  7  2  0
  7  8  1  0
  7  9  1  0
  9 10  1  0
  9 11  2  0
 11 12  1  0
 12 13  1  0
 13 14  1  0
 14 15  1  0
 14 16  1  0
 14 17  1  0
 17 18  1  0
 17 19  1  0
 17 20  1  0
 20 21  1  0
 21 22  1  0
 21 23  1  0
 21 24  1  0
 24 25  1  0
 24 26  1  0
 12 27  2  0
 27 28  1  0
  5 29  1  0
 29 30  1  0
 29 31  2  0
 31 32  1  0
 31 33  1  0
 33  3  1  0
 27  6  1  0
 24 13  1  0
M  CHG  2  27   1  33  -1
M  END
>  <UniqueID>  (15) 
12

>  <SMILES>  (15) 
[H]/N=c1/nc(-c2[nH+]c(N3CCOCC3)ncc2F)cc[n-]1

>  <Energy>  (15) 
44.61087478476772

>  <Genealogy>  (15) 
N=c1nc(-c2[nH+]c(N3CCOCC3)ncc2F)cc[n-]1 (protonated)
[H]/N=c1/nc(-c2[nH+]c(N3CCOCC3)ncc2F)cc[n-]1 (cis-trans isomerization)
[H]/N=c1/nc(-c2[nH+]c(N3CCOCC3)ncc2F)cc[n-]1 (3D coordinates assigned)
[H]/N=c1/nc(-c2[nH+]c(N3CCOCC3)ncc2F)cc[n-]1 (nonaromatic ring conformer: 44.61087478476772 kcal/mol)

>  <smiles>  (15) 
N=c1nc(-c2nc(N3CCOCC3)ncc2F)cc[nH]1

>  <score_type>  (15) 
oracle

>  <origin>  (15) 
adg

>  <m_score__min__energy>  (15) 
-7.9000000000000004

>  <m_primary>  (15) 
energy

$$$$
15:0
     RDKit          3D

 56 59  0  0  0  0  0  0  0  0999 V2000
   59.8270   33.5750   48.5050 N   0  0  0  0  0  0  0  0  0  0  0  0
   59.7450   34.3610   46.9680 S   0  0  0  0  0  0  0  0  0  0  0  0
   59.0730   35.6970   47.1250 O   0  0  0  0  0  0  0  0  0  0  0  0
   61.1330   34.5780   46.4330 O   0  0  0  0  0  0  0  0  0  0  0  0
   58.8290   33.3570   45.8500 C   0  0  0  0  0  0  0  0  0  0  0  0
   58.5430   33.8250   44.5610 C   0  0  0  0  0  0  0  0  0  0  0  0
   57.8570   33.0130   43.6550 C   0  0  0  0  0  0  0  0  0  0  0  0
   57.4690   31.7230   44.0260 C   0  0  0  0  0  0  0  0  0  0  0  0
   57.7690   31.2350   45.3100 C   0  0  0  0  0  0  0  0  0  0  0  0
   57.4510   29.8920   45.6980 N   0  0  0  0  0  0  0  0  0  0  0  0
   58.3690   28.7970   45.6270 C   0  0  0  0  0  0  0  0  0  0  0  0
   58.2540   27.9580   44.6940 O   0  0  0  0  0  0  0  0  0  0  0  0
   59.3760   28.5580   46.7180 C   0  0  0  0  0  0  0  0  0  0  0  0
   58.7240   29.0590   48.3500 S   0  0  0  0  0  0  0  0  0  0  0  0
   60.1720   30.0150   48.8460 C   0  0  0  0  0  0  0  0  0  0  0  0
   60.8320   30.6980   47.8760 N   0  0  0  0  0  0  0  0  0  0  0  0
   61.9200   31.4530   48.1490 C   0  0  0  0  0  0  0  0  0  0  0  0
   62.5680   32.1480   47.1200 C   0  0  0  0  0  0  0  0  0  0  0  0
   63.6910   32.9290   47.4020 C   0  0  0  0  0  0  0  0  0  0  0  0
   64.1690   33.0210   48.7120 C   0  0  0  0  0  0  0  0  0  0  0  0
   63.5260   32.3310   49.7450 C   0  0  0  0  0  0  0  0  0  0  0  0
   62.3940   31.5410   49.4690 C   0  0  0  0  0  0  0  0  0  0  0  0
   61.7180   30.8180   50.4660 C   0  0  0  0  0  0  0  0  0  0  0  0
   62.1330   30.8690   51.6580 O   0  0  0  0  0  0  0  0  0  0  0  0
   60.6220   30.0490   50.1480 N   0  0  0  0  0  0  0  0  0  0  0  0
   60.0260   29.1830   51.1880 C   0  0  0  0  0  0  0  0  0  0  0  0
   58.6830   29.7540   51.6700 C   0  0  0  0  0  0  0  0  0  0  0  0
   58.7960   31.1810   51.9680 N   0  0  0  0  0  0  0  0  0  0  0  0
   59.2690   31.7290   53.2270 C   0  0  0  0  0  0  0  0  0  0  0  0
   59.0530   33.2510   53.1260 C   0  0  0  0  0  0  0  0  0  0  0  0
   58.7580   33.5690   51.6510 C   0  0  0  0  0  0  0  0  0  0  0  0
   58.5540   32.2340   51.0550 C   0  0  0  0  0  0  0  0  0  0  0  0
   58.2100   32.0440   49.8580 O   0  0  0  0  0  0  0  0  0  0  0  0
   58.4270   32.0680   46.2240 C   0  0  0  0  0  0  0  0  0  0  0  0
   59.7050   32.5520   48.3320 H   0  0  0  0  0  0  0  0  0  0  0  0
   58.9950   33.8890   49.0540 H   0  0  0  0  0  0  0  0  0  0  0  0
   58.8596   34.8350   44.2615 H   0  0  0  0  0  0  0  0  0  0  0  0
   57.6220   33.3894   42.6485 H   0  0  0  0  0  0  0  0  0  0  0  0
   56.9268   31.0869   43.3109 H   0  0  0  0  0  0  0  0  0  0  0  0
   59.6258   27.4871   46.7460 H   0  0  0  0  0  0  0  0  0  0  0  0
   60.2696   29.1622   46.5023 H   0  0  0  0  0  0  0  0  0  0  0  0
   62.1920   32.0786   46.0886 H   0  0  0  0  0  0  0  0  0  0  0  0
   64.1998   33.4723   46.5921 H   0  0  0  0  0  0  0  0  0  0  0  0
   65.0531   33.6376   48.9313 H   0  0  0  0  0  0  0  0  0  0  0  0
   63.9055   32.4058   50.7747 H   0  0  0  0  0  0  0  0  0  0  0  0
   59.8618   28.1787   50.7704 H   0  0  0  0  0  0  0  0  0  0  0  0
   60.7156   29.1339   52.0436 H   0  0  0  0  0  0  0  0  0  0  0  0
   57.9278   29.6097   50.8833 H   0  0  0  0  0  0  0  0  0  0  0  0
   58.3881   29.2267   52.5892 H   0  0  0  0  0  0  0  0  0  0  0  0
   58.6919   31.3145   54.0667 H   0  0  0  0  0  0  0  0  0  0  0  0
   60.3251   31.4797   53.4073 H   0  0  0  0  0  0  0  0  0  0  0  0
   58.2027   33.5539   53.7546 H   0  0  0  0  0  0  0  0  0  0  0  0
   59.9426   33.7966   53.4737 H   0  0  0  0  0  0  0  0  0  0  0  0
   57.8535   34.1873   51.5536 H   0  0  0  0  0  0  0  0  0  0  0  0
   59.5603   34.1422   51.1634 H   0  0  0  0  0  0  0  0  0  0  0  0
   58.6296   31.7073   47.2432 H   0  0  0  0  0  0  0  0  0  0  0  0
  1  2  1  0
  2  3  2  0
  2  4  2  0
  2  5  1  0
  5  6  2  0
  6  7  1  0
  7  8  2  0
  8  9  1  0
  9 10  1  0
 10 11  1  0
 11 12  2  0
 11 13  1  0
 13 14  1  0
 14 15  1  0
 15 16  2  0
 16 17  1  0
 17 18  2  0
 18 19  1  0
 19 20  2  0
 20 21  1  0
 21 22  2  0
 22 23  1  0
 23 24  2  0
 23 25  1  0
 25 26  1  0
 26 27  1  0
 27 28  1  0
 28 29  1  0
 29 30  1  0
 30 31  1  0
 31 32  1  0
 32 33  2  0
  9 34  2  0
 34  5  1  0
 25 15  1  0
 32 28  1  0
 22 17  1  0
  1 35  1  0
  1 36  1  0
  6 37  1  0
  7 38  1  0
  8 39  1  0
 13 40  1  0
 13 41  1  0
 18 42  1  0
 19 43  1  0
 20 44  1  0
 21 45  1  0
 26 46  1  0
 26 47  1  0
 27 48  1  0
 27 49  1  0
 29 50  1  0
 29 51  1  0
 30 52  1  0
 30 53  1  0
 31 54  1  0
 31 55  1  0
 34 56  1  0
M  CHG  1  10  -1
M  END
>  <UniqueID>  (16) 
13

>  <SMILES>  (16) 
NS(=O)(=O)c1cccc([N-]C(=O)CSc2nc3ccccc3c(=O)n2CCN2CCCC2=O)c1

>  <Energy>  (16) 
70.52952627348701

>  <Genealogy>  (16) 
NS(=O)(=O)c1cccc([N-]C(=O)CSc2nc3ccccc3c(=O)n2CCN2CCCC2=O)c1 (protonated)
NS(=O)(=O)c1cccc([N-]C(=O)CSc2nc3ccccc3c(=O)n2CCN2CCCC2=O)c1 (3D coordinates assigned)
NS(=O)(=O)c1cccc([N-]C(=O)CSc2nc3ccccc3c(=O)n2CCN2CCCC2=O)c1 (nonaromatic ring conformer: 70.52952627348701 kcal/mol)

>  <smiles>  (16) 
NS(=O)(=O)c1cccc(NC(=O)CSc2nc3ccccc3c(=O)n2CCN2CCCC2=O)c1

>  <score_type>  (16) 
oracle

>  <origin>  (16) 
adg

>  <m_score__min__energy>  (16) 
-11.27

>  <m_primary>  (16) 
energy

$$$$
16:0
     RDKit          3D

 49 51  0  0  0  0  0  0  0  0999 V2000
   60.8440   34.4230   48.5760 C   0  0  0  0  0  0  0  0  0  0  0  0
   59.7720   33.9520   47.6390 C   0  0  0  0  0  0  0  0  0  0  0  0
   59.4900   34.6730   46.4690 C   0  0  0  0  0  0  0  0  0  0  0  0
   58.5160   34.2150   45.5740 C   0  0  0  0  0  0  0  0  0  0  0  0
   57.8310   33.0110   45.8230 C   0  0  0  0  0  0  0  0  0  0  0  0
   56.8150   32.5140   44.9410 N   0  0  0  0  0  0  0  0  0  0  0  0
   56.7570   31.1990   44.3770 C   0  0  0  0  0  0  0  0  0  0  0  0
   56.6460   31.0760   43.1300 O   0  0  0  0  0  0  0  0  0  0  0  0
   56.7160   30.0770   45.2160 O   0  0  0  0  0  0  0  0  0  0  0  0
   57.7170   29.0980   45.3390 C   0  0  0  0  0  0  0  0  0  0  0  0
   59.0890   29.4170   45.2990 C   0  0  0  0  0  0  0  0  0  0  0  0
   60.0490   28.4140   45.4410 C   0  0  0  0  0  0  0  0  0  0  0  0
   59.6560   27.0900   45.6340 C   0  0  0  0  0  0  0  0  0  0  0  0
   58.2980   26.7650   45.6940 C   0  0  0  0  0  0  0  0  0  0  0  0
   57.3230   27.7690   45.5690 C   0  0  0  0  0  0  0  0  0  0  0  0
   55.9230   27.4560   45.6160 N   0  0  0  0  0  0  0  0  0  0  0  0
   55.3670   26.2110   46.0500 C   0  0  0  0  0  0  0  0  0  0  0  0
   56.0660   25.4420   46.7620 O   0  0  0  0  0  0  0  0  0  0  0  0
   54.0560   25.8140   45.6320 N   0  0  0  0  0  0  0  0  0  0  0  0
   53.6080   24.4270   45.5730 C   0  0  0  0  0  0  0  0  0  0  0  0
   54.1560   23.7470   44.3160 C   0  0  0  0  0  0  0  0  0  0  0  0
   55.5410   23.2120   44.5590 C   0  0  0  0  0  0  0  0  0  0  0  0
   56.6540   23.8300   43.9640 C   0  0  0  0  0  0  0  0  0  0  0  0
   57.9430   23.3360   44.1950 C   0  0  0  0  0  0  0  0  0  0  0  0
   58.1300   22.2320   45.0320 C   0  0  0  0  0  0  0  0  0  0  0  0
   57.0290   21.6250   45.6450 C   0  0  0  0  0  0  0  0  0  0  0  0
   55.7400   22.1140   45.4140 C   0  0  0  0  0  0  0  0  0  0  0  0
   58.1090   32.2980   46.9960 C   0  0  0  0  0  0  0  0  0  0  0  0
   59.0810   32.7570   47.8930 C   0  0  0  0  0  0  0  0  0  0  0  0
   60.5129   34.2775   49.6148 H   0  0  0  0  0  0  0  0  0  0  0  0
   61.7640   33.8462   48.4002 H   0  0  0  0  0  0  0  0  0  0  0  0
   61.0414   35.4908   48.4002 H   0  0  0  0  0  0  0  0  0  0  0  0
   60.0370   35.6028   46.2539 H   0  0  0  0  0  0  0  0  0  0  0  0
   58.2847   34.7993   44.6712 H   0  0  0  0  0  0  0  0  0  0  0  0
   59.4047   30.4609   45.1553 H   0  0  0  0  0  0  0  0  0  0  0  0
   61.1184   28.6685   45.4006 H   0  0  0  0  0  0  0  0  0  0  0  0
   60.4152   26.3010   45.7391 H   0  0  0  0  0  0  0  0  0  0  0  0
   57.9912   25.7188   45.8397 H   0  0  0  0  0  0  0  0  0  0  0  0
   53.9689   23.8905   46.4629 H   0  0  0  0  0  0  0  0  0  0  0  0
   52.5086   24.4062   45.5418 H   0  0  0  0  0  0  0  0  0  0  0  0
   53.4920   22.9156   44.0371 H   0  0  0  0  0  0  0  0  0  0  0  0
   54.2017   24.4889   43.5051 H   0  0  0  0  0  0  0  0  0  0  0  0
   56.5116   24.7058   43.3139 H   0  0  0  0  0  0  0  0  0  0  0  0
   58.8096   23.8168   43.7176 H   0  0  0  0  0  0  0  0  0  0  0  0
   59.1428   21.8408   45.2085 H   0  0  0  0  0  0  0  0  0  0  0  0
   57.1777   20.7614   46.3099 H   0  0  0  0  0  0  0  0  0  0  0  0
   54.8777   21.6376   45.9033 H   0  0  0  0  0  0  0  0  0  0  0  0
   57.5595   31.3704   47.2141 H   0  0  0  0  0  0  0  0  0  0  0  0
   59.3043   32.1782   48.8014 H   0  0  0  0  0  0  0  0  0  0  0  0
  1  2  1  0
  2  3  2  0
  3  4  1  0
  4  5  2  0
  5  6  1  0
  6  7  1  0
  7  8  2  0
  7  9  1  0
  9 10  1  0
 10 11  2  0
 11 12  1  0
 12 13  2  0
 13 14  1  0
 14 15  2  0
 15 16  1  0
 16 17  1  0
 17 18  2  0
 17 19  1  0
 19 20  1  0
 20 21  1  0
 21 22  1  0
 22 23  2  0
 23 24  1  0
 24 25  2  0
 25 26  1  0
 26 27  2  0
  5 28  1  0
 28 29  2  0
 29  2  1  0
 15 10  1  0
 27 22  1  0
  1 30  1  0
  1 31  1  0
  1 32  1  0
  3 33  1  0
  4 34  1  0
 11 35  1  0
 12 36  1  0
 13 37  1  0
 14 38  1  0
 20 39  1  0
 20 40  1  0
 21 41  1  0
 21 42  1  0
 23 43  1  0
 24 44  1  0
 25 45  1  0
 26 46  1  0
 27 47  1  0
 28 48  1  0
 29 49  1  0
M  CHG  3   6  -1  16  -1  19  -1
M  END
>  <UniqueID>  (17) 
14

>  <SMILES>  (17) 
Cc1ccc([N-]C(=O)Oc2ccccc2[N-]C(=O)[N-]CCc2ccccc2)cc1

>  <Energy>  (17) 
56.94136903185166

>  <Genealogy>  (17) 
Cc1ccc([N-]C(=O)Oc2ccccc2[N-]C(=O)[N-]CCc2ccccc2)cc1 (protonated)
Cc1ccc([N-]C(=O)Oc2ccccc2[N-]C(=O)[N-]CCc2ccccc2)cc1 (3D coordinates assigned)
Cc1ccc([N-]C(=O)Oc2ccccc2[N-]C(=O)[N-]CCc2ccccc2)cc1 (optimized conformer: 56.94136903185166 kcal/mol)

>  <smiles>  (17) 
Cc1ccc(NC(=O)Oc2ccccc2NC(=O)NCCc2ccccc2)cc1

>  <score_type>  (17) 
oracle

>  <origin>  (17) 
adg

>  <m_score__min__energy>  (17) 
-14.68

>  <m_primary>  (17) 
energy

$$$$
17:0
     RDKit          3D

 39 41  0  0  0  0  0  0  0  0999 V2000
   54.4660   26.1510   45.9940 N   0  0  0  0  0  0  0  0  0  0  0  0
   55.7750   25.0380   46.1800 S   0  0  0  0  0  0  0  0  0  0  0  0
   55.7290   24.4310   47.5540 O   0  0  0  0  0  0  0  0  0  0  0  0
   55.6480   23.9390   45.1630 O   0  0  0  0  0  0  0  0  0  0  0  0
   57.3000   25.8890   45.9560 C   0  0  0  0  0  0  0  0  0  0  0  0
   58.5030   25.2950   46.3560 C   0  0  0  0  0  0  0  0  0  0  0  0
   59.7130   25.9650   46.1640 C   0  0  0  0  0  0  0  0  0  0  0  0
   59.7300   27.2310   45.5730 C   0  0  0  0  0  0  0  0  0  0  0  0
   58.5300   27.8440   45.1680 C   0  0  0  0  0  0  0  0  0  0  0  0
   58.5290   29.1830   44.5300 C   0  0  0  0  0  0  0  0  0  0  0  0
   59.6300   29.7390   44.2640 O   0  0  0  0  0  0  0  0  0  0  0  0
   57.2990   29.8470   44.1960 N   0  0  0  0  0  0  0  0  0  0  0  0
   57.2680   31.1930   43.6290 C   0  0  0  0  0  0  0  0  0  0  0  0
   57.9020   32.1740   44.5790 C   0  0  0  0  0  0  0  0  0  0  0  0
   58.3140   33.4380   44.1290 C   0  0  0  0  0  0  0  0  0  0  0  0
   58.8840   34.3540   45.0160 C   0  0  0  0  0  0  0  0  0  0  0  0
   59.0460   34.0200   46.3680 C   0  0  0  0  0  0  0  0  0  0  0  0
   59.6150   34.9350   47.2690 C   0  0  0  0  0  0  0  0  0  0  0  0
   59.7690   34.5900   48.6150 C   0  0  0  0  0  0  0  0  0  0  0  0
   59.3570   33.3350   49.0710 C   0  0  0  0  0  0  0  0  0  0  0  0
   58.7890   32.4160   48.1860 C   0  0  0  0  0  0  0  0  0  0  0  0
   58.6290   32.7480   46.8310 C   0  0  0  0  0  0  0  0  0  0  0  0
   58.0590   31.8340   45.9310 C   0  0  0  0  0  0  0  0  0  0  0  0
   57.3170   27.1550   45.3550 C   0  0  0  0  0  0  0  0  0  0  0  0
   54.7760   27.0580   46.4100 H   0  0  0  0  0  0  0  0  0  0  0  0
   58.4950   24.2988   46.8223 H   0  0  0  0  0  0  0  0  0  0  0  0
   60.6561   25.4945   46.4791 H   0  0  0  0  0  0  0  0  0  0  0  0
   60.6874   27.7516   45.4234 H   0  0  0  0  0  0  0  0  0  0  0  0
   56.3900   29.3420   44.2910 H   0  0  0  0  0  0  0  0  0  0  0  0
   57.8210   31.1992   42.6782 H   0  0  0  0  0  0  0  0  0  0  0  0
   56.2215   31.4855   43.4577 H   0  0  0  0  0  0  0  0  0  0  0  0
   58.1871   33.7091   43.0705 H   0  0  0  0  0  0  0  0  0  0  0  0
   59.2069   35.3408   44.6526 H   0  0  0  0  0  0  0  0  0  0  0  0
   59.9399   35.9245   46.9150 H   0  0  0  0  0  0  0  0  0  0  0  0
   60.2160   35.3089   49.3175 H   0  0  0  0  0  0  0  0  0  0  0  0
   59.4806   33.0698   50.1314 H   0  0  0  0  0  0  0  0  0  0  0  0
   58.4662   31.4299   48.5512 H   0  0  0  0  0  0  0  0  0  0  0  0
   57.7336   30.8457   46.2878 H   0  0  0  0  0  0  0  0  0  0  0  0
   56.3732   27.6146   45.0263 H   0  0  0  0  0  0  0  0  0  0  0  0
  1  2  1  0
  2  3  2  0
  2  4  2  0
  2  5  1  0
  5  6  2  0
  6  7  1  0
  7  8  2  0
  8  9  1  0
  9 10  1  0
 10 11  2  0
 10 12  1  0
 12 13  1  0
 13 14  1  0
 14 15  2  0
 15 16  1  0
 16 17  2  0
 17 18  1  0
 18 19  2  0
 19 20  1  0
 20 21  2  0
 21 22  1  0
 22 23  2  0
  9 24  2  0
 24  5  1  0
 23 14  1  0
 22 17  1  0
  1 25  1  0
  6 26  1  0
  7 27  1  0
  8 28  1  0
 12 29  1  0
 13 30  1  0
 13 31  1  0
 15 32  1  0
 16 33  1  0
 18 34  1  0
 19 35  1  0
 20 36  1  0
 21 37  1  0
 23 38  1  0
 24 39  1  0
M  CHG  1   1  -1
M  END
>  <UniqueID>  (18) 
15

>  <SMILES>  (18) 
[NH-]S(=O)(=O)c1cccc(C(=O)NCc2ccc3ccccc3c2)c1

>  <Energy>  (18) 
44.581230142917995

>  <Genealogy>  (18) 
[NH-]S(=O)(=O)c1cccc(C(=O)NCc2ccc3ccccc3c2)c1 (protonated)
[NH-]S(=O)(=O)c1cccc(C(=O)NCc2ccc3ccccc3c2)c1 (3D coordinates assigned)
[NH-]S(=O)(=O)c1cccc(C(=O)NCc2ccc3ccccc3c2)c1 (optimized conformer: 44.581230142917995 kcal/mol)

>  <smiles>  (18) 
NS(=O)(=O)c1cccc(C(=O)NCc2ccc3ccccc3c2)c1

>  <score_type>  (18) 
oracle

>  <origin>  (18) 
adg

>  <m_score__min__energy>  (18) 
-11.630000000000001

>  <m_primary>  (18) 
energy

$$$$
18:0
     RDKit          3D

 49 52  0  0  0  0  0  0  0  0999 V2000
   58.1320   27.9380   47.4950 O   0  0  0  0  0  0  0  0  0  0  0  0
   57.7510   28.1090   46.3120 C   0  0  0  0  0  0  0  0  0  0  0  0
   58.0840   27.0730   45.2760 C   0  0  0  0  0  0  0  0  0  0  0  0
   57.3820   25.8290   45.5840 N   0  0  0  0  0  0  0  0  0  0  0  0
   57.9500   24.6100   45.7600 C   0  0  0  0  0  0  0  0  0  0  0  0
   59.3080   24.3440   45.5880 O   0  0  0  0  0  0  0  0  0  0  0  0
   57.0010   23.6910   46.1580 C   0  0  0  0  0  0  0  0  0  0  0  0
   55.8140   24.3870   46.2850 C   0  0  0  0  0  0  0  0  0  0  0  0
   56.0760   25.6880   45.9050 C   0  0  0  0  0  0  0  0  0  0  0  0
   55.1410   26.7210   45.8730 O   0  0  0  0  0  0  0  0  0  0  0  0
   54.5190   23.7660   46.7160 C   0  0  0  0  0  0  0  0  0  0  0  0
   54.7790   22.4090   47.4220 C   0  0  0  0  0  0  0  0  0  0  0  0
   55.8210   21.5490   46.6580 C   0  0  0  0  0  0  0  0  0  0  0  0
   57.1860   22.2570   46.5720 C   0  0  0  0  0  0  0  0  0  0  0  0
   56.9000   29.2230   46.0070 N   0  0  0  0  0  0  0  0  0  0  0  0
   56.9510   29.9810   44.7920 C   0  0  0  0  0  0  0  0  0  0  0  0
   56.3210   29.4270   43.6590 C   0  0  0  0  0  0  0  0  0  0  0  0
   56.3630   30.0730   42.4280 C   0  0  0  0  0  0  0  0  0  0  0  0
   57.0500   31.2720   42.3010 C   0  0  0  0  0  0  0  0  0  0  0  0
   57.6900   31.8370   43.4040 C   0  0  0  0  0  0  0  0  0  0  0  0
   57.6650   31.2170   44.6870 C   0  0  0  0  0  0  0  0  0  0  0  0
   58.2900   31.8960   45.8370 N   0  0  0  0  0  0  0  0  0  0  0  0
   57.9460   33.3160   46.0890 C   0  0  0  0  0  0  0  0  0  0  0  0
   58.6510   33.9370   47.2980 C   0  0  0  0  0  0  0  0  0  0  0  0
   58.8170   32.9970   48.3350 O   0  0  0  0  0  0  0  0  0  0  0  0
   59.7350   32.0190   47.8980 C   0  0  0  0  0  0  0  0  0  0  0  0
   59.1150   31.1450   46.8130 C   0  0  0  0  0  0  0  0  0  0  0  0
   57.7725   27.4334   44.2845 H   0  0  0  0  0  0  0  0  0  0  0  0
   59.1687   26.8904   45.2772 H   0  0  0  0  0  0  0  0  0  0  0  0
   54.0057   24.4448   47.4130 H   0  0  0  0  0  0  0  0  0  0  0  0
   53.8933   23.5924   45.8281 H   0  0  0  0  0  0  0  0  0  0  0  0
   55.1541   22.6028   48.4378 H   0  0  0  0  0  0  0  0  0  0  0  0
   53.8310   21.8517   47.4487 H   0  0  0  0  0  0  0  0  0  0  0  0
   55.9480   20.5913   47.1839 H   0  0  0  0  0  0  0  0  0  0  0  0
   55.4512   21.3888   45.6345 H   0  0  0  0  0  0  0  0  0  0  0  0
   57.6758   22.2231   47.5564 H   0  0  0  0  0  0  0  0  0  0  0  0
   57.8100   21.7449   45.8248 H   0  0  0  0  0  0  0  0  0  0  0  0
   55.7880   28.4691   43.7500 H   0  0  0  0  0  0  0  0  0  0  0  0
   55.8530   29.6347   41.5575 H   0  0  0  0  0  0  0  0  0  0  0  0
   57.0900   31.7793   41.3258 H   0  0  0  0  0  0  0  0  0  0  0  0
   58.2291   32.7878   43.2801 H   0  0  0  0  0  0  0  0  0  0  0  0
   58.2179   33.8986   45.1965 H   0  0  0  0  0  0  0  0  0  0  0  0
   56.8685   33.3418   46.3089 H   0  0  0  0  0  0  0  0  0  0  0  0
   59.6399   34.3042   46.9861 H   0  0  0  0  0  0  0  0  0  0  0  0
   58.0294   34.7625   47.6751 H   0  0  0  0  0  0  0  0  0  0  0  0
   60.6284   32.5173   47.4937 H   0  0  0  0  0  0  0  0  0  0  0  0
   60.0073   31.3823   48.7527 H   0  0  0  0  0  0  0  0  0  0  0  0
   59.9269   30.6427   46.2666 H   0  0  0  0  0  0  0  0  0  0  0  0
   58.4446   30.4346   47.3188 H   0  0  0  0  0  0  0  0  0  0  0  0
  1  2  2  0
  2  3  1  0
  3  4  1  0
  4  5  1  0
  5  6  1  0
  5  7  2  0
  7  8  1  0
  8  9  2  0
  9 10  1  0
  8 11  1  0
 11 12  1  0
 12 13  1  0
 13 14  1  0
  2 15  1  0
 15 16  1  0
 16 17  2  0
 17 18  1  0
 18 19  2  0
 19 20  1  0
 20 21  2  0
 21 22  1  0
 22 23  1  0
 23 24  1  0
 24 25  1  0
 25 26  1  0
 26 27  1  0
  9  4  1  0
 21 16  1  0
 27 22  1  0
 14  7  1  0
  3 28  1  0
  3 29  1  0
 11 30  1  0
 11 31  1  0
 12 32  1  0
 12 33  1  0
 13 34  1  0
 13 35  1  0
 14 36  1  0
 14 37  1  0
 17 38  1  0
 18 39  1  0
 19 40  1  0
 20 41  1  0
 23 42  1  0
 23 43  1  0
 24 44  1  0
 24 45  1  0
 26 46  1  0
 26 47  1  0
 27 48  1  0
 27 49  1  0
M  CHG  3   6  -1  10  -1  15  -1
M  END
>  <UniqueID>  (19) 
16

>  <SMILES>  (19) 
O=C(Cn1c([O-])c2c(c1[O-])CCCC2)[N-]c1ccccc1N1CCOCC1

>  <Energy>  (19) 
96.24029196348133

>  <Genealogy>  (19) 
O=C(Cn1c([O-])c2c(c1[O-])CCCC2)[N-]c1ccccc1N1CCOCC1 (protonated)
O=C(Cn1c([O-])c2c(c1[O-])CCCC2)[N-]c1ccccc1N1CCOCC1 (3D coordinates assigned)
O=C(Cn1c([O-])c2c(c1[O-])CCCC2)[N-]c1ccccc1N1CCOCC1 (nonaromatic ring conformer: 96.24029196348133 kcal/mol)

>  <smiles>  (19) 
O=C(Cn1c(O)c2c(c1O)CCCC2)Nc1ccccc1N1CCOCC1

>  <score_type>  (19) 
oracle

>  <origin>  (19) 
adg

>  <m_score__min__energy>  (19) 
-14.710000000000001

>  <m_primary>  (19) 
energy

$$$$
19:0
     RDKit          3D

 39 41  0  0  0  0  0  0  0  0999 V2000
   59.2680   35.4470   46.2200 O   0  0  0  0  0  0  0  0  0  0  0  0
   59.3560   34.2920   46.7180 C   0  0  0  0  0  0  0  0  0  0  0  0
   60.0610   34.0920   47.9530 N   0  0  0  0  0  0  0  0  0  0  0  0
   61.4550   33.7830   48.1020 C   0  0  0  0  0  0  0  0  0  0  0  0
   62.2860   33.5420   46.9920 C   0  0  0  0  0  0  0  0  0  0  0  0
   63.6340   33.2190   47.1770 C   0  0  0  0  0  0  0  0  0  0  0  0
   64.1600   33.1200   48.4670 C   0  0  0  0  0  0  0  0  0  0  0  0
   63.3360   33.3350   49.5760 C   0  0  0  0  0  0  0  0  0  0  0  0
   61.9860   33.6580   49.3960 C   0  0  0  0  0  0  0  0  0  0  0  0
   61.1760   33.8600   50.5080 O   0  0  0  0  0  0  0  0  0  0  0  0
   58.6850   33.1490   46.0550 C   0  0  0  0  0  0  0  0  0  0  0  0
   57.4110   33.3020   45.4790 C   0  0  0  0  0  0  0  0  0  0  0  0
   56.7790   32.2210   44.8570 C   0  0  0  0  0  0  0  0  0  0  0  0
   57.4060   30.9710   44.8060 C   0  0  0  0  0  0  0  0  0  0  0  0
   56.6080   29.6040   44.0350 S   0  0  0  0  0  0  0  0  0  0  0  0
   57.6220   28.8330   43.2400 O   0  0  0  0  0  0  0  0  0  0  0  0
   55.5190   30.0760   43.1140 O   0  0  0  0  0  0  0  0  0  0  0  0
   55.9180   28.5620   45.2380 N   0  0  0  0  0  0  0  0  0  0  0  0
   56.5600   27.4120   45.8060 C   0  0  0  0  0  0  0  0  0  0  0  0
   57.9510   27.3670   46.0260 C   0  0  0  0  0  0  0  0  0  0  0  0
   58.5410   26.2250   46.5740 C   0  0  0  0  0  0  0  0  0  0  0  0
   57.7540   25.1210   46.9090 C   0  0  0  0  0  0  0  0  0  0  0  0
   56.3740   25.1580   46.6980 C   0  0  0  0  0  0  0  0  0  0  0  0
   55.7770   26.2980   46.1480 C   0  0  0  0  0  0  0  0  0  0  0  0
   54.4020   26.3190   45.9410 O   0  0  0  0  0  0  0  0  0  0  0  0
   58.6760   30.8120   45.3720 C   0  0  0  0  0  0  0  0  0  0  0  0
   59.3110   31.8900   45.9940 C   0  0  0  0  0  0  0  0  0  0  0  0
   61.8734   33.6080   45.9745 H   0  0  0  0  0  0  0  0  0  0  0  0
   64.2811   33.0426   46.3051 H   0  0  0  0  0  0  0  0  0  0  0  0
   65.2222   32.8729   48.6105 H   0  0  0  0  0  0  0  0  0  0  0  0
   63.7494   33.2501   50.5918 H   0  0  0  0  0  0  0  0  0  0  0  0
   56.9081   34.2795   45.5182 H   0  0  0  0  0  0  0  0  0  0  0  0
   55.7846   32.3537   44.4058 H   0  0  0  0  0  0  0  0  0  0  0  0
   58.5751   28.2345   45.7653 H   0  0  0  0  0  0  0  0  0  0  0  0
   59.6277   26.1955   46.7419 H   0  0  0  0  0  0  0  0  0  0  0  0
   58.2210   24.2226   47.3389 H   0  0  0  0  0  0  0  0  0  0  0  0
   55.7547   24.2889   46.9648 H   0  0  0  0  0  0  0  0  0  0  0  0
   59.1767   29.8336   45.3270 H   0  0  0  0  0  0  0  0  0  0  0  0
   60.3076   31.7536   46.4393 H   0  0  0  0  0  0  0  0  0  0  0  0
  1  2  2  0
  2  3  1  0
  3  4  1  0
  4  5  2  0
  5  6  1  0
  6  7  2  0
  7  8  1  0
  8  9  2  0
  9 10  1  0
  2 11  1  0
 11 12  2  0
 12 13  1  0
 13 14  2  0
 14 15  1  0
 15 16  2  0
 15 17  2  0
 15 18  1  0
 18 19  1  0
 19 20  2  0
 20 21  1  0
 21 22  2  0
 22 23  1  0
 23 24  2  0
 24 25  1  0
 14 26  1  0
 26 27  2  0
  9  4  1  0
 27 11  1  0
 24 19  1  0
  5 28  1  0
  6 29  1  0
  7 30  1  0
  8 31  1  0
 12 32  1  0
 13 33  1  0
 20 34  1  0
 21 35  1  0
 22 36  1  0
 23 37  1  0
 26 38  1  0
 27 39  1  0
M  CHG  4   3  -1  10  -1  18  -1  25  -1
M  END
>  <UniqueID>  (20) 
17

>  <SMILES>  (20) 
O=C([N-]c1ccccc1[O-])c1ccc(S(=O)(=O)[N-]c2ccccc2[O-])cc1

>  <Energy>  (20) 
50.211440318013054

>  <Genealogy>  (20) 
O=C([N-]c1ccccc1[O-])c1ccc(S(=O)(=O)[N-]c2ccccc2[O-])cc1 (protonated)
O=C([N-]c1ccccc1[O-])c1ccc(S(=O)(=O)[N-]c2ccccc2[O-])cc1 (3D coordinates assigned)
O=C([N-]c1ccccc1[O-])c1ccc(S(=O)(=O)[N-]c2ccccc2[O-])cc1 (optimized conformer: 50.211440318013054 kcal/mol)

>  <smiles>  (20) 
O=C(Nc1ccccc1O)c1ccc(S(=O)(=O)Nc2ccccc2O)cc1

>  <score_type>  (20) 
oracle

>  <origin>  (20) 
adg

>  <m_score__min__energy>  (20) 
-16.559999999999999

>  <m_primary>  (20) 
energy

$$$$
20:0
     RDKit          3D

 53 55  0  0  1  0  0  0  0  0999 V2000
   57.7410   33.1730   44.4600 C   0  0  0  0  0  0  0  0  0  0  0  0
   57.4730   33.7930   45.8420 C   0  0  0  0  0  0  0  0  0  0  0  0
   59.0070   34.2790   46.6010 S   0  0  0  0  0  0  0  0  0  0  0  0
   59.9360   32.9120   47.1990 C   0  0  0  0  0  0  0  0  0  0  0  0
   59.9250   31.7940   46.3920 N   0  0  0  0  0  0  0  0  0  0  0  0
   60.5980   30.6780   46.6730 C   0  0  0  0  0  0  0  0  0  0  0  0
   60.5500   29.6730   45.8860 N   0  0  0  0  0  0  0  0  0  0  0  0
   59.5860   28.6320   45.9780 C   0  0  0  0  0  0  0  0  0  0  0  0
   58.3560   28.8950   45.3630 C   0  0  0  0  0  0  0  0  0  0  0  0
   57.3580   27.9440   45.4060 C   0  0  0  0  0  0  0  0  0  0  0  0
   57.5990   26.7420   46.0620 C   0  0  0  0  0  0  0  0  0  0  0  0
   56.2670   25.5930   46.0660 S   0  0  0  0  0  0  0  0  0  0  0  0
   54.9720   26.3390   45.9980 O   0  0  0  0  0  0  0  0  0  0  0  0
   56.2780   24.7030   47.2640 O   0  0  0  0  0  0  0  0  0  0  0  0
   56.3330   24.5950   44.6510 N   0  0  0  0  0  0  0  0  0  0  0  0
   56.9910   23.3150   44.6880 C   0  0  0  0  0  0  0  0  0  0  0  0
   56.9990   22.5340   43.4410 C   0  0  0  0  0  0  0  0  0  0  0  0
   57.5230   22.9190   45.7600 O   0  0  0  0  0  0  0  0  0  0  0  0
   58.8060   26.4810   46.6670 C   0  0  0  0  0  0  0  0  0  0  0  0
   59.8170   27.4360   46.6260 C   0  0  0  0  0  0  0  0  0  0  0  0
   61.3360   30.6110   47.7950 N   0  0  0  0  0  0  0  0  0  0  0  0
   61.3910   31.6650   48.6280 C   0  0  0  0  0  0  0  0  0  0  0  0
   62.1800   31.5590   49.8050 N   0  0  0  0  0  0  0  0  0  0  0  0
   63.2110   32.2550   50.0710 C   0  0  0  0  0  0  0  0  0  0  0  0
   64.5080   31.8630   49.8940 C   0  0  0  0  0  0  0  0  0  0  0  0
   65.2880   32.9210   50.3120 C   0  0  0  0  0  0  0  0  0  0  0  0
   66.7720   33.0030   50.3230 C   0  0  0  0  0  0  0  0  0  0  0  0
   64.4750   33.9100   50.7230 N   0  0  0  0  0  0  0  0  0  0  0  0
   63.2330   33.4850   50.5690 N   0  0  0  0  0  0  0  0  0  0  0  0
   60.6790   32.8540   48.3370 C   0  0  0  0  0  0  0  0  0  0  0  0
   60.8230   33.8650   49.3020 N   0  0  0  0  0  0  0  0  0  0  0  0
   61.5580   34.8480   48.9800 O   0  0  0  0  0  0  0  0  0  0  0  0
   60.2650   33.8870   50.5440 O   0  0  0  0  0  0  0  0  0  0  0  0
   58.1746   32.1699   44.5860 H   0  0  0  0  0  0  0  0  0  0  0  0
   56.7956   33.0965   43.9029 H   0  0  0  0  0  0  0  0  0  0  0  0
   58.4445   33.8092   43.9029 H   0  0  0  0  0  0  0  0  0  0  0  0
   56.8285   34.6768   45.7256 H   0  0  0  0  0  0  0  0  0  0  0  0
   56.9750   33.0485   46.4805 H   0  0  0  0  0  0  0  0  0  0  0  0
   59.3660   31.7880   45.5010 H   0  0  0  0  0  0  0  0  0  0  0  0
   58.1869   29.8529   44.8494 H   0  0  0  0  0  0  0  0  0  0  0  0
   56.3855   28.1337   44.9282 H   0  0  0  0  0  0  0  0  0  0  0  0
   55.8910   24.9240   43.7570 H   0  0  0  0  0  0  0  0  0  0  0  0
   57.0100   21.4605   43.6808 H   0  0  0  0  0  0  0  0  0  0  0  0
   56.0984   22.7696   42.8550 H   0  0  0  0  0  0  0  0  0  0  0  0
   57.8946   22.7880   42.8550 H   0  0  0  0  0  0  0  0  0  0  0  0
   58.9713   25.5224   47.1806 H   0  0  0  0  0  0  0  0  0  0  0  0
   60.7881   27.2400   47.1041 H   0  0  0  0  0  0  0  0  0  0  0  0
   64.8591   30.8986   49.4982 H   0  0  0  0  0  0  0  0  0  0  0  0
   67.1304   33.0228   51.3628 H   0  0  0  0  0  0  0  0  0  0  0  0
   67.1915   32.1267   49.8072 H   0  0  0  0  0  0  0  0  0  0  0  0
   67.0924   33.9202   49.8072 H   0  0  0  0  0  0  0  0  0  0  0  0
   64.7580   34.8520   51.1010 H   0  0  0  0  0  0  0  0  0  0  0  0
   62.4000   34.0850   50.8230 H   0  0  0  0  0  0  0  0  0  0  0  0
  1  2  1  0
  2  3  1  0
  3  4  1  0
  4  5  1  0
  5  6  1  0
  6  7  2  0
  7  8  1  0
  8  9  2  0
  9 10  1  0
 10 11  2  0
 11 12  1  0
 12 13  2  0
 12 14  2  0
 12 15  1  0
 15 16  1  0
 16 17  1  0
 16 18  2  0
 11 19  1  0
 19 20  2  0
  6 21  1  0
 21 22  2  0
 22 23  1  0
 23 24  2  0
 24 25  1  0
 25 26  2  0
 26 27  1  0
 26 28  1  0
 28 29  1  0
 22 30  1  0
 30 31  1  0
 31 32  2  0
 31 33  1  0
 30  4  2  0
 20  8  1  0
 29 24  1  0
  1 34  1  0
  1 35  1  0
  1 36  1  0
  2 37  1  0
  2 38  1  0
  5 39  1  0
  9 40  1  0
 10 41  1  0
 15 42  1  0
 17 43  1  0
 17 44  1  0
 17 45  1  0
 19 46  1  0
 20 47  1  0
 25 48  1  0
 27 49  1  0
 27 50  1  0
 27 51  1  0
 28 52  1  0
 29 53  1  0
M  CHG  2  31   1  33  -1
M  END
>  <smiles>  (21) 
CCSc1[nH]c(=Nc2ccc(S(=O)(=O)NC(C)=O)cc2)nc(N=c2cc(C)[nH][nH]2)c1[N+](=O)[O-]

>  <score_type>  (21) 
oracle

>  <origin>  (21) 
adg

>  <m_score__min__energy>  (21) 
-9.0899999999999999

>  <m_primary>  (21) 
energy

$$$$
21:0
     RDKit          3D

 41 43  0  0  0  0  0  0  0  0999 V2000
   59.3170   34.5720   47.3740 C   0  0  0  0  0  0  0  0  0  0  0  0
   58.9440   33.8040   46.1410 C   0  0  0  0  0  0  0  0  0  0  0  0
   59.0490   34.6320   44.8770 C   0  0  0  0  0  0  0  0  0  0  0  0
   57.5420   33.2590   46.2990 C   0  0  0  0  0  0  0  0  0  0  0  0
   57.1910   32.4020   45.2160 O   0  0  0  0  0  0  0  0  0  0  0  0
   57.5360   31.0580   45.2870 C   0  0  0  0  0  0  0  0  0  0  0  0
   58.1800   30.4970   46.3680 C   0  0  0  0  0  0  0  0  0  0  0  0
   58.4990   29.1390   46.3760 C   0  0  0  0  0  0  0  0  0  0  0  0
   58.1860   28.3180   45.3140 C   0  0  0  0  0  0  0  0  0  0  0  0
   58.5120   26.8820   45.2980 C   0  0  0  0  0  0  0  0  0  0  0  0
   59.5530   26.5470   45.8940 O   0  0  0  0  0  0  0  0  0  0  0  0
   57.7130   25.9160   44.6540 N   0  0  0  0  0  0  0  0  0  0  0  0
   57.9480   24.5310   44.5870 C   0  0  0  0  0  0  0  0  0  0  0  0
   58.9760   23.8520   45.1670 C   0  0  0  0  0  0  0  0  0  0  0  0
   59.1320   22.4670   45.0490 C   0  0  0  0  0  0  0  0  0  0  0  0
   60.1070   21.8830   45.6080 O   0  0  0  0  0  0  0  0  0  0  0  0
   58.2490   21.7670   44.3430 N   0  0  0  0  0  0  0  0  0  0  0  0
   57.2340   22.4380   43.7710 C   0  0  0  0  0  0  0  0  0  0  0  0
   56.2300   21.9530   43.0200 N   0  0  0  0  0  0  0  0  0  0  0  0
   55.4230   22.9600   42.6400 C   0  0  0  0  0  0  0  0  0  0  0  0
   55.9630   24.0670   43.1810 N   0  0  0  0  0  0  0  0  0  0  0  0
   57.0660   23.7670   43.8730 N   0  0  0  0  0  0  0  0  0  0  0  0
   57.5400   28.9160   44.2460 C   0  0  0  0  0  0  0  0  0  0  0  0
   57.2140   30.2540   44.2140 C   0  0  0  0  0  0  0  0  0  0  0  0
   59.0357   33.9928   48.2659 H   0  0  0  0  0  0  0  0  0  0  0  0
   60.4023   34.7509   47.3803 H   0  0  0  0  0  0  0  0  0  0  0  0
   58.7865   35.5356   47.3803 H   0  0  0  0  0  0  0  0  0  0  0  0
   59.6634   32.9790   46.0322 H   0  0  0  0  0  0  0  0  0  0  0  0
   59.1833   35.6910   45.1425 H   0  0  0  0  0  0  0  0  0  0  0  0
   59.9110   34.2902   44.2853 H   0  0  0  0  0  0  0  0  0  0  0  0
   58.1290   34.5161   44.2853 H   0  0  0  0  0  0  0  0  0  0  0  0
   57.4831   32.6903   47.2387 H   0  0  0  0  0  0  0  0  0  0  0  0
   56.8409   34.1065   46.3104 H   0  0  0  0  0  0  0  0  0  0  0  0
   58.4447   31.1248   47.2316 H   0  0  0  0  0  0  0  0  0  0  0  0
   59.0125   28.7132   47.2506 H   0  0  0  0  0  0  0  0  0  0  0  0
   56.8470   26.2850   44.1710 H   0  0  0  0  0  0  0  0  0  0  0  0
   59.7155   24.4169   45.7535 H   0  0  0  0  0  0  0  0  0  0  0  0
   58.3790   20.7380   44.2660 H   0  0  0  0  0  0  0  0  0  0  0  0
   54.5167   22.8927   42.0203 H   0  0  0  0  0  0  0  0  0  0  0  0
   57.2738   28.2921   43.3801 H   0  0  0  0  0  0  0  0  0  0  0  0
   56.7004   30.6781   43.3386 H   0  0  0  0  0  0  0  0  0  0  0  0
  1  2  1  0
  2  3  1  0
  2  4  1  0
  4  5  1  0
  5  6  1  0
  6  7  2  0
  7  8  1  0
  8  9  2  0
  9 10  1  0
 10 11  2  0
 10 12  1  0
 12 13  1  0
 13 14  2  0
 14 15  1  0
 15 16  2  0
 15 17  1  0
 17 18  1  0
 18 19  2  0
 19 20  1  0
 20 21  2  0
 21 22  1  0
  9 23  1  0
 23 24  2  0
 24  6  1  0
 22 13  1  0
 22 18  1  0
  1 25  1  0
  1 26  1  0
  1 27  1  0
  2 28  1  0
  3 29  1  0
  3 30  1  0
  3 31  1  0
  4 32  1  0
  4 33  1  0
  7 34  1  0
  8 35  1  0
 12 36  1  0
 14 37  1  0
 17 38  1  0
 20 39  1  0
 23 40  1  0
 24 41  1  0
M  END
>  <smiles>  (22) 
CC(C)COc1ccc(C(=O)Nc2cc(=O)[nH]c3ncnn23)cc1

>  <score_type>  (22) 
oracle

>  <origin>  (22) 
adg

>  <m_score__min__energy>  (22) 
-7.9199999999999999

>  <m_primary>  (22) 
energy

$$$$
22:0
     RDKit          3D

 42 44  0  0  0  0  0  0  0  0999 V2000
   56.7440   29.4030   53.8840 O   0  0  0  0  0  0  0  0  0  0  0  0
   56.9050   29.9580   52.7640 C   0  0  0  0  0  0  0  0  0  0  0  0
   55.7530   30.2250   51.8830 C   0  0  0  0  0  0  0  0  0  0  0  0
   54.4670   29.9960   52.1920 C   0  0  0  0  0  0  0  0  0  0  0  0
   53.3030   30.5800   51.4920 C   0  0  0  0  0  0  0  0  0  0  0  0
   52.8490   29.9880   50.3040 C   0  0  0  0  0  0  0  0  0  0  0  0
   51.7760   30.5450   49.6020 C   0  0  0  0  0  0  0  0  0  0  0  0
   51.1610   31.7120   50.0700 C   0  0  0  0  0  0  0  0  0  0  0  0
   50.0930   32.2590   49.3690 O   0  0  0  0  0  0  0  0  0  0  0  0
   51.6270   32.3260   51.2380 C   0  0  0  0  0  0  0  0  0  0  0  0
   51.0290   33.4940   51.7000 O   0  0  0  0  0  0  0  0  0  0  0  0
   52.7010   31.7700   51.9410 C   0  0  0  0  0  0  0  0  0  0  0  0
   58.2230   30.2430   52.2810 N   0  0  0  0  0  0  0  0  0  0  0  0
   59.0660   29.3410   51.5500 C   0  0  0  0  0  0  0  0  0  0  0  0
   59.7300   28.3260   52.2480 C   0  0  0  0  0  0  0  0  0  0  0  0
   60.5370   27.4110   51.5670 C   0  0  0  0  0  0  0  0  0  0  0  0
   60.6810   27.4990   50.1800 C   0  0  0  0  0  0  0  0  0  0  0  0
   60.0180   28.5110   49.4640 C   0  0  0  0  0  0  0  0  0  0  0  0
   60.1150   28.6080   48.0360 N   0  0  0  0  0  0  0  0  0  0  0  0
   59.8110   27.5700   47.0950 C   0  0  0  0  0  0  0  0  0  0  0  0
   60.7590   26.8840   46.6290 O   0  0  0  0  0  0  0  0  0  0  0  0
   58.4190   27.2490   46.7010 C   0  0  0  0  0  0  0  0  0  0  0  0
   57.8460   26.0210   47.0780 C   0  0  0  0  0  0  0  0  0  0  0  0
   56.5320   25.7130   46.7110 C   0  0  0  0  0  0  0  0  0  0  0  0
   55.7740   26.6280   45.9760 C   0  0  0  0  0  0  0  0  0  0  0  0
   54.4700   26.3130   45.6130 O   0  0  0  0  0  0  0  0  0  0  0  0
   56.3300   27.8590   45.6090 C   0  0  0  0  0  0  0  0  0  0  0  0
   55.5780   28.7760   44.8850 O   0  0  0  0  0  0  0  0  0  0  0  0
   57.6440   28.1710   45.9740 C   0  0  0  0  0  0  0  0  0  0  0  0
   59.1920   29.4110   50.1500 C   0  0  0  0  0  0  0  0  0  0  0  0
   55.9653   30.6471   50.8896 H   0  0  0  0  0  0  0  0  0  0  0  0
   54.2625   29.3189   53.0344 H   0  0  0  0  0  0  0  0  0  0  0  0
   53.3400   29.0805   49.9227 H   0  0  0  0  0  0  0  0  0  0  0  0
   51.4145   30.0654   48.6804 H   0  0  0  0  0  0  0  0  0  0  0  0
   53.0765   32.2651   52.8486 H   0  0  0  0  0  0  0  0  0  0  0  0
   59.6159   28.2481   53.3393 H   0  0  0  0  0  0  0  0  0  0  0  0
   61.0601   26.6197   52.1240 H   0  0  0  0  0  0  0  0  0  0  0  0
   61.3146   26.7748   49.6471 H   0  0  0  0  0  0  0  0  0  0  0  0
   58.4341   25.2995   47.6642 H   0  0  0  0  0  0  0  0  0  0  0  0
   56.0938   24.7469   47.0021 H   0  0  0  0  0  0  0  0  0  0  0  0
   58.0738   29.1431   45.6908 H   0  0  0  0  0  0  0  0  0  0  0  0
   58.6376   30.1784   49.5900 H   0  0  0  0  0  0  0  0  0  0  0  0
  1  2  2  0
  2  3  1  0
  3  4  2  3
  4  5  1  0
  5  6  2  0
  6  7  1  0
  7  8  2  0
  8  9  1  0
  8 10  1  0
 10 11  1  0
 10 12  2  0
  2 13  1  0
 13 14  1  0
 14 15  2  0
 15 16  1  0
 16 17  2  0
 17 18  1  0
 18 19  1  0
 19 20  1  0
 20 21  2  0
 20 22  1  0
 22 23  2  0
 23 24  1  0
 24 25  2  0
 25 26  1  0
 25 27  1  0
 27 28  1  0
 27 29  2  0
 18 30  2  0
 12  5  1  0
 30 14  1  0
 29 22  1  0
  3 31  1  0
  4 32  1  0
  6 33  1  0
  7 34  1  0
 12 35  1  0
 15 36  1  0
 16 37  1  0
 17 38  1  0
 23 39  1  0
 24 40  1  0
 29 41  1  0
 30 42  1  0
M  CHG  6   9  -1  11  -1  13  -1  19  -1  26  -1  28  -1
M  END
>  <UniqueID>  (23) 
18

>  <SMILES>  (23) 
O=C(C=Cc1ccc([O-])c([O-])c1)[N-]c1cccc([N-]C(=O)c2ccc([O-])c([O-])c2)c1

>  <Energy>  (23) 
63.17672133306295

>  <Genealogy>  (23) 
O=C(C=Cc1ccc([O-])c([O-])c1)[N-]c1cccc([N-]C(=O)c2ccc([O-])c([O-])c2)c1 (protonated)
O=C(C=Cc1ccc([O-])c([O-])c1)[N-]c1cccc([N-]C(=O)c2ccc([O-])c([O-])c2)c1 (3D coordinates assigned)
O=C(C=Cc1ccc([O-])c([O-])c1)[N-]c1cccc([N-]C(=O)c2ccc([O-])c([O-])c2)c1 (optimized conformer: 63.17672133306295 kcal/mol)

>  <smiles>  (23) 
O=C(C=Cc1ccc(O)c(O)c1)Nc1cccc(NC(=O)c2ccc(O)c(O)c2)c1

>  <score_type>  (23) 
oracle

>  <origin>  (23) 
adg

>  <m_score__min__energy>  (23) 
-25.399999999999999

>  <m_primary>  (23) 
energy

$$$$
23:0
     RDKit          3D

 50 53  0  0  0  0  0  0  0  0999 V2000
   58.5760   29.6080   47.5990 N   0  0  0  0  0  0  0  0  0  0  0  0
   58.5300   30.5780   46.9520 C   0  0  0  0  0  0  0  0  0  0  0  0
   58.4780   31.7760   46.1310 C   0  0  0  0  0  0  0  0  0  0  0  0
   59.0630   32.9460   46.5950 C   0  0  0  0  0  0  0  0  0  0  0  0
   58.9960   34.0620   45.7930 C   0  0  0  0  0  0  0  0  0  0  0  0
   58.3670   34.0470   44.5520 C   0  0  0  0  0  0  0  0  0  0  0  0
   57.7790   32.8700   44.0870 C   0  0  0  0  0  0  0  0  0  0  0  0
   57.8540   31.7600   44.9010 C   0  0  0  0  0  0  0  0  0  0  0  0
   57.1420   30.2420   44.3950 S   0  0  0  0  0  0  0  0  0  0  0  0
   56.2790   30.4150   43.1960 O   0  0  0  0  0  0  0  0  0  0  0  0
   56.3190   29.7180   45.5270 O   0  0  0  0  0  0  0  0  0  0  0  0
   58.3990   29.1240   44.0050 N   0  0  0  0  0  0  0  0  0  0  0  0
   58.9370   28.1960   44.9100 C   0  0  0  0  0  0  0  0  0  0  0  0
   60.3030   28.0640   45.1210 C   0  0  0  0  0  0  0  0  0  0  0  0
   60.7810   27.1240   46.0350 C   0  0  0  0  0  0  0  0  0  0  0  0
   59.8780   26.3260   46.7270 C   0  0  0  0  0  0  0  0  0  0  0  0
   58.5270   26.4380   46.5350 C   0  0  0  0  0  0  0  0  0  0  0  0
   57.4910   25.6350   47.2090 C   0  0  0  0  0  0  0  0  0  0  0  0
   56.6510   24.9760   46.1980 C   0  0  0  0  0  0  0  0  0  0  0  0
   55.3490   25.3530   46.1250 N   0  0  0  0  0  0  0  0  0  0  0  0
   54.4980   24.8630   45.2470 N   0  0  0  0  0  0  0  0  0  0  0  0
   54.8560   23.9360   44.3400 C   0  0  0  0  0  0  0  0  0  0  0  0
   54.0330   23.4760   43.5060 O   0  0  0  0  0  0  0  0  0  0  0  0
   56.1750   23.5180   44.3770 C   0  0  0  0  0  0  0  0  0  0  0  0
   57.0690   24.0340   45.2990 C   0  0  0  0  0  0  0  0  0  0  0  0
   58.4610   23.5730   45.3500 C   0  0  0  0  0  0  0  0  0  0  0  0
   58.5230   22.1380   44.9550 C   0  0  0  0  0  0  0  0  0  0  0  0
   57.8040   21.7430   43.7300 C   0  0  0  0  0  0  0  0  0  0  0  0
   56.5780   22.5020   43.3750 C   0  0  0  0  0  0  0  0  0  0  0  0
   58.0690   27.3890   45.6130 C   0  0  0  0  0  0  0  0  0  0  0  0
   59.5646   32.9800   47.5734 H   0  0  0  0  0  0  0  0  0  0  0  0
   59.4552   34.9976   46.1448 H   0  0  0  0  0  0  0  0  0  0  0  0
   58.3333   34.9600   43.9394 H   0  0  0  0  0  0  0  0  0  0  0  0
   57.2757   32.8295   43.1098 H   0  0  0  0  0  0  0  0  0  0  0  0
   58.8010   29.1250   43.0280 H   0  0  0  0  0  0  0  0  0  0  0  0
   61.0088   28.7007   44.5674 H   0  0  0  0  0  0  0  0  0  0  0  0
   61.8622   27.0158   46.2060 H   0  0  0  0  0  0  0  0  0  0  0  0
   60.2580   25.5861   47.4468 H   0  0  0  0  0  0  0  0  0  0  0  0
   57.9704   24.8732   47.8413 H   0  0  0  0  0  0  0  0  0  0  0  0
   56.8675   26.2898   47.8354 H   0  0  0  0  0  0  0  0  0  0  0  0
   53.5140   25.2400   45.2950 H   0  0  0  0  0  0  0  0  0  0  0  0
   59.0710   24.1709   44.6569 H   0  0  0  0  0  0  0  0  0  0  0  0
   58.8487   23.6891   46.3728 H   0  0  0  0  0  0  0  0  0  0  0  0
   59.5829   21.8794   44.8142 H   0  0  0  0  0  0  0  0  0  0  0  0
   58.0143   21.5988   45.7677 H   0  0  0  0  0  0  0  0  0  0  0  0
   58.5070   21.8424   42.8898 H   0  0  0  0  0  0  0  0  0  0  0  0
   57.4501   20.7213   43.9321 H   0  0  0  0  0  0  0  0  0  0  0  0
   56.7555   23.0142   42.4179 H   0  0  0  0  0  0  0  0  0  0  0  0
   55.7590   21.7694   43.3238 H   0  0  0  0  0  0  0  0  0  0  0  0
   56.9869   27.4941   45.4459 H   0  0  0  0  0  0  0  0  0  0  0  0
  1  2  3  0
  2  3  1  0
  3  4  2  0
  4  5  1  0
  5  6  2  0
  6  7  1  0
  7  8  2  0
  8  9  1  0
  9 10  2  0
  9 11  2  0
  9 12  1  0
 12 13  1  0
 13 14  2  0
 14 15  1  0
 15 16  2  0
 16 17  1  0
 17 18  1  0
 18 19  1  0
 19 20  2  0
 20 21  1  0
 21 22  1  0
 22 23  2  0
 22 24  1  0
 24 25  2  0
 25 26  1  0
 26 27  1  0
 27 28  1  0
 28 29  1  0
 17 30  2  0
  8  3  1  0
 30 13  1  0
 25 19  1  0
 29 24  1  0
  4 31  1  0
  5 32  1  0
  6 33  1  0
  7 34  1  0
 12 35  1  0
 14 36  1  0
 15 37  1  0
 16 38  1  0
 18 39  1  0
 18 40  1  0
 21 41  1  0
 26 42  1  0
 26 43  1  0
 27 44  1  0
 27 45  1  0
 28 46  1  0
 28 47  1  0
 29 48  1  0
 29 49  1  0
 30 50  1  0
M  END
>  <smiles>  (24) 
N#Cc1ccccc1S(=O)(=O)Nc1cccc(Cc2n[nH]c(=O)c3c2CCCC3)c1

>  <score_type>  (24) 
oracle

>  <origin>  (24) 
adg

>  <m_score__min__energy>  (24) 
-10.300000000000001

>  <m_primary>  (24) 
energy

$$$$
24:0
     RDKit          3D

 64 67  0  0  0  0  0  0  0  0999 V2000
   59.6688   26.6483   44.4621 H   0  0  0  0  0  0  0  0  0  0  0  0
   58.8500   26.6980   45.1950 C   0  0  0  0  0  0  0  0  0  0  0  0
   58.7870   25.6120   46.1960 C   0  0  0  0  0  0  0  0  0  0  0  0
   59.7830   24.8520   46.3170 O   0  0  0  0  0  0  0  0  0  0  0  0
   57.6360   25.4130   47.0230 N   0  0  0  0  0  0  0  0  0  0  0  0
   56.1420   24.7460   46.4590 S   0  0  0  0  0  0  0  0  0  0  0  0
   55.4780   24.0140   47.5930 O   0  0  0  0  0  0  0  0  0  0  0  0
   55.2460   25.8610   45.9970 O   0  0  0  0  0  0  0  0  0  0  0  0
   56.4320   23.6630   45.0990 C   0  0  0  0  0  0  0  0  0  0  0  0
   55.7050   23.8060   43.9080 C   0  0  0  0  0  0  0  0  0  0  0  0
   54.9757   24.6229   43.8039 H   0  0  0  0  0  0  0  0  0  0  0  0
   55.9070   22.9100   42.8520 C   0  0  0  0  0  0  0  0  0  0  0  0
   55.3327   23.0222   41.9206 H   0  0  0  0  0  0  0  0  0  0  0  0
   56.8370   21.8720   42.9770 C   0  0  0  0  0  0  0  0  0  0  0  0
   56.9890   21.1654   42.1478 H   0  0  0  0  0  0  0  0  0  0  0  0
   57.5720   21.7350   44.1570 C   0  0  0  0  0  0  0  0  0  0  0  0
   58.3093   20.9244   44.2534 H   0  0  0  0  0  0  0  0  0  0  0  0
   57.3720   22.6280   45.2180 C   0  0  0  0  0  0  0  0  0  0  0  0
   57.9527   22.5176   46.1456 H   0  0  0  0  0  0  0  0  0  0  0  0
   58.0050   27.7430   45.0900 C   0  0  0  0  0  0  0  0  0  0  0  0
   56.9740   27.5278   44.7728 H   0  0  0  0  0  0  0  0  0  0  0  0
   58.3490   29.1560   45.3660 C   0  0  0  0  0  0  0  0  0  0  0  0
   59.5250   29.4440   46.0740 C   0  0  0  0  0  0  0  0  0  0  0  0
   60.1557   28.6194   46.4378 H   0  0  0  0  0  0  0  0  0  0  0  0
   59.9040   30.7600   46.3220 C   0  0  0  0  0  0  0  0  0  0  0  0
   60.8879   30.9727   46.7656 H   0  0  0  0  0  0  0  0  0  0  0  0
   59.0350   31.8170   46.0080 C   0  0  0  0  0  0  0  0  0  0  0  0
   59.3460   33.1990   46.2560 N   0  0  0  0  0  0  0  0  0  0  0  0
   59.1740   34.0140   47.4300 C   0  0  0  0  0  0  0  0  0  0  0  0
   58.8750   35.2280   47.2760 O   0  0  0  0  0  0  0  0  0  0  0  0
   59.3320   33.5060   48.7990 C   0  0  0  0  0  0  0  0  0  0  0  0
   58.3180   32.7870   49.3500 N   0  0  0  0  0  0  0  0  0  0  0  0
   58.3630   32.3150   50.6250 C   0  0  0  0  0  0  0  0  0  0  0  0
   57.2190   31.6230   51.1430 N   0  0  0  0  0  0  0  0  0  0  0  0
   56.3020   32.1200   51.1180 H   0  0  0  0  0  0  0  0  0  0  0  0
   57.2200   30.2570   51.5820 C   0  0  0  0  0  0  0  0  0  0  0  0
   58.0920   29.4530   51.1560 O   0  0  0  0  0  0  0  0  0  0  0  0
   56.1650   29.7580   52.4110 N   0  0  0  0  0  0  0  0  0  0  0  0
   54.8060   30.2140   52.3950 C   0  0  0  0  0  0  0  0  0  0  0  0
   54.2330   30.7920   51.2460 C   0  0  0  0  0  0  0  0  0  0  0  0
   54.8421   30.9344   50.3412 H   0  0  0  0  0  0  0  0  0  0  0  0
   52.8890   31.1860   51.2530 C   0  0  0  0  0  0  0  0  0  0  0  0
   52.4369   31.6132   50.3457 H   0  0  0  0  0  0  0  0  0  0  0  0
   52.1220   31.0370   52.4110 C   0  0  0  0  0  0  0  0  0  0  0  0
   51.0633   31.3354   52.4126 H   0  0  0  0  0  0  0  0  0  0  0  0
   52.7020   30.5080   53.5680 C   0  0  0  0  0  0  0  0  0  0  0  0
   52.1050   30.4163   54.4874 H   0  0  0  0  0  0  0  0  0  0  0  0
   54.0380   30.0950   53.5610 C   0  0  0  0  0  0  0  0  0  0  0  0
   54.4872   29.6756   54.4733 H   0  0  0  0  0  0  0  0  0  0  0  0
   59.4830   32.5990   51.4190 C   0  0  0  0  0  0  0  0  0  0  0  0
   59.5195   32.2652   52.4665 H   0  0  0  0  0  0  0  0  0  0  0  0
   60.5530   33.3100   50.8680 C   0  0  0  0  0  0  0  0  0  0  0  0
   61.4435   33.5223   51.4778 H   0  0  0  0  0  0  0  0  0  0  0  0
   60.4930   33.7510   49.5450 C   0  0  0  0  0  0  0  0  0  0  0  0
   61.3441   34.2828   49.0947 H   0  0  0  0  0  0  0  0  0  0  0  0
   57.8360   31.5330   45.3420 C   0  0  0  0  0  0  0  0  0  0  0  0
   57.1519   32.3570   45.0906 H   0  0  0  0  0  0  0  0  0  0  0  0
   57.4870   30.2150   44.9870 C   0  0  0  0  0  0  0  0  0  0  0  0
   56.2690   29.9760   44.1670 C   0  0  0  0  0  0  0  0  0  0  0  0
   55.1940   29.6200   44.7240 O   0  0  0  0  0  0  0  0  0  0  0  0
   56.3010   30.0600   42.6700 C   0  0  0  0  0  0  0  0  0  0  0  0
   56.6773   31.0480   42.3662 H   0  0  0  0  0  0  0  0  0  0  0  0
   56.9639   29.2771   42.2729 H   0  0  0  0  0  0  0  0  0  0  0  0
   55.2853   29.9165   42.2729 H   0  0  0  0  0  0  0  0  0  0  0  0
  1  2  1  0
  2  3  1  0
  3  4  2  0
  3  5  1  0
  5  6  1  0
  6  7  2  0
  6  8  2  0
  6  9  1  0
  9 10  2  0
 10 11  1  0
 10 12  1  0
 12 13  1  0
 12 14  2  0
 14 15  1  0
 14 16  1  0
 16 17  1  0
 16 18  2  0
 18 19  1  0
  2 20  2  0
 20 21  1  0
 20 22  1  0
 22 23  2  0
 23 24  1  0
 23 25  1  0
 25 26  1  0
 25 27  2  0
 27 28  1  0
 28 29  1  0
 29 30  2  0
 29 31  1  0
 31 32  2  0
 32 33  1  0
 33 34  1  0
 34 35  1  0
 34 36  1  0
 36 37  2  0
 36 38  1  0
 38 39  1  0
 39 40  2  0
 40 41  1  0
 40 42  1  0
 42 43  1  0
 42 44  2  0
 44 45  1  0
 44 46  1  0
 46 47  1  0
 46 48  2  0
 48 49  1  0
 33 50  2  0
 50 51  1  0
 50 52  1  0
 52 53  1  0
 52 54  2  0
 54 55  1  0
 27 56  1  0
 56 57  1  0
 56 58  2  0
 58 59  1  0
 59 60  2  0
 59 61  1  0
 61 62  1  0
 61 63  1  0
 61 64  1  0
 18  9  1  0
 58 22  1  0
 54 31  1  0
 48 39  1  0
M  CHG  3   5  -1  28  -1  38  -1
M  END
>  <UniqueID>  (25) 
19

>  <SMILES>  (25) 
CC(=O)c1cc([N-]C(=O)c2cccc(NC(=O)[N-]c3ccccc3)n2)ccc1/C=C\C(=O)[N-]S(=O)(=O)c1ccccc1

>  <Energy>  (25) 
100.00526278936788

>  <Genealogy>  (25) 
CC(=O)c1cc([N-]C(=O)c2cccc(NC(=O)[N-]c3ccccc3)n2)ccc1C=CC(=O)[N-]S(=O)(=O)c1ccccc1 (protonated)
CC(=O)c1cc([N-]C(=O)c2cccc(NC(=O)[N-]c3ccccc3)n2)ccc1/C=C\C(=O)[N-]S(=O)(=O)c1ccccc1 (cis-trans isomerization)
CC(=O)c1cc([N-]C(=O)c2cccc(NC(=O)[N-]c3ccccc3)n2)ccc1/C=C\C(=O)[N-]S(=O)(=O)c1ccccc1 (3D coordinates assigned)
CC(=O)c1cc([N-]C(=O)c2cccc(NC(=O)[N-]c3ccccc3)n2)ccc1/C=C\C(=O)[N-]S(=O)(=O)c1ccccc1 (optimized conformer: 100.00526278936788 kcal/mol)

>  <smiles>  (25) 
CC(=O)c1cc(NC(=O)c2cccc(NC(=O)Nc3ccccc3)n2)ccc1C=CC(=O)NS(=O)(=O)c1ccccc1

>  <score_type>  (25) 
oracle

>  <origin>  (25) 
adg

>  <m_score__min__energy>  (25) 
-15.5

>  <m_primary>  (25) 
energy

$$$$
25:0
     RDKit          3D

 40 43  0  0  0  0  0  0  0  0999 V2000
   53.9199   21.8551   46.0091 H   0  0  0  0  0  0  0  0  0  0  0  0
   54.6030   22.6670   45.7190 C   0  0  0  0  0  0  0  0  0  0  0  0
   55.8040   22.3710   45.0710 C   0  0  0  0  0  0  0  0  0  0  0  0
   56.0641   21.3256   44.8486 H   0  0  0  0  0  0  0  0  0  0  0  0
   56.6770   23.4000   44.7040 C   0  0  0  0  0  0  0  0  0  0  0  0
   57.6179   23.1615   44.1864 H   0  0  0  0  0  0  0  0  0  0  0  0
   56.3570   24.7390   44.9940 C   0  0  0  0  0  0  0  0  0  0  0  0
   57.2900   25.8430   44.5630 C   0  0  0  0  0  0  0  0  0  0  0  0
   56.7322   26.5542   43.9361 H   0  0  0  0  0  0  0  0  0  0  0  0
   58.1209   25.3860   44.0055 H   0  0  0  0  0  0  0  0  0  0  0  0
   57.8720   26.5840   45.7380 C   0  0  0  0  0  0  0  0  0  0  0  0
   58.5980   25.9910   46.7110 N   0  0  0  0  0  0  0  0  0  0  0  0
   58.9110   26.9980   47.5450 C   0  0  0  0  0  0  0  0  0  0  0  0
   59.5970   26.8290   48.5890 O   0  0  0  0  0  0  0  0  0  0  0  0
   58.4240   28.1950   47.1590 N   0  0  0  0  0  0  0  0  0  0  0  0
   58.5870   29.4700   47.8560 C   0  0  0  0  0  0  0  0  0  0  0  0
   58.5652   29.2994   48.9425 H   0  0  0  0  0  0  0  0  0  0  0  0
   59.5501   29.9210   47.5749 H   0  0  0  0  0  0  0  0  0  0  0  0
   57.7683   30.1488   47.5749 H   0  0  0  0  0  0  0  0  0  0  0  0
   57.7570   27.9470   46.0080 C   0  0  0  0  0  0  0  0  0  0  0  0
   57.0330   28.9630   45.2000 C   0  0  0  0  0  0  0  0  0  0  0  0
   55.7740   29.0090   45.2340 O   0  0  0  0  0  0  0  0  0  0  0  0
   57.7700   29.8860   44.3820 N   0  0  0  0  0  0  0  0  0  0  0  0
   58.1890   31.0650   44.7340 C   0  0  0  0  0  0  0  0  0  0  0  0
   58.9620   31.3050   45.8230 N   0  0  0  0  0  0  0  0  0  0  0  0
   59.2360   32.6310   45.9300 C   0  0  0  0  0  0  0  0  0  0  0  0
   60.0060   33.1980   46.9470 C   0  0  0  0  0  0  0  0  0  0  0  0
   60.4429   32.5691   47.7367 H   0  0  0  0  0  0  0  0  0  0  0  0
   60.2120   34.5880   46.9420 C   0  0  0  0  0  0  0  0  0  0  0  0
   60.8165   35.0536   47.7344 H   0  0  0  0  0  0  0  0  0  0  0  0
   59.6490   35.3900   45.9280 C   0  0  0  0  0  0  0  0  0  0  0  0
   59.8167   36.4771   45.9342 H   0  0  0  0  0  0  0  0  0  0  0  0
   58.8760   34.8090   44.9110 C   0  0  0  0  0  0  0  0  0  0  0  0
   58.4333   35.4257   44.1149 H   0  0  0  0  0  0  0  0  0  0  0  0
   58.6850   33.4290   44.9380 C   0  0  0  0  0  0  0  0  0  0  0  0
   57.8170   32.4690   43.8690 S   0  0  0  0  0  0  0  0  0  0  0  0
   55.1360   25.0310   45.6350 C   0  0  0  0  0  0  0  0  0  0  0  0
   54.7760   26.3470   45.9080 O   0  0  0  0  0  0  0  0  0  0  0  0
   54.2690   23.9950   45.9990 C   0  0  0  0  0  0  0  0  0  0  0  0
   53.3213   24.2264   46.5073 H   0  0  0  0  0  0  0  0  0  0  0  0
  1  2  1  0
  2  3  2  0
  3  4  1  0
  3  5  1  0
  5  6  1  0
  5  7  2  0
  7  8  1  0
  8  9  1  0
  8 10  1  0
  8 11  1  0
 11 12  1  0
 12 13  1  0
 13 14  2  0
 13 15  1  0
 15 16  1  0
 16 17  1  0
 16 18  1  0
 16 19  1  0
 15 20  1  0
 20 21  1  0
 21 22  2  0
 21 23  1  0
 23 24  2  0
 24 25  1  0
 25 26  1  0
 26 27  2  0
 27 28  1  0
 27 29  1  0
 29 30  1  0
 29 31  2  0
 31 32  1  0
 31 33  1  0
 33 34  1  0
 33 35  2  0
 35 36  1  0
  7 37  1  0
 37 38  1  0
 37 39  2  0
 39 40  1  0
 39  2  1  0
 20 11  2  0
 36 24  1  0
 35 26  1  0
M  CHG  3  12  -1  25  -1  38  -1
M  END
>  <UniqueID>  (26) 
20

>  <SMILES>  (26) 
Cn1c(C(=O)/N=c2\[n-]c3ccccc3s2)c(Cc2ccccc2[O-])[n-]c1=O

>  <Energy>  (26) 
114.12240510423128

>  <Genealogy>  (26) 
Cn1c(C(=O)N=c2[n-]c3ccccc3s2)c(Cc2ccccc2[O-])[n-]c1=O (protonated)
Cn1c(C(=O)/N=c2\[n-]c3ccccc3s2)c(Cc2ccccc2[O-])[n-]c1=O (cis-trans isomerization)
Cn1c(C(=O)/N=c2\[n-]c3ccccc3s2)c(Cc2ccccc2[O-])[n-]c1=O (3D coordinates assigned)
Cn1c(C(=O)/N=c2\[n-]c3ccccc3s2)c(Cc2ccccc2[O-])[n-]c1=O (optimized conformer: 114.12240510423128 kcal/mol)

>  <smiles>  (26) 
Cn1c(C(=O)N=c2[nH]c3ccccc3s2)c(Cc2ccccc2O)[nH]c1=O

>  <score_type>  (26) 
oracle

>  <origin>  (26) 
adg

>  <m_score__min__energy>  (26) 
-14.630000000000001

>  <m_primary>  (26) 
energy

$$$$
26:0
     RDKit          3D

 50 53  0  0  0  0  0  0  0  0999 V2000
   59.6850   33.6890   50.5770 C   0  0  0  0  0  0  0  0  0  0  0  0
   60.5910   34.3920   49.7340 O   0  0  0  0  0  0  0  0  0  0  0  0
   61.7250   33.8220   49.1320 C   0  0  0  0  0  0  0  0  0  0  0  0
   63.0290   34.0990   49.5920 C   0  0  0  0  0  0  0  0  0  0  0  0
   64.1320   33.4760   49.0040 C   0  0  0  0  0  0  0  0  0  0  0  0
   63.9510   32.5660   47.9630 C   0  0  0  0  0  0  0  0  0  0  0  0
   62.6660   32.2880   47.4960 C   0  0  0  0  0  0  0  0  0  0  0  0
   61.5490   32.9290   48.0540 C   0  0  0  0  0  0  0  0  0  0  0  0
   60.2360   32.6560   47.5340 N   0  0  0  0  0  0  0  0  0  0  0  0
   59.3690   31.6610   47.8760 C   0  0  0  0  0  0  0  0  0  0  0  0
   59.6720   30.4690   49.1910 S   0  0  0  0  0  0  0  0  0  0  0  0
   60.3910   29.1820   48.1070 C   0  0  0  0  0  0  0  0  0  0  0  0
   60.2910   27.8260   48.7290 C   0  0  0  0  0  0  0  0  0  0  0  0
   60.4980   27.6880   49.9640 O   0  0  0  0  0  0  0  0  0  0  0  0
   59.8490   26.7260   47.9230 N   0  0  0  0  0  0  0  0  0  0  0  0
   58.6420   26.6440   47.1550 C   0  0  0  0  0  0  0  0  0  0  0  0
   57.8210   25.5030   47.1650 C   0  0  0  0  0  0  0  0  0  0  0  0
   56.6400   25.4830   46.4170 C   0  0  0  0  0  0  0  0  0  0  0  0
   56.2740   26.5930   45.6510 C   0  0  0  0  0  0  0  0  0  0  0  0
   57.0990   27.7260   45.6140 C   0  0  0  0  0  0  0  0  0  0  0  0
   56.6340   29.1380   44.6680 S   0  0  0  0  0  0  0  0  0  0  0  0
   57.0160   28.8990   42.9970 N   0  0  0  0  0  0  0  0  0  0  0  0
   55.1540   29.3690   44.7890 O   0  0  0  0  0  0  0  0  0  0  0  0
   57.3660   30.3450   45.1830 O   0  0  0  0  0  0  0  0  0  0  0  0
   58.2840   27.7420   46.3610 C   0  0  0  0  0  0  0  0  0  0  0  0
   58.1820   31.7200   47.2130 N   0  0  0  0  0  0  0  0  0  0  0  0
   58.3280   32.8090   46.4370 C   0  0  0  0  0  0  0  0  0  0  0  0
   57.4090   33.3770   45.5620 C   0  0  0  0  0  0  0  0  0  0  0  0
   57.8010   34.5490   44.8880 C   0  0  0  0  0  0  0  0  0  0  0  0
   59.0840   35.0980   45.1190 C   0  0  0  0  0  0  0  0  0  0  0  0
   59.9490   34.5000   45.9950 N   0  0  0  0  0  0  0  0  0  0  0  0
   59.5490   33.3710   46.6340 C   0  0  0  0  0  0  0  0  0  0  0  0
   59.9369   33.8845   51.6298 H   0  0  0  0  0  0  0  0  0  0  0  0
   58.6583   34.0292   50.3764 H   0  0  0  0  0  0  0  0  0  0  0  0
   59.7595   32.6100   50.3764 H   0  0  0  0  0  0  0  0  0  0  0  0
   63.1782   34.8096   50.4183 H   0  0  0  0  0  0  0  0  0  0  0  0
   65.1465   33.7038   49.3631 H   0  0  0  0  0  0  0  0  0  0  0  0
   64.8209   32.0676   47.5103 H   0  0  0  0  0  0  0  0  0  0  0  0
   62.5271   31.5599   46.6832 H   0  0  0  0  0  0  0  0  0  0  0  0
   59.8496   29.1773   47.1495 H   0  0  0  0  0  0  0  0  0  0  0  0
   61.4551   29.4143   47.9528 H   0  0  0  0  0  0  0  0  0  0  0  0
   58.1081   24.6249   47.7620 H   0  0  0  0  0  0  0  0  0  0  0  0
   55.9969   24.5907   46.4315 H   0  0  0  0  0  0  0  0  0  0  0  0
   55.3365   26.5778   45.0758 H   0  0  0  0  0  0  0  0  0  0  0  0
   58.0110   29.1840   42.8590 H   0  0  0  0  0  0  0  0  0  0  0  0
   56.9630   27.8720   42.8130 H   0  0  0  0  0  0  0  0  0  0  0  0
   58.9396   28.6245   46.3240 H   0  0  0  0  0  0  0  0  0  0  0  0
   56.4169   32.9292   45.4030 H   0  0  0  0  0  0  0  0  0  0  0  0
   57.1113   35.0367   44.1834 H   0  0  0  0  0  0  0  0  0  0  0  0
   59.3890   36.0131   44.5902 H   0  0  0  0  0  0  0  0  0  0  0  0
  1  2  1  0
  2  3  1  0
  3  4  2  0
  4  5  1  0
  5  6  2  0
  6  7  1  0
  7  8  2  0
  8  9  1  0
  9 10  1  0
 10 11  1  0
 11 12  1  0
 12 13  1  0
 13 14  2  0
 13 15  1  0
 15 16  1  0
 16 17  2  0
 17 18  1  0
 18 19  2  0
 19 20  1  0
 20 21  1  0
 21 22  1  0
 21 23  2  0
 21 24  2  0
 20 25  2  0
 10 26  2  0
 26 27  1  0
 27 28  2  0
 28 29  1  0
 29 30  2  0
 30 31  1  0
 31 32  2  0
  8  3  1  0
 32  9  1  0
 25 16  1  0
 32 27  1  0
  1 33  1  0
  1 34  1  0
  1 35  1  0
  4 36  1  0
  5 37  1  0
  6 38  1  0
  7 39  1  0
 12 40  1  0
 12 41  1  0
 17 42  1  0
 18 43  1  0
 19 44  1  0
 22 45  1  0
 22 46  1  0
 25 47  1  0
 28 48  1  0
 29 49  1  0
 30 50  1  0
M  CHG  1  15  -1
M  END
>  <UniqueID>  (27) 
21

>  <SMILES>  (27) 
COc1ccccc1-n1c(SCC(=O)[N-]c2cccc(S(N)(=O)=O)c2)nc2cccnc21

>  <Energy>  (27) 
92.0597962580328

>  <Genealogy>  (27) 
COc1ccccc1-n1c(SCC(=O)[N-]c2cccc(S(N)(=O)=O)c2)nc2cccnc21 (protonated)
COc1ccccc1-n1c(SCC(=O)[N-]c2cccc(S(N)(=O)=O)c2)nc2cccnc21 (3D coordinates assigned)
COc1ccccc1-n1c(SCC(=O)[N-]c2cccc(S(N)(=O)=O)c2)nc2cccnc21 (optimized conformer: 92.0597962580328 kcal/mol)

>  <smiles>  (27) 
COc1ccccc1-n1c(SCC(=O)Nc2cccc(S(N)(=O)=O)c2)nc2cccnc21

>  <score_type>  (27) 
oracle

>  <origin>  (27) 
adg

>  <m_score__min__energy>  (27) 
-11.050000000000001

>  <m_primary>  (27) 
energy

$$$$
27:0
     RDKit          3D

 38 40  0  0  0  0  0  0  0  0999 V2000
   55.1440   29.3200   44.6460 O   0  0  0  0  0  0  0  0  0  0  0  0
   56.3110   29.7240   44.8900 C   0  0  0  0  0  0  0  0  0  0  0  0
   56.9890   29.2040   46.0410 N   0  0  0  0  0  0  0  0  0  0  0  0
   58.2400   28.4960   46.0400 C   0  0  0  0  0  0  0  0  0  0  0  0
   59.4610   29.1750   45.8640 C   0  0  0  0  0  0  0  0  0  0  0  0
   60.6650   28.4680   45.8510 C   0  0  0  0  0  0  0  0  0  0  0  0
   60.6640   27.0810   46.0080 C   0  0  0  0  0  0  0  0  0  0  0  0
   59.4570   26.3960   46.1610 C   0  0  0  0  0  0  0  0  0  0  0  0
   58.2360   27.0950   46.1510 C   0  0  0  0  0  0  0  0  0  0  0  0
   56.9850   26.4090   46.3210 N   0  0  0  0  0  0  0  0  0  0  0  0
   56.8150   25.0170   46.6250 C   0  0  0  0  0  0  0  0  0  0  0  0
   57.7270   24.4250   47.2580 O   0  0  0  0  0  0  0  0  0  0  0  0
   55.5730   24.2840   46.2780 C   0  0  0  0  0  0  0  0  0  0  0  0
   55.5710   22.8790   46.2800 C   0  0  0  0  0  0  0  0  0  0  0  0
   54.4050   22.1870   45.9470 C   0  0  0  0  0  0  0  0  0  0  0  0
   54.3970   20.9270   45.9510 O   0  0  0  0  0  0  0  0  0  0  0  0
   53.2520   22.8980   45.6080 C   0  0  0  0  0  0  0  0  0  0  0  0
   52.0790   22.2310   45.2740 O   0  0  0  0  0  0  0  0  0  0  0  0
   53.2870   24.2940   45.6070 C   0  0  0  0  0  0  0  0  0  0  0  0
   54.4300   24.9600   45.9340 N   0  0  0  0  0  0  0  0  0  0  0  0
   54.4040   26.3360   45.9450 O   0  0  0  0  0  0  0  0  0  0  0  0
   56.9200   30.7570   44.0180 C   0  0  0  0  0  0  0  0  0  0  0  0
   56.8370   30.6590   42.6180 C   0  0  0  0  0  0  0  0  0  0  0  0
   57.4170   31.6370   41.8050 C   0  0  0  0  0  0  0  0  0  0  0  0
   58.0940   32.7150   42.3810 C   0  0  0  0  0  0  0  0  0  0  0  0
   58.1970   32.8150   43.7710 C   0  0  0  0  0  0  0  0  0  0  0  0
   59.0520   34.1660   44.4920 Cl  0  0  0  0  0  0  0  0  0  0  0  0
   57.6170   31.8380   44.5880 C   0  0  0  0  0  0  0  0  0  0  0  0
   59.4663   30.2675   45.7361 H   0  0  0  0  0  0  0  0  0  0  0  0
   61.6157   29.0048   45.7168 H   0  0  0  0  0  0  0  0  0  0  0  0
   61.6145   26.5274   46.0112 H   0  0  0  0  0  0  0  0  0  0  0  0
   59.4607   25.3036   46.2901 H   0  0  0  0  0  0  0  0  0  0  0  0
   56.4849   22.3261   46.5430 H   0  0  0  0  0  0  0  0  0  0  0  0
   52.3833   24.8614   45.3397 H   0  0  0  0  0  0  0  0  0  0  0  0
   56.3125   29.8076   42.1597 H   0  0  0  0  0  0  0  0  0  0  0  0
   57.3404   31.5579   40.7105 H   0  0  0  0  0  0  0  0  0  0  0  0
   58.5464   33.4857   41.7397 H   0  0  0  0  0  0  0  0  0  0  0  0
   57.7065   31.9157   45.6816 H   0  0  0  0  0  0  0  0  0  0  0  0
  1  2  2  0
  2  3  1  0
  3  4  1  0
  4  5  2  0
  5  6  1  0
  6  7  2  0
  7  8  1  0
  8  9  2  0
  9 10  1  0
 10 11  1  0
 11 12  2  0
 11 13  1  0
 13 14  2  0
 14 15  1  0
 15 16  2  0
 15 17  1  0
 17 18  1  0
 17 19  2  0
 19 20  1  0
 20 21  1  0
  2 22  1  0
 22 23  2  0
 23 24  1  0
 24 25  2  0
 25 26  1  0
 26 27  1  0
 26 28  2  0
  9  4  1  0
 20 13  1  0
 28 22  1  0
  5 29  1  0
  6 30  1  0
  7 31  1  0
  8 32  1  0
 14 33  1  0
 19 34  1  0
 23 35  1  0
 24 36  1  0
 25 37  1  0
 28 38  1  0
M  CHG  4   3  -1  10  -1  18  -1  21  -1
M  END
>  <UniqueID>  (28) 
22

>  <SMILES>  (28) 
O=C([N-]c1ccccc1[N-]C(=O)c1cc(=O)c([O-])cn1[O-])c1cccc(Cl)c1

>  <Energy>  (28) 
57.38531548011467

>  <Genealogy>  (28) 
O=C([N-]c1ccccc1[N-]C(=O)c1cc(=O)c([O-])cn1[O-])c1cccc(Cl)c1 (protonated)
O=C([N-]c1ccccc1[N-]C(=O)c1cc(=O)c([O-])cn1[O-])c1cccc(Cl)c1 (3D coordinates assigned)
O=C([N-]c1ccccc1[N-]C(=O)c1cc(=O)c([O-])cn1[O-])c1cccc(Cl)c1 (optimized conformer: 57.38531548011467 kcal/mol)

>  <smiles>  (28) 
O=C(Nc1ccccc1NC(=O)c1cc(=O)c(O)cn1O)c1cccc(Cl)c1

>  <score_type>  (28) 
oracle

>  <origin>  (28) 
adg

>  <m_score__min__energy>  (28) 
-17.510000000000002

>  <m_primary>  (28) 
energy

$$$$
28:0
     RDKit          3D

 65 68  0  0  0  0  0  0  0  0999 V2000
   50.7480   22.9150   45.9240 C   0  0  0  0  0  0  0  0  0  0  0  0
   52.0370   22.6050   45.4110 O   0  0  0  0  0  0  0  0  0  0  0  0
   52.9290   23.5850   44.9620 C   0  0  0  0  0  0  0  0  0  0  0  0
   53.1380   23.7340   43.7280 O   0  0  0  0  0  0  0  0  0  0  0  0
   53.6200   24.4350   45.8890 N   0  0  0  0  0  0  0  0  0  0  0  0
   54.9120   24.5740   46.0000 C   0  0  0  0  0  0  0  0  0  0  0  0
   55.4970   25.8010   45.9870 N   0  0  0  0  0  0  0  0  0  0  0  0
   56.8190   25.9640   46.0960 N   0  0  0  0  0  0  0  0  0  0  0  0
   57.3400   27.3450   46.0720 C   0  0  0  0  0  0  0  0  0  0  0  0
   57.5000   27.8760   44.6220 C   0  0  0  0  0  0  0  0  0  0  0  0
   58.6970   28.8290   44.4680 C   0  0  0  0  0  0  0  0  0  0  0  0
   58.8690   29.6350   45.6810 N   0  0  0  0  0  0  0  0  0  0  0  0
   58.4670   31.0140   45.6670 C   0  0  0  0  0  0  0  0  0  0  0  0
   57.3110   31.3180   45.2710 O   0  0  0  0  0  0  0  0  0  0  0  0
   59.3550   32.0580   46.0830 N   0  0  0  0  0  0  0  0  0  0  0  0
   58.9970   33.1730   46.9560 C   0  0  1  0  0  0  0  0  0  0  0  0
   57.9560   32.7230   48.0010 C   0  0  0  0  0  0  0  0  0  0  0  0
   58.6150   32.2000   49.2510 C   0  0  0  0  0  0  0  0  0  0  0  0
   58.8880   33.0690   50.3210 C   0  0  0  0  0  0  0  0  0  0  0  0
   59.5230   32.5910   51.4710 C   0  0  0  0  0  0  0  0  0  0  0  0
   59.8970   31.2460   51.5570 C   0  0  0  0  0  0  0  0  0  0  0  0
   59.6380   30.3780   50.4930 C   0  0  0  0  0  0  0  0  0  0  0  0
   59.0020   30.8520   49.3420 C   0  0  0  0  0  0  0  0  0  0  0  0
   60.2430   33.6860   47.6240 C   0  0  0  0  0  0  0  0  0  0  0  0
   60.2750   34.8770   48.0370 O   0  0  0  0  0  0  0  0  0  0  0  0
   61.3960   32.8390   47.7610 N   0  0  0  0  0  0  0  0  0  0  0  0
   62.4880   33.1030   48.6590 C   0  0  0  0  0  0  0  0  0  0  0  0
   62.3440   33.9650   49.7630 C   0  0  0  0  0  0  0  0  0  0  0  0
   63.4150   34.1800   50.6360 C   0  0  0  0  0  0  0  0  0  0  0  0
   64.6320   33.5280   50.4250 C   0  0  0  0  0  0  0  0  0  0  0  0
   65.6690   33.7350   51.2730 F   0  0  0  0  0  0  0  0  0  0  0  0
   64.7790   32.6560   49.3420 C   0  0  0  0  0  0  0  0  0  0  0  0
   63.7090   32.4380   48.4680 C   0  0  0  0  0  0  0  0  0  0  0  0
   59.0720   28.9560   46.9710 C   0  0  0  0  0  0  0  0  0  0  0  0
   58.6310   27.4830   46.9080 C   0  0  0  0  0  0  0  0  0  0  0  0
   57.6260   24.8590   46.2190 C   0  0  0  0  0  0  0  0  0  0  0  0
   58.8770   24.9700   46.3080 O   0  0  0  0  0  0  0  0  0  0  0  0
   57.0720   23.6200   46.2370 N   0  0  0  0  0  0  0  0  0  0  0  0
   55.7320   23.4530   46.1340 C   0  0  0  0  0  0  0  0  0  0  0  0
   55.2440   22.2900   46.1550 O   0  0  0  0  0  0  0  0  0  0  0  0
   50.7794   22.9074   47.0235 H   0  0  0  0  0  0  0  0  0  0  0  0
   50.4436   23.9120   45.5727 H   0  0  0  0  0  0  0  0  0  0  0  0
   50.0236   22.1655   45.5727 H   0  0  0  0  0  0  0  0  0  0  0  0
   56.5901   27.9899   46.5535 H   0  0  0  0  0  0  0  0  0  0  0  0
   57.6432   27.0192   43.9472 H   0  0  0  0  0  0  0  0  0  0  0  0
   56.5903   28.4421   44.3731 H   0  0  0  0  0  0  0  0  0  0  0  0
   59.6090   28.2397   44.2922 H   0  0  0  0  0  0  0  0  0  0  0  0
   58.5107   29.5007   43.6171 H   0  0  0  0  0  0  0  0  0  0  0  0
   58.5457   33.9817   46.3624 H   0  0  0  0  0  0  0  0  0  0  0  0
   57.3209   33.5815   48.2648 H   0  0  0  0  0  0  0  0  0  0  0  0
   57.3571   31.9112   47.5625 H   0  0  0  0  0  0  0  0  0  0  0  0
   58.6011   34.1288   50.2535 H   0  0  0  0  0  0  0  0  0  0  0  0
   59.7287   33.2732   52.3090 H   0  0  0  0  0  0  0  0  0  0  0  0
   60.3955   30.8711   52.4631 H   0  0  0  0  0  0  0  0  0  0  0  0
   59.9348   29.3210   50.5612 H   0  0  0  0  0  0  0  0  0  0  0  0
   58.8036   30.1673   48.5042 H   0  0  0  0  0  0  0  0  0  0  0  0
   61.4660   32.0040   47.1380 H   0  0  0  0  0  0  0  0  0  0  0  0
   61.3839   34.4720   49.9397 H   0  0  0  0  0  0  0  0  0  0  0  0
   63.2989   34.8635   51.4900 H   0  0  0  0  0  0  0  0  0  0  0  0
   65.7369   32.1410   49.1772 H   0  0  0  0  0  0  0  0  0  0  0  0
   63.8253   31.7406   47.6253 H   0  0  0  0  0  0  0  0  0  0  0  0
   60.1394   28.9987   47.2335 H   0  0  0  0  0  0  0  0  0  0  0  0
   58.4616   29.4671   47.7301 H   0  0  0  0  0  0  0  0  0  0  0  0
   59.4292   26.8848   46.4443 H   0  0  0  0  0  0  0  0  0  0  0  0
   58.4358   27.1241   47.9293 H   0  0  0  0  0  0  0  0  0  0  0  0
  1  2  1  0
  2  3  1  0
  3  4  2  0
  3  5  1  0
  5  6  2  3
  6  7  1  0
  7  8  1  0
  8  9  1  0
  9 10  1  0
 10 11  1  0
 11 12  1  0
 12 13  1  0
 13 14  2  0
 13 15  1  0
 15 16  1  0
 16 17  1  0
 17 18  1  0
 18 19  2  0
 19 20  1  0
 20 21  2  0
 21 22  1  0
 22 23  2  0
 16 24  1  0
 24 25  2  0
 24 26  1  0
 26 27  1  0
 27 28  2  0
 28 29  1  0
 29 30  2  0
 30 31  1  0
 30 32  1  0
 32 33  2  0
 12 34  1  0
 34 35  1  0
  8 36  1  0
 36 37  2  0
 36 38  1  0
 38 39  1  0
 39 40  2  0
 39  6  1  0
 35  9  1  0
 23 18  1  0
 33 27  1  0
  1 41  1  0
  1 42  1  0
  1 43  1  0
  9 44  1  0
 10 45  1  0
 10 46  1  0
 11 47  1  0
 11 48  1  0
 16 49  1  6
 17 50  1  0
 17 51  1  0
 19 52  1  0
 20 53  1  0
 21 54  1  0
 22 55  1  0
 23 56  1  0
 26 57  1  0
 28 58  1  0
 29 59  1  0
 32 60  1  0
 33 61  1  0
 34 62  1  0
 34 63  1  0
 35 64  1  0
 35 65  1  0
M  CHG  3   7  -1  15  -1  38  -1
M  END
>  <UniqueID>  (29) 
23

>  <SMILES>  (29) 
COC(=O)N=c1[n-]n(C2CCN(C(=O)[N-][C@@H](Cc3ccccc3)C(=O)Nc3ccc(F)cc3)CC2)c(=O)[n-]c1=O

>  <Energy>  (29) 
78.22940089132129

>  <Genealogy>  (29) 
COC(=O)N=c1[n-]n(C2CCN(C(=O)[N-]C(Cc3ccccc3)C(=O)Nc3ccc(F)cc3)CC2)c(=O)[n-]c1=O (protonated)
COC(=O)N=c1[n-]n(C2CCN(C(=O)[N-][C@@H](Cc3ccccc3)C(=O)Nc3ccc(F)cc3)CC2)c(=O)[n-]c1=O (chirality)
COC(=O)N=c1[n-]n(C2CCN(C(=O)[N-][C@@H](Cc3ccccc3)C(=O)Nc3ccc(F)cc3)CC2)c(=O)[n-]c1=O (3D coordinates assigned)
COC(=O)N=c1[n-]n(C2CCN(C(=O)[N-][C@@H](Cc3ccccc3)C(=O)Nc3ccc(F)cc3)CC2)c(=O)[n-]c1=O (nonaromatic ring conformer: 78.22940089132129 kcal/mol)

>  <smiles>  (29) 
COC(=O)N=c1[nH]n(C2CCN(C(=O)NC(Cc3ccccc3)C(=O)Nc3ccc(F)cc3)CC2)c(=O)[nH]c1=O

>  <score_type>  (29) 
oracle

>  <origin>  (29) 
adg

>  <m_score__min__energy>  (29) 
-13.710000000000001

>  <m_primary>  (29) 
energy

$$$$
29:0
     RDKit          3D

 44 46  0  0  1  0  0  0  0  0999 V2000
   66.9710   33.0200   50.8190 N   0  0  0  0  0  0  0  0  0  0  0  0
   65.6150   33.4610   50.6080 C   0  0  0  0  0  0  0  0  0  0  0  0
   65.0210   34.1810   51.4530 O   0  0  0  0  0  0  0  0  0  0  0  0
   65.0100   33.0280   49.3930 N   0  0  0  0  0  0  0  0  0  0  0  0
   63.6730   33.3760   49.0300 C   0  0  0  0  0  0  0  0  0  0  0  0
   62.7390   33.6370   50.0140 C   0  0  0  0  0  0  0  0  0  0  0  0
   61.4410   33.9750   49.6390 C   0  0  0  0  0  0  0  0  0  0  0  0
   61.0960   34.0460   48.3050 C   0  0  0  0  0  0  0  0  0  0  0  0
   57.4600   31.1010   45.6300 N   0  0  0  0  0  0  0  0  0  0  0  0
   58.1070   32.2160   45.6920 C   0  0  0  0  0  0  0  0  0  0  0  0
   59.4440   34.5840   45.6450 N   0  0  0  0  0  0  0  0  0  0  0  0
   58.9420   34.1270   44.4720 C   0  0  0  0  0  0  0  0  0  0  0  0
   58.2680   32.9210   44.5340 C   0  0  0  0  0  0  0  0  0  0  0  0
   57.6110   32.3150   43.0210 Cl  0  0  0  0  0  0  0  0  0  0  0  0
   59.2820   33.8850   46.7840 C   0  0  0  0  0  0  0  0  0  0  0  0
   59.7880   34.3850   47.8560 N   0  0  0  0  0  0  0  0  0  0  0  0
   58.2110   29.9320   45.3230 C   0  0  0  0  0  0  0  0  0  0  0  0
   59.4750   29.7080   45.8790 C   0  0  0  0  0  0  0  0  0  0  0  0
   60.1500   28.5470   45.5360 C   0  0  0  0  0  0  0  0  0  0  0  0
   59.5730   27.6320   44.6560 C   0  0  0  0  0  0  0  0  0  0  0  0
   58.3250   27.8710   44.1180 C   0  0  0  0  0  0  0  0  0  0  0  0
   57.6400   29.0200   44.4480 C   0  0  0  0  0  0  0  0  0  0  0  0
   56.3180   29.2830   43.8850 C   0  0  0  0  0  0  0  0  0  0  0  0
   55.2120   29.4630   44.7560 N   0  0  0  0  0  0  0  0  0  0  0  0
   56.1820   29.3440   42.6350 O   0  0  0  0  0  0  0  0  0  0  0  0
   58.6240   32.7120   46.8300 N   0  0  0  0  0  0  0  0  0  0  0  0
   62.0630   33.7760   47.3310 C   0  0  0  0  0  0  0  0  0  0  0  0
   63.3510   33.4400   47.6720 C   0  0  0  0  0  0  0  0  0  0  0  0
   67.6260   33.2130   50.0220 H   0  0  0  0  0  0  0  0  0  0  0  0
   67.2690   32.5460   51.7000 H   0  0  0  0  0  0  0  0  0  0  0  0
   65.5260   32.4210   48.6910 H   0  0  0  0  0  0  0  0  0  0  0  0
   63.0162   33.5788   51.0769 H   0  0  0  0  0  0  0  0  0  0  0  0
   60.6864   34.1866   50.4109 H   0  0  0  0  0  0  0  0  0  0  0  0
   59.9550   35.4900   45.6230 H   0  0  0  0  0  0  0  0  0  0  0  0
   59.0631   34.6808   43.5293 H   0  0  0  0  0  0  0  0  0  0  0  0
   59.9225   30.4358   46.5718 H   0  0  0  0  0  0  0  0  0  0  0  0
   61.1451   28.3465   45.9598 H   0  0  0  0  0  0  0  0  0  0  0  0
   60.1163   26.7136   44.3889 H   0  0  0  0  0  0  0  0  0  0  0  0
   57.8767   27.1437   43.4252 H   0  0  0  0  0  0  0  0  0  0  0  0
   54.3080   28.9660   44.5010 H   0  0  0  0  0  0  0  0  0  0  0  0
   55.2620   30.0630   45.6310 H   0  0  0  0  0  0  0  0  0  0  0  0
   58.5120   32.1940   47.7170 H   0  0  0  0  0  0  0  0  0  0  0  0
   61.7861   33.8340   46.2680 H   0  0  0  0  0  0  0  0  0  0  0  0
   64.1051   33.2280   46.8998 H   0  0  0  0  0  0  0  0  0  0  0  0
  1  2  1  0
  2  3  2  0
  2  4  1  0
  4  5  1  0
  5  6  2  0
  6  7  1  0
  7  8  2  0
  8  9  1  0
  9 10  2  0
 10 11  1  0
 11 12  1  0
 12 13  2  0
 13 14  1  0
 13 15  1  0
 15 16  2  0
 16 17  1  0
 17 18  2  0
 18 19  1  0
 19 20  2  0
 20 21  1  0
 21 22  2  0
 22 23  1  0
 23 24  1  0
 23 25  2  0
 15 26  1  0
  8 27  1  0
 27 28  2  0
 28  5  1  0
 26 10  1  0
 22 17  1  0
  1 29  1  0
  1 30  1  0
  4 31  1  0
  6 32  1  0
  7 33  1  0
 11 34  1  0
 12 35  1  0
 18 36  1  0
 19 37  1  0
 20 38  1  0
 21 39  1  0
 24 40  1  0
 24 41  1  0
 26 42  1  0
 27 43  1  0
 28 44  1  0
M  END
>  <smiles>  (30) 
NC(=O)Nc1ccc(N=c2[nH]cc(Cl)c(=Nc3ccccc3C(N)=O)[nH]2)cc1

>  <score_type>  (30) 
oracle

>  <origin>  (30) 
adg

>  <m_score__min__energy>  (30) 
-9.5999999999999996

>  <m_primary>  (30) 
energy

$$$$
30:0
     RDKit          3D

 35 37  0  0  0  0  0  0  0  0999 V2000
   59.9004   35.7369   48.3988 H   0  0  0  0  0  0  0  0  0  0  0  0
   59.6280   34.9510   47.6790 C   0  0  0  0  0  0  0  0  0  0  0  0
   59.6320   35.2270   46.3080 C   0  0  0  0  0  0  0  0  0  0  0  0
   59.9166   36.2271   45.9491 H   0  0  0  0  0  0  0  0  0  0  0  0
   59.2740   34.2310   45.3930 C   0  0  0  0  0  0  0  0  0  0  0  0
   59.2959   34.4451   44.3143 H   0  0  0  0  0  0  0  0  0  0  0  0
   58.8880   32.9630   45.8440 C   0  0  0  0  0  0  0  0  0  0  0  0
   58.5820   31.9400   44.8830 N   0  0  0  0  0  0  0  0  0  0  0  0
   58.1330   30.7410   45.1230 C   0  0  0  0  0  0  0  0  0  0  0  0
   56.8600   30.4410   44.7560 N   0  0  0  0  0  0  0  0  0  0  0  0
   56.3240   29.2140   44.9750 C   0  0  0  0  0  0  0  0  0  0  0  0
   55.1440   28.9810   44.5990 O   0  0  0  0  0  0  0  0  0  0  0  0
   57.0920   28.2150   45.6000 C   0  0  0  0  0  0  0  0  0  0  0  0
   56.5500   26.8590   45.8640 C   0  0  0  0  0  0  0  0  0  0  0  0
   55.3070   26.7000   45.9890 O   0  0  0  0  0  0  0  0  0  0  0  0
   57.4070   25.7230   46.0480 N   0  0  0  0  0  0  0  0  0  0  0  0
   57.3970   24.5170   45.2700 C   0  0  0  0  0  0  0  0  0  0  0  0
   58.3350   23.4900   45.4870 C   0  0  0  0  0  0  0  0  0  0  0  0
   59.0938   23.5974   46.2761 H   0  0  0  0  0  0  0  0  0  0  0  0
   58.3040   22.3330   44.7010 C   0  0  0  0  0  0  0  0  0  0  0  0
   59.0302   21.5268   44.8816 H   0  0  0  0  0  0  0  0  0  0  0  0
   57.3520   22.2000   43.6870 C   0  0  0  0  0  0  0  0  0  0  0  0
   57.3248   21.2871   43.0740 H   0  0  0  0  0  0  0  0  0  0  0  0
   56.4340   23.2280   43.4520 C   0  0  0  0  0  0  0  0  0  0  0  0
   55.6887   23.1260   42.6494 H   0  0  0  0  0  0  0  0  0  0  0  0
   56.4620   24.3860   44.2360 C   0  0  0  0  0  0  0  0  0  0  0  0
   55.7461   25.1976   44.0393 H   0  0  0  0  0  0  0  0  0  0  0  0
   58.3910   28.5540   46.0020 C   0  0  0  0  0  0  0  0  0  0  0  0
   59.0146   27.8080   46.5164 H   0  0  0  0  0  0  0  0  0  0  0  0
   58.8870   29.7960   45.7620 N   0  0  0  0  0  0  0  0  0  0  0  0
   59.8420   30.0100   46.1230 H   0  0  0  0  0  0  0  0  0  0  0  0
   58.9190   32.6800   47.2210 C   0  0  0  0  0  0  0  0  0  0  0  0
   58.6606   31.6730   47.5804 H   0  0  0  0  0  0  0  0  0  0  0  0
   59.2780   33.6770   48.1350 C   0  0  0  0  0  0  0  0  0  0  0  0
   59.2847   33.4579   49.2129 H   0  0  0  0  0  0  0  0  0  0  0  0
  1  2  1  0
  2  3  2  0
  3  4  1  0
  3  5  1  0
  5  6  1  0
  5  7  2  0
  7  8  1  0
  8  9  2  0
  9 10  1  0
 10 11  1  0
 11 12  2  0
 11 13  1  0
 13 14  1  0
 14 15  2  0
 14 16  1  0
 16 17  1  0
 17 18  2  0
 18 19  1  0
 18 20  1  0
 20 21  1  0
 20 22  2  0
 22 23  1  0
 22 24  1  0
 24 25  1  0
 24 26  2  0
 26 27  1  0
 13 28  2  0
 28 29  1  0
 28 30  1  0
 30 31  1  0
  7 32  1  0
 32 33  1  0
 32 34  2  0
 34 35  1  0
 34  2  1  0
 30  9  1  0
 26 17  1  0
M  CHG  2  10  -1  16  -1
M  END
>  <UniqueID>  (31) 
24

>  <SMILES>  (31) 
O=C([N-]c1ccccc1)c1c[nH]/c(=N\c2ccccc2)[n-]c1=O

>  <Energy>  (31) 
55.573937016477636

>  <Genealogy>  (31) 
O=C([N-]c1ccccc1)c1c[nH]c(=Nc2ccccc2)[n-]c1=O (protonated)
O=C([N-]c1ccccc1)c1c[nH]/c(=N\c2ccccc2)[n-]c1=O (cis-trans isomerization)
O=C([N-]c1ccccc1)c1c[nH]/c(=N\c2ccccc2)[n-]c1=O (3D coordinates assigned)
O=C([N-]c1ccccc1)c1c[nH]/c(=N\c2ccccc2)[n-]c1=O (optimized conformer: 55.573937016477636 kcal/mol)

>  <smiles>  (31) 
O=C(Nc1ccccc1)c1c[nH]c(=Nc2ccccc2)[nH]c1=O

>  <score_type>  (31) 
oracle

>  <origin>  (31) 
adg

>  <m_score__min__energy>  (31) 
-10.81

>  <m_primary>  (31) 
energy

$$$$
31:0
     RDKit          3D

 24 25  0  0  0  0  0  0  0  0999 V2000
   59.2350   35.6500   44.9400 O   0  0  0  0  0  0  0  0  0  0  0  0
   58.9540   34.5640   45.5090 C   0  0  0  0  0  0  0  0  0  0  0  0
   58.2430   33.6140   44.8470 N   0  0  0  0  0  0  0  0  0  0  0  0
   57.9230   32.4370   45.4460 C   0  0  0  0  0  0  0  0  0  0  0  0
   56.9700   31.2130   44.5470 S   0  0  0  0  0  0  0  0  0  0  0  0
   58.3270   29.9930   44.4510 C   0  0  0  0  0  0  0  0  0  0  0  0
   57.9770   28.7350   45.2030 C   0  0  0  0  0  0  0  0  0  0  0  0
   58.9710   28.0330   45.9060 C   0  0  0  0  0  0  0  0  0  0  0  0
   58.6450   26.8840   46.6300 C   0  0  0  0  0  0  0  0  0  0  0  0
   57.3260   26.4250   46.6610 C   0  0  0  0  0  0  0  0  0  0  0  0
   57.0160   25.3100   47.3670 F   0  0  0  0  0  0  0  0  0  0  0  0
   56.3280   27.1180   45.9670 C   0  0  0  0  0  0  0  0  0  0  0  0
   55.0150   26.6620   45.9990 O   0  0  0  0  0  0  0  0  0  0  0  0
   56.6500   28.2710   45.2390 C   0  0  0  0  0  0  0  0  0  0  0  0
   55.6710   28.9380   44.5760 F   0  0  0  0  0  0  0  0  0  0  0  0
   58.3380   32.1890   46.7550 C   0  0  0  0  0  0  0  0  0  0  0  0
   59.0660   33.1750   47.4190 C   0  0  0  0  0  0  0  0  0  0  0  0
   59.3600   34.3410   46.7870 N   0  0  0  0  0  0  0  0  0  0  0  0
   58.5109   29.7419   43.3959 H   0  0  0  0  0  0  0  0  0  0  0  0
   59.2269   30.4336   44.9050 H   0  0  0  0  0  0  0  0  0  0  0  0
   60.0112   28.3903   45.8859 H   0  0  0  0  0  0  0  0  0  0  0  0
   59.4286   26.3393   47.1770 H   0  0  0  0  0  0  0  0  0  0  0  0
   58.0963   31.2376   47.2513 H   0  0  0  0  0  0  0  0  0  0  0  0
   59.4019   33.0092   48.4532 H   0  0  0  0  0  0  0  0  0  0  0  0
  1  2  2  0
  2  3  1  0
  3  4  2  0
  4  5  1  0
  5  6  1  0
  6  7  1  0
  7  8  2  0
  8  9  1  0
  9 10  2  0
 10 11  1  0
 10 12  1  0
 12 13  1  0
 12 14  2  0
 14 15  1  0
  4 16  1  0
 16 17  2  0
 17 18  1  0
 18  2  1  0
 14  7  1  0
  6 19  1  0
  6 20  1  0
  8 21  1  0
  9 22  1  0
 16 23  1  0
 17 24  1  0
M  CHG  2  13  -1  18  -1
M  END
>  <UniqueID>  (32) 
25

>  <SMILES>  (32) 
O=c1nc(SCc2ccc(F)c([O-])c2F)cc[n-]1

>  <Energy>  (32) 
21.81913593350927

>  <Genealogy>  (32) 
O=c1nc(SCc2ccc(F)c([O-])c2F)cc[n-]1 (protonated)
O=c1nc(SCc2ccc(F)c([O-])c2F)cc[n-]1 (3D coordinates assigned)
O=c1nc(SCc2ccc(F)c([O-])c2F)cc[n-]1 (optimized conformer: 21.81913593350927 kcal/mol)

>  <smiles>  (32) 
O=c1nc(SCc2ccc(F)c(O)c2F)cc[nH]1

>  <score_type>  (32) 
oracle

>  <origin>  (32) 
adg

>  <m_score__min__energy>  (32) 
-11.140000000000001

>  <m_primary>  (32) 
energy

$$$$
32:0
     RDKit          3D

 37 38  0  0  0  0  0  0  0  0999 V2000
   57.9960   26.6990   45.9010 C   0  0  0  0  0  0  0  0  0  0  0  0
   57.0100   27.5180   45.2810 O   0  0  0  0  0  0  0  0  0  0  0  0
   57.1310   28.9040   45.0990 C   0  0  0  0  0  0  0  0  0  0  0  0
   58.3460   29.5870   45.3030 C   0  0  0  0  0  0  0  0  0  0  0  0
   58.4210   30.9690   45.1130 C   0  0  0  0  0  0  0  0  0  0  0  0
   57.2850   31.6930   44.7180 C   0  0  0  0  0  0  0  0  0  0  0  0
   57.3530   33.1870   44.5320 C   0  0  0  0  0  0  0  0  0  0  0  0
   57.8170   33.8370   45.7570 N   0  0  0  0  0  0  0  0  0  0  0  0
   59.1890   34.1820   46.0180 C   0  0  0  0  0  0  0  0  0  0  0  0
   60.0420   34.3310   45.0450 N   0  0  0  0  0  0  0  0  0  0  0  0
   59.5920   34.4340   47.3740 N   0  0  0  0  0  0  0  0  0  0  0  0
   60.8690   34.0570   47.9170 C   0  0  0  0  0  0  0  0  0  0  0  0
   61.8770   33.5050   47.1030 C   0  0  0  0  0  0  0  0  0  0  0  0
   63.1020   33.1220   47.6600 C   0  0  0  0  0  0  0  0  0  0  0  0
   63.3260   33.2720   49.0320 C   0  0  0  0  0  0  0  0  0  0  0  0
   64.9970   32.7440   49.7910 Br  0  0  0  0  0  0  0  0  0  0  0  0
   62.3220   33.7990   49.8490 C   0  0  0  0  0  0  0  0  0  0  0  0
   61.0960   34.1840   49.2960 C   0  0  0  0  0  0  0  0  0  0  0  0
   56.0770   31.0130   44.5060 C   0  0  0  0  0  0  0  0  0  0  0  0
   56.0010   29.6290   44.6970 C   0  0  0  0  0  0  0  0  0  0  0  0
   54.7920   28.9750   44.4880 O   0  0  0  0  0  0  0  0  0  0  0  0
   57.9025   26.7766   46.9943 H   0  0  0  0  0  0  0  0  0  0  0  0
   57.8497   25.6529   45.5939 H   0  0  0  0  0  0  0  0  0  0  0  0
   58.9975   27.0347   45.5939 H   0  0  0  0  0  0  0  0  0  0  0  0
   59.2413   29.0287   45.6139 H   0  0  0  0  0  0  0  0  0  0  0  0
   59.3750   31.4925   45.2737 H   0  0  0  0  0  0  0  0  0  0  0  0
   58.0506   33.4181   43.7135 H   0  0  0  0  0  0  0  0  0  0  0  0
   56.3469   33.5608   44.2911 H   0  0  0  0  0  0  0  0  0  0  0  0
   57.1330   33.9320   46.5410 H   0  0  0  0  0  0  0  0  0  0  0  0
   60.9260   33.7810   44.9940 H   0  0  0  0  0  0  0  0  0  0  0  0
   59.8420   34.9790   44.2510 H   0  0  0  0  0  0  0  0  0  0  0  0
   58.8910   34.8680   48.0160 H   0  0  0  0  0  0  0  0  0  0  0  0
   61.7005   33.3745   46.0251 H   0  0  0  0  0  0  0  0  0  0  0  0
   63.8901   32.7022   47.0176 H   0  0  0  0  0  0  0  0  0  0  0  0
   62.4962   33.9113   50.9293 H   0  0  0  0  0  0  0  0  0  0  0  0
   60.3057   34.5884   49.9456 H   0  0  0  0  0  0  0  0  0  0  0  0
   55.1840   31.5709   44.1877 H   0  0  0  0  0  0  0  0  0  0  0  0
  1  2  1  0
  2  3  1  0
  3  4  2  0
  4  5  1  0
  5  6  2  0
  6  7  1  0
  7  8  1  0
  8  9  1  0
  9 10  2  0
  9 11  1  0
 11 12  1  0
 12 13  2  0
 13 14  1  0
 14 15  2  0
 15 16  1  0
 15 17  1  0
 17 18  2  0
  6 19  1  0
 19 20  2  0
 20 21  1  0
 20  3  1  0
 18 12  1  0
  1 22  1  0
  1 23  1  0
  1 24  1  0
  4 25  1  0
  5 26  1  0
  7 27  1  0
  7 28  1  0
  8 29  1  0
 10 30  1  0
 10 31  1  0
 11 32  1  0
 13 33  1  0
 14 34  1  0
 17 35  1  0
 18 36  1  0
 19 37  1  0
M  CHG  2  10   1  21  -1
M  END
>  <UniqueID>  (33) 
26

>  <SMILES>  (33) 
COc1ccc(CNC(=[NH2+])Nc2ccc(Br)cc2)cc1[O-]

>  <Energy>  (33) 
39.433300223742556

>  <Genealogy>  (33) 
COc1ccc(CNC(=[NH2+])Nc2ccc(Br)cc2)cc1[O-] (protonated)
COc1ccc(CNC(=[NH2+])Nc2ccc(Br)cc2)cc1[O-] (3D coordinates assigned)
COc1ccc(CNC(=[NH2+])Nc2ccc(Br)cc2)cc1[O-] (optimized conformer: 39.433300223742556 kcal/mol)

>  <smiles>  (33) 
COc1ccc(CNC(=N)Nc2ccc(Br)cc2)cc1O

>  <score_type>  (33) 
oracle

>  <origin>  (33) 
adg

>  <m_score__min__energy>  (33) 
-9.8200000000000003

>  <m_primary>  (33) 
energy

$$$$
33:0
     RDKit          3D

 63 66  0  0  0  0  0  0  0  0999 V2000
   63.3500   33.0860   47.5610 C   0  0  0  0  0  0  0  0  0  0  0  0
   62.4790   33.8160   46.7240 O   0  0  0  0  0  0  0  0  0  0  0  0
   61.2590   34.0750   47.3920 C   0  0  0  0  0  0  0  0  0  0  0  0
   60.0870   34.0100   46.4440 C   0  0  0  0  0  0  0  0  0  0  0  0
   59.6130   35.0880   45.7210 C   0  0  0  0  0  0  0  0  0  0  0  0
   58.6410   34.6010   44.8770 C   0  0  0  0  0  0  0  0  0  0  0  0
   58.5480   33.2420   45.1130 C   0  0  0  0  0  0  0  0  0  0  0  0
   57.7640   32.3110   44.2740 C   0  0  0  0  0  0  0  0  0  0  0  0
   57.9440   32.3160   43.0270 O   0  0  0  0  0  0  0  0  0  0  0  0
   56.7670   31.4330   44.8090 N   0  0  0  0  0  0  0  0  0  0  0  0
   56.4680   29.7890   44.3440 S   0  0  0  0  0  0  0  0  0  0  0  0
   56.4230   29.7160   42.8450 O   0  0  0  0  0  0  0  0  0  0  0  0
   55.1340   29.3460   44.8760 O   0  0  0  0  0  0  0  0  0  0  0  0
   57.7550   28.7190   44.8960 C   0  0  0  0  0  0  0  0  0  0  0  0
   59.0820   28.9350   44.5030 C   0  0  0  0  0  0  0  0  0  0  0  0
   60.1100   28.1560   45.0440 C   0  0  0  0  0  0  0  0  0  0  0  0
   59.8220   27.1600   45.9850 C   0  0  0  0  0  0  0  0  0  0  0  0
   60.8780   26.3910   46.5680 N   0  0  0  0  0  0  0  0  0  0  0  0
   58.4910   26.9240   46.3550 C   0  0  0  0  0  0  0  0  0  0  0  0
   57.4610   27.7010   45.8120 C   0  0  0  0  0  0  0  0  0  0  0  0
   59.4430   32.8760   46.0680 N   0  0  0  0  0  0  0  0  0  0  0  0
   59.7170   31.5130   46.5590 C   0  0  0  0  0  0  0  0  0  0  0  0
   59.2730   31.2920   47.9890 C   0  0  0  0  0  0  0  0  0  0  0  0
   58.5100   32.2440   48.6890 C   0  0  0  0  0  0  0  0  0  0  0  0
   58.1290   32.0130   50.0110 C   0  0  0  0  0  0  0  0  0  0  0  0
   58.4560   30.8080   50.6510 C   0  0  0  0  0  0  0  0  0  0  0  0
   58.0120   30.5550   52.0010 N   0  0  0  0  0  0  0  0  0  0  0  0
   58.5900   29.4710   52.8050 C   0  0  0  0  0  0  0  0  0  0  0  0
   57.4970   28.4740   53.2230 C   0  0  0  0  0  0  0  0  0  0  0  0
   56.1300   29.1450   53.5090 C   0  0  0  0  0  0  0  0  0  0  0  0
   55.2940   28.9570   52.4180 F   0  0  0  0  0  0  0  0  0  0  0  0
   55.5450   28.5430   54.6090 F   0  0  0  0  0  0  0  0  0  0  0  0
   56.2690   30.6510   53.7740 C   0  0  0  0  0  0  0  0  0  0  0  0
   56.9200   31.3580   52.5740 C   0  0  0  0  0  0  0  0  0  0  0  0
   59.1740   29.8350   49.9370 C   0  0  0  0  0  0  0  0  0  0  0  0
   59.5840   30.0760   48.6220 C   0  0  0  0  0  0  0  0  0  0  0  0
   60.2760   29.1140   47.9600 F   0  0  0  0  0  0  0  0  0  0  0  0
   63.1049   33.2914   48.6135 H   0  0  0  0  0  0  0  0  0  0  0  0
   63.2350   32.0105   47.3609 H   0  0  0  0  0  0  0  0  0  0  0  0
   64.3889   33.3872   47.3609 H   0  0  0  0  0  0  0  0  0  0  0  0
   61.1194   33.3259   48.1853 H   0  0  0  0  0  0  0  0  0  0  0  0
   61.3052   35.0890   47.8159 H   0  0  0  0  0  0  0  0  0  0  0  0
   59.9476   36.1326   45.8039 H   0  0  0  0  0  0  0  0  0  0  0  0
   58.0509   35.1821   44.1530 H   0  0  0  0  0  0  0  0  0  0  0  0
   59.3161   29.7188   43.7675 H   0  0  0  0  0  0  0  0  0  0  0  0
   61.1499   28.3267   44.7286 H   0  0  0  0  0  0  0  0  0  0  0  0
   61.2370   26.6130   47.5220 H   0  0  0  0  0  0  0  0  0  0  0  0
   61.3010   25.5890   46.0530 H   0  0  0  0  0  0  0  0  0  0  0  0
   58.2550   26.1258   47.0742 H   0  0  0  0  0  0  0  0  0  0  0  0
   56.4179   27.5116   46.1055 H   0  0  0  0  0  0  0  0  0  0  0  0
   59.1873   30.7964   45.9141 H   0  0  0  0  0  0  0  0  0  0  0  0
   60.8071   31.3690   46.5301 H   0  0  0  0  0  0  0  0  0  0  0  0
   58.2114   33.1778   48.1902 H   0  0  0  0  0  0  0  0  0  0  0  0
   57.5661   32.7840   50.5576 H   0  0  0  0  0  0  0  0  0  0  0  0
   59.3522   28.9455   52.2109 H   0  0  0  0  0  0  0  0  0  0  0  0
   59.0462   29.9008   53.7090 H   0  0  0  0  0  0  0  0  0  0  0  0
   57.3637   27.7424   52.4124 H   0  0  0  0  0  0  0  0  0  0  0  0
   57.8291   28.0010   54.1589 H   0  0  0  0  0  0  0  0  0  0  0  0
   55.2713   31.0803   53.9478 H   0  0  0  0  0  0  0  0  0  0  0  0
   56.9073   30.7963   54.6580 H   0  0  0  0  0  0  0  0  0  0  0  0
   56.1560   31.5256   51.8006 H   0  0  0  0  0  0  0  0  0  0  0  0
   57.3406   32.3126   52.9230 H   0  0  0  0  0  0  0  0  0  0  0  0
   59.4160   28.8749   50.4163 H   0  0  0  0  0  0  0  0  0  0  0  0
  1  2  1  0
  2  3  1  0
  3  4  1  0
  4  5  2  0
  5  6  1  0
  6  7  2  0
  7  8  1  0
  8  9  2  0
  8 10  1  0
 10 11  1  0
 11 12  2  0
 11 13  2  0
 11 14  1  0
 14 15  2  0
 15 16  1  0
 16 17  2  0
 17 18  1  0
 17 19  1  0
 19 20  2  0
  7 21  1  0
 21 22  1  0
 22 23  1  0
 23 24  2  0
 24 25  1  0
 25 26  2  0
 26 27  1  0
 27 28  1  0
 28 29  1  0
 29 30  1  0
 30 31  1  0
 30 32  1  0
 30 33  1  0
 33 34  1  0
 26 35  1  0
 35 36  2  0
 36 37  1  0
 21  4  1  0
 36 23  1  0
 20 14  1  0
 34 27  1  0
  1 38  1  0
  1 39  1  0
  1 40  1  0
  3 41  1  0
  3 42  1  0
  5 43  1  0
  6 44  1  0
 15 45  1  0
 16 46  1  0
 18 47  1  0
 18 48  1  0
 19 49  1  0
 20 50  1  0
 22 51  1  0
 22 52  1  0
 24 53  1  0
 25 54  1  0
 28 55  1  0
 28 56  1  0
 29 57  1  0
 29 58  1  0
 33 59  1  0
 33 60  1  0
 34 61  1  0
 34 62  1  0
 35 63  1  0
M  CHG  1  10  -1
M  END
>  <UniqueID>  (34) 
27

>  <SMILES>  (34) 
COCc1ccc(C(=O)[N-]S(=O)(=O)c2ccc(N)cc2)n1Cc1ccc(N2CCC(F)(F)CC2)cc1F

>  <Energy>  (34) 
103.55148327443631

>  <Genealogy>  (34) 
COCc1ccc(C(=O)[N-]S(=O)(=O)c2ccc(N)cc2)n1Cc1ccc(N2CCC(F)(F)CC2)cc1F (protonated)
COCc1ccc(C(=O)[N-]S(=O)(=O)c2ccc(N)cc2)n1Cc1ccc(N2CCC(F)(F)CC2)cc1F (3D coordinates assigned)
COCc1ccc(C(=O)[N-]S(=O)(=O)c2ccc(N)cc2)n1Cc1ccc(N2CCC(F)(F)CC2)cc1F (nonaromatic ring conformer: 103.55148327443631 kcal/mol)

>  <smiles>  (34) 
COCc1ccc(C(=O)NS(=O)(=O)c2ccc(N)cc2)n1Cc1ccc(N2CCC(F)(F)CC2)cc1F

>  <score_type>  (34) 
oracle

>  <origin>  (34) 
adg

>  <m_score__min__energy>  (34) 
-10.49

>  <m_primary>  (34) 
energy

$$$$
34:0
     RDKit          3D

 38 40  0  0  0  0  0  0  0  0999 V2000
   57.6229   34.8544   44.3137 H   0  0  0  0  0  0  0  0  0  0  0  0
   57.7830   33.9300   44.8880 C   0  0  0  0  0  0  0  0  0  0  0  0
   57.4910   32.6920   44.3110 C   0  0  0  0  0  0  0  0  0  0  0  0
   57.0933   32.6458   43.2865 H   0  0  0  0  0  0  0  0  0  0  0  0
   57.7020   31.5100   45.0300 C   0  0  0  0  0  0  0  0  0  0  0  0
   57.3500   30.2570   44.4240 N   0  0  0  0  0  0  0  0  0  0  0  0
   56.3430   29.3430   44.8790 C   0  0  0  0  0  0  0  0  0  0  0  0
   55.1340   29.6180   44.6550 O   0  0  0  0  0  0  0  0  0  0  0  0
   56.6910   28.0600   45.5300 C   0  0  0  0  0  0  0  0  0  0  0  0
   55.7480   27.0860   45.6570 N   0  0  0  0  0  0  0  0  0  0  0  0
   56.0320   25.9040   46.2620 C   0  0  0  0  0  0  0  0  0  0  0  0
   55.1430   25.0180   46.3560 O   0  0  0  0  0  0  0  0  0  0  0  0
   57.2710   25.6770   46.7650 N   0  0  0  0  0  0  0  0  0  0  0  0
   58.2450   26.6180   46.6710 C   0  0  0  0  0  0  0  0  0  0  0  0
   59.3880   26.3880   47.1440 O   0  0  0  0  0  0  0  0  0  0  0  0
   57.9760   27.8380   46.0460 C   0  0  0  0  0  0  0  0  0  0  0  0
   58.7561   28.6088   45.9603 H   0  0  0  0  0  0  0  0  0  0  0  0
   58.1780   31.5830   46.3500 C   0  0  0  0  0  0  0  0  0  0  0  0
   58.3143   30.6597   46.9322 H   0  0  0  0  0  0  0  0  0  0  0  0
   58.4810   32.8230   46.9320 C   0  0  0  0  0  0  0  0  0  0  0  0
   59.0920   32.9190   48.5850 S   0  0  0  0  0  0  0  0  0  0  0  0
   59.2960   34.3640   48.9440 O   0  0  0  0  0  0  0  0  0  0  0  0
   58.0960   32.3290   49.5440 O   0  0  0  0  0  0  0  0  0  0  0  0
   60.6260   32.1210   48.7360 N   0  0  0  0  0  0  0  0  0  0  0  0
   61.7810   32.6170   48.4040 C   0  0  0  0  0  0  0  0  0  0  0  0
   62.0500   33.9990   48.2550 N   0  0  0  0  0  0  0  0  0  0  0  0
   61.3790   34.7810   48.4140 H   0  0  0  0  0  0  0  0  0  0  0  0
   63.4620   34.2010   48.0070 C   0  0  0  0  0  0  0  0  0  0  0  0
   63.9225   34.7439   48.8456 H   0  0  0  0  0  0  0  0  0  0  0  0
   63.6277   34.7982   47.0982 H   0  0  0  0  0  0  0  0  0  0  0  0
   64.0810   32.7970   47.8760 C   0  0  0  0  0  0  0  0  0  0  0  0
   64.9141   32.6855   48.5856 H   0  0  0  0  0  0  0  0  0  0  0  0
   64.4733   32.6383   46.8607 H   0  0  0  0  0  0  0  0  0  0  0  0
   62.9780   31.7780   48.1970 C   0  0  0  0  0  0  0  0  0  0  0  0
   63.2212   31.2092   49.1066 H   0  0  0  0  0  0  0  0  0  0  0  0
   62.8433   31.0290   47.4027 H   0  0  0  0  0  0  0  0  0  0  0  0
   58.2780   33.9970   46.1930 C   0  0  0  0  0  0  0  0  0  0  0  0
   58.5092   34.9742   46.6420 H   0  0  0  0  0  0  0  0  0  0  0  0
  1  2  1  0
  2  3  2  0
  3  4  1  0
  3  5  1  0
  5  6  1  0
  6  7  1  0
  7  8  2  0
  7  9  1  0
  9 10  1  0
 10 11  1  0
 11 12  2  0
 11 13  1  0
 13 14  1  0
 14 15  2  0
 14 16  1  0
 16 17  1  0
  5 18  2  0
 18 19  1  0
 18 20  1  0
 20 21  1  0
 21 22  2  0
 21 23  2  0
 21 24  1  0
 24 25  2  0
 25 26  1  0
 26 27  1  0
 26 28  1  0
 28 29  1  0
 28 30  1  0
 28 31  1  0
 31 32  1  0
 31 33  1  0
 31 34  1  0
 34 35  1  0
 34 36  1  0
 20 37  2  0
 37 38  1  0
 37  2  1  0
 16  9  2  0
 34 25  1  0
M  CHG  3   6  -1  10  -1  13  -1
M  END
>  <UniqueID>  (35) 
28

>  <SMILES>  (35) 
O=C([N-]c1cccc(S(=O)(=O)/N=C2/CCCN2)c1)c1cc(=O)[n-]c(=O)[n-]1

>  <Energy>  (35) 
53.00682683223444

>  <Genealogy>  (35) 
O=C([N-]c1cccc(S(=O)(=O)N=C2CCCN2)c1)c1cc(=O)[n-]c(=O)[n-]1 (protonated)
O=C([N-]c1cccc(S(=O)(=O)/N=C2/CCCN2)c1)c1cc(=O)[n-]c(=O)[n-]1 (cis-trans isomerization)
O=C([N-]c1cccc(S(=O)(=O)/N=C2/CCCN2)c1)c1cc(=O)[n-]c(=O)[n-]1 (3D coordinates assigned)
O=C([N-]c1cccc(S(=O)(=O)/N=C2/CCCN2)c1)c1cc(=O)[n-]c(=O)[n-]1 (nonaromatic ring conformer: 53.00682683223444 kcal/mol)

>  <smiles>  (35) 
O=C(Nc1cccc(S(=O)(=O)N=C2CCCN2)c1)c1cc(=O)[nH]c(=O)[nH]1

>  <score_type>  (35) 
oracle

>  <origin>  (35) 
adg

>  <m_score__min__energy>  (35) 
-14.300000000000001

>  <m_primary>  (35) 
energy

$$$$
35:0
     RDKit          3D

 43 45  0  0  1  0  0  0  0  0999 V2000
   64.8870   32.8050   49.6630 C   0  0  0  0  0  0  0  0  0  0  0  0
   64.4120   33.3000   48.5390 C   0  0  0  0  0  0  0  0  0  0  0  0
   63.0760   32.9650   48.0130 C   0  0  0  0  0  0  0  0  0  0  0  0
   62.9920   31.8870   47.3860 O   0  0  0  0  0  0  0  0  0  0  0  0
   61.9520   33.8010   48.1980 N   0  0  0  0  0  0  0  0  0  0  0  0
   60.6440   33.5630   47.7340 C   0  0  0  0  0  0  0  0  0  0  0  0
   59.6710   33.3280   48.7140 C   0  0  0  0  0  0  0  0  0  0  0  0
   58.3630   33.0840   48.3790 C   0  0  0  0  0  0  0  0  0  0  0  0
   58.0090   33.0720   47.0410 C   0  0  0  0  0  0  0  0  0  0  0  0
   58.9190   33.2960   46.0200 C   0  0  0  0  0  0  0  0  0  0  0  0
   58.5260   33.2740   44.5820 C   0  0  0  0  0  0  0  0  0  0  0  0
   58.4360   32.0360   43.9850 N   0  0  0  0  0  0  0  0  0  0  0  0
   57.7820   31.0320   44.2270 C   0  0  0  0  0  0  0  0  0  0  0  0
   56.5080   30.9490   43.7650 N   0  0  0  0  0  0  0  0  0  0  0  0
   55.6930   29.9130   44.0020 C   0  0  0  0  0  0  0  0  0  0  0  0
   56.1760   28.9030   44.7450 N   0  0  0  0  0  0  0  0  0  0  0  0
   57.4330   28.9480   45.2180 C   0  0  0  0  0  0  0  0  0  0  0  0
   57.8720   27.8960   45.9590 C   0  0  0  0  0  0  0  0  0  0  0  0
   56.9920   26.7660   46.2260 C   0  0  0  0  0  0  0  0  0  0  0  0
   55.5800   26.8590   46.0750 N   0  0  0  0  0  0  0  0  0  0  0  0
   57.4980   25.6780   46.5990 O   0  0  0  0  0  0  0  0  0  0  0  0
   59.1640   27.9550   46.4310 C   0  0  0  0  0  0  0  0  0  0  0  0
   60.0240   28.9850   46.2090 C   0  0  0  0  0  0  0  0  0  0  0  0
   59.5680   30.0800   45.4380 C   0  0  0  0  0  0  0  0  0  0  0  0
   58.2940   30.0090   44.9830 C   0  0  0  0  0  0  0  0  0  0  0  0
   60.2260   33.5360   46.4460 C   0  0  0  0  0  0  0  0  0  0  0  0
   65.8918   33.0900   50.0082 H   0  0  0  0  0  0  0  0  0  0  0  0
   64.2790   32.1065   50.2567 H   0  0  0  0  0  0  0  0  0  0  0  0
   65.0416   33.9962   47.9655 H   0  0  0  0  0  0  0  0  0  0  0  0
   62.1370   34.6860   48.7420 H   0  0  0  0  0  0  0  0  0  0  0  0
   59.9618   33.3393   49.7748 H   0  0  0  0  0  0  0  0  0  0  0  0
   57.6096   32.9013   49.1594 H   0  0  0  0  0  0  0  0  0  0  0  0
   56.9594   32.8761   46.7764 H   0  0  0  0  0  0  0  0  0  0  0  0
   57.5414   33.7571   44.4980 H   0  0  0  0  0  0  0  0  0  0  0  0
   59.3384   33.7926   44.0519 H   0  0  0  0  0  0  0  0  0  0  0  0
   56.1070   31.7230   43.1840 H   0  0  0  0  0  0  0  0  0  0  0  0
   54.6679   29.8898   43.6038 H   0  0  0  0  0  0  0  0  0  0  0  0
   55.1360   27.4660   45.3480 H   0  0  0  0  0  0  0  0  0  0  0  0
   54.9790   26.2850   46.7340 H   0  0  0  0  0  0  0  0  0  0  0  0
   59.5270   27.1077   47.0312 H   0  0  0  0  0  0  0  0  0  0  0  0
   61.0452   28.9671   46.6174 H   0  0  0  0  0  0  0  0  0  0  0  0
   60.2137   30.9433   45.2195 H   0  0  0  0  0  0  0  0  0  0  0  0
   60.9822   33.7191   45.6684 H   0  0  0  0  0  0  0  0  0  0  0  0
  1  2  2  0
  2  3  1  0
  3  4  2  0
  3  5  1  0
  5  6  1  0
  6  7  2  0
  7  8  1  0
  8  9  2  0
  9 10  1  0
 10 11  1  0
 11 12  1  0
 12 13  2  0
 13 14  1  0
 14 15  1  0
 15 16  2  0
 16 17  1  0
 17 18  2  0
 18 19  1  0
 19 20  1  0
 19 21  2  0
 18 22  1  0
 22 23  2  0
 23 24  1  0
 24 25  2  0
 10 26  2  0
 26  6  1  0
 25 13  1  0
 25 17  1  0
  1 27  1  0
  1 28  1  0
  2 29  1  0
  5 30  1  0
  7 31  1  0
  8 32  1  0
  9 33  1  0
 11 34  1  0
 11 35  1  0
 14 36  1  0
 15 37  1  0
 20 38  1  0
 20 39  1  0
 22 40  1  0
 23 41  1  0
 24 42  1  0
 26 43  1  0
M  END
>  <smiles>  (36) 
C=CC(=O)Nc1cccc(CN=c2[nH]cnc3c(C(N)=O)cccc23)c1

>  <score_type>  (36) 
oracle

>  <origin>  (36) 
adg

>  <m_score__min__energy>  (36) 
-8.6600000000000001

>  <m_primary>  (36) 
energy

$$$$
36:0
     RDKit          3D

 37 38  0  0  0  0  0  0  0  0999 V2000
   59.2870   36.1280   47.6330 H   0  0  0  0  0  0  0  0  0  0  0  0
   59.4010   35.8340   46.6740 O   0  0  0  0  0  0  0  0  0  0  0  0
   59.0220   34.5740   46.2040 C   0  0  0  0  0  0  0  0  0  0  0  0
   58.7670   34.4410   44.8350 C   0  0  0  0  0  0  0  0  0  0  0  0
   58.9401   35.2955   44.1642 H   0  0  0  0  0  0  0  0  0  0  0  0
   58.2960   33.2380   44.3110 C   0  0  0  0  0  0  0  0  0  0  0  0
   58.1122   33.1460   43.2304 H   0  0  0  0  0  0  0  0  0  0  0  0
   58.0560   32.1470   45.1540 C   0  0  0  0  0  0  0  0  0  0  0  0
   57.5180   30.8970   44.5800 C   0  0  0  0  0  0  0  0  0  0  0  0
   56.8693   30.9839   43.6959 H   0  0  0  0  0  0  0  0  0  0  0  0
   57.7580   29.6620   45.0520 C   0  0  0  0  0  0  0  0  0  0  0  0
   58.7829   29.4424   45.3858 H   0  0  0  0  0  0  0  0  0  0  0  0
   56.7620   28.5700   45.1620 C   0  0  0  0  0  0  0  0  0  0  0  0
   55.5590   28.8370   44.8960 O   0  0  0  0  0  0  0  0  0  0  0  0
   57.1120   27.2060   45.6290 C   0  0  0  0  0  0  0  0  0  0  0  0
   58.4520   26.7870   45.6320 C   0  0  0  0  0  0  0  0  0  0  0  0
   59.2449   27.4909   45.3390 H   0  0  0  0  0  0  0  0  0  0  0  0
   58.7850   25.4840   46.0040 C   0  0  0  0  0  0  0  0  0  0  0  0
   59.8366   25.1619   45.9872 H   0  0  0  0  0  0  0  0  0  0  0  0
   57.7910   24.5880   46.3970 C   0  0  0  0  0  0  0  0  0  0  0  0
   58.1420   23.2830   46.7250 O   0  0  0  0  0  0  0  0  0  0  0  0
   56.4460   25.0040   46.4480 C   0  0  0  0  0  0  0  0  0  0  0  0
   55.3770   24.0560   46.8260 C   0  0  0  0  0  0  0  0  0  0  0  0
   54.8285   24.2531   47.7589 H   0  0  0  0  0  0  0  0  0  0  0  0
   55.0260   22.9740   46.1170 C   0  0  0  0  0  0  0  0  0  0  0  0
   55.2839   21.9906   46.5370 H   0  0  0  0  0  0  0  0  0  0  0  0
   54.3220   22.9920   44.8190 C   0  0  0  0  0  0  0  0  0  0  0  0
   54.9940   22.9760   43.7560 O   0  0  0  0  0  0  0  0  0  0  0  0
   52.9370   23.0770   44.7430 O   0  0  0  0  0  0  0  0  0  0  0  0
   56.1080   26.3090   46.0480 C   0  0  0  0  0  0  0  0  0  0  0  0
   54.7730   26.7060   46.0510 O   0  0  0  0  0  0  0  0  0  0  0  0
   58.3730   32.2500   46.5180 C   0  0  0  0  0  0  0  0  0  0  0  0
   58.2386   31.3769   47.1734 H   0  0  0  0  0  0  0  0  0  0  0  0
   58.8600   33.4540   47.0580 C   0  0  0  0  0  0  0  0  0  0  0  0
   59.2060   33.4880   48.4970 C   0  0  0  0  0  0  0  0  0  0  0  0
   59.6840   34.5280   49.0230 O   0  0  0  0  0  0  0  0  0  0  0  0
   59.0710   32.3430   49.2730 O   0  0  0  0  0  0  0  0  0  0  0  0
  1  2  1  0
  2  3  1  0
  3  4  2  0
  4  5  1  0
  4  6  1  0
  6  7  1  0
  6  8  2  0
  8  9  1  0
  9 10  1  0
  9 11  2  3
 11 12  1  0
 11 13  1  0
 13 14  2  0
 13 15  1  0
 15 16  2  0
 16 17  1  0
 16 18  1  0
 18 19  1  0
 18 20  2  0
 20 21  1  0
 20 22  1  0
 22 23  1  0
 23 24  1  0
 23 25  2  0
 25 26  1  0
 25 27  1  0
 27 28  2  0
 27 29  1  0
 22 30  2  0
 30 31  1  0
  8 32  1  0
 32 33  1  0
 32 34  2  0
 34 35  1  0
 35 36  2  0
 35 37  1  0
 34  3  1  0
 30 15  1  0
M  CHG  4  21  -1  29  -1  31  -1  37  -1
M  END
>  <UniqueID>  (37) 
29

>  <SMILES>  (37) 
O=C([O-])/C=C\c1c([O-])ccc(C(=O)C=Cc2ccc(O)c(C(=O)[O-])c2)c1[O-]

>  <Energy>  (37) 
62.42494802563011

>  <Genealogy>  (37) 
O=C([O-])C=Cc1c([O-])ccc(C(=O)C=Cc2ccc(O)c(C(=O)[O-])c2)c1[O-] (protonated)
O=C([O-])/C=C\c1c([O-])ccc(C(=O)C=Cc2ccc(O)c(C(=O)[O-])c2)c1[O-] (cis-trans isomerization)
O=C([O-])/C=C\c1c([O-])ccc(C(=O)C=Cc2ccc(O)c(C(=O)[O-])c2)c1[O-] (3D coordinates assigned)
O=C([O-])/C=C\c1c([O-])ccc(C(=O)C=Cc2ccc(O)c(C(=O)[O-])c2)c1[O-] (optimized conformer: 62.42494802563011 kcal/mol)

>  <smiles>  (37) 
O=C(O)C=Cc1c(O)ccc(C(=O)C=Cc2ccc(O)c(C(=O)O)c2)c1O

>  <score_type>  (37) 
oracle

>  <origin>  (37) 
adg

>  <m_score__min__energy>  (37) 
-16.260000000000002

>  <m_primary>  (37) 
energy

$$$$
37:0
     RDKit          3D

 45 47  0  0  0  0  0  0  0  0999 V2000
   54.5800   25.9530   45.9730 N   0  0  0  0  0  0  0  0  0  0  0  0
   56.0780   25.1710   46.3380 S   0  0  0  0  0  0  0  0  0  0  0  0
   56.1870   23.9020   45.5390 O   0  0  0  0  0  0  0  0  0  0  0  0
   56.1200   24.8250   47.8000 O   0  0  0  0  0  0  0  0  0  0  0  0
   57.4150   26.2430   45.9360 C   0  0  0  0  0  0  0  0  0  0  0  0
   58.6660   26.0640   46.5410 C   0  0  0  0  0  0  0  0  0  0  0  0
   59.7270   26.9140   46.2210 C   0  0  0  0  0  0  0  0  0  0  0  0
   59.5450   27.9470   45.2980 C   0  0  0  0  0  0  0  0  0  0  0  0
   58.3010   28.1380   44.6850 C   0  0  0  0  0  0  0  0  0  0  0  0
   58.1510   29.2220   43.7580 N   0  0  0  0  0  0  0  0  0  0  0  0
   57.0140   30.5220   43.9200 S   0  0  0  0  0  0  0  0  0  0  0  0
   56.6990   31.0760   42.5590 O   0  0  0  0  0  0  0  0  0  0  0  0
   55.7470   29.9940   44.5360 O   0  0  0  0  0  0  0  0  0  0  0  0
   57.7070   31.8030   44.9090 C   0  0  0  0  0  0  0  0  0  0  0  0
   58.0560   31.5640   46.2440 C   0  0  0  0  0  0  0  0  0  0  0  0
   58.6370   32.5780   47.0120 C   0  0  0  0  0  0  0  0  0  0  0  0
   58.8750   33.8490   46.4540 C   0  0  0  0  0  0  0  0  0  0  0  0
   59.4960   34.9200   47.2670 C   0  0  0  0  0  0  0  0  0  0  0  0
   59.9770   35.9430   46.7050 O   0  0  0  0  0  0  0  0  0  0  0  0
   59.5520   34.8020   48.6940 N   0  0  0  0  0  0  0  0  0  0  0  0
   60.3060   33.7660   49.3920 C   0  0  0  0  0  0  0  0  0  0  0  0
   61.5100   33.3590   48.5880 C   0  0  0  0  0  0  0  0  0  0  0  0
   62.6210   34.2090   48.4940 C   0  0  0  0  0  0  0  0  0  0  0  0
   63.7350   33.8230   47.7480 C   0  0  0  0  0  0  0  0  0  0  0  0
   63.7300   32.5860   47.1020 C   0  0  0  0  0  0  0  0  0  0  0  0
   62.6480   31.7690   47.2040 N   0  0  0  0  0  0  0  0  0  0  0  0
   61.5510   32.1220   47.9250 C   0  0  0  0  0  0  0  0  0  0  0  0
   58.5150   34.0810   45.1150 C   0  0  0  0  0  0  0  0  0  0  0  0
   57.9360   33.0640   44.3490 C   0  0  0  0  0  0  0  0  0  0  0  0
   57.2390   27.2690   44.9980 C   0  0  0  0  0  0  0  0  0  0  0  0
   54.7940   26.7170   45.2920 H   0  0  0  0  0  0  0  0  0  0  0  0
   58.8128   25.2527   47.2692 H   0  0  0  0  0  0  0  0  0  0  0  0
   60.7083   26.7698   46.6968 H   0  0  0  0  0  0  0  0  0  0  0  0
   60.3842   28.6141   45.0515 H   0  0  0  0  0  0  0  0  0  0  0  0
   57.8725   30.5754   46.6900 H   0  0  0  0  0  0  0  0  0  0  0  0
   58.9100   32.3815   48.0593 H   0  0  0  0  0  0  0  0  0  0  0  0
   60.6360   34.1533   50.3672 H   0  0  0  0  0  0  0  0  0  0  0  0
   59.6584   32.8880   49.5322 H   0  0  0  0  0  0  0  0  0  0  0  0
   62.6143   35.1811   49.0089 H   0  0  0  0  0  0  0  0  0  0  0  0
   64.6085   34.4870   47.6698 H   0  0  0  0  0  0  0  0  0  0  0  0
   64.6021   32.2717   46.5098 H   0  0  0  0  0  0  0  0  0  0  0  0
   60.6930   31.4366   47.9892 H   0  0  0  0  0  0  0  0  0  0  0  0
   58.6900   35.0699   44.6663 H   0  0  0  0  0  0  0  0  0  0  0  0
   57.6596   33.2567   43.3019 H   0  0  0  0  0  0  0  0  0  0  0  0
   56.2648   27.3960   44.5032 H   0  0  0  0  0  0  0  0  0  0  0  0
  1  2  1  0
  2  3  2  0
  2  4  2  0
  2  5  1  0
  5  6  2  0
  6  7  1  0
  7  8  2  0
  8  9  1  0
  9 10  1  0
 10 11  1  0
 11 12  2  0
 11 13  2  0
 11 14  1  0
 14 15  2  0
 15 16  1  0
 16 17  2  0
 17 18  1  0
 18 19  2  0
 18 20  1  0
 20 21  1  0
 21 22  1  0
 22 23  2  0
 23 24  1  0
 24 25  2  0
 25 26  1  0
 26 27  2  0
 17 28  1  0
 28 29  2  0
  9 30  2  0
 30  5  1  0
 29 14  1  0
 27 22  1  0
  1 31  1  0
  6 32  1  0
  7 33  1  0
  8 34  1  0
 15 35  1  0
 16 36  1  0
 21 37  1  0
 21 38  1  0
 23 39  1  0
 24 40  1  0
 25 41  1  0
 27 42  1  0
 28 43  1  0
 29 44  1  0
 30 45  1  0
M  CHG  3   1  -1  10  -1  20  -1
M  END
>  <UniqueID>  (38) 
30

>  <SMILES>  (38) 
[NH-]S(=O)(=O)c1cccc([N-]S(=O)(=O)c2ccc(C(=O)[N-]Cc3cccnc3)cc2)c1

>  <Energy>  (38) 
49.252127941337164

>  <Genealogy>  (38) 
[NH-]S(=O)(=O)c1cccc([N-]S(=O)(=O)c2ccc(C(=O)[N-]Cc3cccnc3)cc2)c1 (protonated)
[NH-]S(=O)(=O)c1cccc([N-]S(=O)(=O)c2ccc(C(=O)[N-]Cc3cccnc3)cc2)c1 (3D coordinates assigned)
[NH-]S(=O)(=O)c1cccc([N-]S(=O)(=O)c2ccc(C(=O)[N-]Cc3cccnc3)cc2)c1 (optimized conformer: 49.252127941337164 kcal/mol)

>  <smiles>  (38) 
NS(=O)(=O)c1cccc(NS(=O)(=O)c2ccc(C(=O)NCc3cccnc3)cc2)c1

>  <score_type>  (38) 
oracle

>  <origin>  (38) 
adg

>  <m_score__min__energy>  (38) 
-14.460000000000001

>  <m_primary>  (38) 
energy

$$$$
38:0
     RDKit          3D

 28 29  0  0  1  0  0  0  0  0999 V2000
   56.0690   29.3400   42.6170 N   0  0  0  0  0  0  0  0  0  0  0  0
   56.1810   30.0530   43.8570 C   0  0  0  0  0  0  0  0  0  0  0  0
   55.4790   29.7080   44.8490 O   0  0  0  0  0  0  0  0  0  0  0  0
   57.1030   31.1680   43.9600 C   0  0  0  0  0  0  0  0  0  0  0  0
   57.6700   31.5930   45.1360 C   0  0  0  0  0  0  0  0  0  0  0  0
   58.4740   32.6690   44.7800 C   0  0  0  0  0  0  0  0  0  0  0  0
   59.3100   33.4920   45.6770 C   0  0  2  0  0  0  0  0  0  0  0  0
   60.1020   32.6350   46.6670 C   0  0  0  0  0  0  0  0  0  0  0  0
   61.1290   33.6020   47.2620 C   0  0  0  0  0  0  0  0  0  0  0  0
   60.3630   34.6010   48.0780 C   0  0  0  0  0  0  0  0  0  0  0  0
   59.4290   35.3020   47.2360 N   0  0  0  0  0  0  0  0  0  0  0  0
   58.5090   34.4490   46.5330 C   0  0  0  0  0  0  0  0  0  0  0  0
   58.3870   32.8710   43.4570 N   0  0  0  0  0  0  0  0  0  0  0  0
   57.5460   31.9460   42.9750 N   0  0  0  0  0  0  0  0  0  0  0  0
   56.2810   28.3210   42.6610 H   0  0  0  0  0  0  0  0  0  0  0  0
   55.7960   29.8010   41.7240 H   0  0  0  0  0  0  0  0  0  0  0  0
   57.5203   31.1730   46.1416 H   0  0  0  0  0  0  0  0  0  0  0  0
   59.9673   34.0436   44.9887 H   0  0  0  0  0  0  0  0  0  0  0  0
   59.4426   32.2349   47.4513 H   0  0  0  0  0  0  0  0  0  0  0  0
   60.5718   31.7632   46.1882 H   0  0  0  0  0  0  0  0  0  0  0  0
   61.8379   33.0552   47.9010 H   0  0  0  0  0  0  0  0  0  0  0  0
   61.7069   34.1002   46.4696 H   0  0  0  0  0  0  0  0  0  0  0  0
   59.8150   34.0782   48.8757 H   0  0  0  0  0  0  0  0  0  0  0  0
   61.0644   35.3222   48.5229 H   0  0  0  0  0  0  0  0  0  0  0  0
   58.9510   36.0790   47.7400 H   0  0  0  0  0  0  0  0  0  0  0  0
   57.9006   33.8834   47.2541 H   0  0  0  0  0  0  0  0  0  0  0  0
   57.8383   35.0516   45.9029 H   0  0  0  0  0  0  0  0  0  0  0  0
   58.8700   33.6040   42.8830 H   0  0  0  0  0  0  0  0  0  0  0  0
  1  2  1  0
  2  3  2  0
  2  4  1  0
  4  5  1  0
  5  6  2  0
  6  7  1  0
  7  8  1  0
  8  9  1  0
  9 10  1  0
 10 11  1  0
 11 12  1  0
  6 13  1  0
 13 14  1  0
 14  4  2  0
 12  7  1  0
  1 15  1  0
  1 16  1  0
  5 17  1  0
  7 18  1  6
  8 19  1  0
  8 20  1  0
  9 21  1  0
  9 22  1  0
 10 23  1  0
 10 24  1  0
 11 25  1  0
 12 26  1  0
 12 27  1  0
 13 28  1  0
M  END
>  <smiles>  (39) 
NC(=O)c1cc(C2CCCNC2)[nH]n1

>  <score_type>  (39) 
oracle

>  <origin>  (39) 
adg

>  <m_score__min__energy>  (39) 
-6.6200000000000001

>  <m_primary>  (39) 
energy

$$$$
39:0
     RDKit          3D

 63 67  0  0  0  0  0  0  0  0999 V2000
   52.0210   19.7230   49.3150 C   0  0  0  0  0  0  0  0  0  0  0  0
   51.5200   21.1520   49.4940 C   0  0  0  0  0  0  0  0  0  0  0  0
   50.9920   21.8480   47.9360 S   0  0  0  0  0  0  0  0  0  0  0  0
   50.4300   20.7570   47.0700 O   0  0  0  0  0  0  0  0  0  0  0  0
   49.9160   22.8700   48.1770 O   0  0  0  0  0  0  0  0  0  0  0  0
   52.3610   22.5950   47.1160 C   0  0  0  0  0  0  0  0  0  0  0  0
   52.1940   23.1530   45.8430 C   0  0  0  0  0  0  0  0  0  0  0  0
   53.2830   23.7200   45.1750 C   0  0  0  0  0  0  0  0  0  0  0  0
   54.5540   23.7270   45.7690 C   0  0  0  0  0  0  0  0  0  0  0  0
   55.7240   24.3410   45.0530 C   0  0  0  0  0  0  0  0  0  0  0  0
   56.0730   25.6670   45.6570 C   0  0  0  0  0  0  0  0  0  0  0  0
   55.1490   26.4290   46.0500 O   0  0  0  0  0  0  0  0  0  0  0  0
   57.4480   26.0310   45.8480 N   0  0  0  0  0  0  0  0  0  0  0  0
   57.9140   27.3770   46.0460 C   0  0  0  0  0  0  0  0  0  0  0  0
   57.3890   28.4540   45.3090 C   0  0  0  0  0  0  0  0  0  0  0  0
   57.8850   29.7480   45.4920 C   0  0  0  0  0  0  0  0  0  0  0  0
   58.9290   29.9920   46.4040 C   0  0  0  0  0  0  0  0  0  0  0  0
   59.4620   31.3680   46.5910 C   0  0  0  0  0  0  0  0  0  0  0  0
   58.8860   32.4540   45.9070 C   0  0  0  0  0  0  0  0  0  0  0  0
   59.3780   33.7470   46.0920 C   0  0  0  0  0  0  0  0  0  0  0  0
   60.4480   33.9760   46.9570 C   0  0  0  0  0  0  0  0  0  0  0  0
   61.0440   32.9070   47.6480 C   0  0  0  0  0  0  0  0  0  0  0  0
   62.1780   33.1510   48.5670 C   0  0  0  0  0  0  0  0  0  0  0  0
   63.4120   32.6100   48.3790 N   0  0  0  0  0  0  0  0  0  0  0  0
   64.1040   33.0840   49.4240 C   0  0  0  0  0  0  0  0  0  0  0  0
   65.4420   32.8510   49.7370 C   0  0  0  0  0  0  0  0  0  0  0  0
   65.9640   33.4500   50.9070 C   0  0  0  0  0  0  0  0  0  0  0  0
   67.4150   33.2720   51.2780 C   0  0  0  0  0  0  0  0  0  0  0  0
   68.2000   33.4940   50.1610 F   0  0  0  0  0  0  0  0  0  0  0  0
   67.7730   34.1720   52.2670 F   0  0  0  0  0  0  0  0  0  0  0  0
   67.6510   31.9920   51.7490 F   0  0  0  0  0  0  0  0  0  0  0  0
   65.1310   34.2950   51.6900 C   0  0  0  0  0  0  0  0  0  0  0  0
   63.7840   34.5030   51.3380 C   0  0  0  0  0  0  0  0  0  0  0  0
   63.3100   33.8720   50.1930 C   0  0  0  0  0  0  0  0  0  0  0  0
   62.0760   33.9340   49.6730 N   0  0  0  0  0  0  0  0  0  0  0  0
   60.5440   31.6050   47.4590 C   0  0  0  0  0  0  0  0  0  0  0  0
   59.4670   28.9100   47.1230 C   0  0  0  0  0  0  0  0  0  0  0  0
   58.9660   27.6170   46.9410 C   0  0  0  0  0  0  0  0  0  0  0  0
   54.7160   23.1780   47.0510 C   0  0  0  0  0  0  0  0  0  0  0  0
   53.6280   22.6080   47.7170 C   0  0  0  0  0  0  0  0  0  0  0  0
   52.1818   19.2645   50.3019 H   0  0  0  0  0  0  0  0  0  0  0  0
   51.2738   19.1397   48.7570 H   0  0  0  0  0  0  0  0  0  0  0  0
   52.9689   19.7340   48.7570 H   0  0  0  0  0  0  0  0  0  0  0  0
   50.6706   21.1500   50.1929 H   0  0  0  0  0  0  0  0  0  0  0  0
   52.3441   21.7643   49.8889 H   0  0  0  0  0  0  0  0  0  0  0  0
   51.2024   23.1452   45.3668 H   0  0  0  0  0  0  0  0  0  0  0  0
   53.1427   24.1632   44.1780 H   0  0  0  0  0  0  0  0  0  0  0  0
   56.5905   23.6680   45.1323 H   0  0  0  0  0  0  0  0  0  0  0  0
   55.4553   24.4912   43.9969 H   0  0  0  0  0  0  0  0  0  0  0  0
   58.1560   25.2620   45.8610 H   0  0  0  0  0  0  0  0  0  0  0  0
   56.5819   28.2765   44.5830 H   0  0  0  0  0  0  0  0  0  0  0  0
   57.4558   30.5827   44.9184 H   0  0  0  0  0  0  0  0  0  0  0  0
   58.0425   32.2831   45.2220 H   0  0  0  0  0  0  0  0  0  0  0  0
   58.9198   34.5894   45.5531 H   0  0  0  0  0  0  0  0  0  0  0  0
   60.8274   34.9987   47.0991 H   0  0  0  0  0  0  0  0  0  0  0  0
   66.0729   32.2203   49.0935 H   0  0  0  0  0  0  0  0  0  0  0  0
   65.5435   34.7917   52.5806 H   0  0  0  0  0  0  0  0  0  0  0  0
   63.1289   35.1426   51.9477 H   0  0  0  0  0  0  0  0  0  0  0  0
   61.0044   30.7627   47.9961 H   0  0  0  0  0  0  0  0  0  0  0  0
   60.2884   29.0819   47.8342 H   0  0  0  0  0  0  0  0  0  0  0  0
   59.4019   26.7798   47.5059 H   0  0  0  0  0  0  0  0  0  0  0  0
   55.7044   23.1967   47.5335 H   0  0  0  0  0  0  0  0  0  0  0  0
   53.7657   22.1681   48.7158 H   0  0  0  0  0  0  0  0  0  0  0  0
  1  2  1  0
  2  3  1  0
  3  4  2  0
  3  5  2  0
  3  6  1  0
  6  7  2  0
  7  8  1  0
  8  9  2  0
  9 10  1  0
 10 11  1  0
 11 12  2  0
 11 13  1  0
 13 14  1  0
 14 15  2  0
 15 16  1  0
 16 17  2  0
 17 18  1  0
 18 19  2  0
 19 20  1  0
 20 21  2  0
 21 22  1  0
 22 23  1  0
 23 24  2  0
 24 25  1  0
 25 26  2  0
 26 27  1  0
 27 28  1  0
 28 29  1  0
 28 30  1  0
 28 31  1  0
 27 32  2  0
 32 33  1  0
 33 34  2  0
 34 35  1  0
 22 36  2  0
 17 37  1  0
 37 38  2  0
  9 39  1  0
 39 40  2  0
 40  6  1  0
 38 14  1  0
 36 18  1  0
 35 23  1  0
 34 25  1  0
  1 41  1  0
  1 42  1  0
  1 43  1  0
  2 44  1  0
  2 45  1  0
  7 46  1  0
  8 47  1  0
 10 48  1  0
 10 49  1  0
 13 50  1  0
 15 51  1  0
 16 52  1  0
 19 53  1  0
 20 54  1  0
 21 55  1  0
 26 56  1  0
 32 57  1  0
 33 58  1  0
 36 59  1  0
 37 60  1  0
 38 61  1  0
 39 62  1  0
 40 63  1  0
M  CHG  1  35  -1
M  END
>  <UniqueID>  (40) 
31

>  <SMILES>  (40) 
CCS(=O)(=O)c1ccc(CC(=O)Nc2ccc(-c3cccc(-c4nc5cc(C(F)(F)F)ccc5[n-]4)c3)cc2)cc1

>  <Energy>  (40) 
106.59327084115756

>  <Genealogy>  (40) 
CCS(=O)(=O)c1ccc(CC(=O)Nc2ccc(-c3cccc(-c4nc5cc(C(F)(F)F)ccc5[n-]4)c3)cc2)cc1 (protonated)
CCS(=O)(=O)c1ccc(CC(=O)Nc2ccc(-c3cccc(-c4nc5cc(C(F)(F)F)ccc5[n-]4)c3)cc2)cc1 (3D coordinates assigned)
CCS(=O)(=O)c1ccc(CC(=O)Nc2ccc(-c3cccc(-c4nc5cc(C(F)(F)F)ccc5[n-]4)c3)cc2)cc1 (optimized conformer: 106.59327084115756 kcal/mol)

>  <smiles>  (40) 
CCS(=O)(=O)c1ccc(CC(=O)Nc2ccc(-c3cccc(-c4nc5cc(C(F)(F)F)ccc5[nH]4)c3)cc2)cc1

>  <score_type>  (40) 
oracle

>  <origin>  (40) 
adg

>  <m_score__min__energy>  (40) 
-10.82

>  <m_primary>  (40) 
energy

$$$$
40:0
     RDKit          3D

 21 21  0  0  0  0  0  0  0  0999 V2000
   55.6980   29.7270   45.9950 H   0  0  0  0  0  0  0  0  0  0  0  0
   55.1770   29.3230   45.2270 O   0  0  0  0  0  0  0  0  0  0  0  0
   55.2070   29.9200   43.9880 N   0  0  0  0  0  0  0  0  0  0  0  0
   56.3260   30.3080   43.4700 C   0  0  0  0  0  0  0  0  0  0  0  0
   56.6413   29.8855   42.5046 H   0  0  0  0  0  0  0  0  0  0  0  0
   57.1950   31.3020   44.1350 C   0  0  0  0  0  0  0  0  0  0  0  0
   57.3210   31.2080   45.4270 N   0  0  0  0  0  0  0  0  0  0  0  0
   58.1470   32.1130   46.2180 C   0  0  0  0  0  0  0  0  0  0  0  0
   59.1868   31.7542   46.2149 H   0  0  0  0  0  0  0  0  0  0  0  0
   57.7663   32.1419   47.2496 H   0  0  0  0  0  0  0  0  0  0  0  0
   58.0950   33.5160   45.6250 C   0  0  0  0  0  0  0  0  0  0  0  0
   58.7680   34.1790   46.1884 H   0  0  0  0  0  0  0  0  0  0  0  0
   57.0680   33.9055   45.6853 H   0  0  0  0  0  0  0  0  0  0  0  0
   58.5390   33.4590   44.1620 C   0  0  0  0  0  0  0  0  0  0  0  0
   59.6235   33.2786   44.1263 H   0  0  0  0  0  0  0  0  0  0  0  0
   58.2808   34.4183   43.6898 H   0  0  0  0  0  0  0  0  0  0  0  0
   57.8530   32.3860   43.4210 N   0  0  0  0  0  0  0  0  0  0  0  0
   58.0600   32.3330   41.9700 C   0  0  0  0  0  0  0  0  0  0  0  0
   59.1057   32.0653   41.7583 H   0  0  0  0  0  0  0  0  0  0  0  0
   57.3920   31.5769   41.5317 H   0  0  0  0  0  0  0  0  0  0  0  0
   57.8376   33.3171   41.5317 H   0  0  0  0  0  0  0  0  0  0  0  0
  1  2  1  0
  2  3  1  0
  3  4  2  0
  4  5  1  0
  4  6  1  0
  6  7  2  0
  7  8  1  0
  8  9  1  0
  8 10  1  0
  8 11  1  0
 11 12  1  0
 11 13  1  0
 11 14  1  0
 14 15  1  0
 14 16  1  0
 14 17  1  0
 17 18  1  0
 18 19  1  0
 18 20  1  0
 18 21  1  0
 17  6  1  0
M  END
>  <UniqueID>  (41) 
32

>  <SMILES>  (41) 
CN1CCCN=C1/C=N/O

>  <Energy>  (41) 
16.401555069221157

>  <Genealogy>  (41) 
CN1CCCN=C1/C=N/O (cis-trans isomerization)
CN1CCCN=C1/C=N/O (3D coordinates assigned)
CN1CCCN=C1/C=N/O (nonaromatic ring conformer: 16.401555069221157 kcal/mol)

>  <smiles>  (41) 
CN1CCCN=C1C=NO

>  <score_type>  (41) 
oracle

>  <origin>  (41) 
adg

>  <m_score__min__energy>  (41) 
-5.9000000000000004

>  <m_primary>  (41) 
energy

$$$$
41:0
     RDKit          3D

 52 54  0  0  0  0  0  0  0  0999 V2000
   60.2210   34.9220   46.1120 C   0  0  0  0  0  0  0  0  0  0  0  0
   59.1260   34.7690   45.2150 O   0  0  0  0  0  0  0  0  0  0  0  0
   58.5350   33.5400   44.8810 C   0  0  0  0  0  0  0  0  0  0  0  0
   58.4470   33.0960   43.5470 C   0  0  0  0  0  0  0  0  0  0  0  0
   57.8430   31.8730   43.2460 C   0  0  0  0  0  0  0  0  0  0  0  0
   57.3100   31.0800   44.2670 C   0  0  0  0  0  0  0  0  0  0  0  0
   56.5620   29.5320   43.8740 S   0  0  0  0  0  0  0  0  0  0  0  0
   55.9360   29.6220   42.5120 O   0  0  0  0  0  0  0  0  0  0  0  0
   55.4860   29.2080   44.8730 O   0  0  0  0  0  0  0  0  0  0  0  0
   57.7580   28.2720   43.8690 N   0  0  0  0  0  0  0  0  0  0  0  0
   59.0690   28.8300   44.1870 C   0  0  0  0  0  0  0  0  0  0  0  0
   59.2030   28.9590   45.6770 C   0  0  0  0  0  0  0  0  0  0  0  0
   58.4470   28.1410   46.5290 C   0  0  0  0  0  0  0  0  0  0  0  0
   58.5920   28.2400   47.9160 C   0  0  0  0  0  0  0  0  0  0  0  0
   59.5020   29.1550   48.4750 C   0  0  0  0  0  0  0  0  0  0  0  0
   59.6700   29.2670   49.9430 C   0  0  0  0  0  0  0  0  0  0  0  0
   60.7670   28.9300   50.4680 O   0  0  0  0  0  0  0  0  0  0  0  0
   58.6120   29.7720   50.7740 N   0  0  0  0  0  0  0  0  0  0  0  0
   58.6690   29.7100   52.2330 C   0  0  0  0  0  0  0  0  0  0  0  0
   57.2920   29.8610   52.8090 C   0  0  0  0  0  0  0  0  0  0  0  0
   57.0670   29.7210   54.1870 C   0  0  0  0  0  0  0  0  0  0  0  0
   55.7680   29.8430   54.6840 C   0  0  0  0  0  0  0  0  0  0  0  0
   54.7100   30.0970   53.8100 C   0  0  0  0  0  0  0  0  0  0  0  0
   54.9690   30.2220   52.4440 C   0  0  0  0  0  0  0  0  0  0  0  0
   56.2410   30.1000   51.9770 N   0  0  0  0  0  0  0  0  0  0  0  0
   60.2810   29.9490   47.6150 C   0  0  0  0  0  0  0  0  0  0  0  0
   60.1330   29.8510   46.2280 C   0  0  0  0  0  0  0  0  0  0  0  0
   57.3980   31.5090   45.5970 C   0  0  0  0  0  0  0  0  0  0  0  0
   58.0170   32.7310   45.9120 C   0  0  0  0  0  0  0  0  0  0  0  0
   58.0840   33.1890   47.3420 C   0  0  0  0  0  0  0  0  0  0  0  0
   59.8559   34.8710   47.1484 H   0  0  0  0  0  0  0  0  0  0  0  0
   60.9508   34.1171   45.9403 H   0  0  0  0  0  0  0  0  0  0  0  0
   60.7023   35.8961   45.9403 H   0  0  0  0  0  0  0  0  0  0  0  0
   58.8568   33.7168   42.7366 H   0  0  0  0  0  0  0  0  0  0  0  0
   57.7864   31.5323   42.2016 H   0  0  0  0  0  0  0  0  0  0  0  0
   59.8554   28.1634   43.8033 H   0  0  0  0  0  0  0  0  0  0  0  0
   59.1721   29.8205   43.7198 H   0  0  0  0  0  0  0  0  0  0  0  0
   57.7360   27.4175   46.1037 H   0  0  0  0  0  0  0  0  0  0  0  0
   57.9898   27.5974   48.5750 H   0  0  0  0  0  0  0  0  0  0  0  0
   57.7960   30.2570   50.3380 H   0  0  0  0  0  0  0  0  0  0  0  0
   59.0876   28.7402   52.5400 H   0  0  0  0  0  0  0  0  0  0  0  0
   59.3061   30.5265   52.6037 H   0  0  0  0  0  0  0  0  0  0  0  0
   57.9057   29.5172   54.8689 H   0  0  0  0  0  0  0  0  0  0  0  0
   55.5788   29.7391   55.7626 H   0  0  0  0  0  0  0  0  0  0  0  0
   53.6838   30.1975   54.1931 H   0  0  0  0  0  0  0  0  0  0  0  0
   54.1435   30.4194   51.7442 H   0  0  0  0  0  0  0  0  0  0  0  0
   61.0131   30.6533   48.0369 H   0  0  0  0  0  0  0  0  0  0  0  0
   60.7495   30.4770   45.5662 H   0  0  0  0  0  0  0  0  0  0  0  0
   56.9798   30.8854   46.4009 H   0  0  0  0  0  0  0  0  0  0  0  0
   57.9575   32.3244   48.0102 H   0  0  0  0  0  0  0  0  0  0  0  0
   59.0604   33.6589   47.5312 H   0  0  0  0  0  0  0  0  0  0  0  0
   57.2831   33.9189   47.5312 H   0  0  0  0  0  0  0  0  0  0  0  0
  1  2  1  0
  2  3  1  0
  3  4  2  0
  4  5  1  0
  5  6  2  0
  6  7  1  0
  7  8  2  0
  7  9  2  0
  7 10  1  0
 10 11  1  0
 11 12  1  0
 12 13  2  0
 13 14  1  0
 14 15  2  0
 15 16  1  0
 16 17  2  0
 16 18  1  0
 18 19  1  0
 19 20  1  0
 20 21  2  0
 21 22  1  0
 22 23  2  0
 23 24  1  0
 24 25  2  0
 15 26  1  0
 26 27  2  0
  6 28  1  0
 28 29  2  0
 29 30  1  0
 29  3  1  0
 27 12  1  0
 25 20  1  0
  1 31  1  0
  1 32  1  0
  1 33  1  0
  4 34  1  0
  5 35  1  0
 11 36  1  0
 11 37  1  0
 13 38  1  0
 14 39  1  0
 18 40  1  0
 19 41  1  0
 19 42  1  0
 21 43  1  0
 22 44  1  0
 23 45  1  0
 24 46  1  0
 26 47  1  0
 27 48  1  0
 28 49  1  0
 30 50  1  0
 30 51  1  0
 30 52  1  0
M  CHG  1  10  -1
M  END
>  <UniqueID>  (42) 
33

>  <SMILES>  (42) 
COc1ccc(S(=O)(=O)[N-]Cc2ccc(C(=O)NCc3ccccn3)cc2)cc1C

>  <Energy>  (42) 
51.53334655090682

>  <Genealogy>  (42) 
COc1ccc(S(=O)(=O)[N-]Cc2ccc(C(=O)NCc3ccccn3)cc2)cc1C (protonated)
COc1ccc(S(=O)(=O)[N-]Cc2ccc(C(=O)NCc3ccccn3)cc2)cc1C (3D coordinates assigned)
COc1ccc(S(=O)(=O)[N-]Cc2ccc(C(=O)NCc3ccccn3)cc2)cc1C (optimized conformer: 51.53334655090682 kcal/mol)

>  <smiles>  (42) 
COc1ccc(S(=O)(=O)NCc2ccc(C(=O)NCc3ccccn3)cc2)cc1C

>  <score_type>  (42) 
oracle

>  <origin>  (42) 
adg

>  <m_score__min__energy>  (42) 
-9.7100000000000009

>  <m_primary>  (42) 
energy

$$$$
42:0
     RDKit          3D

 48 50  0  0  0  0  0  0  0  0999 V2000
   63.4910   33.3330   46.7510 C   0  0  0  0  0  0  0  0  0  0  0  0
   62.2990   33.3550   47.5310 O   0  0  0  0  0  0  0  0  0  0  0  0
   61.0000   33.2560   47.0070 C   0  0  0  0  0  0  0  0  0  0  0  0
   60.2170   34.4010   46.7570 C   0  0  0  0  0  0  0  0  0  0  0  0
   58.9250   34.2770   46.2450 C   0  0  0  0  0  0  0  0  0  0  0  0
   58.3990   33.0160   45.9700 C   0  0  0  0  0  0  0  0  0  0  0  0
   59.1620   31.8730   46.2110 C   0  0  0  0  0  0  0  0  0  0  0  0
   60.4610   31.9780   46.7360 C   0  0  0  0  0  0  0  0  0  0  0  0
   61.2290   30.7160   47.0570 C   0  0  0  0  0  0  0  0  0  0  0  0
   60.3060   29.6030   47.3390 N   0  0  0  0  0  0  0  0  0  0  0  0
   60.2770   28.4490   46.4210 C   0  0  0  0  0  0  0  0  0  0  0  0
   58.8740   27.9190   46.2490 C   0  0  0  0  0  0  0  0  0  0  0  0
   58.5050   26.6980   46.8380 C   0  0  0  0  0  0  0  0  0  0  0  0
   57.1970   26.2210   46.7140 C   0  0  0  0  0  0  0  0  0  0  0  0
   56.2480   26.9510   45.9930 C   0  0  0  0  0  0  0  0  0  0  0  0
   54.9470   26.4680   45.8900 O   0  0  0  0  0  0  0  0  0  0  0  0
   56.6110   28.1600   45.3790 C   0  0  0  0  0  0  0  0  0  0  0  0
   55.6850   28.9060   44.6510 O   0  0  0  0  0  0  0  0  0  0  0  0
   57.9230   28.6310   45.4980 C   0  0  0  0  0  0  0  0  0  0  0  0
   59.4820   29.6160   48.5280 C   0  0  0  0  0  0  0  0  0  0  0  0
   58.2570   29.3250   48.4500 O   0  0  0  0  0  0  0  0  0  0  0  0
   60.0430   30.0090   49.7880 N   0  0  0  0  0  0  0  0  0  0  0  0
   60.6110   31.2860   50.1140 C   0  0  0  0  0  0  0  0  0  0  0  0
   59.7670   32.4030   50.1630 C   0  0  0  0  0  0  0  0  0  0  0  0
   60.2850   33.6690   50.4570 C   0  0  0  0  0  0  0  0  0  0  0  0
   61.6530   33.8280   50.6880 C   0  0  0  0  0  0  0  0  0  0  0  0
   62.5070   32.7250   50.6170 C   0  0  0  0  0  0  0  0  0  0  0  0
   61.9930   31.4570   50.3250 C   0  0  0  0  0  0  0  0  0  0  0  0
   64.3655   33.3169   47.4181 H   0  0  0  0  0  0  0  0  0  0  0  0
   63.4974   32.4346   46.1163 H   0  0  0  0  0  0  0  0  0  0  0  0
   63.5305   34.2306   46.1163 H   0  0  0  0  0  0  0  0  0  0  0  0
   60.6275   35.3997   46.9671 H   0  0  0  0  0  0  0  0  0  0  0  0
   58.3202   35.1766   46.0580 H   0  0  0  0  0  0  0  0  0  0  0  0
   57.3816   32.9218   45.5627 H   0  0  0  0  0  0  0  0  0  0  0  0
   58.7428   30.8808   45.9880 H   0  0  0  0  0  0  0  0  0  0  0  0
   61.8630   30.4507   46.1982 H   0  0  0  0  0  0  0  0  0  0  0  0
   61.8491   30.8959   47.9476 H   0  0  0  0  0  0  0  0  0  0  0  0
   60.6645   28.7618   45.4402 H   0  0  0  0  0  0  0  0  0  0  0  0
   60.8997   27.6496   46.8490 H   0  0  0  0  0  0  0  0  0  0  0  0
   59.2493   26.1144   47.3996 H   0  0  0  0  0  0  0  0  0  0  0  0
   56.9137   25.2683   47.1853 H   0  0  0  0  0  0  0  0  0  0  0  0
   54.7380   28.5810   44.4940 H   0  0  0  0  0  0  0  0  0  0  0  0
   58.2130   29.5675   44.9991 H   0  0  0  0  0  0  0  0  0  0  0  0
   58.6908   32.2841   49.9692 H   0  0  0  0  0  0  0  0  0  0  0  0
   59.6143   34.5395   50.5062 H   0  0  0  0  0  0  0  0  0  0  0  0
   62.0583   34.8225   50.9260 H   0  0  0  0  0  0  0  0  0  0  0  0
   63.5855   32.8535   50.7910 H   0  0  0  0  0  0  0  0  0  0  0  0
   62.6694   30.5920   50.2601 H   0  0  0  0  0  0  0  0  0  0  0  0
  1  2  1  0
  2  3  1  0
  3  4  2  0
  4  5  1  0
  5  6  2  0
  6  7  1  0
  7  8  2  0
  8  9  1  0
  9 10  1  0
 10 11  1  0
 11 12  1  0
 12 13  2  0
 13 14  1  0
 14 15  2  0
 15 16  1  0
 15 17  1  0
 17 18  1  0
 17 19  2  0
 10 20  1  0
 20 21  2  0
 20 22  1  0
 22 23  1  0
 23 24  2  0
 24 25  1  0
 25 26  2  0
 26 27  1  0
 27 28  2  0
  8  3  1  0
 19 12  1  0
 28 23  1  0
  1 29  1  0
  1 30  1  0
  1 31  1  0
  4 32  1  0
  5 33  1  0
  6 34  1  0
  7 35  1  0
  9 36  1  0
  9 37  1  0
 11 38  1  0
 11 39  1  0
 13 40  1  0
 14 41  1  0
 18 42  1  0
 19 43  1  0
 24 44  1  0
 25 45  1  0
 26 46  1  0
 27 47  1  0
 28 48  1  0
M  CHG  2  16  -1  22  -1
M  END
>  <UniqueID>  (43) 
34

>  <SMILES>  (43) 
COc1ccccc1CN(Cc1ccc([O-])c(O)c1)C(=O)[N-]c1ccccc1

>  <Energy>  (43) 
49.67138144352749

>  <Genealogy>  (43) 
COc1ccccc1CN(Cc1ccc([O-])c(O)c1)C(=O)[N-]c1ccccc1 (protonated)
COc1ccccc1CN(Cc1ccc([O-])c(O)c1)C(=O)[N-]c1ccccc1 (3D coordinates assigned)
COc1ccccc1CN(Cc1ccc([O-])c(O)c1)C(=O)[N-]c1ccccc1 (optimized conformer: 49.67138144352749 kcal/mol)

>  <smiles>  (43) 
COc1ccccc1CN(Cc1ccc(O)c(O)c1)C(=O)Nc1ccccc1

>  <score_type>  (43) 
oracle

>  <origin>  (43) 
adg

>  <m_score__min__energy>  (43) 
-13

>  <m_primary>  (43) 
energy

$$$$
43:0
     RDKit          3D

 59 62  0  0  1  0  0  0  0  0999 V2000
   55.9150   29.0330   44.6290 O   0  0  0  0  0  0  0  0  0  0  0  0
   57.0640   29.3180   45.0600 C   0  0  0  0  0  0  0  0  0  0  0  0
   57.9730   28.2480   45.2870 N   0  0  0  0  0  0  0  0  0  0  0  0
   57.4970   26.9250   45.0000 C   0  0  0  0  0  0  0  0  0  0  0  0
   57.7860   26.4550   43.7190 C   0  0  0  0  0  0  0  0  0  0  0  0
   57.3950   25.2060   43.2960 C   0  0  0  0  0  0  0  0  0  0  0  0
   56.6970   24.4330   44.2060 C   0  0  0  0  0  0  0  0  0  0  0  0
   56.1760   22.8340   43.7180 Cl  0  0  0  0  0  0  0  0  0  0  0  0
   56.4080   24.8950   45.4790 C   0  0  0  0  0  0  0  0  0  0  0  0
   56.8070   26.1590   45.8950 C   0  0  0  0  0  0  0  0  0  0  0  0
   57.4030   30.7180   45.3020 C   0  0  0  0  0  0  0  0  0  0  0  0
   56.9180   31.7560   44.5280 C   0  0  0  0  0  0  0  0  0  0  0  0
   57.2610   33.0510   44.7990 N   0  0  0  0  0  0  0  0  0  0  0  0
   58.0840   33.3510   45.8350 C   0  0  0  0  0  0  0  0  0  0  0  0
   58.3710   34.5970   46.0460 N   0  0  0  0  0  0  0  0  0  0  0  0
   59.6070   35.1070   45.4940 C   0  0  0  0  0  0  0  0  0  0  0  0
   60.7240   34.2050   45.9720 C   0  0  0  0  0  0  0  0  0  0  0  0
   60.7630   34.0130   47.3530 O   0  0  0  0  0  0  0  0  0  0  0  0
   61.9080   33.5190   47.9750 C   0  0  0  0  0  0  0  0  0  0  0  0
   62.2710   34.1650   49.1550 C   0  0  0  0  0  0  0  0  0  0  0  0
   63.3850   33.7800   49.8760 C   0  0  0  0  0  0  0  0  0  0  0  0
   64.1370   32.7220   49.3840 C   0  0  0  0  0  0  0  0  0  0  0  0
   63.7660   32.0820   48.2040 C   0  0  0  0  0  0  0  0  0  0  0  0
   62.6390   32.4810   47.4850 C   0  0  0  0  0  0  0  0  0  0  0  0
   58.5400   32.3390   46.5700 N   0  0  0  0  0  0  0  0  0  0  0  0
   58.2450   31.0450   46.3590 C   0  0  0  0  0  0  0  0  0  0  0  0
   58.7120   30.0820   47.0980 N   0  0  0  0  0  0  0  0  0  0  0  0
   59.8490   30.3200   47.9230 C   0  0  0  0  0  0  0  0  0  0  0  0
   59.4490   30.7120   49.3080 C   0  0  1  0  0  0  0  0  0  0  0  0
   60.5700   31.0730   50.2120 C   0  0  0  0  0  0  0  0  0  0  0  0
   60.0160   32.2780   50.9620 C   0  0  0  0  0  0  0  0  0  0  0  0
   59.0920   32.8450   49.8780 C   0  0  0  0  0  0  0  0  0  0  0  0
   58.5220   31.7410   49.2610 O   0  0  0  0  0  0  0  0  0  0  0  0
   58.9250   28.4440   45.6430 H   0  0  0  0  0  0  0  0  0  0  0  0
   58.3433   27.1026   43.0262 H   0  0  0  0  0  0  0  0  0  0  0  0
   57.6259   24.8402   42.2846 H   0  0  0  0  0  0  0  0  0  0  0  0
   55.8519   24.2488   46.1741 H   0  0  0  0  0  0  0  0  0  0  0  0
   56.5762   26.5280   46.9052 H   0  0  0  0  0  0  0  0  0  0  0  0
   56.2478   31.5369   43.6837 H   0  0  0  0  0  0  0  0  0  0  0  0
   56.8840   33.8010   44.2040 H   0  0  0  0  0  0  0  0  0  0  0  0
   59.5601   35.0969   44.3950 H   0  0  0  0  0  0  0  0  0  0  0  0
   59.7789   36.1433   45.8203 H   0  0  0  0  0  0  0  0  0  0  0  0
   60.6014   33.2228   45.4921 H   0  0  0  0  0  0  0  0  0  0  0  0
   61.6661   34.7031   45.6992 H   0  0  0  0  0  0  0  0  0  0  0  0
   61.6565   35.0008   49.5210 H   0  0  0  0  0  0  0  0  0  0  0  0
   63.6661   34.2938   50.8071 H   0  0  0  0  0  0  0  0  0  0  0  0
   65.0315   32.3870   49.9295 H   0  0  0  0  0  0  0  0  0  0  0  0
   64.3741   31.2446   47.8312 H   0  0  0  0  0  0  0  0  0  0  0  0
   62.3508   31.9733   46.5527 H   0  0  0  0  0  0  0  0  0  0  0  0
   59.1670   32.5570   47.3610 H   0  0  0  0  0  0  0  0  0  0  0  0
   60.4534   29.4022   47.9719 H   0  0  0  0  0  0  0  0  0  0  0  0
   60.4266   31.1468   47.4839 H   0  0  0  0  0  0  0  0  0  0  0  0
   59.0061   29.8067   49.7487 H   0  0  0  0  0  0  0  0  0  0  0  0
   60.8049   30.2492   50.9021 H   0  0  0  0  0  0  0  0  0  0  0  0
   61.5106   31.2821   49.6813 H   0  0  0  0  0  0  0  0  0  0  0  0
   59.4586   31.9806   51.8624 H   0  0  0  0  0  0  0  0  0  0  0  0
   60.7715   32.9783   51.3477 H   0  0  0  0  0  0  0  0  0  0  0  0
   58.3134   33.4777   50.3291 H   0  0  0  0  0  0  0  0  0  0  0  0
   59.6414   33.4738   49.1620 H   0  0  0  0  0  0  0  0  0  0  0  0
  1  2  2  0
  2  3  1  0
  3  4  1  0
  4  5  2  0
  5  6  1  0
  6  7  2  0
  7  8  1  0
  7  9  1  0
  9 10  2  0
  2 11  1  0
 11 12  2  0
 12 13  1  0
 13 14  1  0
 14 15  2  0
 15 16  1  0
 16 17  1  0
 17 18  1  0
 18 19  1  0
 19 20  2  0
 20 21  1  0
 21 22  2  0
 22 23  1  0
 23 24  2  0
 14 25  1  0
 25 26  1  0
 26 27  2  0
 27 28  1  0
 28 29  1  0
 29 30  1  0
 30 31  1  0
 31 32  1  0
 32 33  1  0
 10  4  1  0
 26 11  1  0
 33 29  1  0
 24 19  1  0
  3 34  1  0
  5 35  1  0
  6 36  1  0
  9 37  1  0
 10 38  1  0
 12 39  1  0
 13 40  1  0
 16 41  1  0
 16 42  1  0
 17 43  1  0
 17 44  1  0
 20 45  1  0
 21 46  1  0
 22 47  1  0
 23 48  1  0
 24 49  1  0
 25 50  1  0
 28 51  1  0
 28 52  1  0
 29 53  1  1
 30 54  1  0
 30 55  1  0
 31 56  1  0
 31 57  1  0
 32 58  1  0
 32 59  1  0
M  END
>  <smiles>  (44) 
O=C(Nc1ccc(Cl)cc1)c1c[nH]c(=NCCOc2ccccc2)[nH]c1=NCC1CCCO1

>  <score_type>  (44) 
oracle

>  <origin>  (44) 
adg

>  <m_score__min__energy>  (44) 
-8.2799999999999994

>  <m_primary>  (44) 
energy

$$$$
44:0
     RDKit          3D

 58 59  0  0  0  0  0  0  0  0999 V2000
   57.2730   21.4530   43.4090 C   0  0  0  0  0  0  0  0  0  0  0  0
   55.9620   21.9100   43.1610 O   0  0  0  0  0  0  0  0  0  0  0  0
   55.9350   23.3240   43.0970 C   0  0  0  0  0  0  0  0  0  0  0  0
   56.3800   23.9450   44.4310 C   0  0  0  0  0  0  0  0  0  0  0  0
   55.2270   24.0660   45.4300 C   0  0  0  0  0  0  0  0  0  0  0  0
   55.7240   24.5060   46.7310 N   0  0  0  0  0  0  0  0  0  0  0  0
   57.0160   24.1760   47.2560 C   0  0  0  0  0  0  0  0  0  0  0  0
   57.1770   23.0730   47.8370 O   0  0  0  0  0  0  0  0  0  0  0  0
   58.1280   25.0650   47.1210 N   0  0  0  0  0  0  0  0  0  0  0  0
   58.0070   26.4320   46.7210 C   0  0  0  0  0  0  0  0  0  0  0  0
   56.9840   26.9700   45.9670 C   0  0  0  0  0  0  0  0  0  0  0  0
   57.2610   28.3240   45.9050 C   0  0  0  0  0  0  0  0  0  0  0  0
   56.4560   29.3340   45.2120 C   0  0  0  0  0  0  0  0  0  0  0  0
   56.9460   30.4600   44.9330 O   0  0  0  0  0  0  0  0  0  0  0  0
   55.1450   29.0480   44.8560 O   0  0  0  0  0  0  0  0  0  0  0  0
   58.3630   28.5980   46.5710 O   0  0  0  0  0  0  0  0  0  0  0  0
   58.8380   27.4820   47.0740 C   0  0  0  0  0  0  0  0  0  0  0  0
   60.0220   27.4420   47.8240 O   0  0  0  0  0  0  0  0  0  0  0  0
   60.2460   28.1200   49.0610 C   0  0  0  0  0  0  0  0  0  0  0  0
   59.4190   29.4060   49.1630 C   0  0  0  0  0  0  0  0  0  0  0  0
   59.1010   29.6950   50.5540 N   0  0  0  0  0  0  0  0  0  0  0  0
   58.2020   30.7360   50.9400 C   0  0  0  0  0  0  0  0  0  0  0  0
   57.0040   30.4700   51.2340 O   0  0  0  0  0  0  0  0  0  0  0  0
   58.7080   32.1350   51.0700 C   0  0  0  0  0  0  0  0  0  0  0  0
   59.0720   32.6730   49.7130 C   0  0  0  0  0  0  0  0  0  0  0  0
   58.1520   32.6270   48.6570 C   0  0  0  0  0  0  0  0  0  0  0  0
   58.4950   33.1040   47.4320 N   0  0  0  0  0  0  0  0  0  0  0  0
   59.7280   33.6260   47.1790 C   0  0  0  0  0  0  0  0  0  0  0  0
   60.0480   34.1150   45.9090 O   0  0  0  0  0  0  0  0  0  0  0  0
   59.0910   34.2290   44.8630 C   0  0  0  0  0  0  0  0  0  0  0  0
   60.6930   33.6670   48.1920 C   0  0  0  0  0  0  0  0  0  0  0  0
   61.9630   34.1810   47.8940 O   0  0  0  0  0  0  0  0  0  0  0  0
   62.9520   33.4940   47.1360 C   0  0  0  0  0  0  0  0  0  0  0  0
   60.3550   33.1810   49.4680 C   0  0  0  0  0  0  0  0  0  0  0  0
   57.4416   21.3942   44.4944 H   0  0  0  0  0  0  0  0  0  0  0  0
   57.4043   20.4561   42.9630 H   0  0  0  0  0  0  0  0  0  0  0  0
   57.9956   22.1523   42.9630 H   0  0  0  0  0  0  0  0  0  0  0  0
   56.6135   23.6609   42.2994 H   0  0  0  0  0  0  0  0  0  0  0  0
   54.9041   23.6455   42.8877 H   0  0  0  0  0  0  0  0  0  0  0  0
   57.1644   23.3119   44.8714 H   0  0  0  0  0  0  0  0  0  0  0  0
   56.7515   24.9591   44.2222 H   0  0  0  0  0  0  0  0  0  0  0  0
   54.4973   24.7984   45.0542 H   0  0  0  0  0  0  0  0  0  0  0  0
   54.7499   23.0815   45.5449 H   0  0  0  0  0  0  0  0  0  0  0  0
   56.1341   26.4384   45.5142 H   0  0  0  0  0  0  0  0  0  0  0  0
   59.9680   27.4513   49.8890 H   0  0  0  0  0  0  0  0  0  0  0  0
   61.3103   28.3929   49.1135 H   0  0  0  0  0  0  0  0  0  0  0  0
   59.9959   30.2424   48.7416 H   0  0  0  0  0  0  0  0  0  0  0  0
   58.4818   29.2734   48.6025 H   0  0  0  0  0  0  0  0  0  0  0  0
   57.9253   32.7666   51.5154 H   0  0  0  0  0  0  0  0  0  0  0  0
   59.5996   32.1405   51.7142 H   0  0  0  0  0  0  0  0  0  0  0  0
   57.1499   32.2037   48.8202 H   0  0  0  0  0  0  0  0  0  0  0  0
   58.0869   34.3486   45.2961 H   0  0  0  0  0  0  0  0  0  0  0  0
   59.3292   35.1051   44.2420 H   0  0  0  0  0  0  0  0  0  0  0  0
   59.1167   33.3214   44.2420 H   0  0  0  0  0  0  0  0  0  0  0  0
   63.6606   33.0018   47.8184 H   0  0  0  0  0  0  0  0  0  0  0  0
   62.4676   32.7369   46.5018 H   0  0  0  0  0  0  0  0  0  0  0  0
   63.4924   34.2122   46.5018 H   0  0  0  0  0  0  0  0  0  0  0  0
   61.1005   33.1997   50.2766 H   0  0  0  0  0  0  0  0  0  0  0  0
  1  2  1  0
  2  3  1  0
  3  4  1  0
  4  5  1  0
  5  6  1  0
  6  7  1  0
  7  8  2  0
  7  9  1  0
  9 10  1  0
 10 11  1  0
 11 12  2  0
 12 13  1  0
 13 14  2  0
 13 15  1  0
 12 16  1  0
 16 17  1  0
 17 18  1  0
 18 19  1  0
 19 20  1  0
 20 21  1  0
 21 22  1  0
 22 23  2  0
 22 24  1  0
 24 25  1  0
 25 26  2  0
 26 27  1  0
 27 28  2  0
 28 29  1  0
 29 30  1  0
 28 31  1  0
 31 32  1  0
 32 33  1  0
 31 34  2  0
 17 10  2  0
 34 25  1  0
  1 35  1  0
  1 36  1  0
  1 37  1  0
  3 38  1  0
  3 39  1  0
  4 40  1  0
  4 41  1  0
  5 42  1  0
  5 43  1  0
 11 44  1  0
 19 45  1  0
 19 46  1  0
 20 47  1  0
 20 48  1  0
 24 49  1  0
 24 50  1  0
 26 51  1  0
 30 52  1  0
 30 53  1  0
 30 54  1  0
 33 55  1  0
 33 56  1  0
 33 57  1  0
 34 58  1  0
M  CHG  4   6  -1   9  -1  15  -1  21  -1
M  END
>  <UniqueID>  (45) 
35

>  <SMILES>  (45) 
COCCC[N-]C(=O)[N-]c1cc(C(=O)[O-])oc1OCC[N-]C(=O)Cc1cnc(OC)c(OC)c1

>  <Energy>  (45) 
71.94502140440186

>  <Genealogy>  (45) 
COCCC[N-]C(=O)[N-]c1cc(C(=O)[O-])oc1OCC[N-]C(=O)Cc1cnc(OC)c(OC)c1 (protonated)
COCCC[N-]C(=O)[N-]c1cc(C(=O)[O-])oc1OCC[N-]C(=O)Cc1cnc(OC)c(OC)c1 (3D coordinates assigned)
COCCC[N-]C(=O)[N-]c1cc(C(=O)[O-])oc1OCC[N-]C(=O)Cc1cnc(OC)c(OC)c1 (optimized conformer: 71.94502140440186 kcal/mol)

>  <smiles>  (45) 
COCCCNC(=O)Nc1cc(C(=O)O)oc1OCCNC(=O)Cc1cnc(OC)c(OC)c1

>  <score_type>  (45) 
oracle

>  <origin>  (45) 
adg

>  <m_score__min__energy>  (45) 
-13.15

>  <m_primary>  (45) 
energy

$$$$
45:0
     RDKit          3D

 44 46  0  0  0  0  0  0  0  0999 V2000
   59.5690   33.3380   48.8950 C   0  0  0  0  0  0  0  0  0  0  0  0
   60.9470   33.5210   48.3210 C   0  0  0  0  0  0  0  0  0  0  0  0
   62.0360   33.7200   49.1870 C   0  0  0  0  0  0  0  0  0  0  0  0
   63.3250   33.8920   48.6770 C   0  0  0  0  0  0  0  0  0  0  0  0
   63.5390   33.8790   47.3000 C   0  0  0  0  0  0  0  0  0  0  0  0
   62.4660   33.6920   46.4260 C   0  0  0  0  0  0  0  0  0  0  0  0
   61.1640   33.5050   46.9220 C   0  0  0  0  0  0  0  0  0  0  0  0
   60.0590   33.3490   46.0120 N   0  0  0  0  0  0  0  0  0  0  0  0
   58.9440   34.2530   45.9670 C   0  0  0  0  0  0  0  0  0  0  0  0
   58.9670   35.3220   46.6350 O   0  0  0  0  0  0  0  0  0  0  0  0
   57.7660   33.9400   45.1310 C   0  0  0  0  0  0  0  0  0  0  0  0
   56.7210   34.6320   45.2520 O   0  0  0  0  0  0  0  0  0  0  0  0
   57.8020   32.9130   44.1300 N   0  0  0  0  0  0  0  0  0  0  0  0
   57.8090   31.5010   44.3770 C   0  0  0  0  0  0  0  0  0  0  0  0
   58.4470   31.0140   45.5240 C   0  0  0  0  0  0  0  0  0  0  0  0
   58.4730   29.6410   45.7880 C   0  0  0  0  0  0  0  0  0  0  0  0
   57.8740   28.7400   44.8980 C   0  0  0  0  0  0  0  0  0  0  0  0
   57.8710   27.0130   45.2410 S   0  0  0  0  0  0  0  0  0  0  0  0
   57.5710   26.2630   43.9740 O   0  0  0  0  0  0  0  0  0  0  0  0
   59.2110   26.5780   45.7660 O   0  0  0  0  0  0  0  0  0  0  0  0
   56.6570   26.6420   46.4240 N   0  0  0  0  0  0  0  0  0  0  0  0
   55.9000   25.5890   46.3760 C   0  0  0  0  0  0  0  0  0  0  0  0
   54.7700   25.6120   45.6200 N   0  0  0  0  0  0  0  0  0  0  0  0
   53.9480   24.5330   45.5540 C   0  0  0  0  0  0  0  0  0  0  0  0
   54.2600   23.3770   46.2690 C   0  0  0  0  0  0  0  0  0  0  0  0
   55.4220   23.3650   47.0390 C   0  0  0  0  0  0  0  0  0  0  0  0
   56.2180   24.4650   47.0780 N   0  0  0  0  0  0  0  0  0  0  0  0
   57.2720   29.2200   43.7270 C   0  0  0  0  0  0  0  0  0  0  0  0
   57.2430   30.5920   43.4650 C   0  0  0  0  0  0  0  0  0  0  0  0
   59.6254   33.3455   49.9935 H   0  0  0  0  0  0  0  0  0  0  0  0
   58.9186   34.1577   48.5557 H   0  0  0  0  0  0  0  0  0  0  0  0
   59.1551   32.3770   48.5557 H   0  0  0  0  0  0  0  0  0  0  0  0
   61.8720   33.7405   50.2745 H   0  0  0  0  0  0  0  0  0  0  0  0
   64.1723   34.0379   49.3632 H   0  0  0  0  0  0  0  0  0  0  0  0
   64.5548   34.0163   46.9009 H   0  0  0  0  0  0  0  0  0  0  0  0
   62.6411   33.6910   45.3400 H   0  0  0  0  0  0  0  0  0  0  0  0
   60.1090   32.5920   45.2940 H   0  0  0  0  0  0  0  0  0  0  0  0
   58.9301   31.7147   46.2209 H   0  0  0  0  0  0  0  0  0  0  0  0
   58.9655   29.2671   46.6977 H   0  0  0  0  0  0  0  0  0  0  0  0
   53.0377   24.5708   44.9376 H   0  0  0  0  0  0  0  0  0  0  0  0
   53.6042   22.4949   46.2263 H   0  0  0  0  0  0  0  0  0  0  0  0
   55.6936   22.4671   47.6135 H   0  0  0  0  0  0  0  0  0  0  0  0
   56.8214   28.5151   43.0128 H   0  0  0  0  0  0  0  0  0  0  0  0
   56.7753   30.9631   42.5411 H   0  0  0  0  0  0  0  0  0  0  0  0
  1  2  1  0
  2  3  2  0
  3  4  1  0
  4  5  2  0
  5  6  1  0
  6  7  2  0
  7  8  1  0
  8  9  1  0
  9 10  2  0
  9 11  1  0
 11 12  2  0
 11 13  1  0
 13 14  1  0
 14 15  2  0
 15 16  1  0
 16 17  2  0
 17 18  1  0
 18 19  2  0
 18 20  2  0
 18 21  1  0
 21 22  2  3
 22 23  1  0
 23 24  2  0
 24 25  1  0
 25 26  2  0
 26 27  1  0
 17 28  1  0
 28 29  2  0
  7  2  1  0
 29 14  1  0
 27 22  1  0
  1 30  1  0
  1 31  1  0
  1 32  1  0
  3 33  1  0
  4 34  1  0
  5 35  1  0
  6 36  1  0
  8 37  1  0
 15 38  1  0
 16 39  1  0
 24 40  1  0
 25 41  1  0
 26 42  1  0
 28 43  1  0
 29 44  1  0
M  CHG  2  13  -1  27  -1
M  END
>  <UniqueID>  (46) 
36

>  <SMILES>  (46) 
Cc1ccccc1NC(=O)C(=O)[N-]c1ccc(S(=O)(=O)N=c2nccc[n-]2)cc1

>  <Energy>  (46) 
59.49719638258859

>  <Genealogy>  (46) 
Cc1ccccc1NC(=O)C(=O)[N-]c1ccc(S(=O)(=O)N=c2nccc[n-]2)cc1 (protonated)
Cc1ccccc1NC(=O)C(=O)[N-]c1ccc(S(=O)(=O)N=c2nccc[n-]2)cc1 (3D coordinates assigned)
Cc1ccccc1NC(=O)C(=O)[N-]c1ccc(S(=O)(=O)N=c2nccc[n-]2)cc1 (optimized conformer: 59.49719638258859 kcal/mol)

>  <smiles>  (46) 
Cc1ccccc1NC(=O)C(=O)Nc1ccc(S(=O)(=O)N=c2nccc[nH]2)cc1

>  <score_type>  (46) 
oracle

>  <origin>  (46) 
adg

>  <m_score__min__energy>  (46) 
-11.1

>  <m_primary>  (46) 
energy

$$$$
46:0
     RDKit          3D

 52 55  0  0  0  0  0  0  0  0999 V2000
   59.2080   31.3600   49.4570 O   0  0  0  0  0  0  0  0  0  0  0  0
   59.5260   30.2730   48.9020 C   0  0  0  0  0  0  0  0  0  0  0  0
   58.5180   29.5550   48.0540 C   0  0  0  0  0  0  0  0  0  0  0  0
   59.0890   29.2290   46.7410 N   0  0  0  0  0  0  0  0  0  0  0  0
   59.6060   28.0400   46.3420 C   0  0  0  0  0  0  0  0  0  0  0  0
   59.6730   26.8090   47.1640 C   0  0  0  0  0  0  0  0  0  0  0  0
   60.4760   26.7590   48.1340 O   0  0  0  0  0  0  0  0  0  0  0  0
   58.8490   25.6150   46.8540 C   0  0  0  0  0  0  0  0  0  0  0  0
   59.2920   24.6480   45.9310 C   0  0  0  0  0  0  0  0  0  0  0  0
   58.4970   23.5350   45.6380 C   0  0  0  0  0  0  0  0  0  0  0  0
   57.2520   23.3800   46.2530 C   0  0  0  0  0  0  0  0  0  0  0  0
   56.7970   24.3410   47.1590 C   0  0  0  0  0  0  0  0  0  0  0  0
   57.5870   25.4560   47.4550 C   0  0  0  0  0  0  0  0  0  0  0  0
   60.1280   28.1560   45.0640 C   0  0  0  0  0  0  0  0  0  0  0  0
   59.9270   29.4620   44.6690 C   0  0  0  0  0  0  0  0  0  0  0  0
   59.2840   30.0910   45.7160 C   0  0  0  0  0  0  0  0  0  0  0  0
   58.8960   31.5130   45.7150 C   0  0  0  0  0  0  0  0  0  0  0  0
   59.7040   32.4440   46.3860 C   0  0  0  0  0  0  0  0  0  0  0  0
   59.3550   33.7970   46.4020 C   0  0  0  0  0  0  0  0  0  0  0  0
   58.2030   34.2310   45.7430 C   0  0  0  0  0  0  0  0  0  0  0  0
   57.4010   33.3140   45.0590 C   0  0  0  0  0  0  0  0  0  0  0  0
   57.7430   31.9560   45.0370 C   0  0  0  0  0  0  0  0  0  0  0  0
   56.7300   30.8430   44.1230 Cl  0  0  0  0  0  0  0  0  0  0  0  0
   60.8330   29.7190   49.0990 N   0  0  0  0  0  0  0  0  0  0  0  0
   61.8670   30.4480   49.8330 C   0  0  0  0  0  0  0  0  0  0  0  0
   62.3200   31.6510   49.0510 C   0  0  0  0  0  0  0  0  0  0  0  0
   62.8620   31.4910   47.7640 C   0  0  0  0  0  0  0  0  0  0  0  0
   63.3200   32.6030   47.0510 C   0  0  0  0  0  0  0  0  0  0  0  0
   63.2510   33.8780   47.6210 C   0  0  0  0  0  0  0  0  0  0  0  0
   62.7290   34.0420   48.9060 C   0  0  0  0  0  0  0  0  0  0  0  0
   62.2690   32.9320   49.6240 C   0  0  0  0  0  0  0  0  0  0  0  0
   58.2170   28.6252   48.5588 H   0  0  0  0  0  0  0  0  0  0  0  0
   57.6447   30.2082   47.9098 H   0  0  0  0  0  0  0  0  0  0  0  0
   60.2680   24.7685   45.4381 H   0  0  0  0  0  0  0  0  0  0  0  0
   58.8529   22.7799   44.9216 H   0  0  0  0  0  0  0  0  0  0  0  0
   56.6305   22.5018   46.0239 H   0  0  0  0  0  0  0  0  0  0  0  0
   55.8154   24.2203   47.6405 H   0  0  0  0  0  0  0  0  0  0  0  0
   57.2193   26.2139   48.1624 H   0  0  0  0  0  0  0  0  0  0  0  0
   60.6099   27.3599   44.4774 H   0  0  0  0  0  0  0  0  0  0  0  0
   60.2209   29.9130   43.7097 H   0  0  0  0  0  0  0  0  0  0  0  0
   60.6156   32.1073   46.9013 H   0  0  0  0  0  0  0  0  0  0  0  0
   59.9888   34.5213   46.9346 H   0  0  0  0  0  0  0  0  0  0  0  0
   57.9267   35.2956   45.7624 H   0  0  0  0  0  0  0  0  0  0  0  0
   56.4974   33.6599   44.5357 H   0  0  0  0  0  0  0  0  0  0  0  0
   61.0510   28.7830   48.6870 H   0  0  0  0  0  0  0  0  0  0  0  0
   61.4600   30.7774   50.8004 H   0  0  0  0  0  0  0  0  0  0  0  0
   62.7279   29.7816   49.9907 H   0  0  0  0  0  0  0  0  0  0  0  0
   62.9260   30.4881   47.3166 H   0  0  0  0  0  0  0  0  0  0  0  0
   63.7351   32.4748   46.0404 H   0  0  0  0  0  0  0  0  0  0  0  0
   63.6080   34.7523   47.0570 H   0  0  0  0  0  0  0  0  0  0  0  0
   62.6793   35.0452   49.3546 H   0  0  0  0  0  0  0  0  0  0  0  0
   61.8667   33.0634   50.6393 H   0  0  0  0  0  0  0  0  0  0  0  0
  1  2  2  0
  2  3  1  0
  3  4  1  0
  4  5  1  0
  5  6  1  0
  6  7  2  0
  6  8  1  0
  8  9  2  0
  9 10  1  0
 10 11  2  0
 11 12  1  0
 12 13  2  0
  5 14  2  0
 14 15  1  0
 15 16  2  0
 16 17  1  0
 17 18  2  0
 18 19  1  0
 19 20  2  0
 20 21  1  0
 21 22  2  0
 22 23  1  0
  2 24  1  0
 24 25  1  0
 25 26  1  0
 26 27  2  0
 27 28  1  0
 28 29  2  0
 29 30  1  0
 30 31  2  0
 16  4  1  0
 22 17  1  0
 31 26  1  0
 13  8  1  0
  3 32  1  0
  3 33  1  0
  9 34  1  0
 10 35  1  0
 11 36  1  0
 12 37  1  0
 13 38  1  0
 14 39  1  0
 15 40  1  0
 18 41  1  0
 19 42  1  0
 20 43  1  0
 21 44  1  0
 24 45  1  0
 25 46  1  0
 25 47  1  0
 27 48  1  0
 28 49  1  0
 29 50  1  0
 30 51  1  0
 31 52  1  0
M  END
>  <UniqueID>  (47) 
37

>  <SMILES>  (47) 
O=C(Cn1c(C(=O)c2ccccc2)ccc1-c1ccccc1Cl)NCc1ccccc1

>  <Energy>  (47) 
91.92631640769838

>  <Genealogy>  (47) 
O=C(Cn1c(C(=O)c2ccccc2)ccc1-c1ccccc1Cl)NCc1ccccc1 (3D coordinates assigned)
O=C(Cn1c(C(=O)c2ccccc2)ccc1-c1ccccc1Cl)NCc1ccccc1 (optimized conformer: 91.92631640769838 kcal/mol)

>  <smiles>  (47) 
O=C(Cn1c(C(=O)c2ccccc2)ccc1-c1ccccc1Cl)NCc1ccccc1

>  <score_type>  (47) 
oracle

>  <origin>  (47) 
adg

>  <m_score__min__energy>  (47) 
-9.3599999999999994

>  <m_primary>  (47) 
energy

$$$$
47:0
     RDKit          3D

 37 39  0  0  0  0  0  0  0  0999 V2000
   55.3550   30.4620   44.5060 O   0  0  0  0  0  0  0  0  0  0  0  0
   56.2880   29.6440   44.3700 N   0  0  0  0  0  0  0  0  0  0  0  0
   57.4200   29.5570   45.2550 C   0  0  0  0  0  0  0  0  0  0  0  0
   58.2910   30.6630   45.3500 C   0  0  0  0  0  0  0  0  0  0  0  0
   58.0480   31.9320   44.5780 C   0  0  0  0  0  0  0  0  0  0  0  0
   58.4840   33.1270   45.3830 C   0  0  0  0  0  0  0  0  0  0  0  0
   58.1990   33.2050   46.7570 C   0  0  0  0  0  0  0  0  0  0  0  0
   58.6320   34.3050   47.5040 C   0  0  0  0  0  0  0  0  0  0  0  0
   59.3560   35.3300   46.8880 C   0  0  0  0  0  0  0  0  0  0  0  0
   59.6490   35.2560   45.5240 C   0  0  0  0  0  0  0  0  0  0  0  0
   59.2180   34.1580   44.7720 C   0  0  0  0  0  0  0  0  0  0  0  0
   59.3550   30.6160   46.1940 N   0  0  0  0  0  0  0  0  0  0  0  0
   59.6150   29.5190   46.9500 C   0  0  0  0  0  0  0  0  0  0  0  0
   60.7710   29.4890   47.7980 N   0  0  0  0  0  0  0  0  0  0  0  0
   61.2490   30.8340   47.9930 C   0  0  0  0  0  0  0  0  0  0  0  0
   60.6540   31.6690   48.9570 C   0  0  0  0  0  0  0  0  0  0  0  0
   61.0980   32.9840   49.1220 C   0  0  0  0  0  0  0  0  0  0  0  0
   62.1330   33.4800   48.3240 C   0  0  0  0  0  0  0  0  0  0  0  0
   62.7230   32.6630   47.3560 C   0  0  0  0  0  0  0  0  0  0  0  0
   62.2820   31.3460   47.1870 C   0  0  0  0  0  0  0  0  0  0  0  0
   58.8070   28.4330   46.8580 N   0  0  0  0  0  0  0  0  0  0  0  0
   57.7210   28.4160   46.0440 C   0  0  0  0  0  0  0  0  0  0  0  0
   56.8210   27.0460   46.0170 S   0  0  0  0  0  0  0  0  0  0  0  0
   58.6192   31.8998   43.6385 H   0  0  0  0  0  0  0  0  0  0  0  0
   56.9726   32.0191   44.3635 H   0  0  0  0  0  0  0  0  0  0  0  0
   57.6336   32.3983   47.2463 H   0  0  0  0  0  0  0  0  0  0  0  0
   58.4025   34.3638   48.5782 H   0  0  0  0  0  0  0  0  0  0  0  0
   59.6950   36.1948   47.4772 H   0  0  0  0  0  0  0  0  0  0  0  0
   60.2196   36.0626   45.0405 H   0  0  0  0  0  0  0  0  0  0  0  0
   59.4543   34.1014   43.6992 H   0  0  0  0  0  0  0  0  0  0  0  0
   60.5220   29.0550   48.7170 H   0  0  0  0  0  0  0  0  0  0  0  0
   61.5150   28.8990   47.3590 H   0  0  0  0  0  0  0  0  0  0  0  0
   59.8356   31.2849   49.5836 H   0  0  0  0  0  0  0  0  0  0  0  0
   60.6322   33.6297   49.8811 H   0  0  0  0  0  0  0  0  0  0  0  0
   62.4832   34.5141   48.4581 H   0  0  0  0  0  0  0  0  0  0  0  0
   63.5349   33.0557   46.7263 H   0  0  0  0  0  0  0  0  0  0  0  0
   62.7453   30.7078   46.4201 H   0  0  0  0  0  0  0  0  0  0  0  0
  1  2  2  0
  2  3  1  0
  3  4  2  0
  4  5  1  0
  5  6  1  0
  6  7  2  0
  7  8  1  0
  8  9  2  0
  9 10  1  0
 10 11  2  0
  4 12  1  0
 12 13  1  0
 13 14  1  0
 14 15  1  0
 15 16  2  0
 16 17  1  0
 17 18  2  0
 18 19  1  0
 19 20  2  0
 13 21  2  0
 21 22  1  0
 22 23  2  0
 22  3  1  0
 11  6  1  0
 20 15  1  0
  5 24  1  0
  5 25  1  0
  7 26  1  0
  8 27  1  0
  9 28  1  0
 10 29  1  0
 11 30  1  0
 14 31  1  0
 14 32  1  0
 16 33  1  0
 17 34  1  0
 18 35  1  0
 19 36  1  0
 20 37  1  0
M  CHG  2  12  -1  14   1
M  END
>  <UniqueID>  (48) 
38

>  <SMILES>  (48) 
O=Nc1c(Cc2ccccc2)[n-]c([NH2+]c2ccccc2)nc1=S

>  <Energy>  (48) 
46.01542119349107

>  <Genealogy>  (48) 
O=Nc1c(Cc2ccccc2)[n-]c([NH2+]c2ccccc2)nc1=S (protonated)
O=Nc1c(Cc2ccccc2)[n-]c([NH2+]c2ccccc2)nc1=S (3D coordinates assigned)
O=Nc1c(Cc2ccccc2)[n-]c([NH2+]c2ccccc2)nc1=S (optimized conformer: 46.01542119349107 kcal/mol)

>  <smiles>  (48) 
O=Nc1c(Cc2ccccc2)[nH]c(Nc2ccccc2)nc1=S

>  <score_type>  (48) 
oracle

>  <origin>  (48) 
adg

>  <m_score__min__energy>  (48) 
-7.5099999999999998

>  <m_primary>  (48) 
energy

$$$$
48:0
     RDKit          3D

 40 42  0  0  0  0  0  0  0  0999 V2000
   58.6910   24.0130   44.9200 O   0  0  0  0  0  0  0  0  0  0  0  0
   57.8130   24.5620   45.6380 C   0  0  0  0  0  0  0  0  0  0  0  0
   58.2360   25.4630   46.6700 N   0  0  0  0  0  0  0  0  0  0  0  0
   58.3770   26.8870   46.5460 C   0  0  0  0  0  0  0  0  0  0  0  0
   59.3170   27.6050   47.3050 C   0  0  0  0  0  0  0  0  0  0  0  0
   59.4140   28.9920   47.1710 C   0  0  0  0  0  0  0  0  0  0  0  0
   58.5710   29.6740   46.2900 C   0  0  0  0  0  0  0  0  0  0  0  0
   57.6190   28.9690   45.5420 C   0  0  0  0  0  0  0  0  0  0  0  0
   56.5440   29.8340   44.4490 S   0  0  0  0  0  0  0  0  0  0  0  0
   55.1560   29.2720   44.5770 O   0  0  0  0  0  0  0  0  0  0  0  0
   57.0240   29.6710   43.0330 O   0  0  0  0  0  0  0  0  0  0  0  0
   56.5470   31.5210   44.8610 N   0  0  0  0  0  0  0  0  0  0  0  0
   57.7070   32.1750   44.2620 C   0  0  0  0  0  0  0  0  0  0  0  0
   58.2980   33.1340   45.2540 C   0  0  0  0  0  0  0  0  0  0  0  0
   58.1430   32.9140   46.6330 C   0  0  0  0  0  0  0  0  0  0  0  0
   58.7250   33.7890   47.5550 C   0  0  0  0  0  0  0  0  0  0  0  0
   59.4750   34.8820   47.1090 C   0  0  0  0  0  0  0  0  0  0  0  0
   59.6480   35.0970   45.7390 C   0  0  0  0  0  0  0  0  0  0  0  0
   59.0670   34.2250   44.8120 C   0  0  0  0  0  0  0  0  0  0  0  0
   57.5180   27.5780   45.6830 C   0  0  0  0  0  0  0  0  0  0  0  0
   56.3860   24.2300   45.4140 C   0  0  0  0  0  0  0  0  0  0  0  0
   56.0410   23.1060   44.6480 C   0  0  0  0  0  0  0  0  0  0  0  0
   54.7360   22.8020   44.4310 N   0  0  0  0  0  0  0  0  0  0  0  0
   53.7440   23.5640   44.9550 C   0  0  0  0  0  0  0  0  0  0  0  0
   52.5410   23.2670   44.7380 O   0  0  0  0  0  0  0  0  0  0  0  0
   54.0470   24.6440   45.7190 N   0  0  0  0  0  0  0  0  0  0  0  0
   55.3380   24.9900   45.9660 C   0  0  0  0  0  0  0  0  0  0  0  0
   55.5770   25.9790   46.7090 O   0  0  0  0  0  0  0  0  0  0  0  0
   59.9776   27.0737   48.0059 H   0  0  0  0  0  0  0  0  0  0  0  0
   60.1566   29.5491   47.7611 H   0  0  0  0  0  0  0  0  0  0  0  0
   58.6548   30.7656   46.1835 H   0  0  0  0  0  0  0  0  0  0  0  0
   58.4571   31.4177   43.9902 H   0  0  0  0  0  0  0  0  0  0  0  0
   57.3986   32.7207   43.3581 H   0  0  0  0  0  0  0  0  0  0  0  0
   57.5618   32.0504   46.9884 H   0  0  0  0  0  0  0  0  0  0  0  0
   58.5928   33.6175   48.6335 H   0  0  0  0  0  0  0  0  0  0  0  0
   59.9284   35.5719   47.8360 H   0  0  0  0  0  0  0  0  0  0  0  0
   60.2423   35.9538   45.3887 H   0  0  0  0  0  0  0  0  0  0  0  0
   59.2122   34.3933   43.7347 H   0  0  0  0  0  0  0  0  0  0  0  0
   56.7581   27.0252   45.1113 H   0  0  0  0  0  0  0  0  0  0  0  0
   56.8305   22.4693   44.2221 H   0  0  0  0  0  0  0  0  0  0  0  0
  1  2  2  0
  2  3  1  0
  3  4  1  0
  4  5  2  0
  5  6  1  0
  6  7  2  0
  7  8  1  0
  8  9  1  0
  9 10  2  0
  9 11  2  0
  9 12  1  0
 12 13  1  0
 13 14  1  0
 14 15  2  0
 15 16  1  0
 16 17  2  0
 17 18  1  0
 18 19  2  0
  8 20  2  0
  2 21  1  0
 21 22  2  0
 22 23  1  0
 23 24  1  0
 24 25  2  0
 24 26  1  0
 26 27  1  0
 27 28  2  0
 20  4  1  0
 27 21  1  0
 19 14  1  0
  5 29  1  0
  6 30  1  0
  7 31  1  0
 13 32  1  0
 13 33  1  0
 15 34  1  0
 16 35  1  0
 17 36  1  0
 18 37  1  0
 19 38  1  0
 20 39  1  0
 22 40  1  0
M  CHG  4   3  -1  12  -1  23  -1  26  -1
M  END
>  <UniqueID>  (49) 
39

>  <SMILES>  (49) 
O=C([N-]c1cccc(S(=O)(=O)[N-]Cc2ccccc2)c1)c1c[n-]c(=O)[n-]c1=O

>  <Energy>  (49) 
51.1056463513927

>  <Genealogy>  (49) 
O=C([N-]c1cccc(S(=O)(=O)[N-]Cc2ccccc2)c1)c1c[n-]c(=O)[n-]c1=O (protonated)
O=C([N-]c1cccc(S(=O)(=O)[N-]Cc2ccccc2)c1)c1c[n-]c(=O)[n-]c1=O (3D coordinates assigned)
O=C([N-]c1cccc(S(=O)(=O)[N-]Cc2ccccc2)c1)c1c[n-]c(=O)[n-]c1=O (optimized conformer: 51.1056463513927 kcal/mol)

>  <smiles>  (49) 
O=C(Nc1cccc(S(=O)(=O)NCc2ccccc2)c1)c1c[nH]c(=O)[nH]c1=O

>  <score_type>  (49) 
oracle

>  <origin>  (49) 
adg

>  <m_score__min__energy>  (49) 
-16.289999999999999

>  <m_primary>  (49) 
energy

$$$$
49:0
     RDKit          3D

 59 62  0  0  0  0  0  0  0  0999 V2000
   60.8600   28.9680   44.8490 C   0  0  0  0  0  0  0  0  0  0  0  0
   59.3550   29.0800   44.8750 C   0  0  0  0  0  0  0  0  0  0  0  0
   58.7570   30.3140   44.5530 C   0  0  0  0  0  0  0  0  0  0  0  0
   57.3660   30.4480   44.5350 C   0  0  0  0  0  0  0  0  0  0  0  0
   56.5540   29.3530   44.8300 C   0  0  0  0  0  0  0  0  0  0  0  0
   57.1290   28.1170   45.1470 C   0  0  0  0  0  0  0  0  0  0  0  0
   58.5280   27.9620   45.1720 C   0  0  0  0  0  0  0  0  0  0  0  0
   59.1100   26.6260   45.5840 C   0  0  0  0  0  0  0  0  0  0  0  0
   59.0670   26.4860   47.0390 N   0  0  0  0  0  0  0  0  0  0  0  0
   59.1090   27.5970   47.9400 C   0  0  0  0  0  0  0  0  0  0  0  0
   58.1350   28.3970   48.0040 O   0  0  0  0  0  0  0  0  0  0  0  0
   60.3600   27.8560   48.7260 C   0  0  0  0  0  0  0  0  0  0  0  0
   60.5380   29.3220   49.0270 C   0  0  0  0  0  0  0  0  0  0  0  0
   60.6030   29.7870   50.3490 C   0  0  0  0  0  0  0  0  0  0  0  0
   60.7540   31.1150   50.5990 N   0  0  0  0  0  0  0  0  0  0  0  0
   60.8110   32.0400   49.6010 C   0  0  0  0  0  0  0  0  0  0  0  0
   61.0150   33.7720   50.0470 S   0  0  0  0  0  0  0  0  0  0  0  0
   62.7890   33.6170   50.2420 C   0  0  0  0  0  0  0  0  0  0  0  0
   63.4030   34.0390   51.4280 C   0  0  0  0  0  0  0  0  0  0  0  0
   64.7900   33.9270   51.5810 C   0  0  0  0  0  0  0  0  0  0  0  0
   65.5670   33.3920   50.5450 C   0  0  0  0  0  0  0  0  0  0  0  0
   67.3130   33.2630   50.7280 Cl  0  0  0  0  0  0  0  0  0  0  0  0
   64.9510   32.9530   49.3660 C   0  0  0  0  0  0  0  0  0  0  0  0
   63.5620   33.0550   49.2190 C   0  0  0  0  0  0  0  0  0  0  0  0
   60.7040   31.6260   48.2590 C   0  0  0  0  0  0  0  0  0  0  0  0
   60.7460   32.5930   47.1450 C   0  0  0  0  0  0  0  0  0  0  0  0
   61.8820   32.9290   46.7000 O   0  0  0  0  0  0  0  0  0  0  0  0
   59.5400   33.1680   46.5720 N   0  0  0  0  0  0  0  0  0  0  0  0
   58.2200   32.9070   47.1800 C   0  0  0  0  0  0  0  0  0  0  0  0
   57.0760   33.2970   46.2380 C   0  0  0  0  0  0  0  0  0  0  0  0
   57.2850   34.5860   45.7010 O   0  0  0  0  0  0  0  0  0  0  0  0
   58.4040   34.5490   44.8400 C   0  0  0  0  0  0  0  0  0  0  0  0
   59.6900   34.2910   45.6310 C   0  0  0  0  0  0  0  0  0  0  0  0
   60.6080   30.2540   47.9810 C   0  0  0  0  0  0  0  0  0  0  0  0
   61.2434   28.9395   45.8796 H   0  0  0  0  0  0  0  0  0  0  0  0
   61.1500   28.0458   44.3242 H   0  0  0  0  0  0  0  0  0  0  0  0
   61.2834   29.8371   44.3242 H   0  0  0  0  0  0  0  0  0  0  0  0
   59.3909   31.1805   44.3134 H   0  0  0  0  0  0  0  0  0  0  0  0
   56.9109   31.4185   44.2878 H   0  0  0  0  0  0  0  0  0  0  0  0
   55.4594   29.4611   44.8135 H   0  0  0  0  0  0  0  0  0  0  0  0
   56.4816   27.2585   45.3788 H   0  0  0  0  0  0  0  0  0  0  0  0
   58.5247   25.8166   45.1232 H   0  0  0  0  0  0  0  0  0  0  0  0
   60.1559   26.5700   45.2478 H   0  0  0  0  0  0  0  0  0  0  0  0
   60.3058   27.3017   49.6746 H   0  0  0  0  0  0  0  0  0  0  0  0
   61.2179   27.5240   48.1228 H   0  0  0  0  0  0  0  0  0  0  0  0
   60.5317   29.0758   51.1851 H   0  0  0  0  0  0  0  0  0  0  0  0
   62.7937   34.4596   52.2415 H   0  0  0  0  0  0  0  0  0  0  0  0
   65.2695   34.2587   52.5138 H   0  0  0  0  0  0  0  0  0  0  0  0
   65.5593   32.5274   48.5543 H   0  0  0  0  0  0  0  0  0  0  0  0
   63.0783   32.6935   48.2996 H   0  0  0  0  0  0  0  0  0  0  0  0
   58.1404   31.8349   47.4130 H   0  0  0  0  0  0  0  0  0  0  0  0
   58.1360   33.5156   48.0925 H   0  0  0  0  0  0  0  0  0  0  0  0
   57.0218   32.5684   45.4157 H   0  0  0  0  0  0  0  0  0  0  0  0
   56.1357   33.3014   46.8088 H   0  0  0  0  0  0  0  0  0  0  0  0
   58.2659   33.7438   44.1034 H   0  0  0  0  0  0  0  0  0  0  0  0
   58.4910   35.5211   44.3325 H   0  0  0  0  0  0  0  0  0  0  0  0
   60.5009   34.0577   44.9252 H   0  0  0  0  0  0  0  0  0  0  0  0
   59.9192   35.1955   46.2135 H   0  0  0  0  0  0  0  0  0  0  0  0
   60.5875   29.9074   46.9372 H   0  0  0  0  0  0  0  0  0  0  0  0
  1  2  1  0
  2  3  2  0
  3  4  1  0
  4  5  2  0
  5  6  1  0
  6  7  2  0
  7  8  1  0
  8  9  1  0
  9 10  1  0
 10 11  2  0
 10 12  1  0
 12 13  1  0
 13 14  2  0
 14 15  1  0
 15 16  2  0
 16 17  1  0
 17 18  1  0
 18 19  2  0
 19 20  1  0
 20 21  2  0
 21 22  1  0
 21 23  1  0
 23 24  2  0
 16 25  1  0
 25 26  1  0
 26 27  2  0
 26 28  1  0
 28 29  1  0
 29 30  1  0
 30 31  1  0
 31 32  1  0
 32 33  1  0
 25 34  2  0
  7  2  1  0
 34 13  1  0
 24 18  1  0
 33 28  1  0
  1 35  1  0
  1 36  1  0
  1 37  1  0
  3 38  1  0
  4 39  1  0
  5 40  1  0
  6 41  1  0
  8 42  1  0
  8 43  1  0
 12 44  1  0
 12 45  1  0
 14 46  1  0
 19 47  1  0
 20 48  1  0
 23 49  1  0
 24 50  1  0
 29 51  1  0
 29 52  1  0
 30 53  1  0
 30 54  1  0
 32 55  1  0
 32 56  1  0
 33 57  1  0
 33 58  1  0
 34 59  1  0
M  CHG  1   9  -1
M  END
>  <UniqueID>  (50) 
40

>  <SMILES>  (50) 
Cc1ccccc1C[N-]C(=O)Cc1cnc(Sc2ccc(Cl)cc2)c(C(=O)N2CCOCC2)c1

>  <Energy>  (50) 
64.8032755951961

>  <Genealogy>  (50) 
Cc1ccccc1C[N-]C(=O)Cc1cnc(Sc2ccc(Cl)cc2)c(C(=O)N2CCOCC2)c1 (protonated)
Cc1ccccc1C[N-]C(=O)Cc1cnc(Sc2ccc(Cl)cc2)c(C(=O)N2CCOCC2)c1 (3D coordinates assigned)
Cc1ccccc1C[N-]C(=O)Cc1cnc(Sc2ccc(Cl)cc2)c(C(=O)N2CCOCC2)c1 (nonaromatic ring conformer: 64.8032755951961 kcal/mol)

>  <smiles>  (50) 
Cc1ccccc1CNC(=O)Cc1cnc(Sc2ccc(Cl)cc2)c(C(=O)N2CCOCC2)c1

>  <score_type>  (50) 
oracle

>  <origin>  (50) 
adg

>  <m_score__min__energy>  (50) 
-10.98

>  <m_primary>  (50) 
energy

$$$$
50:0
     RDKit          3D

 39 41  0  0  0  0  0  0  0  0999 V2000
   53.0720   23.6970   45.9000 C   0  0  0  0  0  0  0  0  0  0  0  0
   54.5470   23.9640   45.7870 C   0  0  0  0  0  0  0  0  0  0  0  0
   55.4440   22.9010   45.6230 C   0  0  0  0  0  0  0  0  0  0  0  0
   56.8080   23.1660   45.5140 C   0  0  0  0  0  0  0  0  0  0  0  0
   57.2610   24.4450   45.5660 N   0  0  0  0  0  0  0  0  0  0  0  0
   56.4260   25.5100   45.7200 C   0  0  0  0  0  0  0  0  0  0  0  0
   57.0130   26.8720   45.7710 C   0  0  0  0  0  0  0  0  0  0  0  0
   58.1460   27.0550   46.2960 O   0  0  0  0  0  0  0  0  0  0  0  0
   56.2790   27.9940   45.2510 N   0  0  0  0  0  0  0  0  0  0  0  0
   56.8650   29.2790   44.9800 C   0  0  0  0  0  0  0  0  0  0  0  0
   57.7670   29.8330   45.9010 C   0  0  0  0  0  0  0  0  0  0  0  0
   58.3340   31.0890   45.6690 C   0  0  0  0  0  0  0  0  0  0  0  0
   58.0020   31.8200   44.5230 C   0  0  0  0  0  0  0  0  0  0  0  0
   58.6150   33.1000   44.3210 N   0  0  0  0  0  0  0  0  0  0  0  0
   58.5790   34.4140   45.4500 S   0  0  0  0  0  0  0  0  0  0  0  0
   57.1860   34.5610   45.9930 O   0  0  0  0  0  0  0  0  0  0  0  0
   58.9690   35.6840   44.7470 O   0  0  0  0  0  0  0  0  0  0  0  0
   59.6770   34.0900   46.7790 C   0  0  0  0  0  0  0  0  0  0  0  0
   59.3320   34.0280   48.1200 C   0  0  0  0  0  0  0  0  0  0  0  0
   60.4270   33.7700   48.9520 C   0  0  0  0  0  0  0  0  0  0  0  0
   61.6280   33.6310   48.2650 C   0  0  0  0  0  0  0  0  0  0  0  0
   61.3280   33.8300   46.6210 S   0  0  0  0  0  0  0  0  0  0  0  0
   57.0770   31.2790   43.6100 C   0  0  0  0  0  0  0  0  0  0  0  0
   56.5110   30.0220   43.8400 C   0  0  0  0  0  0  0  0  0  0  0  0
   55.0360   25.2810   45.8340 C   0  0  0  0  0  0  0  0  0  0  0  0
   54.1460   26.3410   45.9880 O   0  0  0  0  0  0  0  0  0  0  0  0
   52.7889   23.6458   46.9617 H   0  0  0  0  0  0  0  0  0  0  0  0
   52.5139   24.5087   45.4105 H   0  0  0  0  0  0  0  0  0  0  0  0
   52.8338   22.7411   45.4105 H   0  0  0  0  0  0  0  0  0  0  0  0
   55.0751   21.8656   45.5806 H   0  0  0  0  0  0  0  0  0  0  0  0
   57.5194   22.3369   45.3855 H   0  0  0  0  0  0  0  0  0  0  0  0
   55.2430   27.9040   45.1510 H   0  0  0  0  0  0  0  0  0  0  0  0
   58.0296   29.2749   46.8118 H   0  0  0  0  0  0  0  0  0  0  0  0
   59.0479   31.5069   46.3940 H   0  0  0  0  0  0  0  0  0  0  0  0
   58.3058   34.1669   48.4910 H   0  0  0  0  0  0  0  0  0  0  0  0
   60.3455   33.6852   50.0457 H   0  0  0  0  0  0  0  0  0  0  0  0
   62.6085   33.4257   48.7194 H   0  0  0  0  0  0  0  0  0  0  0  0
   56.7983   31.8485   42.7111 H   0  0  0  0  0  0  0  0  0  0  0  0
   55.7837   29.6112   43.1243 H   0  0  0  0  0  0  0  0  0  0  0  0
  1  2  1  0
  2  3  2  0
  3  4  1  0
  4  5  2  0
  5  6  1  0
  6  7  1  0
  7  8  2  0
  7  9  1  0
  9 10  1  0
 10 11  2  0
 11 12  1  0
 12 13  2  0
 13 14  1  0
 14 15  1  0
 15 16  2  0
 15 17  2  0
 15 18  1  0
 18 19  2  0
 19 20  1  0
 20 21  2  0
 21 22  1  0
 13 23  1  0
 23 24  2  0
  6 25  2  0
 25 26  1  0
 25  2  1  0
 24 10  1  0
 22 18  1  0
  1 27  1  0
  1 28  1  0
  1 29  1  0
  3 30  1  0
  4 31  1  0
  9 32  1  0
 11 33  1  0
 12 34  1  0
 19 35  1  0
 20 36  1  0
 21 37  1  0
 23 38  1  0
 24 39  1  0
M  CHG  2  14  -1  26  -1
M  END
>  <UniqueID>  (51) 
41

>  <SMILES>  (51) 
Cc1ccnc(C(=O)Nc2ccc([N-]S(=O)(=O)c3cccs3)cc2)c1[O-]

>  <Energy>  (51) 
76.67942041517128

>  <Genealogy>  (51) 
Cc1ccnc(C(=O)Nc2ccc([N-]S(=O)(=O)c3cccs3)cc2)c1[O-] (protonated)
Cc1ccnc(C(=O)Nc2ccc([N-]S(=O)(=O)c3cccs3)cc2)c1[O-] (3D coordinates assigned)
Cc1ccnc(C(=O)Nc2ccc([N-]S(=O)(=O)c3cccs3)cc2)c1[O-] (optimized conformer: 76.67942041517128 kcal/mol)

>  <smiles>  (51) 
Cc1ccnc(C(=O)Nc2ccc(NS(=O)(=O)c3cccs3)cc2)c1O

>  <score_type>  (51) 
oracle

>  <origin>  (51) 
adg

>  <m_score__min__energy>  (51) 
-13.01

>  <m_primary>  (51) 
energy

$$$$
51:0
     RDKit          3D

 52 55  0  0  0  0  0  0  0  0999 V2000
   56.8630   31.1310   52.2150 C   0  0  0  0  0  0  0  0  0  0  0  0
   58.3110   31.1720   52.6820 C   0  0  0  0  0  0  0  0  0  0  0  0
   59.1720   31.7470   51.6500 N   0  0  0  0  0  0  0  0  0  0  0  0
   59.2440   33.1570   51.4030 C   0  0  0  0  0  0  0  0  0  0  0  0
   58.5460   33.9640   52.0810 O   0  0  0  0  0  0  0  0  0  0  0  0
   60.1330   33.6860   50.3200 C   0  0  0  0  0  0  0  0  0  0  0  0
   59.4120   33.6790   48.9990 C   0  0  0  0  0  0  0  0  0  0  0  0
   59.7250   34.6240   48.0110 C   0  0  0  0  0  0  0  0  0  0  0  0
   59.0530   34.6070   46.7860 C   0  0  0  0  0  0  0  0  0  0  0  0
   58.0750   33.6290   46.5500 C   0  0  0  0  0  0  0  0  0  0  0  0
   57.3500   33.5730   45.2690 C   0  0  0  0  0  0  0  0  0  0  0  0
   57.3280   34.5890   44.5290 O   0  0  0  0  0  0  0  0  0  0  0  0
   56.6590   32.3780   44.8900 N   0  0  0  0  0  0  0  0  0  0  0  0
   57.2040   31.0710   44.6390 C   0  0  0  0  0  0  0  0  0  0  0  0
   56.5630   30.2550   43.7010 C   0  0  0  0  0  0  0  0  0  0  0  0
   57.0310   28.9650   43.4460 C   0  0  0  0  0  0  0  0  0  0  0  0
   58.1280   28.4610   44.1490 C   0  0  0  0  0  0  0  0  0  0  0  0
   58.5420   27.1950   43.8950 F   0  0  0  0  0  0  0  0  0  0  0  0
   58.7650   29.2500   45.1280 C   0  0  0  0  0  0  0  0  0  0  0  0
   59.9100   28.7100   45.9110 C   0  0  0  0  0  0  0  0  0  0  0  0
   60.6970   27.8800   45.3770 O   0  0  0  0  0  0  0  0  0  0  0  0
   60.1660   29.1160   47.3070 C   0  0  0  0  0  0  0  0  0  0  0  0
   59.5600   28.5730   48.4440 C   0  0  0  0  0  0  0  0  0  0  0  0
   60.0200   29.1770   49.5640 N   0  0  0  0  0  0  0  0  0  0  0  0
   60.8950   30.1050   49.1420 C   0  0  0  0  0  0  0  0  0  0  0  0
   61.5830   30.9670   49.9300 N   0  0  0  0  0  0  0  0  0  0  0  0
   62.4120   31.8830   49.3450 C   0  0  0  0  0  0  0  0  0  0  0  0
   62.5390   31.9430   47.9360 C   0  0  0  0  0  0  0  0  0  0  0  0
   63.5880   33.1380   47.1980 Cl  0  0  0  0  0  0  0  0  0  0  0  0
   61.8110   31.0520   47.1330 C   0  0  0  0  0  0  0  0  0  0  0  0
   61.0050   30.1130   47.7770 C   0  0  0  0  0  0  0  0  0  0  0  0
   58.3050   30.5640   45.3490 C   0  0  0  0  0  0  0  0  0  0  0  0
   57.7900   32.7190   47.5220 N   0  0  0  0  0  0  0  0  0  0  0  0
   58.4190   32.7270   48.7280 C   0  0  0  0  0  0  0  0  0  0  0  0
   56.1961   31.1121   53.0896 H   0  0  0  0  0  0  0  0  0  0  0  0
   56.6478   32.0234   51.6090 H   0  0  0  0  0  0  0  0  0  0  0  0
   56.6986   30.2278   51.6090 H   0  0  0  0  0  0  0  0  0  0  0  0
   58.3794   31.7859   53.5922 H   0  0  0  0  0  0  0  0  0  0  0  0
   58.6448   30.1443   52.8880 H   0  0  0  0  0  0  0  0  0  0  0  0
   59.7940   31.1060   51.1060 H   0  0  0  0  0  0  0  0  0  0  0  0
   60.4296   34.7164   50.5656 H   0  0  0  0  0  0  0  0  0  0  0  0
   61.0232   33.0443   50.2440 H   0  0  0  0  0  0  0  0  0  0  0  0
   60.5011   35.3801   48.2009 H   0  0  0  0  0  0  0  0  0  0  0  0
   59.2887   35.3538   46.0135 H   0  0  0  0  0  0  0  0  0  0  0  0
   55.6830   30.6330   43.1600 H   0  0  0  0  0  0  0  0  0  0  0  0
   56.5337   28.3422   42.6879 H   0  0  0  0  0  0  0  0  0  0  0  0
   58.8125   27.7662   48.4300 H   0  0  0  0  0  0  0  0  0  0  0  0
   59.7520   28.9650   50.5500 H   0  0  0  0  0  0  0  0  0  0  0  0
   62.9854   32.5796   49.9743 H   0  0  0  0  0  0  0  0  0  0  0  0
   61.8735   31.0924   46.0355 H   0  0  0  0  0  0  0  0  0  0  0  0
   58.8148   31.2007   46.0870 H   0  0  0  0  0  0  0  0  0  0  0  0
   58.1478   31.9844   49.4929 H   0  0  0  0  0  0  0  0  0  0  0  0
  1  2  1  0
  2  3  1  0
  3  4  1  0
  4  5  2  0
  4  6  1  0
  6  7  1  0
  7  8  2  0
  8  9  1  0
  9 10  2  0
 10 11  1  0
 11 12  2  0
 11 13  1  0
 13 14  1  0
 14 15  2  0
 15 16  1  0
 16 17  2  0
 17 18  1  0
 17 19  1  0
 19 20  1  0
 20 21  2  0
 20 22  1  0
 22 23  2  0
 23 24  1  0
 24 25  1  0
 25 26  2  0
 26 27  1  0
 27 28  2  0
 28 29  1  0
 28 30  1  0
 30 31  2  0
 19 32  2  0
 10 33  1  0
 33 34  2  0
 34  7  1  0
 32 14  1  0
 31 22  1  0
 31 25  1  0
  1 35  1  0
  1 36  1  0
  1 37  1  0
  2 38  1  0
  2 39  1  0
  3 40  1  0
  6 41  1  0
  6 42  1  0
  8 43  1  0
  9 44  1  0
 15 45  1  0
 16 46  1  0
 23 47  1  0
 24 48  1  0
 27 49  1  0
 30 50  1  0
 32 51  1  0
 34 52  1  0
M  CHG  1  13  -1
M  END
>  <UniqueID>  (52) 
42

>  <SMILES>  (52) 
CCNC(=O)Cc1ccc(C(=O)[N-]c2ccc(F)c(C(=O)c3c[nH]c4ncc(Cl)cc34)c2)nc1

>  <Energy>  (52) 
95.2429618762196

>  <Genealogy>  (52) 
CCNC(=O)Cc1ccc(C(=O)[N-]c2ccc(F)c(C(=O)c3c[nH]c4ncc(Cl)cc34)c2)nc1 (protonated)
CCNC(=O)Cc1ccc(C(=O)[N-]c2ccc(F)c(C(=O)c3c[nH]c4ncc(Cl)cc34)c2)nc1 (3D coordinates assigned)
CCNC(=O)Cc1ccc(C(=O)[N-]c2ccc(F)c(C(=O)c3c[nH]c4ncc(Cl)cc34)c2)nc1 (optimized conformer: 95.2429618762196 kcal/mol)

>  <smiles>  (52) 
CCNC(=O)Cc1ccc(C(=O)Nc2ccc(F)c(C(=O)c3c[nH]c4ncc(Cl)cc34)c2)nc1

>  <score_type>  (52) 
oracle

>  <origin>  (52) 
adg

>  <m_score__min__energy>  (52) 
-11.119999999999999

>  <m_primary>  (52) 
energy

$$$$
52:0
     RDKit          3D

 52 56  0  0  0  0  0  0  0  0999 V2000
   55.6340   30.4040   43.2390 O   0  0  0  0  0  0  0  0  0  0  0  0
   56.6800   30.6060   43.9110 C   0  0  0  0  0  0  0  0  0  0  0  0
   57.2660   31.9190   43.8650 N   0  0  0  0  0  0  0  0  0  0  0  0
   57.5640   32.8810   44.9330 C   0  0  0  0  0  0  0  0  0  0  0  0
   58.7350   33.8190   44.5760 C   0  0  0  0  0  0  0  0  0  0  0  0
   59.1130   34.6950   45.7690 C   0  0  0  0  0  0  0  0  0  0  0  0
   59.4300   33.8390   46.9280 N   0  0  0  0  0  0  0  0  0  0  0  0
   60.0490   34.6010   48.0320 C   0  0  0  0  0  0  0  0  0  0  0  0
   61.4160   34.0370   48.2900 C   0  0  0  0  0  0  0  0  0  0  0  0
   62.1560   33.4380   47.2380 C   0  0  0  0  0  0  0  0  0  0  0  0
   63.4590   32.9570   47.4670 C   0  0  0  0  0  0  0  0  0  0  0  0
   63.9920   33.1040   48.7450 C   0  0  0  0  0  0  0  0  0  0  0  0
   63.2950   33.6930   49.7520 C   0  0  0  0  0  0  0  0  0  0  0  0
   62.0050   34.1830   49.5680 C   0  0  0  0  0  0  0  0  0  0  0  0
   64.0700   33.7160   50.8970 O   0  0  0  0  0  0  0  0  0  0  0  0
   65.3290   33.0990   50.5930 C   0  0  0  0  0  0  0  0  0  0  0  0
   65.2390   32.7280   49.2090 O   0  0  0  0  0  0  0  0  0  0  0  0
   58.2230   33.1160   47.3740 C   0  0  0  0  0  0  0  0  0  0  0  0
   57.7420   32.1590   46.2800 C   0  0  0  0  0  0  0  0  0  0  0  0
   57.2790   29.4590   44.6270 C   0  0  0  0  0  0  0  0  0  0  0  0
   58.6680   29.4140   44.8140 C   0  0  0  0  0  0  0  0  0  0  0  0
   59.2420   28.3480   45.5100 C   0  0  0  0  0  0  0  0  0  0  0  0
   60.4920   28.3310   45.6910 O   0  0  0  0  0  0  0  0  0  0  0  0
   58.4270   27.3140   46.0040 C   0  0  0  0  0  0  0  0  0  0  0  0
   58.9630   26.2280   46.7210 C   0  0  0  0  0  0  0  0  0  0  0  0
   58.1260   25.2150   47.1880 C   0  0  0  0  0  0  0  0  0  0  0  0
   56.7510   25.2740   46.9540 C   0  0  0  0  0  0  0  0  0  0  0  0
   56.1950   26.3460   46.2480 C   0  0  0  0  0  0  0  0  0  0  0  0
   54.8160   26.3580   46.0370 O   0  0  0  0  0  0  0  0  0  0  0  0
   57.0290   27.3750   45.7670 C   0  0  0  0  0  0  0  0  0  0  0  0
   56.5070   28.4370   45.0910 N   0  0  0  0  0  0  0  0  0  0  0  0
   56.6960   33.5480   45.0409 H   0  0  0  0  0  0  0  0  0  0  0  0
   59.6055   33.2135   44.2833 H   0  0  0  0  0  0  0  0  0  0  0  0
   58.4241   34.4700   43.7457 H   0  0  0  0  0  0  0  0  0  0  0  0
   59.9920   35.3045   45.5122 H   0  0  0  0  0  0  0  0  0  0  0  0
   58.2696   35.3548   46.0208 H   0  0  0  0  0  0  0  0  0  0  0  0
   60.1317   35.6612   47.7508 H   0  0  0  0  0  0  0  0  0  0  0  0
   59.4307   34.5221   48.9384 H   0  0  0  0  0  0  0  0  0  0  0  0
   61.7086   33.3489   46.2370 H   0  0  0  0  0  0  0  0  0  0  0  0
   64.0376   32.4802   46.6621 H   0  0  0  0  0  0  0  0  0  0  0  0
   61.4604   34.6688   50.3910 H   0  0  0  0  0  0  0  0  0  0  0  0
   66.1547   33.8087   50.7497 H   0  0  0  0  0  0  0  0  0  0  0  0
   65.5302   32.2323   51.2398 H   0  0  0  0  0  0  0  0  0  0  0  0
   58.4592   32.5406   48.2813 H   0  0  0  0  0  0  0  0  0  0  0  0
   57.4273   33.8452   47.5866 H   0  0  0  0  0  0  0  0  0  0  0  0
   58.4825   31.3547   46.1586 H   0  0  0  0  0  0  0  0  0  0  0  0
   56.7661   31.7524   46.5837 H   0  0  0  0  0  0  0  0  0  0  0  0
   59.3043   30.2168   44.4132 H   0  0  0  0  0  0  0  0  0  0  0  0
   60.0449   26.1781   46.9135 H   0  0  0  0  0  0  0  0  0  0  0  0
   58.5511   24.3658   47.7431 H   0  0  0  0  0  0  0  0  0  0  0  0
   56.0992   24.4707   47.3280 H   0  0  0  0  0  0  0  0  0  0  0  0
   54.3970   26.7160   45.1900 H   0  0  0  0  0  0  0  0  0  0  0  0
  1  2  2  0
  2  3  1  0
  3  4  1  0
  4  5  1  0
  5  6  1  0
  6  7  1  0
  7  8  1  0
  8  9  1  0
  9 10  2  0
 10 11  1  0
 11 12  2  0
 12 13  1  0
 13 14  2  0
 13 15  1  0
 15 16  1  0
 16 17  1  0
  7 18  1  0
 18 19  1  0
  2 20  1  0
 20 21  2  0
 21 22  1  0
 22 23  2  0
 22 24  1  0
 24 25  2  0
 25 26  1  0
 26 27  2  0
 27 28  1  0
 28 29  1  0
 28 30  2  0
 30 31  1  0
 19  4  1  0
 31 20  1  0
 14  9  1  0
 30 24  1  0
 17 12  1  0
  4 32  1  0
  5 33  1  0
  5 34  1  0
  6 35  1  0
  6 36  1  0
  8 37  1  0
  8 38  1  0
 10 39  1  0
 11 40  1  0
 14 41  1  0
 16 42  1  0
 16 43  1  0
 18 44  1  0
 18 45  1  0
 19 46  1  0
 19 47  1  0
 21 48  1  0
 25 49  1  0
 26 50  1  0
 27 51  1  0
 29 52  1  0
M  CHG  2   3  -1  31  -1
M  END
>  <UniqueID>  (53) 
43

>  <SMILES>  (53) 
O=C([N-]C1CCN(Cc2ccc3c(c2)OCO3)CC1)c1cc(=O)c2cccc(O)c2[n-]1

>  <Energy>  (53) 
93.24694741704388

>  <Genealogy>  (53) 
O=C([N-]C1CCN(Cc2ccc3c(c2)OCO3)CC1)c1cc(=O)c2cccc(O)c2[n-]1 (protonated)
O=C([N-]C1CCN(Cc2ccc3c(c2)OCO3)CC1)c1cc(=O)c2cccc(O)c2[n-]1 (3D coordinates assigned)
O=C([N-]C1CCN(Cc2ccc3c(c2)OCO3)CC1)c1cc(=O)c2cccc(O)c2[n-]1 (nonaromatic ring conformer: 93.24694741704388 kcal/mol)

>  <smiles>  (53) 
O=C(NC1CCN(Cc2ccc3c(c2)OCO3)CC1)c1cc(=O)c2cccc(O)c2[nH]1

>  <score_type>  (53) 
oracle

>  <origin>  (53) 
adg

>  <m_score__min__energy>  (53) 
-14

>  <m_primary>  (53) 
energy

$$$$
53:0
     RDKit          3D

 44 47  0  0  0  0  0  0  0  0999 V2000
   53.5960   24.8650   45.5600 C   0  0  0  0  0  0  0  0  0  0  0  0
   54.8800   25.4430   45.7660 O   0  0  0  0  0  0  0  0  0  0  0  0
   56.0970   24.8160   45.4470 C   0  0  0  0  0  0  0  0  0  0  0  0
   56.1430   23.6260   44.6930 C   0  0  0  0  0  0  0  0  0  0  0  0
   57.3670   23.0180   44.4030 C   0  0  0  0  0  0  0  0  0  0  0  0
   58.5570   23.5860   44.8610 C   0  0  0  0  0  0  0  0  0  0  0  0
   58.5270   24.7660   45.6080 C   0  0  0  0  0  0  0  0  0  0  0  0
   57.3030   25.3930   45.8980 C   0  0  0  0  0  0  0  0  0  0  0  0
   57.2890   26.6530   46.7360 C   0  0  0  0  0  0  0  0  0  0  0  0
   57.1360   27.9400   45.9340 C   0  0  0  0  0  0  0  0  0  0  0  0
   55.9770   28.1950   45.2460 N   0  0  0  0  0  0  0  0  0  0  0  0
   55.8350   29.3090   44.4820 C   0  0  0  0  0  0  0  0  0  0  0  0
   54.7650   29.5090   43.8480 O   0  0  0  0  0  0  0  0  0  0  0  0
   56.8410   30.2070   44.3950 N   0  0  0  0  0  0  0  0  0  0  0  0
   57.9970   30.0390   45.0810 C   0  0  0  0  0  0  0  0  0  0  0  0
   58.9020   30.9090   44.9720 O   0  0  0  0  0  0  0  0  0  0  0  0
   58.1790   28.9080   45.9020 C   0  0  0  0  0  0  0  0  0  0  0  0
   59.4460   28.7960   46.7370 C   0  0  0  0  0  0  0  0  0  0  0  0
   59.3660   29.6760   47.9590 C   0  0  0  0  0  0  0  0  0  0  0  0
   60.1180   30.8790   48.0300 C   0  0  0  0  0  0  0  0  0  0  0  0
   60.0360   31.7090   49.1640 C   0  0  0  0  0  0  0  0  0  0  0  0
   59.2020   31.3100   50.2020 C   0  0  0  0  0  0  0  0  0  0  0  0
   58.4830   30.1620   50.1430 C   0  0  0  0  0  0  0  0  0  0  0  0
   58.5310   29.3150   49.0400 C   0  0  0  0  0  0  0  0  0  0  0  0
   57.7510   30.0160   51.3070 O   0  0  0  0  0  0  0  0  0  0  0  0
   58.0320   31.1430   52.1500 C   0  0  0  0  0  0  0  0  0  0  0  0
   58.9590   31.9460   51.4050 O   0  0  0  0  0  0  0  0  0  0  0  0
   53.1283   24.6545   46.5331 H   0  0  0  0  0  0  0  0  0  0  0  0
   52.9649   25.5659   44.9938 H   0  0  0  0  0  0  0  0  0  0  0  0
   53.7023   23.9279   44.9938 H   0  0  0  0  0  0  0  0  0  0  0  0
   55.2086   23.1728   44.3303 H   0  0  0  0  0  0  0  0  0  0  0  0
   57.3930   22.0901   43.8128 H   0  0  0  0  0  0  0  0  0  0  0  0
   59.5192   23.1040   44.6335 H   0  0  0  0  0  0  0  0  0  0  0  0
   59.4669   25.2071   45.9714 H   0  0  0  0  0  0  0  0  0  0  0  0
   56.4494   26.5865   47.4435 H   0  0  0  0  0  0  0  0  0  0  0  0
   58.2672   26.7087   47.2360 H   0  0  0  0  0  0  0  0  0  0  0  0
   55.1670   27.5390   45.2900 H   0  0  0  0  0  0  0  0  0  0  0  0
   59.5769   27.7508   47.0540 H   0  0  0  0  0  0  0  0  0  0  0  0
   60.2997   29.1222   46.1249 H   0  0  0  0  0  0  0  0  0  0  0  0
   60.7702   31.1645   47.1915 H   0  0  0  0  0  0  0  0  0  0  0  0
   60.6133   32.6432   49.2267 H   0  0  0  0  0  0  0  0  0  0  0  0
   57.9357   28.3905   49.0105 H   0  0  0  0  0  0  0  0  0  0  0  0
   57.1117   31.7085   52.3580 H   0  0  0  0  0  0  0  0  0  0  0  0
   58.4421   30.8369   53.1237 H   0  0  0  0  0  0  0  0  0  0  0  0
  1  2  1  0
  2  3  1  0
  3  4  2  0
  4  5  1  0
  5  6  2  0
  6  7  1  0
  7  8  2  0
  8  9  1  0
  9 10  1  0
 10 11  1  0
 11 12  1  0
 12 13  2  0
 12 14  1  0
 14 15  1  0
 15 16  2  0
 15 17  1  0
 17 18  1  0
 18 19  1  0
 19 20  2  0
 20 21  1  0
 21 22  2  0
 22 23  1  0
 23 24  2  0
 23 25  1  0
 25 26  1  0
 26 27  1  0
  8  3  1  0
 17 10  2  0
 24 19  1  0
 27 22  1  0
  1 28  1  0
  1 29  1  0
  1 30  1  0
  4 31  1  0
  5 32  1  0
  6 33  1  0
  7 34  1  0
  9 35  1  0
  9 36  1  0
 11 37  1  0
 18 38  1  0
 18 39  1  0
 20 40  1  0
 21 41  1  0
 24 42  1  0
 26 43  1  0
 26 44  1  0
M  CHG  1  14  -1
M  END
>  <UniqueID>  (54) 
44

>  <SMILES>  (54) 
COc1ccccc1Cc1[nH]c(=O)[n-]c(=O)c1Cc1ccc2c(c1)OCO2

>  <Energy>  (54) 
81.71818438490092

>  <Genealogy>  (54) 
COc1ccccc1Cc1[nH]c(=O)[n-]c(=O)c1Cc1ccc2c(c1)OCO2 (protonated)
COc1ccccc1Cc1[nH]c(=O)[n-]c(=O)c1Cc1ccc2c(c1)OCO2 (3D coordinates assigned)
COc1ccccc1Cc1[nH]c(=O)[n-]c(=O)c1Cc1ccc2c(c1)OCO2 (nonaromatic ring conformer: 81.71818438490092 kcal/mol)

>  <smiles>  (54) 
COc1ccccc1Cc1[nH]c(=O)[nH]c(=O)c1Cc1ccc2c(c1)OCO2

>  <score_type>  (54) 
oracle

>  <origin>  (54) 
adg

>  <m_score__min__energy>  (54) 
-9.0899999999999999

>  <m_primary>  (54) 
energy

$$$$
54:0
     RDKit          3D

 53 55  0  0  0  0  0  0  0  0999 V2000
   57.0666   33.8331   48.2304 H   0  0  0  0  0  0  0  0  0  0  0  0
   57.7690   33.4280   47.4870 C   0  0  0  0  0  0  0  0  0  0  0  0
   57.4830   33.5180   46.1620 N   0  0  0  0  0  0  0  0  0  0  0  0
   58.3360   33.0290   45.2260 C   0  0  0  0  0  0  0  0  0  0  0  0
   58.0280   33.1250   43.9670 N   0  0  0  0  0  0  0  0  0  0  0  0
   57.8190   31.9870   43.0690 C   0  0  0  0  0  0  0  0  0  0  0  0
   56.9783   32.2085   42.3951 H   0  0  0  0  0  0  0  0  0  0  0  0
   58.7390   31.8202   42.4896 H   0  0  0  0  0  0  0  0  0  0  0  0
   57.5080   30.7390   43.8540 C   0  0  0  0  0  0  0  0  0  0  0  0
   58.5420   29.8670   44.2240 C   0  0  0  0  0  0  0  0  0  0  0  0
   59.5826   30.1113   43.9643 H   0  0  0  0  0  0  0  0  0  0  0  0
   58.2580   28.6890   44.9210 C   0  0  0  0  0  0  0  0  0  0  0  0
   59.0750   28.0075   45.2004 H   0  0  0  0  0  0  0  0  0  0  0  0
   56.9340   28.3720   45.2660 C   0  0  0  0  0  0  0  0  0  0  0  0
   56.6220   27.1160   45.9820 C   0  0  0  0  0  0  0  0  0  0  0  0
   55.4310   26.7030   45.9880 O   0  0  0  0  0  0  0  0  0  0  0  0
   57.6370   26.3670   46.6780 N   0  0  0  0  0  0  0  0  0  0  0  0
   57.4280   24.9350   46.9150 C   0  0  0  0  0  0  0  0  0  0  0  0
   57.4000   24.7428   47.9977 H   0  0  0  0  0  0  0  0  0  0  0  0
   56.4749   24.6237   46.4625 H   0  0  0  0  0  0  0  0  0  0  0  0
   58.2524   24.3643   46.4625 H   0  0  0  0  0  0  0  0  0  0  0  0
   58.7880   27.0520   47.2800 C   0  0  0  0  0  0  0  0  0  0  0  0
   58.7100   27.0056   48.3763 H   0  0  0  0  0  0  0  0  0  0  0  0
   59.7174   26.5600   46.9573 H   0  0  0  0  0  0  0  0  0  0  0  0
   58.7987   28.1036   46.9573 H   0  0  0  0  0  0  0  0  0  0  0  0
   55.8970   29.2330   44.8750 C   0  0  0  0  0  0  0  0  0  0  0  0
   54.8544   28.9785   45.1161 H   0  0  0  0  0  0  0  0  0  0  0  0
   56.1820   30.4120   44.1810 C   0  0  0  0  0  0  0  0  0  0  0  0
   55.3639   31.0871   43.8895 H   0  0  0  0  0  0  0  0  0  0  0  0
   59.4990   32.4390   45.6170 N   0  0  0  0  0  0  0  0  0  0  0  0
   59.8320   32.3120   46.9300 C   0  0  0  0  0  0  0  0  0  0  0  0
   61.0870   31.6780   47.2830 N   0  0  2  0  0  0  0  0  0  0  0  0
   61.6500   31.5210   46.4130 H   0  0  0  0  0  0  0  0  0  0  0  0
   60.8590   30.4160   47.9060 C   0  0  0  0  0  0  0  0  0  0  0  0
   60.3520   29.4340   47.3000 O   0  0  0  0  0  0  0  0  0  0  0  0
   61.2600   30.3450   49.2180 O   0  0  0  0  0  0  0  0  0  0  0  0
   61.7830   31.5930   49.6220 C   0  0  0  0  0  0  0  0  0  0  0  0
   62.7892   31.4715   50.0497 H   0  0  0  0  0  0  0  0  0  0  0  0
   61.1681   32.0689   50.4001 H   0  0  0  0  0  0  0  0  0  0  0  0
   61.8400   32.4390   48.3200 C   0  0  1  0  0  0  0  0  0  0  0  0
   61.3864   33.4238   48.5054 H   0  0  0  0  0  0  0  0  0  0  0  0
   63.2930   32.7730   47.8500 C   0  0  0  0  0  0  0  0  0  0  0  0
   63.6915   31.8268   47.4551 H   0  0  0  0  0  0  0  0  0  0  0  0
   64.2360   33.2040   48.9910 C   0  0  0  0  0  0  0  0  0  0  0  0
   63.7622   32.9874   49.9598 H   0  0  0  0  0  0  0  0  0  0  0  0
   65.1827   32.6492   48.9136 H   0  0  0  0  0  0  0  0  0  0  0  0
   64.4360   34.2829   48.9136 H   0  0  0  0  0  0  0  0  0  0  0  0
   63.2940   33.8280   46.7350 C   0  0  0  0  0  0  0  0  0  0  0  0
   63.2950   34.8333   47.1815 H   0  0  0  0  0  0  0  0  0  0  0  0
   64.1920   33.7025   46.1123 H   0  0  0  0  0  0  0  0  0  0  0  0
   62.3957   33.7042   46.1123 H   0  0  0  0  0  0  0  0  0  0  0  0
   58.9530   32.8220   47.9040 C   0  0  0  0  0  0  0  0  0  0  0  0
   59.1959   32.7438   48.9740 H   0  0  0  0  0  0  0  0  0  0  0  0
  1  2  1  0
  2  3  1  0
  3  4  1  0
  4  5  2  0
  5  6  1  0
  6  7  1  0
  6  8  1  0
  6  9  1  0
  9 10  2  0
 10 11  1  0
 10 12  1  0
 12 13  1  0
 12 14  2  0
 14 15  1  0
 15 16  2  0
 15 17  1  0
 17 18  1  0
 18 19  1  0
 18 20  1  0
 18 21  1  0
 17 22  1  0
 22 23  1  0
 22 24  1  0
 22 25  1  0
 14 26  1  0
 26 27  1  0
 26 28  2  0
 28 29  1  0
  4 30  1  0
 30 31  2  0
 31 32  1  0
 32 33  1  6
 32 34  1  0
 34 35  2  0
 34 36  1  0
 36 37  1  0
 37 38  1  0
 37 39  1  0
 37 40  1  0
 40 41  1  1
 40 42  1  0
 42 43  1  0
 42 44  1  0
 44 45  1  0
 44 46  1  0
 44 47  1  0
 42 48  1  0
 48 49  1  0
 48 50  1  0
 48 51  1  0
 31 52  1  0
 52 53  1  0
 52  2  2  0
 28  9  1  0
 40 32  1  0
M  CHG  2   3  -1  32   1
M  END
>  <UniqueID>  (55) 
45

>  <SMILES>  (55) 
CC(C)[C@@H]1COC(=O)[N@H+]1c1cc[n-]/c(=N/Cc2ccc(C(=O)N(C)C)cc2)n1

>  <Energy>  (55) 
69.2462984891739

>  <Genealogy>  (55) 
CC(C)C1COC(=O)[NH+]1c1cc[n-]c(=NCc2ccc(C(=O)N(C)C)cc2)n1 (protonated)
CC(C)[C@@H]1COC(=O)[N@H+]1c1cc[n-]c(=NCc2ccc(C(=O)N(C)C)cc2)n1 (chirality)
CC(C)[C@@H]1COC(=O)[N@H+]1c1cc[n-]/c(=N/Cc2ccc(C(=O)N(C)C)cc2)n1 (cis-trans isomerization)
CC(C)[C@@H]1COC(=O)[N@H+]1c1cc[n-]/c(=N/Cc2ccc(C(=O)N(C)C)cc2)n1 (3D coordinates assigned)
CC(C)[C@@H]1COC(=O)[N@H+]1c1cc[n-]/c(=N/Cc2ccc(C(=O)N(C)C)cc2)n1 (nonaromatic ring conformer: 69.2462984891739 kcal/mol)

>  <smiles>  (55) 
CC(C)C1COC(=O)N1c1cc[nH]c(=NCc2ccc(C(=O)N(C)C)cc2)n1

>  <score_type>  (55) 
oracle

>  <origin>  (55) 
adg

>  <m_score__min__energy>  (55) 
-9.0399999999999991

>  <m_primary>  (55) 
energy

$$$$
55:0
     RDKit          3D

 42 46  0  0  0  0  0  0  0  0999 V2000
   60.0480   26.4880   46.3320 O   0  0  0  0  0  0  0  0  0  0  0  0
   58.8030   26.3040   46.2950 C   0  0  0  0  0  0  0  0  0  0  0  0
   58.0440   24.8840   46.7710 S   0  0  0  0  0  0  0  0  0  0  0  0
   56.5000   25.4740   46.4360 C   0  0  0  0  0  0  0  0  0  0  0  0
   56.6320   26.7740   45.9610 C   0  0  0  0  0  0  0  0  0  0  0  0
   55.5330   27.5470   45.6060 O   0  0  0  0  0  0  0  0  0  0  0  0
   57.9140   27.2350   45.8720 N   0  0  0  0  0  0  0  0  0  0  0  0
   58.2790   28.5890   45.4440 C   0  0  0  0  0  0  0  0  0  0  0  0
   57.3960   29.6230   46.1480 C   0  0  0  0  0  0  0  0  0  0  0  0
   58.1790   30.8100   46.5110 N   0  0  0  0  0  0  0  0  0  0  0  0
   59.1150   30.9680   47.4940 C   0  0  0  0  0  0  0  0  0  0  0  0
   59.5090   29.9450   48.4830 C   0  0  0  0  0  0  0  0  0  0  0  0
   59.5660   30.1070   49.8670 C   0  0  0  0  0  0  0  0  0  0  0  0
   60.0530   28.9110   50.3480 C   0  0  0  0  0  0  0  0  0  0  0  0
   60.3260   28.5020   51.6520 C   0  0  0  0  0  0  0  0  0  0  0  0
   60.8420   27.2070   51.8380 C   0  0  0  0  0  0  0  0  0  0  0  0
   61.1190   26.7660   53.0900 F   0  0  0  0  0  0  0  0  0  0  0  0
   61.0750   26.3640   50.7280 C   0  0  0  0  0  0  0  0  0  0  0  0
   60.7960   26.8100   49.4230 C   0  0  0  0  0  0  0  0  0  0  0  0
   60.2820   28.0960   49.2710 C   0  0  0  0  0  0  0  0  0  0  0  0
   59.9620   28.7190   48.1250 N   0  0  0  0  0  0  0  0  0  0  0  0
   59.7160   32.1860   47.4660 N   0  0  0  0  0  0  0  0  0  0  0  0
   59.1160   32.8060   46.4360 C   0  0  0  0  0  0  0  0  0  0  0  0
   59.3660   34.0910   45.9580 C   0  0  0  0  0  0  0  0  0  0  0  0
   58.6310   34.5290   44.8410 C   0  0  0  0  0  0  0  0  0  0  0  0
   57.6800   33.6780   44.2340 C   0  0  0  0  0  0  0  0  0  0  0  0
   57.4550   32.3850   44.7400 C   0  0  0  0  0  0  0  0  0  0  0  0
   58.1940   31.9860   45.8560 C   0  0  0  0  0  0  0  0  0  0  0  0
   55.5552   24.9268   46.5697 H   0  0  0  0  0  0  0  0  0  0  0  0
   59.3325   28.7784   45.6973 H   0  0  0  0  0  0  0  0  0  0  0  0
   58.1327   28.6731   44.3570 H   0  0  0  0  0  0  0  0  0  0  0  0
   56.5800   29.9208   45.4732 H   0  0  0  0  0  0  0  0  0  0  0  0
   56.9869   29.1741   47.0652 H   0  0  0  0  0  0  0  0  0  0  0  0
   59.2834   30.9968   50.4487 H   0  0  0  0  0  0  0  0  0  0  0  0
   60.1440   29.1696   52.5071 H   0  0  0  0  0  0  0  0  0  0  0  0
   61.4772   25.3523   50.8853 H   0  0  0  0  0  0  0  0  0  0  0  0
   60.9778   26.1644   48.5512 H   0  0  0  0  0  0  0  0  0  0  0  0
   60.0500   28.3360   47.1580 H   0  0  0  0  0  0  0  0  0  0  0  0
   60.1127   34.7409   46.4377 H   0  0  0  0  0  0  0  0  0  0  0  0
   58.7975   35.5390   44.4382 H   0  0  0  0  0  0  0  0  0  0  0  0
   57.1119   34.0291   43.3599 H   0  0  0  0  0  0  0  0  0  0  0  0
   56.7220   31.7110   44.2727 H   0  0  0  0  0  0  0  0  0  0  0  0
  1  2  2  0
  2  3  1  0
  3  4  1  0
  4  5  2  0
  5  6  1  0
  5  7  1  0
  7  8  1  0
  8  9  1  0
  9 10  1  0
 10 11  1  0
 11 12  1  0
 12 13  2  0
 13 14  1  0
 14 15  2  0
 15 16  1  0
 16 17  1  0
 16 18  2  0
 18 19  1  0
 19 20  2  0
 20 21  1  0
 11 22  2  0
 22 23  1  0
 23 24  2  0
 24 25  1  0
 25 26  2  0
 26 27  1  0
 27 28  2  0
  7  2  1  0
 28 10  1  0
 21 12  1  0
 28 23  1  0
 20 14  1  0
  4 29  1  0
  8 30  1  0
  8 31  1  0
  9 32  1  0
  9 33  1  0
 13 34  1  0
 15 35  1  0
 18 36  1  0
 19 37  1  0
 21 38  1  0
 24 39  1  0
 25 40  1  0
 26 41  1  0
 27 42  1  0
M  CHG  1   6  -1
M  END
>  <UniqueID>  (56) 
46

>  <SMILES>  (56) 
O=c1scc([O-])n1CCn1c(-c2cc3cc(F)ccc3[nH]2)nc2ccccc21

>  <Energy>  (56) 
150.2431115319448

>  <Genealogy>  (56) 
O=c1scc([O-])n1CCn1c(-c2cc3cc(F)ccc3[nH]2)nc2ccccc21 (protonated)
O=c1scc([O-])n1CCn1c(-c2cc3cc(F)ccc3[nH]2)nc2ccccc21 (3D coordinates assigned)
O=c1scc([O-])n1CCn1c(-c2cc3cc(F)ccc3[nH]2)nc2ccccc21 (optimized conformer: 150.2431115319448 kcal/mol)

>  <smiles>  (56) 
O=c1scc(O)n1CCn1c(-c2cc3cc(F)ccc3[nH]2)nc2ccccc21

>  <score_type>  (56) 
oracle

>  <origin>  (56) 
adg

>  <m_score__min__energy>  (56) 
-10.880000000000001

>  <m_primary>  (56) 
energy

$$$$
56:0
     RDKit          3D

 42 45  0  0  1  0  0  0  0  0999 V2000
   60.3780   22.2380   45.5220 N   0  0  0  0  0  0  0  0  0  0  0  0
   59.2650   22.2110   44.9750 C   0  0  0  0  0  0  0  0  0  0  0  0
   58.3010   22.9980   45.5570 N   0  0  0  0  0  0  0  0  0  0  0  0
   57.0440   23.0710   45.1000 C   0  0  0  0  0  0  0  0  0  0  0  0
   55.9400   23.7990   45.5580 C   0  0  0  0  0  0  0  0  0  0  0  0
   55.9040   24.6220   46.5610 N   0  0  0  0  0  0  0  0  0  0  0  0
   56.1560   25.9820   46.2950 C   0  0  0  0  0  0  0  0  0  0  0  0
   55.1450   26.6970   45.9840 O   0  0  0  0  0  0  0  0  0  0  0  0
   57.4320   26.6490   46.3330 C   0  0  0  0  0  0  0  0  0  0  0  0
   58.5790   26.0830   46.8480 C   0  0  0  0  0  0  0  0  0  0  0  0
   59.7810   26.7430   46.8340 C   0  0  0  0  0  0  0  0  0  0  0  0
   59.8870   28.0070   46.3030 C   0  0  0  0  0  0  0  0  0  0  0  0
   58.7030   28.5530   45.7900 C   0  0  0  0  0  0  0  0  0  0  0  0
   58.8040   29.7210   45.2880 N   0  0  0  0  0  0  0  0  0  0  0  0
   57.7550   30.6370   45.1590 C   0  0  0  0  0  0  0  0  0  0  0  0
   56.5740   30.4340   44.8510 O   0  0  0  0  0  0  0  0  0  0  0  0
   58.1200   32.0550   45.4330 C   0  0  0  0  0  0  0  0  0  0  0  0
   57.9020   33.0510   44.5330 C   0  0  0  0  0  0  0  0  0  0  0  0
   58.2470   34.3290   44.8700 C   0  0  0  0  0  0  0  0  0  0  0  0
   58.8100   34.6340   46.1030 C   0  0  0  0  0  0  0  0  0  0  0  0
   59.0150   33.5950   46.9870 C   0  0  0  0  0  0  0  0  0  0  0  0
   58.6800   32.2890   46.6790 C   0  0  0  0  0  0  0  0  0  0  0  0
   57.5400   27.8900   45.8130 N   0  0  0  0  0  0  0  0  0  0  0  0
   54.9590   23.4600   44.7010 N   0  0  0  0  0  0  0  0  0  0  0  0
   55.3900   22.6070   43.7950 N   0  0  0  0  0  0  0  0  0  0  0  0
   56.6870   22.3310   43.9970 C   0  0  0  0  0  0  0  0  0  0  0  0
   57.6390   21.5340   43.3950 C   0  0  0  0  0  0  0  0  0  0  0  0
   58.8960   21.5020   43.9040 N   0  0  0  0  0  0  0  0  0  0  0  0
   61.3310   22.2570   45.2880 H   0  0  0  0  0  0  0  0  0  0  0  0
   58.5285   25.0736   47.2823 H   0  0  0  0  0  0  0  0  0  0  0  0
   60.6728   26.2544   47.2534 H   0  0  0  0  0  0  0  0  0  0  0  0
   60.8407   28.5547   46.2823 H   0  0  0  0  0  0  0  0  0  0  0  0
   57.4560   32.8315   43.5517 H   0  0  0  0  0  0  0  0  0  0  0  0
   58.0744   35.1386   44.1456 H   0  0  0  0  0  0  0  0  0  0  0  0
   59.0825   35.6670   46.3649 H   0  0  0  0  0  0  0  0  0  0  0  0
   59.4596   33.8124   47.9694 H   0  0  0  0  0  0  0  0  0  0  0  0
   58.8509   31.4701   47.3932 H   0  0  0  0  0  0  0  0  0  0  0  0
   56.6890   28.3270   45.4340 H   0  0  0  0  0  0  0  0  0  0  0  0
   53.9630   23.8410   44.7610 H   0  0  0  0  0  0  0  0  0  0  0  0
   54.7970   22.2190   43.0430 H   0  0  0  0  0  0  0  0  0  0  0  0
   57.3814   20.9310   42.5118 H   0  0  0  0  0  0  0  0  0  0  0  0
   59.6420   20.9040   43.4640 H   0  0  0  0  0  0  0  0  0  0  0  0
  1  2  2  3
  2  3  1  0
  3  4  2  0
  4  5  1  0
  5  6  2  0
  6  7  1  0
  7  8  2  0
  7  9  1  0
  9 10  2  0
 10 11  1  0
 11 12  2  0
 12 13  1  0
 13 14  2  0
 14 15  1  0
 15 16  2  0
 15 17  1  0
 17 18  2  0
 18 19  1  0
 19 20  2  0
 20 21  1  0
 21 22  2  0
 13 23  1  0
  5 24  1  0
 24 25  1  0
 25 26  1  0
 26 27  2  0
 27 28  1  0
 28  2  1  0
 26  4  1  0
 23  9  1  0
 22 17  1  0
  1 29  1  0
 10 30  1  0
 11 31  1  0
 12 32  1  0
 18 33  1  0
 19 34  1  0
 20 35  1  0
 21 36  1  0
 22 37  1  0
 23 38  1  0
 24 39  1  0
 25 40  1  0
 27 41  1  0
 28 42  1  0
M  END
>  <smiles>  (57) 
N=c1nc2c(=NC(=O)c3cccc(=NC(=O)c4ccccc4)[nH]3)[nH][nH]c2c[nH]1

>  <score_type>  (57) 
oracle

>  <origin>  (57) 
adg

>  <m_score__min__energy>  (57) 
-9.75

>  <m_primary>  (57) 
energy

$$$$
57:0
     RDKit          3D

 28 29  0  0  0  0  0  0  0  0999 V2000
   58.1920   26.3810   46.7580 O   0  0  0  0  0  0  0  0  0  0  0  0
   57.3410   26.5570   45.8260 C   0  0  0  0  0  0  0  0  0  0  0  0
   57.5310   27.7000   45.0160 N   0  0  0  0  0  0  0  0  0  0  0  0
   58.6640   28.5530   45.3220 C   0  0  0  0  0  0  0  0  0  0  0  0
   58.3620   29.9830   45.3090 C   0  0  0  0  0  0  0  0  0  0  0  0
   59.2100   30.8950   45.9440 C   0  0  0  0  0  0  0  0  0  0  0  0
   58.9750   32.2430   45.9680 C   0  0  0  0  0  0  0  0  0  0  0  0
   57.8700   32.7340   45.3490 C   0  0  0  0  0  0  0  0  0  0  0  0
   57.0210   31.8760   44.7190 C   0  0  0  0  0  0  0  0  0  0  0  0
   57.2450   30.4910   44.6840 C   0  0  0  0  0  0  0  0  0  0  0  0
   56.2940   29.7040   43.9870 N   0  0  0  0  0  0  0  0  0  0  0  0
   56.5100   29.4440   42.7830 O   0  0  0  0  0  0  0  0  0  0  0  0
   55.1480   29.1970   44.5280 O   0  0  0  0  0  0  0  0  0  0  0  0
   56.2370   25.6230   45.6170 C   0  0  0  0  0  0  0  0  0  0  0  0
   56.2480   24.3530   45.0860 C   0  0  0  0  0  0  0  0  0  0  0  0
   54.9750   23.8750   45.0940 N   0  0  0  0  0  0  0  0  0  0  0  0
   54.1760   24.8330   45.6230 C   0  0  0  0  0  0  0  0  0  0  0  0
   54.9570   25.8860   45.9350 N   0  0  0  0  0  0  0  0  0  0  0  0
   56.8630   27.8860   44.2410 H   0  0  0  0  0  0  0  0  0  0  0  0
   59.0338   28.2882   46.3236 H   0  0  0  0  0  0  0  0  0  0  0  0
   59.4095   28.3816   44.5315 H   0  0  0  0  0  0  0  0  0  0  0  0
   60.1089   30.5109   46.4484 H   0  0  0  0  0  0  0  0  0  0  0  0
   59.6724   32.9206   46.4823 H   0  0  0  0  0  0  0  0  0  0  0  0
   57.6631   33.8143   45.3566 H   0  0  0  0  0  0  0  0  0  0  0  0
   56.1288   32.2824   44.2203 H   0  0  0  0  0  0  0  0  0  0  0  0
   57.1350   23.8165   44.7181 H   0  0  0  0  0  0  0  0  0  0  0  0
   54.6430   22.9520   44.7630 H   0  0  0  0  0  0  0  0  0  0  0  0
   53.0882   24.7638   45.7708 H   0  0  0  0  0  0  0  0  0  0  0  0
  1  2  2  0
  2  3  1  0
  3  4  1  0
  4  5  1  0
  5  6  2  0
  6  7  1  0
  7  8  2  0
  8  9  1  0
  9 10  2  0
 10 11  1  0
 11 12  2  0
 11 13  1  0
  2 14  1  0
 14 15  2  0
 15 16  1  0
 16 17  1  0
 17 18  2  0
 10  5  1  0
 18 14  1  0
  3 19  1  0
  4 20  1  0
  4 21  1  0
  6 22  1  0
  7 23  1  0
  8 24  1  0
  9 25  1  0
 15 26  1  0
 16 27  1  0
 17 28  1  0
M  CHG  2  11   1  13  -1
M  END
>  <smiles>  (58) 
O=C(NCc1ccccc1[N+](=O)[O-])c1c[nH]cn1

>  <score_type>  (58) 
oracle

>  <origin>  (58) 
adg

>  <m_score__min__energy>  (58) 
-6.1299999999999999

>  <m_primary>  (58) 
energy

$$$$
58:0
     RDKit          3D

 48 50  0  0  0  0  0  0  0  0999 V2000
   62.0490   33.8220   51.7060 N   0  0  0  0  0  0  0  0  0  0  0  0
   62.8570   32.6870   51.2730 C   0  0  0  0  0  0  0  0  0  0  0  0
   63.0360   32.7220   49.7750 C   0  0  0  0  0  0  0  0  0  0  0  0
   64.1670   33.3760   49.2530 C   0  0  0  0  0  0  0  0  0  0  0  0
   64.3600   33.4790   47.8750 C   0  0  0  0  0  0  0  0  0  0  0  0
   63.4280   32.9290   46.9960 C   0  0  0  0  0  0  0  0  0  0  0  0
   62.3000   32.2750   47.4940 C   0  0  0  0  0  0  0  0  0  0  0  0
   62.0840   32.1720   48.8800 C   0  0  0  0  0  0  0  0  0  0  0  0
   60.9050   31.4050   49.3350 C   0  0  0  0  0  0  0  0  0  0  0  0
   61.0060   30.0050   49.3570 C   0  0  0  0  0  0  0  0  0  0  0  0
   59.8790   29.2160   49.5870 C   0  0  0  0  0  0  0  0  0  0  0  0
   58.6320   29.8140   49.7530 C   0  0  0  0  0  0  0  0  0  0  0  0
   58.5160   31.2050   49.7420 C   0  0  0  0  0  0  0  0  0  0  0  0
   59.6530   32.0220   49.6040 C   0  0  0  0  0  0  0  0  0  0  0  0
   59.5090   33.4980   49.6730 C   0  0  0  0  0  0  0  0  0  0  0  0
   59.6080   34.0700   50.7900 O   0  0  0  0  0  0  0  0  0  0  0  0
   59.2670   34.3180   48.5160 N   0  0  0  0  0  0  0  0  0  0  0  0
   59.7540   34.1330   47.1500 C   0  0  0  0  0  0  0  0  0  0  0  0
   58.9620   33.0880   46.4150 C   0  0  0  0  0  0  0  0  0  0  0  0
   59.4110   31.7590   46.3530 C   0  0  0  0  0  0  0  0  0  0  0  0
   58.7000   30.8070   45.6190 C   0  0  0  0  0  0  0  0  0  0  0  0
   57.5400   31.1730   44.9250 C   0  0  0  0  0  0  0  0  0  0  0  0
   56.6300   29.9610   44.0310 S   0  0  0  0  0  0  0  0  0  0  0  0
   57.6210   28.5650   43.7900 N   0  0  0  0  0  0  0  0  0  0  0  0
   55.3990   29.5750   44.8010 O   0  0  0  0  0  0  0  0  0  0  0  0
   56.2100   30.5210   42.7000 O   0  0  0  0  0  0  0  0  0  0  0  0
   57.0830   32.4960   44.9890 C   0  0  0  0  0  0  0  0  0  0  0  0
   57.7840   33.4470   45.7380 C   0  0  0  0  0  0  0  0  0  0  0  0
   61.7420   34.3280   50.8460 H   0  0  0  0  0  0  0  0  0  0  0  0
   61.1700   33.4630   52.1450 H   0  0  0  0  0  0  0  0  0  0  0  0
   63.8427   32.7352   51.7588 H   0  0  0  0  0  0  0  0  0  0  0  0
   62.3477   31.7533   51.5539 H   0  0  0  0  0  0  0  0  0  0  0  0
   64.9080   33.8114   49.9395 H   0  0  0  0  0  0  0  0  0  0  0  0
   65.2485   33.9947   47.4817 H   0  0  0  0  0  0  0  0  0  0  0  0
   63.5817   33.0105   45.9098 H   0  0  0  0  0  0  0  0  0  0  0  0
   61.5726   31.8357   46.7955 H   0  0  0  0  0  0  0  0  0  0  0  0
   61.9823   29.5261   49.1914 H   0  0  0  0  0  0  0  0  0  0  0  0
   59.9750   28.1214   49.6373 H   0  0  0  0  0  0  0  0  0  0  0  0
   57.7375   29.1893   49.8929 H   0  0  0  0  0  0  0  0  0  0  0  0
   57.5233   31.6681   49.8425 H   0  0  0  0  0  0  0  0  0  0  0  0
   59.6723   35.0878   46.6099 H   0  0  0  0  0  0  0  0  0  0  0  0
   60.8004   33.7977   47.2011 H   0  0  0  0  0  0  0  0  0  0  0  0
   60.3278   31.4661   46.8855 H   0  0  0  0  0  0  0  0  0  0  0  0
   59.0526   29.7656   45.5859 H   0  0  0  0  0  0  0  0  0  0  0  0
   56.9870   27.7860   43.5010 H   0  0  0  0  0  0  0  0  0  0  0  0
   58.2410   28.7680   42.9740 H   0  0  0  0  0  0  0  0  0  0  0  0
   56.1703   32.7877   44.4487 H   0  0  0  0  0  0  0  0  0  0  0  0
   57.4115   34.4803   45.7973 H   0  0  0  0  0  0  0  0  0  0  0  0
  1  2  1  0
  2  3  1  0
  3  4  2  0
  4  5  1  0
  5  6  2  0
  6  7  1  0
  7  8  2  0
  8  9  1  0
  9 10  2  0
 10 11  1  0
 11 12  2  0
 12 13  1  0
 13 14  2  0
 14 15  1  0
 15 16  2  0
 15 17  1  0
 17 18  1  0
 18 19  1  0
 19 20  2  0
 20 21  1  0
 21 22  2  0
 22 23  1  0
 23 24  1  0
 23 25  2  0
 23 26  2  0
 22 27  1  0
 27 28  2  0
  8  3  1  0
 14  9  1  0
 28 19  1  0
  1 29  1  0
  1 30  1  0
  2 31  1  0
  2 32  1  0
  4 33  1  0
  5 34  1  0
  6 35  1  0
  7 36  1  0
 10 37  1  0
 11 38  1  0
 12 39  1  0
 13 40  1  0
 18 41  1  0
 18 42  1  0
 20 43  1  0
 21 44  1  0
 24 45  1  0
 24 46  1  0
 27 47  1  0
 28 48  1  0
M  CHG  1  17  -1
M  END
>  <UniqueID>  (59) 
47

>  <SMILES>  (59) 
NCc1ccccc1-c1ccccc1C(=O)[N-]Cc1ccc(S(N)(=O)=O)cc1

>  <Energy>  (59) 
60.91085110239992

>  <Genealogy>  (59) 
NCc1ccccc1-c1ccccc1C(=O)[N-]Cc1ccc(S(N)(=O)=O)cc1 (protonated)
NCc1ccccc1-c1ccccc1C(=O)[N-]Cc1ccc(S(N)(=O)=O)cc1 (3D coordinates assigned)
NCc1ccccc1-c1ccccc1C(=O)[N-]Cc1ccc(S(N)(=O)=O)cc1 (optimized conformer: 60.91085110239992 kcal/mol)

>  <smiles>  (59) 
NCc1ccccc1-c1ccccc1C(=O)NCc1ccc(S(N)(=O)=O)cc1

>  <score_type>  (59) 
oracle

>  <origin>  (59) 
adg

>  <m_score__min__energy>  (59) 
-10.52

>  <m_primary>  (59) 
energy

$$$$
59:0
     RDKit          3D

 48 51  0  0  0  0  0  0  0  0999 V2000
   57.8880   30.3310   50.7860 O   0  0  0  0  0  0  0  0  0  0  0  0
   58.5180   30.9090   49.8590 C   0  0  0  0  0  0  0  0  0  0  0  0
   58.2200   32.3500   49.5500 C   0  0  0  0  0  0  0  0  0  0  0  0
   59.1910   32.9980   48.5690 C   0  0  0  0  0  0  0  0  0  0  0  0
   60.5330   33.2380   48.9400 C   0  0  0  0  0  0  0  0  0  0  0  0
   61.4340   33.8180   48.0490 C   0  0  0  0  0  0  0  0  0  0  0  0
   61.0200   34.1960   46.7770 C   0  0  0  0  0  0  0  0  0  0  0  0
   59.6880   34.0190   46.3860 C   0  0  0  0  0  0  0  0  0  0  0  0
   59.2750   34.4360   45.1100 C   0  0  0  0  0  0  0  0  0  0  0  0
   57.9450   34.2920   44.7170 C   0  0  0  0  0  0  0  0  0  0  0  0
   57.0150   33.7380   45.5940 C   0  0  0  0  0  0  0  0  0  0  0  0
   57.4070   33.3140   46.8660 C   0  0  0  0  0  0  0  0  0  0  0  0
   58.7530   33.4320   47.2840 C   0  0  0  0  0  0  0  0  0  0  0  0
   59.5020   30.2010   49.0900 N   0  0  0  0  0  0  0  0  0  0  0  0
   60.0140   28.9050   49.4480 C   0  0  0  0  0  0  0  0  0  0  0  0
   60.5320   28.6700   50.7350 C   0  0  0  0  0  0  0  0  0  0  0  0
   61.0560   27.4190   51.0700 C   0  0  0  0  0  0  0  0  0  0  0  0
   61.0730   26.3930   50.1260 C   0  0  0  0  0  0  0  0  0  0  0  0
   60.5780   26.6170   48.8400 C   0  0  0  0  0  0  0  0  0  0  0  0
   60.0710   27.8800   48.4820 C   0  0  0  0  0  0  0  0  0  0  0  0
   59.5400   28.1190   47.1680 N   0  0  0  0  0  0  0  0  0  0  0  0
   58.1530   28.1310   46.8040 C   0  0  0  0  0  0  0  0  0  0  0  0
   57.3570   27.3880   47.4370 O   0  0  0  0  0  0  0  0  0  0  0  0
   57.6260   29.0120   45.7370 C   0  0  0  0  0  0  0  0  0  0  0  0
   58.4370   30.0440   45.2330 C   0  0  0  0  0  0  0  0  0  0  0  0
   57.9550   30.9020   44.2390 C   0  0  0  0  0  0  0  0  0  0  0  0
   56.6660   30.7290   43.7300 C   0  0  0  0  0  0  0  0  0  0  0  0
   55.8590   29.6940   44.2080 C   0  0  0  0  0  0  0  0  0  0  0  0
   56.3350   28.8280   45.1980 C   0  0  0  0  0  0  0  0  0  0  0  0
   55.5260   27.7770   45.6210 O   0  0  0  0  0  0  0  0  0  0  0  0
   57.2085   32.4079   49.1217 H   0  0  0  0  0  0  0  0  0  0  0  0
   58.3169   32.9006   50.4973 H   0  0  0  0  0  0  0  0  0  0  0  0
   60.8724   32.9623   49.9494 H   0  0  0  0  0  0  0  0  0  0  0  0
   62.4787   33.9776   48.3540 H   0  0  0  0  0  0  0  0  0  0  0  0
   61.7428   34.6363   46.0744 H   0  0  0  0  0  0  0  0  0  0  0  0
   60.0051   34.8788   44.4166 H   0  0  0  0  0  0  0  0  0  0  0  0
   57.6299   34.6159   43.7141 H   0  0  0  0  0  0  0  0  0  0  0  0
   55.9651   33.6338   45.2828 H   0  0  0  0  0  0  0  0  0  0  0  0
   56.6607   32.8837   47.5500 H   0  0  0  0  0  0  0  0  0  0  0  0
   59.8260   30.6350   48.1960 H   0  0  0  0  0  0  0  0  0  0  0  0
   60.5243   29.4769   51.4826 H   0  0  0  0  0  0  0  0  0  0  0  0
   61.4556   27.2432   52.0797 H   0  0  0  0  0  0  0  0  0  0  0  0
   61.4770   25.4058   50.3949 H   0  0  0  0  0  0  0  0  0  0  0  0
   60.5843   25.8013   48.1021 H   0  0  0  0  0  0  0  0  0  0  0  0
   59.4569   30.1775   45.6228 H   0  0  0  0  0  0  0  0  0  0  0  0
   58.5919   31.7138   43.8578 H   0  0  0  0  0  0  0  0  0  0  0  0
   56.2862   31.4080   42.9524 H   0  0  0  0  0  0  0  0  0  0  0  0
   54.8447   29.5593   43.8042 H   0  0  0  0  0  0  0  0  0  0  0  0
  1  2  2  0
  2  3  1  0
  3  4  1  0
  4  5  2  0
  5  6  1  0
  6  7  2  0
  7  8  1  0
  8  9  2  0
  9 10  1  0
 10 11  2  0
 11 12  1  0
 12 13  2  0
  2 14  1  0
 14 15  1  0
 15 16  2  0
 16 17  1  0
 17 18  2  0
 18 19  1  0
 19 20  2  0
 20 21  1  0
 21 22  1  0
 22 23  2  0
 22 24  1  0
 24 25  2  0
 25 26  1  0
 26 27  2  0
 27 28  1  0
 28 29  2  0
 29 30  1  0
 13  4  1  0
 20 15  1  0
 29 24  1  0
 13  8  1  0
  3 31  1  0
  3 32  1  0
  5 33  1  0
  6 34  1  0
  7 35  1  0
  9 36  1  0
 10 37  1  0
 11 38  1  0
 12 39  1  0
 14 40  1  0
 16 41  1  0
 17 42  1  0
 18 43  1  0
 19 44  1  0
 25 45  1  0
 26 46  1  0
 27 47  1  0
 28 48  1  0
M  CHG  2  21  -1  30  -1
M  END
>  <UniqueID>  (60) 
48

>  <SMILES>  (60) 
O=C(Cc1cccc2ccccc12)Nc1ccccc1[N-]C(=O)c1ccccc1[O-]

>  <Energy>  (60) 
72.57611013474411

>  <Genealogy>  (60) 
O=C(Cc1cccc2ccccc12)Nc1ccccc1[N-]C(=O)c1ccccc1[O-] (protonated)
O=C(Cc1cccc2ccccc12)Nc1ccccc1[N-]C(=O)c1ccccc1[O-] (3D coordinates assigned)
O=C(Cc1cccc2ccccc12)Nc1ccccc1[N-]C(=O)c1ccccc1[O-] (optimized conformer: 72.57611013474411 kcal/mol)

>  <smiles>  (60) 
O=C(Cc1cccc2ccccc12)Nc1ccccc1NC(=O)c1ccccc1O

>  <score_type>  (60) 
oracle

>  <origin>  (60) 
adg

>  <m_score__min__energy>  (60) 
-16.02

>  <m_primary>  (60) 
energy

$$$$
60:0
     RDKit          3D

 40 41  0  0  0  0  0  0  0  0999 V2000
   57.7280   32.1550   41.9660 C   0  0  0  0  0  0  0  0  0  0  0  0
   58.0520   31.9800   43.3400 O   0  0  0  0  0  0  0  0  0  0  0  0
   57.1440   31.4610   44.2680 C   0  0  0  0  0  0  0  0  0  0  0  0
   56.9770   32.0190   45.3860 O   0  0  0  0  0  0  0  0  0  0  0  0
   56.3460   30.2440   43.9190 C   0  0  0  0  0  0  0  0  0  0  0  0
   56.8210   29.0530   44.7110 C   0  0  0  0  0  0  0  0  0  0  0  0
   55.8790   28.2110   45.2060 N   0  0  0  0  0  0  0  0  0  0  0  0
   56.1890   27.0890   45.8950 C   0  0  0  0  0  0  0  0  0  0  0  0
   55.2570   26.3540   46.3220 O   0  0  0  0  0  0  0  0  0  0  0  0
   57.5280   26.7530   46.1290 C   0  0  0  0  0  0  0  0  0  0  0  0
   57.8300   25.5450   46.8640 C   0  0  0  0  0  0  0  0  0  0  0  0
   58.0730   24.5820   47.4580 N   0  0  0  0  0  0  0  0  0  0  0  0
   58.5580   27.5970   45.6370 C   0  0  0  0  0  0  0  0  0  0  0  0
   59.9460   27.3120   45.9660 N   0  0  0  0  0  0  0  0  0  0  0  0
   60.2620   27.7960   47.2900 C   0  0  0  0  0  0  0  0  0  0  0  0
   60.3970   29.1750   47.5350 C   0  0  0  0  0  0  0  0  0  0  0  0
   60.7010   29.6430   48.8160 C   0  0  0  0  0  0  0  0  0  0  0  0
   60.8830   28.7480   49.8760 C   0  0  0  0  0  0  0  0  0  0  0  0
   61.1850   29.2680   51.1440 O   0  0  0  0  0  0  0  0  0  0  0  0
   60.8860   28.6140   52.3730 C   0  0  0  0  0  0  0  0  0  0  0  0
   60.7630   27.3670   49.6350 C   0  0  0  0  0  0  0  0  0  0  0  0
   60.4600   26.8980   48.3540 C   0  0  0  0  0  0  0  0  0  0  0  0
   58.1940   28.7580   44.8950 C   0  0  0  0  0  0  0  0  0  0  0  0
   59.1930   29.6170   44.3200 N   0  0  0  0  0  0  0  0  0  0  0  0
   56.7631   32.6762   41.8803 H   0  0  0  0  0  0  0  0  0  0  0  0
   58.5120   32.7523   41.4776 H   0  0  0  0  0  0  0  0  0  0  0  0
   57.6584   31.1718   41.4776 H   0  0  0  0  0  0  0  0  0  0  0  0
   55.2858   30.4296   44.1460 H   0  0  0  0  0  0  0  0  0  0  0  0
   56.4742   30.0312   42.8474 H   0  0  0  0  0  0  0  0  0  0  0  0
   60.6130   27.7370   45.2890 H   0  0  0  0  0  0  0  0  0  0  0  0
   60.1200   26.2840   45.8970 H   0  0  0  0  0  0  0  0  0  0  0  0
   60.2620   29.8909   46.7108 H   0  0  0  0  0  0  0  0  0  0  0  0
   60.7981   30.7244   48.9926 H   0  0  0  0  0  0  0  0  0  0  0  0
   61.1812   29.2597   53.2132 H   0  0  0  0  0  0  0  0  0  0  0  0
   59.8061   28.4120   52.4276 H   0  0  0  0  0  0  0  0  0  0  0  0
   61.4397   27.6651   52.4276 H   0  0  0  0  0  0  0  0  0  0  0  0
   60.9084   26.6530   50.4590 H   0  0  0  0  0  0  0  0  0  0  0  0
   60.3755   25.8158   48.1761 H   0  0  0  0  0  0  0  0  0  0  0  0
   60.1320   29.7410   44.7540 H   0  0  0  0  0  0  0  0  0  0  0  0
   59.0590   30.0600   43.3860 H   0  0  0  0  0  0  0  0  0  0  0  0
  1  2  1  0
  2  3  1  0
  3  4  2  0
  3  5  1  0
  5  6  1  0
  6  7  1  0
  7  8  1  0
  8  9  2  0
  8 10  1  0
 10 11  1  0
 11 12  3  0
 10 13  2  0
 13 14  1  0
 14 15  1  0
 15 16  2  0
 16 17  1  0
 17 18  2  0
 18 19  1  0
 19 20  1  0
 18 21  1  0
 21 22  2  0
 13 23  1  0
 23 24  1  0
 23  6  2  0
 22 15  1  0
  1 25  1  0
  1 26  1  0
  1 27  1  0
  5 28  1  0
  5 29  1  0
 14 30  1  0
 14 31  1  0
 16 32  1  0
 17 33  1  0
 20 34  1  0
 20 35  1  0
 20 36  1  0
 21 37  1  0
 22 38  1  0
 24 39  1  0
 24 40  1  0
M  CHG  2   7  -1  14   1
M  END
>  <UniqueID>  (61) 
49

>  <SMILES>  (61) 
COC(=O)Cc1[n-]c(=O)c(C#N)c([NH2+]c2ccc(OC)cc2)c1N

>  <Energy>  (61) 
46.84879531000115

>  <Genealogy>  (61) 
COC(=O)Cc1[n-]c(=O)c(C#N)c([NH2+]c2ccc(OC)cc2)c1N (protonated)
COC(=O)Cc1[n-]c(=O)c(C#N)c([NH2+]c2ccc(OC)cc2)c1N (3D coordinates assigned)
COC(=O)Cc1[n-]c(=O)c(C#N)c([NH2+]c2ccc(OC)cc2)c1N (optimized conformer: 46.84879531000115 kcal/mol)

>  <smiles>  (61) 
COC(=O)Cc1[nH]c(=O)c(C#N)c(Nc2ccc(OC)cc2)c1N

>  <score_type>  (61) 
oracle

>  <origin>  (61) 
adg

>  <m_score__min__energy>  (61) 
-6

>  <m_primary>  (61) 
energy

$$$$
61:0
     RDKit          3D

 57 60  0  0  0  0  0  0  0  0999 V2000
   57.0580   28.3290   44.0780 O   0  0  0  0  0  0  0  0  0  0  0  0
   56.4200   29.3680   44.3910 C   0  0  0  0  0  0  0  0  0  0  0  0
   55.1470   29.2400   44.9360 O   0  0  0  0  0  0  0  0  0  0  0  0
   57.0100   30.7080   44.1720 C   0  0  0  0  0  0  0  0  0  0  0  0
   57.4030   31.1060   42.8810 C   0  0  0  0  0  0  0  0  0  0  0  0
   57.9780   32.3610   42.6730 C   0  0  0  0  0  0  0  0  0  0  0  0
   58.1660   33.2380   43.7470 C   0  0  0  0  0  0  0  0  0  0  0  0
   57.7630   32.8660   45.0400 C   0  0  0  0  0  0  0  0  0  0  0  0
   57.9960   33.7830   46.2050 C   0  0  0  0  0  0  0  0  0  0  0  0
   59.6370   34.5660   46.0340 S   0  0  0  0  0  0  0  0  0  0  0  0
   60.0340   34.5960   47.8150 C   0  0  0  0  0  0  0  0  0  0  0  0
   59.7840   33.2540   48.4230 C   0  0  0  0  0  0  0  0  0  0  0  0
   58.9120   32.9930   49.4620 C   0  0  0  0  0  0  0  0  0  0  0  0
   59.0050   31.6390   49.6940 C   0  0  0  0  0  0  0  0  0  0  0  0
   59.9240   31.1600   48.7760 C   0  0  0  0  0  0  0  0  0  0  0  0
   60.3380   29.7570   48.6060 C   0  0  0  0  0  0  0  0  0  0  0  0
   61.1940   29.2770   49.4010 O   0  0  0  0  0  0  0  0  0  0  0  0
   59.8010   28.9340   47.5560 N   0  0  0  0  0  0  0  0  0  0  0  0
   58.3700   28.9750   47.2360 C   0  0  0  0  0  0  0  0  0  0  0  0
   57.8950   27.5630   46.8930 C   0  0  0  0  0  0  0  0  0  0  0  0
   58.6120   27.0130   45.7160 N   0  0  0  0  0  0  0  0  0  0  0  0
   58.4970   25.5690   45.7310 C   0  0  0  0  0  0  0  0  0  0  0  0
   59.4070   24.8660   46.2510 O   0  0  0  0  0  0  0  0  0  0  0  0
   57.2470   24.9100   45.2970 C   0  0  0  0  0  0  0  0  0  0  0  0
   56.0730   25.0630   46.0610 C   0  0  0  0  0  0  0  0  0  0  0  0
   54.8620   24.5360   45.6020 C   0  0  0  0  0  0  0  0  0  0  0  0
   54.8120   23.8540   44.3820 C   0  0  0  0  0  0  0  0  0  0  0  0
   53.6310   23.3580   43.9340 F   0  0  0  0  0  0  0  0  0  0  0  0
   55.9780   23.6850   43.6270 C   0  0  0  0  0  0  0  0  0  0  0  0
   57.1950   24.1960   44.0870 C   0  0  0  0  0  0  0  0  0  0  0  0
   60.0320   27.4550   45.5900 C   0  0  0  0  0  0  0  0  0  0  0  0
   60.6500   27.9220   46.9210 C   0  0  0  0  0  0  0  0  0  0  0  0
   60.3640   32.1430   48.0280 O   0  0  0  0  0  0  0  0  0  0  0  0
   57.1990   31.5960   45.2490 C   0  0  0  0  0  0  0  0  0  0  0  0
   57.2563   30.4241   42.0304 H   0  0  0  0  0  0  0  0  0  0  0  0
   58.2846   32.6618   41.6603 H   0  0  0  0  0  0  0  0  0  0  0  0
   58.6304   34.2208   43.5783 H   0  0  0  0  0  0  0  0  0  0  0  0
   57.2176   34.5601   46.2230 H   0  0  0  0  0  0  0  0  0  0  0  0
   57.9568   33.2077   47.1418 H   0  0  0  0  0  0  0  0  0  0  0  0
   61.0930   34.8628   47.9466 H   0  0  0  0  0  0  0  0  0  0  0  0
   59.3943   35.3398   48.3125 H   0  0  0  0  0  0  0  0  0  0  0  0
   58.2758   33.7162   49.9933 H   0  0  0  0  0  0  0  0  0  0  0  0
   58.4609   31.0574   50.4528 H   0  0  0  0  0  0  0  0  0  0  0  0
   57.8089   29.3521   48.1037 H   0  0  0  0  0  0  0  0  0  0  0  0
   58.2004   29.6423   46.3781 H   0  0  0  0  0  0  0  0  0  0  0  0
   58.0737   26.9070   47.7577 H   0  0  0  0  0  0  0  0  0  0  0  0
   56.8234   27.6116   46.6495 H   0  0  0  0  0  0  0  0  0  0  0  0
   58.1130   27.3730   44.8680 H   0  0  0  0  0  0  0  0  0  0  0  0
   56.1093   25.5985   47.0212 H   0  0  0  0  0  0  0  0  0  0  0  0
   53.9476   24.6579   46.2011 H   0  0  0  0  0  0  0  0  0  0  0  0
   55.9367   23.1480   42.6679 H   0  0  0  0  0  0  0  0  0  0  0  0
   58.1130   24.0393   43.5016 H   0  0  0  0  0  0  0  0  0  0  0  0
   60.6263   26.6124   45.2068 H   0  0  0  0  0  0  0  0  0  0  0  0
   60.0432   28.3177   44.9076 H   0  0  0  0  0  0  0  0  0  0  0  0
   60.7503   27.0590   47.5957 H   0  0  0  0  0  0  0  0  0  0  0  0
   61.6372   28.3630   46.7186 H   0  0  0  0  0  0  0  0  0  0  0  0
   56.9022   31.2923   46.2637 H   0  0  0  0  0  0  0  0  0  0  0  0
  1  2  2  0
  2  3  1  0
  2  4  1  0
  4  5  2  0
  5  6  1  0
  6  7  2  0
  7  8  1  0
  8  9  1  0
  9 10  1  0
 10 11  1  0
 11 12  1  0
 12 13  2  0
 13 14  1  0
 14 15  2  0
 15 16  1  0
 16 17  2  0
 16 18  1  0
 18 19  1  0
 19 20  1  0
 20 21  1  0
 21 22  1  0
 22 23  2  0
 22 24  1  0
 24 25  2  0
 25 26  1  0
 26 27  2  0
 27 28  1  0
 27 29  1  0
 29 30  2  0
 21 31  1  0
 31 32  1  0
 15 33  1  0
  8 34  2  0
 34  4  1  0
 33 12  1  0
 32 18  1  0
 30 24  1  0
  5 35  1  0
  6 36  1  0
  7 37  1  0
  9 38  1  0
  9 39  1  0
 11 40  1  0
 11 41  1  0
 13 42  1  0
 14 43  1  0
 19 44  1  0
 19 45  1  0
 20 46  1  0
 20 47  1  0
 21 48  1  0
 25 49  1  0
 26 50  1  0
 29 51  1  0
 30 52  1  0
 31 53  1  0
 31 54  1  0
 32 55  1  0
 32 56  1  0
 34 57  1  0
M  CHG  2   3  -1  21   1
M  END
>  <UniqueID>  (62) 
50

>  <SMILES>  (62) 
O=C([O-])c1cccc(CSCc2ccc(C(=O)N3CC[NH+](C(=O)c4ccc(F)cc4)CC3)o2)c1

>  <Energy>  (62) 
99.90415314444482

>  <Genealogy>  (62) 
O=C([O-])c1cccc(CSCc2ccc(C(=O)N3CC[NH+](C(=O)c4ccc(F)cc4)CC3)o2)c1 (protonated)
O=C([O-])c1cccc(CSCc2ccc(C(=O)N3CC[NH+](C(=O)c4ccc(F)cc4)CC3)o2)c1 (3D coordinates assigned)
O=C([O-])c1cccc(CSCc2ccc(C(=O)N3CC[NH+](C(=O)c4ccc(F)cc4)CC3)o2)c1 (nonaromatic ring conformer: 99.90415314444482 kcal/mol)

>  <smiles>  (62) 
O=C(O)c1cccc(CSCc2ccc(C(=O)N3CCN(C(=O)c4ccc(F)cc4)CC3)o2)c1

>  <score_type>  (62) 
oracle

>  <origin>  (62) 
adg

>  <m_score__min__energy>  (62) 
-11.34

>  <m_primary>  (62) 
energy

$$$$
62:0
     RDKit          3D

 40 42  0  0  0  0  0  0  0  0999 V2000
   56.6310   32.3110   45.2290 O   0  0  0  0  0  0  0  0  0  0  0  0
   57.6830   32.1490   45.9040 C   0  0  0  0  0  0  0  0  0  0  0  0
   58.4890   30.9030   45.7260 C   0  0  0  0  0  0  0  0  0  0  0  0
   58.0860   30.0860   44.1430 S   0  0  0  0  0  0  0  0  0  0  0  0
   57.7070   28.5020   44.8880 C   0  0  0  0  0  0  0  0  0  0  0  0
   58.7020   27.6090   45.1220 N   0  0  0  0  0  0  0  0  0  0  0  0
   58.4400   26.3900   45.6560 C   0  0  0  0  0  0  0  0  0  0  0  0
   59.3890   25.5860   45.8520 O   0  0  0  0  0  0  0  0  0  0  0  0
   57.1170   26.0330   45.9800 C   0  0  0  0  0  0  0  0  0  0  0  0
   56.7900   24.6640   46.5300 C   0  0  0  0  0  0  0  0  0  0  0  0
   56.8290   23.6300   45.4340 C   0  0  0  0  0  0  0  0  0  0  0  0
   57.5060   22.4130   45.6250 C   0  0  0  0  0  0  0  0  0  0  0  0
   57.5510   21.4650   44.5990 C   0  0  0  0  0  0  0  0  0  0  0  0
   56.9330   21.7260   43.3740 C   0  0  0  0  0  0  0  0  0  0  0  0
   56.2620   22.9350   43.1740 C   0  0  0  0  0  0  0  0  0  0  0  0
   56.2070   23.8840   44.2000 C   0  0  0  0  0  0  0  0  0  0  0  0
   56.1060   26.9790   45.7280 C   0  0  0  0  0  0  0  0  0  0  0  0
   54.7760   26.6960   46.0150 O   0  0  0  0  0  0  0  0  0  0  0  0
   56.4240   28.1860   45.1940 N   0  0  0  0  0  0  0  0  0  0  0  0
   58.0660   33.0980   46.9080 N   0  0  0  0  0  0  0  0  0  0  0  0
   59.4050   33.4100   47.3180 C   0  0  0  0  0  0  0  0  0  0  0  0
   60.4690   33.4750   46.3990 C   0  0  0  0  0  0  0  0  0  0  0  0
   61.7640   33.7610   46.8420 C   0  0  0  0  0  0  0  0  0  0  0  0
   62.0090   33.9730   48.2010 C   0  0  0  0  0  0  0  0  0  0  0  0
   60.9610   33.8880   49.1220 C   0  0  0  0  0  0  0  0  0  0  0  0
   61.2050   34.0870   50.4390 F   0  0  0  0  0  0  0  0  0  0  0  0
   59.6650   33.5980   48.6830 C   0  0  0  0  0  0  0  0  0  0  0  0
   59.5582   31.1613   45.7359 H   0  0  0  0  0  0  0  0  0  0  0  0
   58.2529   30.2115   46.5482 H   0  0  0  0  0  0  0  0  0  0  0  0
   57.5263   24.3995   47.3032 H   0  0  0  0  0  0  0  0  0  0  0  0
   55.7781   24.6868   46.9608 H   0  0  0  0  0  0  0  0  0  0  0  0
   58.0019   22.2061   46.5849 H   0  0  0  0  0  0  0  0  0  0  0  0
   58.0746   20.5106   44.7567 H   0  0  0  0  0  0  0  0  0  0  0  0
   56.9746   20.9798   42.5668 H   0  0  0  0  0  0  0  0  0  0  0  0
   55.7765   23.1408   42.2086 H   0  0  0  0  0  0  0  0  0  0  0  0
   55.6746   24.8332   44.0401 H   0  0  0  0  0  0  0  0  0  0  0  0
   60.2813   33.3003   45.3293 H   0  0  0  0  0  0  0  0  0  0  0  0
   62.5912   33.8192   46.1193 H   0  0  0  0  0  0  0  0  0  0  0  0
   63.0269   34.2069   48.5463 H   0  0  0  0  0  0  0  0  0  0  0  0
   58.8455   33.5170   49.4123 H   0  0  0  0  0  0  0  0  0  0  0  0
  1  2  2  0
  2  3  1  0
  3  4  1  0
  4  5  1  0
  5  6  2  0
  6  7  1  0
  7  8  2  0
  7  9  1  0
  9 10  1  0
 10 11  1  0
 11 12  2  0
 12 13  1  0
 13 14  2  0
 14 15  1  0
 15 16  2  0
  9 17  2  0
 17 18  1  0
 17 19  1  0
  2 20  1  0
 20 21  1  0
 21 22  2  0
 22 23  1  0
 23 24  2  0
 24 25  1  0
 25 26  1  0
 25 27  2  0
 19  5  1  0
 27 21  1  0
 16 11  1  0
  3 28  1  0
  3 29  1  0
 10 30  1  0
 10 31  1  0
 12 32  1  0
 13 33  1  0
 14 34  1  0
 15 35  1  0
 16 36  1  0
 22 37  1  0
 23 38  1  0
 24 39  1  0
 27 40  1  0
M  CHG  3  18  -1  19  -1  20  -1
M  END
>  <UniqueID>  (63) 
51

>  <SMILES>  (63) 
O=C(CSc1nc(=O)c(Cc2ccccc2)c([O-])[n-]1)[N-]c1cccc(F)c1

>  <Energy>  (63) 
39.627158394562265

>  <Genealogy>  (63) 
O=C(CSc1nc(=O)c(Cc2ccccc2)c([O-])[n-]1)[N-]c1cccc(F)c1 (protonated)
O=C(CSc1nc(=O)c(Cc2ccccc2)c([O-])[n-]1)[N-]c1cccc(F)c1 (3D coordinates assigned)
O=C(CSc1nc(=O)c(Cc2ccccc2)c([O-])[n-]1)[N-]c1cccc(F)c1 (optimized conformer: 39.627158394562265 kcal/mol)

>  <smiles>  (63) 
O=C(CSc1nc(=O)c(Cc2ccccc2)c(O)[nH]1)Nc1cccc(F)c1

>  <score_type>  (63) 
oracle

>  <origin>  (63) 
adg

>  <m_score__min__energy>  (63) 
-15.73

>  <m_primary>  (63) 
energy

$$$$
63:0
     RDKit          3D

 55 58  0  0  0  0  0  0  0  0999 V2000
   55.3420   29.7230   43.7590 C   0  0  0  0  0  0  0  0  0  0  0  0
   57.0130   30.0680   43.1130 S   0  0  0  0  0  0  0  0  0  0  0  0
   57.6600   30.5650   44.7200 C   0  0  0  0  0  0  0  0  0  0  0  0
   58.1300   29.7070   45.7040 C   0  0  0  0  0  0  0  0  0  0  0  0
   58.1960   28.2110   45.5860 C   0  0  0  0  0  0  0  0  0  0  0  0
   56.8410   27.6780   45.4340 N   0  0  0  0  0  0  0  0  0  0  0  0
   56.7580   26.0440   46.0240 S   0  0  0  0  0  0  0  0  0  0  0  0
   57.2720   25.9840   47.4380 O   0  0  0  0  0  0  0  0  0  0  0  0
   55.3190   25.6130   46.0210 O   0  0  0  0  0  0  0  0  0  0  0  0
   57.6940   24.9300   44.9660 C   0  0  0  0  0  0  0  0  0  0  0  0
   57.0960   23.5290   44.8530 C   0  0  0  0  0  0  0  0  0  0  0  0
   56.8110   23.7690   43.3770 C   0  0  0  0  0  0  0  0  0  0  0  0
   57.4230   25.1580   43.4820 C   0  0  0  0  0  0  0  0  0  0  0  0
   58.5920   30.5110   46.7440 C   0  0  0  0  0  0  0  0  0  0  0  0
   59.2620   30.0660   48.0110 C   0  0  0  0  0  0  0  0  0  0  0  0
   58.3470   31.8220   46.3540 C   0  0  0  0  0  0  0  0  0  0  0  0
   58.5920   33.0160   47.0510 C   0  0  0  0  0  0  0  0  0  0  0  0
   59.1310   32.9760   48.3480 O   0  0  0  0  0  0  0  0  0  0  0  0
   59.9740   33.9750   48.9200 C   0  0  0  0  0  0  0  0  0  0  0  0
   61.4070   33.7650   48.5080 C   0  0  0  0  0  0  0  0  0  0  0  0
   61.7510   33.6960   47.1480 C   0  0  0  0  0  0  0  0  0  0  0  0
   63.0820   33.5100   46.7650 C   0  0  0  0  0  0  0  0  0  0  0  0
   64.0770   33.3810   47.7360 C   0  0  0  0  0  0  0  0  0  0  0  0
   63.7440   33.4330   49.0910 C   0  0  0  0  0  0  0  0  0  0  0  0
   62.4130   33.6190   49.4800 C   0  0  0  0  0  0  0  0  0  0  0  0
   62.1080   33.6600   50.8010 F   0  0  0  0  0  0  0  0  0  0  0  0
   58.2630   34.2240   46.3980 C   0  0  0  0  0  0  0  0  0  0  0  0
   57.6980   34.2090   45.1110 C   0  0  0  0  0  0  0  0  0  0  0  0
   57.4590   32.9870   44.4760 C   0  0  0  0  0  0  0  0  0  0  0  0
   57.7960   31.8410   45.1270 N   0  0  0  0  0  0  0  0  0  0  0  0
   55.3658   29.7279   44.8587 H   0  0  0  0  0  0  0  0  0  0  0  0
   54.6447   30.4961   43.4039 H   0  0  0  0  0  0  0  0  0  0  0  0
   55.0080   28.7369   43.4039 H   0  0  0  0  0  0  0  0  0  0  0  0
   58.7991   27.9378   44.7076 H   0  0  0  0  0  0  0  0  0  0  0  0
   58.6586   27.7898   46.4908 H   0  0  0  0  0  0  0  0  0  0  0  0
   56.6050   27.6550   44.4130 H   0  0  0  0  0  0  0  0  0  0  0  0
   58.6999   25.0672   45.3894 H   0  0  0  0  0  0  0  0  0  0  0  0
   57.8134   22.7177   45.0456 H   0  0  0  0  0  0  0  0  0  0  0  0
   56.2900   23.2116   45.5310 H   0  0  0  0  0  0  0  0  0  0  0  0
   57.3508   23.0909   42.6997 H   0  0  0  0  0  0  0  0  0  0  0  0
   55.7940   23.6383   42.9788 H   0  0  0  0  0  0  0  0  0  0  0  0
   58.3308   25.2952   42.8761 H   0  0  0  0  0  0  0  0  0  0  0  0
   56.8574   26.0410   43.1497 H   0  0  0  0  0  0  0  0  0  0  0  0
   58.6963   30.4417   48.8764 H   0  0  0  0  0  0  0  0  0  0  0  0
   59.2935   28.9669   48.0426 H   0  0  0  0  0  0  0  0  0  0  0  0
   60.2873   30.4632   48.0426 H   0  0  0  0  0  0  0  0  0  0  0  0
   59.6419   34.9663   48.5778 H   0  0  0  0  0  0  0  0  0  0  0  0
   59.9085   33.9066   50.0159 H   0  0  0  0  0  0  0  0  0  0  0  0
   60.9686   33.7889   46.3803 H   0  0  0  0  0  0  0  0  0  0  0  0
   63.3459   33.4652   45.6981 H   0  0  0  0  0  0  0  0  0  0  0  0
   65.1248   33.2382   47.4331 H   0  0  0  0  0  0  0  0  0  0  0  0
   64.5294   33.3276   49.8539 H   0  0  0  0  0  0  0  0  0  0  0  0
   58.4503   35.1844   46.9005 H   0  0  0  0  0  0  0  0  0  0  0  0
   57.4455   35.1533   44.6066 H   0  0  0  0  0  0  0  0  0  0  0  0
   57.0088   32.9527   43.4729 H   0  0  0  0  0  0  0  0  0  0  0  0
  1  2  1  0
  2  3  1  0
  3  4  2  0
  4  5  1  0
  5  6  1  0
  6  7  1  0
  7  8  2  0
  7  9  2  0
  7 10  1  0
 10 11  1  0
 11 12  1  0
 12 13  1  0
  4 14  1  0
 14 15  1  0
 14 16  2  0
 16 17  1  0
 17 18  1  0
 18 19  1  0
 19 20  1  0
 20 21  2  0
 21 22  1  0
 22 23  2  0
 23 24  1  0
 24 25  2  0
 25 26  1  0
 17 27  2  0
 27 28  1  0
 28 29  2  0
 29 30  1  0
 30  3  1  0
 13 10  1  0
 30 16  1  0
 25 20  1  0
  1 31  1  0
  1 32  1  0
  1 33  1  0
  5 34  1  0
  5 35  1  0
  6 36  1  0
 10 37  1  0
 11 38  1  0
 11 39  1  0
 12 40  1  0
 12 41  1  0
 13 42  1  0
 13 43  1  0
 15 44  1  0
 15 45  1  0
 15 46  1  0
 19 47  1  0
 19 48  1  0
 21 49  1  0
 22 50  1  0
 23 51  1  0
 24 52  1  0
 27 53  1  0
 28 54  1  0
 29 55  1  0
M  END
>  <UniqueID>  (64) 
52

>  <SMILES>  (64) 
CSc1c(CNS(=O)(=O)C2CCC2)c(C)c2c(OCc3ccccc3F)cccn12

>  <Energy>  (64) 
137.8177745328504

>  <Genealogy>  (64) 
CSc1c(CNS(=O)(=O)C2CCC2)c(C)c2c(OCc3ccccc3F)cccn12 (3D coordinates assigned)
CSc1c(CNS(=O)(=O)C2CCC2)c(C)c2c(OCc3ccccc3F)cccn12 (nonaromatic ring conformer: 137.8177745328504 kcal/mol)

>  <smiles>  (64) 
CSc1c(CNS(=O)(=O)C2CCC2)c(C)c2c(OCc3ccccc3F)cccn12

>  <score_type>  (64) 
oracle

>  <origin>  (64) 
adg

>  <m_score__min__energy>  (64) 
-10.1

>  <m_primary>  (64) 
energy

$$$$
64:0
     RDKit          3D

 41 43  0  0  0  0  0  0  0  0999 V2000
   55.8680   24.4740   47.6950 O   0  0  0  0  0  0  0  0  0  0  0  0
   55.9310   24.9340   46.5240 C   0  0  0  0  0  0  0  0  0  0  0  0
   55.8370   26.3540   46.3390 N   0  0  0  0  0  0  0  0  0  0  0  0
   56.8980   27.2280   45.9230 C   0  0  0  0  0  0  0  0  0  0  0  0
   56.6240   28.4430   45.2680 C   0  0  0  0  0  0  0  0  0  0  0  0
   57.6680   29.2860   44.8660 C   0  0  0  0  0  0  0  0  0  0  0  0
   57.3230   30.8140   44.0590 S   0  0  0  0  0  0  0  0  0  0  0  0
   57.2480   30.5960   42.5730 O   0  0  0  0  0  0  0  0  0  0  0  0
   55.9870   31.3130   44.5360 O   0  0  0  0  0  0  0  0  0  0  0  0
   58.5770   31.9700   44.4540 N   0  0  0  0  0  0  0  0  0  0  0  0
   58.2410   33.3330   43.9850 C   0  0  0  0  0  0  0  0  0  0  0  0
   57.6710   34.2250   45.1030 C   0  0  0  0  0  0  0  0  0  0  0  0
   56.9430   33.4480   46.0260 O   0  0  0  0  0  0  0  0  0  0  0  0
   57.8180   32.6090   46.7590 C   0  0  0  0  0  0  0  0  0  0  0  0
   58.9100   31.9410   45.8890 C   0  0  0  0  0  0  0  0  0  0  0  0
   58.9940   28.8990   45.0860 C   0  0  0  0  0  0  0  0  0  0  0  0
   59.2760   27.6820   45.7100 C   0  0  0  0  0  0  0  0  0  0  0  0
   58.2370   26.8430   46.1280 C   0  0  0  0  0  0  0  0  0  0  0  0
   58.5580   25.6350   46.7480 O   0  0  0  0  0  0  0  0  0  0  0  0
   56.0510   23.9980   45.3820 C   0  0  0  0  0  0  0  0  0  0  0  0
   54.9610   23.7420   44.5350 C   0  0  0  0  0  0  0  0  0  0  0  0
   55.0920   22.8850   43.4880 N   0  0  0  0  0  0  0  0  0  0  0  0
   56.2620   22.2450   43.2270 C   0  0  0  0  0  0  0  0  0  0  0  0
   56.3370   21.4630   42.2410 O   0  0  0  0  0  0  0  0  0  0  0  0
   57.3740   22.4560   44.0520 C   0  0  0  0  0  0  0  0  0  0  0  0
   58.9010   21.6430   43.7440 Cl  0  0  0  0  0  0  0  0  0  0  0  0
   57.2610   23.3310   45.1360 C   0  0  0  0  0  0  0  0  0  0  0  0
   55.5816   28.7331   45.0701 H   0  0  0  0  0  0  0  0  0  0  0  0
   59.1535   33.8039   43.5905 H   0  0  0  0  0  0  0  0  0  0  0  0
   57.4652   33.2352   43.2114 H   0  0  0  0  0  0  0  0  0  0  0  0
   58.4994   34.7265   45.6248 H   0  0  0  0  0  0  0  0  0  0  0  0
   56.9989   34.9725   44.6563 H   0  0  0  0  0  0  0  0  0  0  0  0
   58.3122   33.2140   47.5334 H   0  0  0  0  0  0  0  0  0  0  0  0
   57.2068   31.8004   47.1863 H   0  0  0  0  0  0  0  0  0  0  0  0
   59.8599   32.4741   46.0426 H   0  0  0  0  0  0  0  0  0  0  0  0
   58.9866   30.8873   46.1955 H   0  0  0  0  0  0  0  0  0  0  0  0
   59.8170   29.5552   44.7666 H   0  0  0  0  0  0  0  0  0  0  0  0
   60.3212   27.3810   45.8740 H   0  0  0  0  0  0  0  0  0  0  0  0
   57.8930   25.1210   47.3120 H   0  0  0  0  0  0  0  0  0  0  0  0
   53.9963   24.2373   44.7195 H   0  0  0  0  0  0  0  0  0  0  0  0
   58.1233   23.4974   45.7985 H   0  0  0  0  0  0  0  0  0  0  0  0
  1  2  2  0
  2  3  1  0
  3  4  1  0
  4  5  2  0
  5  6  1  0
  6  7  1  0
  7  8  2  0
  7  9  2  0
  7 10  1  0
 10 11  1  0
 11 12  1  0
 12 13  1  0
 13 14  1  0
 14 15  1  0
  6 16  2  0
 16 17  1  0
 17 18  2  0
 18 19  1  0
  2 20  1  0
 20 21  2  0
 21 22  1  0
 22 23  1  0
 23 24  2  0
 23 25  1  0
 25 26  1  0
 25 27  2  0
 18  4  1  0
 27 20  1  0
 15 10  1  0
  5 28  1  0
 11 29  1  0
 11 30  1  0
 12 31  1  0
 12 32  1  0
 14 33  1  0
 14 34  1  0
 15 35  1  0
 15 36  1  0
 16 37  1  0
 17 38  1  0
 19 39  1  0
 21 40  1  0
 27 41  1  0
M  CHG  2   3  -1  22  -1
M  END
>  <UniqueID>  (65) 
53

>  <SMILES>  (65) 
O=C([N-]c1cc(S(=O)(=O)N2CCOCC2)ccc1O)c1c[n-]c(=O)c(Cl)c1

>  <Energy>  (65) 
61.63034267279189

>  <Genealogy>  (65) 
O=C([N-]c1cc(S(=O)(=O)N2CCOCC2)ccc1O)c1c[n-]c(=O)c(Cl)c1 (protonated)
O=C([N-]c1cc(S(=O)(=O)N2CCOCC2)ccc1O)c1c[n-]c(=O)c(Cl)c1 (3D coordinates assigned)
O=C([N-]c1cc(S(=O)(=O)N2CCOCC2)ccc1O)c1c[n-]c(=O)c(Cl)c1 (nonaromatic ring conformer: 61.63034267279189 kcal/mol)

>  <smiles>  (65) 
O=C(Nc1cc(S(=O)(=O)N2CCOCC2)ccc1O)c1c[nH]c(=O)c(Cl)c1

>  <score_type>  (65) 
oracle

>  <origin>  (65) 
adg

>  <m_score__min__energy>  (65) 
-12.369999999999999

>  <m_primary>  (65) 
energy

$$$$
65:0
     RDKit          3D

 48 51  0  0  0  0  0  0  0  0999 V2000
   57.6202   21.0064   43.1393 H   0  0  0  0  0  0  0  0  0  0  0  0
   57.3750   21.9460   43.6560 C   0  0  0  0  0  0  0  0  0  0  0  0
   58.1530   22.3750   44.7330 C   0  0  0  0  0  0  0  0  0  0  0  0
   59.0133   21.7735   45.0619 H   0  0  0  0  0  0  0  0  0  0  0  0
   57.8420   23.5670   45.3950 C   0  0  0  0  0  0  0  0  0  0  0  0
   58.4620   23.9014   46.2399 H   0  0  0  0  0  0  0  0  0  0  0  0
   56.7400   24.3410   44.9860 C   0  0  0  0  0  0  0  0  0  0  0  0
   56.4140   25.6070   45.6910 C   0  0  0  0  0  0  0  0  0  0  0  0
   55.2160   25.8670   45.9830 O   0  0  0  0  0  0  0  0  0  0  0  0
   57.4380   26.5150   46.1250 N   0  0  0  0  0  0  0  0  0  0  0  0
   57.5990   27.7500   45.7390 C   0  0  0  0  0  0  0  0  0  0  0  0
   58.6500   28.4520   46.2350 N   0  0  0  0  0  0  0  0  0  0  0  0
   58.8750   29.7440   45.8830 C   0  0  0  0  0  0  0  0  0  0  0  0
   58.0250   30.3770   44.9650 C   0  0  0  0  0  0  0  0  0  0  0  0
   56.9280   29.6460   44.4820 C   0  0  0  0  0  0  0  0  0  0  0  0
   56.2244   30.1164   43.7794 H   0  0  0  0  0  0  0  0  0  0  0  0
   56.7300   28.3610   44.8770 N   0  0  0  0  0  0  0  0  0  0  0  0
   55.8810   27.8720   44.5200 H   0  0  0  0  0  0  0  0  0  0  0  0
   58.2670   31.7490   44.5850 N   0  0  0  0  0  0  0  0  0  0  0  0
   57.5790   32.3580   43.4400 C   0  0  0  0  0  0  0  0  0  0  0  0
   56.8015   33.0462   43.8031 H   0  0  0  0  0  0  0  0  0  0  0  0
   58.3053   32.9146   42.8295 H   0  0  0  0  0  0  0  0  0  0  0  0
   57.1147   31.5695   42.8295 H   0  0  0  0  0  0  0  0  0  0  0  0
   59.1290   32.5420   45.4220 C   0  0  0  0  0  0  0  0  0  0  0  0
   59.2260   33.7870   45.2370 O   0  0  0  0  0  0  0  0  0  0  0  0
   59.8820   31.9050   46.4720 N   0  0  0  0  0  0  0  0  0  0  0  0
   60.5670   32.6920   47.4690 C   0  0  0  0  0  0  0  0  0  0  0  0
   59.8410   33.4460   48.4060 C   0  0  0  0  0  0  0  0  0  0  0  0
   58.7413   33.4321   48.3848 H   0  0  0  0  0  0  0  0  0  0  0  0
   60.5070   34.2130   49.3640 C   0  0  0  0  0  0  0  0  0  0  0  0
   59.9309   34.7972   50.0967 H   0  0  0  0  0  0  0  0  0  0  0  0
   61.9040   34.2400   49.3940 C   0  0  0  0  0  0  0  0  0  0  0  0
   62.4246   34.8436   50.1520 H   0  0  0  0  0  0  0  0  0  0  0  0
   62.6470   33.4970   48.4570 C   0  0  0  0  0  0  0  0  0  0  0  0
   64.0500   33.4960   48.4420 O   0  0  0  0  0  0  0  0  0  0  0  0
   64.8640   32.7890   49.3710 C   0  0  0  0  0  0  0  0  0  0  0  0
   64.5626   33.0508   50.3960 H   0  0  0  0  0  0  0  0  0  0  0  0
   64.7403   31.7068   49.2175 H   0  0  0  0  0  0  0  0  0  0  0  0
   65.9182   33.0630   49.2175 H   0  0  0  0  0  0  0  0  0  0  0  0
   61.9710   32.7290   47.5020 C   0  0  0  0  0  0  0  0  0  0  0  0
   62.5467   32.1466   46.7675 H   0  0  0  0  0  0  0  0  0  0  0  0
   60.0880   30.4530   46.4150 C   0  0  0  0  0  0  0  0  0  0  0  0
   60.9437   30.2392   45.7577 H   0  0  0  0  0  0  0  0  0  0  0  0
   60.2781   30.0916   47.4364 H   0  0  0  0  0  0  0  0  0  0  0  0
   55.9690   23.9050   43.8920 C   0  0  0  0  0  0  0  0  0  0  0  0
   55.1133   24.5068   43.5520 H   0  0  0  0  0  0  0  0  0  0  0  0
   56.2840   22.7120   43.2350 C   0  0  0  0  0  0  0  0  0  0  0  0
   55.6722   22.3753   42.3851 H   0  0  0  0  0  0  0  0  0  0  0  0
  1  2  1  0
  2  3  2  0
  3  4  1  0
  3  5  1  0
  5  6  1  0
  5  7  2  0
  7  8  1  0
  8  9  2  0
  8 10  1  0
 10 11  2  0
 11 12  1  0
 12 13  2  0
 13 14  1  0
 14 15  2  0
 15 16  1  0
 15 17  1  0
 17 18  1  0
 14 19  1  0
 19 20  1  0
 20 21  1  0
 20 22  1  0
 20 23  1  0
 19 24  1  0
 24 25  2  0
 24 26  1  0
 26 27  1  0
 27 28  2  0
 28 29  1  0
 28 30  1  0
 30 31  1  0
 30 32  2  0
 32 33  1  0
 32 34  1  0
 34 35  1  0
 35 36  1  0
 36 37  1  0
 36 38  1  0
 36 39  1  0
 34 40  2  0
 40 41  1  0
 26 42  1  0
 42 43  1  0
 42 44  1  0
  7 45  1  0
 45 46  1  0
 45 47  2  0
 47 48  1  0
 47  2  1  0
 17 11  1  0
 40 27  1  0
 42 13  1  0
M  END
>  <UniqueID>  (66) 
54

>  <SMILES>  (66) 
COc1cccc(N2Cc3n/c(=N/C(=O)c4ccccc4)[nH]cc3N(C)C2=O)c1

>  <Energy>  (66) 
70.78236095104141

>  <Genealogy>  (66) 
COc1cccc(N2Cc3n/c(=N/C(=O)c4ccccc4)[nH]cc3N(C)C2=O)c1 (cis-trans isomerization)
COc1cccc(N2Cc3n/c(=N/C(=O)c4ccccc4)[nH]cc3N(C)C2=O)c1 (3D coordinates assigned)
COc1cccc(N2Cc3n/c(=N/C(=O)c4ccccc4)[nH]cc3N(C)C2=O)c1 (nonaromatic ring conformer: 70.78236095104141 kcal/mol)

>  <smiles>  (66) 
COc1cccc(N2Cc3nc(=NC(=O)c4ccccc4)[nH]cc3N(C)C2=O)c1

>  <score_type>  (66) 
oracle

>  <origin>  (66) 
adg

>  <m_score__min__energy>  (66) 
-8.4399999999999995

>  <m_primary>  (66) 
energy

$$$$
66:0
     RDKit          3D

 60 63  0  0  0  0  0  0  0  0999 V2000
   57.0710   28.2320   42.3520 N   0  0  0  0  0  0  0  0  0  0  0  0
   56.2680   29.4500   42.2930 C   0  0  0  0  0  0  0  0  0  0  0  0
   56.9030   30.5580   43.0940 C   0  0  0  0  0  0  0  0  0  0  0  0
   56.8600   30.5330   44.4970 C   0  0  0  0  0  0  0  0  0  0  0  0
   57.4250   31.5730   45.2420 C   0  0  0  0  0  0  0  0  0  0  0  0
   58.0330   32.6640   44.5930 C   0  0  0  0  0  0  0  0  0  0  0  0
   58.6580   33.7610   45.3710 C   0  0  0  0  0  0  0  0  0  0  0  0
   59.1840   34.7330   44.7650 O   0  0  0  0  0  0  0  0  0  0  0  0
   58.6560   33.7350   46.8060 N   0  0  0  0  0  0  0  0  0  0  0  0
   59.5930   34.5190   47.6200 C   0  0  0  0  0  0  0  0  0  0  0  0
   59.6500   33.9570   49.0480 C   0  0  0  0  0  0  0  0  0  0  0  0
   60.3980   32.6090   49.1120 C   0  0  0  0  0  0  0  0  0  0  0  0
   61.6660   32.5700   48.3310 N   0  0  0  0  0  0  0  0  0  0  0  0
   61.6420   31.5070   47.3000 C   0  0  0  0  0  0  0  0  0  0  0  0
   60.8020   30.3310   47.7230 C   0  0  0  0  0  0  0  0  0  0  0  0
   61.0850   29.6490   48.9150 C   0  0  0  0  0  0  0  0  0  0  0  0
   60.2870   28.5740   49.3140 C   0  0  0  0  0  0  0  0  0  0  0  0
   59.1970   28.1790   48.5340 C   0  0  0  0  0  0  0  0  0  0  0  0
   58.8940   28.8590   47.3480 C   0  0  0  0  0  0  0  0  0  0  0  0
   57.7680   28.4290   46.5680 N   0  0  0  0  0  0  0  0  0  0  0  0
   57.8060   27.5830   45.4080 C   0  0  0  0  0  0  0  0  0  0  0  0
   58.5740   27.8900   44.4600 O   0  0  0  0  0  0  0  0  0  0  0  0
   57.0030   26.3470   45.3060 C   0  0  0  0  0  0  0  0  0  0  0  0
   57.2410   25.2870   44.4460 C   0  0  0  0  0  0  0  0  0  0  0  0
   56.2590   24.3570   44.7200 C   0  0  0  0  0  0  0  0  0  0  0  0
   56.0720   22.7920   43.9580 Cl  0  0  0  0  0  0  0  0  0  0  0  0
   55.4580   24.8820   45.7120 C   0  0  0  0  0  0  0  0  0  0  0  0
   55.9120   26.1000   46.0600 N   0  0  0  0  0  0  0  0  0  0  0  0
   59.7260   29.9100   46.9270 C   0  0  0  0  0  0  0  0  0  0  0  0
   62.0800   33.8900   47.8010 C   0  0  0  0  0  0  0  0  0  0  0  0
   60.9860   34.5520   46.9490 C   0  0  0  0  0  0  0  0  0  0  0  0
   58.0670   32.6870   43.1850 C   0  0  0  0  0  0  0  0  0  0  0  0
   57.4990   31.6490   42.4430 C   0  0  0  0  0  0  0  0  0  0  0  0
   58.0760   28.4960   42.4620 H   0  0  0  0  0  0  0  0  0  0  0  0
   56.7940   27.6860   43.1990 H   0  0  0  0  0  0  0  0  0  0  0  0
   56.1781   29.7706   41.2446 H   0  0  0  0  0  0  0  0  0  0  0  0
   55.2764   29.2356   42.7181 H   0  0  0  0  0  0  0  0  0  0  0  0
   56.3786   29.6897   45.0138 H   0  0  0  0  0  0  0  0  0  0  0  0
   57.3941   31.5382   46.3410 H   0  0  0  0  0  0  0  0  0  0  0  0
   57.9370   33.1540   47.2910 H   0  0  0  0  0  0  0  0  0  0  0  0
   59.2387   35.5581   47.6891 H   0  0  0  0  0  0  0  0  0  0  0  0
   60.1683   34.6812   49.6937 H   0  0  0  0  0  0  0  0  0  0  0  0
   58.6173   33.7877   49.3868 H   0  0  0  0  0  0  0  0  0  0  0  0
   60.6360   32.3975   50.1649 H   0  0  0  0  0  0  0  0  0  0  0  0
   59.7304   31.8585   48.6636 H   0  0  0  0  0  0  0  0  0  0  0  0
   61.2277   31.9234   46.3700 H   0  0  0  0  0  0  0  0  0  0  0  0
   62.6730   31.1530   47.1523 H   0  0  0  0  0  0  0  0  0  0  0  0
   61.9369   29.9610   49.5371 H   0  0  0  0  0  0  0  0  0  0  0  0
   60.5176   28.0365   50.2456 H   0  0  0  0  0  0  0  0  0  0  0  0
   58.5743   27.3302   48.8530 H   0  0  0  0  0  0  0  0  0  0  0  0
   58.0453   25.2041   43.7001 H   0  0  0  0  0  0  0  0  0  0  0  0
   54.5823   24.3819   46.1514 H   0  0  0  0  0  0  0  0  0  0  0  0
   55.5040   26.7210   46.7940 H   0  0  0  0  0  0  0  0  0  0  0  0
   59.5321   30.4071   45.9650 H   0  0  0  0  0  0  0  0  0  0  0  0
   62.3164   34.5515   48.6475 H   0  0  0  0  0  0  0  0  0  0  0  0
   62.9559   33.7307   47.1549 H   0  0  0  0  0  0  0  0  0  0  0  0
   61.2656   35.6013   46.7736 H   0  0  0  0  0  0  0  0  0  0  0  0
   60.9119   33.9837   46.0101 H   0  0  0  0  0  0  0  0  0  0  0  0
   58.5453   33.5302   42.6651 H   0  0  0  0  0  0  0  0  0  0  0  0
   57.5189   31.6868   41.3438 H   0  0  0  0  0  0  0  0  0  0  0  0
  1  2  1  0
  2  3  1  0
  3  4  2  0
  4  5  1  0
  5  6  2  0
  6  7  1  0
  7  8  2  0
  7  9  1  0
  9 10  1  0
 10 11  1  0
 11 12  1  0
 12 13  1  0
 13 14  1  0
 14 15  1  0
 15 16  2  0
 16 17  1  0
 17 18  2  0
 18 19  1  0
 19 20  1  0
 20 21  1  0
 21 22  2  0
 21 23  1  0
 23 24  2  0
 24 25  1  0
 25 26  1  0
 25 27  2  0
 27 28  1  0
 19 29  2  0
 13 30  1  0
 30 31  1  0
  6 32  1  0
 32 33  2  0
 33  3  1  0
 31 10  1  0
 29 15  1  0
 28 23  1  0
  1 34  1  0
  1 35  1  0
  2 36  1  0
  2 37  1  0
  4 38  1  0
  5 39  1  0
  9 40  1  0
 10 41  1  0
 11 42  1  0
 11 43  1  0
 12 44  1  0
 12 45  1  0
 14 46  1  0
 14 47  1  0
 16 48  1  0
 17 49  1  0
 18 50  1  0
 24 51  1  0
 27 52  1  0
 28 53  1  0
 29 54  1  0
 30 55  1  0
 30 56  1  0
 31 57  1  0
 31 58  1  0
 32 59  1  0
 33 60  1  0
M  CHG  1  20  -1
M  END
>  <UniqueID>  (67) 
55

>  <SMILES>  (67) 
NCc1ccc(C(=O)NC2CCN(Cc3cccc([N-]C(=O)c4cc(Cl)c[nH]4)c3)CC2)cc1

>  <Energy>  (67) 
102.92609356066959

>  <Genealogy>  (67) 
NCc1ccc(C(=O)NC2CCN(Cc3cccc([N-]C(=O)c4cc(Cl)c[nH]4)c3)CC2)cc1 (protonated)
NCc1ccc(C(=O)NC2CCN(Cc3cccc([N-]C(=O)c4cc(Cl)c[nH]4)c3)CC2)cc1 (3D coordinates assigned)
NCc1ccc(C(=O)NC2CCN(Cc3cccc([N-]C(=O)c4cc(Cl)c[nH]4)c3)CC2)cc1 (nonaromatic ring conformer: 102.92609356066959 kcal/mol)

>  <smiles>  (67) 
NCc1ccc(C(=O)NC2CCN(Cc3cccc(NC(=O)c4cc(Cl)c[nH]4)c3)CC2)cc1

>  <score_type>  (67) 
oracle

>  <origin>  (67) 
adg

>  <m_score__min__energy>  (67) 
-11.140000000000001

>  <m_primary>  (67) 
energy

$$$$
67:0
     RDKit          3D

102108  0  0  0  0  0  0  0  0999 V2000
   61.1590   30.0140   54.2530 C   0  0  0  0  0  0  0  0  0  0  0  0
   60.1260   31.0070   54.5890 N   0  0  0  0  0  0  0  0  0  0  0  0
   60.2720   32.1950   53.7120 C   0  0  0  0  0  0  0  0  0  0  0  0
   58.9970   33.0480   53.6880 C   0  0  0  0  0  0  0  0  0  0  0  0
   57.7770   32.2450   53.1630 C   0  0  0  0  0  0  0  0  0  0  0  0
   57.4120   32.6280   51.7200 C   0  0  0  0  0  0  0  0  0  0  0  0
   58.5720   32.6080   50.8930 O   0  0  0  0  0  0  0  0  0  0  0  0
   59.0400   31.4680   50.2250 C   0  0  0  0  0  0  0  0  0  0  0  0
   58.5570   31.1020   48.9680 C   0  0  0  0  0  0  0  0  0  0  0  0
   59.0450   29.9620   48.3280 C   0  0  0  0  0  0  0  0  0  0  0  0
   58.5490   29.6030   46.9840 C   0  0  0  0  0  0  0  0  0  0  0  0
   58.8080   28.4690   46.4960 O   0  0  0  0  0  0  0  0  0  0  0  0
   57.7640   30.5380   46.2400 N   0  0  0  0  0  0  0  0  0  0  0  0
   58.1560   31.8930   45.9760 C   0  0  0  0  0  0  0  0  0  0  0  0
   57.3070   32.7210   45.2360 C   0  0  0  0  0  0  0  0  0  0  0  0
   57.7070   34.0120   44.8840 C   0  0  0  0  0  0  0  0  0  0  0  0
   58.9790   34.4690   45.2290 C   0  0  0  0  0  0  0  0  0  0  0  0
   59.8710   33.6440   45.9420 C   0  0  0  0  0  0  0  0  0  0  0  0
   61.2010   34.1400   46.2550 N   0  0  0  0  0  0  0  0  0  0  0  0
   61.7320   33.5930   47.4830 C   0  0  0  0  0  0  0  0  0  0  0  0
   62.8910   32.7730   47.4620 C   0  0  0  0  0  0  0  0  0  0  0  0
   63.4960   32.3800   48.6220 N   0  0  0  0  0  0  0  0  0  0  0  0
   62.9770   32.8010   49.8040 C   0  0  0  0  0  0  0  0  0  0  0  0
   61.8550   33.5670   49.8710 C   0  0  0  0  0  0  0  0  0  0  0  0
   61.6510   33.8060   51.2080 C   0  0  0  0  0  0  0  0  0  0  0  0
   62.6510   33.2050   51.9020 N   0  0  0  0  0  0  0  0  0  0  0  0
   63.4710   32.6050   51.0430 N   0  0  0  0  0  0  0  0  0  0  0  0
   64.6660   31.8660   51.4720 C   0  0  0  0  0  0  0  0  0  0  0  0
   65.7250   31.8460   50.3440 C   0  0  0  0  0  0  0  0  0  0  0  0
   67.1410   31.5430   50.8700 C   0  0  0  0  0  0  0  0  0  0  0  0
   67.0660   30.7890   52.1310 N   0  0  0  0  0  0  0  0  0  0  0  0
   67.4980   29.4180   52.1940 C   0  0  0  0  0  0  0  0  0  0  0  0
   67.5840   28.8410   53.3120 O   0  0  0  0  0  0  0  0  0  0  0  0
   67.8040   28.7270   51.0150 O   0  0  0  0  0  0  0  0  0  0  0  0
   67.8710   27.3020   50.8620 C   0  0  0  0  0  0  0  0  0  0  0  0
   66.4910   26.6730   51.1310 C   0  0  0  0  0  0  0  0  0  0  0  0
   68.2660   27.0180   49.4060 C   0  0  0  0  0  0  0  0  0  0  0  0
   68.9430   26.7030   51.7930 C   0  0  0  0  0  0  0  0  0  0  0  0
   66.3580   31.3900   53.2760 C   0  0  0  0  0  0  0  0  0  0  0  0
   65.2750   32.3750   52.8000 C   0  0  0  0  0  0  0  0  0  0  0  0
   61.1870   33.9810   48.7290 C   0  0  0  0  0  0  0  0  0  0  0  0
   59.4200   32.3740   46.3690 C   0  0  0  0  0  0  0  0  0  0  0  0
   60.0370   29.1940   48.9690 C   0  0  0  0  0  0  0  0  0  0  0  0
   60.5150   28.1770   48.3890 O   0  0  0  0  0  0  0  0  0  0  0  0
   60.5130   29.5680   50.2020 N   0  0  0  0  0  0  0  0  0  0  0  0
   61.5180   28.7790   50.8690 C   0  0  0  0  0  0  0  0  0  0  0  0
   61.2640   27.4410   51.2140 C   0  0  0  0  0  0  0  0  0  0  0  0
   62.1970   26.7190   51.9610 C   0  0  0  0  0  0  0  0  0  0  0  0
   63.3930   27.3190   52.3610 C   0  0  0  0  0  0  0  0  0  0  0  0
   63.6600   28.6470   52.0140 C   0  0  0  0  0  0  0  0  0  0  0  0
   62.7330   29.3680   51.2600 C   0  0  0  0  0  0  0  0  0  0  0  0
   60.0420   30.6980   50.8150 C   0  0  0  0  0  0  0  0  0  0  0  0
   57.9790   30.7210   53.3100 C   0  0  0  0  0  0  0  0  0  0  0  0
   58.7640   30.4030   54.5890 C   0  0  0  0  0  0  0  0  0  0  0  0
   61.5871   29.6025   55.1790 H   0  0  0  0  0  0  0  0  0  0  0  0
   60.7086   29.2012   53.6644 H   0  0  0  0  0  0  0  0  0  0  0  0
   61.9534   30.4961   53.6644 H   0  0  0  0  0  0  0  0  0  0  0  0
   61.1049   32.8106   54.0827 H   0  0  0  0  0  0  0  0  0  0  0  0
   60.4653   31.8416   52.6884 H   0  0  0  0  0  0  0  0  0  0  0  0
   58.7818   33.3957   54.7092 H   0  0  0  0  0  0  0  0  0  0  0  0
   59.1659   33.8968   53.0090 H   0  0  0  0  0  0  0  0  0  0  0  0
   56.9229   32.5219   53.7984 H   0  0  0  0  0  0  0  0  0  0  0  0
   56.6759   31.9100   51.3294 H   0  0  0  0  0  0  0  0  0  0  0  0
   56.9882   33.6431   51.7163 H   0  0  0  0  0  0  0  0  0  0  0  0
   57.7867   31.7160   48.4785 H   0  0  0  0  0  0  0  0  0  0  0  0
   56.3169   32.3532   44.9288 H   0  0  0  0  0  0  0  0  0  0  0  0
   57.0178   34.6695   44.3338 H   0  0  0  0  0  0  0  0  0  0  0  0
   59.2889   35.4845   44.9412 H   0  0  0  0  0  0  0  0  0  0  0  0
   61.8590   33.8850   45.4750 H   0  0  0  0  0  0  0  0  0  0  0  0
   61.1510   35.1860   46.2990 H   0  0  0  0  0  0  0  0  0  0  0  0
   63.3080   32.4493   46.4970 H   0  0  0  0  0  0  0  0  0  0  0  0
   60.8214   34.3840   51.6412 H   0  0  0  0  0  0  0  0  0  0  0  0
   64.3337   30.8375   51.6762 H   0  0  0  0  0  0  0  0  0  0  0  0
   65.4472   31.0725   49.6129 H   0  0  0  0  0  0  0  0  0  0  0  0
   65.7451   32.8461   49.8865 H   0  0  0  0  0  0  0  0  0  0  0  0
   67.6861   30.9475   50.1228 H   0  0  0  0  0  0  0  0  0  0  0  0
   67.6665   32.4922   51.0510 H   0  0  0  0  0  0  0  0  0  0  0  0
   66.3273   26.5984   52.2162 H   0  0  0  0  0  0  0  0  0  0  0  0
   65.7076   27.3030   50.6845 H   0  0  0  0  0  0  0  0  0  0  0  0
   66.4526   25.6684   50.6845 H   0  0  0  0  0  0  0  0  0  0  0  0
   69.1590   26.3760   49.3869 H   0  0  0  0  0  0  0  0  0  0  0  0
   67.4367   26.5080   48.8939 H   0  0  0  0  0  0  0  0  0  0  0  0
   68.4853   27.9665   48.8939 H   0  0  0  0  0  0  0  0  0  0  0  0
   68.6511   26.8661   52.8409 H   0  0  0  0  0  0  0  0  0  0  0  0
   69.0334   25.6236   51.6013 H   0  0  0  0  0  0  0  0  0  0  0  0
   69.9097   27.1917   51.6013 H   0  0  0  0  0  0  0  0  0  0  0  0
   65.8838   30.5912   53.8651 H   0  0  0  0  0  0  0  0  0  0  0  0
   67.0870   31.9403   53.8890 H   0  0  0  0  0  0  0  0  0  0  0  0
   64.4850   32.4482   53.5619 H   0  0  0  0  0  0  0  0  0  0  0  0
   65.7238   33.3668   52.6423 H   0  0  0  0  0  0  0  0  0  0  0  0
   60.2706   34.5865   48.7895 H   0  0  0  0  0  0  0  0  0  0  0  0
   60.0620   31.7560   47.0139 H   0  0  0  0  0  0  0  0  0  0  0  0
   60.3273   26.9607   50.8947 H   0  0  0  0  0  0  0  0  0  0  0  0
   61.9893   25.6742   52.2353 H   0  0  0  0  0  0  0  0  0  0  0  0
   64.1253   26.7466   52.9493 H   0  0  0  0  0  0  0  0  0  0  0  0
   64.5987   29.1224   52.3347 H   0  0  0  0  0  0  0  0  0  0  0  0
   62.9549   30.4054   50.9694 H   0  0  0  0  0  0  0  0  0  0  0  0
   60.4595   31.0027   51.7860 H   0  0  0  0  0  0  0  0  0  0  0  0
   56.9965   30.2286   53.3567 H   0  0  0  0  0  0  0  0  0  0  0  0
   58.5475   30.3527   52.4433 H   0  0  0  0  0  0  0  0  0  0  0  0
   58.2051   30.7938   55.4520 H   0  0  0  0  0  0  0  0  0  0  0  0
   58.8833   29.3109   54.6445 H   0  0  0  0  0  0  0  0  0  0  0  0
  1  2  1  0
  2  3  1  0
  3  4  1  0
  4  5  1  0
  5  6  1  0
  6  7  1  0
  7  8  1  0
  8  9  1  0
  9 10  2  0
 10 11  1  0
 11 12  2  0
 11 13  1  0
 13 14  1  0
 14 15  2  0
 15 16  1  0
 16 17  2  0
 17 18  1  0
 18 19  1  0
 19 20  1  0
 20 21  2  0
 21 22  1  0
 22 23  2  0
 23 24  1  0
 24 25  1  0
 25 26  2  0
 26 27  1  0
 27 28  1  0
 28 29  1  0
 29 30  1  0
 30 31  1  0
 31 32  1  0
 32 33  2  0
 32 34  1  0
 34 35  1  0
 35 36  1  0
 35 37  1  0
 35 38  1  0
 31 39  1  0
 39 40  1  0
 24 41  2  0
 18 42  2  0
 10 43  1  0
 43 44  2  0
 43 45  1  0
 45 46  1  0
 46 47  2  0
 47 48  1  0
 48 49  2  0
 49 50  1  0
 50 51  2  0
 45 52  1  0
  5 53  1  0
 53 54  1  0
 54  2  1  0
 52  8  2  0
 42 14  1  0
 51 46  1  0
 41 20  1  0
 27 23  1  0
 40 28  1  0
  1 55  1  0
  1 56  1  0
  1 57  1  0
  3 58  1  0
  3 59  1  0
  4 60  1  0
  4 61  1  0
  5 62  1  0
  6 63  1  0
  6 64  1  0
  9 65  1  0
 15 66  1  0
 16 67  1  0
 17 68  1  0
 19 69  1  0
 19 70  1  0
 21 71  1  0
 25 72  1  0
 28 73  1  0
 29 74  1  0
 29 75  1  0
 30 76  1  0
 30 77  1  0
 36 78  1  0
 36 79  1  0
 36 80  1  0
 37 81  1  0
 37 82  1  0
 37 83  1  0
 38 84  1  0
 38 85  1  0
 38 86  1  0
 39 87  1  0
 39 88  1  0
 40 89  1  0
 40 90  1  0
 41 91  1  0
 42 92  1  0
 47 93  1  0
 48 94  1  0
 49 95  1  0
 50 96  1  0
 51 97  1  0
 52 98  1  0
 53 99  1  0
 53100  1  0
 54101  1  0
 54102  1  0
M  CHG  2  13  -1  19   1
M  END
>  <UniqueID>  (68) 
56

>  <SMILES>  (68) 
CN1CCC(COc2cc(C(=O)[N-]c3cccc([NH2+]c4cnc5c(cnn5C5CCN(C(=O)OC(C)(C)C)CC5)c4)c3)c(=O)n(-c3ccccc3)c2)CC1

>  <Energy>  (68) 
185.13751404643654

>  <Genealogy>  (68) 
CN1CCC(COc2cc(C(=O)[N-]c3cccc([NH2+]c4cnc5c(cnn5C5CCN(C(=O)OC(C)(C)C)CC5)c4)c3)c(=O)n(-c3ccccc3)c2)CC1 (protonated)
CN1CCC(COc2cc(C(=O)[N-]c3cccc([NH2+]c4cnc5c(cnn5C5CCN(C(=O)OC(C)(C)C)CC5)c4)c3)c(=O)n(-c3ccccc3)c2)CC1 (3D coordinates assigned)
CN1CCC(COc2cc(C(=O)[N-]c3cccc([NH2+]c4cnc5c(cnn5C5CCN(C(=O)OC(C)(C)C)CC5)c4)c3)c(=O)n(-c3ccccc3)c2)CC1 (nonaromatic ring conformer: 185.13751404643654 kcal/mol)

>  <smiles>  (68) 
CN1CCC(COc2cc(C(=O)Nc3cccc(Nc4cnc5c(cnn5C5CCN(C(=O)OC(C)(C)C)CC5)c4)c3)c(=O)n(-c3ccccc3)c2)CC1

>  <score_type>  (68) 
oracle

>  <origin>  (68) 
adg

>  <m_score__min__energy>  (68) 
-11.19

>  <m_primary>  (68) 
energy

$$$$
68:0
     RDKit          3D

 55 57  0  0  0  0  0  0  0  0999 V2000
   58.3044   32.1469   49.8932 H   0  0  0  0  0  0  0  0  0  0  0  0
   58.8090   32.6110   49.0330 C   0  0  0  0  0  0  0  0  0  0  0  0
   60.0820   33.0690   49.1600 N   0  0  0  0  0  0  0  0  0  0  0  0
   60.7550   33.6430   48.1260 C   0  0  0  0  0  0  0  0  0  0  0  0
   61.9760   34.0520   48.3350 N   0  0  0  0  0  0  0  0  0  0  0  0
   63.2180   33.4830   47.8020 C   0  0  0  0  0  0  0  0  0  0  0  0
   64.0764   33.8795   48.3641 H   0  0  0  0  0  0  0  0  0  0  0  0
   63.3910   33.8690   46.3290 C   0  0  0  0  0  0  0  0  0  0  0  0
   63.8401   34.8710   46.2628 H   0  0  0  0  0  0  0  0  0  0  0  0
   64.0481   33.1392   45.8334 H   0  0  0  0  0  0  0  0  0  0  0  0
   62.4090   33.8739   45.8334 H   0  0  0  0  0  0  0  0  0  0  0  0
   63.1650   31.9630   47.9460 C   0  0  0  0  0  0  0  0  0  0  0  0
   63.1557   31.6959   49.0130 H   0  0  0  0  0  0  0  0  0  0  0  0
   62.2530   31.5806   47.4643 H   0  0  0  0  0  0  0  0  0  0  0  0
   64.0482   31.5180   47.4643 H   0  0  0  0  0  0  0  0  0  0  0  0
   60.1090   33.7770   46.8790 C   0  0  0  0  0  0  0  0  0  0  0  0
   60.6407   34.2255   46.0269 H   0  0  0  0  0  0  0  0  0  0  0  0
   58.7830   33.3350   46.7300 C   0  0  0  0  0  0  0  0  0  0  0  0
   58.0960   33.4420   45.4710 N   0  0  0  0  0  0  0  0  0  0  0  0
   57.8950   34.4000   45.1040 H   0  0  0  0  0  0  0  0  0  0  0  0
   57.6720   32.3170   44.6810 C   0  0  0  0  0  0  0  0  0  0  0  0
   57.4910   32.4750   43.2990 C   0  0  0  0  0  0  0  0  0  0  0  0
   57.6467   33.4603   42.8355 H   0  0  0  0  0  0  0  0  0  0  0  0
   57.1140   31.3870   42.5090 C   0  0  0  0  0  0  0  0  0  0  0  0
   56.9708   31.5192   41.4264 H   0  0  0  0  0  0  0  0  0  0  0  0
   56.9180   30.1310   43.0890 C   0  0  0  0  0  0  0  0  0  0  0  0
   56.6257   29.2774   42.4598 H   0  0  0  0  0  0  0  0  0  0  0  0
   57.0920   29.9530   44.4690 C   0  0  0  0  0  0  0  0  0  0  0  0
   56.9130   28.6460   45.0380 N   0  0  0  0  0  0  0  0  0  0  0  0
   56.2740   28.5650   45.8600 H   0  0  0  0  0  0  0  0  0  0  0  0
   57.6110   27.4700   44.5850 C   0  0  0  0  0  0  0  0  0  0  0  0
   58.4520   27.5510   43.6490 O   0  0  0  0  0  0  0  0  0  0  0  0
   57.3510   26.1510   45.2000 C   0  0  0  0  0  0  0  0  0  0  0  0
   58.3510   25.1660   45.1530 C   0  0  0  0  0  0  0  0  0  0  0  0
   59.3117   25.3935   44.6680 H   0  0  0  0  0  0  0  0  0  0  0  0
   58.1450   23.8950   45.7150 C   0  0  0  0  0  0  0  0  0  0  0  0
   59.1970   22.9140   45.6370 N   0  0  0  0  0  0  0  0  0  0  0  0
   59.9580   22.9440   46.3540 H   0  0  0  0  0  0  0  0  0  0  0  0
   59.2810   21.8570   44.6270 C   0  0  0  0  0  0  0  0  0  0  0  0
   59.5706   20.9143   45.1143 H   0  0  0  0  0  0  0  0  0  0  0  0
   60.0312   22.1449   43.8758 H   0  0  0  0  0  0  0  0  0  0  0  0
   57.9370   21.6680   43.9300 C   0  0  0  0  0  0  0  0  0  0  0  0
   57.1449   21.5566   44.6850 H   0  0  0  0  0  0  0  0  0  0  0  0
   57.7235   22.5450   43.3012 H   0  0  0  0  0  0  0  0  0  0  0  0
   57.9737   20.7662   43.3012 H   0  0  0  0  0  0  0  0  0  0  0  0
   56.9180   23.6250   46.3510 C   0  0  0  0  0  0  0  0  0  0  0  0
   56.7385   22.6348   46.7952 H   0  0  0  0  0  0  0  0  0  0  0  0
   55.9280   24.6070   46.4210 C   0  0  0  0  0  0  0  0  0  0  0  0
   54.9742   24.3854   46.9221 H   0  0  0  0  0  0  0  0  0  0  0  0
   56.1390   25.8680   45.8600 C   0  0  0  0  0  0  0  0  0  0  0  0
   55.1530   26.8400   45.9960 O   0  0  0  0  0  0  0  0  0  0  0  0
   57.5010   31.0440   45.2550 C   0  0  0  0  0  0  0  0  0  0  0  0
   57.6892   30.9012   46.3293 H   0  0  0  0  0  0  0  0  0  0  0  0
   58.1410   32.7280   47.8150 C   0  0  0  0  0  0  0  0  0  0  0  0
   57.1153   32.3454   47.7075 H   0  0  0  0  0  0  0  0  0  0  0  0
  1  2  1  0
  2  3  1  0
  3  4  1  0
  4  5  2  0
  5  6  1  0
  6  7  1  0
  6  8  1  0
  8  9  1  0
  8 10  1  0
  8 11  1  0
  6 12  1  0
 12 13  1  0
 12 14  1  0
 12 15  1  0
  4 16  1  0
 16 17  1  0
 16 18  2  0
 18 19  1  0
 19 20  1  0
 19 21  1  0
 21 22  2  0
 22 23  1  0
 22 24  1  0
 24 25  1  0
 24 26  2  0
 26 27  1  0
 26 28  1  0
 28 29  1  0
 29 30  1  0
 29 31  1  0
 31 32  2  0
 31 33  1  0
 33 34  2  0
 34 35  1  0
 34 36  1  0
 36 37  1  0
 37 38  1  0
 37 39  1  0
 39 40  1  0
 39 41  1  0
 39 42  1  0
 42 43  1  0
 42 44  1  0
 42 45  1  0
 36 46  2  0
 46 47  1  0
 46 48  1  0
 48 49  1  0
 48 50  2  0
 50 51  1  0
 28 52  2  0
 52 53  1  0
 18 54  1  0
 54 55  1  0
 54  2  2  0
 52 21  1  0
 50 33  1  0
M  CHG  2   3  -1  51  -1
M  END
>  <UniqueID>  (69) 
57

>  <SMILES>  (69) 
CCNc1ccc([O-])c(C(=O)Nc2cccc(Nc3cc[n-]/c(=N/C(C)C)c3)c2)c1

>  <Energy>  (69) 
65.67607116311535

>  <Genealogy>  (69) 
CCNc1ccc([O-])c(C(=O)Nc2cccc(Nc3cc[n-]c(=NC(C)C)c3)c2)c1 (protonated)
CCNc1ccc([O-])c(C(=O)Nc2cccc(Nc3cc[n-]/c(=N/C(C)C)c3)c2)c1 (cis-trans isomerization)
CCNc1ccc([O-])c(C(=O)Nc2cccc(Nc3cc[n-]/c(=N/C(C)C)c3)c2)c1 (3D coordinates assigned)
CCNc1ccc([O-])c(C(=O)Nc2cccc(Nc3cc[n-]/c(=N/C(C)C)c3)c2)c1 (optimized conformer: 65.67607116311535 kcal/mol)

>  <smiles>  (69) 
CCNc1ccc(O)c(C(=O)Nc2cccc(Nc3cc[nH]c(=NC(C)C)c3)c2)c1

>  <score_type>  (69) 
oracle

>  <origin>  (69) 
adg

>  <m_score__min__energy>  (69) 
-13.25

>  <m_primary>  (69) 
energy

$$$$
69:0
     RDKit          3D

 29 30  0  0  0  0  0  0  0  0999 V2000
   59.2428   31.3390   48.0695 H   0  0  0  0  0  0  0  0  0  0  0  0
   58.8080   31.9720   47.2820 C   0  0  0  0  0  0  0  0  0  0  0  0
   57.9670   31.4300   46.3600 N   0  0  0  0  0  0  0  0  0  0  0  0
   57.4000   32.1770   45.3710 C   0  0  0  0  0  0  0  0  0  0  0  0
   56.6140   31.6390   44.4830 N   0  0  0  0  0  0  0  0  0  0  0  0
   56.7170   30.3140   43.9400 C   0  0  0  0  0  0  0  0  0  0  0  0
   56.1610   30.0710   42.8370 O   0  0  0  0  0  0  0  0  0  0  0  0
   57.3650   29.2590   44.6710 N   0  0  0  0  0  0  0  0  0  0  0  0
   57.5110   29.3750   45.6980 H   0  0  0  0  0  0  0  0  0  0  0  0
   57.7810   28.0200   44.0790 C   0  0  0  0  0  0  0  0  0  0  0  0
   57.6310   27.8230   42.8430 O   0  0  0  0  0  0  0  0  0  0  0  0
   58.3020   26.9860   44.9320 N   0  0  0  0  0  0  0  0  0  0  0  0
   58.1380   25.6920   44.8570 C   0  0  0  0  0  0  0  0  0  0  0  0
   58.7490   24.7890   45.7540 C   0  0  0  0  0  0  0  0  0  0  0  0
   59.4017   25.1624   46.5569 H   0  0  0  0  0  0  0  0  0  0  0  0
   58.5190   23.4180   45.6150 C   0  0  0  0  0  0  0  0  0  0  0  0
   58.9975   22.7074   46.3050 H   0  0  0  0  0  0  0  0  0  0  0  0
   57.6840   22.9510   44.6030 C   0  0  0  0  0  0  0  0  0  0  0  0
   57.5052   21.8723   44.4828 H   0  0  0  0  0  0  0  0  0  0  0  0
   57.0780   23.8650   43.7450 C   0  0  0  0  0  0  0  0  0  0  0  0
   56.4117   23.5077   42.9461 H   0  0  0  0  0  0  0  0  0  0  0  0
   57.3070   25.2000   43.8910 N   0  0  0  0  0  0  0  0  0  0  0  0
   56.8350   25.8590   43.2300 H   0  0  0  0  0  0  0  0  0  0  0  0
   57.7000   33.5420   45.2820 C   0  0  0  0  0  0  0  0  0  0  0  0
   57.2617   34.1545   44.4803 H   0  0  0  0  0  0  0  0  0  0  0  0
   58.5600   34.1200   46.2190 C   0  0  0  0  0  0  0  0  0  0  0  0
   58.7963   35.1928   46.1621 H   0  0  0  0  0  0  0  0  0  0  0  0
   59.1190   33.3330   47.2280 C   0  0  0  0  0  0  0  0  0  0  0  0
   60.2980   34.1060   48.5170 Br  0  0  0  0  0  0  0  0  0  0  0  0
  1  2  1  0
  2  3  1  0
  3  4  1  0
  4  5  2  0
  5  6  1  0
  6  7  2  0
  6  8  1  0
  8  9  1  0
  8 10  1  0
 10 11  2  0
 10 12  1  0
 12 13  2  0
 13 14  1  0
 14 15  1  0
 14 16  2  0
 16 17  1  0
 16 18  1  0
 18 19  1  0
 18 20  2  0
 20 21  1  0
 20 22  1  0
 22 23  1  0
  4 24  1  0
 24 25  1  0
 24 26  2  0
 26 27  1  0
 26 28  1  0
 28 29  1  0
 28  2  2  0
 22 13  1  0
M  CHG  1   3  -1
M  END
>  <UniqueID>  (70) 
58

>  <SMILES>  (70) 
O=C(/N=c1/ccc(Br)c[n-]1)NC(=O)/N=c1\cccc[nH]1

>  <Energy>  (70) 
42.98529248370392

>  <Genealogy>  (70) 
O=C(N=c1ccc(Br)c[n-]1)NC(=O)N=c1cccc[nH]1 (protonated)
O=C(/N=c1/ccc(Br)c[n-]1)NC(=O)/N=c1\cccc[nH]1 (cis-trans isomerization)
O=C(/N=c1/ccc(Br)c[n-]1)NC(=O)/N=c1\cccc[nH]1 (3D coordinates assigned)
O=C(/N=c1/ccc(Br)c[n-]1)NC(=O)/N=c1\cccc[nH]1 (optimized conformer: 42.98529248370392 kcal/mol)

>  <smiles>  (70) 
O=C(N=c1cccc[nH]1)NC(=O)N=c1ccc(Br)c[nH]1

>  <score_type>  (70) 
oracle

>  <origin>  (70) 
adg

>  <m_score__min__energy>  (70) 
-8.75

>  <m_primary>  (70) 
energy

$$$$
70:0
     RDKit          3D

 54 58  0  0  0  0  0  0  0  0999 V2000
   64.1800   33.0490   48.5140 C   0  0  0  0  0  0  0  0  0  0  0  0
   64.7430   32.8150   49.9070 C   0  0  0  0  0  0  0  0  0  0  0  0
   64.1230   31.6730   50.4890 O   0  0  0  0  0  0  0  0  0  0  0  0
   62.7900   31.6730   50.9150 C   0  0  0  0  0  0  0  0  0  0  0  0
   62.4250   32.3930   51.8850 O   0  0  0  0  0  0  0  0  0  0  0  0
   61.8070   30.8270   50.2200 C   0  0  0  0  0  0  0  0  0  0  0  0
   61.5410   29.5040   50.5890 C   0  0  0  0  0  0  0  0  0  0  0  0
   62.2120   28.6650   51.6050 C   0  0  0  0  0  0  0  0  0  0  0  0
   62.8480   29.2460   52.8310 C   0  0  0  0  0  0  0  0  0  0  0  0
   62.2780   27.4180   51.4250 O   0  0  0  0  0  0  0  0  0  0  0  0
   60.3270   28.9260   49.5910 S   0  0  0  0  0  0  0  0  0  0  0  0
   60.1060   30.3100   48.6600 C   0  0  0  0  0  0  0  0  0  0  0  0
   59.1260   30.4050   47.5400 C   0  0  0  0  0  0  0  0  0  0  0  0
   58.7290   29.2850   46.8590 N   0  0  0  0  0  0  0  0  0  0  0  0
   57.8650   29.4240   45.8240 C   0  0  0  0  0  0  0  0  0  0  0  0
   57.4040   28.4770   44.9220 C   0  0  0  0  0  0  0  0  0  0  0  0
   57.6020   27.1550   44.8610 C   0  0  0  0  0  0  0  0  0  0  0  0
   57.2060   26.2030   45.9080 C   0  0  0  0  0  0  0  0  0  0  0  0
   58.0230   25.2510   46.3930 N   0  0  0  0  0  0  0  0  0  0  0  0
   57.2040   24.4960   47.1570 C   0  0  0  0  0  0  0  0  0  0  0  0
   57.6120   23.4950   47.8020 O   0  0  0  0  0  0  0  0  0  0  0  0
   55.9100   24.8850   47.1580 N   0  0  0  0  0  0  0  0  0  0  0  0
   55.9270   25.9610   46.3550 C   0  0  0  0  0  0  0  0  0  0  0  0
   54.7920   26.6840   46.0110 O   0  0  0  0  0  0  0  0  0  0  0  0
   56.6860   29.2280   43.9940 C   0  0  0  0  0  0  0  0  0  0  0  0
   56.7080   30.5370   44.3380 N   0  0  0  0  0  0  0  0  0  0  0  0
   57.4280   30.6270   45.4450 N   0  0  0  0  0  0  0  0  0  0  0  0
   57.7760   31.7530   46.1060 C   0  0  0  0  0  0  0  0  0  0  0  0
   57.3110   32.9050   45.7150 N   0  0  0  0  0  0  0  0  0  0  0  0
   58.1150   33.9940   45.1700 C   0  0  0  0  0  0  0  0  0  0  0  0
   58.8960   34.7600   46.2210 C   0  0  0  0  0  0  0  0  0  0  0  0
   59.6040   33.7560   45.3220 C   0  0  0  0  0  0  0  0  0  0  0  0
   58.6320   31.6350   47.1700 N   0  0  0  0  0  0  0  0  0  0  0  0
   60.9890   31.2880   49.1530 C   0  0  0  0  0  0  0  0  0  0  0  0
   61.0680   32.6840   48.6050 C   0  0  0  0  0  0  0  0  0  0  0  0
   63.1669   33.4701   48.5939 H   0  0  0  0  0  0  0  0  0  0  0  0
   64.8276   33.7525   47.9702 H   0  0  0  0  0  0  0  0  0  0  0  0
   64.1382   32.0937   47.9702 H   0  0  0  0  0  0  0  0  0  0  0  0
   65.8281   32.6475   49.8396 H   0  0  0  0  0  0  0  0  0  0  0  0
   64.5438   33.6969   50.5336 H   0  0  0  0  0  0  0  0  0  0  0  0
   62.3771   28.8158   53.7272 H   0  0  0  0  0  0  0  0  0  0  0  0
   63.9227   29.0112   52.8329 H   0  0  0  0  0  0  0  0  0  0  0  0
   62.7111   30.3374   52.8329 H   0  0  0  0  0  0  0  0  0  0  0  0
   58.0958   26.7527   43.9642 H   0  0  0  0  0  0  0  0  0  0  0  0
   56.1756   28.8171   43.1105 H   0  0  0  0  0  0  0  0  0  0  0  0
   57.4452   34.2760   44.3443 H   0  0  0  0  0  0  0  0  0  0  0  0
   59.0791   35.8372   46.0944 H   0  0  0  0  0  0  0  0  0  0  0  0
   58.8053   34.9039   47.3078 H   0  0  0  0  0  0  0  0  0  0  0  0
   60.2995   34.1074   44.5456 H   0  0  0  0  0  0  0  0  0  0  0  0
   60.2379   32.8728   45.4896 H   0  0  0  0  0  0  0  0  0  0  0  0
   58.9290   32.4870   47.6910 H   0  0  0  0  0  0  0  0  0  0  0  0
   61.1087   33.4027   49.4368 H   0  0  0  0  0  0  0  0  0  0  0  0
   61.9733   32.7852   47.9884 H   0  0  0  0  0  0  0  0  0  0  0  0
   60.1799   32.8867   47.9884 H   0  0  0  0  0  0  0  0  0  0  0  0
  1  2  1  0
  2  3  1  0
  3  4  1  0
  4  5  2  0
  4  6  1  0
  6  7  2  0
  7  8  1  0
  8  9  1  0
  8 10  2  0
  7 11  1  0
 11 12  1  0
 12 13  1  0
 13 14  1  0
 14 15  2  0
 15 16  1  0
 16 17  2  3
 17 18  1  0
 18 19  1  0
 19 20  1  0
 20 21  2  0
 20 22  1  0
 22 23  1  0
 23 24  1  0
 16 25  1  0
 25 26  2  0
 26 27  1  0
 27 28  1  0
 28 29  2  3
 29 30  1  0
 30 31  1  0
 31 32  1  0
 28 33  1  0
 12 34  2  0
 34 35  1  0
 34  6  1  0
 33 13  2  0
 27 15  1  0
 32 30  1  0
 23 18  2  0
  1 36  1  0
  1 37  1  0
  1 38  1  0
  2 39  1  0
  2 40  1  0
  9 41  1  0
  9 42  1  0
  9 43  1  0
 17 44  1  0
 25 45  1  0
 30 46  1  0
 31 47  1  0
 31 48  1  0
 32 49  1  0
 32 50  1  0
 33 51  1  0
 35 52  1  0
 35 53  1  0
 35 54  1  0
M  CHG  4  19  -1  22  -1  24  -1  33   1
M  END
>  <UniqueID>  (71) 
59

>  <SMILES>  (71) 
CCOC(=O)c1c(C(C)=O)sc(-c2nc3c(=Cc4[n-]c(=O)[n-]c4[O-])cnn3c(=NC3CC3)[nH+]2)c1C

>  <Energy>  (71) 
429.29301402255226

>  <Genealogy>  (71) 
CCOC(=O)c1c(C(C)=O)sc(-c2nc3c(=Cc4[n-]c(=O)[n-]c4[O-])cnn3c(=NC3CC3)[nH+]2)c1C (protonated)
CCOC(=O)c1c(C(C)=O)sc(-c2nc3c(=Cc4[n-]c(=O)[n-]c4[O-])cnn3c(=NC3CC3)[nH+]2)c1C (3D coordinates assigned)
CCOC(=O)c1c(C(C)=O)sc(-c2nc3c(=Cc4[n-]c(=O)[n-]c4[O-])cnn3c(=NC3CC3)[nH+]2)c1C (nonaromatic ring conformer: 429.29301402255226 kcal/mol)

>  <smiles>  (71) 
CCOC(=O)c1c(C(C)=O)sc(-c2nc(=NC3CC3)n3ncc(=Cc4[nH]c(=O)[nH]c4O)c3n2)c1C

>  <score_type>  (71) 
oracle

>  <origin>  (71) 
adg

>  <m_score__min__energy>  (71) 
-15.42

>  <m_primary>  (71) 
energy

$$$$
71:0
     RDKit          3D

 23 24  0  0  0  0  0  0  0  0999 V2000
   57.5100   32.0650   43.5580 C   0  0  0  0  0  0  0  0  0  0  0  0
   57.8500   30.9080   44.4490 C   0  0  0  0  0  0  0  0  0  0  0  0
   58.6100   31.1100   45.6110 C   0  0  0  0  0  0  0  0  0  0  0  0
   58.9440   30.0280   46.4290 C   0  0  0  0  0  0  0  0  0  0  0  0
   58.5410   28.7350   46.0820 C   0  0  0  0  0  0  0  0  0  0  0  0
   57.8180   28.5100   44.9010 C   0  0  0  0  0  0  0  0  0  0  0  0
   57.3980   27.1770   44.5750 N   0  0  0  0  0  0  0  0  0  0  0  0
   57.1180   26.1590   45.5460 C   0  0  0  0  0  0  0  0  0  0  0  0
   58.1960   24.9400   45.9750 S   0  0  0  0  0  0  0  0  0  0  0  0
   57.0770   24.2110   47.0000 C   0  0  0  0  0  0  0  0  0  0  0  0
   57.3070   23.1780   47.6780 O   0  0  0  0  0  0  0  0  0  0  0  0
   55.8870   24.8500   47.0140 N   0  0  0  0  0  0  0  0  0  0  0  0
   55.9020   25.9310   46.1920 C   0  0  0  0  0  0  0  0  0  0  0  0
   54.7710   26.7130   45.9990 O   0  0  0  0  0  0  0  0  0  0  0  0
   57.4620   29.6060   44.0950 C   0  0  0  0  0  0  0  0  0  0  0  0
   57.2531   32.9392   44.1742 H   0  0  0  0  0  0  0  0  0  0  0  0
   58.3754   32.3055   42.9230 H   0  0  0  0  0  0  0  0  0  0  0  0
   56.6520   31.7991   42.9230 H   0  0  0  0  0  0  0  0  0  0  0  0
   58.9438   32.1234   45.8787 H   0  0  0  0  0  0  0  0  0  0  0  0
   59.5253   30.1936   47.3481 H   0  0  0  0  0  0  0  0  0  0  0  0
   58.7923   27.8892   46.7388 H   0  0  0  0  0  0  0  0  0  0  0  0
   57.3120   26.9180   43.5660 H   0  0  0  0  0  0  0  0  0  0  0  0
   56.8746   29.4418   43.1795 H   0  0  0  0  0  0  0  0  0  0  0  0
  1  2  1  0
  2  3  2  0
  3  4  1  0
  4  5  2  0
  5  6  1  0
  6  7  1  0
  7  8  1  0
  8  9  1  0
  9 10  1  0
 10 11  2  0
 10 12  1  0
 12 13  1  0
 13 14  1  0
  6 15  2  0
 15  2  1  0
 13  8  2  0
  1 16  1  0
  1 17  1  0
  1 18  1  0
  3 19  1  0
  4 20  1  0
  5 21  1  0
  7 22  1  0
 15 23  1  0
M  CHG  2  12  -1  14  -1
M  END
>  <UniqueID>  (72) 
60

>  <SMILES>  (72) 
Cc1cccc(Nc2sc(=O)[n-]c2[O-])c1

>  <Energy>  (72) 
59.616846188550866

>  <Genealogy>  (72) 
Cc1cccc(Nc2sc(=O)[n-]c2[O-])c1 (protonated)
Cc1cccc(Nc2sc(=O)[n-]c2[O-])c1 (3D coordinates assigned)
Cc1cccc(Nc2sc(=O)[n-]c2[O-])c1 (optimized conformer: 59.616846188550866 kcal/mol)

>  <smiles>  (72) 
Cc1cccc(Nc2sc(=O)[nH]c2O)c1

>  <score_type>  (72) 
oracle

>  <origin>  (72) 
adg

>  <m_score__min__energy>  (72) 
-13.140000000000001

>  <m_primary>  (72) 
energy

$$$$
72:0
     RDKit          3D

 68 70  0  0  1  0  0  0  0  0999 V2000
   65.6740   31.3720   51.3610 C   0  0  0  0  0  0  0  0  0  0  0  0
   65.6570   32.8230   50.8590 C   0  0  0  0  0  0  0  0  0  0  0  0
   66.9750   33.0410   50.1430 C   0  0  0  0  0  0  0  0  0  0  0  0
   65.6250   33.6970   52.0840 C   0  0  0  0  0  0  0  0  0  0  0  0
   64.4850   33.0440   49.9550 C   0  0  0  0  0  0  0  0  0  0  0  0
   63.3750   33.8310   50.1760 C   0  0  0  0  0  0  0  0  0  0  0  0
   62.5590   33.7250   49.0690 C   0  0  0  0  0  0  0  0  0  0  0  0
   61.4240   34.3080   48.8820 N   0  0  0  0  0  0  0  0  0  0  0  0
   60.5050   33.9810   47.8470 C   0  0  0  0  0  0  0  0  0  0  0  0
   60.7170   34.5820   46.6020 C   0  0  0  0  0  0  0  0  0  0  0  0
   59.8970   34.3330   45.5360 C   0  0  0  0  0  0  0  0  0  0  0  0
   58.8410   33.4650   45.7140 C   0  0  0  0  0  0  0  0  0  0  0  0
   57.9560   33.2040   44.5520 C   0  0  0  0  0  0  0  0  0  0  0  0
   56.8330   32.2430   44.8720 C   0  0  0  0  0  0  0  0  0  0  0  0
   56.8980   31.1390   43.8180 C   0  0  0  0  0  0  0  0  0  0  0  0
   56.0690   29.9780   44.2840 C   0  0  0  0  0  0  0  0  0  0  0  0
   54.9960   29.5990   43.4290 N   0  0  0  0  0  0  0  0  0  0  0  0
   56.3000   29.3740   45.3610 O   0  0  0  0  0  0  0  0  0  0  0  0
   58.6130   32.8550   46.9540 C   0  0  0  0  0  0  0  0  0  0  0  0
   59.4470   33.1150   48.0200 C   0  0  0  0  0  0  0  0  0  0  0  0
   59.2370   32.4110   49.6010 S   0  0  0  0  0  0  0  0  0  0  0  0
   59.6660   33.4320   50.6110 O   0  0  0  0  0  0  0  0  0  0  0  0
   57.8090   32.0290   49.8650 O   0  0  0  0  0  0  0  0  0  0  0  0
   60.1880   30.9630   49.7490 N   0  0  0  0  0  0  0  0  0  0  0  0
   59.6720   29.8180   49.0410 C   0  0  0  0  0  0  0  0  0  0  0  0
   58.5950   30.0300   48.4100 O   0  0  0  0  0  0  0  0  0  0  0  0
   60.3370   28.5820   49.0720 N   0  0  0  0  0  0  0  0  0  0  0  0
   59.8690   27.3860   48.3750 C   0  0  0  0  0  0  0  0  0  0  0  0
   59.5650   27.6480   46.9550 C   0  0  0  0  0  0  0  0  0  0  0  0
   60.3690   28.5990   46.3160 C   0  0  0  0  0  0  0  0  0  0  0  0
   60.1730   28.9290   44.9840 C   0  0  0  0  0  0  0  0  0  0  0  0
   59.1580   28.3080   44.2510 C   0  0  0  0  0  0  0  0  0  0  0  0
   58.3780   27.3710   44.9100 C   0  0  0  0  0  0  0  0  0  0  0  0
   58.5690   27.0390   46.2380 C   0  0  0  0  0  0  0  0  0  0  0  0
   63.1540   32.9060   48.2110 N   0  0  0  0  0  0  0  0  0  0  0  0
   64.2990   32.4970   48.7300 N   0  0  0  0  0  0  0  0  0  0  0  0
   65.6741   31.3645   52.4610 H   0  0  0  0  0  0  0  0  0  0  0  0
   64.7820   30.8455   50.9908 H   0  0  0  0  0  0  0  0  0  0  0  0
   66.5781   30.8665   50.9908 H   0  0  0  0  0  0  0  0  0  0  0  0
   67.7772   33.1737   50.8839 H   0  0  0  0  0  0  0  0  0  0  0  0
   67.1987   32.1677   49.5127 H   0  0  0  0  0  0  0  0  0  0  0  0
   66.9056   33.9399   49.5127 H   0  0  0  0  0  0  0  0  0  0  0  0
   65.6481   33.0664   52.9850 H   0  0  0  0  0  0  0  0  0  0  0  0
   66.4993   34.3645   52.0811 H   0  0  0  0  0  0  0  0  0  0  0  0
   64.7042   34.2988   52.0811 H   0  0  0  0  0  0  0  0  0  0  0  0
   63.1759   34.4349   51.0736 H   0  0  0  0  0  0  0  0  0  0  0  0
   61.5644   35.2722   46.4770 H   0  0  0  0  0  0  0  0  0  0  0  0
   60.0755   34.8127   44.5623 H   0  0  0  0  0  0  0  0  0  0  0  0
   57.5185   34.1580   44.2227 H   0  0  0  0  0  0  0  0  0  0  0  0
   58.5712   32.7428   43.7654 H   0  0  0  0  0  0  0  0  0  0  0  0
   56.9705   31.8181   45.8773 H   0  0  0  0  0  0  0  0  0  0  0  0
   55.8572   32.7506   44.8588 H   0  0  0  0  0  0  0  0  0  0  0  0
   56.5033   31.5157   42.8629 H   0  0  0  0  0  0  0  0  0  0  0  0
   57.9409   30.8203   43.6736 H   0  0  0  0  0  0  0  0  0  0  0  0
   54.0710   30.0340   43.6260 H   0  0  0  0  0  0  0  0  0  0  0  0
   55.0920   28.9270   42.6410 H   0  0  0  0  0  0  0  0  0  0  0  0
   57.7648   32.1656   47.0776 H   0  0  0  0  0  0  0  0  0  0  0  0
   61.0680   30.9190   50.3060 H   0  0  0  0  0  0  0  0  0  0  0  0
   61.2270   28.5140   49.6340 H   0  0  0  0  0  0  0  0  0  0  0  0
   60.6507   26.6143   48.4328 H   0  0  0  0  0  0  0  0  0  0  0  0
   58.9402   27.0545   48.8623 H   0  0  0  0  0  0  0  0  0  0  0  0
   61.1720   29.0941   46.8818 H   0  0  0  0  0  0  0  0  0  0  0  0
   60.8169   29.6803   44.5035 H   0  0  0  0  0  0  0  0  0  0  0  0
   58.9850   28.5533   43.1927 H   0  0  0  0  0  0  0  0  0  0  0  0
   57.5727   26.8703   44.3525 H   0  0  0  0  0  0  0  0  0  0  0  0
   57.9236   26.2884   46.7176 H   0  0  0  0  0  0  0  0  0  0  0  0
   62.7560   32.6470   47.2830 H   0  0  0  0  0  0  0  0  0  0  0  0
   64.9360   31.8430   48.2270 H   0  0  0  0  0  0  0  0  0  0  0  0
  1  2  1  0
  2  3  1  0
  2  4  1  0
  2  5  1  0
  5  6  2  0
  6  7  1  0
  7  8  2  0
  8  9  1  0
  9 10  2  0
 10 11  1  0
 11 12  2  0
 12 13  1  0
 13 14  1  0
 14 15  1  0
 15 16  1  0
 16 17  1  0
 16 18  2  0
 12 19  1  0
 19 20  2  0
 20 21  1  0
 21 22  2  0
 21 23  2  0
 21 24  1  0
 24 25  1  0
 25 26  2  0
 25 27  1  0
 27 28  1  0
 28 29  1  0
 29 30  2  0
 30 31  1  0
 31 32  2  0
 32 33  1  0
 33 34  2  0
  7 35  1  0
 35 36  1  0
 36  5  1  0
 20  9  1  0
 34 29  1  0
  1 37  1  0
  1 38  1  0
  1 39  1  0
  3 40  1  0
  3 41  1  0
  3 42  1  0
  4 43  1  0
  4 44  1  0
  4 45  1  0
  6 46  1  0
 10 47  1  0
 11 48  1  0
 13 49  1  0
 13 50  1  0
 14 51  1  0
 14 52  1  0
 15 53  1  0
 15 54  1  0
 17 55  1  0
 17 56  1  0
 19 57  1  0
 24 58  1  0
 27 59  1  0
 28 60  1  0
 28 61  1  0
 30 62  1  0
 31 63  1  0
 32 64  1  0
 33 65  1  0
 34 66  1  0
 35 67  1  0
 36 68  1  0
M  END
>  <smiles>  (73) 
CC(C)(C)c1cc(=Nc2ccc(CCCC(N)=O)cc2S(=O)(=O)NC(=O)NCc2ccccc2)[nH][nH]1

>  <score_type>  (73) 
oracle

>  <origin>  (73) 
adg

>  <m_score__min__energy>  (73) 
-10.890000000000001

>  <m_primary>  (73) 
energy

$$$$
73:0
     RDKit          3D

 33 35  0  0  0  0  0  0  0  0999 V2000
   64.1400   32.4040   47.9380 N   0  0  0  0  0  0  0  0  0  0  0  0
   62.6880   33.2770   47.5990 S   0  0  0  0  0  0  0  0  0  0  0  0
   62.8070   33.9510   46.2610 O   0  0  0  0  0  0  0  0  0  0  0  0
   62.4780   34.3290   48.6510 O   0  0  0  0  0  0  0  0  0  0  0  0
   61.3220   32.1650   47.5810 C   0  0  0  0  0  0  0  0  0  0  0  0
   61.3150   31.0510   48.4270 C   0  0  0  0  0  0  0  0  0  0  0  0
   60.2270   30.1750   48.4240 C   0  0  0  0  0  0  0  0  0  0  0  0
   59.1370   30.4110   47.5810 C   0  0  0  0  0  0  0  0  0  0  0  0
   59.1290   31.5350   46.7340 C   0  0  0  0  0  0  0  0  0  0  0  0
   58.0330   31.8200   45.8540 N   0  0  0  0  0  0  0  0  0  0  0  0
   57.5500   30.8410   44.5070 S   0  0  0  0  0  0  0  0  0  0  0  0
   58.5120   31.0520   43.3720 O   0  0  0  0  0  0  0  0  0  0  0  0
   56.1760   31.2560   44.0630 O   0  0  0  0  0  0  0  0  0  0  0  0
   57.5060   29.1480   44.9860 C   0  0  0  0  0  0  0  0  0  0  0  0
   58.7120   28.4060   45.0390 C   0  0  0  0  0  0  0  0  0  0  0  0
   58.7000   27.0490   45.4080 C   0  0  0  0  0  0  0  0  0  0  0  0
   57.4700   26.4710   45.7140 C   0  0  0  0  0  0  0  0  0  0  0  0
   57.2280   25.2030   46.0770 N   0  0  0  0  0  0  0  0  0  0  0  0
   55.8780   25.2060   46.2300 C   0  0  0  0  0  0  0  0  0  0  0  0
   55.2370   24.1800   46.5760 O   0  0  0  0  0  0  0  0  0  0  0  0
   55.2690   26.3940   45.9840 N   0  0  0  0  0  0  0  0  0  0  0  0
   56.3080   27.1790   45.6600 C   0  0  0  0  0  0  0  0  0  0  0  0
   56.2790   28.5250   45.3020 C   0  0  0  0  0  0  0  0  0  0  0  0
   60.2260   32.4050   46.7400 C   0  0  0  0  0  0  0  0  0  0  0  0
   64.2660   31.7090   47.1690 H   0  0  0  0  0  0  0  0  0  0  0  0
   64.9300   33.0830   47.8630 H   0  0  0  0  0  0  0  0  0  0  0  0
   62.1680   30.8645   49.0960 H   0  0  0  0  0  0  0  0  0  0  0  0
   60.2279   29.2971   49.0867 H   0  0  0  0  0  0  0  0  0  0  0  0
   58.2838   29.7167   47.5797 H   0  0  0  0  0  0  0  0  0  0  0  0
   59.6651   28.8953   44.7896 H   0  0  0  0  0  0  0  0  0  0  0  0
   59.6303   26.4638   45.4535 H   0  0  0  0  0  0  0  0  0  0  0  0
   55.3321   29.0836   45.2667 H   0  0  0  0  0  0  0  0  0  0  0  0
   60.2281   33.2844   46.0792 H   0  0  0  0  0  0  0  0  0  0  0  0
  1  2  1  0
  2  3  2  0
  2  4  2  0
  2  5  1  0
  5  6  2  0
  6  7  1  0
  7  8  2  0
  8  9  1  0
  9 10  1  0
 10 11  1  0
 11 12  2  0
 11 13  2  0
 11 14  1  0
 14 15  2  0
 15 16  1  0
 16 17  2  0
 17 18  1  0
 18 19  1  0
 19 20  2  0
 19 21  1  0
 21 22  1  0
 22 23  2  0
  9 24  2  0
 24  5  1  0
 23 14  1  0
 22 17  1  0
  1 25  1  0
  1 26  1  0
  6 27  1  0
  7 28  1  0
  8 29  1  0
 15 30  1  0
 16 31  1  0
 23 32  1  0
 24 33  1  0
M  CHG  3  10  -1  18  -1  21  -1
M  END
>  <UniqueID>  (74) 
61

>  <SMILES>  (74) 
NS(=O)(=O)c1cccc([N-]S(=O)(=O)c2ccc3[n-]c(=O)[n-]c3c2)c1

>  <Energy>  (74) 
72.56696717396004

>  <Genealogy>  (74) 
NS(=O)(=O)c1cccc([N-]S(=O)(=O)c2ccc3[n-]c(=O)[n-]c3c2)c1 (protonated)
NS(=O)(=O)c1cccc([N-]S(=O)(=O)c2ccc3[n-]c(=O)[n-]c3c2)c1 (3D coordinates assigned)
NS(=O)(=O)c1cccc([N-]S(=O)(=O)c2ccc3[n-]c(=O)[n-]c3c2)c1 (optimized conformer: 72.56696717396004 kcal/mol)

>  <smiles>  (74) 
NS(=O)(=O)c1cccc(NS(=O)(=O)c2ccc3[nH]c(=O)[nH]c3c2)c1

>  <score_type>  (74) 
oracle

>  <origin>  (74) 
adg

>  <m_score__min__energy>  (74) 
-12.949999999999999

>  <m_primary>  (74) 
energy

$$$$
74:0
     RDKit          3D

 40 42  0  0  0  0  0  0  0  0999 V2000
   55.8230   29.7420   43.3630 C   0  0  0  0  0  0  0  0  0  0  0  0
   56.2170   29.4840   44.7080 O   0  0  0  0  0  0  0  0  0  0  0  0
   57.4190   29.9220   45.2910 C   0  0  0  0  0  0  0  0  0  0  0  0
   57.6770   31.2890   45.5190 C   0  0  0  0  0  0  0  0  0  0  0  0
   58.8640   31.6970   46.1410 C   0  0  0  0  0  0  0  0  0  0  0  0
   59.1330   33.0950   46.3260 N   0  0  0  0  0  0  0  0  0  0  0  0
   58.7810   34.0420   45.2650 C   0  0  0  0  0  0  0  0  0  0  0  0
   59.6350   35.3150   45.3850 C   0  0  0  0  0  0  0  0  0  0  0  0
   59.6230   35.8170   46.7120 O   0  0  0  0  0  0  0  0  0  0  0  0
   60.2590   34.8850   47.5610 C   0  0  0  0  0  0  0  0  0  0  0  0
   59.4320   33.6020   47.6660 C   0  0  0  0  0  0  0  0  0  0  0  0
   59.7880   30.7320   46.5640 C   0  0  0  0  0  0  0  0  0  0  0  0
   59.5420   29.3760   46.3470 C   0  0  0  0  0  0  0  0  0  0  0  0
   58.3850   28.9650   45.6780 C   0  0  0  0  0  0  0  0  0  0  0  0
   58.1970   27.5620   45.4400 N   0  0  0  0  0  0  0  0  0  0  0  0
   57.5530   26.6390   46.3310 C   0  0  0  0  0  0  0  0  0  0  0  0
   58.0130   26.5030   47.4960 O   0  0  0  0  0  0  0  0  0  0  0  0
   56.3920   25.8190   45.9150 C   0  0  0  0  0  0  0  0  0  0  0  0
   56.5490   24.5000   45.4610 C   0  0  0  0  0  0  0  0  0  0  0  0
   55.4240   23.7700   45.0870 C   0  0  0  0  0  0  0  0  0  0  0  0
   54.1650   24.3640   45.1880 C   0  0  0  0  0  0  0  0  0  0  0  0
   53.1330   23.7240   44.8630 O   0  0  0  0  0  0  0  0  0  0  0  0
   54.0580   25.6390   45.6490 N   0  0  0  0  0  0  0  0  0  0  0  0
   55.1360   26.3440   46.0020 N   0  0  0  0  0  0  0  0  0  0  0  0
   54.9028   30.3446   43.3597 H   0  0  0  0  0  0  0  0  0  0  0  0
   56.6231   30.2917   42.8456 H   0  0  0  0  0  0  0  0  0  0  0  0
   55.6390   28.7889   42.8456 H   0  0  0  0  0  0  0  0  0  0  0  0
   56.9393   32.0424   45.2055 H   0  0  0  0  0  0  0  0  0  0  0  0
   58.9615   33.5743   44.2859 H   0  0  0  0  0  0  0  0  0  0  0  0
   57.7190   34.3116   45.3622 H   0  0  0  0  0  0  0  0  0  0  0  0
   60.6710   35.0804   45.0994 H   0  0  0  0  0  0  0  0  0  0  0  0
   59.2134   36.0817   44.7184 H   0  0  0  0  0  0  0  0  0  0  0  0
   61.2517   34.6431   47.1534 H   0  0  0  0  0  0  0  0  0  0  0  0
   60.3572   35.3272   48.5634 H   0  0  0  0  0  0  0  0  0  0  0  0
   60.0018   32.8447   48.2244 H   0  0  0  0  0  0  0  0  0  0  0  0
   58.4901   33.8185   48.1914 H   0  0  0  0  0  0  0  0  0  0  0  0
   60.7129   31.0456   47.0702 H   0  0  0  0  0  0  0  0  0  0  0  0
   60.2626   28.6256   46.7044 H   0  0  0  0  0  0  0  0  0  0  0  0
   57.5501   24.0480   45.4014 H   0  0  0  0  0  0  0  0  0  0  0  0
   55.5260   22.7391   44.7170 H   0  0  0  0  0  0  0  0  0  0  0  0
  1  2  1  0
  2  3  1  0
  3  4  2  0
  4  5  1  0
  5  6  1  0
  6  7  1  0
  7  8  1  0
  8  9  1  0
  9 10  1  0
 10 11  1  0
  5 12  2  0
 12 13  1  0
 13 14  2  0
 14 15  1  0
 15 16  1  0
 16 17  2  0
 16 18  1  0
 18 19  1  0
 19 20  2  0
 20 21  1  0
 21 22  2  0
 21 23  1  0
 23 24  1  0
 14  3  1  0
 24 18  2  0
 11  6  1  0
  1 25  1  0
  1 26  1  0
  1 27  1  0
  4 28  1  0
  7 29  1  0
  7 30  1  0
  8 31  1  0
  8 32  1  0
 10 33  1  0
 10 34  1  0
 11 35  1  0
 11 36  1  0
 12 37  1  0
 13 38  1  0
 19 39  1  0
 20 40  1  0
M  CHG  2  15  -1  23  -1
M  END
>  <UniqueID>  (75) 
62

>  <SMILES>  (75) 
COc1cc(N2CCOCC2)ccc1[N-]C(=O)c1ccc(=O)[n-]n1

>  <Energy>  (75) 
55.77111688810891

>  <Genealogy>  (75) 
COc1cc(N2CCOCC2)ccc1[N-]C(=O)c1ccc(=O)[n-]n1 (protonated)
COc1cc(N2CCOCC2)ccc1[N-]C(=O)c1ccc(=O)[n-]n1 (3D coordinates assigned)
COc1cc(N2CCOCC2)ccc1[N-]C(=O)c1ccc(=O)[n-]n1 (nonaromatic ring conformer: 55.77111688810891 kcal/mol)

>  <smiles>  (75) 
COc1cc(N2CCOCC2)ccc1NC(=O)c1ccc(=O)[nH]n1

>  <score_type>  (75) 
oracle

>  <origin>  (75) 
adg

>  <m_score__min__energy>  (75) 
-11.18

>  <m_primary>  (75) 
energy

$$$$
75:0
     RDKit          3D

 33 35  0  0  0  0  0  0  0  0999 V2000
   56.3410   25.6220   46.8920 O   0  0  0  0  0  0  0  0  0  0  0  0
   56.7760   26.7090   46.4310 C   0  0  0  0  0  0  0  0  0  0  0  0
   58.1470   27.1960   46.7990 C   0  0  0  0  0  0  0  0  0  0  0  0
   58.7730   27.9950   45.6470 C   0  0  0  0  0  0  0  0  0  0  0  0
   57.8130   29.0110   45.0720 C   0  0  0  0  0  0  0  0  0  0  0  0
   58.2960   30.1870   44.4790 C   0  0  0  0  0  0  0  0  0  0  0  0
   57.4130   31.1000   43.8770 C   0  0  0  0  0  0  0  0  0  0  0  0
   57.9160   32.3550   43.2700 C   0  0  0  0  0  0  0  0  0  0  0  0
   57.6030   32.6350   42.0820 O   0  0  0  0  0  0  0  0  0  0  0  0
   58.7960   33.2420   43.9730 N   0  0  0  0  0  0  0  0  0  0  0  0
   58.9190   33.3600   45.3980 C   0  0  0  0  0  0  0  0  0  0  0  0
   57.7820   33.1720   46.1950 C   0  0  0  0  0  0  0  0  0  0  0  0
   57.8700   33.2720   47.5860 C   0  0  0  0  0  0  0  0  0  0  0  0
   59.0990   33.5440   48.1960 C   0  0  0  0  0  0  0  0  0  0  0  0
   59.1720   33.6440   49.5840 O   0  0  0  0  0  0  0  0  0  0  0  0
   60.2440   33.7100   47.4070 C   0  0  0  0  0  0  0  0  0  0  0  0
   60.1580   33.6090   46.0150 C   0  0  0  0  0  0  0  0  0  0  0  0
   56.0420   30.7940   43.8270 C   0  0  0  0  0  0  0  0  0  0  0  0
   55.5580   29.6120   44.3950 C   0  0  0  0  0  0  0  0  0  0  0  0
   56.4360   28.7230   45.0210 C   0  0  0  0  0  0  0  0  0  0  0  0
   55.9320   27.5250   45.6170 N   0  0  0  0  0  0  0  0  0  0  0  0
   58.0735   27.8416   47.6866 H   0  0  0  0  0  0  0  0  0  0  0  0
   58.7845   26.3245   47.0090 H   0  0  0  0  0  0  0  0  0  0  0  0
   59.6630   28.5210   46.0228 H   0  0  0  0  0  0  0  0  0  0  0  0
   59.0358   27.2869   44.8473 H   0  0  0  0  0  0  0  0  0  0  0  0
   59.3758   30.3966   44.4852 H   0  0  0  0  0  0  0  0  0  0  0  0
   56.8148   32.9444   45.7231 H   0  0  0  0  0  0  0  0  0  0  0  0
   56.9697   33.1364   48.2034 H   0  0  0  0  0  0  0  0  0  0  0  0
   60.0560   33.5770   50.0730 H   0  0  0  0  0  0  0  0  0  0  0  0
   61.2130   33.9203   47.8833 H   0  0  0  0  0  0  0  0  0  0  0  0
   61.0628   33.7247   45.4003 H   0  0  0  0  0  0  0  0  0  0  0  0
   55.3448   31.4898   43.3373 H   0  0  0  0  0  0  0  0  0  0  0  0
   54.4835   29.3810   44.3491 H   0  0  0  0  0  0  0  0  0  0  0  0
  1  2  2  0
  2  3  1  0
  3  4  1  0
  4  5  1  0
  5  6  2  0
  6  7  1  0
  7  8  1  0
  8  9  2  0
  8 10  1  0
 10 11  1  0
 11 12  2  0
 12 13  1  0
 13 14  2  0
 14 15  1  0
 14 16  1  0
 16 17  2  0
  7 18  2  0
 18 19  1  0
 19 20  2  0
 20 21  1  0
 21  2  1  0
 20  5  1  0
 17 11  1  0
  3 22  1  0
  3 23  1  0
  4 24  1  0
  4 25  1  0
  6 26  1  0
 12 27  1  0
 13 28  1  0
 15 29  1  0
 16 30  1  0
 17 31  1  0
 18 32  1  0
 19 33  1  0
M  CHG  2  10  -1  21  -1
M  END
>  <UniqueID>  (76) 
63

>  <SMILES>  (76) 
O=C1CCc2cc(C(=O)[N-]c3ccc(O)cc3)ccc2[N-]1

>  <Energy>  (76) 
41.60959967487543

>  <Genealogy>  (76) 
O=C1CCc2cc(C(=O)[N-]c3ccc(O)cc3)ccc2[N-]1 (protonated)
O=C1CCc2cc(C(=O)[N-]c3ccc(O)cc3)ccc2[N-]1 (3D coordinates assigned)
O=C1CCc2cc(C(=O)[N-]c3ccc(O)cc3)ccc2[N-]1 (nonaromatic ring conformer: 41.60959967487543 kcal/mol)

>  <smiles>  (76) 
O=C1CCc2cc(C(=O)Nc3ccc(O)cc3)ccc2N1

>  <score_type>  (76) 
oracle

>  <origin>  (76) 
adg

>  <m_score__min__energy>  (76) 
-10.48

>  <m_primary>  (76) 
energy

$$$$
76:0
     RDKit          3D

 67 71  0  0  1  0  0  0  0  0999 V2000
   65.3430   27.1320   52.6230 C   0  0  0  0  0  0  0  0  0  0  0  0
   66.4200   27.2600   51.6130 C   0  0  0  0  0  0  0  0  0  0  0  0
   66.9640   26.1290   51.0460 C   0  0  0  0  0  0  0  0  0  0  0  0
   67.9640   26.1960   50.1060 C   0  0  0  0  0  0  0  0  0  0  0  0
   68.4100   27.4460   49.7460 C   0  0  0  0  0  0  0  0  0  0  0  0
   67.8780   28.5950   50.3030 C   0  0  0  0  0  0  0  0  0  0  0  0
   66.8660   28.5060   51.2540 C   0  0  0  0  0  0  0  0  0  0  0  0
   66.3660   29.6850   51.7820 O   0  0  0  0  0  0  0  0  0  0  0  0
   65.2150   30.2980   51.2660 C   0  0  0  0  0  0  0  0  0  0  0  0
   63.9880   29.7190   51.5020 C   0  0  0  0  0  0  0  0  0  0  0  0
   64.2010   32.0290   50.0470 C   0  0  0  0  0  0  0  0  0  0  0  0
   64.2540   33.1210   49.3530 N   0  0  0  0  0  0  0  0  0  0  0  0
   60.6270   29.8950   50.2470 C   0  0  0  0  0  0  0  0  0  0  0  0
   60.0540   28.6160   49.7710 C   0  0  0  0  0  0  0  0  0  0  0  0
   59.5290   28.8590   48.3490 C   0  0  0  0  0  0  0  0  0  0  0  0
   59.4870   30.2020   47.9750 N   0  0  0  0  0  0  0  0  0  0  0  0
   59.9150   30.5900   46.6870 C   0  0  0  0  0  0  0  0  0  0  0  0
   58.8710   30.5170   45.6320 C   0  0  0  0  0  0  0  0  0  0  0  0
   58.3960   31.6770   45.0530 C   0  0  0  0  0  0  0  0  0  0  0  0
   57.4280   31.6800   44.0630 C   0  0  0  0  0  0  0  0  0  0  0  0
   56.9170   30.4590   43.6420 C   0  0  0  0  0  0  0  0  0  0  0  0
   57.3610   29.2730   44.1930 C   0  0  0  0  0  0  0  0  0  0  0  0
   58.3310   29.3310   45.1790 C   0  0  0  0  0  0  0  0  0  0  0  0
   59.1130   31.2040   48.8810 C   0  0  0  0  0  0  0  0  0  0  0  0
   59.7120   31.0690   50.2850 C   0  0  0  0  0  0  0  0  0  0  0  0
   62.9900   31.4840   50.2640 N   0  0  0  0  0  0  0  0  0  0  0  0
   62.8840   30.3530   50.9770 C   0  0  0  0  0  0  0  0  0  0  0  0
   61.7170   29.8580   51.1660 N   0  0  0  0  0  0  0  0  0  0  0  0
   63.0540   33.4640   48.6320 C   0  0  0  0  0  0  0  0  0  0  0  0
   62.0290   34.1080   49.3090 C   0  0  0  0  0  0  0  0  0  0  0  0
   60.8900   34.4270   48.5990 C   0  0  0  0  0  0  0  0  0  0  0  0
   60.7690   34.1180   47.2560 C   0  0  0  0  0  0  0  0  0  0  0  0
   59.5620   34.4620   46.5260 C   0  0  0  0  0  0  0  0  0  0  0  0
   58.5970   34.7450   45.9520 N   0  0  0  0  0  0  0  0  0  0  0  0
   61.8020   33.4720   46.5870 C   0  0  0  0  0  0  0  0  0  0  0  0
   62.9580   33.1440   47.2920 C   0  0  0  0  0  0  0  0  0  0  0  0
   65.3120   31.4410   50.5450 N   0  0  0  0  0  0  0  0  0  0  0  0
   65.7784   27.1837   53.6318 H   0  0  0  0  0  0  0  0  0  0  0  0
   64.6196   27.9505   52.4934 H   0  0  0  0  0  0  0  0  0  0  0  0
   64.8316   26.1668   52.4934 H   0  0  0  0  0  0  0  0  0  0  0  0
   66.5868   25.1429   51.3547 H   0  0  0  0  0  0  0  0  0  0  0  0
   68.3908   25.2859   49.6592 H   0  0  0  0  0  0  0  0  0  0  0  0
   69.2100   27.5344   48.9962 H   0  0  0  0  0  0  0  0  0  0  0  0
   68.2556   29.5808   49.9937 H   0  0  0  0  0  0  0  0  0  0  0  0
   63.8939   28.7906   52.0844 H   0  0  0  0  0  0  0  0  0  0  0  0
   61.2293   30.1527   49.3633 H   0  0  0  0  0  0  0  0  0  0  0  0
   60.8297   27.8362   49.7589 H   0  0  0  0  0  0  0  0  0  0  0  0
   59.2448   28.2779   50.4350 H   0  0  0  0  0  0  0  0  0  0  0  0
   60.1834   28.3253   47.6441 H   0  0  0  0  0  0  0  0  0  0  0  0
   58.4916   28.4936   48.3292 H   0  0  0  0  0  0  0  0  0  0  0  0
   60.2711   31.6292   46.7440 H   0  0  0  0  0  0  0  0  0  0  0  0
   60.6993   29.8762   46.3946 H   0  0  0  0  0  0  0  0  0  0  0  0
   58.8042   32.6403   45.3929 H   0  0  0  0  0  0  0  0  0  0  0  0
   57.0735   32.6233   43.6221 H   0  0  0  0  0  0  0  0  0  0  0  0
   56.1465   30.4363   42.8573 H   0  0  0  0  0  0  0  0  0  0  0  0
   56.9545   28.3076   43.8572 H   0  0  0  0  0  0  0  0  0  0  0  0
   58.6873   28.3889   45.6213 H   0  0  0  0  0  0  0  0  0  0  0  0
   59.4298   32.1727   48.4673 H   0  0  0  0  0  0  0  0  0  0  0  0
   58.0235   31.1145   49.0034 H   0  0  0  0  0  0  0  0  0  0  0  0
   60.2724   31.9784   50.5474 H   0  0  0  0  0  0  0  0  0  0  0  0
   58.9242   30.9332   51.0406 H   0  0  0  0  0  0  0  0  0  0  0  0
   62.1290   31.9580   49.8680 H   0  0  0  0  0  0  0  0  0  0  0  0
   62.1212   34.3562   50.3767 H   0  0  0  0  0  0  0  0  0  0  0  0
   60.0611   34.9375   49.1112 H   0  0  0  0  0  0  0  0  0  0  0  0
   61.7084   33.2240   45.5194 H   0  0  0  0  0  0  0  0  0  0  0  0
   63.7894   32.6331   46.7843 H   0  0  0  0  0  0  0  0  0  0  0  0
   66.2340   31.8980   50.3530 H   0  0  0  0  0  0  0  0  0  0  0  0
  1  2  1  0
  2  3  2  0
  3  4  1  0
  4  5  2  0
  5  6  1  0
  6  7  2  0
  7  8  1  0
  8  9  1  0
  9 10  2  0
 10 11  1  0
 11 12  2  0
 12 13  1  0
 13 14  1  0
 14 15  1  0
 15 16  1  0
 16 17  1  0
 17 18  1  0
 18 19  2  0
 19 20  1  0
 20 21  2  0
 21 22  1  0
 22 23  2  0
 16 24  1  0
 24 25  1  0
 11 26  1  0
 26 27  1  0
 27 28  2  0
 28 29  1  0
 29 30  2  0
 30 31  1  0
 31 32  2  0
 32 33  1  0
 33 34  3  0
 32 35  1  0
 35 36  2  0
 27 37  1  0
  7  2  1  0
 37  9  1  0
 25 13  1  0
 36 29  1  0
 23 18  1  0
  1 38  1  0
  1 39  1  0
  1 40  1  0
  3 41  1  0
  4 42  1  0
  5 43  1  0
  6 44  1  0
 10 45  1  0
 13 46  1  0
 14 47  1  0
 14 48  1  0
 15 49  1  0
 15 50  1  0
 17 51  1  0
 17 52  1  0
 19 53  1  0
 20 54  1  0
 21 55  1  0
 22 56  1  0
 23 57  1  0
 24 58  1  0
 24 59  1  0
 25 60  1  0
 25 61  1  0
 26 62  1  0
 30 63  1  0
 31 64  1  0
 35 65  1  0
 36 66  1  0
 37 67  1  0
M  END
>  <smiles>  (77) 
Cc1ccccc1Oc1cc(=NC2CCN(Cc3ccccc3)CC2)[nH]c(=Nc2ccc(C#N)cc2)[nH]1

>  <score_type>  (77) 
oracle

>  <origin>  (77) 
adg

>  <m_score__min__energy>  (77) 
-10.199999999999999

>  <m_primary>  (77) 
energy

$$$$
77:0
     RDKit          3D

 71 74  0  0  0  0  0  0  0  0999 V2000
   64.7530   32.6710   46.7590 H   0  0  0  0  0  0  0  0  0  0  0  0
   64.1440   33.2980   46.2870 O   0  0  0  0  0  0  0  0  0  0  0  0
   63.2530   33.7910   47.2500 C   0  0  0  0  0  0  0  0  0  0  0  0
   62.4274   34.3153   46.7465 H   0  0  0  0  0  0  0  0  0  0  0  0
   63.7896   34.4851   47.9135 H   0  0  0  0  0  0  0  0  0  0  0  0
   62.6930   32.6530   48.0750 C   0  0  0  0  0  0  0  0  0  0  0  0
   61.6760   31.8640   47.5110 C   0  0  0  0  0  0  0  0  0  0  0  0
   61.2804   32.1203   46.5171 H   0  0  0  0  0  0  0  0  0  0  0  0
   61.1560   30.7520   48.1970 C   0  0  0  0  0  0  0  0  0  0  0  0
   60.1400   29.8660   47.5760 C   0  0  0  0  0  0  0  0  0  0  0  0
   59.5390   30.1290   46.4020 N   0  0  0  0  0  0  0  0  0  0  0  0
   58.6280   29.1400   46.2580 C   0  0  0  0  0  0  0  0  0  0  0  0
   57.6640   29.0960   45.1230 C   0  0  0  0  0  0  0  0  0  0  0  0
   56.7830   30.0300   44.8910 N   0  0  0  0  0  0  0  0  0  0  0  0
   57.0270   31.4010   44.5660 C   0  0  0  0  0  0  0  0  0  0  0  0
   57.2960   31.7110   43.3750 O   0  0  0  0  0  0  0  0  0  0  0  0
   56.9280   32.4100   45.5790 N   0  0  0  0  0  0  0  0  0  0  0  0
   57.9550   33.3400   45.9510 C   0  0  0  0  0  0  0  0  0  0  0  0
   58.6000   34.0530   44.9330 C   0  0  0  0  0  0  0  0  0  0  0  0
   58.3052   33.8947   43.8851 H   0  0  0  0  0  0  0  0  0  0  0  0
   59.6140   34.9630   45.2370 C   0  0  0  0  0  0  0  0  0  0  0  0
   60.1081   35.5250   44.4308 H   0  0  0  0  0  0  0  0  0  0  0  0
   60.0010   35.1600   46.5630 C   0  0  0  0  0  0  0  0  0  0  0  0
   60.7912   35.8869   46.8021 H   0  0  0  0  0  0  0  0  0  0  0  0
   59.3870   34.4360   47.5870 C   0  0  0  0  0  0  0  0  0  0  0  0
   59.6968   34.5957   48.6303 H   0  0  0  0  0  0  0  0  0  0  0  0
   58.3720   33.5010   47.2930 C   0  0  0  0  0  0  0  0  0  0  0  0
   57.7770   32.7090   48.2900 O   0  0  0  0  0  0  0  0  0  0  0  0
   58.4630   32.0010   49.3240 C   0  0  0  0  0  0  0  0  0  0  0  0
   57.7974   31.2262   49.7322 H   0  0  0  0  0  0  0  0  0  0  0  0
   59.3678   31.5449   48.8959 H   0  0  0  0  0  0  0  0  0  0  0  0
   58.8810   32.9480   50.4530 C   0  0  0  0  0  0  0  0  0  0  0  0
   59.9211   33.2669   50.2905 H   0  0  0  0  0  0  0  0  0  0  0  0
   58.2101   33.8197   50.4504 H   0  0  0  0  0  0  0  0  0  0  0  0
   58.7790   32.2710   51.7690 N   0  0  0  0  0  0  0  0  0  0  0  0
   57.4050   32.2990   52.3130 C   0  0  0  0  0  0  0  0  0  0  0  0
   57.4416   32.0782   53.3900 H   0  0  0  0  0  0  0  0  0  0  0  0
   56.9816   33.2984   52.1343 H   0  0  0  0  0  0  0  0  0  0  0  0
   56.5080   31.2620   51.6200 C   0  0  0  0  0  0  0  0  0  0  0  0
   55.5039   31.2937   52.0681 H   0  0  0  0  0  0  0  0  0  0  0  0
   56.4501   31.4993   50.5475 H   0  0  0  0  0  0  0  0  0  0  0  0
   57.0470   29.9640   51.7750 O   0  0  0  0  0  0  0  0  0  0  0  0
   58.3010   29.8920   51.1270 C   0  0  0  0  0  0  0  0  0  0  0  0
   58.6991   28.8715   51.2274 H   0  0  0  0  0  0  0  0  0  0  0  0
   58.1616   30.1503   50.0669 H   0  0  0  0  0  0  0  0  0  0  0  0
   59.3030   30.8860   51.7450 C   0  0  0  0  0  0  0  0  0  0  0  0
   59.5215   30.5726   52.7765 H   0  0  0  0  0  0  0  0  0  0  0  0
   60.2099   30.8802   51.1225 H   0  0  0  0  0  0  0  0  0  0  0  0
   57.7240   27.9460   44.1500 C   0  0  0  0  0  0  0  0  0  0  0  0
   58.6272   28.0495   43.5307 H   0  0  0  0  0  0  0  0  0  0  0  0
   56.8160   27.9734   43.5297 H   0  0  0  0  0  0  0  0  0  0  0  0
   57.7690   26.5960   44.8720 C   0  0  0  0  0  0  0  0  0  0  0  0
   58.7015   26.5317   45.4519 H   0  0  0  0  0  0  0  0  0  0  0  0
   57.7223   25.7985   44.1159 H   0  0  0  0  0  0  0  0  0  0  0  0
   56.3480   26.3950   46.0070 S   0  0  0  0  0  0  0  0  0  0  0  0
   57.1600   25.2250   47.1440 C   0  0  0  0  0  0  0  0  0  0  0  0
   56.9545   25.5212   48.1832 H   0  0  0  0  0  0  0  0  0  0  0  0
   56.7700   24.2117   46.9675 H   0  0  0  0  0  0  0  0  0  0  0  0
   58.2457   25.2359   46.9675 H   0  0  0  0  0  0  0  0  0  0  0  0
   58.6160   28.2790   47.3000 N   0  0  0  0  0  0  0  0  0  0  0  0
   59.5780   28.7300   48.1210 C   0  0  0  0  0  0  0  0  0  0  0  0
   59.8710   28.2678   49.0752 H   0  0  0  0  0  0  0  0  0  0  0  0
   61.6490   30.4550   49.4770 C   0  0  0  0  0  0  0  0  0  0  0  0
   61.2316   29.6057   50.0378 H   0  0  0  0  0  0  0  0  0  0  0  0
   62.6630   31.2260   50.0450 C   0  0  0  0  0  0  0  0  0  0  0  0
   63.0377   30.9769   51.0488 H   0  0  0  0  0  0  0  0  0  0  0  0
   63.2110   32.3160   49.3510 C   0  0  0  0  0  0  0  0  0  0  0  0
   64.3270   33.1020   49.9880 C   0  0  0  0  0  0  0  0  0  0  0  0
   64.2401   33.0408   51.0829 H   0  0  0  0  0  0  0  0  0  0  0  0
   65.2951   32.6853   49.6732 H   0  0  0  0  0  0  0  0  0  0  0  0
   64.2608   34.1539   49.6732 H   0  0  0  0  0  0  0  0  0  0  0  0
  1  2  1  0
  2  3  1  0
  3  4  1  0
  3  5  1  0
  3  6  1  0
  6  7  2  0
  7  8  1  0
  7  9  1  0
  9 10  1  0
 10 11  1  0
 11 12  2  0
 12 13  1  0
 13 14  2  0
 14 15  1  0
 15 16  2  0
 15 17  1  0
 17 18  1  0
 18 19  2  0
 19 20  1  0
 19 21  1  0
 21 22  1  0
 21 23  2  0
 23 24  1  0
 23 25  1  0
 25 26  1  0
 25 27  2  0
 27 28  1  0
 28 29  1  0
 29 30  1  0
 29 31  1  0
 29 32  1  0
 32 33  1  0
 32 34  1  0
 32 35  1  0
 35 36  1  0
 36 37  1  0
 36 38  1  0
 36 39  1  0
 39 40  1  0
 39 41  1  0
 39 42  1  0
 42 43  1  0
 43 44  1  0
 43 45  1  0
 43 46  1  0
 46 47  1  0
 46 48  1  0
 13 49  1  0
 49 50  1  0
 49 51  1  0
 49 52  1  0
 52 53  1  0
 52 54  1  0
 52 55  1  0
 55 56  1  0
 56 57  1  0
 56 58  1  0
 56 59  1  0
 12 60  1  0
 60 61  1  0
 61 62  1  0
  9 63  2  0
 63 64  1  0
 63 65  1  0
 65 66  1  0
 65 67  2  0
 67 68  1  0
 68 69  1  0
 68 70  1  0
 68 71  1  0
 67  6  1  0
 61 10  2  0
 27 18  1  0
 46 35  1  0
M  CHG  2  17  -1  60  -1
M  END
>  <UniqueID>  (78) 
64

>  <SMILES>  (78) 
CSCC/C(=N/C(=O)[N-]c1ccccc1OCCN1CCOCC1)c1nc(-c2ccc(C)c(CO)c2)c[n-]1

>  <Energy>  (78) 
116.31963356490573

>  <Genealogy>  (78) 
CSCCC(=NC(=O)[N-]c1ccccc1OCCN1CCOCC1)c1nc(-c2ccc(C)c(CO)c2)c[n-]1 (protonated)
CSCC/C(=N/C(=O)[N-]c1ccccc1OCCN1CCOCC1)c1nc(-c2ccc(C)c(CO)c2)c[n-]1 (cis-trans isomerization)
CSCC/C(=N/C(=O)[N-]c1ccccc1OCCN1CCOCC1)c1nc(-c2ccc(C)c(CO)c2)c[n-]1 (3D coordinates assigned)
CSCC/C(=N/C(=O)[N-]c1ccccc1OCCN1CCOCC1)c1nc(-c2ccc(C)c(CO)c2)c[n-]1 (nonaromatic ring conformer: 116.31963356490573 kcal/mol)

>  <smiles>  (78) 
CSCCC(=NC(=O)Nc1ccccc1OCCN1CCOCC1)c1nc(-c2ccc(C)c(CO)c2)c[nH]1

>  <score_type>  (78) 
oracle

>  <origin>  (78) 
adg

>  <m_score__min__energy>  (78) 
-12.970000000000001

>  <m_primary>  (78) 
energy

$$$$
78:0
     RDKit          3D

 67 70  0  0  0  0  0  0  0  0999 V2000
   55.8430   30.7230   52.0000 C   0  0  0  0  0  0  0  0  0  0  0  0
   57.0330   30.1560   51.4630 O   0  0  0  0  0  0  0  0  0  0  0  0
   58.3300   30.6400   51.7020 C   0  0  0  0  0  0  0  0  0  0  0  0
   58.6290   31.4110   52.8430 C   0  0  0  0  0  0  0  0  0  0  0  0
   59.9260   31.8760   53.0610 C   0  0  0  0  0  0  0  0  0  0  0  0
   60.9380   31.5750   52.1520 C   0  0  0  0  0  0  0  0  0  0  0  0
   60.6570   30.8140   51.0170 C   0  0  0  0  0  0  0  0  0  0  0  0
   59.3510   30.3430   50.7730 C   0  0  0  0  0  0  0  0  0  0  0  0
   59.0440   29.5400   49.6150 N   0  0  0  0  0  0  0  0  0  0  0  0
   59.9620   29.5210   48.1390 S   0  0  0  0  0  0  0  0  0  0  0  0
   61.1670   30.3920   48.3500 O   0  0  0  0  0  0  0  0  0  0  0  0
   60.4260   28.1250   47.8370 O   0  0  0  0  0  0  0  0  0  0  0  0
   59.0060   30.1620   46.7950 C   0  0  0  0  0  0  0  0  0  0  0  0
   58.9220   31.5510   46.6160 C   0  0  0  0  0  0  0  0  0  0  0  0
   58.2750   32.0960   45.5010 C   0  0  0  0  0  0  0  0  0  0  0  0
   58.2680   33.8460   45.2710 S   0  0  0  0  0  0  0  0  0  0  0  0
   56.8830   34.2780   44.8710 O   0  0  0  0  0  0  0  0  0  0  0  0
   59.2260   34.2120   44.1700 O   0  0  0  0  0  0  0  0  0  0  0  0
   58.7330   34.6910   46.7160 N   0  0  0  0  0  0  0  0  0  0  0  0
   59.8490   34.3060   47.5210 C   0  0  0  0  0  0  0  0  0  0  0  0
   59.7100   34.2640   48.9120 C   0  0  0  0  0  0  0  0  0  0  0  0
   60.7830   33.8620   49.7120 C   0  0  0  0  0  0  0  0  0  0  0  0
   61.9970   33.4940   49.1260 C   0  0  0  0  0  0  0  0  0  0  0  0
   62.1510   33.5260   47.7290 C   0  0  0  0  0  0  0  0  0  0  0  0
   63.4650   33.1550   47.0910 C   0  0  0  0  0  0  0  0  0  0  0  0
   63.6610   33.8670   45.9200 F   0  0  0  0  0  0  0  0  0  0  0  0
   63.4680   31.8030   46.8040 F   0  0  0  0  0  0  0  0  0  0  0  0
   64.5170   33.4370   47.9460 F   0  0  0  0  0  0  0  0  0  0  0  0
   61.0820   33.9800   46.9360 C   0  0  0  0  0  0  0  0  0  0  0  0
   57.6700   31.2440   44.5700 C   0  0  0  0  0  0  0  0  0  0  0  0
   57.7170   29.8620   44.7520 C   0  0  0  0  0  0  0  0  0  0  0  0
   58.3810   29.3090   45.8570 C   0  0  0  0  0  0  0  0  0  0  0  0
   58.4050   27.8820   46.0150 N   0  0  0  0  0  0  0  0  0  0  0  0
   57.7790   27.2670   47.1810 C   0  0  0  0  0  0  0  0  0  0  0  0
   57.0160   25.9970   46.7620 C   0  0  1  0  0  0  0  0  0  0  0  0
   55.7300   26.3330   45.9990 C   0  0  0  0  0  0  0  0  0  0  0  0
   57.7770   25.0480   46.0190 O   0  0  0  0  0  0  0  0  0  0  0  0
   58.9040   25.5500   45.3060 C   0  0  2  0  0  0  0  0  0  0  0  0
   60.1910   25.2210   46.0700 C   0  0  0  0  0  0  0  0  0  0  0  0
   58.8280   27.0400   44.8990 C   0  0  0  0  0  0  0  0  0  0  0  0
   55.8897   30.7008   53.0988 H   0  0  0  0  0  0  0  0  0  0  0  0
   55.7462   31.7640   51.6581 H   0  0  0  0  0  0  0  0  0  0  0  0
   54.9735   30.1424   51.6581 H   0  0  0  0  0  0  0  0  0  0  0  0
   57.8347   31.6476   53.5663 H   0  0  0  0  0  0  0  0  0  0  0  0
   60.1500   32.4812   53.9518 H   0  0  0  0  0  0  0  0  0  0  0  0
   61.9610   31.9382   52.3296 H   0  0  0  0  0  0  0  0  0  0  0  0
   61.4624   30.5792   50.3056 H   0  0  0  0  0  0  0  0  0  0  0  0
   58.1720   28.9660   49.6070 H   0  0  0  0  0  0  0  0  0  0  0  0
   59.3714   32.2217   47.3632 H   0  0  0  0  0  0  0  0  0  0  0  0
   58.7545   34.5479   49.3771 H   0  0  0  0  0  0  0  0  0  0  0  0
   60.6716   33.8352   50.8060 H   0  0  0  0  0  0  0  0  0  0  0  0
   62.8371   33.1774   49.7616 H   0  0  0  0  0  0  0  0  0  0  0  0
   61.2135   34.0803   45.8485 H   0  0  0  0  0  0  0  0  0  0  0  0
   57.1565   31.6651   43.6931 H   0  0  0  0  0  0  0  0  0  0  0  0
   57.2288   29.1994   44.0222 H   0  0  0  0  0  0  0  0  0  0  0  0
   58.5556   27.0003   47.9129 H   0  0  0  0  0  0  0  0  0  0  0  0
   57.0723   27.9808   47.6294 H   0  0  0  0  0  0  0  0  0  0  0  0
   56.7722   25.5124   47.7189 H   0  0  0  0  0  0  0  0  0  0  0  0
   54.9228   26.5439   46.7159 H   0  0  0  0  0  0  0  0  0  0  0  0
   55.8991   27.2171   45.3667 H   0  0  0  0  0  0  0  0  0  0  0  0
   55.4451   25.4792   45.3667 H   0  0  0  0  0  0  0  0  0  0  0  0
   58.9043   25.0281   44.3377 H   0  0  0  0  0  0  0  0  0  0  0  0
   59.9980   25.2703   47.1518 H   0  0  0  0  0  0  0  0  0  0  0  0
   60.5270   24.2081   45.8033 H   0  0  0  0  0  0  0  0  0  0  0  0
   60.9719   25.9484   45.8033 H   0  0  0  0  0  0  0  0  0  0  0  0
   59.8217   27.3686   44.5607 H   0  0  0  0  0  0  0  0  0  0  0  0
   58.0857   27.1388   44.0932 H   0  0  0  0  0  0  0  0  0  0  0  0
  1  2  1  0
  2  3  1  0
  3  4  2  0
  4  5  1  0
  5  6  2  0
  6  7  1  0
  7  8  2  0
  8  9  1  0
  9 10  1  0
 10 11  2  0
 10 12  2  0
 10 13  1  0
 13 14  2  0
 14 15  1  0
 15 16  1  0
 16 17  2  0
 16 18  2  0
 16 19  1  0
 19 20  1  0
 20 21  2  0
 21 22  1  0
 22 23  2  0
 23 24  1  0
 24 25  1  0
 25 26  1  0
 25 27  1  0
 25 28  1  0
 24 29  2  0
 15 30  2  0
 30 31  1  0
 31 32  2  0
 32 33  1  0
 33 34  1  0
 34 35  1  0
 35 36  1  0
 35 37  1  0
 37 38  1  0
 38 39  1  0
 38 40  1  0
  8  3  1  0
 32 13  1  0
 40 33  1  0
 29 20  1  0
  1 41  1  0
  1 42  1  0
  1 43  1  0
  4 44  1  0
  5 45  1  0
  6 46  1  0
  7 47  1  0
  9 48  1  0
 14 49  1  0
 21 50  1  0
 22 51  1  0
 23 52  1  0
 29 53  1  0
 30 54  1  0
 31 55  1  0
 34 56  1  0
 34 57  1  0
 35 58  1  1
 36 59  1  0
 36 60  1  0
 36 61  1  0
 38 62  1  6
 39 63  1  0
 39 64  1  0
 39 65  1  0
 40 66  1  0
 40 67  1  0
M  CHG  1  19  -1
M  END
>  <UniqueID>  (79) 
65

>  <SMILES>  (79) 
COc1ccccc1NS(=O)(=O)c1cc(S(=O)(=O)[N-]c2cccc(C(F)(F)F)c2)ccc1N1C[C@@H](C)O[C@H](C)C1

>  <Energy>  (79) 
91.0090967384718

>  <Genealogy>  (79) 
COc1ccccc1NS(=O)(=O)c1cc(S(=O)(=O)[N-]c2cccc(C(F)(F)F)c2)ccc1N1CC(C)OC(C)C1 (protonated)
COc1ccccc1NS(=O)(=O)c1cc(S(=O)(=O)[N-]c2cccc(C(F)(F)F)c2)ccc1N1C[C@@H](C)O[C@H](C)C1 (chirality)
COc1ccccc1NS(=O)(=O)c1cc(S(=O)(=O)[N-]c2cccc(C(F)(F)F)c2)ccc1N1C[C@@H](C)O[C@H](C)C1 (3D coordinates assigned)
COc1ccccc1NS(=O)(=O)c1cc(S(=O)(=O)[N-]c2cccc(C(F)(F)F)c2)ccc1N1C[C@@H](C)O[C@H](C)C1 (nonaromatic ring conformer: 91.0090967384718 kcal/mol)

>  <smiles>  (79) 
COc1ccccc1NS(=O)(=O)c1cc(S(=O)(=O)Nc2cccc(C(F)(F)F)c2)ccc1N1CC(C)OC(C)C1

>  <score_type>  (79) 
oracle

>  <origin>  (79) 
adg

>  <m_score__min__energy>  (79) 
-11.77

>  <m_primary>  (79) 
energy

$$$$
79:0
     RDKit          3D

 68 71  0  0  0  0  0  0  0  0999 V2000
   67.1490   29.3920   51.3430 C   0  0  0  0  0  0  0  0  0  0  0  0
   67.1190   30.6890   50.7740 O   0  0  0  0  0  0  0  0  0  0  0  0
   65.9170   31.2780   50.4480 N   0  0  0  0  0  0  0  0  0  0  0  0
   65.7980   32.5580   50.2650 C   0  0  0  0  0  0  0  0  0  0  0  0
   66.9260   33.4240   50.4610 N   0  0  0  0  0  0  0  0  0  0  0  0
   64.4830   33.1110   49.8560 C   0  0  0  0  0  0  0  0  0  0  0  0
   64.0600   33.0530   48.5170 C   0  0  0  0  0  0  0  0  0  0  0  0
   62.8040   33.5440   48.1460 C   0  0  0  0  0  0  0  0  0  0  0  0
   61.9490   34.1110   49.1030 C   0  0  0  0  0  0  0  0  0  0  0  0
   60.5660   34.5720   48.7020 C   0  0  0  0  0  0  0  0  0  0  0  0
   59.7790   33.4830   47.9900 C   0  0  0  0  0  0  0  0  0  0  0  0
   59.3000   32.3270   48.6600 C   0  0  0  0  0  0  0  0  0  0  0  0
   59.5500   32.0450   50.1210 C   0  0  0  0  0  0  0  0  0  0  0  0
   58.3140   31.5350   50.7940 C   0  0  0  0  0  0  0  0  0  0  0  0
   57.7920   30.2550   50.4490 N   0  0  0  0  0  0  0  0  0  0  0  0
   57.7320   32.2360   51.6630 O   0  0  0  0  0  0  0  0  0  0  0  0
   58.5700   31.4120   47.9750 N   0  0  0  0  0  0  0  0  0  0  0  0
   58.2840   31.5350   46.6570 C   0  0  0  0  0  0  0  0  0  0  0  0
   57.5180   30.5450   46.0340 C   0  0  0  0  0  0  0  0  0  0  0  0
   57.1910   30.6400   44.6730 C   0  0  0  0  0  0  0  0  0  0  0  0
   56.3390   29.6110   44.0330 C   0  0  0  0  0  0  0  0  0  0  0  0
   55.1880   29.3660   44.4830 O   0  0  0  0  0  0  0  0  0  0  0  0
   56.8380   28.8740   42.9150 N   0  0  0  0  0  0  0  0  0  0  0  0
   57.7690   27.7600   43.0280 C   0  0  0  0  0  0  0  0  0  0  0  0
   58.3240   27.6840   44.4560 C   0  0  0  0  0  0  0  0  0  0  0  0
   59.6970   28.3610   44.6140 C   0  0  0  0  0  0  0  0  0  0  0  0
   60.0500   28.6340   46.0560 C   0  0  0  0  0  0  0  0  0  0  0  0
   60.8830   29.7170   46.3880 C   0  0  0  0  0  0  0  0  0  0  0  0
   61.1780   29.9950   47.7260 C   0  0  0  0  0  0  0  0  0  0  0  0
   60.6400   29.2000   48.7420 C   0  0  0  0  0  0  0  0  0  0  0  0
   59.8080   28.1250   48.4210 C   0  0  0  0  0  0  0  0  0  0  0  0
   59.5150   27.8390   47.0840 C   0  0  0  0  0  0  0  0  0  0  0  0
   57.6630   31.7400   43.9390 C   0  0  0  0  0  0  0  0  0  0  0  0
   58.4340   32.7320   44.5540 C   0  0  0  0  0  0  0  0  0  0  0  0
   58.7530   32.6470   45.9250 C   0  0  0  0  0  0  0  0  0  0  0  0
   59.5200   33.6260   46.6070 C   0  0  0  0  0  0  0  0  0  0  0  0
   60.0400   34.7530   45.9550 O   0  0  0  0  0  0  0  0  0  0  0  0
   62.3650   34.1620   50.4430 C   0  0  0  0  0  0  0  0  0  0  0  0
   63.6180   33.6690   50.8160 C   0  0  0  0  0  0  0  0  0  0  0  0
   67.1471   29.4727   52.4400 H   0  0  0  0  0  0  0  0  0  0  0  0
   66.2637   28.8273   51.0154 H   0  0  0  0  0  0  0  0  0  0  0  0
   68.0595   28.8688   51.0154 H   0  0  0  0  0  0  0  0  0  0  0  0
   67.8760   33.0410   50.6580 H   0  0  0  0  0  0  0  0  0  0  0  0
   66.8100   34.4610   50.4860 H   0  0  0  0  0  0  0  0  0  0  0  0
   64.7224   32.6177   47.7542 H   0  0  0  0  0  0  0  0  0  0  0  0
   62.4839   33.4851   47.0952 H   0  0  0  0  0  0  0  0  0  0  0  0
   60.0167   34.8715   49.6067 H   0  0  0  0  0  0  0  0  0  0  0  0
   60.6811   35.4149   48.0047 H   0  0  0  0  0  0  0  0  0  0  0  0
   60.3444   31.2893   50.2096 H   0  0  0  0  0  0  0  0  0  0  0  0
   59.8505   32.9834   50.6100 H   0  0  0  0  0  0  0  0  0  0  0  0
   57.7880   29.9250   49.4590 H   0  0  0  0  0  0  0  0  0  0  0  0
   57.1675   29.6812   46.6180 H   0  0  0  0  0  0  0  0  0  0  0  0
   57.2457   26.8222   42.7900 H   0  0  0  0  0  0  0  0  0  0  0  0
   58.6009   27.9114   42.3245 H   0  0  0  0  0  0  0  0  0  0  0  0
   57.6118   28.1773   45.1338 H   0  0  0  0  0  0  0  0  0  0  0  0
   58.4570   26.6190   44.6969 H   0  0  0  0  0  0  0  0  0  0  0  0
   60.4655   27.7030   44.1822 H   0  0  0  0  0  0  0  0  0  0  0  0
   59.6515   29.3294   44.0943 H   0  0  0  0  0  0  0  0  0  0  0  0
   61.3043   30.3482   45.5917 H   0  0  0  0  0  0  0  0  0  0  0  0
   61.8344   30.8405   47.9795 H   0  0  0  0  0  0  0  0  0  0  0  0
   60.8718   29.4210   49.7943 H   0  0  0  0  0  0  0  0  0  0  0  0
   59.3824   27.5021   49.2216 H   0  0  0  0  0  0  0  0  0  0  0  0
   58.8632   26.9884   46.8359 H   0  0  0  0  0  0  0  0  0  0  0  0
   57.4238   31.8226   42.8685 H   0  0  0  0  0  0  0  0  0  0  0  0
   58.7949   33.5864   43.9626 H   0  0  0  0  0  0  0  0  0  0  0  0
   59.7270   35.7010   46.0990 H   0  0  0  0  0  0  0  0  0  0  0  0
   61.6993   34.5934   51.2051 H   0  0  0  0  0  0  0  0  0  0  0  0
   63.9313   33.7174   51.8693 H   0  0  0  0  0  0  0  0  0  0  0  0
  1  2  1  0
  2  3  1  0
  3  4  2  3
  4  5  1  0
  4  6  1  0
  6  7  2  0
  7  8  1  0
  8  9  2  0
  9 10  1  0
 10 11  1  0
 11 12  2  0
 12 13  1  0
 13 14  1  0
 14 15  1  0
 14 16  2  0
 12 17  1  0
 17 18  2  0
 18 19  1  0
 19 20  2  0
 20 21  1  0
 21 22  2  0
 21 23  1  0
 23 24  1  0
 24 25  1  0
 25 26  1  0
 26 27  1  0
 27 28  2  0
 28 29  1  0
 29 30  2  0
 30 31  1  0
 31 32  2  0
 20 33  1  0
 33 34  2  0
 34 35  1  0
 35 36  2  0
 36 37  1  0
  9 38  1  0
 38 39  2  0
 39  6  1  0
 36 11  1  0
 35 18  1  0
 32 27  1  0
  1 40  1  0
  1 41  1  0
  1 42  1  0
  5 43  1  0
  5 44  1  0
  7 45  1  0
  8 46  1  0
 10 47  1  0
 10 48  1  0
 13 49  1  0
 13 50  1  0
 15 51  1  0
 19 52  1  0
 24 53  1  0
 24 54  1  0
 25 55  1  0
 25 56  1  0
 26 57  1  0
 26 58  1  0
 28 59  1  0
 29 60  1  0
 30 61  1  0
 31 62  1  0
 32 63  1  0
 33 64  1  0
 34 65  1  0
 37 66  1  0
 38 67  1  0
 39 68  1  0
M  CHG  2  15  -1  23  -1
M  END
>  <UniqueID>  (80) 
66

>  <SMILES>  (80) 
CON=C(N)c1ccc(Cc2c(CC([NH-])=O)nc3cc(C(=O)[N-]CCCc4ccccc4)ccc3c2O)cc1

>  <Energy>  (80) 
68.39202750660651

>  <Genealogy>  (80) 
CON=C(N)c1ccc(Cc2c(CC([NH-])=O)nc3cc(C(=O)[N-]CCCc4ccccc4)ccc3c2O)cc1 (protonated)
CON=C(N)c1ccc(Cc2c(CC([NH-])=O)nc3cc(C(=O)[N-]CCCc4ccccc4)ccc3c2O)cc1 (3D coordinates assigned)
CON=C(N)c1ccc(Cc2c(CC([NH-])=O)nc3cc(C(=O)[N-]CCCc4ccccc4)ccc3c2O)cc1 (optimized conformer: 68.39202750660651 kcal/mol)

>  <smiles>  (80) 
CON=C(N)c1ccc(Cc2c(CC(N)=O)nc3cc(C(=O)NCCCc4ccccc4)ccc3c2O)cc1

>  <score_type>  (80) 
oracle

>  <origin>  (80) 
adg

>  <m_score__min__energy>  (80) 
-13.880000000000001

>  <m_primary>  (80) 
energy

$$$$
80:0
     RDKit          3D

 51 53  0  0  0  0  0  0  0  0999 V2000
   57.2170   34.2160   44.8980 C   0  0  0  0  0  0  0  0  0  0  0  0
   58.1940   33.7910   46.0010 C   0  0  0  0  0  0  0  0  0  0  0  0
   59.2960   34.8580   46.2120 C   0  0  0  0  0  0  0  0  0  0  0  0
   60.6870   34.2480   46.4580 C   0  0  0  0  0  0  0  0  0  0  0  0
   60.6480   33.0430   47.3120 N   0  0  0  0  0  0  0  0  0  0  0  0
   60.3480   33.4350   48.9930 S   0  0  0  0  0  0  0  0  0  0  0  0
   59.6330   34.7530   49.0880 O   0  0  0  0  0  0  0  0  0  0  0  0
   61.6470   33.5340   49.7410 O   0  0  0  0  0  0  0  0  0  0  0  0
   59.3780   32.2030   49.7330 N   0  0  0  0  0  0  0  0  0  0  0  0
   59.8830   30.9490   50.2020 C   0  0  0  0  0  0  0  0  0  0  0  0
   60.3820   30.7850   51.5060 C   0  0  0  0  0  0  0  0  0  0  0  0
   60.8340   29.5330   51.9300 C   0  0  0  0  0  0  0  0  0  0  0  0
   60.7600   28.4300   51.0740 C   0  0  0  0  0  0  0  0  0  0  0  0
   60.2300   28.5740   49.7830 C   0  0  0  0  0  0  0  0  0  0  0  0
   60.0350   27.3940   48.9140 C   0  0  0  0  0  0  0  0  0  0  0  0
   60.7870   26.3920   49.0450 O   0  0  0  0  0  0  0  0  0  0  0  0
   59.0190   27.3760   47.9010 N   0  0  0  0  0  0  0  0  0  0  0  0
   59.0840   28.1140   46.6710 C   0  0  0  0  0  0  0  0  0  0  0  0
   60.2970   28.2710   45.9780 C   0  0  0  0  0  0  0  0  0  0  0  0
   60.3290   28.9620   44.7640 C   0  0  0  0  0  0  0  0  0  0  0  0
   59.1560   29.5030   44.2350 C   0  0  0  0  0  0  0  0  0  0  0  0
   57.9450   29.3730   44.9280 C   0  0  0  0  0  0  0  0  0  0  0  0
   56.4670   30.0240   44.2300 S   0  0  0  0  0  0  0  0  0  0  0  0
   55.1490   28.9660   44.5870 N   0  0  0  0  0  0  0  0  0  0  0  0
   56.1810   31.3840   44.8000 O   0  0  0  0  0  0  0  0  0  0  0  0
   56.6250   30.1470   42.7400 O   0  0  0  0  0  0  0  0  0  0  0  0
   57.9160   28.6860   46.1520 C   0  0  0  0  0  0  0  0  0  0  0  0
   59.8340   29.8480   49.3430 C   0  0  0  0  0  0  0  0  0  0  0  0
   59.7470   31.9710   46.8200 C   0  0  0  0  0  0  0  0  0  0  0  0
   58.7970   32.4150   45.6920 C   0  0  0  0  0  0  0  0  0  0  0  0
   56.2994   34.6152   45.3548 H   0  0  0  0  0  0  0  0  0  0  0  0
   57.6837   34.9924   44.2740 H   0  0  0  0  0  0  0  0  0  0  0  0
   56.9671   33.3452   44.2740 H   0  0  0  0  0  0  0  0  0  0  0  0
   57.6322   33.7080   46.9431 H   0  0  0  0  0  0  0  0  0  0  0  0
   59.3456   35.4924   45.3147 H   0  0  0  0  0  0  0  0  0  0  0  0
   59.0271   35.4345   47.1094 H   0  0  0  0  0  0  0  0  0  0  0  0
   61.1264   33.9751   45.4872 H   0  0  0  0  0  0  0  0  0  0  0  0
   61.2885   35.0039   46.9841 H   0  0  0  0  0  0  0  0  0  0  0  0
   60.4166   31.6433   52.1931 H   0  0  0  0  0  0  0  0  0  0  0  0
   61.2498   29.4145   52.9415 H   0  0  0  0  0  0  0  0  0  0  0  0
   61.1182   27.4469   51.4136 H   0  0  0  0  0  0  0  0  0  0  0  0
   61.2240   27.8485   46.3929 H   0  0  0  0  0  0  0  0  0  0  0  0
   61.2802   29.0799   44.2242 H   0  0  0  0  0  0  0  0  0  0  0  0
   59.1823   30.0329   43.2714 H   0  0  0  0  0  0  0  0  0  0  0  0
   54.6210   29.3930   45.3800 H   0  0  0  0  0  0  0  0  0  0  0  0
   56.9702   28.5965   46.7066 H   0  0  0  0  0  0  0  0  0  0  0  0
   59.4810   29.9805   48.3096 H   0  0  0  0  0  0  0  0  0  0  0  0
   60.3674   31.1444   46.4435 H   0  0  0  0  0  0  0  0  0  0  0  0
   59.1137   31.6750   47.6693 H   0  0  0  0  0  0  0  0  0  0  0  0
   59.3587   32.4707   44.7479 H   0  0  0  0  0  0  0  0  0  0  0  0
   57.9810   31.6821   45.6080 H   0  0  0  0  0  0  0  0  0  0  0  0
  1  2  1  0
  2  3  1  0
  3  4  1  0
  4  5  1  0
  5  6  1  0
  6  7  2  0
  6  8  2  0
  6  9  1  0
  9 10  1  0
 10 11  2  0
 11 12  1  0
 12 13  2  0
 13 14  1  0
 14 15  1  0
 15 16  2  0
 15 17  1  0
 17 18  1  0
 18 19  2  0
 19 20  1  0
 20 21  2  0
 21 22  1  0
 22 23  1  0
 23 24  1  0
 23 25  2  0
 23 26  2  0
 22 27  2  0
 14 28  2  0
  5 29  1  0
 29 30  1  0
 30  2  1  0
 28 10  1  0
 27 18  1  0
  1 31  1  0
  1 32  1  0
  1 33  1  0
  2 34  1  0
  3 35  1  0
  3 36  1  0
  4 37  1  0
  4 38  1  0
 11 39  1  0
 12 40  1  0
 13 41  1  0
 19 42  1  0
 20 43  1  0
 21 44  1  0
 24 45  1  0
 27 46  1  0
 28 47  1  0
 29 48  1  0
 29 49  1  0
 30 50  1  0
 30 51  1  0
M  CHG  3   9  -1  17  -1  24  -1
M  END
>  <UniqueID>  (81) 
67

>  <SMILES>  (81) 
CC1CCN(S(=O)(=O)[N-]c2cccc(C(=O)[N-]c3cccc(S([NH-])(=O)=O)c3)c2)CC1

>  <Energy>  (81) 
64.54013635181617

>  <Genealogy>  (81) 
CC1CCN(S(=O)(=O)[N-]c2cccc(C(=O)[N-]c3cccc(S([NH-])(=O)=O)c3)c2)CC1 (protonated)
CC1CCN(S(=O)(=O)[N-]c2cccc(C(=O)[N-]c3cccc(S([NH-])(=O)=O)c3)c2)CC1 (3D coordinates assigned)
CC1CCN(S(=O)(=O)[N-]c2cccc(C(=O)[N-]c3cccc(S([NH-])(=O)=O)c3)c2)CC1 (nonaromatic ring conformer: 64.54013635181617 kcal/mol)

>  <smiles>  (81) 
CC1CCN(S(=O)(=O)Nc2cccc(C(=O)Nc3cccc(S(N)(=O)=O)c3)c2)CC1

>  <score_type>  (81) 
oracle

>  <origin>  (81) 
adg

>  <m_score__min__energy>  (81) 
-15.35

>  <m_primary>  (81) 
energy

$$$$
81:0
     RDKit          3D

 47 49  0  0  0  0  0  0  0  0999 V2000
   56.2120   29.7940   44.8800 O   0  0  0  0  0  0  0  0  0  0  0  0
   57.3250   29.7180   45.4670 C   0  0  0  0  0  0  0  0  0  0  0  0
   58.2220   28.5530   45.1780 C   0  0  0  0  0  0  0  0  0  0  0  0
   57.4500   27.3640   44.7740 N   0  0  0  0  0  0  0  0  0  0  0  0
   57.6530   26.2180   45.6750 C   0  0  0  0  0  0  0  0  0  0  0  0
   56.6030   25.1600   45.4480 C   0  0  0  0  0  0  0  0  0  0  0  0
   57.0030   23.8640   45.0800 C   0  0  0  0  0  0  0  0  0  0  0  0
   56.0530   22.8560   44.8930 C   0  0  0  0  0  0  0  0  0  0  0  0
   54.6940   23.1360   45.0610 C   0  0  0  0  0  0  0  0  0  0  0  0
   54.2850   24.4220   45.4170 C   0  0  0  0  0  0  0  0  0  0  0  0
   55.2310   25.4340   45.6220 C   0  0  0  0  0  0  0  0  0  0  0  0
   54.7990   26.7020   45.9970 O   0  0  0  0  0  0  0  0  0  0  0  0
   57.7510   30.7730   46.3380 N   0  0  0  0  0  0  0  0  0  0  0  0
   58.1510   32.0920   45.9380 C   0  0  0  0  0  0  0  0  0  0  0  0
   58.1310   32.3980   44.5710 C   0  0  0  0  0  0  0  0  0  0  0  0
   58.5240   33.6590   44.1210 C   0  0  0  0  0  0  0  0  0  0  0  0
   58.9560   34.6230   45.0320 C   0  0  0  0  0  0  0  0  0  0  0  0
   59.0150   34.3220   46.3940 C   0  0  0  0  0  0  0  0  0  0  0  0
   58.6330   33.0470   46.8620 C   0  0  0  0  0  0  0  0  0  0  0  0
   58.7560   32.6960   48.2160 O   0  0  0  0  0  0  0  0  0  0  0  0
   59.7830   31.8660   48.7530 C   0  0  0  0  0  0  0  0  0  0  0  0
   61.1230   32.4290   48.3760 C   0  0  0  0  0  0  0  0  0  0  0  0
   61.5460   33.6530   48.9180 C   0  0  0  0  0  0  0  0  0  0  0  0
   62.8050   34.1700   48.5960 C   0  0  0  0  0  0  0  0  0  0  0  0
   63.6460   33.4710   47.7260 C   0  0  0  0  0  0  0  0  0  0  0  0
   63.2290   32.2570   47.1740 C   0  0  0  0  0  0  0  0  0  0  0  0
   61.9720   31.7370   47.4950 C   0  0  0  0  0  0  0  0  0  0  0  0
   58.9107   28.8253   44.3647 H   0  0  0  0  0  0  0  0  0  0  0  0
   58.7770   28.3087   46.0958 H   0  0  0  0  0  0  0  0  0  0  0  0
   56.4330   27.6140   44.8220 H   0  0  0  0  0  0  0  0  0  0  0  0
   58.6466   25.7848   45.4878 H   0  0  0  0  0  0  0  0  0  0  0  0
   57.5762   26.5710   46.7140 H   0  0  0  0  0  0  0  0  0  0  0  0
   58.0709   23.6414   44.9382 H   0  0  0  0  0  0  0  0  0  0  0  0
   56.3750   21.8420   44.6135 H   0  0  0  0  0  0  0  0  0  0  0  0
   53.9467   22.3426   44.9126 H   0  0  0  0  0  0  0  0  0  0  0  0
   53.2139   24.6418   45.5372 H   0  0  0  0  0  0  0  0  0  0  0  0
   57.8028   31.6381   43.8466 H   0  0  0  0  0  0  0  0  0  0  0  0
   58.4931   33.8932   43.0467 H   0  0  0  0  0  0  0  0  0  0  0  0
   59.2505   35.6216   44.6768 H   0  0  0  0  0  0  0  0  0  0  0  0
   59.3617   35.0843   47.1073 H   0  0  0  0  0  0  0  0  0  0  0  0
   59.6934   31.8328   49.8488 H   0  0  0  0  0  0  0  0  0  0  0  0
   59.6837   30.8480   48.3484 H   0  0  0  0  0  0  0  0  0  0  0  0
   60.8841   34.2080   49.5991 H   0  0  0  0  0  0  0  0  0  0  0  0
   63.1333   35.1270   49.0277 H   0  0  0  0  0  0  0  0  0  0  0  0
   64.6372   33.8769   47.4755 H   0  0  0  0  0  0  0  0  0  0  0  0
   63.8906   31.7100   46.4862 H   0  0  0  0  0  0  0  0  0  0  0  0
   61.6458   30.7824   47.0564 H   0  0  0  0  0  0  0  0  0  0  0  0
  1  2  2  0
  2  3  1  0
  3  4  1  0
  4  5  1  0
  5  6  1  0
  6  7  2  0
  7  8  1  0
  8  9  2  0
  9 10  1  0
 10 11  2  0
 11 12  1  0
  2 13  1  0
 13 14  1  0
 14 15  2  0
 15 16  1  0
 16 17  2  0
 17 18  1  0
 18 19  2  0
 19 20  1  0
 20 21  1  0
 21 22  1  0
 22 23  2  0
 23 24  1  0
 24 25  2  0
 25 26  1  0
 26 27  2  0
 11  6  1  0
 19 14  1  0
 27 22  1  0
  3 28  1  0
  3 29  1  0
  4 30  1  0
  5 31  1  0
  5 32  1  0
  7 33  1  0
  8 34  1  0
  9 35  1  0
 10 36  1  0
 15 37  1  0
 16 38  1  0
 17 39  1  0
 18 40  1  0
 21 41  1  0
 21 42  1  0
 23 43  1  0
 24 44  1  0
 25 45  1  0
 26 46  1  0
 27 47  1  0
M  CHG  2  12  -1  13  -1
M  END
>  <UniqueID>  (82) 
68

>  <SMILES>  (82) 
O=C(CNCc1ccccc1[O-])[N-]c1ccccc1OCc1ccccc1

>  <Energy>  (82) 
48.63815352493997

>  <Genealogy>  (82) 
O=C(CNCc1ccccc1[O-])[N-]c1ccccc1OCc1ccccc1 (protonated)
O=C(CNCc1ccccc1[O-])[N-]c1ccccc1OCc1ccccc1 (3D coordinates assigned)
O=C(CNCc1ccccc1[O-])[N-]c1ccccc1OCc1ccccc1 (optimized conformer: 48.63815352493997 kcal/mol)

>  <smiles>  (82) 
O=C(CNCc1ccccc1O)Nc1ccccc1OCc1ccccc1

>  <score_type>  (82) 
oracle

>  <origin>  (82) 
adg

>  <m_score__min__energy>  (82) 
-13.65

>  <m_primary>  (82) 
energy

$$$$
82:0
     RDKit          3D

 23 24  0  0  0  0  0  0  0  0999 V2000
   51.0200   32.4360   49.3750 O   0  0  0  0  0  0  0  0  0  0  0  0
   51.2860   31.8990   50.4830 C   0  0  0  0  0  0  0  0  0  0  0  0
   52.2190   30.8630   50.5550 C   0  0  0  0  0  0  0  0  0  0  0  0
   52.4920   30.2930   51.8070 C   0  0  0  0  0  0  0  0  0  0  0  0
   53.4180   29.2000   51.9320 N   0  0  0  0  0  0  0  0  0  0  0  0
   54.6160   29.6620   52.5860 C   0  0  0  0  0  0  0  0  0  0  0  0
   54.9200   29.2430   53.8950 C   0  0  0  0  0  0  0  0  0  0  0  0
   56.0670   29.7180   54.5380 C   0  0  0  0  0  0  0  0  0  0  0  0
   56.9160   30.6160   53.8880 C   0  0  0  0  0  0  0  0  0  0  0  0
   56.6190   31.0460   52.5910 C   0  0  0  0  0  0  0  0  0  0  0  0
   57.7750   32.2830   51.7060 Br  0  0  0  0  0  0  0  0  0  0  0  0
   55.4720   30.5750   51.9420 C   0  0  0  0  0  0  0  0  0  0  0  0
   51.8330   30.7530   52.9070 N   0  0  0  0  0  0  0  0  0  0  0  0
   50.9300   31.7620   52.8150 C   0  0  0  0  0  0  0  0  0  0  0  0
   50.3380   32.1720   53.8480 O   0  0  0  0  0  0  0  0  0  0  0  0
   50.6620   32.3290   51.6100 N   0  0  0  0  0  0  0  0  0  0  0  0
   52.7288   30.5017   49.6497 H   0  0  0  0  0  0  0  0  0  0  0  0
   52.9840   28.4160   52.4730 H   0  0  0  0  0  0  0  0  0  0  0  0
   53.6500   28.8280   50.9810 H   0  0  0  0  0  0  0  0  0  0  0  0
   54.2526   28.5392   54.4140 H   0  0  0  0  0  0  0  0  0  0  0  0
   56.3014   29.3832   55.5593 H   0  0  0  0  0  0  0  0  0  0  0  0
   57.8188   30.9853   54.3964 H   0  0  0  0  0  0  0  0  0  0  0  0
   55.2384   30.9199   50.9239 H   0  0  0  0  0  0  0  0  0  0  0  0
  1  2  2  0
  2  3  1  0
  3  4  2  0
  4  5  1  0
  5  6  1  0
  6  7  2  0
  7  8  1  0
  8  9  2  0
  9 10  1  0
 10 11  1  0
 10 12  2  0
  4 13  1  0
 13 14  1  0
 14 15  2  0
 14 16  1  0
 16  2  1  0
 12  6  1  0
  3 17  1  0
  5 18  1  0
  5 19  1  0
  7 20  1  0
  8 21  1  0
  9 22  1  0
 12 23  1  0
M  CHG  3   5   1  13  -1  16  -1
M  END
>  <UniqueID>  (83) 
69

>  <SMILES>  (83) 
O=c1cc([NH2+]c2cccc(Br)c2)[n-]c(=O)[n-]1

>  <Energy>  (83) 
26.27264811145713

>  <Genealogy>  (83) 
O=c1cc([NH2+]c2cccc(Br)c2)[n-]c(=O)[n-]1 (protonated)
O=c1cc([NH2+]c2cccc(Br)c2)[n-]c(=O)[n-]1 (3D coordinates assigned)
O=c1cc([NH2+]c2cccc(Br)c2)[n-]c(=O)[n-]1 (optimized conformer: 26.27264811145713 kcal/mol)

>  <smiles>  (83) 
O=c1cc(Nc2cccc(Br)c2)[nH]c(=O)[nH]1

>  <score_type>  (83) 
oracle

>  <origin>  (83) 
adg

>  <m_score__min__energy>  (83) 
-10.15

>  <m_primary>  (83) 
energy

$$$$
83:0
     RDKit          3D

 59 62  0  0  0  0  0  0  0  0999 V2000
   59.2080   33.8990   51.1490 N   0  0  0  0  0  0  0  0  0  0  0  0
   58.8890   32.5540   50.7490 C   0  0  0  0  0  0  0  0  0  0  0  0
   58.0840   31.7910   51.6040 C   0  0  0  0  0  0  0  0  0  0  0  0
   57.7380   30.5050   51.2330 C   0  0  0  0  0  0  0  0  0  0  0  0
   56.9850   29.8100   51.9650 O   0  0  0  0  0  0  0  0  0  0  0  0
   58.2060   29.9970   50.0710 N   0  0  0  0  0  0  0  0  0  0  0  0
   59.0070   30.7190   49.2450 C   0  0  0  0  0  0  0  0  0  0  0  0
   59.5210   29.9200   47.7090 S   0  0  0  0  0  0  0  0  0  0  0  0
   59.4570   28.2390   48.4000 C   0  0  0  0  0  0  0  0  0  0  0  0
   60.0050   27.2780   47.3980 C   0  0  0  0  0  0  0  0  0  0  0  0
   61.1140   26.7080   47.6120 O   0  0  0  0  0  0  0  0  0  0  0  0
   59.2590   27.0150   46.2020 N   0  0  0  0  0  0  0  0  0  0  0  0
   58.4560   27.9330   45.4520 C   0  0  0  0  0  0  0  0  0  0  0  0
   59.0360   29.0010   44.7460 C   0  0  0  0  0  0  0  0  0  0  0  0
   58.2300   29.9590   44.1330 C   0  0  0  0  0  0  0  0  0  0  0  0
   56.8400   29.8760   44.2330 C   0  0  0  0  0  0  0  0  0  0  0  0
   56.2470   28.8320   44.9370 C   0  0  0  0  0  0  0  0  0  0  0  0
   57.0470   27.8450   45.5390 C   0  0  0  0  0  0  0  0  0  0  0  0
   56.4050   26.7310   46.2550 C   0  0  0  0  0  0  0  0  0  0  0  0
   56.9930   26.1830   47.2270 O   0  0  0  0  0  0  0  0  0  0  0  0
   55.0910   26.3010   45.8600 N   0  0  0  0  0  0  0  0  0  0  0  0
   54.6720   24.9070   45.7750 C   0  0  0  0  0  0  0  0  0  0  0  0
   55.7980   24.0830   45.2170 C   0  0  0  0  0  0  0  0  0  0  0  0
   55.8800   23.8470   43.8340 C   0  0  0  0  0  0  0  0  0  0  0  0
   56.9420   23.1020   43.3120 C   0  0  0  0  0  0  0  0  0  0  0  0
   57.9330   22.5960   44.1660 C   0  0  0  0  0  0  0  0  0  0  0  0
   57.8650   22.8410   45.5380 C   0  0  0  0  0  0  0  0  0  0  0  0
   56.8060   23.5870   46.0650 C   0  0  0  0  0  0  0  0  0  0  0  0
   59.3490   32.0170   49.5650 N   0  0  0  0  0  0  0  0  0  0  0  0
   60.1900   32.8270   48.6550 C   0  0  0  0  0  0  0  0  0  0  0  0
   59.4070   33.2850   47.4460 C   0  0  0  0  0  0  0  0  0  0  0  0
   58.0290   33.0000   47.3400 C   0  0  0  0  0  0  0  0  0  0  0  0
   57.3030   33.4400   46.2290 C   0  0  0  0  0  0  0  0  0  0  0  0
   57.9400   34.1800   45.2220 C   0  0  0  0  0  0  0  0  0  0  0  0
   59.2990   34.4770   45.3290 C   0  0  0  0  0  0  0  0  0  0  0  0
   60.0280   34.0410   46.4370 C   0  0  0  0  0  0  0  0  0  0  0  0
   58.4950   34.6520   51.2330 H   0  0  0  0  0  0  0  0  0  0  0  0
   60.1810   34.1460   51.4400 H   0  0  0  0  0  0  0  0  0  0  0  0
   57.7316   32.2095   52.5583 H   0  0  0  0  0  0  0  0  0  0  0  0
   60.0590   28.1956   49.3196 H   0  0  0  0  0  0  0  0  0  0  0  0
   58.4156   27.9747   48.6361 H   0  0  0  0  0  0  0  0  0  0  0  0
   60.1309   29.0812   44.6769 H   0  0  0  0  0  0  0  0  0  0  0  0
   58.6907   30.7831   43.5686 H   0  0  0  0  0  0  0  0  0  0  0  0
   56.2103   30.6396   43.7530 H   0  0  0  0  0  0  0  0  0  0  0  0
   55.1516   28.7791   45.0224 H   0  0  0  0  0  0  0  0  0  0  0  0
   54.4104   24.5401   46.7785 H   0  0  0  0  0  0  0  0  0  0  0  0
   53.7945   24.8255   45.1168 H   0  0  0  0  0  0  0  0  0  0  0  0
   55.1079   24.2488   43.1614 H   0  0  0  0  0  0  0  0  0  0  0  0
   57.0003   22.9125   42.2300 H   0  0  0  0  0  0  0  0  0  0  0  0
   58.7645   22.0055   43.7538 H   0  0  0  0  0  0  0  0  0  0  0  0
   58.6452   22.4469   46.2058 H   0  0  0  0  0  0  0  0  0  0  0  0
   56.7606   23.7868   47.1457 H   0  0  0  0  0  0  0  0  0  0  0  0
   60.5589   33.7094   49.1984 H   0  0  0  0  0  0  0  0  0  0  0  0
   61.0283   32.2039   48.3102 H   0  0  0  0  0  0  0  0  0  0  0  0
   57.5244   32.4299   48.1339 H   0  0  0  0  0  0  0  0  0  0  0  0
   56.2316   33.2057   46.1446 H   0  0  0  0  0  0  0  0  0  0  0  0
   57.3683   34.5260   44.3483 H   0  0  0  0  0  0  0  0  0  0  0  0
   59.7976   35.0564   44.5380 H   0  0  0  0  0  0  0  0  0  0  0  0
   61.0959   34.2909   46.5209 H   0  0  0  0  0  0  0  0  0  0  0  0
  1  2  1  0
  2  3  2  0
  3  4  1  0
  4  5  2  0
  4  6  1  0
  6  7  2  0
  7  8  1  0
  8  9  1  0
  9 10  1  0
 10 11  2  0
 10 12  1  0
 12 13  1  0
 13 14  2  0
 14 15  1  0
 15 16  2  0
 16 17  1  0
 17 18  2  0
 18 19  1  0
 19 20  2  0
 19 21  1  0
 21 22  1  0
 22 23  1  0
 23 24  2  0
 24 25  1  0
 25 26  2  0
 26 27  1  0
 27 28  2  0
  7 29  1  0
 29 30  1  0
 30 31  1  0
 31 32  2  0
 32 33  1  0
 33 34  2  0
 34 35  1  0
 35 36  2  0
 29  2  1  0
 36 31  1  0
 18 13  1  0
 28 23  1  0
  1 37  1  0
  1 38  1  0
  3 39  1  0
  9 40  1  0
  9 41  1  0
 14 42  1  0
 15 43  1  0
 16 44  1  0
 17 45  1  0
 22 46  1  0
 22 47  1  0
 24 48  1  0
 25 49  1  0
 26 50  1  0
 27 51  1  0
 28 52  1  0
 30 53  1  0
 30 54  1  0
 32 55  1  0
 33 56  1  0
 34 57  1  0
 35 58  1  0
 36 59  1  0
M  CHG  2  12  -1  21  -1
M  END
>  <UniqueID>  (84) 
70

>  <SMILES>  (84) 
Nc1cc(=O)nc(SCC(=O)[N-]c2ccccc2C(=O)[N-]Cc2ccccc2)n1Cc1ccccc1

>  <Energy>  (84) 
69.61776129334736

>  <Genealogy>  (84) 
Nc1cc(=O)nc(SCC(=O)[N-]c2ccccc2C(=O)[N-]Cc2ccccc2)n1Cc1ccccc1 (protonated)
Nc1cc(=O)nc(SCC(=O)[N-]c2ccccc2C(=O)[N-]Cc2ccccc2)n1Cc1ccccc1 (3D coordinates assigned)
Nc1cc(=O)nc(SCC(=O)[N-]c2ccccc2C(=O)[N-]Cc2ccccc2)n1Cc1ccccc1 (optimized conformer: 69.61776129334736 kcal/mol)

>  <smiles>  (84) 
Nc1cc(=O)nc(SCC(=O)Nc2ccccc2C(=O)NCc2ccccc2)n1Cc1ccccc1

>  <score_type>  (84) 
oracle

>  <origin>  (84) 
adg

>  <m_score__min__energy>  (84) 
-13.24

>  <m_primary>  (84) 
energy

$$$$
84:0
     RDKit          3D

 52 55  0  0  0  0  0  0  0  0999 V2000
   52.1811   30.9546   54.0118 H   0  0  0  0  0  0  0  0  0  0  0  0
   52.1620   31.2340   52.9480 C   0  0  0  0  0  0  0  0  0  0  0  0
   51.0680   31.6670   52.2890 N   0  0  0  0  0  0  0  0  0  0  0  0
   51.4820   31.8820   51.0260 C   0  0  0  0  0  0  0  0  0  0  0  0
   50.6440   32.3380   50.0170 O   0  0  0  0  0  0  0  0  0  0  0  0
   52.8190   31.5930   50.8600 C   0  0  0  0  0  0  0  0  0  0  0  0
   53.4092   31.6684   49.9348 H   0  0  0  0  0  0  0  0  0  0  0  0
   53.2580   31.1890   52.1030 C   0  0  0  0  0  0  0  0  0  0  0  0
   54.6230   30.7310   52.4330 C   0  0  0  0  0  0  0  0  0  0  0  0
   54.8010   29.5300   52.7700 O   0  0  0  0  0  0  0  0  0  0  0  0
   55.7470   31.6230   52.4410 N   0  0  0  0  0  0  0  0  0  0  0  0
   56.8810   31.4060   51.8450 C   0  0  0  0  0  0  0  0  0  0  0  0
   57.1790   30.2930   51.1480 N   0  0  0  0  0  0  0  0  0  0  0  0
   58.4200   30.4300   50.7030 N   0  0  0  0  0  0  0  0  0  0  0  0
   59.0790   29.4050   49.9450 C   0  0  0  0  0  0  0  0  0  0  0  0
   60.1420   28.6730   50.4980 C   0  0  0  0  0  0  0  0  0  0  0  0
   60.4962   28.9038   51.5135 H   0  0  0  0  0  0  0  0  0  0  0  0
   60.7520   27.6520   49.7630 C   0  0  0  0  0  0  0  0  0  0  0  0
   61.5930   27.0904   50.1959 H   0  0  0  0  0  0  0  0  0  0  0  0
   60.2940   27.3440   48.4780 C   0  0  0  0  0  0  0  0  0  0  0  0
   60.7787   26.5449   47.8980 H   0  0  0  0  0  0  0  0  0  0  0  0
   59.2200   28.0520   47.9310 C   0  0  0  0  0  0  0  0  0  0  0  0
   58.8557   27.8051   46.9229 H   0  0  0  0  0  0  0  0  0  0  0  0
   58.6080   29.0740   48.6640 C   0  0  0  0  0  0  0  0  0  0  0  0
   57.7548   29.6204   48.2356 H   0  0  0  0  0  0  0  0  0  0  0  0
   58.9180   31.6240   51.1150 C   0  0  0  0  0  0  0  0  0  0  0  0
   60.2140   32.2170   50.7330 C   0  0  0  0  0  0  0  0  0  0  0  0
   61.2930   31.6470   51.0470 O   0  0  0  0  0  0  0  0  0  0  0  0
   60.2380   33.4260   49.9680 N   0  0  0  0  0  0  0  0  0  0  0  0
   59.2690   33.7390   48.9230 C   0  0  0  0  0  0  0  0  0  0  0  0
   59.4970   34.7284   48.4998 H   0  0  0  0  0  0  0  0  0  0  0  0
   58.2586   33.7420   49.3579 H   0  0  0  0  0  0  0  0  0  0  0  0
   59.3330   32.7040   47.8320 C   0  0  0  0  0  0  0  0  0  0  0  0
   60.4840   31.9220   47.6560 C   0  0  0  0  0  0  0  0  0  0  0  0
   61.3625   32.0872   48.2971 H   0  0  0  0  0  0  0  0  0  0  0  0
   60.5180   30.9350   46.6700 C   0  0  0  0  0  0  0  0  0  0  0  0
   61.4250   30.3278   46.5337 H   0  0  0  0  0  0  0  0  0  0  0  0
   59.4040   30.7150   45.8550 C   0  0  0  0  0  0  0  0  0  0  0  0
   59.4360   29.9339   45.0811 H   0  0  0  0  0  0  0  0  0  0  0  0
   58.2420   31.4900   46.0220 C   0  0  0  0  0  0  0  0  0  0  0  0
   57.0750   31.2980   45.2110 N   0  0  0  0  0  0  0  0  0  0  0  0
   56.5930   29.7960   44.4940 S   0  0  0  0  0  0  0  0  0  0  0  0
   56.7380   29.8750   43.0010 O   0  0  0  0  0  0  0  0  0  0  0  0
   55.1670   29.4900   44.8560 O   0  0  0  0  0  0  0  0  0  0  0  0
   57.6400   28.4990   45.1130 C   0  0  0  0  0  0  0  0  0  0  0  0
   57.6291   28.5125   46.2129 H   0  0  0  0  0  0  0  0  0  0  0  0
   57.2704   27.5269   44.7545 H   0  0  0  0  0  0  0  0  0  0  0  0
   58.6682   28.6552   44.7545 H   0  0  0  0  0  0  0  0  0  0  0  0
   58.2150   32.4800   47.0120 C   0  0  0  0  0  0  0  0  0  0  0  0
   57.3089   33.0885   47.1488 H   0  0  0  0  0  0  0  0  0  0  0  0
   57.9530   32.2720   51.8680 C   0  0  0  0  0  0  0  0  0  0  0  0
   58.0252   33.2493   52.3676 H   0  0  0  0  0  0  0  0  0  0  0  0
  1  2  1  0
  2  3  1  0
  3  4  1  0
  4  5  1  0
  4  6  2  0
  6  7  1  0
  6  8  1  0
  8  9  1  0
  9 10  2  0
  9 11  1  0
 11 12  2  0
 12 13  1  0
 13 14  1  0
 14 15  1  0
 15 16  2  0
 16 17  1  0
 16 18  1  0
 18 19  1  0
 18 20  2  0
 20 21  1  0
 20 22  1  0
 22 23  1  0
 22 24  2  0
 24 25  1  0
 14 26  1  0
 26 27  1  0
 27 28  2  0
 27 29  1  0
 29 30  1  0
 30 31  1  0
 30 32  1  0
 30 33  1  0
 33 34  2  0
 34 35  1  0
 34 36  1  0
 36 37  1  0
 36 38  2  0
 38 39  1  0
 38 40  1  0
 40 41  1  0
 41 42  1  0
 42 43  2  0
 42 44  2  0
 42 45  1  0
 45 46  1  0
 45 47  1  0
 45 48  1  0
 40 49  2  0
 49 50  1  0
 26 51  2  0
 51 52  1  0
  8  2  2  0
 51 12  1  0
 24 15  1  0
 49 33  1  0
M  CHG  5   3  -1   5  -1  13  -1  29  -1  41  -1
M  END
>  <UniqueID>  (85) 
71

>  <SMILES>  (85) 
CS(=O)(=O)[N-]c1cccc(C[N-]C(=O)c2c/c(=N/C(=O)c3c[n-]c([O-])c3)[n-]n2-c2ccccc2)c1

>  <Energy>  (85) 
121.17208888770276

>  <Genealogy>  (85) 
CS(=O)(=O)[N-]c1cccc(C[N-]C(=O)c2cc(=NC(=O)c3c[n-]c([O-])c3)[n-]n2-c2ccccc2)c1 (protonated)
CS(=O)(=O)[N-]c1cccc(C[N-]C(=O)c2c/c(=N/C(=O)c3c[n-]c([O-])c3)[n-]n2-c2ccccc2)c1 (cis-trans isomerization)
CS(=O)(=O)[N-]c1cccc(C[N-]C(=O)c2c/c(=N/C(=O)c3c[n-]c([O-])c3)[n-]n2-c2ccccc2)c1 (3D coordinates assigned)
CS(=O)(=O)[N-]c1cccc(C[N-]C(=O)c2c/c(=N/C(=O)c3c[n-]c([O-])c3)[n-]n2-c2ccccc2)c1 (optimized conformer: 121.17208888770276 kcal/mol)

>  <smiles>  (85) 
CS(=O)(=O)Nc1cccc(CNC(=O)c2cc(=NC(=O)c3c[nH]c(O)c3)[nH]n2-c2ccccc2)c1

>  <score_type>  (85) 
oracle

>  <origin>  (85) 
adg

>  <m_score__min__energy>  (85) 
-20.899999999999999

>  <m_primary>  (85) 
energy

$$$$
85:0
     RDKit          3D

 43 45  0  0  0  0  0  0  0  0999 V2000
   55.0270   26.3100   45.9900 N   0  0  0  0  0  0  0  0  0  0  0  0
   56.7450   26.1600   46.1050 S   0  0  0  0  0  0  0  0  0  0  0  0
   57.1460   25.8770   47.5240 O   0  0  0  0  0  0  0  0  0  0  0  0
   57.1870   25.0010   45.2560 O   0  0  0  0  0  0  0  0  0  0  0  0
   57.5150   27.6530   45.5340 C   0  0  0  0  0  0  0  0  0  0  0  0
   56.6920   28.5980   44.8980 C   0  0  0  0  0  0  0  0  0  0  0  0
   57.2300   29.7600   44.3500 C   0  0  0  0  0  0  0  0  0  0  0  0
   58.6000   29.9910   44.4140 C   0  0  0  0  0  0  0  0  0  0  0  0
   59.4430   29.0770   45.0560 C   0  0  0  0  0  0  0  0  0  0  0  0
   60.8170   29.3200   45.0750 O   0  0  0  0  0  0  0  0  0  0  0  0
   58.9100   27.9180   45.6640 C   0  0  0  0  0  0  0  0  0  0  0  0
   60.0170   26.8470   46.5660 S   0  0  0  0  0  0  0  0  0  0  0  0
   61.3270   26.7850   45.8320 O   0  0  0  0  0  0  0  0  0  0  0  0
   59.4710   25.4560   46.7140 O   0  0  0  0  0  0  0  0  0  0  0  0
   60.2970   27.4640   48.1620 N   0  0  0  0  0  0  0  0  0  0  0  0
   60.0670   28.8200   48.5700 C   0  0  0  0  0  0  0  0  0  0  0  0
   59.0050   29.1750   49.4200 C   0  0  0  0  0  0  0  0  0  0  0  0
   58.7970   30.5130   49.7680 C   0  0  0  0  0  0  0  0  0  0  0  0
   59.6390   31.5190   49.2600 C   0  0  0  0  0  0  0  0  0  0  0  0
   59.4710   32.8730   49.5820 O   0  0  0  0  0  0  0  0  0  0  0  0
   59.6970   33.9500   48.7140 C   0  0  0  0  0  0  0  0  0  0  0  0
   60.3720   34.9470   49.0950 O   0  0  0  0  0  0  0  0  0  0  0  0
   59.0890   33.9450   47.3650 C   0  0  0  0  0  0  0  0  0  0  0  0
   57.8960   33.2430   47.1250 C   0  0  0  0  0  0  0  0  0  0  0  0
   57.3370   33.2500   45.8440 C   0  0  0  0  0  0  0  0  0  0  0  0
   57.9460   33.9280   44.8360 N   0  0  0  0  0  0  0  0  0  0  0  0
   59.1020   34.6130   45.0360 C   0  0  0  0  0  0  0  0  0  0  0  0
   59.6950   34.6360   46.3010 C   0  0  0  0  0  0  0  0  0  0  0  0
   60.7100   31.1580   48.4340 C   0  0  0  0  0  0  0  0  0  0  0  0
   60.9200   29.8200   48.0890 C   0  0  0  0  0  0  0  0  0  0  0  0
   54.7420   27.0780   46.6390 H   0  0  0  0  0  0  0  0  0  0  0  0
   55.6089   28.4177   44.8321 H   0  0  0  0  0  0  0  0  0  0  0  0
   56.5707   30.4957   43.8661 H   0  0  0  0  0  0  0  0  0  0  0  0
   59.0234   30.8977   43.9572 H   0  0  0  0  0  0  0  0  0  0  0  0
   61.4660   28.6870   45.5290 H   0  0  0  0  0  0  0  0  0  0  0  0
   58.3346   28.3965   49.8131 H   0  0  0  0  0  0  0  0  0  0  0  0
   57.9705   30.7806   50.4427 H   0  0  0  0  0  0  0  0  0  0  0  0
   57.4049   32.6913   47.9401 H   0  0  0  0  0  0  0  0  0  0  0  0
   56.4012   32.7050   45.6512 H   0  0  0  0  0  0  0  0  0  0  0  0
   59.5725   35.1510   44.1998 H   0  0  0  0  0  0  0  0  0  0  0  0
   60.6304   35.1915   46.4635 H   0  0  0  0  0  0  0  0  0  0  0  0
   61.3914   31.9332   48.0536 H   0  0  0  0  0  0  0  0  0  0  0  0
   61.7621   29.5508   47.4345 H   0  0  0  0  0  0  0  0  0  0  0  0
  1  2  1  0
  2  3  2  0
  2  4  2  0
  2  5  1  0
  5  6  2  0
  6  7  1  0
  7  8  2  0
  8  9  1  0
  9 10  1  0
  9 11  2  0
 11 12  1  0
 12 13  2  0
 12 14  2  0
 12 15  1  0
 15 16  1  0
 16 17  2  0
 17 18  1  0
 18 19  2  0
 19 20  1  0
 20 21  1  0
 21 22  2  0
 21 23  1  0
 23 24  2  0
 24 25  1  0
 25 26  2  0
 26 27  1  0
 27 28  2  0
 19 29  1  0
 29 30  2  0
 11  5  1  0
 30 16  1  0
 28 23  1  0
  1 31  1  0
  6 32  1  0
  7 33  1  0
  8 34  1  0
 10 35  1  0
 17 36  1  0
 18 37  1  0
 24 38  1  0
 25 39  1  0
 27 40  1  0
 28 41  1  0
 29 42  1  0
 30 43  1  0
M  CHG  2   1  -1  15  -1
M  END
>  <UniqueID>  (86) 
72

>  <SMILES>  (86) 
[NH-]S(=O)(=O)c1cccc(O)c1S(=O)(=O)[N-]c1ccc(OC(=O)c2ccncc2)cc1

>  <Energy>  (86) 
60.75159055606558

>  <Genealogy>  (86) 
[NH-]S(=O)(=O)c1cccc(O)c1S(=O)(=O)[N-]c1ccc(OC(=O)c2ccncc2)cc1 (protonated)
[NH-]S(=O)(=O)c1cccc(O)c1S(=O)(=O)[N-]c1ccc(OC(=O)c2ccncc2)cc1 (3D coordinates assigned)
[NH-]S(=O)(=O)c1cccc(O)c1S(=O)(=O)[N-]c1ccc(OC(=O)c2ccncc2)cc1 (optimized conformer: 60.75159055606558 kcal/mol)

>  <smiles>  (86) 
NS(=O)(=O)c1cccc(O)c1S(=O)(=O)Nc1ccc(OC(=O)c2ccncc2)cc1

>  <score_type>  (86) 
oracle

>  <origin>  (86) 
adg

>  <m_score__min__energy>  (86) 
-13.390000000000001

>  <m_primary>  (86) 
energy

$$$$
86:0
     RDKit          3D

 56 58  0  0  0  0  0  0  0  0999 V2000
   58.1170   32.7290   43.1170 C   0  0  0  0  0  0  0  0  0  0  0  0
   58.3820   33.8110   44.0040 O   0  0  0  0  0  0  0  0  0  0  0  0
   58.5790   33.6690   45.3860 C   0  0  0  0  0  0  0  0  0  0  0  0
   59.3970   34.5440   46.1270 C   0  0  0  0  0  0  0  0  0  0  0  0
   59.5810   34.3440   47.4990 C   0  0  0  0  0  0  0  0  0  0  0  0
   58.9560   33.2700   48.1460 C   0  0  0  0  0  0  0  0  0  0  0  0
   59.3100   32.9270   49.8340 S   0  0  0  0  0  0  0  0  0  0  0  0
   58.0950   32.3620   50.5140 O   0  0  0  0  0  0  0  0  0  0  0  0
   59.6940   34.2000   50.5370 O   0  0  0  0  0  0  0  0  0  0  0  0
   60.6150   31.7820   49.9280 N   0  0  0  0  0  0  0  0  0  0  0  0
   60.3430   30.4000   50.3420 C   0  0  0  0  0  0  0  0  0  0  0  0
   59.4840   29.6760   49.3430 C   0  0  0  0  0  0  0  0  0  0  0  0
   58.2410   29.6100   49.5370 O   0  0  0  0  0  0  0  0  0  0  0  0
   60.0560   29.1510   48.1350 N   0  0  0  0  0  0  0  0  0  0  0  0
   59.2790   28.5380   47.0970 C   0  0  0  0  0  0  0  0  0  0  0  0
   58.2110   29.2640   46.5490 C   0  0  0  0  0  0  0  0  0  0  0  0
   57.4160   28.7230   45.5270 C   0  0  0  0  0  0  0  0  0  0  0  0
   56.2910   29.5010   44.9650 C   0  0  0  0  0  0  0  0  0  0  0  0
   55.1470   28.9850   44.8540 O   0  0  0  0  0  0  0  0  0  0  0  0
   56.4800   30.8140   44.5500 O   0  0  0  0  0  0  0  0  0  0  0  0
   57.7080   27.4350   45.0500 C   0  0  0  0  0  0  0  0  0  0  0  0
   58.7880   26.7160   45.5640 C   0  0  0  0  0  0  0  0  0  0  0  0
   59.6020   27.2660   46.5680 C   0  0  0  0  0  0  0  0  0  0  0  0
   60.7920   26.4760   47.0420 C   0  0  0  0  0  0  0  0  0  0  0  0
   61.9430   32.1990   49.5690 C   0  0  0  0  0  0  0  0  0  0  0  0
   62.8100   32.6520   50.5750 C   0  0  0  0  0  0  0  0  0  0  0  0
   64.0960   33.0920   50.2560 C   0  0  0  0  0  0  0  0  0  0  0  0
   64.5310   33.0760   48.9320 C   0  0  0  0  0  0  0  0  0  0  0  0
   63.6870   32.6050   47.9230 C   0  0  0  0  0  0  0  0  0  0  0  0
   62.3970   32.1410   48.2310 C   0  0  0  0  0  0  0  0  0  0  0  0
   61.5280   31.6160   47.1210 C   0  0  0  0  0  0  0  0  0  0  0  0
   58.1290   32.4090   47.4130 C   0  0  0  0  0  0  0  0  0  0  0  0
   57.9410   32.6110   46.0430 C   0  0  0  0  0  0  0  0  0  0  0  0
   57.8951   31.8229   43.6999 H   0  0  0  0  0  0  0  0  0  0  0  0
   57.2532   32.9778   42.4829 H   0  0  0  0  0  0  0  0  0  0  0  0
   58.9980   32.5505   42.4829 H   0  0  0  0  0  0  0  0  0  0  0  0
   59.8929   35.3877   45.6248 H   0  0  0  0  0  0  0  0  0  0  0  0
   60.2190   35.0327   48.0723 H   0  0  0  0  0  0  0  0  0  0  0  0
   61.2984   29.8645   50.4442 H   0  0  0  0  0  0  0  0  0  0  0  0
   59.8020   30.4304   51.2993 H   0  0  0  0  0  0  0  0  0  0  0  0
   61.0320   29.4220   47.8960 H   0  0  0  0  0  0  0  0  0  0  0  0
   57.9932   30.2739   46.9266 H   0  0  0  0  0  0  0  0  0  0  0  0
   57.0802   26.9890   44.2646 H   0  0  0  0  0  0  0  0  0  0  0  0
   59.0040   25.7084   45.1790 H   0  0  0  0  0  0  0  0  0  0  0  0
   60.8098   26.4642   48.1418 H   0  0  0  0  0  0  0  0  0  0  0  0
   60.7213   25.4449   46.6653 H   0  0  0  0  0  0  0  0  0  0  0  0
   61.7148   26.9415   46.6653 H   0  0  0  0  0  0  0  0  0  0  0  0
   62.4740   32.6605   51.6224 H   0  0  0  0  0  0  0  0  0  0  0  0
   64.7665   33.4516   51.0504 H   0  0  0  0  0  0  0  0  0  0  0  0
   65.5401   33.4347   48.6810 H   0  0  0  0  0  0  0  0  0  0  0  0
   64.0351   32.5974   46.8796 H   0  0  0  0  0  0  0  0  0  0  0  0
   60.6612   31.0923   47.5504 H   0  0  0  0  0  0  0  0  0  0  0  0
   61.1793   32.4546   46.5005 H   0  0  0  0  0  0  0  0  0  0  0  0
   62.1081   30.9171   46.5005 H   0  0  0  0  0  0  0  0  0  0  0  0
   57.6258   31.5710   47.9176 H   0  0  0  0  0  0  0  0  0  0  0  0
   57.2861   31.9327   45.4764 H   0  0  0  0  0  0  0  0  0  0  0  0
  1  2  1  0
  2  3  1  0
  3  4  2  0
  4  5  1  0
  5  6  2  0
  6  7  1  0
  7  8  2  0
  7  9  2  0
  7 10  1  0
 10 11  1  0
 11 12  1  0
 12 13  2  0
 12 14  1  0
 14 15  1  0
 15 16  2  0
 16 17  1  0
 17 18  1  0
 18 19  2  0
 18 20  1  0
 17 21  2  0
 21 22  1  0
 22 23  2  0
 23 24  1  0
 10 25  1  0
 25 26  2  0
 26 27  1  0
 27 28  2  0
 28 29  1  0
 29 30  2  0
 30 31  1  0
  6 32  1  0
 32 33  2  0
 33  3  1  0
 23 15  1  0
 30 25  1  0
  1 34  1  0
  1 35  1  0
  1 36  1  0
  4 37  1  0
  5 38  1  0
 11 39  1  0
 11 40  1  0
 14 41  1  0
 16 42  1  0
 21 43  1  0
 22 44  1  0
 24 45  1  0
 24 46  1  0
 24 47  1  0
 26 48  1  0
 27 49  1  0
 28 50  1  0
 29 51  1  0
 31 52  1  0
 31 53  1  0
 31 54  1  0
 32 55  1  0
 33 56  1  0
M  CHG  1  20  -1
M  END
>  <UniqueID>  (87) 
73

>  <SMILES>  (87) 
COc1ccc(S(=O)(=O)N(CC(=O)Nc2cc(C(=O)[O-])ccc2C)c2ccccc2C)cc1

>  <Energy>  (87) 
65.35659748984108

>  <Genealogy>  (87) 
COc1ccc(S(=O)(=O)N(CC(=O)Nc2cc(C(=O)[O-])ccc2C)c2ccccc2C)cc1 (protonated)
COc1ccc(S(=O)(=O)N(CC(=O)Nc2cc(C(=O)[O-])ccc2C)c2ccccc2C)cc1 (3D coordinates assigned)
COc1ccc(S(=O)(=O)N(CC(=O)Nc2cc(C(=O)[O-])ccc2C)c2ccccc2C)cc1 (optimized conformer: 65.35659748984108 kcal/mol)

>  <smiles>  (87) 
COc1ccc(S(=O)(=O)N(CC(=O)Nc2cc(C(=O)O)ccc2C)c2ccccc2C)cc1

>  <score_type>  (87) 
oracle

>  <origin>  (87) 
adg

>  <m_score__min__energy>  (87) 
-11.76

>  <m_primary>  (87) 
energy

$$$$
87:0
     RDKit          3D

 43 45  0  0  0  0  0  0  0  0999 V2000
   58.1160   28.0670   45.1770 O   0  0  0  0  0  0  0  0  0  0  0  0
   56.9160   28.4330   45.3050 C   0  0  0  0  0  0  0  0  0  0  0  0
   55.9070   27.4750   45.6140 N   0  0  0  0  0  0  0  0  0  0  0  0
   56.2760   25.9210   46.3740 S   0  0  0  0  0  0  0  0  0  0  0  0
   56.8160   25.1980   44.8220 C   0  0  0  0  0  0  0  0  0  0  0  0
   57.4580   25.9300   44.0250 O   0  0  0  0  0  0  0  0  0  0  0  0
   56.5260   23.8270   44.4740 N   0  0  0  0  0  0  0  0  0  0  0  0
   56.6190   23.4100   43.0690 C   0  0  0  0  0  0  0  0  0  0  0  0
   56.8680   21.9000   42.9670 C   0  0  0  0  0  0  0  0  0  0  0  0
   55.9410   21.1800   43.7540 O   0  0  0  0  0  0  0  0  0  0  0  0
   56.1460   21.4830   45.1190 C   0  0  0  0  0  0  0  0  0  0  0  0
   55.8100   22.9500   45.4070 C   0  0  0  0  0  0  0  0  0  0  0  0
   56.5490   29.7700   45.1130 O   0  0  0  0  0  0  0  0  0  0  0  0
   57.3930   30.8680   45.3330 C   0  0  0  0  0  0  0  0  0  0  0  0
   58.3900   30.7620   46.3070 C   0  0  0  0  0  0  0  0  0  0  0  0
   59.2790   31.8190   46.5300 C   0  0  0  0  0  0  0  0  0  0  0  0
   59.2020   32.9820   45.7570 C   0  0  0  0  0  0  0  0  0  0  0  0
   60.1090   34.0210   46.0070 O   0  0  0  0  0  0  0  0  0  0  0  0
   61.1750   33.9680   46.9180 C   0  0  0  0  0  0  0  0  0  0  0  0
   62.4860   33.6400   46.5140 C   0  0  0  0  0  0  0  0  0  0  0  0
   63.5190   33.5860   47.4570 C   0  0  0  0  0  0  0  0  0  0  0  0
   63.2540   33.8430   48.8060 C   0  0  0  0  0  0  0  0  0  0  0  0
   61.9530   34.1460   49.2160 C   0  0  0  0  0  0  0  0  0  0  0  0
   60.9170   34.2050   48.2760 C   0  0  0  0  0  0  0  0  0  0  0  0
   58.1960   33.0950   44.7810 C   0  0  0  0  0  0  0  0  0  0  0  0
   57.3020   32.0440   44.5660 C   0  0  0  0  0  0  0  0  0  0  0  0
   55.6775   23.6562   42.5562 H   0  0  0  0  0  0  0  0  0  0  0  0
   57.4600   23.9397   42.5978 H   0  0  0  0  0  0  0  0  0  0  0  0
   56.7667   21.5888   41.9168 H   0  0  0  0  0  0  0  0  0  0  0  0
   57.8820   21.6861   43.3360 H   0  0  0  0  0  0  0  0  0  0  0  0
   55.5000   20.8379   45.7326 H   0  0  0  0  0  0  0  0  0  0  0  0
   57.2042   21.3090   45.3638 H   0  0  0  0  0  0  0  0  0  0  0  0
   54.7269   23.1040   45.2917 H   0  0  0  0  0  0  0  0  0  0  0  0
   56.1169   23.1931   46.4350 H   0  0  0  0  0  0  0  0  0  0  0  0
   58.4762   29.8410   46.9023 H   0  0  0  0  0  0  0  0  0  0  0  0
   60.0425   31.7349   47.3174 H   0  0  0  0  0  0  0  0  0  0  0  0
   62.6970   33.4262   45.4558 H   0  0  0  0  0  0  0  0  0  0  0  0
   64.5422   33.3407   47.1362 H   0  0  0  0  0  0  0  0  0  0  0  0
   64.0692   33.8066   49.5437 H   0  0  0  0  0  0  0  0  0  0  0  0
   61.7425   34.3384   50.2784 H   0  0  0  0  0  0  0  0  0  0  0  0
   59.8937   34.4389   48.6049 H   0  0  0  0  0  0  0  0  0  0  0  0
   58.1129   34.0153   44.1843 H   0  0  0  0  0  0  0  0  0  0  0  0
   56.5237   32.1359   43.7941 H   0  0  0  0  0  0  0  0  0  0  0  0
  1  2  2  0
  2  3  1  0
  3  4  1  0
  4  5  1  0
  5  6  2  0
  5  7  1  0
  7  8  1  0
  8  9  1  0
  9 10  1  0
 10 11  1  0
 11 12  1  0
  2 13  1  0
 13 14  1  0
 14 15  2  0
 15 16  1  0
 16 17  2  0
 17 18  1  0
 18 19  1  0
 19 20  2  0
 20 21  1  0
 21 22  2  0
 22 23  1  0
 23 24  2  0
 17 25  1  0
 25 26  2  0
 12  7  1  0
 26 14  1  0
 24 19  1  0
  8 27  1  0
  8 28  1  0
  9 29  1  0
  9 30  1  0
 11 31  1  0
 11 32  1  0
 12 33  1  0
 12 34  1  0
 15 35  1  0
 16 36  1  0
 20 37  1  0
 21 38  1  0
 22 39  1  0
 23 40  1  0
 24 41  1  0
 25 42  1  0
 26 43  1  0
M  CHG  1   3  -1
M  END
>  <UniqueID>  (88) 
74

>  <SMILES>  (88) 
O=C([N-]SC(=O)N1CCOCC1)Oc1ccc(Oc2ccccc2)cc1

>  <Energy>  (88) 
54.195108777436346

>  <Genealogy>  (88) 
O=C([N-]SC(=O)N1CCOCC1)Oc1ccc(Oc2ccccc2)cc1 (protonated)
O=C([N-]SC(=O)N1CCOCC1)Oc1ccc(Oc2ccccc2)cc1 (3D coordinates assigned)
O=C([N-]SC(=O)N1CCOCC1)Oc1ccc(Oc2ccccc2)cc1 (nonaromatic ring conformer: 54.195108777436346 kcal/mol)

>  <smiles>  (88) 
O=C(NSC(=O)N1CCOCC1)Oc1ccc(Oc2ccccc2)cc1

>  <score_type>  (88) 
oracle

>  <origin>  (88) 
adg

>  <m_score__min__energy>  (88) 
-10.390000000000001

>  <m_primary>  (88) 
energy

$$$$
88:0
     RDKit          3D

 47 50  0  0  0  0  0  0  0  0999 V2000
   58.7300   35.7190   47.3270 H   0  0  0  0  0  0  0  0  0  0  0  0
   59.3310   35.1760   46.7180 O   0  0  0  0  0  0  0  0  0  0  0  0
   58.8600   34.0510   46.0450 C   0  0  0  0  0  0  0  0  0  0  0  0
   58.6390   34.1130   44.6660 C   0  0  0  0  0  0  0  0  0  0  0  0
   58.8356   35.0481   44.1210 H   0  0  0  0  0  0  0  0  0  0  0  0
   58.1690   32.9910   43.9770 C   0  0  0  0  0  0  0  0  0  0  0  0
   57.9925   33.0483   42.8928 H   0  0  0  0  0  0  0  0  0  0  0  0
   57.9210   31.7900   44.6640 C   0  0  0  0  0  0  0  0  0  0  0  0
   57.4070   30.5810   43.9240 C   0  0  0  0  0  0  0  0  0  0  0  0
   58.1671   29.7870   43.9663 H   0  0  0  0  0  0  0  0  0  0  0  0
   57.2033   30.8757   42.8840 H   0  0  0  0  0  0  0  0  0  0  0  0
   56.1240   30.0630   44.5270 C   0  0  0  0  0  0  0  0  0  0  0  0
   55.1630   30.8590   44.7050 O   0  0  0  0  0  0  0  0  0  0  0  0
   55.8980   28.6630   44.7370 N   0  0  0  0  0  0  0  0  0  0  0  0
   56.6500   27.7900   45.5920 C   0  0  0  0  0  0  0  0  0  0  0  0
   57.9600   28.1090   45.9860 C   0  0  0  0  0  0  0  0  0  0  0  0
   58.4253   29.0396   45.6290 H   0  0  0  0  0  0  0  0  0  0  0  0
   58.6820   27.2490   46.8330 C   0  0  0  0  0  0  0  0  0  0  0  0
   60.0250   27.5490   47.2440 N   0  0  0  0  0  0  0  0  0  0  0  0
   60.3800   28.4180   48.1450 C   0  0  0  0  0  0  0  0  0  0  0  0
   61.0740   29.5230   47.7650 N   0  0  0  0  0  0  0  0  0  0  0  0
   61.4500   30.4780   48.6610 C   0  0  0  0  0  0  0  0  0  0  0  0
   62.2180   31.6580   48.1860 C   0  0  0  0  0  0  0  0  0  0  0  0
   63.4290   32.0090   48.8090 C   0  0  0  0  0  0  0  0  0  0  0  0
   63.8030   31.4100   49.6524 H   0  0  0  0  0  0  0  0  0  0  0  0
   64.1410   33.0840   48.3760 N   0  0  0  0  0  0  0  0  0  0  0  0
   63.7220   33.8460   47.3330 C   0  0  0  0  0  0  0  0  0  0  0  0
   64.3203   34.7101   47.0085 H   0  0  0  0  0  0  0  0  0  0  0  0
   62.5340   33.5340   46.6730 C   0  0  0  0  0  0  0  0  0  0  0  0
   62.1920   34.1465   45.8257 H   0  0  0  0  0  0  0  0  0  0  0  0
   61.7830   32.4370   47.0980 C   0  0  0  0  0  0  0  0  0  0  0  0
   60.8471   32.1803   46.5802 H   0  0  0  0  0  0  0  0  0  0  0  0
   61.1130   30.3080   50.0130 C   0  0  0  0  0  0  0  0  0  0  0  0
   61.4150   31.0534   50.7635 H   0  0  0  0  0  0  0  0  0  0  0  0
   60.3890   29.1780   50.3870 C   0  0  0  0  0  0  0  0  0  0  0  0
   60.1052   29.0297   51.4394 H   0  0  0  0  0  0  0  0  0  0  0  0
   60.0340   28.2600   49.4520 N   0  0  0  0  0  0  0  0  0  0  0  0
   58.0500   26.1150   47.3550 C   0  0  0  0  0  0  0  0  0  0  0  0
   58.5931   25.4574   48.0497 H   0  0  0  0  0  0  0  0  0  0  0  0
   56.7330   25.8130   46.9990 C   0  0  0  0  0  0  0  0  0  0  0  0
   56.2459   24.9162   47.4094 H   0  0  0  0  0  0  0  0  0  0  0  0
   56.0320   26.6480   46.1220 C   0  0  0  0  0  0  0  0  0  0  0  0
   54.7220   26.3370   45.7770 O   0  0  0  0  0  0  0  0  0  0  0  0
   58.1310   31.7370   46.0510 C   0  0  0  0  0  0  0  0  0  0  0  0
   57.9232   30.8070   46.6005 H   0  0  0  0  0  0  0  0  0  0  0  0
   58.6030   32.8600   46.7380 C   0  0  0  0  0  0  0  0  0  0  0  0
   58.7728   32.8086   47.8236 H   0  0  0  0  0  0  0  0  0  0  0  0
  1  2  1  0
  2  3  1  0
  3  4  2  0
  4  5  1  0
  4  6  1  0
  6  7  1  0
  6  8  2  0
  8  9  1  0
  9 10  1  0
  9 11  1  0
  9 12  1  0
 12 13  2  0
 12 14  1  0
 14 15  1  0
 15 16  2  0
 16 17  1  0
 16 18  1  0
 18 19  1  0
 19 20  2  0
 20 21  1  0
 21 22  2  0
 22 23  1  0
 23 24  2  0
 24 25  1  0
 24 26  1  0
 26 27  2  0
 27 28  1  0
 27 29  1  0
 29 30  1  0
 29 31  2  0
 31 32  1  0
 22 33  1  0
 33 34  1  0
 33 35  2  0
 35 36  1  0
 35 37  1  0
 18 38  2  0
 38 39  1  0
 38 40  1  0
 40 41  1  0
 40 42  2  0
 42 43  1  0
  8 44  1  0
 44 45  1  0
 44 46  2  0
 46 47  1  0
 46  3  1  0
 42 15  1  0
 37 20  1  0
 31 23  1  0
M  CHG  3  14  -1  37  -1  43  -1
M  END
>  <UniqueID>  (89) 
75

>  <SMILES>  (89) 
O=C(Cc1ccc(O)cc1)[N-]c1cc(/N=c2/nc(-c3cccnc3)cc[n-]2)ccc1[O-]

>  <Energy>  (89) 
67.12429418751465

>  <Genealogy>  (89) 
O=C(Cc1ccc(O)cc1)[N-]c1cc(N=c2nc(-c3cccnc3)cc[n-]2)ccc1[O-] (protonated)
O=C(Cc1ccc(O)cc1)[N-]c1cc(/N=c2/nc(-c3cccnc3)cc[n-]2)ccc1[O-] (cis-trans isomerization)
O=C(Cc1ccc(O)cc1)[N-]c1cc(/N=c2/nc(-c3cccnc3)cc[n-]2)ccc1[O-] (3D coordinates assigned)
O=C(Cc1ccc(O)cc1)[N-]c1cc(/N=c2/nc(-c3cccnc3)cc[n-]2)ccc1[O-] (optimized conformer: 67.12429418751465 kcal/mol)

>  <smiles>  (89) 
O=C(Cc1ccc(O)cc1)Nc1cc(N=c2nc(-c3cccnc3)cc[nH]2)ccc1O

>  <score_type>  (89) 
oracle

>  <origin>  (89) 
adg

>  <m_score__min__energy>  (89) 
-15.58

>  <m_primary>  (89) 
energy

$$$$
89:0
     RDKit          3D

 33 36  0  0  0  0  0  0  0  0999 V2000
   65.0408   33.0553   47.4556 H   0  0  0  0  0  0  0  0  0  0  0  0
   64.0010   33.2780   47.7370 C   0  0  0  0  0  0  0  0  0  0  0  0
   63.6670   33.4590   49.0820 C   0  0  0  0  0  0  0  0  0  0  0  0
   64.4446   33.3779   49.8558 H   0  0  0  0  0  0  0  0  0  0  0  0
   62.3470   33.7430   49.4470 C   0  0  0  0  0  0  0  0  0  0  0  0
   62.0885   33.8852   50.5067 H   0  0  0  0  0  0  0  0  0  0  0  0
   61.3500   33.8470   48.4610 C   0  0  0  0  0  0  0  0  0  0  0  0
   60.0100   34.1240   48.7730 C   0  0  0  0  0  0  0  0  0  0  0  0
   59.6410   34.2890   49.9680 O   0  0  0  0  0  0  0  0  0  0  0  0
   59.0720   34.2140   47.7440 C   0  0  0  0  0  0  0  0  0  0  0  0
   58.0158   34.4208   47.9714 H   0  0  0  0  0  0  0  0  0  0  0  0
   59.4900   34.0380   46.4160 C   0  0  0  0  0  0  0  0  0  0  0  0
   58.5350   34.1190   45.2910 C   0  0  0  0  0  0  0  0  0  0  0  0
   58.5540   35.1400   44.5530 O   0  0  0  0  0  0  0  0  0  0  0  0
   57.6080   33.0670   44.9840 N   0  0  0  0  0  0  0  0  0  0  0  0
   57.8310   31.8010   45.1700 C   0  0  0  0  0  0  0  0  0  0  0  0
   56.9280   30.8500   44.9800 O   0  0  0  0  0  0  0  0  0  0  0  0
   57.5380   29.7260   45.2610 C   0  0  0  0  0  0  0  0  0  0  0  0
   57.0350   28.4290   45.2280 C   0  0  0  0  0  0  0  0  0  0  0  0
   55.9933   28.2286   44.9370 H   0  0  0  0  0  0  0  0  0  0  0  0
   57.9090   27.3820   45.5810 C   0  0  0  0  0  0  0  0  0  0  0  0
   57.4590   26.1020   45.5620 F   0  0  0  0  0  0  0  0  0  0  0  0
   59.2490   27.6600   45.9530 C   0  0  0  0  0  0  0  0  0  0  0  0
   60.3330   26.3520   46.3910 Cl  0  0  0  0  0  0  0  0  0  0  0  0
   59.7210   28.9880   45.9740 C   0  0  0  0  0  0  0  0  0  0  0  0
   60.7574   29.2204   46.2603 H   0  0  0  0  0  0  0  0  0  0  0  0
   58.8270   29.9950   45.6190 C   0  0  0  0  0  0  0  0  0  0  0  0
   59.0350   31.3190   45.5640 N   0  0  0  0  0  0  0  0  0  0  0  0
   59.9110   31.8480   45.7760 H   0  0  0  0  0  0  0  0  0  0  0  0
   60.7660   33.7610   46.1530 O   0  0  0  0  0  0  0  0  0  0  0  0
   61.6940   33.6640   47.1010 C   0  0  0  0  0  0  0  0  0  0  0  0
   63.0180   33.3790   46.7480 C   0  0  0  0  0  0  0  0  0  0  0  0
   63.2856   33.2343   45.6909 H   0  0  0  0  0  0  0  0  0  0  0  0
  1  2  1  0
  2  3  2  0
  3  4  1  0
  3  5  1  0
  5  6  1  0
  5  7  2  0
  7  8  1  0
  8  9  2  0
  8 10  1  0
 10 11  1  0
 10 12  2  0
 12 13  1  0
 13 14  2  0
 13 15  1  0
 15 16  2  0
 16 17  1  0
 17 18  1  0
 18 19  2  0
 19 20  1  0
 19 21  1  0
 21 22  1  0
 21 23  2  0
 23 24  1  0
 23 25  1  0
 25 26  1  0
 25 27  2  0
 27 28  1  0
 28 29  1  0
 12 30  1  0
 30 31  1  0
 31 32  2  0
 32 33  1  0
 32  2  1  0
 31  7  1  0
 28 16  1  0
 27 18  1  0
M  END
>  <UniqueID>  (90) 
76

>  <SMILES>  (90) 
O=C(/N=c1/[nH]c2cc(Cl)c(F)cc2o1)c1cc(=O)c2ccccc2o1

>  <Energy>  (90) 
88.72343550873657

>  <Genealogy>  (90) 
O=C(/N=c1/[nH]c2cc(Cl)c(F)cc2o1)c1cc(=O)c2ccccc2o1 (cis-trans isomerization)
O=C(/N=c1/[nH]c2cc(Cl)c(F)cc2o1)c1cc(=O)c2ccccc2o1 (3D coordinates assigned)
O=C(/N=c1/[nH]c2cc(Cl)c(F)cc2o1)c1cc(=O)c2ccccc2o1 (optimized conformer: 88.72343550873657 kcal/mol)

>  <smiles>  (90) 
O=C(N=c1[nH]c2cc(Cl)c(F)cc2o1)c1cc(=O)c2ccccc2o1

>  <score_type>  (90) 
oracle

>  <origin>  (90) 
adg

>  <m_score__min__energy>  (90) 
-8.5800000000000001

>  <m_primary>  (90) 
energy

$$$$
90:0
     RDKit          3D

 48 50  0  0  0  0  0  0  0  0999 V2000
   55.1420   31.1040   52.1470 C   0  0  0  0  0  0  0  0  0  0  0  0
   56.4920   31.5570   52.1170 O   0  0  0  0  0  0  0  0  0  0  0  0
   57.5750   30.7020   51.8720 C   0  0  0  0  0  0  0  0  0  0  0  0
   57.3730   29.4750   51.6510 O   0  0  0  0  0  0  0  0  0  0  0  0
   58.9540   31.2410   51.8790 C   0  0  0  0  0  0  0  0  0  0  0  0
   59.2520   32.4120   52.5950 C   0  0  0  0  0  0  0  0  0  0  0  0
   60.5550   32.9200   52.6130 C   0  0  0  0  0  0  0  0  0  0  0  0
   61.5860   32.2740   51.9130 C   0  0  0  0  0  0  0  0  0  0  0  0
   62.9110   32.8310   51.9480 N   0  0  0  0  0  0  0  0  0  0  0  0
   63.5750   33.8400   50.6990 S   0  0  0  0  0  0  0  0  0  0  0  0
   63.7620   35.2300   51.2370 O   0  0  0  0  0  0  0  0  0  0  0  0
   64.9130   33.2900   50.2830 O   0  0  0  0  0  0  0  0  0  0  0  0
   62.4770   33.9100   49.3250 C   0  0  0  0  0  0  0  0  0  0  0  0
   61.1310   34.2480   49.5160 C   0  0  0  0  0  0  0  0  0  0  0  0
   60.2590   34.3090   48.4250 C   0  0  0  0  0  0  0  0  0  0  0  0
   60.7190   34.0260   47.1330 C   0  0  0  0  0  0  0  0  0  0  0  0
   59.8150   34.1160   46.0630 O   0  0  0  0  0  0  0  0  0  0  0  0
   59.0420   33.0600   45.5600 C   0  0  0  0  0  0  0  0  0  0  0  0
   58.3410   33.1630   44.3440 C   0  0  0  0  0  0  0  0  0  0  0  0
   57.5880   32.0830   43.8710 C   0  0  0  0  0  0  0  0  0  0  0  0
   57.5380   30.8850   44.5980 C   0  0  0  0  0  0  0  0  0  0  0  0
   56.6110   29.5170   43.9940 S   0  0  0  0  0  0  0  0  0  0  0  0
   55.1430   29.3750   44.8950 N   0  0  0  0  0  0  0  0  0  0  0  0
   56.2910   29.7220   42.5390 O   0  0  0  0  0  0  0  0  0  0  0  0
   57.4120   28.2520   44.1390 O   0  0  0  0  0  0  0  0  0  0  0  0
   58.2650   30.7710   45.7910 C   0  0  0  0  0  0  0  0  0  0  0  0
   59.0140   31.8520   46.2660 C   0  0  0  0  0  0  0  0  0  0  0  0
   62.0770   33.7100   46.9390 C   0  0  0  0  0  0  0  0  0  0  0  0
   62.9480   33.6510   48.0310 C   0  0  0  0  0  0  0  0  0  0  0  0
   61.2880   31.1010   51.1960 C   0  0  0  0  0  0  0  0  0  0  0  0
   59.9840   30.5910   51.1780 C   0  0  0  0  0  0  0  0  0  0  0  0
   54.8152   30.9943   53.1916 H   0  0  0  0  0  0  0  0  0  0  0  0
   54.4984   31.8354   51.6363 H   0  0  0  0  0  0  0  0  0  0  0  0
   55.0698   30.1324   51.6363 H   0  0  0  0  0  0  0  0  0  0  0  0
   58.4550   32.9333   53.1455 H   0  0  0  0  0  0  0  0  0  0  0  0
   60.7742   33.8356   53.1818 H   0  0  0  0  0  0  0  0  0  0  0  0
   63.4990   32.6910   52.8010 H   0  0  0  0  0  0  0  0  0  0  0  0
   60.7589   34.4662   50.5279 H   0  0  0  0  0  0  0  0  0  0  0  0
   59.2049   34.5810   48.5824 H   0  0  0  0  0  0  0  0  0  0  0  0
   58.3853   34.0962   43.7633 H   0  0  0  0  0  0  0  0  0  0  0  0
   57.0332   32.1739   42.9255 H   0  0  0  0  0  0  0  0  0  0  0  0
   55.3000   28.6310   45.6120 H   0  0  0  0  0  0  0  0  0  0  0  0
   58.2462   29.8273   46.3558 H   0  0  0  0  0  0  0  0  0  0  0  0
   59.5850   31.7522   47.2009 H   0  0  0  0  0  0  0  0  0  0  0  0
   62.4539   33.5089   45.9253 H   0  0  0  0  0  0  0  0  0  0  0  0
   64.0074   33.4002   47.8737 H   0  0  0  0  0  0  0  0  0  0  0  0
   62.0853   30.5804   50.6453 H   0  0  0  0  0  0  0  0  0  0  0  0
   59.7642   29.6745   50.6108 H   0  0  0  0  0  0  0  0  0  0  0  0
  1  2  1  0
  2  3  1  0
  3  4  2  0
  3  5  1  0
  5  6  2  0
  6  7  1  0
  7  8  2  0
  8  9  1  0
  9 10  1  0
 10 11  2  0
 10 12  2  0
 10 13  1  0
 13 14  2  0
 14 15  1  0
 15 16  2  0
 16 17  1  0
 17 18  1  0
 18 19  2  0
 19 20  1  0
 20 21  2  0
 21 22  1  0
 22 23  1  0
 22 24  2  0
 22 25  2  0
 21 26  1  0
 26 27  2  0
 16 28  1  0
 28 29  2  0
  8 30  1  0
 30 31  2  0
 31  5  1  0
 29 13  1  0
 27 18  1  0
  1 32  1  0
  1 33  1  0
  1 34  1  0
  6 35  1  0
  7 36  1  0
  9 37  1  0
 14 38  1  0
 15 39  1  0
 19 40  1  0
 20 41  1  0
 23 42  1  0
 26 43  1  0
 27 44  1  0
 28 45  1  0
 29 46  1  0
 30 47  1  0
 31 48  1  0
M  CHG  1  23  -1
M  END
>  <UniqueID>  (91) 
77

>  <SMILES>  (91) 
COC(=O)c1ccc(NS(=O)(=O)c2ccc(Oc3ccc(S([NH-])(=O)=O)cc3)cc2)cc1

>  <Energy>  (91) 
57.92370352660768

>  <Genealogy>  (91) 
COC(=O)c1ccc(NS(=O)(=O)c2ccc(Oc3ccc(S([NH-])(=O)=O)cc3)cc2)cc1 (protonated)
COC(=O)c1ccc(NS(=O)(=O)c2ccc(Oc3ccc(S([NH-])(=O)=O)cc3)cc2)cc1 (3D coordinates assigned)
COC(=O)c1ccc(NS(=O)(=O)c2ccc(Oc3ccc(S([NH-])(=O)=O)cc3)cc2)cc1 (optimized conformer: 57.92370352660768 kcal/mol)

>  <smiles>  (91) 
COC(=O)c1ccc(NS(=O)(=O)c2ccc(Oc3ccc(S(N)(=O)=O)cc3)cc2)cc1

>  <score_type>  (91) 
oracle

>  <origin>  (91) 
adg

>  <m_score__min__energy>  (91) 
-11.42

>  <m_primary>  (91) 
energy

$$$$
