0:0
     RDKit          3D

 36 38  0  0  0  0  0  0  0  0999 V2000
   56.7130   31.4830   44.8610 O   0  0  0  0  0  0  0  0  0  0  0  0
   57.7930   30.9660   45.2580 C   0  0  0  0  0  0  0  0  0  0  0  0
   58.9900   31.7550   45.3600 N   0  0  0  0  0  0  0  0  0  0  0  0
   59.1230   32.8650   46.0230 C   0  0  0  0  0  0  0  0  0  0  0  0
   59.1640   32.9500   47.3720 N   0  0  0  0  0  0  0  0  0  0  0  0
   59.3120   34.2360   47.7840 C   0  0  0  0  0  0  0  0  0  0  0  0
   59.3910   35.1780   46.7630 C   0  0  0  0  0  0  0  0  0  0  0  0
   59.2700   34.3680   45.2930 S   0  0  0  0  0  0  0  0  0  0  0  0
   57.8500   29.5190   45.5640 C   0  0  0  0  0  0  0  0  0  0  0  0
   59.0920   28.9550   45.8980 C   0  0  0  0  0  0  0  0  0  0  0  0
   59.2120   27.5840   46.1240 C   0  0  0  0  0  0  0  0  0  0  0  0
   58.0950   26.7560   46.0210 C   0  0  0  0  0  0  0  0  0  0  0  0
   56.8370   27.2970   45.7090 C   0  0  0  0  0  0  0  0  0  0  0  0
   55.6660   26.4740   45.6180 N   0  0  0  0  0  0  0  0  0  0  0  0
   55.5140   24.8650   46.2490 S   0  0  0  0  0  0  0  0  0  0  0  0
   54.0640   24.4840   46.3380 O   0  0  0  0  0  0  0  0  0  0  0  0
   56.1450   24.8120   47.6140 O   0  0  0  0  0  0  0  0  0  0  0  0
   56.3390   23.7410   45.1760 C   0  0  0  0  0  0  0  0  0  0  0  0
   57.5500   23.1540   45.5690 C   0  0  0  0  0  0  0  0  0  0  0  0
   58.2110   22.2670   44.7120 C   0  0  0  0  0  0  0  0  0  0  0  0
   57.6680   21.9660   43.4600 C   0  0  0  0  0  0  0  0  0  0  0  0
   56.4640   22.5550   43.0620 C   0  0  0  0  0  0  0  0  0  0  0  0
   55.8010   23.4430   43.9150 C   0  0  0  0  0  0  0  0  0  0  0  0
   56.7060   28.6810   45.5000 C   0  0  0  0  0  0  0  0  0  0  0  0
   55.4260   29.1910   45.2660 O   0  0  0  0  0  0  0  0  0  0  0  0
   59.3655   34.5125   48.8473 H   0  0  0  0  0  0  0  0  0  0  0  0
   59.5116   36.2635   46.8940 H   0  0  0  0  0  0  0  0  0  0  0  0
   59.9786   29.6007   45.9822 H   0  0  0  0  0  0  0  0  0  0  0  0
   60.1908   27.1547   46.3843 H   0  0  0  0  0  0  0  0  0  0  0  0
   58.1995   25.6733   46.1850 H   0  0  0  0  0  0  0  0  0  0  0  0
   57.9813   23.3911   46.5527 H   0  0  0  0  0  0  0  0  0  0  0  0
   59.1596   21.8059   45.0243 H   0  0  0  0  0  0  0  0  0  0  0  0
   58.1872   21.2665   42.7884 H   0  0  0  0  0  0  0  0  0  0  0  0
   56.0374   22.3194   42.0759 H   0  0  0  0  0  0  0  0  0  0  0  0
   54.8565   23.9084   43.5969 H   0  0  0  0  0  0  0  0  0  0  0  0
   55.1190   30.1000   45.5840 H   0  0  0  0  0  0  0  0  0  0  0  0
  1  2  2  0
  2  3  1  0
  3  4  2  3
  4  5  1  0
  5  6  1  0
  6  7  2  0
  7  8  1  0
  2  9  1  0
  9 10  2  0
 10 11  1  0
 11 12  2  0
 12 13  1  0
 13 14  1  0
 14 15  1  0
 15 16  2  0
 15 17  2  0
 15 18  1  0
 18 19  2  0
 19 20  1  0
 20 21  2  0
 21 22  1  0
 22 23  2  0
 13 24  2  0
 24 25  1  0
  8  4  1  0
 24  9  1  0
 23 18  1  0
  6 26  1  0
  7 27  1  0
 10 28  1  0
 11 29  1  0
 12 30  1  0
 19 31  1  0
 20 32  1  0
 21 33  1  0
 22 34  1  0
 23 35  1  0
 25 36  1  0
M  CHG  2   5  -1  14  -1
M  END
>  <UniqueID>  (1) 
1

>  <SMILES>  (1) 
O=C(N=c1[n-]ccs1)c1cccc([N-]S(=O)(=O)c2ccccc2)c1O

>  <Energy>  (1) 
80.96368151357395

>  <Genealogy>  (1) 
O=C(N=c1[n-]ccs1)c1cccc([N-]S(=O)(=O)c2ccccc2)c1O (protonated)
O=C(N=c1[n-]ccs1)c1cccc([N-]S(=O)(=O)c2ccccc2)c1O (3D coordinates assigned)
O=C(N=c1[n-]ccs1)c1cccc([N-]S(=O)(=O)c2ccccc2)c1O (optimized conformer: 80.96368151357395 kcal/mol)

>  <smiles>  (1) 
O=C(N=c1[nH]ccs1)c1cccc(NS(=O)(=O)c2ccccc2)c1O

>  <score_type>  (1) 
oracle

>  <origin>  (1) 
adg

>  <m_score__min__energy>  (1) 
-12.550000000000001

>  <m_primary>  (1) 
energy

$$$$
1:0
     RDKit          3D

 39 40  0  0  0  0  0  0  0  0999 V2000
   57.4070   33.4860   47.1860 N   0  0  0  0  0  0  0  0  0  0  0  0
   57.8160   33.3130   45.5170 S   0  0  0  0  0  0  0  0  0  0  0  0
   56.9810   34.2570   44.6970 O   0  0  0  0  0  0  0  0  0  0  0  0
   59.2680   33.6520   45.3150 O   0  0  0  0  0  0  0  0  0  0  0  0
   57.5210   31.6520   45.0130 C   0  0  0  0  0  0  0  0  0  0  0  0
   57.0210   31.3890   43.7330 C   0  0  0  0  0  0  0  0  0  0  0  0
   56.7850   30.0730   43.3270 C   0  0  0  0  0  0  0  0  0  0  0  0
   57.0630   29.0120   44.1930 C   0  0  0  0  0  0  0  0  0  0  0  0
   57.5940   29.2600   45.4720 C   0  0  0  0  0  0  0  0  0  0  0  0
   57.8650   28.1890   46.3930 N   0  0  0  0  0  0  0  0  0  0  0  0
   59.0360   28.1140   47.2190 C   0  0  0  0  0  0  0  0  0  0  0  0
   59.7650   29.1280   47.3940 O   0  0  0  0  0  0  0  0  0  0  0  0
   59.4070   26.8240   47.8850 C   0  0  0  0  0  0  0  0  0  0  0  0
   58.5000   25.7630   47.4630 N   0  0  0  0  0  0  0  0  0  0  0  0
   58.5690   25.1270   46.1820 C   0  0  0  0  0  0  0  0  0  0  0  0
   59.4280   24.2320   45.9570 O   0  0  0  0  0  0  0  0  0  0  0  0
   57.6480   25.5640   45.0890 C   0  0  0  0  0  0  0  0  0  0  0  0
   56.3630   24.7810   45.1510 C   0  0  0  0  0  0  0  0  0  0  0  0
   56.3640   23.4160   44.8100 C   0  0  0  0  0  0  0  0  0  0  0  0
   55.1870   22.6670   44.8930 C   0  0  0  0  0  0  0  0  0  0  0  0
   54.0030   23.2680   45.3220 C   0  0  0  0  0  0  0  0  0  0  0  0
   53.9930   24.6190   45.6780 C   0  0  0  0  0  0  0  0  0  0  0  0
   55.1680   25.3760   45.6000 C   0  0  0  0  0  0  0  0  0  0  0  0
   55.1370   26.7170   45.9730 O   0  0  0  0  0  0  0  0  0  0  0  0
   57.8040   30.5870   45.8800 C   0  0  0  0  0  0  0  0  0  0  0  0
   56.4290   33.8500   47.2250 H   0  0  0  0  0  0  0  0  0  0  0  0
   56.8130   32.2209   43.0441 H   0  0  0  0  0  0  0  0  0  0  0  0
   56.3798   29.8718   42.3243 H   0  0  0  0  0  0  0  0  0  0  0  0
   56.8657   27.9782   43.8732 H   0  0  0  0  0  0  0  0  0  0  0  0
   57.1350   27.4490   46.5090 H   0  0  0  0  0  0  0  0  0  0  0  0
   60.4366   26.5542   47.6074 H   0  0  0  0  0  0  0  0  0  0  0  0
   59.3335   26.9478   48.9755 H   0  0  0  0  0  0  0  0  0  0  0  0
   57.4273   26.6353   45.2058 H   0  0  0  0  0  0  0  0  0  0  0  0
   58.1319   25.3853   44.1175 H   0  0  0  0  0  0  0  0  0  0  0  0
   57.2958   22.9359   44.4764 H   0  0  0  0  0  0  0  0  0  0  0  0
   55.1940   21.6015   44.6196 H   0  0  0  0  0  0  0  0  0  0  0  0
   53.0767   22.6776   45.3799 H   0  0  0  0  0  0  0  0  0  0  0  0
   53.0594   25.0891   46.0205 H   0  0  0  0  0  0  0  0  0  0  0  0
   58.1937   30.7927   46.8879 H   0  0  0  0  0  0  0  0  0  0  0  0
  1  2  1  0
  2  3  2  0
  2  4  2  0
  2  5  1  0
  5  6  2  0
  6  7  1  0
  7  8  2  0
  8  9  1  0
  9 10  1  0
 10 11  1  0
 11 12  2  0
 11 13  1  0
 13 14  1  0
 14 15  1  0
 15 16  2  0
 15 17  1  0
 17 18  1  0
 18 19  2  0
 19 20  1  0
 20 21  2  0
 21 22  1  0
 22 23  2  0
 23 24  1  0
  9 25  2  0
 25  5  1  0
 23 18  1  0
  1 26  1  0
  6 27  1  0
  7 28  1  0
  8 29  1  0
 10 30  1  0
 13 31  1  0
 13 32  1  0
 17 33  1  0
 17 34  1  0
 19 35  1  0
 20 36  1  0
 21 37  1  0
 22 38  1  0
 25 39  1  0
M  CHG  3   1  -1  14  -1  24  -1
M  END
>  <UniqueID>  (2) 
2

>  <SMILES>  (2) 
[NH-]S(=O)(=O)c1cccc(NC(=O)C[N-]C(=O)Cc2ccccc2[O-])c1

>  <Energy>  (2) 
38.2400035063944

>  <Genealogy>  (2) 
[NH-]S(=O)(=O)c1cccc(NC(=O)C[N-]C(=O)Cc2ccccc2[O-])c1 (protonated)
[NH-]S(=O)(=O)c1cccc(NC(=O)C[N-]C(=O)Cc2ccccc2[O-])c1 (3D coordinates assigned)
[NH-]S(=O)(=O)c1cccc(NC(=O)C[N-]C(=O)Cc2ccccc2[O-])c1 (optimized conformer: 38.2400035063944 kcal/mol)

>  <smiles>  (2) 
NS(=O)(=O)c1cccc(NC(=O)CNC(=O)Cc2ccccc2O)c1

>  <score_type>  (2) 
oracle

>  <origin>  (2) 
adg

>  <m_score__min__energy>  (2) 
-13.779999999999999

>  <m_primary>  (2) 
energy

$$$$
2:0
     RDKit          3D

 64 68  0  0  0  0  0  0  0  0999 V2000
   60.4150   27.0840   48.3170 C   0  0  0  0  0  0  0  0  0  0  0  0
   60.4520   27.2160   46.8000 C   0  0  0  0  0  0  0  0  0  0  0  0
   59.5750   28.3520   46.3420 C   0  0  0  0  0  0  0  0  0  0  0  0
   58.6250   28.1500   45.3300 C   0  0  0  0  0  0  0  0  0  0  0  0
   57.7840   29.1950   44.9330 C   0  0  0  0  0  0  0  0  0  0  0  0
   57.8660   30.4480   45.5530 C   0  0  0  0  0  0  0  0  0  0  0  0
   56.9990   31.4970   45.1030 N   0  0  0  0  0  0  0  0  0  0  0  0
   57.3910   32.6800   44.3870 C   0  0  0  0  0  0  0  0  0  0  0  0
   57.6510   32.6280   43.1550 O   0  0  0  0  0  0  0  0  0  0  0  0
   57.5430   33.9910   45.1050 C   0  0  0  0  0  0  0  0  0  0  0  0
   58.6100   33.9310   46.1230 N   0  0  0  0  0  0  0  0  0  0  0  0
   58.2560   33.8590   47.4420 C   0  0  0  0  0  0  0  0  0  0  0  0
   59.2240   33.7960   48.4420 C   0  0  0  0  0  0  0  0  0  0  0  0
   60.5810   33.7940   48.0990 C   0  0  0  0  0  0  0  0  0  0  0  0
   61.5810   33.7530   49.0930 C   0  0  0  0  0  0  0  0  0  0  0  0
   61.2140   33.6810   50.4480 O   0  0  0  0  0  0  0  0  0  0  0  0
   60.1520   32.9220   50.9570 C   0  0  0  0  0  0  0  0  0  0  0  0
   59.1410   33.4980   51.7490 C   0  0  0  0  0  0  0  0  0  0  0  0
   58.0810   32.7150   52.2170 C   0  0  0  0  0  0  0  0  0  0  0  0
   58.0190   31.3500   51.9030 C   0  0  0  0  0  0  0  0  0  0  0  0
   56.6800   30.3630   52.4780 S   0  0  0  0  0  0  0  0  0  0  0  0
   57.0180   28.9040   52.3430 O   0  0  0  0  0  0  0  0  0  0  0  0
   56.4210   30.6530   53.9300 O   0  0  0  0  0  0  0  0  0  0  0  0
   55.2530   30.7300   51.5660 N   0  0  0  0  0  0  0  0  0  0  0  0
   53.9360   30.6330   52.1120 C   0  0  0  0  0  0  0  0  0  0  0  0
   53.7730   30.5610   53.3600 O   0  0  0  0  0  0  0  0  0  0  0  0
   52.7610   30.6170   51.1710 C   0  0  0  0  0  0  0  0  0  0  0  0
   52.0860   31.9580   50.9270 C   0  0  0  0  0  0  0  0  0  0  0  0
   51.4070   30.9120   51.8020 C   0  0  0  0  0  0  0  0  0  0  0  0
   59.0190   30.7780   51.1010 C   0  0  0  0  0  0  0  0  0  0  0  0
   60.0740   31.5630   50.6260 C   0  0  0  0  0  0  0  0  0  0  0  0
   62.9350   33.7400   48.7130 C   0  0  0  0  0  0  0  0  0  0  0  0
   63.2920   33.7870   47.3660 C   0  0  0  0  0  0  0  0  0  0  0  0
   62.3070   33.8410   46.3790 C   0  0  0  0  0  0  0  0  0  0  0  0
   60.9450   33.8470   46.7320 C   0  0  0  0  0  0  0  0  0  0  0  0
   59.9320   33.9060   45.7520 C   0  0  0  0  0  0  0  0  0  0  0  0
   60.2460   33.9380   44.5290 O   0  0  0  0  0  0  0  0  0  0  0  0
   58.8290   30.6550   46.5570 C   0  0  0  0  0  0  0  0  0  0  0  0
   59.6680   29.6100   46.9550 C   0  0  0  0  0  0  0  0  0  0  0  0
   60.6849   28.0468   48.7755 H   0  0  0  0  0  0  0  0  0  0  0  0
   59.4019   26.7973   48.6355 H   0  0  0  0  0  0  0  0  0  0  0  0
   61.1315   26.3125   48.6355 H   0  0  0  0  0  0  0  0  0  0  0  0
   61.4868   27.4070   46.4794 H   0  0  0  0  0  0  0  0  0  0  0  0
   60.0805   26.2812   46.3549 H   0  0  0  0  0  0  0  0  0  0  0  0
   58.5409   27.1656   44.8464 H   0  0  0  0  0  0  0  0  0  0  0  0
   57.0528   29.0313   44.1277 H   0  0  0  0  0  0  0  0  0  0  0  0
   57.7919   34.7728   44.3723 H   0  0  0  0  0  0  0  0  0  0  0  0
   56.5941   34.2176   45.6133 H   0  0  0  0  0  0  0  0  0  0  0  0
   57.1911   33.8507   47.7175 H   0  0  0  0  0  0  0  0  0  0  0  0
   58.9225   33.7479   49.4988 H   0  0  0  0  0  0  0  0  0  0  0  0
   59.1848   34.5679   52.0007 H   0  0  0  0  0  0  0  0  0  0  0  0
   57.2930   33.1718   52.8338 H   0  0  0  0  0  0  0  0  0  0  0  0
   53.1655   29.8219   50.5274 H   0  0  0  0  0  0  0  0  0  0  0  0
   52.4976   32.8715   51.3810 H   0  0  0  0  0  0  0  0  0  0  0  0
   51.7964   32.5319   50.0344 H   0  0  0  0  0  0  0  0  0  0  0  0
   51.3286   31.0698   52.8878 H   0  0  0  0  0  0  0  0  0  0  0  0
   50.4245   30.4173   51.8033 H   0  0  0  0  0  0  0  0  0  0  0  0
   58.9725   29.7091   50.8455 H   0  0  0  0  0  0  0  0  0  0  0  0
   60.8477   31.1106   49.9883 H   0  0  0  0  0  0  0  0  0  0  0  0
   63.7181   33.6924   49.4841 H   0  0  0  0  0  0  0  0  0  0  0  0
   64.3542   33.7815   47.0802 H   0  0  0  0  0  0  0  0  0  0  0  0
   62.5971   33.8791   45.3186 H   0  0  0  0  0  0  0  0  0  0  0  0
   58.9224   31.6432   47.0310 H   0  0  0  0  0  0  0  0  0  0  0  0
   60.4057   29.7755   47.7540 H   0  0  0  0  0  0  0  0  0  0  0  0
  1  2  1  0
  2  3  1  0
  3  4  2  0
  4  5  1  0
  5  6  2  0
  6  7  1  0
  7  8  1  0
  8  9  2  0
  8 10  1  0
 10 11  1  0
 11 12  1  0
 12 13  2  0
 13 14  1  0
 14 15  2  0
 15 16  1  0
 16 17  1  0
 17 18  2  0
 18 19  1  0
 19 20  2  0
 20 21  1  0
 21 22  2  0
 21 23  2  0
 21 24  1  0
 24 25  1  0
 25 26  2  0
 25 27  1  0
 27 28  1  0
 28 29  1  0
 20 30  1  0
 30 31  2  0
 15 32  1  0
 32 33  2  0
 33 34  1  0
 34 35  2  0
 35 36  1  0
 36 37  2  0
  6 38  1  0
 38 39  2  0
 39  3  1  0
 36 11  1  0
 35 14  1  0
 31 17  1  0
 29 27  1  0
  1 40  1  0
  1 41  1  0
  1 42  1  0
  2 43  1  0
  2 44  1  0
  4 45  1  0
  5 46  1  0
 10 47  1  0
 10 48  1  0
 12 49  1  0
 13 50  1  0
 18 51  1  0
 19 52  1  0
 27 53  1  0
 28 54  1  0
 28 55  1  0
 29 56  1  0
 29 57  1  0
 30 58  1  0
 31 59  1  0
 32 60  1  0
 33 61  1  0
 34 62  1  0
 38 63  1  0
 39 64  1  0
M  CHG  2   7  -1  24  -1
M  END
>  <UniqueID>  (3) 
3

>  <SMILES>  (3) 
CCc1ccc([N-]C(=O)Cn2ccc3c(Oc4ccc(S(=O)(=O)[N-]C(=O)C5CC5)cc4)cccc3c2=O)cc1

>  <Energy>  (3) 
349.63612567886435

>  <Genealogy>  (3) 
CCc1ccc([N-]C(=O)Cn2ccc3c(Oc4ccc(S(=O)(=O)[N-]C(=O)C5CC5)cc4)cccc3c2=O)cc1 (protonated)
CCc1ccc([N-]C(=O)Cn2ccc3c(Oc4ccc(S(=O)(=O)[N-]C(=O)C5CC5)cc4)cccc3c2=O)cc1 (3D coordinates assigned)
CCc1ccc([N-]C(=O)Cn2ccc3c(Oc4ccc(S(=O)(=O)[N-]C(=O)C5CC5)cc4)cccc3c2=O)cc1 (nonaromatic ring conformer: 349.63612567886435 kcal/mol)

>  <smiles>  (3) 
CCc1ccc(NC(=O)Cn2ccc3c(Oc4ccc(S(=O)(=O)NC(=O)C5CC5)cc4)cccc3c2=O)cc1

>  <score_type>  (3) 
oracle

>  <origin>  (3) 
adg

>  <m_score__min__energy>  (3) 
-12.789999999999999

>  <m_primary>  (3) 
energy

$$$$
3:0
     RDKit          3D

 51 53  0  0  0  0  0  0  0  0999 V2000
   59.1530   32.9810   45.3580 N   0  0  0  0  0  0  0  0  0  0  0  0
   57.7720   32.1120   45.9280 S   0  0  0  0  0  0  0  0  0  0  0  0
   56.6520   33.0810   46.1820 O   0  0  0  0  0  0  0  0  0  0  0  0
   58.1170   31.4110   47.2110 O   0  0  0  0  0  0  0  0  0  0  0  0
   57.2420   30.9190   44.7080 C   0  0  0  0  0  0  0  0  0  0  0  0
   57.4860   29.5080   45.1970 C   0  0  0  0  0  0  0  0  0  0  0  0
   58.7590   29.0960   45.6600 C   0  0  0  0  0  0  0  0  0  0  0  0
   60.2040   30.1720   45.6040 S   0  0  0  0  0  0  0  0  0  0  0  0
   60.8360   29.6950   47.2530 C   0  0  0  0  0  0  0  0  0  0  0  0
   61.3940   30.8830   47.9900 C   0  0  0  0  0  0  0  0  0  0  0  0
   60.7720   31.3510   49.1610 C   0  0  0  0  0  0  0  0  0  0  0  0
   61.2630   32.4860   49.8140 C   0  0  0  0  0  0  0  0  0  0  0  0
   62.3760   33.1600   49.3050 C   0  0  0  0  0  0  0  0  0  0  0  0
   62.9860   34.5890   50.1220 Cl  0  0  0  0  0  0  0  0  0  0  0  0
   63.0010   32.6980   48.1420 C   0  0  0  0  0  0  0  0  0  0  0  0
   62.5120   31.5660   47.4860 C   0  0  0  0  0  0  0  0  0  0  0  0
   58.9250   27.8110   46.1870 C   0  0  0  0  0  0  0  0  0  0  0  0
   57.8610   26.9130   46.2170 C   0  0  0  0  0  0  0  0  0  0  0  0
   56.6030   27.2860   45.7230 C   0  0  0  0  0  0  0  0  0  0  0  0
   55.4990   26.3650   45.7550 N   0  0  0  0  0  0  0  0  0  0  0  0
   55.5910   25.0300   46.2690 C   0  0  0  0  0  0  0  0  0  0  0  0
   56.7060   24.5460   46.6050 O   0  0  0  0  0  0  0  0  0  0  0  0
   54.4060   24.2320   46.3650 N   0  0  0  0  0  0  0  0  0  0  0  0
   53.9420   23.3430   45.3060 C   0  0  0  0  0  0  0  0  0  0  0  0
   55.1130   22.6930   44.6200 C   0  0  0  0  0  0  0  0  0  0  0  0
   55.5080   23.1260   43.3440 C   0  0  0  0  0  0  0  0  0  0  0  0
   56.6090   22.5410   42.7100 C   0  0  0  0  0  0  0  0  0  0  0  0
   57.3250   21.5230   43.3480 C   0  0  0  0  0  0  0  0  0  0  0  0
   56.9410   21.0900   44.6210 C   0  0  0  0  0  0  0  0  0  0  0  0
   55.8410   21.6730   45.2570 C   0  0  0  0  0  0  0  0  0  0  0  0
   56.4120   28.5920   45.2400 C   0  0  0  0  0  0  0  0  0  0  0  0
   55.1510   28.9740   44.7890 O   0  0  0  0  0  0  0  0  0  0  0  0
   59.9320   32.7950   46.0280 H   0  0  0  0  0  0  0  0  0  0  0  0
   56.1674   31.0533   44.5149 H   0  0  0  0  0  0  0  0  0  0  0  0
   57.8189   31.0776   43.7849 H   0  0  0  0  0  0  0  0  0  0  0  0
   60.0128   29.2630   47.8409 H   0  0  0  0  0  0  0  0  0  0  0  0
   61.6437   28.9609   47.1160 H   0  0  0  0  0  0  0  0  0  0  0  0
   59.8960   30.8224   49.5649 H   0  0  0  0  0  0  0  0  0  0  0  0
   60.7724   32.8485   50.7294 H   0  0  0  0  0  0  0  0  0  0  0  0
   63.8791   33.2271   47.7434 H   0  0  0  0  0  0  0  0  0  0  0  0
   63.0052   31.2081   46.5702 H   0  0  0  0  0  0  0  0  0  0  0  0
   59.9057   27.5068   46.5816 H   0  0  0  0  0  0  0  0  0  0  0  0
   58.0085   25.9046   46.6309 H   0  0  0  0  0  0  0  0  0  0  0  0
   54.6030   26.6420   45.2950 H   0  0  0  0  0  0  0  0  0  0  0  0
   53.2986   22.5644   45.7417 H   0  0  0  0  0  0  0  0  0  0  0  0
   53.3756   23.9302   44.5682 H   0  0  0  0  0  0  0  0  0  0  0  0
   54.9491   23.9288   42.8408 H   0  0  0  0  0  0  0  0  0  0  0  0
   56.9119   22.8818   41.7090 H   0  0  0  0  0  0  0  0  0  0  0  0
   58.1903   21.0629   42.8484 H   0  0  0  0  0  0  0  0  0  0  0  0
   57.5051   20.2898   45.1225 H   0  0  0  0  0  0  0  0  0  0  0  0
   55.5440   21.3322   46.2598 H   0  0  0  0  0  0  0  0  0  0  0  0
  1  2  1  0
  2  3  2  0
  2  4  2  0
  2  5  1  0
  5  6  1  0
  6  7  2  0
  7  8  1  0
  8  9  1  0
  9 10  1  0
 10 11  2  0
 11 12  1  0
 12 13  2  0
 13 14  1  0
 13 15  1  0
 15 16  2  0
  7 17  1  0
 17 18  2  0
 18 19  1  0
 19 20  1  0
 20 21  1  0
 21 22  2  0
 21 23  1  0
 23 24  1  0
 24 25  1  0
 25 26  2  0
 26 27  1  0
 27 28  2  0
 28 29  1  0
 29 30  2  0
 19 31  2  0
 31 32  1  0
 31  6  1  0
 16 10  1  0
 30 25  1  0
  1 33  1  0
  5 34  1  0
  5 35  1  0
  9 36  1  0
  9 37  1  0
 11 38  1  0
 12 39  1  0
 15 40  1  0
 16 41  1  0
 17 42  1  0
 18 43  1  0
 20 44  1  0
 24 45  1  0
 24 46  1  0
 26 47  1  0
 27 48  1  0
 28 49  1  0
 29 50  1  0
 30 51  1  0
M  CHG  3   1  -1  23  -1  32  -1
M  END
>  <UniqueID>  (4) 
4

>  <SMILES>  (4) 
[NH-]S(=O)(=O)Cc1c(SCc2ccc(Cl)cc2)ccc(NC(=O)[N-]Cc2ccccc2)c1[O-]

>  <Energy>  (4) 
45.356221289118515

>  <Genealogy>  (4) 
[NH-]S(=O)(=O)Cc1c(SCc2ccc(Cl)cc2)ccc(NC(=O)[N-]Cc2ccccc2)c1[O-] (protonated)
[NH-]S(=O)(=O)Cc1c(SCc2ccc(Cl)cc2)ccc(NC(=O)[N-]Cc2ccccc2)c1[O-] (3D coordinates assigned)
[NH-]S(=O)(=O)Cc1c(SCc2ccc(Cl)cc2)ccc(NC(=O)[N-]Cc2ccccc2)c1[O-] (optimized conformer: 45.356221289118515 kcal/mol)

>  <smiles>  (4) 
NS(=O)(=O)Cc1c(SCc2ccc(Cl)cc2)ccc(NC(=O)NCc2ccccc2)c1O

>  <score_type>  (4) 
oracle

>  <origin>  (4) 
adg

>  <m_score__min__energy>  (4) 
-16.460000000000001

>  <m_primary>  (4) 
energy

$$$$
4:0
     RDKit          3D

 23 24  0  0  0  0  0  0  0  0999 V2000
   53.3899   29.4776   54.7744 H   0  0  0  0  0  0  0  0  0  0  0  0
   53.4560   29.5130   53.6770 C   0  0  0  0  0  0  0  0  0  0  0  0
   52.3160   29.3520   52.9860 C   0  0  0  0  0  0  0  0  0  0  0  0
   51.6874   28.4866   53.2428 H   0  0  0  0  0  0  0  0  0  0  0  0
   51.8360   30.2450   51.9060 C   0  0  0  0  0  0  0  0  0  0  0  0
   51.8440   29.8410   50.5610 C   0  0  0  0  0  0  0  0  0  0  0  0
   52.1853   28.8299   50.2944 H   0  0  0  0  0  0  0  0  0  0  0  0
   51.4320   30.6940   49.5890 N   0  0  0  0  0  0  0  0  0  0  0  0
   51.0210   31.9520   49.8930 C   0  0  0  0  0  0  0  0  0  0  0  0
   50.6390   32.7260   48.9780 O   0  0  0  0  0  0  0  0  0  0  0  0
   51.0280   32.3770   51.1820 N   0  0  0  0  0  0  0  0  0  0  0  0
   51.4310   31.5600   52.1890 C   0  0  0  0  0  0  0  0  0  0  0  0
   51.4280   31.9900   53.3730 O   0  0  0  0  0  0  0  0  0  0  0  0
   54.7930   29.7340   53.0850 C   0  0  0  0  0  0  0  0  0  0  0  0
   55.0440   30.7990   52.2030 C   0  0  0  0  0  0  0  0  0  0  0  0
   54.2439   31.5120   51.9551 H   0  0  0  0  0  0  0  0  0  0  0  0
   56.3150   30.9470   51.6430 C   0  0  0  0  0  0  0  0  0  0  0  0
   56.5221   31.7885   50.9655 H   0  0  0  0  0  0  0  0  0  0  0  0
   57.2960   30.0530   51.9340 N   0  0  0  0  0  0  0  0  0  0  0  0
   57.0750   28.9980   52.7640 C   0  0  0  0  0  0  0  0  0  0  0  0
   57.8878   28.2883   52.9778 H   0  0  0  0  0  0  0  0  0  0  0  0
   55.8190   28.8140   53.3450 C   0  0  0  0  0  0  0  0  0  0  0  0
   55.6351   27.9520   54.0032 H   0  0  0  0  0  0  0  0  0  0  0  0
  1  2  1  0
  2  3  2  0
  3  4  1  0
  3  5  1  0
  5  6  2  0
  6  7  1  0
  6  8  1  0
  8  9  1  0
  9 10  2  0
  9 11  1  0
 11 12  1  0
 12 13  2  0
  2 14  1  0
 14 15  2  0
 15 16  1  0
 15 17  1  0
 17 18  1  0
 17 19  2  0
 19 20  1  0
 20 21  1  0
 20 22  2  0
 22 23  1  0
 12  5  1  0
 22 14  1  0
M  CHG  2   8  -1  11  -1
M  END
>  <UniqueID>  (5) 
5

>  <SMILES>  (5) 
O=c1[n-]cc(/C=C\c2ccncc2)c(=O)[n-]1

>  <Energy>  (5) 
36.5882301148308

>  <Genealogy>  (5) 
O=c1[n-]cc(C=Cc2ccncc2)c(=O)[n-]1 (protonated)
O=c1[n-]cc(/C=C\c2ccncc2)c(=O)[n-]1 (cis-trans isomerization)
O=c1[n-]cc(/C=C\c2ccncc2)c(=O)[n-]1 (3D coordinates assigned)
O=c1[n-]cc(/C=C\c2ccncc2)c(=O)[n-]1 (optimized conformer: 36.5882301148308 kcal/mol)

>  <smiles>  (5) 
O=c1[nH]cc(C=Cc2ccncc2)c(=O)[nH]1

>  <score_type>  (5) 
oracle

>  <origin>  (5) 
adg

>  <m_score__min__energy>  (5) 
-11.24

>  <m_primary>  (5) 
energy

$$$$
5:0
     RDKit          3D

 43 44  0  0  0  0  0  0  0  0999 V2000
   63.7660   31.9850   47.1180 N   0  0  0  0  0  0  0  0  0  0  0  0
   62.8340   33.4350   47.2510 S   0  0  0  0  0  0  0  0  0  0  0  0
   63.4950   34.5310   46.4630 O   0  0  0  0  0  0  0  0  0  0  0  0
   62.7640   33.8530   48.6930 O   0  0  0  0  0  0  0  0  0  0  0  0
   61.2110   33.1530   46.6290 C   0  0  0  0  0  0  0  0  0  0  0  0
   60.6130   31.8920   46.7550 C   0  0  0  0  0  0  0  0  0  0  0  0
   59.3250   31.6700   46.2570 C   0  0  0  0  0  0  0  0  0  0  0  0
   58.6260   32.7070   45.6190 C   0  0  0  0  0  0  0  0  0  0  0  0
   57.2210   32.4920   45.1270 C   0  0  0  0  0  0  0  0  0  0  0  0
   56.8530   31.0860   45.2450 N   0  0  0  0  0  0  0  0  0  0  0  0
   57.1780   30.0940   44.2640 C   0  0  0  0  0  0  0  0  0  0  0  0
   57.0520   30.3520   43.0360 O   0  0  0  0  0  0  0  0  0  0  0  0
   57.6720   28.7440   44.7170 C   0  0  1  0  0  0  0  0  0  0  0  0
   59.2070   28.6640   44.8220 C   0  0  0  0  0  0  0  0  0  0  0  0
   59.6360   28.1250   46.1540 C   0  0  0  0  0  0  0  0  0  0  0  0
   60.2890   26.9180   46.3680 C   0  0  0  0  0  0  0  0  0  0  0  0
   60.5110   26.6430   47.7230 C   0  0  0  0  0  0  0  0  0  0  0  0
   60.0230   27.6240   48.5780 C   0  0  0  0  0  0  0  0  0  0  0  0
   59.3160   28.8320   47.6450 S   0  0  0  0  0  0  0  0  0  0  0  0
   57.0090   28.2400   45.9360 N   0  0  0  0  0  0  0  0  0  0  0  0
   56.6920   26.5200   46.0270 S   0  0  0  0  0  0  0  0  0  0  0  0
   55.2010   26.3350   46.0040 O   0  0  0  0  0  0  0  0  0  0  0  0
   57.2080   25.9530   47.3170 O   0  0  0  0  0  0  0  0  0  0  0  0
   57.3630   25.5860   44.6610 C   0  0  0  0  0  0  0  0  0  0  0  0
   58.4820   24.8840   45.0640 F   0  0  0  0  0  0  0  0  0  0  0  0
   57.6920   26.4380   43.6260 F   0  0  0  0  0  0  0  0  0  0  0  0
   56.4130   24.6870   44.2150 F   0  0  0  0  0  0  0  0  0  0  0  0
   59.2300   33.9670   45.4890 C   0  0  0  0  0  0  0  0  0  0  0  0
   60.5170   34.1870   45.9880 C   0  0  0  0  0  0  0  0  0  0  0  0
   64.2660   31.8590   48.0260 H   0  0  0  0  0  0  0  0  0  0  0  0
   64.4980   32.1590   46.3940 H   0  0  0  0  0  0  0  0  0  0  0  0
   61.1586   31.0736   47.2475 H   0  0  0  0  0  0  0  0  0  0  0  0
   58.8583   30.6799   46.3656 H   0  0  0  0  0  0  0  0  0  0  0  0
   56.5290   33.0999   45.7283 H   0  0  0  0  0  0  0  0  0  0  0  0
   57.1627   32.7896   44.0696 H   0  0  0  0  0  0  0  0  0  0  0  0
   57.3731   28.0599   43.9091 H   0  0  0  0  0  0  0  0  0  0  0  0
   59.5862   28.0025   44.0291 H   0  0  0  0  0  0  0  0  0  0  0  0
   59.6154   29.6793   44.7111 H   0  0  0  0  0  0  0  0  0  0  0  0
   60.6004   26.2457   45.5549 H   0  0  0  0  0  0  0  0  0  0  0  0
   61.0232   25.7363   48.0772 H   0  0  0  0  0  0  0  0  0  0  0  0
   60.0879   27.6125   49.6760 H   0  0  0  0  0  0  0  0  0  0  0  0
   58.6882   34.7852   44.9921 H   0  0  0  0  0  0  0  0  0  0  0  0
   60.9864   35.1756   45.8769 H   0  0  0  0  0  0  0  0  0  0  0  0
  1  2  1  0
  2  3  2  0
  2  4  2  0
  2  5  1  0
  5  6  2  0
  6  7  1  0
  7  8  2  0
  8  9  1  0
  9 10  1  0
 10 11  1  0
 11 12  2  0
 11 13  1  0
 13 14  1  0
 14 15  1  0
 15 16  2  0
 16 17  1  0
 17 18  2  0
 18 19  1  0
 13 20  1  0
 20 21  1  0
 21 22  2  0
 21 23  2  0
 21 24  1  0
 24 25  1  0
 24 26  1  0
 24 27  1  0
  8 28  1  0
 28 29  2  0
 29  5  1  0
 19 15  1  0
  1 30  1  0
  1 31  1  0
  6 32  1  0
  7 33  1  0
  9 34  1  0
  9 35  1  0
 13 36  1  6
 14 37  1  0
 14 38  1  0
 16 39  1  0
 17 40  1  0
 18 41  1  0
 28 42  1  0
 29 43  1  0
M  CHG  2  10  -1  20  -1
M  END
>  <UniqueID>  (6) 
6

>  <SMILES>  (6) 
NS(=O)(=O)c1ccc(C[N-]C(=O)[C@@H](Cc2cccs2)[N-]S(=O)(=O)C(F)(F)F)cc1

>  <Energy>  (6) 
63.83944479067072

>  <Genealogy>  (6) 
NS(=O)(=O)c1ccc(C[N-]C(=O)C(Cc2cccs2)[N-]S(=O)(=O)C(F)(F)F)cc1 (protonated)
NS(=O)(=O)c1ccc(C[N-]C(=O)[C@@H](Cc2cccs2)[N-]S(=O)(=O)C(F)(F)F)cc1 (chirality)
NS(=O)(=O)c1ccc(C[N-]C(=O)[C@@H](Cc2cccs2)[N-]S(=O)(=O)C(F)(F)F)cc1 (3D coordinates assigned)
NS(=O)(=O)c1ccc(C[N-]C(=O)[C@@H](Cc2cccs2)[N-]S(=O)(=O)C(F)(F)F)cc1 (optimized conformer: 63.83944479067072 kcal/mol)

>  <smiles>  (6) 
NS(=O)(=O)c1ccc(CNC(=O)C(Cc2cccs2)NS(=O)(=O)C(F)(F)F)cc1

>  <score_type>  (6) 
oracle

>  <origin>  (6) 
adg

>  <m_score__min__energy>  (6) 
-11.609999999999999

>  <m_primary>  (6) 
energy

$$$$
6:0
     RDKit          3D

 39 41  0  0  0  0  0  0  0  0999 V2000
   56.6910   22.6350   43.9790 C   0  0  0  0  0  0  0  0  0  0  0  0
   56.8740   23.8970   44.7690 C   0  0  0  0  0  0  0  0  0  0  0  0
   58.1360   24.2370   45.2760 C   0  0  0  0  0  0  0  0  0  0  0  0
   58.2990   25.3910   46.0440 C   0  0  0  0  0  0  0  0  0  0  0  0
   57.2000   26.2040   46.3450 C   0  0  0  0  0  0  0  0  0  0  0  0
   57.4060   27.3790   47.1400 N   0  0  0  0  0  0  0  0  0  0  0  0
   58.6690   28.0030   47.4060 C   0  0  0  0  0  0  0  0  0  0  0  0
   59.1740   27.8870   48.5540 O   0  0  0  0  0  0  0  0  0  0  0  0
   59.3860   28.8310   46.3720 C   0  0  0  0  0  0  0  0  0  0  0  0
   58.4500   29.7770   45.7220 N   0  0  0  0  0  0  0  0  0  0  0  0
   57.6700   29.3340   44.6780 C   0  0  0  0  0  0  0  0  0  0  0  0
   57.7720   28.1470   44.2550 O   0  0  0  0  0  0  0  0  0  0  0  0
   56.7490   30.1980   44.0630 C   0  0  0  0  0  0  0  0  0  0  0  0
   55.8900   29.7440   42.9210 C   0  0  0  0  0  0  0  0  0  0  0  0
   56.6610   31.4820   44.4820 N   0  0  0  0  0  0  0  0  0  0  0  0
   57.4360   31.9570   45.4850 C   0  0  0  0  0  0  0  0  0  0  0  0
   57.3160   33.2970   45.8720 C   0  0  0  0  0  0  0  0  0  0  0  0
   58.1210   33.8070   46.8900 C   0  0  0  0  0  0  0  0  0  0  0  0
   59.0550   32.9850   47.5200 C   0  0  0  0  0  0  0  0  0  0  0  0
   59.1820   31.6440   47.1450 C   0  0  0  0  0  0  0  0  0  0  0  0
   58.3660   31.0990   46.1230 C   0  0  0  0  0  0  0  0  0  0  0  0
   55.9350   25.8780   45.8210 C   0  0  0  0  0  0  0  0  0  0  0  0
   54.8410   26.7090   46.0360 O   0  0  0  0  0  0  0  0  0  0  0  0
   55.7720   24.7190   45.0540 C   0  0  0  0  0  0  0  0  0  0  0  0
   56.5679   21.7860   44.6675 H   0  0  0  0  0  0  0  0  0  0  0  0
   55.7966   22.7257   43.3451 H   0  0  0  0  0  0  0  0  0  0  0  0
   57.5743   22.4679   43.3451 H   0  0  0  0  0  0  0  0  0  0  0  0
   59.0018   23.5913   45.0676 H   0  0  0  0  0  0  0  0  0  0  0  0
   59.2980   25.6635   46.4153 H   0  0  0  0  0  0  0  0  0  0  0  0
   60.1931   29.3980   46.8589 H   0  0  0  0  0  0  0  0  0  0  0  0
   59.8015   28.1600   45.6058 H   0  0  0  0  0  0  0  0  0  0  0  0
   54.9816   29.2639   43.3138 H   0  0  0  0  0  0  0  0  0  0  0  0
   55.6094   30.6116   42.3057 H   0  0  0  0  0  0  0  0  0  0  0  0
   56.4488   29.0235   42.3057 H   0  0  0  0  0  0  0  0  0  0  0  0
   56.5849   33.9492   45.3718 H   0  0  0  0  0  0  0  0  0  0  0  0
   58.0192   34.8586   47.1964 H   0  0  0  0  0  0  0  0  0  0  0  0
   59.6950   33.3937   48.3159 H   0  0  0  0  0  0  0  0  0  0  0  0
   59.9229   31.0057   47.6486 H   0  0  0  0  0  0  0  0  0  0  0  0
   54.7758   24.4507   44.6725 H   0  0  0  0  0  0  0  0  0  0  0  0
  1  2  1  0
  2  3  2  0
  3  4  1  0
  4  5  2  0
  5  6  1  0
  6  7  1  0
  7  8  2  0
  7  9  1  0
  9 10  1  0
 10 11  1  0
 11 12  2  0
 11 13  1  0
 13 14  1  0
 13 15  2  0
 15 16  1  0
 16 17  2  0
 17 18  1  0
 18 19  2  0
 19 20  1  0
 20 21  2  0
  5 22  1  0
 22 23  1  0
 22 24  2  0
 24  2  1  0
 21 10  1  0
 21 16  1  0
  1 25  1  0
  1 26  1  0
  1 27  1  0
  3 28  1  0
  4 29  1  0
  9 30  1  0
  9 31  1  0
 14 32  1  0
 14 33  1  0
 14 34  1  0
 17 35  1  0
 18 36  1  0
 19 37  1  0
 20 38  1  0
 24 39  1  0
M  CHG  2   6  -1  23  -1
M  END
>  <UniqueID>  (7) 
7

>  <SMILES>  (7) 
Cc1ccc([N-]C(=O)Cn2c(=O)c(C)nc3ccccc32)c([O-])c1

>  <Energy>  (7) 
56.038331221102204

>  <Genealogy>  (7) 
Cc1ccc([N-]C(=O)Cn2c(=O)c(C)nc3ccccc32)c([O-])c1 (protonated)
Cc1ccc([N-]C(=O)Cn2c(=O)c(C)nc3ccccc32)c([O-])c1 (3D coordinates assigned)
Cc1ccc([N-]C(=O)Cn2c(=O)c(C)nc3ccccc32)c([O-])c1 (optimized conformer: 56.038331221102204 kcal/mol)

>  <smiles>  (7) 
Cc1ccc(NC(=O)Cn2c(=O)c(C)nc3ccccc32)c(O)c1

>  <score_type>  (7) 
oracle

>  <origin>  (7) 
adg

>  <m_score__min__energy>  (7) 
-14.039999999999999

>  <m_primary>  (7) 
energy

$$$$
7:0
     RDKit          3D

 37 38  0  0  0  0  0  0  0  0999 V2000
   55.4310   28.6690   45.6220 H   0  0  0  0  0  0  0  0  0  0  0  0
   55.1320   29.3490   44.8890 N   0  0  0  0  0  0  0  0  0  0  0  0
   56.5650   30.0970   44.2800 S   0  0  0  0  0  0  0  0  0  0  0  0
   56.6950   29.8060   42.8110 O   0  0  0  0  0  0  0  0  0  0  0  0
   56.4750   31.5860   44.4690 O   0  0  0  0  0  0  0  0  0  0  0  0
   57.9670   29.4700   45.1410 C   0  0  0  0  0  0  0  0  0  0  0  0
   58.7120   28.4130   44.6010 C   0  0  0  0  0  0  0  0  0  0  0  0
   58.4323   27.9848   43.6272 H   0  0  0  0  0  0  0  0  0  0  0  0
   59.8090   27.9030   45.2980 C   0  0  0  0  0  0  0  0  0  0  0  0
   60.3889   27.0701   44.8737 H   0  0  0  0  0  0  0  0  0  0  0  0
   60.1730   28.4470   46.5330 C   0  0  0  0  0  0  0  0  0  0  0  0
   61.0326   28.0350   47.0819 H   0  0  0  0  0  0  0  0  0  0  0  0
   59.4430   29.5200   47.0760 C   0  0  0  0  0  0  0  0  0  0  0  0
   59.7640   30.0910   48.3530 N   0  0  0  0  0  0  0  0  0  0  0  0
   58.8340   30.5450   49.3440 C   0  0  0  0  0  0  0  0  0  0  0  0
   58.2740   29.7240   50.1190 O   0  0  0  0  0  0  0  0  0  0  0  0
   58.5460   31.9910   49.4320 C   0  0  0  0  0  0  0  0  0  0  0  0
   57.7036   32.2968   50.0698 H   0  0  0  0  0  0  0  0  0  0  0  0
   59.2220   32.9650   48.8020 C   0  0  0  0  0  0  0  0  0  0  0  0
   60.0608   33.4292   49.3414 H   0  0  0  0  0  0  0  0  0  0  0  0
   58.9290   33.4640   47.4400 C   0  0  0  0  0  0  0  0  0  0  0  0
   57.6110   33.4600   46.9520 C   0  0  0  0  0  0  0  0  0  0  0  0
   56.7999   33.0494   47.5713 H   0  0  0  0  0  0  0  0  0  0  0  0
   57.3250   33.9740   45.6860 C   0  0  0  0  0  0  0  0  0  0  0  0
   56.2935   33.9530   45.3044 H   0  0  0  0  0  0  0  0  0  0  0  0
   58.3460   34.5140   44.9050 C   0  0  0  0  0  0  0  0  0  0  0  0
   58.1195   34.9134   43.9054 H   0  0  0  0  0  0  0  0  0  0  0  0
   59.6560   34.5490   45.3890 C   0  0  0  0  0  0  0  0  0  0  0  0
   60.4559   34.9820   44.7704 H   0  0  0  0  0  0  0  0  0  0  0  0
   59.9590   34.0330   46.6650 C   0  0  0  0  0  0  0  0  0  0  0  0
   61.2640   34.0600   47.1850 O   0  0  0  0  0  0  0  0  0  0  0  0
   62.1430   32.9420   47.2200 C   0  0  0  0  0  0  0  0  0  0  0  0
   62.3538   32.6739   48.2658 H   0  0  0  0  0  0  0  0  0  0  0  0
   61.6714   32.0887   46.7106 H   0  0  0  0  0  0  0  0  0  0  0  0
   63.0835   33.1989   46.7106 H   0  0  0  0  0  0  0  0  0  0  0  0
   58.3280   30.0100   46.3830 C   0  0  0  0  0  0  0  0  0  0  0  0
   57.7310   30.8254   46.8174 H   0  0  0  0  0  0  0  0  0  0  0  0
  1  2  1  0
  2  3  1  0
  3  4  2  0
  3  5  2  0
  3  6  1  0
  6  7  2  0
  7  8  1  0
  7  9  1  0
  9 10  1  0
  9 11  2  0
 11 12  1  0
 11 13  1  0
 13 14  1  0
 14 15  1  0
 15 16  2  0
 15 17  1  0
 17 18  1  0
 17 19  2  0
 19 20  1  0
 19 21  1  0
 21 22  2  0
 22 23  1  0
 22 24  1  0
 24 25  1  0
 24 26  2  0
 26 27  1  0
 26 28  1  0
 28 29  1  0
 28 30  2  0
 30 31  1  0
 31 32  1  0
 32 33  1  0
 32 34  1  0
 32 35  1  0
 13 36  2  0
 36 37  1  0
 36  6  1  0
 30 21  1  0
M  CHG  2   2  -1  14  -1
M  END
>  <UniqueID>  (8) 
8

>  <SMILES>  (8) 
COc1ccccc1/C=C\C(=O)[N-]c1cccc(S([NH-])(=O)=O)c1

>  <Energy>  (8) 
48.182275560808

>  <Genealogy>  (8) 
COc1ccccc1C=CC(=O)[N-]c1cccc(S([NH-])(=O)=O)c1 (protonated)
COc1ccccc1/C=C\C(=O)[N-]c1cccc(S([NH-])(=O)=O)c1 (cis-trans isomerization)
COc1ccccc1/C=C\C(=O)[N-]c1cccc(S([NH-])(=O)=O)c1 (3D coordinates assigned)
COc1ccccc1/C=C\C(=O)[N-]c1cccc(S([NH-])(=O)=O)c1 (optimized conformer: 48.182275560808 kcal/mol)

>  <smiles>  (8) 
COc1ccccc1C=CC(=O)Nc1cccc(S(N)(=O)=O)c1

>  <score_type>  (8) 
oracle

>  <origin>  (8) 
adg

>  <m_score__min__energy>  (8) 
-12.24

>  <m_primary>  (8) 
energy

$$$$
8:0
     RDKit          3D

 52 54  0  0  0  0  0  0  0  0999 V2000
   55.5190   28.8850   53.5180 C   0  0  0  0  0  0  0  0  0  0  0  0
   55.3400   29.9570   52.5290 N   0  0  0  0  0  0  0  0  0  0  0  0
   54.0000   30.2370   51.9970 C   0  0  0  0  0  0  0  0  0  0  0  0
   56.4680   30.7200   52.0370 C   0  0  0  0  0  0  0  0  0  0  0  0
   56.6450   32.0750   52.3730 C   0  0  0  0  0  0  0  0  0  0  0  0
   57.7770   32.7540   51.9240 C   0  0  0  0  0  0  0  0  0  0  0  0
   58.7350   32.0950   51.1420 C   0  0  0  0  0  0  0  0  0  0  0  0
   60.0090   32.7910   50.7790 C   0  0  0  0  0  0  0  0  0  0  0  0
   59.6830   33.9060   49.8990 N   0  0  0  0  0  0  0  0  0  0  0  0
   60.0900   34.0160   48.5320 C   0  0  0  0  0  0  0  0  0  0  0  0
   61.1740   34.5990   48.2470 O   0  0  0  0  0  0  0  0  0  0  0  0
   59.2700   33.3940   47.4710 C   0  0  0  0  0  0  0  0  0  0  0  0
   58.7350   34.1860   46.4400 C   0  0  0  0  0  0  0  0  0  0  0  0
   57.8500   33.6370   45.5080 C   0  0  0  0  0  0  0  0  0  0  0  0
   57.5170   32.2770   45.5540 C   0  0  0  0  0  0  0  0  0  0  0  0
   56.6060   31.6790   44.6160 N   0  0  0  0  0  0  0  0  0  0  0  0
   56.5520   29.9880   44.2360 S   0  0  0  0  0  0  0  0  0  0  0  0
   55.9560   29.8060   42.8640 O   0  0  0  0  0  0  0  0  0  0  0  0
   55.6710   29.2960   45.2400 O   0  0  0  0  0  0  0  0  0  0  0  0
   58.1950   29.2880   44.3230 C   0  0  0  0  0  0  0  0  0  0  0  0
   58.2850   28.2390   45.3950 C   0  0  0  0  0  0  0  0  0  0  0  0
   57.5160   27.0620   45.3150 C   0  0  0  0  0  0  0  0  0  0  0  0
   57.5960   26.0990   46.3250 C   0  0  0  0  0  0  0  0  0  0  0  0
   58.4610   26.2900   47.4120 C   0  0  0  0  0  0  0  0  0  0  0  0
   59.2330   27.4560   47.4990 C   0  0  0  0  0  0  0  0  0  0  0  0
   59.1420   28.4300   46.4970 C   0  0  0  0  0  0  0  0  0  0  0  0
   58.1090   31.4640   46.5330 C   0  0  0  0  0  0  0  0  0  0  0  0
   58.9710   32.0200   47.4890 C   0  0  0  0  0  0  0  0  0  0  0  0
   58.5180   30.7530   50.8070 C   0  0  0  0  0  0  0  0  0  0  0  0
   57.4030   30.1120   51.2520 N   0  0  0  0  0  0  0  0  0  0  0  0
   55.4487   29.3060   54.5318 H   0  0  0  0  0  0  0  0  0  0  0  0
   54.7353   28.1254   53.3813 H   0  0  0  0  0  0  0  0  0  0  0  0
   56.5070   28.4212   53.3813 H   0  0  0  0  0  0  0  0  0  0  0  0
   53.2977   30.3837   52.8308 H   0  0  0  0  0  0  0  0  0  0  0  0
   54.0330   31.1476   51.3809 H   0  0  0  0  0  0  0  0  0  0  0  0
   53.6656   29.3893   51.3809 H   0  0  0  0  0  0  0  0  0  0  0  0
   55.8947   32.5955   52.9863 H   0  0  0  0  0  0  0  0  0  0  0  0
   57.9189   33.8131   52.1851 H   0  0  0  0  0  0  0  0  0  0  0  0
   60.5009   33.1659   51.6886 H   0  0  0  0  0  0  0  0  0  0  0  0
   60.6923   32.0937   50.2722 H   0  0  0  0  0  0  0  0  0  0  0  0
   59.0154   35.2471   46.3662 H   0  0  0  0  0  0  0  0  0  0  0  0
   57.4105   34.2792   44.7305 H   0  0  0  0  0  0  0  0  0  0  0  0
   58.4419   28.8314   43.3532 H   0  0  0  0  0  0  0  0  0  0  0  0
   58.9035   30.0938   44.5652 H   0  0  0  0  0  0  0  0  0  0  0  0
   56.8500   26.8999   44.4547 H   0  0  0  0  0  0  0  0  0  0  0  0
   56.9794   25.1899   46.2670 H   0  0  0  0  0  0  0  0  0  0  0  0
   58.5336   25.5234   48.1975 H   0  0  0  0  0  0  0  0  0  0  0  0
   59.9096   27.6061   48.3532 H   0  0  0  0  0  0  0  0  0  0  0  0
   59.7425   29.3487   46.5706 H   0  0  0  0  0  0  0  0  0  0  0  0
   57.8956   30.3850   46.5504 H   0  0  0  0  0  0  0  0  0  0  0  0
   59.4176   31.3753   48.2603 H   0  0  0  0  0  0  0  0  0  0  0  0
   59.2489   30.2166   50.1840 H   0  0  0  0  0  0  0  0  0  0  0  0
  1  2  1  0
  2  3  1  0
  2  4  1  0
  4  5  2  0
  5  6  1  0
  6  7  2  0
  7  8  1  0
  8  9  1  0
  9 10  1  0
 10 11  2  0
 10 12  1  0
 12 13  2  0
 13 14  1  0
 14 15  2  0
 15 16  1  0
 16 17  1  0
 17 18  2  0
 17 19  2  0
 17 20  1  0
 20 21  1  0
 21 22  2  0
 22 23  1  0
 23 24  2  0
 24 25  1  0
 25 26  2  0
 15 27  1  0
 27 28  2  0
  7 29  1  0
 29 30  2  0
 30  4  1  0
 28 12  1  0
 26 21  1  0
  1 31  1  0
  1 32  1  0
  1 33  1  0
  3 34  1  0
  3 35  1  0
  3 36  1  0
  5 37  1  0
  6 38  1  0
  8 39  1  0
  8 40  1  0
 13 41  1  0
 14 42  1  0
 20 43  1  0
 20 44  1  0
 22 45  1  0
 23 46  1  0
 24 47  1  0
 25 48  1  0
 26 49  1  0
 27 50  1  0
 28 51  1  0
 29 52  1  0
M  CHG  2   9  -1  16  -1
M  END
>  <UniqueID>  (9) 
9

>  <SMILES>  (9) 
CN(C)c1ccc(C[N-]C(=O)c2ccc([N-]S(=O)(=O)Cc3ccccc3)cc2)cn1

>  <Energy>  (9) 
54.25210268635985

>  <Genealogy>  (9) 
CN(C)c1ccc(C[N-]C(=O)c2ccc([N-]S(=O)(=O)Cc3ccccc3)cc2)cn1 (protonated)
CN(C)c1ccc(C[N-]C(=O)c2ccc([N-]S(=O)(=O)Cc3ccccc3)cc2)cn1 (3D coordinates assigned)
CN(C)c1ccc(C[N-]C(=O)c2ccc([N-]S(=O)(=O)Cc3ccccc3)cc2)cn1 (optimized conformer: 54.25210268635985 kcal/mol)

>  <smiles>  (9) 
CN(C)c1ccc(CNC(=O)c2ccc(NS(=O)(=O)Cc3ccccc3)cc2)cn1

>  <score_type>  (9) 
oracle

>  <origin>  (9) 
adg

>  <m_score__min__energy>  (9) 
-12.140000000000001

>  <m_primary>  (9) 
energy

$$$$
9:0
     RDKit          3D

 45 48  0  0  0  0  0  0  0  0999 V2000
   64.7720   33.0810   49.1120 C   0  0  0  0  0  0  0  0  0  0  0  0
   63.4310   33.2130   48.3580 C   0  0  0  0  0  0  0  0  0  0  0  0
   63.7440   33.7600   46.9450 C   0  0  0  0  0  0  0  0  0  0  0  0
   62.7960   31.7900   48.2330 C   0  0  0  0  0  0  0  0  0  0  0  0
   61.3500   31.8200   47.7850 C   0  0  0  0  0  0  0  0  0  0  0  0
   60.8630   30.8200   47.2790 O   0  0  0  0  0  0  0  0  0  0  0  0
   60.5280   33.0780   47.9850 C   0  0  2  0  0  0  0  0  0  0  0  0
   61.0690   33.7470   49.2250 C   0  0  0  0  0  0  0  0  0  0  0  0
   60.5030   33.7730   50.4030 N   0  0  0  0  0  0  0  0  0  0  0  0
   59.2830   33.2460   50.9650 C   0  0  0  0  0  0  0  0  0  0  0  0
   58.9870   33.6370   52.2800 C   0  0  0  0  0  0  0  0  0  0  0  0
   57.9150   33.0730   52.9740 C   0  0  0  0  0  0  0  0  0  0  0  0
   57.1310   32.0930   52.3690 C   0  0  0  0  0  0  0  0  0  0  0  0
   57.4080   31.6900   51.0640 C   0  0  0  0  0  0  0  0  0  0  0  0
   58.4680   32.2670   50.3460 C   0  0  0  0  0  0  0  0  0  0  0  0
   58.6540   31.8800   48.9870 N   0  0  0  0  0  0  0  0  0  0  0  0
   59.0020   32.8770   47.9850 C   0  0  2  0  0  0  0  0  0  0  0  0
   58.3590   32.5290   46.6430 C   0  0  0  0  0  0  0  0  0  0  0  0
   58.0300   33.4800   45.6540 C   0  0  0  0  0  0  0  0  0  0  0  0
   57.4190   33.0790   44.4650 C   0  0  0  0  0  0  0  0  0  0  0  0
   57.1240   31.7300   44.2670 C   0  0  0  0  0  0  0  0  0  0  0  0
   57.4250   30.8220   45.2290 N   0  0  0  0  0  0  0  0  0  0  0  0
   58.0210   31.1850   46.3950 C   0  0  0  0  0  0  0  0  0  0  0  0
   62.4990   34.2200   49.1330 C   0  0  0  0  0  0  0  0  0  0  0  0
   64.5865   33.0993   50.1961 H   0  0  0  0  0  0  0  0  0  0  0  0
   65.2545   32.1310   48.8385 H   0  0  0  0  0  0  0  0  0  0  0  0
   65.4304   33.9187   48.8385 H   0  0  0  0  0  0  0  0  0  0  0  0
   64.2886   34.7117   47.0326 H   0  0  0  0  0  0  0  0  0  0  0  0
   64.3625   33.0325   46.3989 H   0  0  0  0  0  0  0  0  0  0  0  0
   62.8034   33.9247   46.3989 H   0  0  0  0  0  0  0  0  0  0  0  0
   63.3772   31.2108   47.5003 H   0  0  0  0  0  0  0  0  0  0  0  0
   62.8192   31.3324   49.2330 H   0  0  0  0  0  0  0  0  0  0  0  0
   60.6432   33.7343   47.1098 H   0  0  0  0  0  0  0  0  0  0  0  0
   59.6092   34.3995   52.7713 H   0  0  0  0  0  0  0  0  0  0  0  0
   57.6892   33.4025   53.9989 H   0  0  0  0  0  0  0  0  0  0  0  0
   56.2949   31.6382   52.9204 H   0  0  0  0  0  0  0  0  0  0  0  0
   56.7901   30.9121   50.5916 H   0  0  0  0  0  0  0  0  0  0  0  0
   58.3380   30.9300   48.6830 H   0  0  0  0  0  0  0  0  0  0  0  0
   58.5829   33.8653   48.2249 H   0  0  0  0  0  0  0  0  0  0  0  0
   58.2563   34.5434   45.8210 H   0  0  0  0  0  0  0  0  0  0  0  0
   57.1722   33.8203   43.6907 H   0  0  0  0  0  0  0  0  0  0  0  0
   56.6475   31.4026   43.3312 H   0  0  0  0  0  0  0  0  0  0  0  0
   58.2419   30.4199   47.1539 H   0  0  0  0  0  0  0  0  0  0  0  0
   62.5155   35.1872   48.6092 H   0  0  0  0  0  0  0  0  0  0  0  0
   62.8853   34.3029   50.1596 H   0  0  0  0  0  0  0  0  0  0  0  0
  1  2  1  0
  2  3  1  0
  2  4  1  0
  4  5  1  0
  5  6  2  0
  5  7  1  0
  7  8  1  0
  8  9  2  0
  9 10  1  0
 10 11  2  0
 11 12  1  0
 12 13  2  0
 13 14  1  0
 14 15  2  0
 15 16  1  0
 16 17  1  0
 17 18  1  0
 18 19  2  0
 19 20  1  0
 20 21  2  0
 21 22  1  0
 22 23  2  0
  8 24  1  0
 24  2  1  0
 17  7  1  0
 23 18  1  0
 15 10  1  0
  1 25  1  0
  1 26  1  0
  1 27  1  0
  3 28  1  0
  3 29  1  0
  3 30  1  0
  4 31  1  0
  4 32  1  0
  7 33  1  6
 11 34  1  0
 12 35  1  0
 13 36  1  0
 14 37  1  0
 16 38  1  0
 17 39  1  1
 19 40  1  0
 20 41  1  0
 21 42  1  0
 23 43  1  0
 24 44  1  0
 24 45  1  0
M  END
>  <UniqueID>  (10) 
10

>  <SMILES>  (10) 
CC1(C)CC(=O)[C@@H]2C(=Nc3ccccc3N[C@@H]2c2cccnc2)C1

>  <Energy>  (10) 
77.63414635483174

>  <Genealogy>  (10) 
CC1(C)CC(=O)[C@@H]2C(=Nc3ccccc3N[C@@H]2c2cccnc2)C1 (chirality)
CC1(C)CC(=O)[C@@H]2C(=Nc3ccccc3N[C@@H]2c2cccnc2)C1 (3D coordinates assigned)
CC1(C)CC(=O)[C@@H]2C(=Nc3ccccc3N[C@@H]2c2cccnc2)C1 (nonaromatic ring conformer: 77.63414635483174 kcal/mol)

>  <smiles>  (10) 
CC1(C)CC(=O)C2C(=Nc3ccccc3NC2c2cccnc2)C1

>  <score_type>  (10) 
oracle

>  <origin>  (10) 
adg

>  <m_score__min__energy>  (10) 
-6.9800000000000004

>  <m_primary>  (10) 
energy

$$$$
10:0
     RDKit          3D

 53 55  0  0  0  0  0  0  0  0999 V2000
   63.6540   32.0380   47.4950 C   0  0  0  0  0  0  0  0  0  0  0  0
   63.0380   33.4390   47.5850 C   0  0  0  0  0  0  0  0  0  0  0  0
   61.5540   33.4060   47.5190 N   0  0  2  0  0  0  0  0  0  0  0  0
   61.0880   34.2130   46.3620 C   0  0  0  0  0  0  0  0  0  0  0  0
   59.6700   33.8620   45.9670 C   0  0  0  0  0  0  0  0  0  0  0  0
   59.1150   32.6340   46.3680 C   0  0  0  0  0  0  0  0  0  0  0  0
   57.8060   32.3000   46.0040 C   0  0  0  0  0  0  0  0  0  0  0  0
   57.0320   33.1990   45.2650 C   0  0  0  0  0  0  0  0  0  0  0  0
   57.5730   34.4250   44.8690 C   0  0  0  0  0  0  0  0  0  0  0  0
   58.8900   34.7540   45.2100 C   0  0  0  0  0  0  0  0  0  0  0  0
   60.9440   33.8910   48.7960 C   0  0  0  0  0  0  0  0  0  0  0  0
   60.0770   32.8400   49.4260 C   0  0  0  0  0  0  0  0  0  0  0  0
   59.2520   33.0220   50.5200 C   0  0  0  0  0  0  0  0  0  0  0  0
   58.6710   31.7970   50.7590 C   0  0  0  0  0  0  0  0  0  0  0  0
   59.1880   30.9440   49.8000 C   0  0  0  0  0  0  0  0  0  0  0  0
   58.8510   29.4930   49.6540 C   0  0  0  0  0  0  0  0  0  0  0  0
   59.6960   28.8660   48.6370 N   0  0  0  0  0  0  0  0  0  0  0  0
   59.4440   28.9220   47.2190 C   0  0  0  0  0  0  0  0  0  0  0  0
   60.4870   28.8820   46.2720 C   0  0  0  0  0  0  0  0  0  0  0  0
   60.2060   28.9860   44.9060 C   0  0  0  0  0  0  0  0  0  0  0  0
   58.8870   29.1220   44.4680 C   0  0  0  0  0  0  0  0  0  0  0  0
   57.8410   29.1410   45.3970 C   0  0  0  0  0  0  0  0  0  0  0  0
   56.1470   29.3230   44.8360 S   0  0  0  0  0  0  0  0  0  0  0  0
   56.6140   30.2050   43.3170 C   0  0  0  0  0  0  0  0  0  0  0  0
   58.1190   29.0350   46.7650 C   0  0  0  0  0  0  0  0  0  0  0  0
   60.0190   31.5930   49.0170 O   0  0  0  0  0  0  0  0  0  0  0  0
   63.8258   31.6472   48.5088 H   0  0  0  0  0  0  0  0  0  0  0  0
   62.9669   31.3693   46.9558 H   0  0  0  0  0  0  0  0  0  0  0  0
   64.6113   32.0923   46.9558 H   0  0  0  0  0  0  0  0  0  0  0  0
   63.3399   33.8980   48.5380 H   0  0  0  0  0  0  0  0  0  0  0  0
   63.4009   34.0228   46.7262 H   0  0  0  0  0  0  0  0  0  0  0  0
   61.2810   32.4100   47.3310 H   0  0  0  0  0  0  0  0  0  0  0  0
   61.1292   35.2787   46.6315 H   0  0  0  0  0  0  0  0  0  0  0  0
   61.7449   33.9959   45.5068 H   0  0  0  0  0  0  0  0  0  0  0  0
   59.7121   31.9333   46.9701 H   0  0  0  0  0  0  0  0  0  0  0  0
   57.3851   31.3278   46.3001 H   0  0  0  0  0  0  0  0  0  0  0  0
   55.9972   32.9415   44.9952 H   0  0  0  0  0  0  0  0  0  0  0  0
   56.9629   35.1326   44.2884 H   0  0  0  0  0  0  0  0  0  0  0  0
   59.3166   35.7143   44.8845 H   0  0  0  0  0  0  0  0  0  0  0  0
   61.7482   34.1583   49.4973 H   0  0  0  0  0  0  0  0  0  0  0  0
   60.3162   34.7650   48.5682 H   0  0  0  0  0  0  0  0  0  0  0  0
   59.0926   33.9533   51.0833 H   0  0  0  0  0  0  0  0  0  0  0  0
   57.9464   31.5481   51.5483 H   0  0  0  0  0  0  0  0  0  0  0  0
   59.0095   28.9867   50.6176 H   0  0  0  0  0  0  0  0  0  0  0  0
   57.7992   29.4034   49.3445 H   0  0  0  0  0  0  0  0  0  0  0  0
   60.5500   28.3620   48.9730 H   0  0  0  0  0  0  0  0  0  0  0  0
   61.5279   28.7683   46.6092 H   0  0  0  0  0  0  0  0  0  0  0  0
   61.0268   28.9606   44.1741 H   0  0  0  0  0  0  0  0  0  0  0  0
   58.6706   29.2141   43.3934 H   0  0  0  0  0  0  0  0  0  0  0  0
   57.1138   31.1489   43.5800 H   0  0  0  0  0  0  0  0  0  0  0  0
   57.2992   29.5797   42.7258 H   0  0  0  0  0  0  0  0  0  0  0  0
   55.7117   30.4202   42.7258 H   0  0  0  0  0  0  0  0  0  0  0  0
   57.2927   29.0402   47.4911 H   0  0  0  0  0  0  0  0  0  0  0  0
  1  2  1  0
  2  3  1  0
  3  4  1  0
  4  5  1  0
  5  6  2  0
  6  7  1  0
  7  8  2  0
  8  9  1  0
  9 10  2  0
  3 11  1  0
 11 12  1  0
 12 13  2  0
 13 14  1  0
 14 15  2  0
 15 16  1  0
 16 17  1  0
 17 18  1  0
 18 19  2  0
 19 20  1  0
 20 21  2  0
 21 22  1  0
 22 23  1  0
 23 24  1  0
 22 25  2  0
 15 26  1  0
 10  5  1  0
 26 12  1  0
 25 18  1  0
  1 27  1  0
  1 28  1  0
  1 29  1  0
  2 30  1  0
  2 31  1  0
  3 32  1  6
  4 33  1  0
  4 34  1  0
  6 35  1  0
  7 36  1  0
  8 37  1  0
  9 38  1  0
 10 39  1  0
 11 40  1  0
 11 41  1  0
 13 42  1  0
 14 43  1  0
 16 44  1  0
 16 45  1  0
 17 46  1  0
 19 47  1  0
 20 48  1  0
 21 49  1  0
 24 50  1  0
 24 51  1  0
 24 52  1  0
 25 53  1  0
M  CHG  1   3   1
M  END
>  <UniqueID>  (11) 
11

>  <SMILES>  (11) 
CC[N@H+](Cc1ccccc1)Cc1ccc(CNc2cccc(SC)c2)o1

>  <Energy>  (11) 
74.85267501924444

>  <Genealogy>  (11) 
CC[NH+](Cc1ccccc1)Cc1ccc(CNc2cccc(SC)c2)o1 (protonated)
CC[N@H+](Cc1ccccc1)Cc1ccc(CNc2cccc(SC)c2)o1 (chirality)
CC[N@H+](Cc1ccccc1)Cc1ccc(CNc2cccc(SC)c2)o1 (3D coordinates assigned)
CC[N@H+](Cc1ccccc1)Cc1ccc(CNc2cccc(SC)c2)o1 (optimized conformer: 74.85267501924444 kcal/mol)

>  <smiles>  (11) 
CCN(Cc1ccccc1)Cc1ccc(CNc2cccc(SC)c2)o1

>  <score_type>  (11) 
oracle

>  <origin>  (11) 
adg

>  <m_score__min__energy>  (11) 
-7.1900000000000004

>  <m_primary>  (11) 
energy

$$$$
11:0
     RDKit          3D

 50 52  0  0  0  0  0  0  0  0999 V2000
   58.7180   28.9960   47.1450 C   0  0  0  0  0  0  0  0  0  0  0  0
   57.5750   28.4440   46.5010 O   0  0  0  0  0  0  0  0  0  0  0  0
   57.6150   27.5820   45.3900 C   0  0  0  0  0  0  0  0  0  0  0  0
   57.2730   26.2180   45.4950 C   0  0  0  0  0  0  0  0  0  0  0  0
   57.3260   25.3560   44.3760 C   0  0  0  0  0  0  0  0  0  0  0  0
   56.9600   23.9430   44.4830 N   0  0  0  0  0  0  0  0  0  0  0  0
   55.7210   23.5700   45.1960 C   0  0  0  0  0  0  0  0  0  0  0  0
   55.5190   22.0600   45.3110 C   0  0  0  0  0  0  0  0  0  0  0  0
   55.8830   21.4160   44.1130 O   0  0  0  0  0  0  0  0  0  0  0  0
   57.2840   21.4870   43.9810 C   0  0  0  0  0  0  0  0  0  0  0  0
   57.7520   22.9300   43.7500 C   0  0  0  0  0  0  0  0  0  0  0  0
   57.7630   25.9040   43.1490 C   0  0  0  0  0  0  0  0  0  0  0  0
   58.1030   27.2520   43.0410 C   0  0  0  0  0  0  0  0  0  0  0  0
   58.0070   28.1080   44.1470 C   0  0  0  0  0  0  0  0  0  0  0  0
   58.3780   29.4970   44.0460 N   0  0  0  0  0  0  0  0  0  0  0  0
   57.4720   30.5990   44.2120 C   0  0  0  0  0  0  0  0  0  0  0  0
   56.3780   30.4460   44.8210 O   0  0  0  0  0  0  0  0  0  0  0  0
   57.8350   31.9470   43.6750 C   0  0  0  0  0  0  0  0  0  0  0  0
   57.3790   33.2260   44.9020 S   0  0  0  0  0  0  0  0  0  0  0  0
   58.9480   34.1690   44.8570 C   0  0  0  0  0  0  0  0  0  0  0  0
   59.6710   34.0810   46.1750 C   0  0  0  0  0  0  0  0  0  0  0  0
   61.0570   33.8430   46.2140 C   0  0  0  0  0  0  0  0  0  0  0  0
   61.7280   33.7960   47.4410 C   0  0  0  0  0  0  0  0  0  0  0  0
   61.0210   33.9790   48.6330 C   0  0  0  0  0  0  0  0  0  0  0  0
   59.6410   34.1950   48.6040 C   0  0  0  0  0  0  0  0  0  0  0  0
   58.9650   34.2440   47.3800 C   0  0  0  0  0  0  0  0  0  0  0  0
   58.5899   28.9341   48.2358 H   0  0  0  0  0  0  0  0  0  0  0  0
   59.6143   28.4315   46.8485 H   0  0  0  0  0  0  0  0  0  0  0  0
   58.8331   30.0490   46.8485 H   0  0  0  0  0  0  0  0  0  0  0  0
   56.9580   25.8159   46.4692 H   0  0  0  0  0  0  0  0  0  0  0  0
   55.7607   23.9948   46.2099 H   0  0  0  0  0  0  0  0  0  0  0  0
   54.8778   23.9671   44.6118 H   0  0  0  0  0  0  0  0  0  0  0  0
   56.1413   21.6740   46.1318 H   0  0  0  0  0  0  0  0  0  0  0  0
   54.4560   21.8599   45.5110 H   0  0  0  0  0  0  0  0  0  0  0  0
   57.7501   21.1024   44.9002 H   0  0  0  0  0  0  0  0  0  0  0  0
   57.5809   20.8832   43.1108 H   0  0  0  0  0  0  0  0  0  0  0  0
   58.8003   23.0099   44.0734 H   0  0  0  0  0  0  0  0  0  0  0  0
   57.6231   23.1392   42.6778 H   0  0  0  0  0  0  0  0  0  0  0  0
   57.8363   25.2557   42.2634 H   0  0  0  0  0  0  0  0  0  0  0  0
   58.4509   27.6487   42.0758 H   0  0  0  0  0  0  0  0  0  0  0  0
   59.3830   29.7310   43.8870 H   0  0  0  0  0  0  0  0  0  0  0  0
   58.9178   31.9882   43.4856 H   0  0  0  0  0  0  0  0  0  0  0  0
   57.2945   32.1279   42.7342 H   0  0  0  0  0  0  0  0  0  0  0  0
   59.5919   33.7576   44.0658 H   0  0  0  0  0  0  0  0  0  0  0  0
   58.7154   35.2251   44.6558 H   0  0  0  0  0  0  0  0  0  0  0  0
   61.6146   33.6935   45.2777 H   0  0  0  0  0  0  0  0  0  0  0  0
   62.8127   33.6149   47.4676 H   0  0  0  0  0  0  0  0  0  0  0  0
   61.5523   33.9529   49.5958 H   0  0  0  0  0  0  0  0  0  0  0  0
   59.0855   34.3266   49.5443 H   0  0  0  0  0  0  0  0  0  0  0  0
   57.8779   34.4106   47.3603 H   0  0  0  0  0  0  0  0  0  0  0  0
  1  2  1  0
  2  3  1  0
  3  4  2  0
  4  5  1  0
  5  6  1  0
  6  7  1  0
  7  8  1  0
  8  9  1  0
  9 10  1  0
 10 11  1  0
  5 12  2  0
 12 13  1  0
 13 14  2  0
 14 15  1  0
 15 16  1  0
 16 17  2  0
 16 18  1  0
 18 19  1  0
 19 20  1  0
 20 21  1  0
 21 22  2  0
 22 23  1  0
 23 24  2  0
 24 25  1  0
 25 26  2  0
 14  3  1  0
 26 21  1  0
 11  6  1  0
  1 27  1  0
  1 28  1  0
  1 29  1  0
  4 30  1  0
  7 31  1  0
  7 32  1  0
  8 33  1  0
  8 34  1  0
 10 35  1  0
 10 36  1  0
 11 37  1  0
 11 38  1  0
 12 39  1  0
 13 40  1  0
 15 41  1  0
 18 42  1  0
 18 43  1  0
 20 44  1  0
 20 45  1  0
 22 46  1  0
 23 47  1  0
 24 48  1  0
 25 49  1  0
 26 50  1  0
M  END
>  <UniqueID>  (12) 
12

>  <SMILES>  (12) 
COc1cc(N2CCOCC2)ccc1NC(=O)CSCc1ccccc1

>  <Energy>  (12) 
56.219066380353986

>  <Genealogy>  (12) 
COc1cc(N2CCOCC2)ccc1NC(=O)CSCc1ccccc1 (3D coordinates assigned)
COc1cc(N2CCOCC2)ccc1NC(=O)CSCc1ccccc1 (nonaromatic ring conformer: 56.219066380353986 kcal/mol)

>  <smiles>  (12) 
COc1cc(N2CCOCC2)ccc1NC(=O)CSCc1ccccc1

>  <score_type>  (12) 
oracle

>  <origin>  (12) 
adg

>  <m_score__min__energy>  (12) 
-8.5899999999999999

>  <m_primary>  (12) 
energy

$$$$
12:0
     RDKit          3D

 28 29  0  0  0  0  0  0  0  0999 V2000
   55.8190   29.0740   44.8430 O   0  0  0  0  0  0  0  0  0  0  0  0
   56.7930   29.8090   44.5170 C   0  0  0  0  0  0  0  0  0  0  0  0
   56.7630   31.2160   44.7990 N   0  0  0  0  0  0  0  0  0  0  0  0
   57.6880   31.9400   45.6240 C   0  0  0  0  0  0  0  0  0  0  0  0
   58.1720   31.3260   46.7870 C   0  0  0  0  0  0  0  0  0  0  0  0
   59.0600   32.0040   47.6290 C   0  0  0  0  0  0  0  0  0  0  0  0
   59.4570   33.3090   47.3220 C   0  0  0  0  0  0  0  0  0  0  0  0
   60.6650   34.2360   48.4740 Br  0  0  0  0  0  0  0  0  0  0  0  0
   58.9600   33.9380   46.1770 C   0  0  0  0  0  0  0  0  0  0  0  0
   58.0730   33.2610   45.3330 C   0  0  0  0  0  0  0  0  0  0  0  0
   57.9170   29.2550   43.7970 N   0  0  0  0  0  0  0  0  0  0  0  0
   57.7690   27.8040   43.6140 C   0  0  0  0  0  0  0  0  0  0  0  0
   58.5140   27.1170   44.7530 C   0  0  0  0  0  0  0  0  0  0  0  0
   59.4310   28.1760   45.3420 C   0  0  0  0  0  0  0  0  0  0  0  0
   59.1740   29.4440   44.5360 C   0  0  0  0  0  0  0  0  0  0  0  0
   57.8517   30.3044   47.0395 H   0  0  0  0  0  0  0  0  0  0  0  0
   59.4460   31.5102   48.5330 H   0  0  0  0  0  0  0  0  0  0  0  0
   59.2668   34.9672   45.9390 H   0  0  0  0  0  0  0  0  0  0  0  0
   57.6755   33.7636   44.4389 H   0  0  0  0  0  0  0  0  0  0  0  0
   57.9880   29.7210   42.8610 H   0  0  0  0  0  0  0  0  0  0  0  0
   56.7043   27.5291   43.6426 H   0  0  0  0  0  0  0  0  0  0  0  0
   58.1791   27.4936   42.6416 H   0  0  0  0  0  0  0  0  0  0  0  0
   57.8050   26.7576   45.5134 H   0  0  0  0  0  0  0  0  0  0  0  0
   59.0788   26.2419   44.3993 H   0  0  0  0  0  0  0  0  0  0  0  0
   59.1926   28.3418   46.4030 H   0  0  0  0  0  0  0  0  0  0  0  0
   60.4866   27.8710   45.2906 H   0  0  0  0  0  0  0  0  0  0  0  0
   59.0851   30.3067   45.2126 H   0  0  0  0  0  0  0  0  0  0  0  0
   60.0052   29.6348   43.8412 H   0  0  0  0  0  0  0  0  0  0  0  0
  1  2  2  0
  2  3  1  0
  3  4  1  0
  4  5  2  0
  5  6  1  0
  6  7  2  0
  7  8  1  0
  7  9  1  0
  9 10  2  0
  2 11  1  0
 11 12  1  0
 12 13  1  0
 13 14  1  0
 14 15  1  0
 10  4  1  0
 15 11  1  0
  5 16  1  0
  6 17  1  0
  9 18  1  0
 10 19  1  0
 11 20  1  0
 12 21  1  0
 12 22  1  0
 13 23  1  0
 13 24  1  0
 14 25  1  0
 14 26  1  0
 15 27  1  0
 15 28  1  0
M  CHG  2   3  -1  11   1
M  END
>  <UniqueID>  (13) 
13

>  <SMILES>  (13) 
O=C([N-]c1ccc(Br)cc1)[NH+]1CCCC1

>  <Energy>  (13) 
34.963965682173786

>  <Genealogy>  (13) 
O=C([N-]c1ccc(Br)cc1)[NH+]1CCCC1 (protonated)
O=C([N-]c1ccc(Br)cc1)[NH+]1CCCC1 (3D coordinates assigned)
O=C([N-]c1ccc(Br)cc1)[NH+]1CCCC1 (nonaromatic ring conformer: 34.963965682173786 kcal/mol)

>  <smiles>  (13) 
O=C(Nc1ccc(Br)cc1)N1CCCC1

>  <score_type>  (13) 
oracle

>  <origin>  (13) 
adg

>  <m_score__min__energy>  (13) 
-6.5099999999999998

>  <m_primary>  (13) 
energy

$$$$
13:0
     RDKit          3D

 38 39  0  0  0  0  0  0  0  0999 V2000
   57.0935   27.4751   47.7066 H   0  0  0  0  0  0  0  0  0  0  0  0
   57.5320   27.2110   46.7330 C   0  0  0  0  0  0  0  0  0  0  0  0
   58.4350   28.0600   46.2000 C   0  0  0  0  0  0  0  0  0  0  0  0
   58.0520   29.4260   45.7620 C   0  0  0  0  0  0  0  0  0  0  0  0
   56.8440   29.6840   45.5040 O   0  0  0  0  0  0  0  0  0  0  0  0
   59.0580   30.4360   45.5980 N   0  0  0  0  0  0  0  0  0  0  0  0
   60.0440   30.1200   45.4590 H   0  0  0  0  0  0  0  0  0  0  0  0
   58.7760   31.8410   45.4940 C   0  0  0  0  0  0  0  0  0  0  0  0
   57.8400   32.3340   44.5650 C   0  0  0  0  0  0  0  0  0  0  0  0
   57.3235   31.6390   43.8866 H   0  0  0  0  0  0  0  0  0  0  0  0
   57.5640   33.7040   44.5010 C   0  0  0  0  0  0  0  0  0  0  0  0
   56.8390   34.0844   43.7664 H   0  0  0  0  0  0  0  0  0  0  0  0
   58.2080   34.5900   45.3690 C   0  0  0  0  0  0  0  0  0  0  0  0
   57.9956   35.6678   45.3124 H   0  0  0  0  0  0  0  0  0  0  0  0
   59.1220   34.1060   46.3090 C   0  0  0  0  0  0  0  0  0  0  0  0
   59.6241   34.8028   46.9962 H   0  0  0  0  0  0  0  0  0  0  0  0
   59.3990   32.7370   46.3770 C   0  0  0  0  0  0  0  0  0  0  0  0
   60.1096   32.3598   47.1272 H   0  0  0  0  0  0  0  0  0  0  0  0
   59.8610   27.6410   46.1030 C   0  0  0  0  0  0  0  0  0  0  0  0
   60.5780   28.0610   45.1540 O   0  0  0  0  0  0  0  0  0  0  0  0
   60.4890   26.7430   47.1270 C   0  0  0  0  0  0  0  0  0  0  0  0
   60.2367   27.1037   48.1351 H   0  0  0  0  0  0  0  0  0  0  0  0
   60.1094   25.7186   46.9985 H   0  0  0  0  0  0  0  0  0  0  0  0
   61.5815   26.7480   46.9985 H   0  0  0  0  0  0  0  0  0  0  0  0
   57.0910   25.9500   46.0990 C   0  0  0  0  0  0  0  0  0  0  0  0
   58.0560   24.9840   45.7700 C   0  0  0  0  0  0  0  0  0  0  0  0
   59.1153   25.1701   46.0008 H   0  0  0  0  0  0  0  0  0  0  0  0
   57.6790   23.7830   45.1490 C   0  0  0  0  0  0  0  0  0  0  0  0
   58.7080   22.7320   44.8530 C   0  0  0  0  0  0  0  0  0  0  0  0
   59.1026   22.3290   45.7974 H   0  0  0  0  0  0  0  0  0  0  0  0
   58.2461   21.9199   44.2723 H   0  0  0  0  0  0  0  0  0  0  0  0
   59.5297   23.1766   44.2723 H   0  0  0  0  0  0  0  0  0  0  0  0
   56.3260   23.5450   44.8690 C   0  0  0  0  0  0  0  0  0  0  0  0
   56.0201   22.5918   44.4130 H   0  0  0  0  0  0  0  0  0  0  0  0
   55.3650   24.5140   45.1670 C   0  0  0  0  0  0  0  0  0  0  0  0
   54.3072   24.3273   44.9297 H   0  0  0  0  0  0  0  0  0  0  0  0
   55.7420   25.7210   45.7660 C   0  0  0  0  0  0  0  0  0  0  0  0
   54.7740   26.6880   46.0100 O   0  0  0  0  0  0  0  0  0  0  0  0
  1  2  1  0
  2  3  2  0
  3  4  1  0
  4  5  2  0
  4  6  1  0
  6  7  1  0
  6  8  1  0
  8  9  2  0
  9 10  1  0
  9 11  1  0
 11 12  1  0
 11 13  2  0
 13 14  1  0
 13 15  1  0
 15 16  1  0
 15 17  2  0
 17 18  1  0
  3 19  1  0
 19 20  2  0
 19 21  1  0
 21 22  1  0
 21 23  1  0
 21 24  1  0
  2 25  1  0
 25 26  2  0
 26 27  1  0
 26 28  1  0
 28 29  1  0
 29 30  1  0
 29 31  1  0
 29 32  1  0
 28 33  2  0
 33 34  1  0
 33 35  1  0
 35 36  1  0
 35 37  2  0
 37 38  1  0
 17  8  1  0
 37 25  1  0
M  CHG  1  38  -1
M  END
>  <UniqueID>  (14) 
14

>  <SMILES>  (14) 
CC(=O)/C(=C/c1cc(C)ccc1[O-])C(=O)Nc1ccccc1

>  <Energy>  (14) 
52.11148672687779

>  <Genealogy>  (14) 
CC(=O)C(=Cc1cc(C)ccc1[O-])C(=O)Nc1ccccc1 (protonated)
CC(=O)/C(=C/c1cc(C)ccc1[O-])C(=O)Nc1ccccc1 (cis-trans isomerization)
CC(=O)/C(=C/c1cc(C)ccc1[O-])C(=O)Nc1ccccc1 (3D coordinates assigned)
CC(=O)/C(=C/c1cc(C)ccc1[O-])C(=O)Nc1ccccc1 (optimized conformer: 52.11148672687779 kcal/mol)

>  <smiles>  (14) 
CC(=O)C(=Cc1cc(C)ccc1O)C(=O)Nc1ccccc1

>  <score_type>  (14) 
oracle

>  <origin>  (14) 
adg

>  <m_score__min__energy>  (14) 
-11.9

>  <m_primary>  (14) 
energy

$$$$
14:0
     RDKit          3D

 25 26  0  0  0  0  0  0  0  0999 V2000
   58.6750   34.0890   46.4370 C   0  0  0  0  0  0  0  0  0  0  0  0
   58.3810   33.0180   45.4290 C   0  0  0  0  0  0  0  0  0  0  0  0
   58.0990   33.3580   44.0990 C   0  0  0  0  0  0  0  0  0  0  0  0
   57.7850   32.3630   43.1710 C   0  0  0  0  0  0  0  0  0  0  0  0
   57.7430   31.0230   43.5620 C   0  0  0  0  0  0  0  0  0  0  0  0
   58.0180   30.6610   44.8950 C   0  0  0  0  0  0  0  0  0  0  0  0
   57.9620   29.2470   45.3450 C   0  0  0  0  0  0  0  0  0  0  0  0
   56.7480   28.5470   45.4430 C   0  0  0  0  0  0  0  0  0  0  0  0
   56.7570   27.2210   45.8720 C   0  0  0  0  0  0  0  0  0  0  0  0
   55.1850   26.3310   45.9890 S   0  0  0  0  0  0  0  0  0  0  0  0
   57.9770   26.6060   46.1940 C   0  0  0  0  0  0  0  0  0  0  0  0
   58.0080   25.2300   46.6410 C   0  0  0  0  0  0  0  0  0  0  0  0
   58.0320   24.1290   46.9980 N   0  0  0  0  0  0  0  0  0  0  0  0
   59.1590   27.3630   46.0630 C   0  0  0  0  0  0  0  0  0  0  0  0
   60.6320   26.7290   46.4080 S   0  0  0  0  0  0  0  0  0  0  0  0
   59.1010   28.6260   45.6510 O   0  0  0  0  0  0  0  0  0  0  0  0
   58.3200   31.6720   45.8250 C   0  0  0  0  0  0  0  0  0  0  0  0
   58.5624   33.6787   47.4514 H   0  0  0  0  0  0  0  0  0  0  0  0
   59.7052   34.4491   46.2994 H   0  0  0  0  0  0  0  0  0  0  0  0
   57.9730   34.9246   46.2994 H   0  0  0  0  0  0  0  0  0  0  0  0
   58.1251   34.4120   43.7851 H   0  0  0  0  0  0  0  0  0  0  0  0
   57.5698   32.6359   42.1273 H   0  0  0  0  0  0  0  0  0  0  0  0
   57.4937   30.2458   42.8246 H   0  0  0  0  0  0  0  0  0  0  0  0
   55.7997   29.0405   45.1837 H   0  0  0  0  0  0  0  0  0  0  0  0
   58.5107   31.4052   46.8750 H   0  0  0  0  0  0  0  0  0  0  0  0
  1  2  1  0
  2  3  2  0
  3  4  1  0
  4  5  2  0
  5  6  1  0
  6  7  1  0
  7  8  2  0
  8  9  1  0
  9 10  1  0
  9 11  2  0
 11 12  1  0
 12 13  3  0
 11 14  1  0
 14 15  2  0
 14 16  1  0
  6 17  2  0
 17  2  1  0
 16  7  1  0
  1 18  1  0
  1 19  1  0
  1 20  1  0
  3 21  1  0
  4 22  1  0
  5 23  1  0
  8 24  1  0
 17 25  1  0
M  CHG  1  10  -1
M  END
>  <UniqueID>  (15) 
15

>  <SMILES>  (15) 
Cc1cccc(-c2cc([S-])c(C#N)c(=S)o2)c1

>  <Energy>  (15) 
32.172223242450606

>  <Genealogy>  (15) 
Cc1cccc(-c2cc([S-])c(C#N)c(=S)o2)c1 (protonated)
Cc1cccc(-c2cc([S-])c(C#N)c(=S)o2)c1 (3D coordinates assigned)
Cc1cccc(-c2cc([S-])c(C#N)c(=S)o2)c1 (optimized conformer: 32.172223242450606 kcal/mol)

>  <smiles>  (15) 
Cc1cccc(-c2cc(S)c(C#N)c(=S)o2)c1

>  <score_type>  (15) 
oracle

>  <origin>  (15) 
adg

>  <m_score__min__energy>  (15) 
-7.8600000000000003

>  <m_primary>  (15) 
energy

$$$$
15:0
     RDKit          3D

 87 91  0  0  0  0  0  0  0  0999 V2000
   50.4160   23.3610   45.3870 C   0  0  0  0  0  0  0  0  0  0  0  0
   51.8510   23.2510   45.6360 N   0  0  0  0  0  0  0  0  0  0  0  0
   52.8050   23.8600   44.9070 C   0  0  0  0  0  0  0  0  0  0  0  0
   54.0400   23.5920   45.4630 C   0  0  0  0  0  0  0  0  0  0  0  0
   55.2670   24.2390   45.1320 N   0  0  0  0  0  0  0  0  0  0  0  0
   55.5620   25.5300   45.6720 C   0  0  0  0  0  0  0  0  0  0  0  0
   54.6090   26.2880   45.9930 O   0  0  0  0  0  0  0  0  0  0  0  0
   56.9450   26.0370   45.7330 C   0  0  0  0  0  0  0  0  0  0  0  0
   57.4880   26.6340   46.8570 C   0  0  0  0  0  0  0  0  0  0  0  0
   58.7400   27.0870   46.4750 C   0  0  0  0  0  0  0  0  0  0  0  0
   59.6700   27.8810   47.2270 N   0  0  0  0  0  0  0  0  0  0  0  0
   59.5390   29.2310   47.6990 C   0  0  0  0  0  0  0  0  0  0  0  0
   59.7340   29.4690   48.9220 O   0  0  0  0  0  0  0  0  0  0  0  0
   59.1850   30.3550   46.8130 C   0  0  0  0  0  0  0  0  0  0  0  0
   58.1500   30.1650   45.8960 C   0  0  0  0  0  0  0  0  0  0  0  0
   57.7690   31.1580   45.0390 N   0  0  0  0  0  0  0  0  0  0  0  0
   56.6470   30.8990   44.1180 C   0  0  0  0  0  0  0  0  0  0  0  0
   56.3070   29.4050   44.0770 C   0  0  0  0  0  0  0  0  0  0  0  0
   55.4150   29.0670   45.1050 O   0  0  0  0  0  0  0  0  0  0  0  0
   58.3860   32.3830   45.0750 C   0  0  0  0  0  0  0  0  0  0  0  0
   58.0190   33.3000   44.2860 O   0  0  0  0  0  0  0  0  0  0  0  0
   59.4360   32.6270   45.9840 C   0  0  0  0  0  0  0  0  0  0  0  0
   60.0910   33.8680   46.0240 C   0  0  0  0  0  0  0  0  0  0  0  0
   61.1330   34.0960   46.9190 C   0  0  0  0  0  0  0  0  0  0  0  0
   61.5590   33.0980   47.8200 C   0  0  0  0  0  0  0  0  0  0  0  0
   62.7200   33.4000   48.7920 C   0  0  0  0  0  0  0  0  0  0  0  0
   63.0800   32.2020   49.7100 C   0  0  0  0  0  0  0  0  0  0  0  0
   62.3330   34.5840   49.7030 C   0  0  0  0  0  0  0  0  0  0  0  0
   63.9830   33.7630   47.9830 C   0  0  0  0  0  0  0  0  0  0  0  0
   60.9020   31.8460   47.7720 C   0  0  0  0  0  0  0  0  0  0  0  0
   59.8430   31.6040   46.8700 C   0  0  0  0  0  0  0  0  0  0  0  0
   58.9210   26.7340   45.1530 C   0  0  0  0  0  0  0  0  0  0  0  0
   57.8260   26.0870   44.7040 N   0  0  0  0  0  0  0  0  0  0  0  0
   57.6290   25.6030   43.3420 C   0  0  0  0  0  0  0  0  0  0  0  0
   53.8470   22.7870   46.5630 C   0  0  0  0  0  0  0  0  0  0  0  0
   52.4750   22.6080   46.6510 C   0  0  0  0  0  0  0  0  0  0  0  0
   51.7970   22.1490   47.8730 C   0  0  0  0  0  0  0  0  0  0  0  0
   50.8070   21.3800   47.7850 O   0  0  0  0  0  0  0  0  0  0  0  0
   52.2830   22.5420   49.1640 N   0  0  0  0  0  0  0  0  0  0  0  0
   53.6010   22.1510   49.6530 C   0  0  0  0  0  0  0  0  0  0  0  0
   53.8740   20.6780   49.3430 C   0  0  0  0  0  0  0  0  0  0  0  0
   55.2830   20.2850   49.5840 N   0  0  0  0  0  0  0  0  0  0  0  0
   56.0830   21.2560   50.3600 C   0  0  0  0  0  0  0  0  0  0  0  0
   56.9630   22.1660   49.4760 C   0  0  0  0  0  0  0  0  0  0  0  0
   56.7080   21.9990   48.1000 O   0  0  0  0  0  0  0  0  0  0  0  0
   56.9650   20.6600   47.7430 C   0  0  0  0  0  0  0  0  0  0  0  0
   55.9780   19.6900   48.4210 C   0  0  0  0  0  0  0  0  0  0  0  0
   49.8795   23.4021   46.3464 H   0  0  0  0  0  0  0  0  0  0  0  0
   50.2125   24.2774   44.8135 H   0  0  0  0  0  0  0  0  0  0  0  0
   50.0753   22.4863   44.8135 H   0  0  0  0  0  0  0  0  0  0  0  0
   52.6286   24.4734   44.0111 H   0  0  0  0  0  0  0  0  0  0  0  0
   57.0218   26.7292   47.8488 H   0  0  0  0  0  0  0  0  0  0  0  0
   57.6306   29.1959   45.8628 H   0  0  0  0  0  0  0  0  0  0  0  0
   55.7644   31.4600   44.4588 H   0  0  0  0  0  0  0  0  0  0  0  0
   56.9400   31.2207   43.1077 H   0  0  0  0  0  0  0  0  0  0  0  0
   55.8458   29.1670   43.1071 H   0  0  0  0  0  0  0  0  0  0  0  0
   57.2345   28.8294   44.2127 H   0  0  0  0  0  0  0  0  0  0  0  0
   55.1470   28.1250   44.9460 H   0  0  0  0  0  0  0  0  0  0  0  0
   59.7772   34.6702   45.3399 H   0  0  0  0  0  0  0  0  0  0  0  0
   61.6345   35.0750   46.9234 H   0  0  0  0  0  0  0  0  0  0  0  0
   62.9885   32.5065   50.7630 H   0  0  0  0  0  0  0  0  0  0  0  0
   62.3932   31.3666   49.5089 H   0  0  0  0  0  0  0  0  0  0  0  0
   64.1135   31.8836   49.5089 H   0  0  0  0  0  0  0  0  0  0  0  0
   62.4313   34.2834   50.7566 H   0  0  0  0  0  0  0  0  0  0  0  0
   62.9996   35.4353   49.5009 H   0  0  0  0  0  0  0  0  0  0  0  0
   61.2922   34.8772   49.5009 H   0  0  0  0  0  0  0  0  0  0  0  0
   64.8056   33.9994   48.6739 H   0  0  0  0  0  0  0  0  0  0  0  0
   64.2699   32.9110   47.3492 H   0  0  0  0  0  0  0  0  0  0  0  0
   63.7737   34.6374   47.3492 H   0  0  0  0  0  0  0  0  0  0  0  0
   61.2232   31.0435   48.4523 H   0  0  0  0  0  0  0  0  0  0  0  0
   59.8205   26.9476   44.5569 H   0  0  0  0  0  0  0  0  0  0  0  0
   57.2145   24.5845   43.3712 H   0  0  0  0  0  0  0  0  0  0  0  0
   56.9301   26.2684   42.8139 H   0  0  0  0  0  0  0  0  0  0  0  0
   58.5939   25.5912   42.8139 H   0  0  0  0  0  0  0  0  0  0  0  0
   54.6176   22.3736   47.2303 H   0  0  0  0  0  0  0  0  0  0  0  0
   54.3668   22.7714   49.1644 H   0  0  0  0  0  0  0  0  0  0  0  0
   53.6328   22.2963   50.7429 H   0  0  0  0  0  0  0  0  0  0  0  0
   53.2242   20.0598   49.9799 H   0  0  0  0  0  0  0  0  0  0  0  0
   53.6687   20.5242   48.2733 H   0  0  0  0  0  0  0  0  0  0  0  0
   55.3962   21.8904   50.9395 H   0  0  0  0  0  0  0  0  0  0  0  0
   56.7588   20.6782   51.0076 H   0  0  0  0  0  0  0  0  0  0  0  0
   56.7671   23.2143   49.7455 H   0  0  0  0  0  0  0  0  0  0  0  0
   58.0124   21.8891   49.6554 H   0  0  0  0  0  0  0  0  0  0  0  0
   56.8723   20.5579   46.6517 H   0  0  0  0  0  0  0  0  0  0  0  0
   57.9813   20.4048   48.0778 H   0  0  0  0  0  0  0  0  0  0  0  0
   55.2233   19.3851   47.6811 H   0  0  0  0  0  0  0  0  0  0  0  0
   56.5622   18.8347   48.7914 H   0  0  0  0  0  0  0  0  0  0  0  0
  1  2  1  0
  2  3  1  0
  3  4  2  0
  4  5  1  0
  5  6  1  0
  6  7  2  0
  6  8  1  0
  8  9  2  0
  9 10  1  0
 10 11  1  0
 11 12  1  0
 12 13  2  0
 12 14  1  0
 14 15  2  0
 15 16  1  0
 16 17  1  0
 17 18  1  0
 18 19  1  0
 16 20  1  0
 20 21  2  0
 20 22  1  0
 22 23  2  0
 23 24  1  0
 24 25  2  0
 25 26  1  0
 26 27  1  0
 26 28  1  0
 26 29  1  0
 25 30  1  0
 30 31  2  0
 10 32  2  0
 32 33  1  0
 33 34  1  0
  4 35  1  0
 35 36  2  0
 36 37  1  0
 37 38  2  0
 37 39  1  0
 39 40  1  0
 40 41  1  0
 41 42  1  0
 42 43  1  0
 43 44  1  0
 44 45  1  0
 45 46  1  0
 46 47  1  0
 36  2  1  0
 47 42  1  0
 33  8  1  0
 31 14  1  0
 31 22  1  0
  1 48  1  0
  1 49  1  0
  1 50  1  0
  3 51  1  0
  9 52  1  0
 15 53  1  0
 17 54  1  0
 17 55  1  0
 18 56  1  0
 18 57  1  0
 19 58  1  0
 23 59  1  0
 24 60  1  0
 27 61  1  0
 27 62  1  0
 27 63  1  0
 28 64  1  0
 28 65  1  0
 28 66  1  0
 29 67  1  0
 29 68  1  0
 29 69  1  0
 30 70  1  0
 32 71  1  0
 34 72  1  0
 34 73  1  0
 34 74  1  0
 35 75  1  0
 40 76  1  0
 40 77  1  0
 41 78  1  0
 41 79  1  0
 43 80  1  0
 43 81  1  0
 44 82  1  0
 44 83  1  0
 46 84  1  0
 46 85  1  0
 47 86  1  0
 47 87  1  0
M  CHG  3   5  -1  11  -1  39  -1
M  END
>  <UniqueID>  (16) 
16

>  <SMILES>  (16) 
Cn1cc([N-]C(=O)c2cc([N-]C(=O)c3cn(CCO)c(=O)c4ccc(C(C)(C)C)cc34)cn2C)cc1C(=O)[N-]CCN1CCOCC1

>  <Energy>  (16) 
187.73180393541907

>  <Genealogy>  (16) 
Cn1cc([N-]C(=O)c2cc([N-]C(=O)c3cn(CCO)c(=O)c4ccc(C(C)(C)C)cc34)cn2C)cc1C(=O)[N-]CCN1CCOCC1 (protonated)
Cn1cc([N-]C(=O)c2cc([N-]C(=O)c3cn(CCO)c(=O)c4ccc(C(C)(C)C)cc34)cn2C)cc1C(=O)[N-]CCN1CCOCC1 (3D coordinates assigned)
Cn1cc([N-]C(=O)c2cc([N-]C(=O)c3cn(CCO)c(=O)c4ccc(C(C)(C)C)cc34)cn2C)cc1C(=O)[N-]CCN1CCOCC1 (nonaromatic ring conformer: 187.73180393541907 kcal/mol)

>  <smiles>  (16) 
Cn1cc(NC(=O)c2cc(NC(=O)c3cn(CCO)c(=O)c4ccc(C(C)(C)C)cc34)cn2C)cc1C(=O)NCCN1CCOCC1

>  <score_type>  (16) 
oracle

>  <origin>  (16) 
adg

>  <m_score__min__energy>  (16) 
-13.609999999999999

>  <m_primary>  (16) 
energy

$$$$
16:0
     RDKit          3D

 53 55  0  0  0  0  0  0  0  0999 V2000
   62.6300   33.8390   46.3410 C   0  0  0  0  0  0  0  0  0  0  0  0
   63.7450   33.1070   47.0850 C   0  0  0  0  0  0  0  0  0  0  0  0
   63.2960   32.5760   48.4550 C   0  0  0  0  0  0  0  0  0  0  0  0
   62.8950   33.6980   49.4210 C   0  0  0  0  0  0  0  0  0  0  0  0
   61.7990   33.2530   50.2850 N   0  0  0  0  0  0  0  0  0  0  0  0
   61.9130   32.4110   51.3260 C   0  0  0  0  0  0  0  0  0  0  0  0
   60.6750   32.2870   51.9150 C   0  0  0  0  0  0  0  0  0  0  0  0
   59.7820   33.0540   51.2580 N   0  0  0  0  0  0  0  0  0  0  0  0
   60.5020   33.6380   50.2760 C   0  0  0  0  0  0  0  0  0  0  0  0
   59.8850   34.5800   49.2790 C   0  0  0  0  0  0  0  0  0  0  0  0
   59.8580   33.9700   47.9340 N   0  0  0  0  0  0  0  0  0  0  0  0
   59.3210   32.5970   48.0170 C   0  0  0  0  0  0  0  0  0  0  0  0
   59.3770   31.9190   46.6470 C   0  0  0  0  0  0  0  0  0  0  0  0
   58.7190   32.7580   45.6390 N   0  0  0  0  0  0  0  0  0  0  0  0
   58.0000   32.1360   44.5530 C   0  0  0  0  0  0  0  0  0  0  0  0
   58.1660   32.5620   43.2280 C   0  0  0  0  0  0  0  0  0  0  0  0
   57.4300   31.9320   42.2170 C   0  0  0  0  0  0  0  0  0  0  0  0
   57.6110   32.3420   40.7860 C   0  0  0  0  0  0  0  0  0  0  0  0
   56.5950   30.9010   42.5330 N   0  0  0  0  0  0  0  0  0  0  0  0
   56.4500   30.4920   43.8240 C   0  0  0  0  0  0  0  0  0  0  0  0
   55.5220   29.3680   44.1580 C   0  0  0  0  0  0  0  0  0  0  0  0
   57.1470   31.1090   44.8140 N   0  0  0  0  0  0  0  0  0  0  0  0
   59.0700   34.1830   45.6010 C   0  0  0  0  0  0  0  0  0  0  0  0
   59.0280   34.7740   47.0110 C   0  0  0  0  0  0  0  0  0  0  0  0
   61.9400   34.2920   47.0681 H   0  0  0  0  0  0  0  0  0  0  0  0
   63.0664   34.6269   45.7095 H   0  0  0  0  0  0  0  0  0  0  0  0
   62.0806   33.1253   45.7095 H   0  0  0  0  0  0  0  0  0  0  0  0
   64.0790   32.2577   46.4709 H   0  0  0  0  0  0  0  0  0  0  0  0
   64.5571   33.8284   47.2587 H   0  0  0  0  0  0  0  0  0  0  0  0
   62.4317   31.9114   48.3090 H   0  0  0  0  0  0  0  0  0  0  0  0
   64.1483   32.0421   48.9006 H   0  0  0  0  0  0  0  0  0  0  0  0
   63.7610   33.9691   50.0428 H   0  0  0  0  0  0  0  0  0  0  0  0
   62.5626   34.5707   48.8398 H   0  0  0  0  0  0  0  0  0  0  0  0
   62.8356   31.9080   51.6511 H   0  0  0  0  0  0  0  0  0  0  0  0
   60.4489   31.6580   52.7886 H   0  0  0  0  0  0  0  0  0  0  0  0
   58.8562   34.8131   49.5908 H   0  0  0  0  0  0  0  0  0  0  0  0
   60.4884   35.4989   49.2393 H   0  0  0  0  0  0  0  0  0  0  0  0
   59.9202   32.0161   48.7337 H   0  0  0  0  0  0  0  0  0  0  0  0
   58.2736   32.6430   48.3499 H   0  0  0  0  0  0  0  0  0  0  0  0
   60.4278   31.7641   46.3610 H   0  0  0  0  0  0  0  0  0  0  0  0
   58.8566   30.9515   46.7038 H   0  0  0  0  0  0  0  0  0  0  0  0
   58.8631   33.3779   42.9863 H   0  0  0  0  0  0  0  0  0  0  0  0
   58.0550   33.3476   40.7461 H   0  0  0  0  0  0  0  0  0  0  0  0
   58.2771   31.6268   40.2811 H   0  0  0  0  0  0  0  0  0  0  0  0
   56.6338   32.3523   40.2811 H   0  0  0  0  0  0  0  0  0  0  0  0
   56.0590   30.4170   41.7770 H   0  0  0  0  0  0  0  0  0  0  0  0
   55.4419   29.2710   45.2508 H   0  0  0  0  0  0  0  0  0  0  0  0
   54.5281   29.5749   43.7345 H   0  0  0  0  0  0  0  0  0  0  0  0
   55.9133   28.4313   43.7345 H   0  0  0  0  0  0  0  0  0  0  0  0
   60.0836   34.2969   45.1891 H   0  0  0  0  0  0  0  0  0  0  0  0
   58.3455   34.7148   44.9667 H   0  0  0  0  0  0  0  0  0  0  0  0
   59.4119   35.8045   46.9833 H   0  0  0  0  0  0  0  0  0  0  0  0
   57.9880   34.7665   47.3693 H   0  0  0  0  0  0  0  0  0  0  0  0
  1  2  1  0
  2  3  1  0
  3  4  1  0
  4  5  1  0
  5  6  1  0
  6  7  2  0
  7  8  1  0
  8  9  2  0
  9 10  1  0
 10 11  1  0
 11 12  1  0
 12 13  1  0
 13 14  1  0
 14 15  1  0
 15 16  2  0
 16 17  1  0
 17 18  1  0
 17 19  2  0
 19 20  1  0
 20 21  1  0
 20 22  2  0
 14 23  1  0
 23 24  1  0
  9  5  1  0
 24 11  1  0
 22 15  1  0
  1 25  1  0
  1 26  1  0
  1 27  1  0
  2 28  1  0
  2 29  1  0
  3 30  1  0
  3 31  1  0
  4 32  1  0
  4 33  1  0
  6 34  1  0
  7 35  1  0
 10 36  1  0
 10 37  1  0
 12 38  1  0
 12 39  1  0
 13 40  1  0
 13 41  1  0
 16 42  1  0
 18 43  1  0
 18 44  1  0
 18 45  1  0
 19 46  1  0
 21 47  1  0
 21 48  1  0
 21 49  1  0
 23 50  1  0
 23 51  1  0
 24 52  1  0
 24 53  1  0
M  CHG  1  19   1
M  END
>  <UniqueID>  (17) 
17

>  <SMILES>  (17) 
CCCCn1ccnc1CN1CCN(c2cc(C)[nH+]c(C)n2)CC1

>  <Energy>  (17) 
75.99338546950091

>  <Genealogy>  (17) 
CCCCn1ccnc1CN1CCN(c2cc(C)[nH+]c(C)n2)CC1 (protonated)
CCCCn1ccnc1CN1CCN(c2cc(C)[nH+]c(C)n2)CC1 (3D coordinates assigned)
CCCCn1ccnc1CN1CCN(c2cc(C)[nH+]c(C)n2)CC1 (nonaromatic ring conformer: 75.99338546950091 kcal/mol)

>  <smiles>  (17) 
CCCCn1ccnc1CN1CCN(c2cc(C)nc(C)n2)CC1

>  <score_type>  (17) 
oracle

>  <origin>  (17) 
adg

>  <m_score__min__energy>  (17) 
-5.7699999999999996

>  <m_primary>  (17) 
energy

$$$$
17:0
     RDKit          3D

 46 48  0  0  0  0  0  0  0  0999 V2000
   57.4790   31.6920   42.4020 C   0  0  0  0  0  0  0  0  0  0  0  0
   57.5840   33.0430   42.8510 O   0  0  0  0  0  0  0  0  0  0  0  0
   57.9600   33.4190   44.1500 C   0  0  0  0  0  0  0  0  0  0  0  0
   59.2760   33.8440   44.3650 C   0  0  0  0  0  0  0  0  0  0  0  0
   59.7040   34.2200   45.6430 C   0  0  0  0  0  0  0  0  0  0  0  0
   58.8150   34.1680   46.7300 C   0  0  0  0  0  0  0  0  0  0  0  0
   59.2630   34.5830   48.1070 C   0  0  0  0  0  0  0  0  0  0  0  0
   59.6300   33.3740   48.9240 C   0  0  0  0  0  0  0  0  0  0  0  0
   60.5620   33.4660   49.7680 O   0  0  0  0  0  0  0  0  0  0  0  0
   59.0420   32.0880   48.6830 N   0  0  0  0  0  0  0  0  0  0  0  0
   59.2580   31.2690   47.5250 C   0  0  0  0  0  0  0  0  0  0  0  0
   58.1670   30.7320   46.8200 C   0  0  0  0  0  0  0  0  0  0  0  0
   58.3760   29.8710   45.7340 C   0  0  0  0  0  0  0  0  0  0  0  0
   57.0100   29.2080   44.8390 S   0  0  0  0  0  0  0  0  0  0  0  0
   56.4090   27.8100   45.6560 N   0  0  0  0  0  0  0  0  0  0  0  0
   57.4420   28.8260   43.4490 O   0  0  0  0  0  0  0  0  0  0  0  0
   55.9250   30.2400   44.7400 O   0  0  0  0  0  0  0  0  0  0  0  0
   59.6810   29.5310   45.3610 C   0  0  0  0  0  0  0  0  0  0  0  0
   60.7700   30.0300   46.0780 C   0  0  0  0  0  0  0  0  0  0  0  0
   60.5700   30.8940   47.1660 C   0  0  0  0  0  0  0  0  0  0  0  0
   61.7010   31.3900   47.8980 N   0  0  0  0  0  0  0  0  0  0  0  0
   62.7050   32.2890   47.3430 C   0  0  0  0  0  0  0  0  0  0  0  0
   63.7520   32.3300   48.4050 C   0  0  0  0  0  0  0  0  0  0  0  0
   63.4190   31.5660   49.4390 C   0  0  0  0  0  0  0  0  0  0  0  0
   62.1050   30.8980   49.2100 C   0  0  0  0  0  0  0  0  0  0  0  0
   57.4920   33.7550   46.5150 C   0  0  0  0  0  0  0  0  0  0  0  0
   57.0660   33.3790   45.2360 C   0  0  0  0  0  0  0  0  0  0  0  0
   57.4268   31.0198   43.2711 H   0  0  0  0  0  0  0  0  0  0  0  0
   56.5692   31.5772   41.7944 H   0  0  0  0  0  0  0  0  0  0  0  0
   58.3601   31.4380   41.7944 H   0  0  0  0  0  0  0  0  0  0  0  0
   59.9806   33.8828   43.5212 H   0  0  0  0  0  0  0  0  0  0  0  0
   60.7396   34.5573   45.7973 H   0  0  0  0  0  0  0  0  0  0  0  0
   60.1396   35.2418   48.0201 H   0  0  0  0  0  0  0  0  0  0  0  0
   58.4394   35.1149   48.6057 H   0  0  0  0  0  0  0  0  0  0  0  0
   57.1413   30.9895   47.1229 H   0  0  0  0  0  0  0  0  0  0  0  0
   55.5220   27.5320   45.1800 H   0  0  0  0  0  0  0  0  0  0  0  0
   59.8495   28.8680   44.4996 H   0  0  0  0  0  0  0  0  0  0  0  0
   61.7919   29.7441   45.7883 H   0  0  0  0  0  0  0  0  0  0  0  0
   63.1132   31.8914   46.4021 H   0  0  0  0  0  0  0  0  0  0  0  0
   62.3037   33.2827   47.0950 H   0  0  0  0  0  0  0  0  0  0  0  0
   64.6799   32.9172   48.3400 H   0  0  0  0  0  0  0  0  0  0  0  0
   64.0311   31.4422   50.3445 H   0  0  0  0  0  0  0  0  0  0  0  0
   62.2155   29.8036   49.2033 H   0  0  0  0  0  0  0  0  0  0  0  0
   61.3683   31.1174   49.9969 H   0  0  0  0  0  0  0  0  0  0  0  0
   56.7847   33.7264   47.3570 H   0  0  0  0  0  0  0  0  0  0  0  0
   56.0279   33.0508   45.0790 H   0  0  0  0  0  0  0  0  0  0  0  0
  1  2  1  0
  2  3  1  0
  3  4  2  0
  4  5  1  0
  5  6  2  0
  6  7  1  0
  7  8  1  0
  8  9  2  0
  8 10  1  0
 10 11  1  0
 11 12  2  0
 12 13  1  0
 13 14  1  0
 14 15  1  0
 14 16  2  0
 14 17  2  0
 13 18  2  0
 18 19  1  0
 19 20  2  0
 20 21  1  0
 21 22  1  0
 22 23  1  0
 23 24  2  0
 24 25  1  0
  6 26  1  0
 26 27  2  0
 27  3  1  0
 20 11  1  0
 25 21  1  0
  1 28  1  0
  1 29  1  0
  1 30  1  0
  4 31  1  0
  5 32  1  0
  7 33  1  0
  7 34  1  0
 12 35  1  0
 15 36  1  0
 18 37  1  0
 19 38  1  0
 22 39  1  0
 22 40  1  0
 23 41  1  0
 24 42  1  0
 25 43  1  0
 25 44  1  0
 26 45  1  0
 27 46  1  0
M  CHG  2  10  -1  15  -1
M  END
>  <UniqueID>  (18) 
18

>  <SMILES>  (18) 
COc1ccc(CC(=O)[N-]c2cc(S([NH-])(=O)=O)ccc2N2CC=CC2)cc1

>  <Energy>  (18) 
59.19877343998745

>  <Genealogy>  (18) 
COc1ccc(CC(=O)[N-]c2cc(S([NH-])(=O)=O)ccc2N2CC=CC2)cc1 (protonated)
COc1ccc(CC(=O)[N-]c2cc(S([NH-])(=O)=O)ccc2N2CC=CC2)cc1 (3D coordinates assigned)
COc1ccc(CC(=O)[N-]c2cc(S([NH-])(=O)=O)ccc2N2CC=CC2)cc1 (nonaromatic ring conformer: 59.19877343998745 kcal/mol)

>  <smiles>  (18) 
COc1ccc(CC(=O)Nc2cc(S(N)(=O)=O)ccc2N2CC=CC2)cc1

>  <score_type>  (18) 
oracle

>  <origin>  (18) 
adg

>  <m_score__min__energy>  (18) 
-12.4

>  <m_primary>  (18) 
energy

$$$$
18:0
     RDKit          3D

 63 67  0  0  1  0  0  0  0  0999 V2000
   55.2220   26.1810   46.0080 O   0  0  0  0  0  0  0  0  0  0  0  0
   56.3850   25.9650   46.4530 C   0  0  0  0  0  0  0  0  0  0  0  0
   56.7150   24.7080   47.0170 N   0  0  0  0  0  0  0  0  0  0  0  0
   55.7980   23.5960   47.1300 C   0  0  0  0  0  0  0  0  0  0  0  0
   56.4180   22.3940   46.5130 C   0  0  0  0  0  0  0  0  0  0  0  0
   56.1160   22.2020   45.1320 N   0  0  0  0  0  0  0  0  0  0  0  0
   56.4360   23.2800   44.2550 C   0  0  0  0  0  0  0  0  0  0  0  0
   55.7110   22.9840   42.9390 C   0  0  0  0  0  0  0  0  0  0  0  0
   56.2450   21.8610   42.3380 O   0  0  0  0  0  0  0  0  0  0  0  0
   57.0410   21.0890   43.1570 C   0  0  0  0  0  0  0  0  0  0  0  0
   56.5100   20.9530   44.5680 C   0  0  0  0  0  0  0  0  0  0  0  0
   57.3440   27.0710   46.3500 C   0  0  0  0  0  0  0  0  0  0  0  0
   57.4590   27.8620   45.2300 C   0  0  0  0  0  0  0  0  0  0  0  0
   62.8780   32.5170   50.7970 C   0  0  0  0  0  0  0  0  0  0  0  0
   62.2910   32.9590   49.6160 C   0  0  0  0  0  0  0  0  0  0  0  0
   60.8580   33.1280   49.5510 N   0  0  0  0  0  0  0  0  0  0  0  0
   60.2950   32.8400   48.4040 C   0  0  0  0  0  0  0  0  0  0  0  0
   60.5430   31.6430   47.8440 N   0  0  0  0  0  0  0  0  0  0  0  0
   59.9480   31.3800   46.6680 C   0  0  0  0  0  0  0  0  0  0  0  0
   60.1110   30.2710   46.0370 N   0  0  0  0  0  0  0  0  0  0  0  0
   59.2070   29.1900   46.1960 C   0  0  0  0  0  0  0  0  0  0  0  0
   58.3710   28.9060   45.1400 C   0  0  0  0  0  0  0  0  0  0  0  0
   64.2590   32.3620   50.8320 C   0  0  0  0  0  0  0  0  0  0  0  0
   65.0640   32.6290   49.7460 C   0  0  0  0  0  0  0  0  0  0  0  0
   64.4760   33.0730   48.5650 C   0  0  0  0  0  0  0  0  0  0  0  0
   59.1150   28.4160   47.3290 C   0  0  0  0  0  0  0  0  0  0  0  0
   59.4770   33.7590   47.8160 N   0  0  0  0  0  0  0  0  0  0  0  0
   58.8680   33.5220   46.6370 C   0  0  0  0  0  0  0  0  0  0  0  0
   58.0440   34.4910   46.0740 C   0  0  0  0  0  0  0  0  0  0  0  0
   57.4420   34.2030   44.8640 C   0  0  0  0  0  0  0  0  0  0  0  0
   57.6800   32.9810   44.2670 C   0  0  0  0  0  0  0  0  0  0  0  0
   58.4980   32.0200   44.8270 C   0  0  0  0  0  0  0  0  0  0  0  0
   59.1050   32.3060   46.0430 C   0  0  0  0  0  0  0  0  0  0  0  0
   63.0950   33.2290   48.5240 C   0  0  0  0  0  0  0  0  0  0  0  0
   58.1940   27.3700   47.4050 C   0  0  0  0  0  0  0  0  0  0  0  0
   57.6890   24.5890   47.3750 H   0  0  0  0  0  0  0  0  0  0  0  0
   55.5866   23.3985   48.1913 H   0  0  0  0  0  0  0  0  0  0  0  0
   54.8569   23.8359   46.6134 H   0  0  0  0  0  0  0  0  0  0  0  0
   57.5097   22.4829   46.6145 H   0  0  0  0  0  0  0  0  0  0  0  0
   55.9996   21.5257   47.0430 H   0  0  0  0  0  0  0  0  0  0  0  0
   56.0862   24.2333   44.6779 H   0  0  0  0  0  0  0  0  0  0  0  0
   57.5222   23.3683   44.1052 H   0  0  0  0  0  0  0  0  0  0  0  0
   54.6438   22.8130   43.1435 H   0  0  0  0  0  0  0  0  0  0  0  0
   55.8330   23.8431   42.2629 H   0  0  0  0  0  0  0  0  0  0  0  0
   57.1203   20.0838   42.7172 H   0  0  0  0  0  0  0  0  0  0  0  0
   58.0157   21.5940   43.2273 H   0  0  0  0  0  0  0  0  0  0  0  0
   55.6374   20.2834   44.5523 H   0  0  0  0  0  0  0  0  0  0  0  0
   57.3222   20.5496   45.1905 H   0  0  0  0  0  0  0  0  0  0  0  0
   56.8022   27.6595   44.3712 H   0  0  0  0  0  0  0  0  0  0  0  0
   62.2640   32.2953   51.6823 H   0  0  0  0  0  0  0  0  0  0  0  0
   61.1600   30.9160   48.2600 H   0  0  0  0  0  0  0  0  0  0  0  0
   58.4253   29.5082   44.2211 H   0  0  0  0  0  0  0  0  0  0  0  0
   64.7278   32.0123   51.7636 H   0  0  0  0  0  0  0  0  0  0  0  0
   66.1537   32.4935   49.8113 H   0  0  0  0  0  0  0  0  0  0  0  0
   65.0919   33.2961   47.6813 H   0  0  0  0  0  0  0  0  0  0  0  0
   59.7744   28.6235   48.1846 H   0  0  0  0  0  0  0  0  0  0  0  0
   59.2960   34.6870   48.2700 H   0  0  0  0  0  0  0  0  0  0  0  0
   57.8770   35.4555   46.5759 H   0  0  0  0  0  0  0  0  0  0  0  0
   56.7811   34.9385   44.3822 H   0  0  0  0  0  0  0  0  0  0  0  0
   57.1968   32.7636   43.3030 H   0  0  0  0  0  0  0  0  0  0  0  0
   58.6642   31.0557   44.3246 H   0  0  0  0  0  0  0  0  0  0  0  0
   62.6267   33.5787   47.5922 H   0  0  0  0  0  0  0  0  0  0  0  0
   58.1408   26.7679   48.3240 H   0  0  0  0  0  0  0  0  0  0  0  0
  1  2  2  0
  2  3  1  0
  3  4  1  0
  4  5  1  0
  5  6  1  0
  6  7  1  0
  7  8  1  0
  8  9  1  0
  9 10  1  0
 10 11  1  0
  2 12  1  0
 12 13  2  0
 13 14  1  0
 14 15  2  0
 15 16  1  0
 16 17  2  0
 17 18  1  0
 18 19  1  0
 19 20  2  0
 20 21  1  0
 21 22  2  0
 22 23  1  0
 23 24  2  0
 24 25  1  0
 25 26  2  0
 19 27  1  0
 27 28  1  0
 28 29  2  0
 29 30  1  0
 30 31  2  0
 31 32  1  0
 32 33  2  0
 15 34  1  0
 34 35  2  0
 11  6  1  0
 35 12  1  0
 33 17  1  0
 26 21  1  0
 33 28  1  0
  3 36  1  0
  4 37  1  0
  4 38  1  0
  5 39  1  0
  5 40  1  0
  7 41  1  0
  7 42  1  0
  8 43  1  0
  8 44  1  0
 10 45  1  0
 10 46  1  0
 11 47  1  0
 11 48  1  0
 13 49  1  0
 14 50  1  0
 18 51  1  0
 22 52  1  0
 23 53  1  0
 24 54  1  0
 25 55  1  0
 26 56  1  0
 27 57  1  0
 29 58  1  0
 30 59  1  0
 31 60  1  0
 32 61  1  0
 34 62  1  0
 35 63  1  0
M  END
>  <smiles>  (19) 
O=C(NCCN1CCOCC1)c1ccc(N=c2[nH]c(=Nc3ccccc3)[nH]c3ccccc23)cc1

>  <score_type>  (19) 
oracle

>  <origin>  (19) 
adg

>  <m_score__min__energy>  (19) 
-10.49

>  <m_primary>  (19) 
energy

$$$$
19:0
     RDKit          3D

 48 51  0  0  0  0  0  0  0  0999 V2000
   58.1210   28.3940   44.1270 O   0  0  0  0  0  0  0  0  0  0  0  0
   57.2350   28.4370   45.0200 C   0  0  0  0  0  0  0  0  0  0  0  0
   56.7100   27.2080   45.5330 N   0  0  0  0  0  0  0  0  0  0  0  0
   57.3240   25.9170   45.4060 C   0  0  0  0  0  0  0  0  0  0  0  0
   56.6380   24.8410   44.8150 C   0  0  0  0  0  0  0  0  0  0  0  0
   57.2270   23.5760   44.7540 C   0  0  0  0  0  0  0  0  0  0  0  0
   58.4950   23.3670   45.2980 C   0  0  0  0  0  0  0  0  0  0  0  0
   59.1770   24.4220   45.9070 C   0  0  0  0  0  0  0  0  0  0  0  0
   58.5990   25.7000   45.9680 C   0  0  0  0  0  0  0  0  0  0  0  0
   59.3150   26.7790   46.5900 N   0  0  0  0  0  0  0  0  0  0  0  0
   58.8300   27.3300   47.8630 C   0  0  0  0  0  0  0  0  0  0  0  0
   59.6310   28.5720   48.2790 C   0  0  0  0  0  0  0  0  0  0  0  0
   59.8390   29.4950   47.0750 C   0  0  0  0  0  0  0  0  0  0  0  0
   60.5750   28.8000   45.9100 C   0  0  0  0  0  0  0  0  0  0  0  0
   60.5720   27.2650   46.0050 C   0  0  0  0  0  0  0  0  0  0  0  0
   56.6890   29.7000   45.4370 N   0  0  0  0  0  0  0  0  0  0  0  0
   57.3520   30.9620   45.2480 C   0  0  0  0  0  0  0  0  0  0  0  0
   57.5100   31.4660   43.9490 C   0  0  0  0  0  0  0  0  0  0  0  0
   58.1310   32.6990   43.7320 C   0  0  0  0  0  0  0  0  0  0  0  0
   58.5890   33.4570   44.8180 C   0  0  0  0  0  0  0  0  0  0  0  0
   59.2130   34.6970   44.6130 C   0  0  0  0  0  0  0  0  0  0  0  0
   59.6580   35.4480   45.7060 C   0  0  0  0  0  0  0  0  0  0  0  0
   59.4850   34.9680   47.0060 C   0  0  0  0  0  0  0  0  0  0  0  0
   58.8650   33.7340   47.2250 C   0  0  0  0  0  0  0  0  0  0  0  0
   58.4160   32.9690   46.1370 C   0  0  0  0  0  0  0  0  0  0  0  0
   57.7920   31.7290   46.3420 C   0  0  0  0  0  0  0  0  0  0  0  0
   55.6319   24.9965   44.3984 H   0  0  0  0  0  0  0  0  0  0  0  0
   56.6904   22.7430   44.2763 H   0  0  0  0  0  0  0  0  0  0  0  0
   58.9575   22.3703   45.2469 H   0  0  0  0  0  0  0  0  0  0  0  0
   60.1729   24.2510   46.3416 H   0  0  0  0  0  0  0  0  0  0  0  0
   57.7714   27.6077   47.7523 H   0  0  0  0  0  0  0  0  0  0  0  0
   58.9537   26.5625   48.6412 H   0  0  0  0  0  0  0  0  0  0  0  0
   59.0801   29.1143   49.0616 H   0  0  0  0  0  0  0  0  0  0  0  0
   60.6123   28.2546   48.6616 H   0  0  0  0  0  0  0  0  0  0  0  0
   58.8554   29.8336   46.7174 H   0  0  0  0  0  0  0  0  0  0  0  0
   60.4641   30.3371   47.4068 H   0  0  0  0  0  0  0  0  0  0  0  0
   60.0868   29.0906   44.9681 H   0  0  0  0  0  0  0  0  0  0  0  0
   61.6256   29.1229   45.9552 H   0  0  0  0  0  0  0  0  0  0  0  0
   60.6875   26.8414   44.9964 H   0  0  0  0  0  0  0  0  0  0  0  0
   61.4051   26.9510   46.6510 H   0  0  0  0  0  0  0  0  0  0  0  0
   55.7160   29.7050   45.8170 H   0  0  0  0  0  0  0  0  0  0  0  0
   57.1410   30.8844   43.0913 H   0  0  0  0  0  0  0  0  0  0  0  0
   58.2606   33.0753   42.7065 H   0  0  0  0  0  0  0  0  0  0  0  0
   59.3525   35.0792   43.5910 H   0  0  0  0  0  0  0  0  0  0  0  0
   60.1459   36.4200   45.5410 H   0  0  0  0  0  0  0  0  0  0  0  0
   59.8379   35.5631   47.8611 H   0  0  0  0  0  0  0  0  0  0  0  0
   58.7289   33.3622   48.2513 H   0  0  0  0  0  0  0  0  0  0  0  0
   57.6458   31.3540   47.3657 H   0  0  0  0  0  0  0  0  0  0  0  0
  1  2  2  0
  2  3  1  0
  3  4  1  0
  4  5  2  0
  5  6  1  0
  6  7  2  0
  7  8  1  0
  8  9  2  0
  9 10  1  0
 10 11  1  0
 11 12  1  0
 12 13  1  0
 13 14  1  0
 14 15  1  0
  2 16  1  0
 16 17  1  0
 17 18  2  0
 18 19  1  0
 19 20  2  0
 20 21  1  0
 21 22  2  0
 22 23  1  0
 23 24  2  0
 24 25  1  0
 25 26  2  0
  9  4  1  0
 15 10  1  0
 26 17  1  0
 25 20  1  0
  5 27  1  0
  6 28  1  0
  7 29  1  0
  8 30  1  0
 11 31  1  0
 11 32  1  0
 12 33  1  0
 12 34  1  0
 13 35  1  0
 13 36  1  0
 14 37  1  0
 14 38  1  0
 15 39  1  0
 15 40  1  0
 16 41  1  0
 18 42  1  0
 19 43  1  0
 21 44  1  0
 22 45  1  0
 23 46  1  0
 24 47  1  0
 26 48  1  0
M  CHG  1   3  -1
M  END
>  <UniqueID>  (20) 
19

>  <SMILES>  (20) 
O=C([N-]c1ccccc1N1CCCCC1)Nc1ccc2ccccc2c1

>  <Energy>  (20) 
66.76443098277632

>  <Genealogy>  (20) 
O=C([N-]c1ccccc1N1CCCCC1)Nc1ccc2ccccc2c1 (protonated)
O=C([N-]c1ccccc1N1CCCCC1)Nc1ccc2ccccc2c1 (3D coordinates assigned)
O=C([N-]c1ccccc1N1CCCCC1)Nc1ccc2ccccc2c1 (nonaromatic ring conformer: 66.76443098277632 kcal/mol)

>  <smiles>  (20) 
O=C(Nc1ccc2ccccc2c1)Nc1ccccc1N1CCCCC1

>  <score_type>  (20) 
oracle

>  <origin>  (20) 
adg

>  <m_score__min__energy>  (20) 
-10.050000000000001

>  <m_primary>  (20) 
energy

$$$$
20:0
     RDKit          3D

 62 65  0  0  1  0  0  0  0  0999 V2000
   59.4900   33.8390   52.0170 C   0  0  0  0  0  0  0  0  0  0  0  0
   59.5010   32.6840   51.2020 O   0  0  0  0  0  0  0  0  0  0  0  0
   59.8020   31.4130   51.6370 C   0  0  0  0  0  0  0  0  0  0  0  0
   61.1170   31.0650   51.8690 C   0  0  0  0  0  0  0  0  0  0  0  0
   62.2070   31.9530   51.6830 N   0  0  0  0  0  0  0  0  0  0  0  0
   62.4700   32.3790   50.4900 C   0  0  0  0  0  0  0  0  0  0  0  0
   63.5670   33.1390   50.2700 N   0  0  0  0  0  0  0  0  0  0  0  0
   63.7920   33.5540   49.0130 C   0  0  0  0  0  0  0  0  0  0  0  0
   62.9720   33.2490   47.9530 C   0  0  0  0  0  0  0  0  0  0  0  0
   63.3200   33.8160   46.3660 Cl  0  0  0  0  0  0  0  0  0  0  0  0
   61.8660   32.4740   48.2160 C   0  0  0  0  0  0  0  0  0  0  0  0
   61.0730   32.1590   47.2840 N   0  0  0  0  0  0  0  0  0  0  0  0
   60.3880   30.9270   47.1200 C   0  0  0  0  0  0  0  0  0  0  0  0
   59.9800   30.0270   48.1170 C   0  0  0  0  0  0  0  0  0  0  0  0
   59.3370   28.9870   47.5300 N   0  0  0  0  0  0  0  0  0  0  0  0
   59.3140   29.1800   46.2090 N   0  0  0  0  0  0  0  0  0  0  0  0
   58.7020   28.2620   45.2340 C   0  0  0  0  0  0  0  0  0  0  0  0
   57.2260   28.1340   45.5090 C   0  0  0  0  0  0  0  0  0  0  0  0
   56.5460   29.3480   45.4790 O   0  0  0  0  0  0  0  0  0  0  0  0
   56.5550   30.2570   44.4310 C   0  0  0  0  0  0  0  0  0  0  0  0
   56.5600   29.8140   43.2790 O   0  0  0  0  0  0  0  0  0  0  0  0
   56.5570   31.5870   44.7330 O   0  0  0  0  0  0  0  0  0  0  0  0
   57.4790   32.5190   44.2610 C   0  0  0  0  0  0  0  0  0  0  0  0
   58.1010   33.2640   45.3750 C   0  0  0  0  0  0  0  0  0  0  0  0
   57.8540   33.0620   46.7000 C   0  0  0  0  0  0  0  0  0  0  0  0
   58.4750   33.8220   47.6700 C   0  0  0  0  0  0  0  0  0  0  0  0
   59.3720   34.8150   47.3430 C   0  0  0  0  0  0  0  0  0  0  0  0
   59.6380   35.0350   45.9990 C   0  0  0  0  0  0  0  0  0  0  0  0
   59.0080   34.2670   45.0450 C   0  0  0  0  0  0  0  0  0  0  0  0
   59.9400   30.3420   45.9260 C   0  0  0  0  0  0  0  0  0  0  0  0
   61.6380   32.0560   49.4770 N   0  0  0  0  0  0  0  0  0  0  0  0
   61.4440   29.7790   52.3120 C   0  0  0  0  0  0  0  0  0  0  0  0
   60.4780   28.8190   52.5320 C   0  0  0  0  0  0  0  0  0  0  0  0
   59.1700   29.1760   52.2980 C   0  0  0  0  0  0  0  0  0  0  0  0
   58.8440   30.4380   51.8630 C   0  0  0  0  0  0  0  0  0  0  0  0
   57.4340   30.7500   51.6340 C   0  0  0  0  0  0  0  0  0  0  0  0
   57.0260   32.0080   51.1120 N   0  0  0  0  0  0  0  0  0  0  0  0
   56.5200   29.9180   51.8870 O   0  0  0  0  0  0  0  0  0  0  0  0
   59.4928   33.5407   53.0758 H   0  0  0  0  0  0  0  0  0  0  0  0
   60.3824   34.4461   51.8047 H   0  0  0  0  0  0  0  0  0  0  0  0
   58.5862   34.4290   51.8047 H   0  0  0  0  0  0  0  0  0  0  0  0
   64.1870   33.3730   51.0570 H   0  0  0  0  0  0  0  0  0  0  0  0
   64.6815   34.1720   48.8210 H   0  0  0  0  0  0  0  0  0  0  0  0
   60.1533   30.1457   49.1968 H   0  0  0  0  0  0  0  0  0  0  0  0
   58.8512   28.6562   44.2180 H   0  0  0  0  0  0  0  0  0  0  0  0
   59.1745   27.2725   45.3211 H   0  0  0  0  0  0  0  0  0  0  0  0
   56.7870   27.4707   44.7492 H   0  0  0  0  0  0  0  0  0  0  0  0
   57.1215   27.7310   46.5272 H   0  0  0  0  0  0  0  0  0  0  0  0
   58.2642   31.9937   43.6975 H   0  0  0  0  0  0  0  0  0  0  0  0
   56.9514   33.2350   43.6137 H   0  0  0  0  0  0  0  0  0  0  0  0
   57.1451   32.2771   47.0024 H   0  0  0  0  0  0  0  0  0  0  0  0
   58.2484   33.6304   48.7292 H   0  0  0  0  0  0  0  0  0  0  0  0
   59.8625   35.4152   48.1235 H   0  0  0  0  0  0  0  0  0  0  0  0
   60.3484   35.8187   45.6971 H   0  0  0  0  0  0  0  0  0  0  0  0
   59.2296   34.4530   43.9837 H   0  0  0  0  0  0  0  0  0  0  0  0
   60.0771   30.7633   44.9192 H   0  0  0  0  0  0  0  0  0  0  0  0
   60.7880   31.4650   49.6580 H   0  0  0  0  0  0  0  0  0  0  0  0
   62.4998   29.5265   52.4897 H   0  0  0  0  0  0  0  0  0  0  0  0
   60.7426   27.8097   52.8802 H   0  0  0  0  0  0  0  0  0  0  0  0
   58.3710   28.4380   52.4621 H   0  0  0  0  0  0  0  0  0  0  0  0
   56.6240   32.0040   50.1430 H   0  0  0  0  0  0  0  0  0  0  0  0
   57.1100   32.9090   51.6440 H   0  0  0  0  0  0  0  0  0  0  0  0
  1  2  1  0
  2  3  1  0
  3  4  2  0
  4  5  1  0
  5  6  2  0
  6  7  1  0
  7  8  1  0
  8  9  2  0
  9 10  1  0
  9 11  1  0
 11 12  2  0
 12 13  1  0
 13 14  1  0
 14 15  2  0
 15 16  1  0
 16 17  1  0
 17 18  1  0
 18 19  1  0
 19 20  1  0
 20 21  2  0
 20 22  1  0
 22 23  1  0
 23 24  1  0
 24 25  2  0
 25 26  1  0
 26 27  2  0
 27 28  1  0
 28 29  2  0
 16 30  1  0
 11 31  1  0
  4 32  1  0
 32 33  2  0
 33 34  1  0
 34 35  2  0
 35 36  1  0
 36 37  1  0
 36 38  2  0
 35  3  1  0
 31  6  1  0
 30 13  2  0
 29 24  1  0
  1 39  1  0
  1 40  1  0
  1 41  1  0
  7 42  1  0
  8 43  1  0
 14 44  1  0
 17 45  1  0
 17 46  1  0
 18 47  1  0
 18 48  1  0
 23 49  1  0
 23 50  1  0
 25 51  1  0
 26 52  1  0
 27 53  1  0
 28 54  1  0
 29 55  1  0
 30 56  1  0
 31 57  1  0
 32 58  1  0
 33 59  1  0
 34 60  1  0
 37 61  1  0
 37 62  1  0
M  END
>  <smiles>  (21) 
COc1c(N=c2[nH]cc(Cl)c(=Nc3cnn(CCOC(=O)OCc4ccccc4)c3)[nH]2)cccc1C(N)=O

>  <score_type>  (21) 
oracle

>  <origin>  (21) 
adg

>  <m_score__min__energy>  (21) 
-8.7400000000000002

>  <m_primary>  (21) 
energy

$$$$
21:0
     RDKit          3D

 53 55  0  0  0  0  0  0  0  0999 V2000
   59.6930   26.3980   48.7450 O   0  0  0  0  0  0  0  0  0  0  0  0
   59.7070   26.6110   47.5030 C   0  0  0  0  0  0  0  0  0  0  0  0
   58.6340   26.1110   46.7000 N   0  0  0  0  0  0  0  0  0  0  0  0
   57.5260   26.9060   46.1670 C   0  0  1  0  0  0  0  0  0  0  0  0
   57.7720   27.2670   44.6870 C   0  0  0  0  0  0  0  0  0  0  0  0
   57.5080   28.7280   44.4160 C   0  0  0  0  0  0  0  0  0  0  0  0
   58.5790   29.6080   44.1810 C   0  0  0  0  0  0  0  0  0  0  0  0
   58.3360   30.9650   43.9440 C   0  0  0  0  0  0  0  0  0  0  0  0
   57.0270   31.4530   43.9440 C   0  0  0  0  0  0  0  0  0  0  0  0
   55.9580   30.5850   44.1790 C   0  0  0  0  0  0  0  0  0  0  0  0
   56.1940   29.2280   44.4160 C   0  0  0  0  0  0  0  0  0  0  0  0
   56.2160   26.1980   46.3950 C   0  0  0  0  0  0  0  0  0  0  0  0
   55.1460   26.7170   45.9790 O   0  0  0  0  0  0  0  0  0  0  0  0
   56.1620   25.0070   47.1070 O   0  0  0  0  0  0  0  0  0  0  0  0
   60.7570   27.3260   46.9180 O   0  0  0  0  0  0  0  0  0  0  0  0
   60.5640   28.4820   46.1060 C   0  0  0  0  0  0  0  0  0  0  0  0
   60.6700   29.7290   46.9400 C   0  0  0  0  0  0  0  0  0  0  0  0
   61.7470   30.6130   46.7740 C   0  0  0  0  0  0  0  0  0  0  0  0
   61.8270   31.7790   47.5400 C   0  0  0  0  0  0  0  0  0  0  0  0
   60.8240   32.0840   48.4750 C   0  0  0  0  0  0  0  0  0  0  0  0
   60.9280   33.3200   49.3260 C   0  0  0  0  0  0  0  0  0  0  0  0
   59.6620   34.1720   49.1950 C   0  0  0  0  0  0  0  0  0  0  0  0
   59.2370   34.2700   47.7540 C   0  0  0  0  0  0  0  0  0  0  0  0
   58.0590   33.6400   47.3200 C   0  0  0  0  0  0  0  0  0  0  0  0
   57.6810   33.7050   45.9750 C   0  0  0  0  0  0  0  0  0  0  0  0
   58.4790   34.3900   45.0550 C   0  0  0  0  0  0  0  0  0  0  0  0
   59.6600   35.0070   45.4770 C   0  0  0  0  0  0  0  0  0  0  0  0
   60.0420   34.9440   46.8210 C   0  0  0  0  0  0  0  0  0  0  0  0
   59.7530   31.1930   48.6480 C   0  0  0  0  0  0  0  0  0  0  0  0
   59.6740   30.0270   47.8820 C   0  0  0  0  0  0  0  0  0  0  0  0
   57.4690   27.8605   46.7107 H   0  0  0  0  0  0  0  0  0  0  0  0
   58.8186   27.0413   44.4345 H   0  0  0  0  0  0  0  0  0  0  0  0
   57.0803   26.6741   44.0705 H   0  0  0  0  0  0  0  0  0  0  0  0
   59.6113   29.2282   44.1835 H   0  0  0  0  0  0  0  0  0  0  0  0
   59.1770   31.6490   43.7573 H   0  0  0  0  0  0  0  0  0  0  0  0
   56.8381   32.5207   43.7590 H   0  0  0  0  0  0  0  0  0  0  0  0
   54.9278   30.9705   44.1775 H   0  0  0  0  0  0  0  0  0  0  0  0
   55.3490   28.5490   44.6031 H   0  0  0  0  0  0  0  0  0  0  0  0
   61.3324   28.5052   45.3192 H   0  0  0  0  0  0  0  0  0  0  0  0
   59.5624   28.4382   45.6533 H   0  0  0  0  0  0  0  0  0  0  0  0
   62.5321   30.3871   46.0374 H   0  0  0  0  0  0  0  0  0  0  0  0
   62.6798   32.4615   47.4101 H   0  0  0  0  0  0  0  0  0  0  0  0
   61.0582   33.0250   50.3777 H   0  0  0  0  0  0  0  0  0  0  0  0
   61.7910   33.9123   48.9876 H   0  0  0  0  0  0  0  0  0  0  0  0
   58.8531   33.7101   49.7800 H   0  0  0  0  0  0  0  0  0  0  0  0
   59.8741   35.1833   49.5721 H   0  0  0  0  0  0  0  0  0  0  0  0
   57.4319   33.0939   48.0401 H   0  0  0  0  0  0  0  0  0  0  0  0
   56.7540   33.2161   45.6409 H   0  0  0  0  0  0  0  0  0  0  0  0
   58.1777   34.4437   43.9984 H   0  0  0  0  0  0  0  0  0  0  0  0
   60.2897   35.5427   44.7514 H   0  0  0  0  0  0  0  0  0  0  0  0
   60.9760   35.4239   47.1484 H   0  0  0  0  0  0  0  0  0  0  0  0
   58.9720   31.4139   49.3904 H   0  0  0  0  0  0  0  0  0  0  0  0
   58.8265   29.3392   48.0183 H   0  0  0  0  0  0  0  0  0  0  0  0
  1  2  2  0
  2  3  1  0
  3  4  1  0
  4  5  1  0
  5  6  1  0
  6  7  2  0
  7  8  1  0
  8  9  2  0
  9 10  1  0
 10 11  2  0
  4 12  1  0
 12 13  2  0
 12 14  1  0
  2 15  1  0
 15 16  1  0
 16 17  1  0
 17 18  2  0
 18 19  1  0
 19 20  2  0
 20 21  1  0
 21 22  1  0
 22 23  1  0
 23 24  2  0
 24 25  1  0
 25 26  2  0
 26 27  1  0
 27 28  2  0
 20 29  1  0
 29 30  2  0
 11  6  1  0
 30 17  1  0
 28 23  1  0
  4 31  1  1
  5 32  1  0
  5 33  1  0
  7 34  1  0
  8 35  1  0
  9 36  1  0
 10 37  1  0
 11 38  1  0
 16 39  1  0
 16 40  1  0
 18 41  1  0
 19 42  1  0
 21 43  1  0
 21 44  1  0
 22 45  1  0
 22 46  1  0
 24 47  1  0
 25 48  1  0
 26 49  1  0
 27 50  1  0
 28 51  1  0
 29 52  1  0
 30 53  1  0
M  CHG  2   3  -1  14  -1
M  END
>  <UniqueID>  (22) 
20

>  <SMILES>  (22) 
O=C([N-][C@@H](Cc1ccccc1)C(=O)[O-])OCc1ccc(CCc2ccccc2)cc1

>  <Energy>  (22) 
46.774372005894705

>  <Genealogy>  (22) 
O=C([N-]C(Cc1ccccc1)C(=O)[O-])OCc1ccc(CCc2ccccc2)cc1 (protonated)
O=C([N-][C@@H](Cc1ccccc1)C(=O)[O-])OCc1ccc(CCc2ccccc2)cc1 (chirality)
O=C([N-][C@@H](Cc1ccccc1)C(=O)[O-])OCc1ccc(CCc2ccccc2)cc1 (3D coordinates assigned)
O=C([N-][C@@H](Cc1ccccc1)C(=O)[O-])OCc1ccc(CCc2ccccc2)cc1 (optimized conformer: 46.774372005894705 kcal/mol)

>  <smiles>  (22) 
O=C(NC(Cc1ccccc1)C(=O)O)OCc1ccc(CCc2ccccc2)cc1

>  <score_type>  (22) 
oracle

>  <origin>  (22) 
adg

>  <m_score__min__energy>  (22) 
-14.59

>  <m_primary>  (22) 
energy

$$$$
22:0
     RDKit          3D

 31 32  0  0  0  0  0  0  0  0999 V2000
   59.1670   34.6020   46.3370 C   0  0  0  0  0  0  0  0  0  0  0  0
   60.0690   33.4440   46.6470 C   0  0  0  0  0  0  0  0  0  0  0  0
   61.3520   33.6670   47.1640 C   0  0  0  0  0  0  0  0  0  0  0  0
   62.1750   32.5880   47.4900 C   0  0  0  0  0  0  0  0  0  0  0  0
   61.7240   31.2780   47.3100 C   0  0  0  0  0  0  0  0  0  0  0  0
   60.4370   31.0330   46.7990 C   0  0  0  0  0  0  0  0  0  0  0  0
   59.9350   29.6500   46.6170 C   0  0  0  0  0  0  0  0  0  0  0  0
   60.6950   28.6780   46.8810 O   0  0  0  0  0  0  0  0  0  0  0  0
   58.5940   29.3980   46.1610 N   0  0  0  0  0  0  0  0  0  0  0  0
   58.1040   28.0500   45.8880 C   0  0  0  0  0  0  0  0  0  0  0  0
   56.6370   28.0820   45.6000 C   0  0  0  0  0  0  0  0  0  0  0  0
   55.9720   27.0120   45.6570 O   0  0  0  0  0  0  0  0  0  0  0  0
   56.0180   29.3240   45.2280 N   0  0  0  0  0  0  0  0  0  0  0  0
   56.5260   30.2280   44.4450 C   0  0  0  0  0  0  0  0  0  0  0  0
   57.0290   31.4090   44.8680 N   0  0  0  0  0  0  0  0  0  0  0  0
   57.4870   32.1550   43.8280 C   0  0  0  0  0  0  0  0  0  0  0  0
   57.3490   31.5670   42.5740 C   0  0  0  0  0  0  0  0  0  0  0  0
   56.6260   30.0610   42.7790 S   0  0  0  0  0  0  0  0  0  0  0  0
   59.6090   32.1270   46.4840 C   0  0  0  0  0  0  0  0  0  0  0  0
   58.8149   35.0541   47.2759 H   0  0  0  0  0  0  0  0  0  0  0  0
   59.7209   35.3524   45.7539 H   0  0  0  0  0  0  0  0  0  0  0  0
   58.3038   34.2486   45.7539 H   0  0  0  0  0  0  0  0  0  0  0  0
   61.7117   34.6957   47.3134 H   0  0  0  0  0  0  0  0  0  0  0  0
   63.1833   32.7698   47.8905 H   0  0  0  0  0  0  0  0  0  0  0  0
   62.3793   30.4335   47.5695 H   0  0  0  0  0  0  0  0  0  0  0  0
   57.9150   30.1870   46.0750 H   0  0  0  0  0  0  0  0  0  0  0  0
   58.6363   27.6393   45.0174 H   0  0  0  0  0  0  0  0  0  0  0  0
   58.2828   27.4177   46.7702 H   0  0  0  0  0  0  0  0  0  0  0  0
   57.9339   33.1504   43.9673 H   0  0  0  0  0  0  0  0  0  0  0  0
   57.6586   32.0096   41.6157 H   0  0  0  0  0  0  0  0  0  0  0  0
   58.5914   31.9486   46.1064 H   0  0  0  0  0  0  0  0  0  0  0  0
  1  2  1  0
  2  3  2  0
  3  4  1  0
  4  5  2  0
  5  6  1  0
  6  7  1  0
  7  8  2  0
  7  9  1  0
  9 10  1  0
 10 11  1  0
 11 12  2  0
 11 13  1  0
 13 14  2  3
 14 15  1  0
 15 16  1  0
 16 17  2  0
 17 18  1  0
  6 19  2  0
 19  2  1  0
 18 14  1  0
  1 20  1  0
  1 21  1  0
  1 22  1  0
  3 23  1  0
  4 24  1  0
  5 25  1  0
  9 26  1  0
 10 27  1  0
 10 28  1  0
 16 29  1  0
 17 30  1  0
 19 31  1  0
M  CHG  1  15  -1
M  END
>  <UniqueID>  (23) 
21

>  <SMILES>  (23) 
Cc1cccc(C(=O)NCC(=O)N=c2[n-]ccs2)c1

>  <Energy>  (23) 
61.82972689840345

>  <Genealogy>  (23) 
Cc1cccc(C(=O)NCC(=O)N=c2[n-]ccs2)c1 (protonated)
Cc1cccc(C(=O)NCC(=O)N=c2[n-]ccs2)c1 (3D coordinates assigned)
Cc1cccc(C(=O)NCC(=O)N=c2[n-]ccs2)c1 (optimized conformer: 61.82972689840345 kcal/mol)

>  <smiles>  (23) 
Cc1cccc(C(=O)NCC(=O)N=c2[nH]ccs2)c1

>  <score_type>  (23) 
oracle

>  <origin>  (23) 
adg

>  <m_score__min__energy>  (23) 
-9.7100000000000009

>  <m_primary>  (23) 
energy

$$$$
23:0
     RDKit          3D

 42 44  0  0  0  0  0  0  0  0999 V2000
   55.3090   26.7100   45.9830 N   0  0  0  0  0  0  0  0  0  0  0  0
   56.8120   25.9370   46.3540 S   0  0  0  0  0  0  0  0  0  0  0  0
   57.1740   25.0170   45.2220 O   0  0  0  0  0  0  0  0  0  0  0  0
   56.6480   25.1370   47.6170 O   0  0  0  0  0  0  0  0  0  0  0  0
   58.0970   27.1310   46.5780 C   0  0  0  0  0  0  0  0  0  0  0  0
   58.9290   27.0580   47.7060 C   0  0  0  0  0  0  0  0  0  0  0  0
   59.9450   28.0000   47.9160 C   0  0  0  0  0  0  0  0  0  0  0  0
   60.7740   27.8910   49.0870 N   0  0  0  0  0  0  0  0  0  0  0  0
   60.8240   29.0790   50.3520 S   0  0  0  0  0  0  0  0  0  0  0  0
   59.9580   28.6270   51.4960 O   0  0  0  0  0  0  0  0  0  0  0  0
   62.2380   29.2340   50.8380 O   0  0  0  0  0  0  0  0  0  0  0  0
   60.2660   30.6250   49.7360 C   0  0  0  0  0  0  0  0  0  0  0  0
   58.9760   31.1200   49.8490 C   0  0  0  0  0  0  0  0  0  0  0  0
   58.8310   32.3980   49.2900 C   0  0  0  0  0  0  0  0  0  0  0  0
   60.0060   32.9040   48.7440 C   0  0  0  0  0  0  0  0  0  0  0  0
   61.2260   31.7630   48.9570 S   0  0  0  0  0  0  0  0  0  0  0  0
   60.1160   29.0360   46.9820 C   0  0  0  0  0  0  0  0  0  0  0  0
   59.3030   29.1090   45.8500 C   0  0  0  0  0  0  0  0  0  0  0  0
   58.2900   28.1570   45.6320 C   0  0  0  0  0  0  0  0  0  0  0  0
   57.4550   28.2050   44.4650 N   0  0  0  0  0  0  0  0  0  0  0  0
   56.4170   29.5200   44.0220 S   0  0  0  0  0  0  0  0  0  0  0  0
   55.1590   29.4560   44.8420 O   0  0  0  0  0  0  0  0  0  0  0  0
   56.0540   29.3980   42.5680 O   0  0  0  0  0  0  0  0  0  0  0  0
   57.2290   31.0490   44.3470 C   0  0  0  0  0  0  0  0  0  0  0  0
   57.7050   31.8480   43.2960 C   0  0  0  0  0  0  0  0  0  0  0  0
   58.3590   33.0530   43.5700 C   0  0  0  0  0  0  0  0  0  0  0  0
   58.5410   33.4660   44.8950 C   0  0  0  0  0  0  0  0  0  0  0  0
   59.3640   34.9780   45.2380 Cl  0  0  0  0  0  0  0  0  0  0  0  0
   58.0680   32.6730   45.9450 C   0  0  0  0  0  0  0  0  0  0  0  0
   57.4140   31.4660   45.6730 C   0  0  0  0  0  0  0  0  0  0  0  0
   55.5150   27.4590   45.2840 H   0  0  0  0  0  0  0  0  0  0  0  0
   58.7813   26.2489   48.4364 H   0  0  0  0  0  0  0  0  0  0  0  0
   61.4510   27.0990   49.1570 H   0  0  0  0  0  0  0  0  0  0  0  0
   58.1529   30.5685   50.3268 H   0  0  0  0  0  0  0  0  0  0  0  0
   57.8784   32.9481   49.2839 H   0  0  0  0  0  0  0  0  0  0  0  0
   60.1191   33.8833   48.2559 H   0  0  0  0  0  0  0  0  0  0  0  0
   60.8959   29.7945   47.1442 H   0  0  0  0  0  0  0  0  0  0  0  0
   59.4556   29.9186   45.1211 H   0  0  0  0  0  0  0  0  0  0  0  0
   57.5632   31.5254   42.2540 H   0  0  0  0  0  0  0  0  0  0  0  0
   58.7307   33.6769   42.7438 H   0  0  0  0  0  0  0  0  0  0  0  0
   58.2101   32.9983   46.9862 H   0  0  0  0  0  0  0  0  0  0  0  0
   57.0444   30.8432   46.5010 H   0  0  0  0  0  0  0  0  0  0  0  0
  1  2  1  0
  2  3  2  0
  2  4  2  0
  2  5  1  0
  5  6  2  0
  6  7  1  0
  7  8  1  0
  8  9  1  0
  9 10  2  0
  9 11  2  0
  9 12  1  0
 12 13  2  0
 13 14  1  0
 14 15  2  0
 15 16  1  0
  7 17  2  0
 17 18  1  0
 18 19  2  0
 19 20  1  0
 20 21  1  0
 21 22  2  0
 21 23  2  0
 21 24  1  0
 24 25  2  0
 25 26  1  0
 26 27  2  0
 27 28  1  0
 27 29  1  0
 29 30  2  0
 19  5  1  0
 30 24  1  0
 16 12  1  0
  1 31  1  0
  6 32  1  0
  8 33  1  0
 13 34  1  0
 14 35  1  0
 15 36  1  0
 17 37  1  0
 18 38  1  0
 25 39  1  0
 26 40  1  0
 29 41  1  0
 30 42  1  0
M  CHG  2   1  -1  20  -1
M  END
>  <UniqueID>  (24) 
22

>  <SMILES>  (24) 
[NH-]S(=O)(=O)c1cc(NS(=O)(=O)c2cccs2)ccc1[N-]S(=O)(=O)c1ccc(Cl)cc1

>  <Energy>  (24) 
76.84450880105122

>  <Genealogy>  (24) 
[NH-]S(=O)(=O)c1cc(NS(=O)(=O)c2cccs2)ccc1[N-]S(=O)(=O)c1ccc(Cl)cc1 (protonated)
[NH-]S(=O)(=O)c1cc(NS(=O)(=O)c2cccs2)ccc1[N-]S(=O)(=O)c1ccc(Cl)cc1 (3D coordinates assigned)
[NH-]S(=O)(=O)c1cc(NS(=O)(=O)c2cccs2)ccc1[N-]S(=O)(=O)c1ccc(Cl)cc1 (optimized conformer: 76.84450880105122 kcal/mol)

>  <smiles>  (24) 
NS(=O)(=O)c1cc(NS(=O)(=O)c2cccs2)ccc1NS(=O)(=O)c1ccc(Cl)cc1

>  <score_type>  (24) 
oracle

>  <origin>  (24) 
adg

>  <m_score__min__energy>  (24) 
-13.970000000000001

>  <m_primary>  (24) 
energy

$$$$
24:0
     RDKit          3D

 32 34  0  0  0  0  0  0  0  0999 V2000
   58.0990   33.7690   45.7120 C   0  0  0  0  0  0  0  0  0  0  0  0
   58.1140   32.2750   45.6720 C   0  0  0  0  0  0  0  0  0  0  0  0
   57.2410   31.5800   44.8060 C   0  0  0  0  0  0  0  0  0  0  0  0
   57.2690   30.1740   44.7900 C   0  0  0  0  0  0  0  0  0  0  0  0
   56.3420   29.3930   43.9030 C   0  0  0  0  0  0  0  0  0  0  0  0
   56.1170   30.0890   42.7280 F   0  0  0  0  0  0  0  0  0  0  0  0
   55.1400   29.1930   44.5520 F   0  0  0  0  0  0  0  0  0  0  0  0
   58.1370   29.5600   45.6370 N   0  0  0  0  0  0  0  0  0  0  0  0
   58.3370   28.2690   45.8140 N   0  0  0  0  0  0  0  0  0  0  0  0
   59.2970   28.1990   46.7710 C   0  0  0  0  0  0  0  0  0  0  0  0
   59.8470   26.9250   47.2610 C   0  0  0  0  0  0  0  0  0  0  0  0
   61.0280   26.8940   47.6960 O   0  0  0  0  0  0  0  0  0  0  0  0
   59.0560   25.7310   47.3250 N   0  0  0  0  0  0  0  0  0  0  0  0
   57.9720   25.3890   46.4490 C   0  0  0  0  0  0  0  0  0  0  0  0
   58.1040   24.3870   45.4710 C   0  0  0  0  0  0  0  0  0  0  0  0
   57.0190   24.0580   44.6510 C   0  0  0  0  0  0  0  0  0  0  0  0
   55.7950   24.7120   44.8120 C   0  0  0  0  0  0  0  0  0  0  0  0
   55.6500   25.6910   45.8010 C   0  0  0  0  0  0  0  0  0  0  0  0
   54.4300   26.3330   45.9690 O   0  0  0  0  0  0  0  0  0  0  0  0
   56.7340   26.0220   46.6210 C   0  0  0  0  0  0  0  0  0  0  0  0
   59.7210   29.4200   47.1970 N   0  0  0  0  0  0  0  0  0  0  0  0
   58.9530   30.2300   46.4520 C   0  0  0  0  0  0  0  0  0  0  0  0
   58.9630   31.5840   46.4910 N   0  0  0  0  0  0  0  0  0  0  0  0
   58.0956   34.1078   46.7585 H   0  0  0  0  0  0  0  0  0  0  0  0
   58.9933   34.1584   45.2035 H   0  0  0  0  0  0  0  0  0  0  0  0
   57.1971   34.1404   45.2035 H   0  0  0  0  0  0  0  0  0  0  0  0
   56.5485   32.1311   44.1528 H   0  0  0  0  0  0  0  0  0  0  0  0
   56.8022   28.4217   43.6688 H   0  0  0  0  0  0  0  0  0  0  0  0
   59.0624   23.8607   45.3504 H   0  0  0  0  0  0  0  0  0  0  0  0
   57.1300   23.2831   43.8782 H   0  0  0  0  0  0  0  0  0  0  0  0
   54.9454   24.4573   44.1613 H   0  0  0  0  0  0  0  0  0  0  0  0
   56.6137   26.7837   47.4054 H   0  0  0  0  0  0  0  0  0  0  0  0
  1  2  1  0
  2  3  1  0
  3  4  2  0
  4  5  1  0
  5  6  1  0
  5  7  1  0
  4  8  1  0
  8  9  1  0
  9 10  2  0
 10 11  1  0
 11 12  2  0
 11 13  1  0
 13 14  1  0
 14 15  2  0
 15 16  1  0
 16 17  2  0
 17 18  1  0
 18 19  1  0
 18 20  2  0
 10 21  1  0
 21 22  2  0
 22 23  1  0
 23  2  2  0
 22  8  1  0
 20 14  1  0
  1 24  1  0
  1 25  1  0
  1 26  1  0
  3 27  1  0
  5 28  1  0
 15 29  1  0
 16 30  1  0
 17 31  1  0
 20 32  1  0
M  CHG  2  13  -1  19  -1
M  END
>  <UniqueID>  (25) 
23

>  <SMILES>  (25) 
Cc1cc(C(F)F)n2nc(C(=O)[N-]c3cccc([O-])c3)nc2n1

>  <Energy>  (25) 
77.29890973452889

>  <Genealogy>  (25) 
Cc1cc(C(F)F)n2nc(C(=O)[N-]c3cccc([O-])c3)nc2n1 (protonated)
Cc1cc(C(F)F)n2nc(C(=O)[N-]c3cccc([O-])c3)nc2n1 (3D coordinates assigned)
Cc1cc(C(F)F)n2nc(C(=O)[N-]c3cccc([O-])c3)nc2n1 (optimized conformer: 77.29890973452889 kcal/mol)

>  <smiles>  (25) 
Cc1cc(C(F)F)n2nc(C(=O)Nc3cccc(O)c3)nc2n1

>  <score_type>  (25) 
oracle

>  <origin>  (25) 
adg

>  <m_score__min__energy>  (25) 
-11.699999999999999

>  <m_primary>  (25) 
energy

$$$$
25:0
     RDKit          3D

 70 73  0  0  0  0  0  0  0  0999 V2000
   64.8300   32.4040   49.5750 C   0  0  0  0  0  0  0  0  0  0  0  0
   64.0780   32.3460   48.3270 N   0  0  0  0  0  0  0  0  0  0  0  0
   62.8350   33.0380   48.1210 C   0  0  0  0  0  0  0  0  0  0  0  0
   62.2490   34.0640   49.2690 S   0  0  0  0  0  0  0  0  0  0  0  0
   62.1930   32.9420   46.8380 N   0  0  0  0  0  0  0  0  0  0  0  0
   60.8260   33.3130   46.5930 C   0  0  0  0  0  0  0  0  0  0  0  0
   60.4970   34.6630   46.3820 C   0  0  0  0  0  0  0  0  0  0  0  0
   59.1660   35.0550   46.2310 C   0  0  0  0  0  0  0  0  0  0  0  0
   58.1480   34.1060   46.3040 C   0  0  0  0  0  0  0  0  0  0  0  0
   58.4550   32.7620   46.5140 C   0  0  0  0  0  0  0  0  0  0  0  0
   59.7920   32.3470   46.6590 C   0  0  0  0  0  0  0  0  0  0  0  0
   60.0850   30.8980   46.8050 C   0  0  0  0  0  0  0  0  0  0  0  0
   60.1690   30.3140   48.0810 C   0  0  0  0  0  0  0  0  0  0  0  0
   60.3190   28.9320   48.2200 C   0  0  0  0  0  0  0  0  0  0  0  0
   60.3710   28.1120   47.0880 C   0  0  0  0  0  0  0  0  0  0  0  0
   60.3420   26.6860   47.2530 N   0  0  0  0  0  0  0  0  0  0  0  0
   59.1610   25.8710   47.1990 C   0  0  0  0  0  0  0  0  0  0  0  0
   58.5300   25.6510   48.2660 O   0  0  0  0  0  0  0  0  0  0  0  0
   58.6450   25.3330   45.9160 C   0  0  0  0  0  0  0  0  0  0  0  0
   58.8550   24.0370   45.4770 C   0  0  0  0  0  0  0  0  0  0  0  0
   58.0100   23.8620   44.3980 C   0  0  0  0  0  0  0  0  0  0  0  0
   57.6590   22.6290   43.7540 N   0  0  0  0  0  0  0  0  0  0  0  0
   56.3500   22.0470   43.6770 C   0  0  0  0  0  0  0  0  0  0  0  0
   55.9080   21.5840   42.5890 O   0  0  0  0  0  0  0  0  0  0  0  0
   55.5250   21.9220   44.9280 C   0  0  0  0  0  0  0  0  0  0  0  0
   56.3430   21.2960   46.0910 C   0  0  0  0  0  0  0  0  0  0  0  0
   56.8440   22.3540   47.0800 C   0  0  0  0  0  0  0  0  0  0  0  0
   55.6760   23.1300   47.7160 C   0  0  0  0  0  0  0  0  0  0  0  0
   54.4830   23.3420   46.7600 C   0  0  0  0  0  0  0  0  0  0  0  0
   54.9100   23.2970   45.2900 C   0  0  0  0  0  0  0  0  0  0  0  0
   57.3630   25.0570   44.1820 C   0  0  0  0  0  0  0  0  0  0  0  0
   57.7580   25.9600   45.1020 N   0  0  0  0  0  0  0  0  0  0  0  0
   57.1350   27.2720   45.2920 C   0  0  0  0  0  0  0  0  0  0  0  0
   57.5670   28.2320   44.1760 C   0  0  0  0  0  0  0  0  0  0  0  0
   56.6340   29.4410   44.0640 C   0  0  0  0  0  0  0  0  0  0  0  0
   57.2570   30.5510   44.6060 F   0  0  0  0  0  0  0  0  0  0  0  0
   56.3400   29.6980   42.7370 F   0  0  0  0  0  0  0  0  0  0  0  0
   55.4590   29.2070   44.7570 F   0  0  0  0  0  0  0  0  0  0  0  0
   60.3750   28.6990   45.8110 C   0  0  0  0  0  0  0  0  0  0  0  0
   60.2060   30.0780   45.6710 C   0  0  0  0  0  0  0  0  0  0  0  0
   64.1341   32.3503   50.4252 H   0  0  0  0  0  0  0  0  0  0  0  0
   65.5306   31.5572   49.6206 H   0  0  0  0  0  0  0  0  0  0  0  0
   65.3925   33.3482   49.6206 H   0  0  0  0  0  0  0  0  0  0  0  0
   64.4510   31.7490   47.5550 H   0  0  0  0  0  0  0  0  0  0  0  0
   62.7670   32.6160   46.0270 H   0  0  0  0  0  0  0  0  0  0  0  0
   61.2959   35.4177   46.3354 H   0  0  0  0  0  0  0  0  0  0  0  0
   58.9206   36.1126   46.0544 H   0  0  0  0  0  0  0  0  0  0  0  0
   57.0988   34.4182   46.1956 H   0  0  0  0  0  0  0  0  0  0  0  0
   57.6450   32.0196   46.5668 H   0  0  0  0  0  0  0  0  0  0  0  0
   60.1162   30.9501   48.9769 H   0  0  0  0  0  0  0  0  0  0  0  0
   60.3965   28.4872   49.2231 H   0  0  0  0  0  0  0  0  0  0  0  0
   59.5515   23.2983   45.9003 H   0  0  0  0  0  0  0  0  0  0  0  0
   54.6935   21.2259   44.7437 H   0  0  0  0  0  0  0  0  0  0  0  0
   55.7032   20.5817   46.6300 H   0  0  0  0  0  0  0  0  0  0  0  0
   57.2214   20.7968   45.6561 H   0  0  0  0  0  0  0  0  0  0  0  0
   57.4178   21.8563   47.8757 H   0  0  0  0  0  0  0  0  0  0  0  0
   57.4747   23.0686   46.5308 H   0  0  0  0  0  0  0  0  0  0  0  0
   55.3229   22.5693   48.5940 H   0  0  0  0  0  0  0  0  0  0  0  0
   56.0575   24.1267   47.9824 H   0  0  0  0  0  0  0  0  0  0  0  0
   53.7402   22.5505   46.9383 H   0  0  0  0  0  0  0  0  0  0  0  0
   54.0601   24.3375   46.9604 H   0  0  0  0  0  0  0  0  0  0  0  0
   54.0297   23.4749   44.6549 H   0  0  0  0  0  0  0  0  0  0  0  0
   55.6709   24.0739   45.1240 H   0  0  0  0  0  0  0  0  0  0  0  0
   56.6341   25.2468   43.3803 H   0  0  0  0  0  0  0  0  0  0  0  0
   56.0408   27.1607   45.2718 H   0  0  0  0  0  0  0  0  0  0  0  0
   57.4536   27.6829   46.2613 H   0  0  0  0  0  0  0  0  0  0  0  0
   58.5856   28.5884   44.3891 H   0  0  0  0  0  0  0  0  0  0  0  0
   57.5276   27.6839   43.2231 H   0  0  0  0  0  0  0  0  0  0  0  0
   60.5117   28.0701   44.9190 H   0  0  0  0  0  0  0  0  0  0  0  0
   60.1674   30.5249   44.6666 H   0  0  0  0  0  0  0  0  0  0  0  0
  1  2  1  0
  2  3  1  0
  3  4  2  0
  3  5  1  0
  5  6  1  0
  6  7  2  0
  7  8  1  0
  8  9  2  0
  9 10  1  0
 10 11  2  0
 11 12  1  0
 12 13  2  0
 13 14  1  0
 14 15  2  0
 15 16  1  0
 16 17  1  0
 17 18  2  0
 17 19  1  0
 19 20  2  0
 20 21  1  0
 21 22  1  0
 22 23  1  0
 23 24  2  0
 23 25  1  0
 25 26  1  0
 26 27  1  0
 27 28  1  0
 28 29  1  0
 29 30  1  0
 21 31  2  0
 31 32  1  0
 32 33  1  0
 33 34  1  0
 34 35  1  0
 35 36  1  0
 35 37  1  0
 35 38  1  0
 15 39  1  0
 39 40  2  0
 11  6  1  0
 40 12  1  0
 32 19  1  0
 30 25  1  0
  1 41  1  0
  1 42  1  0
  1 43  1  0
  2 44  1  0
  5 45  1  0
  7 46  1  0
  8 47  1  0
  9 48  1  0
 10 49  1  0
 13 50  1  0
 14 51  1  0
 20 52  1  0
 25 53  1  0
 26 54  1  0
 26 55  1  0
 27 56  1  0
 27 57  1  0
 28 58  1  0
 28 59  1  0
 29 60  1  0
 29 61  1  0
 30 62  1  0
 30 63  1  0
 31 64  1  0
 33 65  1  0
 33 66  1  0
 34 67  1  0
 34 68  1  0
 39 69  1  0
 40 70  1  0
M  CHG  2  16  -1  22  -1
M  END
>  <UniqueID>  (26) 
24

>  <SMILES>  (26) 
CNC(=S)Nc1ccccc1-c1ccc([N-]C(=O)c2cc([N-]C(=O)C3CCCCC3)cn2CCC(F)(F)F)cc1

>  <Energy>  (26) 
110.92787230274799

>  <Genealogy>  (26) 
CNC(=S)Nc1ccccc1-c1ccc([N-]C(=O)c2cc([N-]C(=O)C3CCCCC3)cn2CCC(F)(F)F)cc1 (protonated)
CNC(=S)Nc1ccccc1-c1ccc([N-]C(=O)c2cc([N-]C(=O)C3CCCCC3)cn2CCC(F)(F)F)cc1 (3D coordinates assigned)
CNC(=S)Nc1ccccc1-c1ccc([N-]C(=O)c2cc([N-]C(=O)C3CCCCC3)cn2CCC(F)(F)F)cc1 (nonaromatic ring conformer: 110.92787230274799 kcal/mol)

>  <smiles>  (26) 
CNC(=S)Nc1ccccc1-c1ccc(NC(=O)c2cc(NC(=O)C3CCCCC3)cn2CCC(F)(F)F)cc1

>  <score_type>  (26) 
oracle

>  <origin>  (26) 
adg

>  <m_score__min__energy>  (26) 
-12.75

>  <m_primary>  (26) 
energy

$$$$
26:0
     RDKit          3D

 57 61  0  0  0  0  0  0  0  0999 V2000
   56.7620   30.9080   51.5890 N   0  0  0  0  0  0  0  0  0  0  0  0
   57.4710   31.3180   52.7600 C   0  0  0  0  0  0  0  0  0  0  0  0
   56.9440   31.1680   53.9010 O   0  0  0  0  0  0  0  0  0  0  0  0
   58.8280   31.9640   52.6410 C   0  0  2  0  0  0  0  0  0  0  0  0
   58.8210   33.1290   51.6420 C   0  0  0  0  0  0  0  0  0  0  0  0
   59.4570   32.5720   50.3560 C   0  0  1  0  0  0  0  0  0  0  0  0
   58.4160   32.2090   49.2620 C   0  0  0  0  0  0  0  0  0  0  0  0
   58.9670   32.9510   48.0810 C   0  0  0  0  0  0  0  0  0  0  0  0
   58.4350   32.8610   46.7080 C   0  0  0  0  0  0  0  0  0  0  0  0
   58.1850   34.0300   45.9620 C   0  0  0  0  0  0  0  0  0  0  0  0
   57.6770   33.9350   44.6630 C   0  0  0  0  0  0  0  0  0  0  0  0
   57.3910   32.6770   44.1080 C   0  0  0  0  0  0  0  0  0  0  0  0
   57.6260   31.5020   44.8410 C   0  0  0  0  0  0  0  0  0  0  0  0
   57.2490   30.2390   44.2660 N   0  0  0  0  0  0  0  0  0  0  0  0
   56.5340   29.1720   44.9190 C   0  0  0  0  0  0  0  0  0  0  0  0
   55.2710   29.1760   44.8790 O   0  0  0  0  0  0  0  0  0  0  0  0
   57.2310   28.0640   45.6160 C   0  0  0  0  0  0  0  0  0  0  0  0
   58.6280   28.1380   45.8070 C   0  0  0  0  0  0  0  0  0  0  0  0
   59.3150   27.0840   46.4220 C   0  0  0  0  0  0  0  0  0  0  0  0
   58.6120   25.9510   46.8690 C   0  0  0  0  0  0  0  0  0  0  0  0
   57.2240   25.8780   46.7080 C   0  0  0  0  0  0  0  0  0  0  0  0
   56.5290   26.9300   46.0920 C   0  0  0  0  0  0  0  0  0  0  0  0
   55.1460   26.8510   45.9770 O   0  0  0  0  0  0  0  0  0  0  0  0
   58.1340   31.6020   46.1490 C   0  0  0  0  0  0  0  0  0  0  0  0
   59.9860   33.6830   48.3810 N   0  0  0  0  0  0  0  0  0  0  0  0
   60.2760   33.5420   49.7120 O   0  0  0  0  0  0  0  0  0  0  0  0
   60.3090   31.3750   50.8070 C   0  0  0  0  0  0  0  0  0  0  0  0
   59.8060   31.0060   52.1230 N   0  0  0  0  0  0  0  0  0  0  0  0
   60.4200   29.9980   52.9550 C   0  0  0  0  0  0  0  0  0  0  0  0
   60.8820   30.3180   54.0870 O   0  0  0  0  0  0  0  0  0  0  0  0
   60.5640   28.5990   52.5040 C   0  0  0  0  0  0  0  0  0  0  0  0
   60.2440   27.5510   53.3840 C   0  0  0  0  0  0  0  0  0  0  0  0
   60.3660   26.2200   52.9650 C   0  0  0  0  0  0  0  0  0  0  0  0
   60.7820   25.9270   51.6590 C   0  0  0  0  0  0  0  0  0  0  0  0
   61.0750   26.9650   50.7700 C   0  0  0  0  0  0  0  0  0  0  0  0
   60.9630   28.2980   51.1880 C   0  0  0  0  0  0  0  0  0  0  0  0
   56.2330   31.6000   51.0150 H   0  0  0  0  0  0  0  0  0  0  0  0
   59.0858   32.3171   53.6504 H   0  0  0  0  0  0  0  0  0  0  0  0
   57.7910   33.4629   51.4480 H   0  0  0  0  0  0  0  0  0  0  0  0
   59.3731   33.9994   52.0263 H   0  0  0  0  0  0  0  0  0  0  0  0
   58.3848   31.1248   49.0786 H   0  0  0  0  0  0  0  0  0  0  0  0
   57.3794   32.4730   49.5186 H   0  0  0  0  0  0  0  0  0  0  0  0
   58.3895   35.0173   46.4017 H   0  0  0  0  0  0  0  0  0  0  0  0
   57.5009   34.8475   44.0744 H   0  0  0  0  0  0  0  0  0  0  0  0
   56.9792   32.6112   43.0901 H   0  0  0  0  0  0  0  0  0  0  0  0
   59.1797   29.0283   45.4709 H   0  0  0  0  0  0  0  0  0  0  0  0
   60.4053   27.1424   46.5555 H   0  0  0  0  0  0  0  0  0  0  0  0
   59.1540   25.1211   47.3458 H   0  0  0  0  0  0  0  0  0  0  0  0
   56.6761   24.9936   47.0653 H   0  0  0  0  0  0  0  0  0  0  0  0
   58.2979   30.6896   46.7412 H   0  0  0  0  0  0  0  0  0  0  0  0
   60.1949   30.5367   50.1040 H   0  0  0  0  0  0  0  0  0  0  0  0
   61.3792   31.6274   50.8378 H   0  0  0  0  0  0  0  0  0  0  0  0
   59.8972   27.7763   54.4033 H   0  0  0  0  0  0  0  0  0  0  0  0
   60.1346   25.4021   53.6632 H   0  0  0  0  0  0  0  0  0  0  0  0
   60.8779   24.8805   51.3338 H   0  0  0  0  0  0  0  0  0  0  0  0
   61.3935   26.7357   49.7424 H   0  0  0  0  0  0  0  0  0  0  0  0
   61.1880   29.1130   50.4843 H   0  0  0  0  0  0  0  0  0  0  0  0
  1  2  1  0
  2  3  2  0
  2  4  1  0
  4  5  1  0
  5  6  1  0
  6  7  1  0
  7  8  1  0
  8  9  1  0
  9 10  2  0
 10 11  1  0
 11 12  2  0
 12 13  1  0
 13 14  1  0
 14 15  1  0
 15 16  2  0
 15 17  1  0
 17 18  2  0
 18 19  1  0
 19 20  2  0
 20 21  1  0
 21 22  2  0
 22 23  1  0
 13 24  2  0
  8 25  2  0
 25 26  1  0
  6 27  1  0
 27 28  1  0
 28 29  1  0
 29 30  2  0
 29 31  1  0
 31 32  2  0
 32 33  1  0
 33 34  2  0
 34 35  1  0
 35 36  2  0
 28  4  1  0
 36 31  1  0
  6 26  1  6
 24  9  1  0
 22 17  1  0
  1 37  1  0
  4 38  1  1
  5 39  1  0
  5 40  1  0
  7 41  1  0
  7 42  1  0
 10 43  1  0
 11 44  1  0
 12 45  1  0
 18 46  1  0
 19 47  1  0
 20 48  1  0
 21 49  1  0
 24 50  1  0
 27 51  1  0
 27 52  1  0
 32 53  1  0
 33 54  1  0
 34 55  1  0
 35 56  1  0
 36 57  1  0
M  CHG  3   1  -1  14  -1  23  -1
M  END
>  <UniqueID>  (27) 
25

>  <SMILES>  (27) 
[NH-]C(=O)[C@@H]1C[C@]2(CC(c3cccc([N-]C(=O)c4ccccc4[O-])c3)=NO2)CN1C(=O)c1ccccc1

>  <Energy>  (27) 
95.35832582267378

>  <Genealogy>  (27) 
[NH-]C(=O)C1CC2(CC(c3cccc([N-]C(=O)c4ccccc4[O-])c3)=NO2)CN1C(=O)c1ccccc1 (protonated)
[NH-]C(=O)[C@@H]1C[C@]2(CC(c3cccc([N-]C(=O)c4ccccc4[O-])c3)=NO2)CN1C(=O)c1ccccc1 (chirality)
[NH-]C(=O)[C@@H]1C[C@]2(CC(c3cccc([N-]C(=O)c4ccccc4[O-])c3)=NO2)CN1C(=O)c1ccccc1 (3D coordinates assigned)
[NH-]C(=O)[C@@H]1C[C@]2(CC(c3cccc([N-]C(=O)c4ccccc4[O-])c3)=NO2)CN1C(=O)c1ccccc1 (nonaromatic ring conformer: 95.35832582267378 kcal/mol)

>  <smiles>  (27) 
NC(=O)C1CC2(CC(c3cccc(NC(=O)c4ccccc4O)c3)=NO2)CN1C(=O)c1ccccc1

>  <score_type>  (27) 
oracle

>  <origin>  (27) 
adg

>  <m_score__min__energy>  (27) 
-15.59

>  <m_primary>  (27) 
energy

$$$$
27:0
     RDKit          3D

 40 42  0  0  0  0  0  0  0  0999 V2000
   60.2610   26.9590   48.5590 C   0  0  0  0  0  0  0  0  0  0  0  0
   59.7110   26.4090   47.3680 O   0  0  0  0  0  0  0  0  0  0  0  0
   58.5720   26.9060   46.7100 C   0  0  0  0  0  0  0  0  0  0  0  0
   57.3510   26.2180   46.7310 C   0  0  0  0  0  0  0  0  0  0  0  0
   56.2640   26.7400   46.0320 C   0  0  0  0  0  0  0  0  0  0  0  0
   55.1670   26.1250   46.0250 O   0  0  0  0  0  0  0  0  0  0  0  0
   56.3770   27.8870   45.3750 O   0  0  0  0  0  0  0  0  0  0  0  0
   57.5020   28.5980   45.3370 C   0  0  0  0  0  0  0  0  0  0  0  0
   57.4670   29.8800   44.5980 C   0  0  0  0  0  0  0  0  0  0  0  0
   57.0410   29.8940   43.2610 C   0  0  0  0  0  0  0  0  0  0  0  0
   57.0150   31.0890   42.5430 C   0  0  0  0  0  0  0  0  0  0  0  0
   57.3950   32.2860   43.1560 C   0  0  0  0  0  0  0  0  0  0  0  0
   57.7970   32.3000   44.5040 C   0  0  0  0  0  0  0  0  0  0  0  0
   58.1790   33.5310   45.1430 N   0  0  0  0  0  0  0  0  0  0  0  0
   59.2590   34.0890   44.8570 O   0  0  0  0  0  0  0  0  0  0  0  0
   57.3630   34.1140   46.0850 O   0  0  0  0  0  0  0  0  0  0  0  0
   57.8190   31.0900   45.2210 C   0  0  0  0  0  0  0  0  0  0  0  0
   58.6660   28.1130   45.9900 C   0  0  0  0  0  0  0  0  0  0  0  0
   59.9770   28.8070   45.9020 C   0  0  0  0  0  0  0  0  0  0  0  0
   60.6290   28.7460   44.8260 O   0  0  0  0  0  0  0  0  0  0  0  0
   60.5530   29.5100   47.0130 N   0  0  0  0  0  0  0  0  0  0  0  0
   60.2500   30.8490   47.4280 C   0  0  0  0  0  0  0  0  0  0  0  0
   59.1020   31.0720   48.2010 C   0  0  0  0  0  0  0  0  0  0  0  0
   58.7640   32.3670   48.6040 C   0  0  0  0  0  0  0  0  0  0  0  0
   59.5810   33.4440   48.2530 C   0  0  0  0  0  0  0  0  0  0  0  0
   60.7430   33.2270   47.5070 C   0  0  0  0  0  0  0  0  0  0  0  0
   61.0830   31.9330   47.1020 C   0  0  0  0  0  0  0  0  0  0  0  0
   59.7888   26.4868   49.4331 H   0  0  0  0  0  0  0  0  0  0  0  0
   61.3449   26.7727   48.5825 H   0  0  0  0  0  0  0  0  0  0  0  0
   60.0747   28.0429   48.5825 H   0  0  0  0  0  0  0  0  0  0  0  0
   57.2518   25.2773   47.2925 H   0  0  0  0  0  0  0  0  0  0  0  0
   56.7261   28.9577   42.7771 H   0  0  0  0  0  0  0  0  0  0  0  0
   56.6944   31.0895   41.4908 H   0  0  0  0  0  0  0  0  0  0  0  0
   57.3797   33.2234   42.5806 H   0  0  0  0  0  0  0  0  0  0  0  0
   58.1148   31.0906   46.2805 H   0  0  0  0  0  0  0  0  0  0  0  0
   58.4644   30.2241   48.4917 H   0  0  0  0  0  0  0  0  0  0  0  0
   57.8540   32.5380   49.1979 H   0  0  0  0  0  0  0  0  0  0  0  0
   59.3098   34.4637   48.5638 H   0  0  0  0  0  0  0  0  0  0  0  0
   61.3902   34.0749   47.2385 H   0  0  0  0  0  0  0  0  0  0  0  0
   62.0049   31.7627   46.5266 H   0  0  0  0  0  0  0  0  0  0  0  0
  1  2  1  0
  2  3  1  0
  3  4  2  0
  4  5  1  0
  5  6  2  0
  5  7  1  0
  7  8  1  0
  8  9  1  0
  9 10  2  0
 10 11  1  0
 11 12  2  0
 12 13  1  0
 13 14  1  0
 14 15  2  0
 14 16  1  0
 13 17  2  0
  8 18  2  0
 18 19  1  0
 19 20  2  0
 19 21  1  0
 21 22  1  0
 22 23  2  0
 23 24  1  0
 24 25  2  0
 25 26  1  0
 26 27  2  0
 18  3  1  0
 27 22  1  0
 17  9  1  0
  1 28  1  0
  1 29  1  0
  1 30  1  0
  4 31  1  0
 10 32  1  0
 11 33  1  0
 12 34  1  0
 17 35  1  0
 23 36  1  0
 24 37  1  0
 25 38  1  0
 26 39  1  0
 27 40  1  0
M  CHG  3  14   1  16  -1  21  -1
M  END
>  <UniqueID>  (28) 
26

>  <SMILES>  (28) 
COc1cc(=O)oc(-c2cccc([N+](=O)[O-])c2)c1C(=O)[N-]c1ccccc1

>  <Energy>  (28) 
57.95387462708375

>  <Genealogy>  (28) 
COc1cc(=O)oc(-c2cccc([N+](=O)[O-])c2)c1C(=O)[N-]c1ccccc1 (protonated)
COc1cc(=O)oc(-c2cccc([N+](=O)[O-])c2)c1C(=O)[N-]c1ccccc1 (3D coordinates assigned)
COc1cc(=O)oc(-c2cccc([N+](=O)[O-])c2)c1C(=O)[N-]c1ccccc1 (optimized conformer: 57.95387462708375 kcal/mol)

>  <smiles>  (28) 
COc1cc(=O)oc(-c2cccc([N+](=O)[O-])c2)c1C(=O)Nc1ccccc1

>  <score_type>  (28) 
oracle

>  <origin>  (28) 
adg

>  <m_score__min__energy>  (28) 
-9.0800000000000001

>  <m_primary>  (28) 
energy

$$$$
28:0
     RDKit          3D

 63 67  0  0  0  0  0  0  0  0999 V2000
   64.9250   33.4190   50.5620 C   0  0  0  0  0  0  0  0  0  0  0  0
   64.4730   32.8180   49.3540 O   0  0  0  0  0  0  0  0  0  0  0  0
   63.3920   33.2730   48.5840 C   0  0  0  0  0  0  0  0  0  0  0  0
   63.5010   33.3830   47.1830 C   0  0  0  0  0  0  0  0  0  0  0  0
   62.4320   33.8500   46.4190 C   0  0  0  0  0  0  0  0  0  0  0  0
   61.2300   34.2320   47.0330 C   0  0  0  0  0  0  0  0  0  0  0  0
   60.0530   34.7230   46.2060 C   0  0  2  0  0  0  0  0  0  0  0  0
   58.7760   34.8320   47.0650 C   0  0  0  0  0  0  0  0  0  0  0  0
   57.9310   33.7340   46.5540 C   0  0  0  0  0  0  0  0  0  0  0  0
   56.8620   33.3650   47.1070 O   0  0  0  0  0  0  0  0  0  0  0  0
   58.4690   33.1080   45.4000 N   0  0  0  0  0  0  0  0  0  0  0  0
   57.8230   32.0870   44.6180 C   0  0  0  0  0  0  0  0  0  0  0  0
   57.6710   32.2400   43.2310 C   0  0  0  0  0  0  0  0  0  0  0  0
   57.0380   31.2500   42.4780 C   0  0  0  0  0  0  0  0  0  0  0  0
   56.5480   30.0990   43.0990 C   0  0  0  0  0  0  0  0  0  0  0  0
   56.6900   29.9270   44.4880 C   0  0  0  0  0  0  0  0  0  0  0  0
   56.1880   28.7590   45.1620 N   0  0  0  0  0  0  0  0  0  0  0  0
   57.1940   27.4650   45.7290 S   0  0  0  0  0  0  0  0  0  0  0  0
   56.4320   26.6430   46.7310 O   0  0  0  0  0  0  0  0  0  0  0  0
   57.5840   26.5920   44.5710 O   0  0  0  0  0  0  0  0  0  0  0  0
   58.6480   28.1160   46.4590 C   0  0  0  0  0  0  0  0  0  0  0  0
   59.6930   28.7180   45.7750 C   0  0  0  0  0  0  0  0  0  0  0  0
   60.7140   29.1610   46.6240 C   0  0  0  0  0  0  0  0  0  0  0  0
   60.4710   28.9080   47.9680 C   0  0  0  0  0  0  0  0  0  0  0  0
   58.9820   28.1340   48.1040 S   0  0  0  0  0  0  0  0  0  0  0  0
   57.3400   30.9220   45.2350 C   0  0  0  0  0  0  0  0  0  0  0  0
   59.7220   33.7550   45.0410 C   0  0  0  0  0  0  0  0  0  0  0  0
   61.1130   34.1140   48.4250 C   0  0  0  0  0  0  0  0  0  0  0  0
   62.1700   33.6340   49.2100 C   0  0  0  0  0  0  0  0  0  0  0  0
   61.9310   33.5440   50.5950 O   0  0  0  0  0  0  0  0  0  0  0  0
   61.1720   32.5490   51.2880 C   0  0  0  0  0  0  0  0  0  0  0  0
   60.9210   31.3310   50.3940 C   0  0  0  0  0  0  0  0  0  0  0  0
   59.5410   31.5170   49.7670 C   0  0  0  0  0  0  0  0  0  0  0  0
   58.9490   32.7870   50.3660 C   0  0  0  0  0  0  0  0  0  0  0  0
   59.7890   33.1020   51.5900 C   0  0  0  0  0  0  0  0  0  0  0  0
   64.5123   32.8702   51.4214 H   0  0  0  0  0  0  0  0  0  0  0  0
   66.0239   33.3858   50.5992 H   0  0  0  0  0  0  0  0  0  0  0  0
   64.5883   34.4655   50.5992 H   0  0  0  0  0  0  0  0  0  0  0  0
   64.4401   33.0972   46.6866 H   0  0  0  0  0  0  0  0  0  0  0  0
   62.5321   33.9194   45.3258 H   0  0  0  0  0  0  0  0  0  0  0  0
   60.3522   35.7063   45.8141 H   0  0  0  0  0  0  0  0  0  0  0  0
   59.0047   34.6901   48.1316 H   0  0  0  0  0  0  0  0  0  0  0  0
   58.2919   35.8173   46.9952 H   0  0  0  0  0  0  0  0  0  0  0  0
   58.0527   33.1447   42.7351 H   0  0  0  0  0  0  0  0  0  0  0  0
   56.9246   31.3767   41.3912 H   0  0  0  0  0  0  0  0  0  0  0  0
   56.0489   29.3235   42.4994 H   0  0  0  0  0  0  0  0  0  0  0  0
   55.1550   28.6160   45.2310 H   0  0  0  0  0  0  0  0  0  0  0  0
   59.7172   28.8350   44.6815 H   0  0  0  0  0  0  0  0  0  0  0  0
   61.6233   29.6624   46.2609 H   0  0  0  0  0  0  0  0  0  0  0  0
   61.1385   29.1692   48.8024 H   0  0  0  0  0  0  0  0  0  0  0  0
   57.4727   30.7871   46.3186 H   0  0  0  0  0  0  0  0  0  0  0  0
   60.5199   33.0063   44.9279 H   0  0  0  0  0  0  0  0  0  0  0  0
   59.6388   34.2906   44.0838 H   0  0  0  0  0  0  0  0  0  0  0  0
   60.1705   34.4047   48.9119 H   0  0  0  0  0  0  0  0  0  0  0  0
   61.7365   32.2745   52.1913 H   0  0  0  0  0  0  0  0  0  0  0  0
   61.6888   31.2739   49.6083 H   0  0  0  0  0  0  0  0  0  0  0  0
   60.9660   30.3992   50.9768 H   0  0  0  0  0  0  0  0  0  0  0  0
   59.6324   31.6207   48.6757 H   0  0  0  0  0  0  0  0  0  0  0  0
   58.8966   30.6490   49.9700 H   0  0  0  0  0  0  0  0  0  0  0  0
   59.0039   33.6130   49.6417 H   0  0  0  0  0  0  0  0  0  0  0  0
   57.8890   32.6533   50.6278 H   0  0  0  0  0  0  0  0  0  0  0  0
   59.8370   34.1887   51.7538 H   0  0  0  0  0  0  0  0  0  0  0  0
   59.3629   32.6585   52.5020 H   0  0  0  0  0  0  0  0  0  0  0  0
  1  2  1  0
  2  3  1  0
  3  4  2  0
  4  5  1  0
  5  6  2  0
  6  7  1  0
  7  8  1  0
  8  9  1  0
  9 10  2  0
  9 11  1  0
 11 12  1  0
 12 13  2  0
 13 14  1  0
 14 15  2  0
 15 16  1  0
 16 17  1  0
 17 18  1  0
 18 19  2  0
 18 20  2  0
 18 21  1  0
 21 22  2  0
 22 23  1  0
 23 24  2  0
 24 25  1  0
 16 26  2  0
 11 27  1  0
  6 28  1  0
 28 29  2  0
 29 30  1  0
 30 31  1  0
 31 32  1  0
 32 33  1  0
 33 34  1  0
 34 35  1  0
 29  3  1  0
 35 31  1  0
 27  7  1  0
 26 12  1  0
 25 21  1  0
  1 36  1  0
  1 37  1  0
  1 38  1  0
  4 39  1  0
  5 40  1  0
  7 41  1  6
  8 42  1  0
  8 43  1  0
 13 44  1  0
 14 45  1  0
 15 46  1  0
 17 47  1  0
 22 48  1  0
 23 49  1  0
 24 50  1  0
 26 51  1  0
 27 52  1  0
 27 53  1  0
 28 54  1  0
 31 55  1  0
 32 56  1  0
 32 57  1  0
 33 58  1  0
 33 59  1  0
 34 60  1  0
 34 61  1  0
 35 62  1  0
 35 63  1  0
M  END
>  <UniqueID>  (29) 
27

>  <SMILES>  (29) 
COc1ccc([C@@H]2CC(=O)N(c3cccc(NS(=O)(=O)c4cccs4)c3)C2)cc1OC1CCCC1

>  <Energy>  (29) 
111.54035458905634

>  <Genealogy>  (29) 
COc1ccc([C@@H]2CC(=O)N(c3cccc(NS(=O)(=O)c4cccs4)c3)C2)cc1OC1CCCC1 (chirality)
COc1ccc([C@@H]2CC(=O)N(c3cccc(NS(=O)(=O)c4cccs4)c3)C2)cc1OC1CCCC1 (3D coordinates assigned)
COc1ccc([C@@H]2CC(=O)N(c3cccc(NS(=O)(=O)c4cccs4)c3)C2)cc1OC1CCCC1 (nonaromatic ring conformer: 111.54035458905634 kcal/mol)

>  <smiles>  (29) 
COc1ccc(C2CC(=O)N(c3cccc(NS(=O)(=O)c4cccs4)c3)C2)cc1OC1CCCC1

>  <score_type>  (29) 
oracle

>  <origin>  (29) 
adg

>  <m_score__min__energy>  (29) 
-10.25

>  <m_primary>  (29) 
energy

$$$$
29:0
     RDKit          3D

 53 56  0  0  0  0  0  0  0  0999 V2000
   60.8480   31.9010   52.0060 C   0  0  0  0  0  0  0  0  0  0  0  0
   59.3820   31.5660   52.0900 C   0  0  0  0  0  0  0  0  0  0  0  0
   58.9190   30.8510   53.2050 C   0  0  0  0  0  0  0  0  0  0  0  0
   57.5790   30.4780   53.3090 C   0  0  0  0  0  0  0  0  0  0  0  0
   56.6650   30.8160   52.3000 C   0  0  0  0  0  0  0  0  0  0  0  0
   55.2390   30.4120   52.4070 C   0  0  0  0  0  0  0  0  0  0  0  0
   54.8590   29.3430   53.2390 C   0  0  0  0  0  0  0  0  0  0  0  0
   53.5170   28.9640   53.3400 C   0  0  0  0  0  0  0  0  0  0  0  0
   52.5390   29.6470   52.6130 C   0  0  0  0  0  0  0  0  0  0  0  0
   52.9020   30.7120   51.7810 C   0  0  0  0  0  0  0  0  0  0  0  0
   51.8930   31.4130   51.0280 C   0  0  0  0  0  0  0  0  0  0  0  0
   51.0830   31.9770   50.4240 N   0  0  0  0  0  0  0  0  0  0  0  0
   54.2460   31.0940   51.6770 C   0  0  0  0  0  0  0  0  0  0  0  0
   57.1170   31.5480   51.1900 C   0  0  0  0  0  0  0  0  0  0  0  0
   58.4600   31.9470   51.0820 C   0  0  0  0  0  0  0  0  0  0  0  0
   58.8640   32.7490   49.9060 C   0  0  0  0  0  0  0  0  0  0  0  0
   59.4630   33.8450   50.0820 O   0  0  0  0  0  0  0  0  0  0  0  0
   58.6500   32.2530   48.5760 N   0  0  0  0  0  0  0  0  0  0  0  0
   58.7110   33.0830   47.4040 C   0  0  0  0  0  0  0  0  0  0  0  0
   57.5290   33.4720   46.7470 C   0  0  0  0  0  0  0  0  0  0  0  0
   57.5880   34.2180   45.5670 C   0  0  0  0  0  0  0  0  0  0  0  0
   58.8230   34.5720   45.0250 C   0  0  0  0  0  0  0  0  0  0  0  0
   60.0040   34.1860   45.6610 C   0  0  0  0  0  0  0  0  0  0  0  0
   59.9590   33.4450   46.8510 C   0  0  0  0  0  0  0  0  0  0  0  0
   61.1900   33.0970   47.5010 N   0  0  0  0  0  0  0  0  0  0  0  0
   61.8640   34.0590   48.3760 C   0  0  0  0  0  0  0  0  0  0  0  0
   63.3790   33.8460   48.2910 C   0  0  0  0  0  0  0  0  0  0  0  0
   63.7090   32.4900   48.5260 O   0  0  0  0  0  0  0  0  0  0  0  0
   63.1830   31.6800   47.4900 C   0  0  0  0  0  0  0  0  0  0  0  0
   61.6510   31.7090   47.4980 C   0  0  0  0  0  0  0  0  0  0  0  0
   61.2613   31.9954   53.0210 H   0  0  0  0  0  0  0  0  0  0  0  0
   61.3768   31.1005   51.4678 H   0  0  0  0  0  0  0  0  0  0  0  0
   60.9766   32.8517   51.4678 H   0  0  0  0  0  0  0  0  0  0  0  0
   59.6216   30.5812   54.0072 H   0  0  0  0  0  0  0  0  0  0  0  0
   57.2363   29.9143   54.1892 H   0  0  0  0  0  0  0  0  0  0  0  0
   55.6238   28.8011   53.8146 H   0  0  0  0  0  0  0  0  0  0  0  0
   53.2307   28.1265   53.9931 H   0  0  0  0  0  0  0  0  0  0  0  0
   51.4837   29.3477   52.6945 H   0  0  0  0  0  0  0  0  0  0  0  0
   54.5273   31.9313   51.0215 H   0  0  0  0  0  0  0  0  0  0  0  0
   56.4080   31.8134   50.3919 H   0  0  0  0  0  0  0  0  0  0  0  0
   58.5010   31.2270   48.4540 H   0  0  0  0  0  0  0  0  0  0  0  0
   56.5523   33.1870   47.1651 H   0  0  0  0  0  0  0  0  0  0  0  0
   56.6591   34.5264   45.0650 H   0  0  0  0  0  0  0  0  0  0  0  0
   58.8666   35.1567   44.0943 H   0  0  0  0  0  0  0  0  0  0  0  0
   60.9754   34.4645   45.2265 H   0  0  0  0  0  0  0  0  0  0  0  0
   61.6182   35.0822   48.0555 H   0  0  0  0  0  0  0  0  0  0  0  0
   61.5288   33.9114   49.4132 H   0  0  0  0  0  0  0  0  0  0  0  0
   63.7281   34.1337   47.2883 H   0  0  0  0  0  0  0  0  0  0  0  0
   63.8662   34.4659   49.0581 H   0  0  0  0  0  0  0  0  0  0  0  0
   63.5453   32.0541   46.5211 H   0  0  0  0  0  0  0  0  0  0  0  0
   63.5159   30.6439   47.6504 H   0  0  0  0  0  0  0  0  0  0  0  0
   61.2698   31.1979   46.6016 H   0  0  0  0  0  0  0  0  0  0  0  0
   61.2791   31.1970   48.3978 H   0  0  0  0  0  0  0  0  0  0  0  0
  1  2  1  0
  2  3  2  0
  3  4  1  0
  4  5  2  0
  5  6  1  0
  6  7  2  0
  7  8  1  0
  8  9  2  0
  9 10  1  0
 10 11  1  0
 11 12  3  0
 10 13  2  0
  5 14  1  0
 14 15  2  0
 15 16  1  0
 16 17  2  0
 16 18  1  0
 18 19  1  0
 19 20  2  0
 20 21  1  0
 21 22  2  0
 22 23  1  0
 23 24  2  0
 24 25  1  0
 25 26  1  0
 26 27  1  0
 27 28  1  0
 28 29  1  0
 29 30  1  0
 15  2  1  0
 24 19  1  0
 30 25  1  0
 13  6  1  0
  1 31  1  0
  1 32  1  0
  1 33  1  0
  3 34  1  0
  4 35  1  0
  7 36  1  0
  8 37  1  0
  9 38  1  0
 13 39  1  0
 14 40  1  0
 18 41  1  0
 20 42  1  0
 21 43  1  0
 22 44  1  0
 23 45  1  0
 26 46  1  0
 26 47  1  0
 27 48  1  0
 27 49  1  0
 29 50  1  0
 29 51  1  0
 30 52  1  0
 30 53  1  0
M  END
>  <UniqueID>  (30) 
28

>  <SMILES>  (30) 
Cc1ccc(-c2cccc(C#N)c2)cc1C(=O)Nc1ccccc1N1CCOCC1

>  <Energy>  (30) 
76.15359606785195

>  <Genealogy>  (30) 
Cc1ccc(-c2cccc(C#N)c2)cc1C(=O)Nc1ccccc1N1CCOCC1 (3D coordinates assigned)
Cc1ccc(-c2cccc(C#N)c2)cc1C(=O)Nc1ccccc1N1CCOCC1 (nonaromatic ring conformer: 76.15359606785195 kcal/mol)

>  <smiles>  (30) 
Cc1ccc(-c2cccc(C#N)c2)cc1C(=O)Nc1ccccc1N1CCOCC1

>  <score_type>  (30) 
oracle

>  <origin>  (30) 
adg

>  <m_score__min__energy>  (30) 
-8.9399999999999995

>  <m_primary>  (30) 
energy

$$$$
30:0
     RDKit          3D

 32 33  0  0  0  0  0  0  0  0999 V2000
   56.8400   31.5270   51.8920 C   0  0  0  0  0  0  0  0  0  0  0  0
   56.5970   31.1860   53.3590 C   0  0  0  0  0  0  0  0  0  0  0  0
   55.7130   29.9640   53.4880 C   0  0  0  0  0  0  0  0  0  0  0  0
   54.3190   30.1440   53.4690 C   0  0  0  0  0  0  0  0  0  0  0  0
   53.4480   29.0480   53.5610 C   0  0  0  0  0  0  0  0  0  0  0  0
   52.0200   29.2490   53.5800 N   0  0  0  0  0  0  0  0  0  0  0  0
   51.6580   30.2040   52.5670 C   0  0  0  0  0  0  0  0  0  0  0  0
   51.7220   29.8670   51.2080 C   0  0  0  0  0  0  0  0  0  0  0  0
   51.3940   30.8400   50.2630 C   0  0  0  0  0  0  0  0  0  0  0  0
   51.4360   30.5710   49.0350 O   0  0  0  0  0  0  0  0  0  0  0  0
   51.0290   32.0840   50.6700 N   0  0  0  0  0  0  0  0  0  0  0  0
   50.9810   32.4000   51.9910 C   0  0  0  0  0  0  0  0  0  0  0  0
   50.6450   33.5580   52.3480 O   0  0  0  0  0  0  0  0  0  0  0  0
   51.2970   31.4660   52.9260 N   0  0  0  0  0  0  0  0  0  0  0  0
   53.9820   27.7570   53.6880 C   0  0  0  0  0  0  0  0  0  0  0  0
   55.3630   27.5630   53.6950 C   0  0  0  0  0  0  0  0  0  0  0  0
   56.2430   28.6520   53.5810 C   0  0  0  0  0  0  0  0  0  0  0  0
   57.7280   28.3950   53.6060 C   0  0  0  0  0  0  0  0  0  0  0  0
   57.4771   32.4211   51.8241 H   0  0  0  0  0  0  0  0  0  0  0  0
   57.3405   30.6817   51.3971 H   0  0  0  0  0  0  0  0  0  0  0  0
   55.8776   31.7241   51.3971 H   0  0  0  0  0  0  0  0  0  0  0  0
   57.5622   30.9860   53.8473 H   0  0  0  0  0  0  0  0  0  0  0  0
   56.0935   32.0375   53.8400 H   0  0  0  0  0  0  0  0  0  0  0  0
   53.9049   31.1593   53.3807 H   0  0  0  0  0  0  0  0  0  0  0  0
   51.5210   28.3430   53.4200 H   0  0  0  0  0  0  0  0  0  0  0  0
   51.7210   29.6050   54.5180 H   0  0  0  0  0  0  0  0  0  0  0  0
   52.0243   28.8573   50.8931 H   0  0  0  0  0  0  0  0  0  0  0  0
   53.3078   26.8930   53.7826 H   0  0  0  0  0  0  0  0  0  0  0  0
   55.7681   26.5448   53.7910 H   0  0  0  0  0  0  0  0  0  0  0  0
   58.0723   28.3354   54.6490 H   0  0  0  0  0  0  0  0  0  0  0  0
   57.9446   27.4460   53.0936 H   0  0  0  0  0  0  0  0  0  0  0  0
   58.2509   29.2160   53.0936 H   0  0  0  0  0  0  0  0  0  0  0  0
  1  2  1  0
  2  3  1  0
  3  4  2  0
  4  5  1  0
  5  6  1  0
  6  7  1  0
  7  8  2  0
  8  9  1  0
  9 10  2  0
  9 11  1  0
 11 12  1  0
 12 13  2  0
 12 14  1  0
  5 15  2  0
 15 16  1  0
 16 17  2  0
 17 18  1  0
 17  3  1  0
 14  7  1  0
  1 19  1  0
  1 20  1  0
  1 21  1  0
  2 22  1  0
  2 23  1  0
  4 24  1  0
  6 25  1  0
  6 26  1  0
  8 27  1  0
 15 28  1  0
 16 29  1  0
 18 30  1  0
 18 31  1  0
 18 32  1  0
M  CHG  3   6   1  11  -1  14  -1
M  END
>  <UniqueID>  (31) 
29

>  <SMILES>  (31) 
CCc1cc([NH2+]c2cc(=O)[n-]c(=O)[n-]2)ccc1C

>  <Energy>  (31) 
32.778808753962196

>  <Genealogy>  (31) 
CCc1cc([NH2+]c2cc(=O)[n-]c(=O)[n-]2)ccc1C (protonated)
CCc1cc([NH2+]c2cc(=O)[n-]c(=O)[n-]2)ccc1C (3D coordinates assigned)
CCc1cc([NH2+]c2cc(=O)[n-]c(=O)[n-]2)ccc1C (optimized conformer: 32.778808753962196 kcal/mol)

>  <smiles>  (31) 
CCc1cc(Nc2cc(=O)[nH]c(=O)[nH]2)ccc1C

>  <score_type>  (31) 
oracle

>  <origin>  (31) 
adg

>  <m_score__min__energy>  (31) 
-10.050000000000001

>  <m_primary>  (31) 
energy

$$$$
31:0
     RDKit          3D

 54 58  0  0  0  0  0  0  0  0999 V2000
   57.1390   26.8550   44.7280 O   0  0  0  0  0  0  0  0  0  0  0  0
   57.0090   27.9560   45.3260 C   0  0  0  0  0  0  0  0  0  0  0  0
   55.9900   28.8650   44.8920 N   0  0  0  0  0  0  0  0  0  0  0  0
   55.9590   29.4900   43.5760 C   0  0  0  0  0  0  0  0  0  0  0  0
   56.7490   30.7650   43.6130 C   0  0  0  0  0  0  0  0  0  0  0  0
   57.2630   31.3170   42.4300 C   0  0  0  0  0  0  0  0  0  0  0  0
   58.0160   32.4910   42.4930 C   0  0  0  0  0  0  0  0  0  0  0  0
   58.2570   33.0970   43.7260 C   0  0  0  0  0  0  0  0  0  0  0  0
   57.7480   32.5100   44.8850 C   0  0  0  0  0  0  0  0  0  0  0  0
   57.0170   31.3650   44.8100 N   0  0  0  0  0  0  0  0  0  0  0  0
   57.9220   28.2870   46.4400 C   0  0  0  0  0  0  0  0  0  0  0  0
   58.4050   27.2790   47.2910 C   0  0  0  0  0  0  0  0  0  0  0  0
   59.2610   27.5980   48.3480 C   0  0  0  0  0  0  0  0  0  0  0  0
   59.6470   28.9240   48.5570 C   0  0  0  0  0  0  0  0  0  0  0  0
   59.1450   29.9460   47.7400 C   0  0  0  0  0  0  0  0  0  0  0  0
   58.2750   29.6230   46.6880 C   0  0  0  0  0  0  0  0  0  0  0  0
   59.5450   31.3150   47.9670 N   0  0  0  0  0  0  0  0  0  0  0  0
   60.1310   32.0870   46.8570 C   0  0  0  0  0  0  0  0  0  0  0  0
   61.5510   32.4990   47.1680 C   0  0  0  0  0  0  0  0  0  0  0  0
   62.3770   31.6670   47.9480 C   0  0  0  0  0  0  0  0  0  0  0  0
   63.6680   32.0790   48.2970 C   0  0  0  0  0  0  0  0  0  0  0  0
   64.1420   33.3220   47.8690 C   0  0  0  0  0  0  0  0  0  0  0  0
   63.3280   34.1550   47.0920 C   0  0  0  0  0  0  0  0  0  0  0  0
   62.0360   33.7490   46.7430 C   0  0  0  0  0  0  0  0  0  0  0  0
   61.2550   34.5760   46.0040 F   0  0  0  0  0  0  0  0  0  0  0  0
   59.1860   31.9900   49.1980 C   0  0  0  0  0  0  0  0  0  0  0  0
   59.1790   33.2520   49.2320 O   0  0  0  0  0  0  0  0  0  0  0  0
   58.7760   31.2570   50.4270 C   0  0  0  0  0  0  0  0  0  0  0  0
   57.7470   31.7900   51.2250 C   0  0  0  0  0  0  0  0  0  0  0  0
   57.3040   31.1100   52.3630 C   0  0  0  0  0  0  0  0  0  0  0  0
   57.8860   29.8930   52.7220 C   0  0  0  0  0  0  0  0  0  0  0  0
   58.9190   29.3570   51.9510 C   0  0  0  0  0  0  0  0  0  0  0  0
   59.3820   30.0400   50.8200 C   0  0  0  0  0  0  0  0  0  0  0  0
   60.7500   29.3390   49.8980 S   0  0  0  0  0  0  0  0  0  0  0  0
   56.3987   28.8068   42.8345 H   0  0  0  0  0  0  0  0  0  0  0  0
   54.9179   29.7100   43.2973 H   0  0  0  0  0  0  0  0  0  0  0  0
   57.0745   30.8295   41.4621 H   0  0  0  0  0  0  0  0  0  0  0  0
   58.4186   32.9374   41.5717 H   0  0  0  0  0  0  0  0  0  0  0  0
   58.8416   34.0270   43.7840 H   0  0  0  0  0  0  0  0  0  0  0  0
   57.9386   32.9750   45.8635 H   0  0  0  0  0  0  0  0  0  0  0  0
   56.6540   30.9460   45.6950 H   0  0  0  0  0  0  0  0  0  0  0  0
   58.1077   26.2332   47.1242 H   0  0  0  0  0  0  0  0  0  0  0  0
   59.6308   26.8055   49.0152 H   0  0  0  0  0  0  0  0  0  0  0  0
   57.8663   30.4225   46.0526 H   0  0  0  0  0  0  0  0  0  0  0  0
   60.1280   31.4674   45.9481 H   0  0  0  0  0  0  0  0  0  0  0  0
   59.5291   32.9957   46.7088 H   0  0  0  0  0  0  0  0  0  0  0  0
   62.0054   30.6880   48.2848 H   0  0  0  0  0  0  0  0  0  0  0  0
   64.3087   31.4255   48.9073 H   0  0  0  0  0  0  0  0  0  0  0  0
   65.1566   33.6466   48.1431 H   0  0  0  0  0  0  0  0  0  0  0  0
   63.7058   35.1316   46.7551 H   0  0  0  0  0  0  0  0  0  0  0  0
   57.2869   32.7508   50.9507 H   0  0  0  0  0  0  0  0  0  0  0  0
   56.4956   31.5344   52.9765 H   0  0  0  0  0  0  0  0  0  0  0  0
   57.5302   29.3557   53.6135 H   0  0  0  0  0  0  0  0  0  0  0  0
   59.3708   28.3946   52.2331 H   0  0  0  0  0  0  0  0  0  0  0  0
  1  2  2  0
  2  3  1  0
  3  4  1  0
  4  5  1  0
  5  6  2  0
  6  7  1  0
  7  8  2  0
  8  9  1  0
  9 10  2  0
  2 11  1  0
 11 12  2  0
 12 13  1  0
 13 14  2  0
 14 15  1  0
 15 16  2  0
 15 17  1  0
 17 18  1  0
 18 19  1  0
 19 20  2  0
 20 21  1  0
 21 22  2  0
 22 23  1  0
 23 24  2  0
 24 25  1  0
 17 26  1  0
 26 27  2  0
 26 28  1  0
 28 29  2  0
 29 30  1  0
 30 31  2  0
 31 32  1  0
 32 33  2  0
 33 34  1  0
 10  5  1  0
 16 11  1  0
 24 19  1  0
 33 28  1  0
 34 14  1  0
  4 35  1  0
  4 36  1  0
  6 37  1  0
  7 38  1  0
  8 39  1  0
  9 40  1  0
 10 41  1  0
 12 42  1  0
 13 43  1  0
 16 44  1  0
 18 45  1  0
 18 46  1  0
 20 47  1  0
 21 48  1  0
 22 49  1  0
 23 50  1  0
 29 51  1  0
 30 52  1  0
 31 53  1  0
 32 54  1  0
M  CHG  2   3  -1  10   1
M  END
>  <UniqueID>  (32) 
30

>  <SMILES>  (32) 
O=C([N-]Cc1cccc[nH+]1)c1ccc2c(c1)N(Cc1ccccc1F)C(=O)c1ccccc1S2

>  <Energy>  (32) 
76.72813029360182

>  <Genealogy>  (32) 
O=C([N-]Cc1cccc[nH+]1)c1ccc2c(c1)N(Cc1ccccc1F)C(=O)c1ccccc1S2 (protonated)
O=C([N-]Cc1cccc[nH+]1)c1ccc2c(c1)N(Cc1ccccc1F)C(=O)c1ccccc1S2 (3D coordinates assigned)
O=C([N-]Cc1cccc[nH+]1)c1ccc2c(c1)N(Cc1ccccc1F)C(=O)c1ccccc1S2 (nonaromatic ring conformer: 76.72813029360182 kcal/mol)

>  <smiles>  (32) 
O=C(NCc1ccccn1)c1ccc2c(c1)N(Cc1ccccc1F)C(=O)c1ccccc1S2

>  <score_type>  (32) 
oracle

>  <origin>  (32) 
adg

>  <m_score__min__energy>  (32) 
-9.4199999999999999

>  <m_primary>  (32) 
energy

$$$$
32:0
     RDKit          3D

 48 50  0  0  0  0  0  0  0  0999 V2000
   63.3980   34.0230   46.3640 C   0  0  0  0  0  0  0  0  0  0  0  0
   63.3720   33.1850   47.5940 C   0  0  0  0  0  0  0  0  0  0  0  0
   64.4230   33.1610   48.5000 C   0  0  0  0  0  0  0  0  0  0  0  0
   64.3500   32.3680   49.6250 C   0  0  0  0  0  0  0  0  0  0  0  0
   65.5050   32.3700   50.5790 C   0  0  0  0  0  0  0  0  0  0  0  0
   63.2590   31.5750   49.9060 C   0  0  0  0  0  0  0  0  0  0  0  0
   62.2170   31.6040   49.0020 C   0  0  0  0  0  0  0  0  0  0  0  0
   60.7270   30.6400   49.2070 S   0  0  0  0  0  0  0  0  0  0  0  0
   59.8050   30.5100   47.6790 C   0  0  0  0  0  0  0  0  0  0  0  0
   60.0120   29.6020   46.7180 N   0  0  0  0  0  0  0  0  0  0  0  0
   59.1360   29.8110   45.7300 C   0  0  0  0  0  0  0  0  0  0  0  0
   58.8680   29.2120   44.5060 C   0  0  0  0  0  0  0  0  0  0  0  0
   59.5660   28.2040   44.1240 N   0  0  0  0  0  0  0  0  0  0  0  0
   57.8870   29.6620   43.7000 N   0  0  0  0  0  0  0  0  0  0  0  0
   57.1170   30.7290   44.0570 C   0  0  0  0  0  0  0  0  0  0  0  0
   57.3630   31.3320   45.2560 N   0  0  0  0  0  0  0  0  0  0  0  0
   58.3370   30.8940   46.0710 C   0  0  0  0  0  0  0  0  0  0  0  0
   58.7790   31.2930   47.2710 N   0  0  0  0  0  0  0  0  0  0  0  0
   58.2300   32.4110   48.0240 C   0  0  0  0  0  0  0  0  0  0  0  0
   59.2520   33.5100   48.2080 C   0  0  0  0  0  0  0  0  0  0  0  0
   58.9190   34.5790   47.1610 C   0  0  0  0  0  0  0  0  0  0  0  0
   59.7580   34.4000   45.9160 C   0  0  0  0  0  0  0  0  0  0  0  0
   58.7810   34.2120   44.7570 C   0  0  0  0  0  0  0  0  0  0  0  0
   57.4690   34.2040   45.2380 O   0  0  0  0  0  0  0  0  0  0  0  0
   62.2840   32.4040   47.8610 C   0  0  0  0  0  0  0  0  0  0  0  0
   63.4310   35.0860   46.6451 H   0  0  0  0  0  0  0  0  0  0  0  0
   64.2888   33.7733   45.7690 H   0  0  0  0  0  0  0  0  0  0  0  0
   62.4934   33.8290   45.7690 H   0  0  0  0  0  0  0  0  0  0  0  0
   65.3167   33.7765   48.3198 H   0  0  0  0  0  0  0  0  0  0  0  0
   65.1272   32.3693   51.6121 H   0  0  0  0  0  0  0  0  0  0  0  0
   66.1195   31.4729   50.4127 H   0  0  0  0  0  0  0  0  0  0  0  0
   66.1164   33.2692   50.4127 H   0  0  0  0  0  0  0  0  0  0  0  0
   63.2204   30.9480   50.8090 H   0  0  0  0  0  0  0  0  0  0  0  0
   60.4050   27.8990   44.6790 H   0  0  0  0  0  0  0  0  0  0  0  0
   57.6670   29.2230   42.7680 H   0  0  0  0  0  0  0  0  0  0  0  0
   56.3178   31.0944   43.3953 H   0  0  0  0  0  0  0  0  0  0  0  0
   57.3631   32.8162   47.4814 H   0  0  0  0  0  0  0  0  0  0  0  0
   57.9335   32.0453   49.0182 H   0  0  0  0  0  0  0  0  0  0  0  0
   59.1803   33.9324   49.2211 H   0  0  0  0  0  0  0  0  0  0  0  0
   60.2771   33.1308   48.0836 H   0  0  0  0  0  0  0  0  0  0  0  0
   57.8553   34.4997   46.8921 H   0  0  0  0  0  0  0  0  0  0  0  0
   59.1361   35.5684   47.5899 H   0  0  0  0  0  0  0  0  0  0  0  0
   60.3814   35.2904   45.7467 H   0  0  0  0  0  0  0  0  0  0  0  0
   60.4321   33.5360   46.0118 H   0  0  0  0  0  0  0  0  0  0  0  0
   58.9018   35.0378   44.0404 H   0  0  0  0  0  0  0  0  0  0  0  0
   58.9901   33.2539   44.2586 H   0  0  0  0  0  0  0  0  0  0  0  0
   57.1450   33.2810   45.3990 H   0  0  0  0  0  0  0  0  0  0  0  0
   61.4381   32.4057   47.1578 H   0  0  0  0  0  0  0  0  0  0  0  0
  1  2  1  0
  2  3  2  0
  3  4  1  0
  4  5  1  0
  4  6  2  0
  6  7  1  0
  7  8  1  0
  8  9  1  0
  9 10  2  0
 10 11  1  0
 11 12  1  0
 12 13  2  3
 12 14  1  0
 14 15  1  0
 15 16  2  0
 16 17  1  0
 17 18  1  0
 18 19  1  0
 19 20  1  0
 20 21  1  0
 21 22  1  0
 22 23  1  0
 23 24  1  0
  7 25  2  0
 25  2  1  0
 18  9  1  0
 17 11  2  0
  1 26  1  0
  1 27  1  0
  1 28  1  0
  3 29  1  0
  5 30  1  0
  5 31  1  0
  5 32  1  0
  6 33  1  0
 13 34  1  0
 14 35  1  0
 15 36  1  0
 19 37  1  0
 19 38  1  0
 20 39  1  0
 20 40  1  0
 21 41  1  0
 21 42  1  0
 22 43  1  0
 22 44  1  0
 23 45  1  0
 23 46  1  0
 24 47  1  0
 25 48  1  0
M  END
>  <smiles>  (33) 
Cc1cc(C)cc(Sc2nc3c(=N)[nH]cnc3n2CCCCCO)c1

>  <score_type>  (33) 
oracle

>  <origin>  (33) 
adg

>  <m_score__min__energy>  (33) 
-7.4400000000000004

>  <m_primary>  (33) 
energy

$$$$
33:0
     RDKit          3D

 38 39  0  0  0  0  0  0  0  0999 V2000
   59.3510   30.4060   47.9400 C   0  0  0  0  0  0  0  0  0  0  0  0
   58.4980   31.3930   47.3710 O   0  0  0  0  0  0  0  0  0  0  0  0
   58.9210   32.6630   46.9440 C   0  0  0  0  0  0  0  0  0  0  0  0
   60.0160   33.3200   47.5380 C   0  0  0  0  0  0  0  0  0  0  0  0
   60.4100   34.5830   47.0930 C   0  0  0  0  0  0  0  0  0  0  0  0
   59.7250   35.2020   46.0480 C   0  0  0  0  0  0  0  0  0  0  0  0
   58.6400   34.5630   45.4460 C   0  0  0  0  0  0  0  0  0  0  0  0
   58.2210   33.2980   45.8940 C   0  0  0  0  0  0  0  0  0  0  0  0
   57.0180   32.6410   45.2640 C   0  0  0  0  0  0  0  0  0  0  0  0
   57.3710   32.0110   43.9890 N   0  0  0  0  0  0  0  0  0  0  0  0
   56.6560   30.4300   43.8340 S   0  0  0  0  0  0  0  0  0  0  0  0
   55.2980   30.4270   44.4810 O   0  0  0  0  0  0  0  0  0  0  0  0
   56.4960   30.1060   42.3760 O   0  0  0  0  0  0  0  0  0  0  0  0
   57.6900   29.2110   44.5720 C   0  0  0  0  0  0  0  0  0  0  0  0
   59.0840   29.3570   44.5700 C   0  0  0  0  0  0  0  0  0  0  0  0
   59.8950   28.3590   45.1160 C   0  0  0  0  0  0  0  0  0  0  0  0
   59.3190   27.2100   45.6630 C   0  0  0  0  0  0  0  0  0  0  0  0
   57.9260   27.0550   45.6740 C   0  0  0  0  0  0  0  0  0  0  0  0
   57.2180   25.5910   46.3480 S   0  0  0  0  0  0  0  0  0  0  0  0
   57.6390   24.2140   45.3900 N   0  0  0  0  0  0  0  0  0  0  0  0
   55.7220   25.7340   46.3890 O   0  0  0  0  0  0  0  0  0  0  0  0
   57.7400   25.3850   47.7420 O   0  0  0  0  0  0  0  0  0  0  0  0
   57.1140   28.0650   45.1390 C   0  0  0  0  0  0  0  0  0  0  0  0
   59.2996   30.4654   49.0372 H   0  0  0  0  0  0  0  0  0  0  0  0
   59.0268   29.4076   47.6113 H   0  0  0  0  0  0  0  0  0  0  0  0
   60.3859   30.5821   47.6113 H   0  0  0  0  0  0  0  0  0  0  0  0
   60.5647   32.8344   48.3585 H   0  0  0  0  0  0  0  0  0  0  0  0
   61.2625   35.0910   47.5676 H   0  0  0  0  0  0  0  0  0  0  0  0
   60.0404   36.1958   45.6974 H   0  0  0  0  0  0  0  0  0  0  0  0
   58.1094   35.0522   44.6158 H   0  0  0  0  0  0  0  0  0  0  0  0
   56.6276   31.8735   45.9485 H   0  0  0  0  0  0  0  0  0  0  0  0
   56.2566   33.4120   45.0749 H   0  0  0  0  0  0  0  0  0  0  0  0
   59.5406   30.2595   44.1375 H   0  0  0  0  0  0  0  0  0  0  0  0
   60.9885   28.4782   45.1151 H   0  0  0  0  0  0  0  0  0  0  0  0
   59.9611   26.4238   46.0868 H   0  0  0  0  0  0  0  0  0  0  0  0
   57.0570   24.2540   44.5230 H   0  0  0  0  0  0  0  0  0  0  0  0
   58.6310   24.3380   45.0880 H   0  0  0  0  0  0  0  0  0  0  0  0
   56.0195   27.9580   45.1641 H   0  0  0  0  0  0  0  0  0  0  0  0
  1  2  1  0
  2  3  1  0
  3  4  2  0
  4  5  1  0
  5  6  2  0
  6  7  1  0
  7  8  2  0
  8  9  1  0
  9 10  1  0
 10 11  1  0
 11 12  2  0
 11 13  2  0
 11 14  1  0
 14 15  2  0
 15 16  1  0
 16 17  2  0
 17 18  1  0
 18 19  1  0
 19 20  1  0
 19 21  2  0
 19 22  2  0
 18 23  2  0
  8  3  1  0
 23 14  1  0
  1 24  1  0
  1 25  1  0
  1 26  1  0
  4 27  1  0
  5 28  1  0
  6 29  1  0
  7 30  1  0
  9 31  1  0
  9 32  1  0
 15 33  1  0
 16 34  1  0
 17 35  1  0
 20 36  1  0
 20 37  1  0
 23 38  1  0
M  CHG  1  10  -1
M  END
>  <UniqueID>  (34) 
31

>  <SMILES>  (34) 
COc1ccccc1C[N-]S(=O)(=O)c1cccc(S(N)(=O)=O)c1

>  <Energy>  (34) 
30.839244781772052

>  <Genealogy>  (34) 
COc1ccccc1C[N-]S(=O)(=O)c1cccc(S(N)(=O)=O)c1 (protonated)
COc1ccccc1C[N-]S(=O)(=O)c1cccc(S(N)(=O)=O)c1 (3D coordinates assigned)
COc1ccccc1C[N-]S(=O)(=O)c1cccc(S(N)(=O)=O)c1 (optimized conformer: 30.839244781772052 kcal/mol)

>  <smiles>  (34) 
COc1ccccc1CNS(=O)(=O)c1cccc(S(N)(=O)=O)c1

>  <score_type>  (34) 
oracle

>  <origin>  (34) 
adg

>  <m_score__min__energy>  (34) 
-9.8000000000000007

>  <m_primary>  (34) 
energy

$$$$
34:0
     RDKit          3D

 59 63  0  0  0  0  0  0  0  0999 V2000
   61.5030   31.3440   50.7480 O   0  0  0  0  0  0  0  0  0  0  0  0
   60.6120   31.5540   49.8800 C   0  0  0  0  0  0  0  0  0  0  0  0
   60.0030   32.8460   49.7780 N   0  0  0  0  0  0  0  0  0  0  0  0
   59.5930   33.4940   48.5650 C   0  0  0  0  0  0  0  0  0  0  0  0
   58.4070   33.1170   47.9090 C   0  0  0  0  0  0  0  0  0  0  0  0
   58.0350   33.7260   46.7020 C   0  0  0  0  0  0  0  0  0  0  0  0
   56.7410   33.3500   46.0350 C   0  0  0  0  0  0  0  0  0  0  0  0
   57.0160   32.6040   44.8100 N   0  0  0  0  0  0  0  0  0  0  0  0
   57.7820   33.0210   43.7830 C   0  0  0  0  0  0  0  0  0  0  0  0
   57.8600   31.9980   42.8560 C   0  0  0  0  0  0  0  0  0  0  0  0
   57.1150   30.9660   43.3980 C   0  0  0  0  0  0  0  0  0  0  0  0
   56.6220   31.3620   44.5850 N   0  0  0  0  0  0  0  0  0  0  0  0
   58.8420   34.7370   46.1620 C   0  0  0  0  0  0  0  0  0  0  0  0
   60.0120   35.1260   46.8160 C   0  0  0  0  0  0  0  0  0  0  0  0
   60.3830   34.5310   48.0260 C   0  0  0  0  0  0  0  0  0  0  0  0
   61.5690   34.9510   48.6430 O   0  0  0  0  0  0  0  0  0  0  0  0
   62.6040   34.0960   49.0490 C   0  0  0  0  0  0  0  0  0  0  0  0
   63.1400   33.1210   48.1860 C   0  0  0  0  0  0  0  0  0  0  0  0
   64.1680   32.2810   48.6260 C   0  0  0  0  0  0  0  0  0  0  0  0
   64.6670   32.4080   49.9250 C   0  0  0  0  0  0  0  0  0  0  0  0
   64.1290   33.3650   50.7900 C   0  0  0  0  0  0  0  0  0  0  0  0
   63.0940   34.1990   50.3550 C   0  0  0  0  0  0  0  0  0  0  0  0
   60.1330   30.4400   49.0340 C   0  0  0  0  0  0  0  0  0  0  0  0
   59.0580   29.6410   49.4640 C   0  0  0  0  0  0  0  0  0  0  0  0
   58.5770   28.6050   48.6610 C   0  0  0  0  0  0  0  0  0  0  0  0
   59.1590   28.3470   47.4120 C   0  0  0  0  0  0  0  0  0  0  0  0
   58.6630   27.2300   46.5740 C   0  0  0  0  0  0  0  0  0  0  0  0
   59.3510   26.0040   46.6330 C   0  0  0  0  0  0  0  0  0  0  0  0
   58.9840   24.9410   45.8070 C   0  0  0  0  0  0  0  0  0  0  0  0
   57.9290   25.0870   44.9080 C   0  0  0  0  0  0  0  0  0  0  0  0
   57.2260   26.2900   44.8430 C   0  0  0  0  0  0  0  0  0  0  0  0
   57.5660   27.3720   45.6780 C   0  0  0  0  0  0  0  0  0  0  0  0
   56.7290   28.5960   45.6150 C   0  0  0  0  0  0  0  0  0  0  0  0
   55.6220   28.5960   45.0120 O   0  0  0  0  0  0  0  0  0  0  0  0
   57.1810   29.7800   46.1880 O   0  0  0  0  0  0  0  0  0  0  0  0
   60.2510   29.1200   46.9910 C   0  0  0  0  0  0  0  0  0  0  0  0
   60.7320   30.1620   47.7900 C   0  0  0  0  0  0  0  0  0  0  0  0
   61.8080   30.8660   47.3590 F   0  0  0  0  0  0  0  0  0  0  0  0
   57.7659   32.3377   48.3468 H   0  0  0  0  0  0  0  0  0  0  0  0
   56.1461   32.7253   46.7175 H   0  0  0  0  0  0  0  0  0  0  0  0
   56.1809   34.2635   45.7866 H   0  0  0  0  0  0  0  0  0  0  0  0
   58.2630   34.0065   43.6968 H   0  0  0  0  0  0  0  0  0  0  0  0
   58.3975   32.0036   41.8963 H   0  0  0  0  0  0  0  0  0  0  0  0
   56.9524   29.9821   42.9339 H   0  0  0  0  0  0  0  0  0  0  0  0
   56.0360   30.7910   45.2340 H   0  0  0  0  0  0  0  0  0  0  0  0
   58.5522   35.2253   45.2199 H   0  0  0  0  0  0  0  0  0  0  0  0
   60.6482   35.9078   46.3756 H   0  0  0  0  0  0  0  0  0  0  0  0
   62.7491   33.0197   47.1628 H   0  0  0  0  0  0  0  0  0  0  0  0
   64.5839   31.5201   47.9492 H   0  0  0  0  0  0  0  0  0  0  0  0
   65.4833   31.7547   50.2669 H   0  0  0  0  0  0  0  0  0  0  0  0
   64.5199   33.4623   51.8136 H   0  0  0  0  0  0  0  0  0  0  0  0
   62.6628   34.9402   51.0439 H   0  0  0  0  0  0  0  0  0  0  0  0
   58.5922   29.8341   50.4416 H   0  0  0  0  0  0  0  0  0  0  0  0
   57.7364   27.9876   49.0105 H   0  0  0  0  0  0  0  0  0  0  0  0
   60.1869   25.8823   47.3376 H   0  0  0  0  0  0  0  0  0  0  0  0
   59.5279   23.9867   45.8654 H   0  0  0  0  0  0  0  0  0  0  0  0
   57.6502   24.2519   44.2485 H   0  0  0  0  0  0  0  0  0  0  0  0
   56.3949   26.3950   44.1300 H   0  0  0  0  0  0  0  0  0  0  0  0
   60.7324   28.9051   46.0256 H   0  0  0  0  0  0  0  0  0  0  0  0
  1  2  2  0
  2  3  1  0
  3  4  1  0
  4  5  2  0
  5  6  1  0
  6  7  1  0
  7  8  1  0
  8  9  1  0
  9 10  2  0
 10 11  1  0
 11 12  2  0
  6 13  2  0
 13 14  1  0
 14 15  2  0
 15 16  1  0
 16 17  1  0
 17 18  2  0
 18 19  1  0
 19 20  2  0
 20 21  1  0
 21 22  2  0
  2 23  1  0
 23 24  2  0
 24 25  1  0
 25 26  2  0
 26 27  1  0
 27 28  2  0
 28 29  1  0
 29 30  2  0
 30 31  1  0
 31 32  2  0
 32 33  1  0
 33 34  2  0
 33 35  1  0
 26 36  1  0
 36 37  2  0
 37 38  1  0
 15  4  1  0
 22 17  1  0
 37 23  1  0
 12  8  1  0
 32 27  1  0
  5 39  1  0
  7 40  1  0
  7 41  1  0
  9 42  1  0
 10 43  1  0
 11 44  1  0
 12 45  1  0
 13 46  1  0
 14 47  1  0
 18 48  1  0
 19 49  1  0
 20 50  1  0
 21 51  1  0
 22 52  1  0
 24 53  1  0
 25 54  1  0
 28 55  1  0
 29 56  1  0
 30 57  1  0
 31 58  1  0
 36 59  1  0
M  CHG  3   3  -1  12   1  35  -1
M  END
>  <UniqueID>  (35) 
32

>  <SMILES>  (35) 
O=C([N-]c1cc(Cn2ccc[nH+]2)ccc1Oc1ccccc1)c1ccc(-c2ccccc2C(=O)[O-])cc1F

>  <Energy>  (35) 
117.59974932274959

>  <Genealogy>  (35) 
O=C([N-]c1cc(Cn2ccc[nH+]2)ccc1Oc1ccccc1)c1ccc(-c2ccccc2C(=O)[O-])cc1F (protonated)
O=C([N-]c1cc(Cn2ccc[nH+]2)ccc1Oc1ccccc1)c1ccc(-c2ccccc2C(=O)[O-])cc1F (3D coordinates assigned)
O=C([N-]c1cc(Cn2ccc[nH+]2)ccc1Oc1ccccc1)c1ccc(-c2ccccc2C(=O)[O-])cc1F (optimized conformer: 117.59974932274959 kcal/mol)

>  <smiles>  (35) 
O=C(Nc1cc(Cn2cccn2)ccc1Oc1ccccc1)c1ccc(-c2ccccc2C(=O)O)cc1F

>  <score_type>  (35) 
oracle

>  <origin>  (35) 
adg

>  <m_score__min__energy>  (35) 
-13.109999999999999

>  <m_primary>  (35) 
energy

$$$$
35:0
     RDKit          3D

 61 65  0  0  0  0  0  0  0  0999 V2000
   49.9760   32.3240   49.6610 H   0  0  0  0  0  0  0  0  0  0  0  0
   50.7180   31.6080   49.8350 N   0  0  0  0  0  0  0  0  0  0  0  0
   51.4090   31.9400   51.3830 S   0  0  0  0  0  0  0  0  0  0  0  0
   50.4540   32.7920   52.1710 O   0  0  0  0  0  0  0  0  0  0  0  0
   52.7020   32.6870   51.2090 O   0  0  0  0  0  0  0  0  0  0  0  0
   51.7180   30.4250   52.2260 C   0  0  0  0  0  0  0  0  0  0  0  0
   50.6440   29.7060   52.7640 C   0  0  0  0  0  0  0  0  0  0  0  0
   49.6226   30.1070   52.6872 H   0  0  0  0  0  0  0  0  0  0  0  0
   50.8650   28.4810   53.3980 C   0  0  0  0  0  0  0  0  0  0  0  0
   50.0185   27.9216   53.8228 H   0  0  0  0  0  0  0  0  0  0  0  0
   52.1590   27.9660   53.4930 C   0  0  0  0  0  0  0  0  0  0  0  0
   52.3256   26.9880   53.9682 H   0  0  0  0  0  0  0  0  0  0  0  0
   53.2460   28.6890   52.9860 C   0  0  0  0  0  0  0  0  0  0  0  0
   54.5530   28.0980   53.0360 N   0  0  0  0  0  0  0  0  0  0  0  0
   55.3940   28.0880   54.0310 C   0  0  0  0  0  0  0  0  0  0  0  0
   55.1454   27.4546   54.8953 H   0  0  0  0  0  0  0  0  0  0  0  0
   56.6590   28.8600   54.0950 C   0  0  0  0  0  0  0  0  0  0  0  0
   56.7990   29.8260   55.1040 C   0  0  0  0  0  0  0  0  0  0  0  0
   56.0309   29.9108   55.8868 H   0  0  0  0  0  0  0  0  0  0  0  0
   57.9030   30.6800   55.1240 C   0  0  0  0  0  0  0  0  0  0  0  0
   57.9927   31.4387   55.9154 H   0  0  0  0  0  0  0  0  0  0  0  0
   58.8970   30.5770   54.1430 C   0  0  0  0  0  0  0  0  0  0  0  0
   59.9960   31.5660   54.1200 C   0  0  0  0  0  0  0  0  0  0  0  0
   60.1649   32.1695   55.0240 H   0  0  0  0  0  0  0  0  0  0  0  0
   60.7770   31.7680   53.0970 N   0  0  0  0  0  0  0  0  0  0  0  0
   60.4620   31.5710   51.7100 C   0  0  0  0  0  0  0  0  0  0  0  0
   59.3000   32.1170   51.1390 C   0  0  0  0  0  0  0  0  0  0  0  0
   58.6490   32.7697   51.7391 H   0  0  0  0  0  0  0  0  0  0  0  0
   58.9690   31.8340   49.8130 C   0  0  0  0  0  0  0  0  0  0  0  0
   58.0720   32.2861   49.3646 H   0  0  0  0  0  0  0  0  0  0  0  0
   59.7750   30.9750   49.0480 C   0  0  0  0  0  0  0  0  0  0  0  0
   59.4830   30.7170   47.6660 N   0  0  0  0  0  0  0  0  0  0  0  0
   58.8280   31.4790   46.8300 C   0  0  0  0  0  0  0  0  0  0  0  0
   58.7050   32.8690   47.0300 C   0  0  0  0  0  0  0  0  0  0  0  0
   59.1732   33.3419   47.9059 H   0  0  0  0  0  0  0  0  0  0  0  0
   57.9900   33.6450   46.1180 C   0  0  0  0  0  0  0  0  0  0  0  0
   57.9060   34.7307   46.2737 H   0  0  0  0  0  0  0  0  0  0  0  0
   57.3970   33.0720   45.0400 N   0  0  0  0  0  0  0  0  0  0  0  0
   56.8690   33.6880   44.3800 H   0  0  0  0  0  0  0  0  0  0  0  0
   57.4730   31.7300   44.8130 C   0  0  0  0  0  0  0  0  0  0  0  0
   56.8430   31.1700   43.6910 C   0  0  0  0  0  0  0  0  0  0  0  0
   56.2824   31.8173   43.0005 H   0  0  0  0  0  0  0  0  0  0  0  0
   56.9220   29.7940   43.4430 C   0  0  0  0  0  0  0  0  0  0  0  0
   56.2790   29.2300   42.2960 N   0  0  0  0  0  0  0  0  0  0  0  0
   56.2210   28.1950   42.1690 H   0  0  0  0  0  0  0  0  0  0  0  0
   55.8500   29.8440   41.5680 H   0  0  0  0  0  0  0  0  0  0  0  0
   57.6360   28.9720   44.3230 C   0  0  0  0  0  0  0  0  0  0  0  0
   57.7044   27.8918   44.1268 H   0  0  0  0  0  0  0  0  0  0  0  0
   58.2620   29.5130   45.4480 C   0  0  0  0  0  0  0  0  0  0  0  0
   58.8151   28.8552   46.1346 H   0  0  0  0  0  0  0  0  0  0  0  0
   58.1900   30.8970   45.7100 C   0  0  0  0  0  0  0  0  0  0  0  0
   60.9430   30.4470   49.6110 C   0  0  0  0  0  0  0  0  0  0  0  0
   61.6060   29.8133   49.0036 H   0  0  0  0  0  0  0  0  0  0  0  0
   61.2700   30.7220   50.9420 C   0  0  0  0  0  0  0  0  0  0  0  0
   62.1672   30.2691   51.3892 H   0  0  0  0  0  0  0  0  0  0  0  0
   58.7570   29.6220   53.1230 C   0  0  0  0  0  0  0  0  0  0  0  0
   59.5295   29.5361   52.3446 H   0  0  0  0  0  0  0  0  0  0  0  0
   57.6420   28.7800   53.0910 C   0  0  0  0  0  0  0  0  0  0  0  0
   57.5320   28.0499   52.2756 H   0  0  0  0  0  0  0  0  0  0  0  0
   53.0210   29.9150   52.3370 C   0  0  0  0  0  0  0  0  0  0  0  0
   53.8678   30.4762   51.9151 H   0  0  0  0  0  0  0  0  0  0  0  0
  1  2  1  0
  2  3  1  0
  3  4  2  0
  3  5  2  0
  3  6  1  0
  6  7  2  0
  7  8  1  0
  7  9  1  0
  9 10  1  0
  9 11  2  0
 11 12  1  0
 11 13  1  0
 13 14  1  0
 14 15  2  3
 15 16  1  0
 15 17  1  0
 17 18  2  0
 18 19  1  0
 18 20  1  0
 20 21  1  0
 20 22  2  0
 22 23  1  0
 23 24  1  0
 23 25  2  3
 25 26  1  0
 26 27  2  0
 27 28  1  0
 27 29  1  0
 29 30  1  0
 29 31  2  0
 31 32  1  0
 32 33  2  0
 33 34  1  0
 34 35  1  0
 34 36  2  0
 36 37  1  0
 36 38  1  0
 38 39  1  0
 38 40  1  0
 40 41  2  0
 41 42  1  0
 41 43  1  0
 43 44  1  0
 44 45  1  0
 44 46  1  0
 43 47  2  0
 47 48  1  0
 47 49  1  0
 49 50  1  0
 49 51  2  0
 31 52  1  0
 52 53  1  0
 52 54  2  0
 54 55  1  0
 22 56  1  0
 56 57  1  0
 56 58  2  0
 58 59  1  0
 13 60  2  0
 60 61  1  0
 60  6  1  0
 58 17  1  0
 54 26  1  0
 51 33  1  0
 51 40  1  0
M  CHG  1   2  -1
M  END
>  <UniqueID>  (36) 
33

>  <SMILES>  (36) 
[NH-]S(=O)(=O)c1cccc(N=Cc2ccc(C=Nc3ccc(/N=c4\cc[nH]c5cc(N)ccc45)cc3)cc2)c1

>  <Energy>  (36) 
101.08897352919459

>  <Genealogy>  (36) 
[NH-]S(=O)(=O)c1cccc(N=Cc2ccc(C=Nc3ccc(N=c4cc[nH]c5cc(N)ccc45)cc3)cc2)c1 (protonated)
[NH-]S(=O)(=O)c1cccc(N=Cc2ccc(C=Nc3ccc(/N=c4\cc[nH]c5cc(N)ccc45)cc3)cc2)c1 (cis-trans isomerization)
[NH-]S(=O)(=O)c1cccc(N=Cc2ccc(C=Nc3ccc(/N=c4\cc[nH]c5cc(N)ccc45)cc3)cc2)c1 (3D coordinates assigned)
[NH-]S(=O)(=O)c1cccc(N=Cc2ccc(C=Nc3ccc(/N=c4\cc[nH]c5cc(N)ccc45)cc3)cc2)c1 (optimized conformer: 101.08897352919459 kcal/mol)

>  <smiles>  (36) 
Nc1ccc2c(=Nc3ccc(N=Cc4ccc(C=Nc5cccc(S(N)(=O)=O)c5)cc4)cc3)cc[nH]c2c1

>  <score_type>  (36) 
oracle

>  <origin>  (36) 
adg

>  <m_score__min__energy>  (36) 
-13.76

>  <m_primary>  (36) 
energy

$$$$
36:0
     RDKit          3D

 38 39  0  0  0  0  0  0  0  0999 V2000
   64.7780   32.6490   49.3610 C   0  0  0  0  0  0  0  0  0  0  0  0
   64.1170   32.2810   48.1550 O   0  0  0  0  0  0  0  0  0  0  0  0
   62.7630   32.5290   47.8860 C   0  0  0  0  0  0  0  0  0  0  0  0
   62.4350   33.6130   47.0650 C   0  0  0  0  0  0  0  0  0  0  0  0
   61.0990   33.9000   46.7660 C   0  0  0  0  0  0  0  0  0  0  0  0
   60.0690   33.1080   47.2960 C   0  0  0  0  0  0  0  0  0  0  0  0
   58.6340   33.3970   46.9420 C   0  0  0  0  0  0  0  0  0  0  0  0
   58.2630   32.6960   45.7020 N   0  0  0  0  0  0  0  0  0  0  0  0
   57.6860   31.4610   45.7860 C   0  0  0  0  0  0  0  0  0  0  0  0
   57.2980   30.7670   44.6330 C   0  0  0  0  0  0  0  0  0  0  0  0
   56.6820   29.4230   44.7630 C   0  0  0  0  0  0  0  0  0  0  0  0
   55.4300   29.3330   44.8980 O   0  0  0  0  0  0  0  0  0  0  0  0
   57.5080   28.1640   44.7230 C   0  0  0  0  0  0  0  0  0  0  0  0
   57.5060   27.4750   46.0600 C   0  0  0  0  0  0  0  0  0  0  0  0
   58.4340   27.7120   46.8790 O   0  0  0  0  0  0  0  0  0  0  0  0
   56.4580   26.5050   46.4160 C   0  0  0  0  0  0  0  0  0  0  0  0
   56.7370   25.4830   47.0960 O   0  0  0  0  0  0  0  0  0  0  0  0
   55.1480   26.7160   46.0040 O   0  0  0  0  0  0  0  0  0  0  0  0
   57.4890   31.4000   43.3940 C   0  0  0  0  0  0  0  0  0  0  0  0
   57.1110   30.8510   42.3230 O   0  0  0  0  0  0  0  0  0  0  0  0
   58.0630   32.6300   43.3450 N   0  0  0  0  0  0  0  0  0  0  0  0
   58.4460   33.2800   44.4760 C   0  0  0  0  0  0  0  0  0  0  0  0
   58.9670   34.4260   44.3820 O   0  0  0  0  0  0  0  0  0  0  0  0
   60.3950   32.0140   48.1130 C   0  0  0  0  0  0  0  0  0  0  0  0
   61.7300   31.7270   48.4110 C   0  0  0  0  0  0  0  0  0  0  0  0
   64.1806   32.3164   50.2227 H   0  0  0  0  0  0  0  0  0  0  0  0
   65.7689   32.1727   49.3961 H   0  0  0  0  0  0  0  0  0  0  0  0
   64.8952   33.7422   49.3961 H   0  0  0  0  0  0  0  0  0  0  0  0
   63.2344   34.2451   46.6510 H   0  0  0  0  0  0  0  0  0  0  0  0
   60.8547   34.7504   46.1124 H   0  0  0  0  0  0  0  0  0  0  0  0
   57.9826   33.0563   47.7603 H   0  0  0  0  0  0  0  0  0  0  0  0
   58.5137   34.4799   46.7908 H   0  0  0  0  0  0  0  0  0  0  0  0
   57.5236   31.0047   46.7736 H   0  0  0  0  0  0  0  0  0  0  0  0
   57.0897   27.4833   43.9669 H   0  0  0  0  0  0  0  0  0  0  0  0
   58.5440   28.4326   44.4688 H   0  0  0  0  0  0  0  0  0  0  0  0
   58.2020   33.0930   42.4160 H   0  0  0  0  0  0  0  0  0  0  0  0
   59.5950   31.3788   48.5211 H   0  0  0  0  0  0  0  0  0  0  0  0
   61.9753   30.8718   49.0578 H   0  0  0  0  0  0  0  0  0  0  0  0
  1  2  1  0
  2  3  1  0
  3  4  2  0
  4  5  1  0
  5  6  2  0
  6  7  1  0
  7  8  1  0
  8  9  1  0
  9 10  2  0
 10 11  1  0
 11 12  2  0
 11 13  1  0
 13 14  1  0
 14 15  2  0
 14 16  1  0
 16 17  2  0
 16 18  1  0
 10 19  1  0
 19 20  2  0
 19 21  1  0
 21 22  1  0
 22 23  2  0
  6 24  1  0
 24 25  2  0
 25  3  1  0
 22  8  1  0
  1 26  1  0
  1 27  1  0
  1 28  1  0
  4 29  1  0
  5 30  1  0
  7 31  1  0
  7 32  1  0
  9 33  1  0
 13 34  1  0
 13 35  1  0
 21 36  1  0
 24 37  1  0
 25 38  1  0
M  CHG  1  18  -1
M  END
>  <UniqueID>  (37) 
34

>  <SMILES>  (37) 
COc1ccc(Cn2cc(C(=O)CC(=O)C(=O)[O-])c(=O)[nH]c2=O)cc1

>  <Energy>  (37) 
41.992939581723995

>  <Genealogy>  (37) 
COc1ccc(Cn2cc(C(=O)CC(=O)C(=O)[O-])c(=O)[nH]c2=O)cc1 (protonated)
COc1ccc(Cn2cc(C(=O)CC(=O)C(=O)[O-])c(=O)[nH]c2=O)cc1 (3D coordinates assigned)
COc1ccc(Cn2cc(C(=O)CC(=O)C(=O)[O-])c(=O)[nH]c2=O)cc1 (optimized conformer: 41.992939581723995 kcal/mol)

>  <smiles>  (37) 
COc1ccc(Cn2cc(C(=O)CC(=O)C(=O)O)c(=O)[nH]c2=O)cc1

>  <score_type>  (37) 
oracle

>  <origin>  (37) 
adg

>  <m_score__min__energy>  (37) 
-10.31

>  <m_primary>  (37) 
energy

$$$$
37:0
     RDKit          3D

 39 40  0  0  0  0  0  0  0  0999 V2000
   57.1890   27.4620   46.8460 O   0  0  0  0  0  0  0  0  0  0  0  0
   57.8670   27.0720   45.8560 C   0  0  0  0  0  0  0  0  0  0  0  0
   57.9010   25.6190   45.5080 C   0  0  0  0  0  0  0  0  0  0  0  0
   56.7660   25.3010   44.7390 O   0  0  0  0  0  0  0  0  0  0  0  0
   55.4340   25.1860   45.7780 S   0  0  0  0  0  0  0  0  0  0  0  0
   55.8870   24.5990   47.0840 O   0  0  0  0  0  0  0  0  0  0  0  0
   54.3880   24.2890   45.1760 O   0  0  0  0  0  0  0  0  0  0  0  0
   54.7770   26.7060   46.0650 O   0  0  0  0  0  0  0  0  0  0  0  0
   58.6620   28.0010   45.1100 N   0  0  0  0  0  0  0  0  0  0  0  0
   58.5970   29.4250   45.2590 C   0  0  0  0  0  0  0  0  0  0  0  0
   59.7060   30.0830   45.8040 C   0  0  0  0  0  0  0  0  0  0  0  0
   59.6700   31.4580   46.0420 C   0  0  0  0  0  0  0  0  0  0  0  0
   58.5250   32.1970   45.7250 C   0  0  0  0  0  0  0  0  0  0  0  0
   58.4950   33.9330   46.0200 S   0  0  0  0  0  0  0  0  0  0  0  0
   57.6670   34.6370   44.9800 O   0  0  0  0  0  0  0  0  0  0  0  0
   57.8940   34.1830   47.3730 O   0  0  0  0  0  0  0  0  0  0  0  0
   60.1100   34.5690   45.9820 N   0  0  0  0  0  0  0  0  0  0  0  0
   61.1620   34.1470   46.8680 C   0  0  0  0  0  0  0  0  0  0  0  0
   60.9630   34.0240   48.2580 C   0  0  0  0  0  0  0  0  0  0  0  0
   62.0120   33.6210   49.0890 C   0  0  0  0  0  0  0  0  0  0  0  0
   63.2660   33.3250   48.5450 C   0  0  0  0  0  0  0  0  0  0  0  0
   64.5790   32.8130   49.5920 Cl  0  0  0  0  0  0  0  0  0  0  0  0
   63.4710   33.4350   47.1670 C   0  0  0  0  0  0  0  0  0  0  0  0
   62.4260   33.8440   46.3330 C   0  0  0  0  0  0  0  0  0  0  0  0
   57.4230   31.5540   45.1510 C   0  0  0  0  0  0  0  0  0  0  0  0
   57.4520   30.1730   44.8870 C   0  0  0  0  0  0  0  0  0  0  0  0
   56.3550   29.5650   44.1840 N   0  0  0  0  0  0  0  0  0  0  0  0
   55.2740   29.3490   44.7730 O   0  0  0  0  0  0  0  0  0  0  0  0
   56.4160   29.3830   42.8220 O   0  0  0  0  0  0  0  0  0  0  0  0
   58.8106   25.4004   44.9293 H   0  0  0  0  0  0  0  0  0  0  0  0
   57.9035   25.0181   46.4294 H   0  0  0  0  0  0  0  0  0  0  0  0
   60.6139   29.5114   46.0469 H   0  0  0  0  0  0  0  0  0  0  0  0
   60.5442   31.9619   46.4800 H   0  0  0  0  0  0  0  0  0  0  0  0
   60.2900   35.3580   45.3190 H   0  0  0  0  0  0  0  0  0  0  0  0
   59.9766   34.2464   48.6911 H   0  0  0  0  0  0  0  0  0  0  0  0
   61.8509   33.5364   50.1738 H   0  0  0  0  0  0  0  0  0  0  0  0
   64.4560   33.1994   46.7378 H   0  0  0  0  0  0  0  0  0  0  0  0
   62.5944   33.9294   45.2493 H   0  0  0  0  0  0  0  0  0  0  0  0
   56.5229   32.1357   44.9032 H   0  0  0  0  0  0  0  0  0  0  0  0
  1  2  2  0
  2  3  1  0
  3  4  1  0
  4  5  1  0
  5  6  2  0
  5  7  2  0
  5  8  1  0
  2  9  1  0
  9 10  1  0
 10 11  2  0
 11 12  1  0
 12 13  2  0
 13 14  1  0
 14 15  2  0
 14 16  2  0
 14 17  1  0
 17 18  1  0
 18 19  2  0
 19 20  1  0
 20 21  2  0
 21 22  1  0
 21 23  1  0
 23 24  2  0
 13 25  1  0
 25 26  2  0
 26 27  1  0
 27 28  2  0
 27 29  1  0
 26 10  1  0
 24 18  1  0
  3 30  1  0
  3 31  1  0
 11 32  1  0
 12 33  1  0
 17 34  1  0
 19 35  1  0
 20 36  1  0
 23 37  1  0
 24 38  1  0
 25 39  1  0
M  CHG  4   8  -1   9  -1  27   1  29  -1
M  END
>  <UniqueID>  (38) 
35

>  <SMILES>  (38) 
O=C(COS(=O)(=O)[O-])[N-]c1ccc(S(=O)(=O)Nc2ccc(Cl)cc2)cc1[N+](=O)[O-]

>  <Energy>  (38) 
51.120962054397936

>  <Genealogy>  (38) 
O=C(COS(=O)(=O)[O-])[N-]c1ccc(S(=O)(=O)Nc2ccc(Cl)cc2)cc1[N+](=O)[O-] (protonated)
O=C(COS(=O)(=O)[O-])[N-]c1ccc(S(=O)(=O)Nc2ccc(Cl)cc2)cc1[N+](=O)[O-] (3D coordinates assigned)
O=C(COS(=O)(=O)[O-])[N-]c1ccc(S(=O)(=O)Nc2ccc(Cl)cc2)cc1[N+](=O)[O-] (optimized conformer: 51.120962054397936 kcal/mol)

>  <smiles>  (38) 
O=C(COS(=O)(=O)O)Nc1ccc(S(=O)(=O)Nc2ccc(Cl)cc2)cc1[N+](=O)[O-]

>  <score_type>  (38) 
oracle

>  <origin>  (38) 
adg

>  <m_score__min__energy>  (38) 
-14.380000000000001

>  <m_primary>  (38) 
energy

$$$$
38:0
     RDKit          3D

 48 51  0  0  1  0  0  0  0  0999 V2000
   64.4170   33.1720   47.6930 N   0  0  0  0  0  0  0  0  0  0  0  0
   63.0930   33.2640   48.8010 S   0  0  0  0  0  0  0  0  0  0  0  0
   63.1540   32.1010   49.7490 O   0  0  0  0  0  0  0  0  0  0  0  0
   63.3010   34.5140   49.6360 O   0  0  0  0  0  0  0  0  0  0  0  0
   61.5700   33.3500   47.9550 C   0  0  0  0  0  0  0  0  0  0  0  0
   61.5270   33.8060   46.6540 C   0  0  0  0  0  0  0  0  0  0  0  0
   60.3540   33.8790   45.9800 C   0  0  0  0  0  0  0  0  0  0  0  0
   59.1180   33.5050   46.5350 C   0  0  0  0  0  0  0  0  0  0  0  0
   58.0130   33.6230   45.6950 N   0  0  0  0  0  0  0  0  0  0  0  0
   57.6320   32.8000   44.8360 C   0  0  0  0  0  0  0  0  0  0  0  0
   57.8580   33.1160   43.4910 C   0  0  0  0  0  0  0  0  0  0  0  0
   57.4510   32.2150   42.5300 C   0  0  0  0  0  0  0  0  0  0  0  0
   57.6960   32.5240   40.8050 Cl  0  0  0  0  0  0  0  0  0  0  0  0
   56.8540   31.0750   42.9550 N   0  0  0  0  0  0  0  0  0  0  0  0
   56.6440   30.7870   44.2460 C   0  0  0  0  0  0  0  0  0  0  0  0
   55.8950   29.2730   44.8210 S   0  0  0  0  0  0  0  0  0  0  0  0
   57.0270   27.8890   44.8500 C   0  0  0  0  0  0  0  0  0  0  0  0
   57.9150   27.7790   46.0070 C   0  0  0  0  0  0  0  0  0  0  0  0
   57.8060   26.7320   46.9340 C   0  0  0  0  0  0  0  0  0  0  0  0
   56.8840   25.6050   46.9180 C   0  0  0  0  0  0  0  0  0  0  0  0
   57.1330   24.5020   47.5070 O   0  0  0  0  0  0  0  0  0  0  0  0
   55.6700   25.6670   46.2560 O   0  0  0  0  0  0  0  0  0  0  0  0
   58.7320   26.9140   47.8800 N   0  0  0  0  0  0  0  0  0  0  0  0
   59.4500   28.0080   47.6470 C   0  0  0  0  0  0  0  0  0  0  0  0
   60.4940   28.5710   48.3460 C   0  0  0  0  0  0  0  0  0  0  0  0
   61.0520   29.7240   47.8520 C   0  0  0  0  0  0  0  0  0  0  0  0
   60.5600   30.2740   46.6900 C   0  0  0  0  0  0  0  0  0  0  0  0
   59.5150   29.6900   46.0100 C   0  0  0  0  0  0  0  0  0  0  0  0
   58.9430   28.5480   46.4800 C   0  0  0  0  0  0  0  0  0  0  0  0
   57.0380   31.6600   45.1820 N   0  0  0  0  0  0  0  0  0  0  0  0
   59.1630   33.0550   47.8240 C   0  0  0  0  0  0  0  0  0  0  0  0
   60.3750   32.9780   48.5240 C   0  0  0  0  0  0  0  0  0  0  0  0
   65.2900   33.1280   48.2630 H   0  0  0  0  0  0  0  0  0  0  0  0
   64.3840   32.2900   47.1450 H   0  0  0  0  0  0  0  0  0  0  0  0
   62.4583   34.1148   46.1566 H   0  0  0  0  0  0  0  0  0  0  0  0
   60.3697   34.2502   44.9447 H   0  0  0  0  0  0  0  0  0  0  0  0
   58.3479   34.0593   43.2080 H   0  0  0  0  0  0  0  0  0  0  0  0
   56.5520   30.4280   42.1910 H   0  0  0  0  0  0  0  0  0  0  0  0
   56.4264   26.9686   44.8045 H   0  0  0  0  0  0  0  0  0  0  0  0
   57.6961   28.0504   43.9919 H   0  0  0  0  0  0  0  0  0  0  0  0
   55.6330   25.9620   45.2680 H   0  0  0  0  0  0  0  0  0  0  0  0
   58.8810   26.2870   48.6980 H   0  0  0  0  0  0  0  0  0  0  0  0
   60.8696   28.1111   49.2720 H   0  0  0  0  0  0  0  0  0  0  0  0
   61.8873   30.2055   48.3816 H   0  0  0  0  0  0  0  0  0  0  0  0
   61.0103   31.1976   46.2973 H   0  0  0  0  0  0  0  0  0  0  0  0
   59.1407   30.1484   45.0828 H   0  0  0  0  0  0  0  0  0  0  0  0
   58.2314   32.7475   48.3216 H   0  0  0  0  0  0  0  0  0  0  0  0
   60.3698   32.6087   49.5601 H   0  0  0  0  0  0  0  0  0  0  0  0
  1  2  1  0
  2  3  2  0
  2  4  2  0
  2  5  1  0
  5  6  2  0
  6  7  1  0
  7  8  2  0
  8  9  1  0
  9 10  2  0
 10 11  1  0
 11 12  2  0
 12 13  1  0
 12 14  1  0
 14 15  1  0
 15 16  1  0
 16 17  1  0
 17 18  1  0
 18 19  2  0
 19 20  1  0
 20 21  2  0
 20 22  1  0
 19 23  1  0
 23 24  1  0
 24 25  2  0
 25 26  1  0
 26 27  2  0
 27 28  1  0
 28 29  2  0
 15 30  2  0
  8 31  1  0
 31 32  2  0
 32  5  1  0
 30 10  1  0
 29 18  1  0
 29 24  1  0
  1 33  1  0
  1 34  1  0
  6 35  1  0
  7 36  1  0
 11 37  1  0
 14 38  1  0
 17 39  1  0
 17 40  1  0
 22 41  1  0
 23 42  1  0
 25 43  1  0
 26 44  1  0
 27 45  1  0
 28 46  1  0
 31 47  1  0
 32 48  1  0
M  END
>  <smiles>  (39) 
NS(=O)(=O)c1ccc(N=c2cc(Cl)[nH]c(SCc3c(C(=O)O)[nH]c4ccccc34)n2)cc1

>  <score_type>  (39) 
oracle

>  <origin>  (39) 
adg

>  <m_score__min__energy>  (39) 
-9.9900000000000002

>  <m_primary>  (39) 
energy

$$$$
39:0
     RDKit          3D

 49 51  0  0  0  0  0  0  0  0999 V2000
   54.8050   26.3400   45.9820 N   0  0  0  0  0  0  0  0  0  0  0  0
   56.1620   25.2970   46.2220 S   0  0  0  0  0  0  0  0  0  0  0  0
   56.4460   24.5570   44.9460 O   0  0  0  0  0  0  0  0  0  0  0  0
   55.8630   24.3030   47.3090 O   0  0  0  0  0  0  0  0  0  0  0  0
   57.5550   26.2360   46.6520 N   0  0  0  0  0  0  0  0  0  0  0  0
   57.9920   27.4210   45.9730 C   0  0  0  0  0  0  0  0  0  0  0  0
   59.3070   27.4730   45.4960 C   0  0  0  0  0  0  0  0  0  0  0  0
   59.7720   28.6080   44.8280 C   0  0  0  0  0  0  0  0  0  0  0  0
   58.9270   29.7030   44.6310 C   0  0  0  0  0  0  0  0  0  0  0  0
   57.6020   29.6670   45.1030 C   0  0  0  0  0  0  0  0  0  0  0  0
   56.7130   30.7380   44.9320 O   0  0  0  0  0  0  0  0  0  0  0  0
   57.0790   32.0190   44.4290 C   0  0  0  0  0  0  0  0  0  0  0  0
   57.9210   32.7220   45.4520 C   0  0  0  0  0  0  0  0  0  0  0  0
   57.7700   32.4280   46.8160 C   0  0  0  0  0  0  0  0  0  0  0  0
   58.5970   33.0390   47.7640 C   0  0  0  0  0  0  0  0  0  0  0  0
   59.6060   33.9310   47.3600 C   0  0  0  0  0  0  0  0  0  0  0  0
   60.5110   34.5700   48.3890 C   0  0  0  0  0  0  0  0  0  0  0  0
   61.5310   33.6470   48.9340 N   0  0  0  0  0  0  0  0  0  0  0  0
   61.5270   32.2750   48.3800 C   0  0  0  0  0  0  0  0  0  0  0  0
   62.4880   32.0890   47.1850 C   0  0  0  0  0  0  0  0  0  0  0  0
   63.7380   32.9820   47.2500 C   0  0  0  0  0  0  0  0  0  0  0  0
   64.0320   33.4310   48.6770 C   0  0  0  0  0  0  0  0  0  0  0  0
   62.8550   34.2490   49.2250 C   0  0  0  0  0  0  0  0  0  0  0  0
   59.7440   34.2330   45.9950 C   0  0  0  0  0  0  0  0  0  0  0  0
   58.9170   33.6230   45.0480 C   0  0  0  0  0  0  0  0  0  0  0  0
   57.1430   28.5250   45.7720 C   0  0  0  0  0  0  0  0  0  0  0  0
   55.1550   27.3200   46.0730 H   0  0  0  0  0  0  0  0  0  0  0  0
   59.9781   26.6148   45.6482 H   0  0  0  0  0  0  0  0  0  0  0  0
   60.8067   28.6399   44.4559 H   0  0  0  0  0  0  0  0  0  0  0  0
   59.2984   30.5953   44.1057 H   0  0  0  0  0  0  0  0  0  0  0  0
   57.6525   31.8997   43.4980 H   0  0  0  0  0  0  0  0  0  0  0  0
   56.1745   32.6098   44.2221 H   0  0  0  0  0  0  0  0  0  0  0  0
   56.9984   31.7144   47.1406 H   0  0  0  0  0  0  0  0  0  0  0  0
   58.4571   32.8202   48.8329 H   0  0  0  0  0  0  0  0  0  0  0  0
   61.0268   35.4201   47.9187 H   0  0  0  0  0  0  0  0  0  0  0  0
   59.8744   34.8811   49.2304 H   0  0  0  0  0  0  0  0  0  0  0  0
   61.8235   31.5771   49.1769 H   0  0  0  0  0  0  0  0  0  0  0  0
   60.5098   32.0789   48.0101 H   0  0  0  0  0  0  0  0  0  0  0  0
   62.8130   31.0384   47.1614 H   0  0  0  0  0  0  0  0  0  0  0  0
   61.9339   32.3783   46.2798 H   0  0  0  0  0  0  0  0  0  0  0  0
   64.6010   32.4167   46.8685 H   0  0  0  0  0  0  0  0  0  0  0  0
   63.5540   33.8774   46.6381 H   0  0  0  0  0  0  0  0  0  0  0  0
   64.1874   32.5464   49.3121 H   0  0  0  0  0  0  0  0  0  0  0  0
   64.9370   34.0563   48.6787 H   0  0  0  0  0  0  0  0  0  0  0  0
   62.9672   34.3331   50.3160 H   0  0  0  0  0  0  0  0  0  0  0  0
   62.8818   35.2292   48.7266 H   0  0  0  0  0  0  0  0  0  0  0  0
   60.5080   34.9543   45.6695 H   0  0  0  0  0  0  0  0  0  0  0  0
   59.0479   33.8508   43.9798 H   0  0  0  0  0  0  0  0  0  0  0  0
   56.1084   28.4910   46.1440 H   0  0  0  0  0  0  0  0  0  0  0  0
  1  2  1  0
  2  3  2  0
  2  4  2  0
  2  5  1  0
  5  6  1  0
  6  7  2  0
  7  8  1  0
  8  9  2  0
  9 10  1  0
 10 11  1  0
 11 12  1  0
 12 13  1  0
 13 14  2  0
 14 15  1  0
 15 16  2  0
 16 17  1  0
 17 18  1  0
 18 19  1  0
 19 20  1  0
 20 21  1  0
 21 22  1  0
 22 23  1  0
 16 24  1  0
 24 25  2  0
 10 26  2  0
 26  6  1  0
 25 13  1  0
 23 18  1  0
  1 27  1  0
  7 28  1  0
  8 29  1  0
  9 30  1  0
 12 31  1  0
 12 32  1  0
 14 33  1  0
 15 34  1  0
 17 35  1  0
 17 36  1  0
 19 37  1  0
 19 38  1  0
 20 39  1  0
 20 40  1  0
 21 41  1  0
 21 42  1  0
 22 43  1  0
 22 44  1  0
 23 45  1  0
 23 46  1  0
 24 47  1  0
 25 48  1  0
 26 49  1  0
M  CHG  2   1  -1   5  -1
M  END
>  <UniqueID>  (40) 
36

>  <SMILES>  (40) 
[NH-]S(=O)(=O)[N-]c1cccc(OCc2ccc(CN3CCCCC3)cc2)c1

>  <Energy>  (40) 
61.2867858181902

>  <Genealogy>  (40) 
[NH-]S(=O)(=O)[N-]c1cccc(OCc2ccc(CN3CCCCC3)cc2)c1 (protonated)
[NH-]S(=O)(=O)[N-]c1cccc(OCc2ccc(CN3CCCCC3)cc2)c1 (3D coordinates assigned)
[NH-]S(=O)(=O)[N-]c1cccc(OCc2ccc(CN3CCCCC3)cc2)c1 (nonaromatic ring conformer: 61.2867858181902 kcal/mol)

>  <smiles>  (40) 
NS(=O)(=O)Nc1cccc(OCc2ccc(CN3CCCCC3)cc2)c1

>  <score_type>  (40) 
oracle

>  <origin>  (40) 
adg

>  <m_score__min__energy>  (40) 
-13.93

>  <m_primary>  (40) 
energy

$$$$
40:0
     RDKit          3D

 55 58  0  0  0  0  0  0  0  0999 V2000
   57.1860   28.7330   43.7440 C   0  0  0  0  0  0  0  0  0  0  0  0
   56.2720   29.7430   44.3670 C   0  0  0  0  0  0  0  0  0  0  0  0
   55.1700   29.3590   44.8320 O   0  0  0  0  0  0  0  0  0  0  0  0
   56.6300   31.1260   44.4710 N   0  0  0  0  0  0  0  0  0  0  0  0
   57.3930   31.7210   45.5290 C   0  0  0  0  0  0  0  0  0  0  0  0
   58.2360   30.9120   46.2970 C   0  0  0  0  0  0  0  0  0  0  0  0
   58.9550   31.4530   47.3680 C   0  0  0  0  0  0  0  0  0  0  0  0
   58.8180   32.8090   47.6940 C   0  0  0  0  0  0  0  0  0  0  0  0
   59.6530   33.4890   49.0890 S   0  0  0  0  0  0  0  0  0  0  0  0
   61.0490   32.9410   49.1990 O   0  0  0  0  0  0  0  0  0  0  0  0
   59.7240   34.9810   48.9310 O   0  0  0  0  0  0  0  0  0  0  0  0
   58.7730   33.1030   50.5340 N   0  0  0  0  0  0  0  0  0  0  0  0
   58.5660   31.7710   51.0270 C   0  0  0  0  0  0  0  0  0  0  0  0
   59.1880   30.6540   50.4390 C   0  0  0  0  0  0  0  0  0  0  0  0
   58.9270   29.3710   50.9210 C   0  0  0  0  0  0  0  0  0  0  0  0
   58.0350   29.1850   51.9800 C   0  0  0  0  0  0  0  0  0  0  0  0
   57.4070   30.2910   52.5770 C   0  0  0  0  0  0  0  0  0  0  0  0
   56.4340   30.1000   53.6710 C   0  0  0  0  0  0  0  0  0  0  0  0
   56.8310   29.5940   54.7560 O   0  0  0  0  0  0  0  0  0  0  0  0
   55.0150   30.5120   53.5330 C   0  0  0  0  0  0  0  0  0  0  0  0
   54.1190   30.3700   54.6040 C   0  0  0  0  0  0  0  0  0  0  0  0
   52.7780   30.7260   54.4610 C   0  0  0  0  0  0  0  0  0  0  0  0
   52.2870   31.2260   53.2380 C   0  0  0  0  0  0  0  0  0  0  0  0
   53.1940   31.3730   52.1620 C   0  0  0  0  0  0  0  0  0  0  0  0
   54.5380   31.0110   52.3120 C   0  0  0  0  0  0  0  0  0  0  0  0
   52.7630   31.8890   50.9050 N   0  0  0  0  0  0  0  0  0  0  0  0
   51.4010   32.2300   50.6970 C   0  0  0  0  0  0  0  0  0  0  0  0
   51.0270   32.6710   49.5800 O   0  0  0  0  0  0  0  0  0  0  0  0
   50.4580   32.0600   51.7520 N   0  0  0  0  0  0  0  0  0  0  0  0
   50.8070   31.6230   53.1090 C   0  0  0  0  0  0  0  0  0  0  0  0
   49.9050   30.4230   53.4470 C   0  0  0  0  0  0  0  0  0  0  0  0
   50.5010   32.7900   54.0630 C   0  0  0  0  0  0  0  0  0  0  0  0
   57.6990   31.5830   52.1110 C   0  0  0  0  0  0  0  0  0  0  0  0
   57.9600   33.6180   46.9400 C   0  0  0  0  0  0  0  0  0  0  0  0
   57.2440   33.0790   45.8670 C   0  0  0  0  0  0  0  0  0  0  0  0
   57.6992   28.1659   44.5346 H   0  0  0  0  0  0  0  0  0  0  0  0
   56.5991   28.0430   43.1199 H   0  0  0  0  0  0  0  0  0  0  0  0
   57.9310   29.2483   43.1199 H   0  0  0  0  0  0  0  0  0  0  0  0
   58.3345   29.8429   46.0574 H   0  0  0  0  0  0  0  0  0  0  0  0
   59.6294   30.8127   47.9556 H   0  0  0  0  0  0  0  0  0  0  0  0
   59.8820   30.7928   49.5969 H   0  0  0  0  0  0  0  0  0  0  0  0
   59.4254   28.5026   50.4655 H   0  0  0  0  0  0  0  0  0  0  0  0
   57.8238   28.1699   52.3474 H   0  0  0  0  0  0  0  0  0  0  0  0
   54.4779   29.9741   55.5655 H   0  0  0  0  0  0  0  0  0  0  0  0
   52.0937   30.6149   55.3150 H   0  0  0  0  0  0  0  0  0  0  0  0
   55.2281   31.1192   51.4623 H   0  0  0  0  0  0  0  0  0  0  0  0
   49.8269   30.3192   54.5393 H   0  0  0  0  0  0  0  0  0  0  0  0
   48.9037   30.5857   53.0217 H   0  0  0  0  0  0  0  0  0  0  0  0
   50.3396   29.5064   53.0217 H   0  0  0  0  0  0  0  0  0  0  0  0
   50.5912   32.4460   55.1039 H   0  0  0  0  0  0  0  0  0  0  0  0
   51.2152   33.6071   53.8837 H   0  0  0  0  0  0  0  0  0  0  0  0
   49.4777   33.1515   53.8837 H   0  0  0  0  0  0  0  0  0  0  0  0
   57.2428   32.4554   52.6017 H   0  0  0  0  0  0  0  0  0  0  0  0
   57.8486   34.6827   47.1929 H   0  0  0  0  0  0  0  0  0  0  0  0
   56.5627   33.7177   45.2857 H   0  0  0  0  0  0  0  0  0  0  0  0
  1  2  1  0
  2  3  2  0
  2  4  1  0
  4  5  1  0
  5  6  2  0
  6  7  1  0
  7  8  2  0
  8  9  1  0
  9 10  2  0
  9 11  2  0
  9 12  1  0
 12 13  1  0
 13 14  2  0
 14 15  1  0
 15 16  2  0
 16 17  1  0
 17 18  1  0
 18 19  2  0
 18 20  1  0
 20 21  2  0
 21 22  1  0
 22 23  2  0
 23 24  1  0
 24 25  2  0
 24 26  1  0
 26 27  1  0
 27 28  2  0
 27 29  1  0
 29 30  1  0
 30 31  1  0
 30 32  1  0
 17 33  2  0
  8 34  1  0
 34 35  2  0
 35  5  1  0
 33 13  1  0
 25 20  1  0
 30 23  1  0
  1 36  1  0
  1 37  1  0
  1 38  1  0
  6 39  1  0
  7 40  1  0
 14 41  1  0
 15 42  1  0
 16 43  1  0
 21 44  1  0
 22 45  1  0
 25 46  1  0
 31 47  1  0
 31 48  1  0
 31 49  1  0
 32 50  1  0
 32 51  1  0
 32 52  1  0
 33 53  1  0
 34 54  1  0
 35 55  1  0
M  CHG  4   4  -1  12  -1  26  -1  29  -1
M  END
>  <UniqueID>  (41) 
37

>  <SMILES>  (41) 
CC(=O)[N-]c1ccc(S(=O)(=O)[N-]c2cccc(C(=O)c3ccc4c(c3)[N-]C(=O)[N-]C4(C)C)c2)cc1

>  <Energy>  (41) 
73.07172362746428

>  <Genealogy>  (41) 
CC(=O)[N-]c1ccc(S(=O)(=O)[N-]c2cccc(C(=O)c3ccc4c(c3)[N-]C(=O)[N-]C4(C)C)c2)cc1 (protonated)
CC(=O)[N-]c1ccc(S(=O)(=O)[N-]c2cccc(C(=O)c3ccc4c(c3)[N-]C(=O)[N-]C4(C)C)c2)cc1 (3D coordinates assigned)
CC(=O)[N-]c1ccc(S(=O)(=O)[N-]c2cccc(C(=O)c3ccc4c(c3)[N-]C(=O)[N-]C4(C)C)c2)cc1 (nonaromatic ring conformer: 73.07172362746428 kcal/mol)

>  <smiles>  (41) 
CC(=O)Nc1ccc(S(=O)(=O)Nc2cccc(C(=O)c3ccc4c(c3)NC(=O)NC4(C)C)c2)cc1

>  <score_type>  (41) 
oracle

>  <origin>  (41) 
adg

>  <m_score__min__energy>  (41) 
-16.600000000000001

>  <m_primary>  (41) 
energy

$$$$
41:0
     RDKit          3D

 46 49  0  0  0  0  0  0  0  0999 V2000
   50.3130   32.7230   52.0330 O   0  0  0  0  0  0  0  0  0  0  0  0
   51.3120   32.3480   51.3620 C   0  0  0  0  0  0  0  0  0  0  0  0
   51.4050   32.7190   50.0260 O   0  0  0  0  0  0  0  0  0  0  0  0
   52.3710   31.5260   51.9880 C   0  0  0  0  0  0  0  0  0  0  0  0
   53.5090   31.1580   51.2510 C   0  0  0  0  0  0  0  0  0  0  0  0
   54.5130   30.3820   51.8370 C   0  0  0  0  0  0  0  0  0  0  0  0
   54.3990   29.9600   53.1740 C   0  0  0  0  0  0  0  0  0  0  0  0
   55.3790   29.1770   53.8100 O   0  0  0  0  0  0  0  0  0  0  0  0
   56.5880   28.7140   53.2080 C   0  0  0  0  0  0  0  0  0  0  0  0
   57.7710   29.5860   53.6370 C   0  0  0  0  0  0  0  0  0  0  0  0
   57.4130   31.0010   53.5720 N   0  0  0  0  0  0  0  0  0  0  0  0
   57.6000   31.8430   52.4270 C   0  0  0  0  0  0  0  0  0  0  0  0
   56.6270   32.5200   52.0030 O   0  0  0  0  0  0  0  0  0  0  0  0
   58.9000   31.9430   51.7380 C   0  0  0  0  0  0  0  0  0  0  0  0
   60.0740   31.5110   52.3740 C   0  0  0  0  0  0  0  0  0  0  0  0
   61.3140   31.6380   51.7380 C   0  0  0  0  0  0  0  0  0  0  0  0
   61.3900   32.1940   50.4510 C   0  0  0  0  0  0  0  0  0  0  0  0
   62.6140   32.3730   49.7790 C   0  0  0  0  0  0  0  0  0  0  0  0
   63.7060   32.0320   50.3130 O   0  0  0  0  0  0  0  0  0  0  0  0
   62.6030   32.9280   48.5360 N   0  0  0  0  0  0  0  0  0  0  0  0
   61.4630   33.3050   47.9390 C   0  0  0  0  0  0  0  0  0  0  0  0
   60.2630   33.1510   48.5510 N   0  0  0  0  0  0  0  0  0  0  0  0
   60.2020   32.6040   49.7960 C   0  0  0  0  0  0  0  0  0  0  0  0
   58.9650   32.4630   50.4370 C   0  0  0  0  0  0  0  0  0  0  0  0
   61.6560   33.8910   46.5980 C   0  0  0  0  0  0  0  0  0  0  0  0
   63.1810   33.8290   46.4130 C   0  0  0  0  0  0  0  0  0  0  0  0
   63.7560   33.1990   47.6980 C   0  0  0  0  0  0  0  0  0  0  0  0
   53.2620   30.3210   53.9050 C   0  0  0  0  0  0  0  0  0  0  0  0
   52.2570   31.0980   53.3220 C   0  0  0  0  0  0  0  0  0  0  0  0
   53.6106   31.4830   50.2050 H   0  0  0  0  0  0  0  0  0  0  0  0
   55.3984   30.0994   51.2486 H   0  0  0  0  0  0  0  0  0  0  0  0
   56.7725   27.6754   53.5197 H   0  0  0  0  0  0  0  0  0  0  0  0
   56.4840   28.7699   52.1144 H   0  0  0  0  0  0  0  0  0  0  0  0
   58.0533   29.3310   54.6691 H   0  0  0  0  0  0  0  0  0  0  0  0
   58.6151   29.4007   52.9565 H   0  0  0  0  0  0  0  0  0  0  0  0
   60.0191   31.0693   53.3799 H   0  0  0  0  0  0  0  0  0  0  0  0
   62.2297   31.3021   52.2466 H   0  0  0  0  0  0  0  0  0  0  0  0
   58.0416   32.7609   49.9187 H   0  0  0  0  0  0  0  0  0  0  0  0
   61.1395   33.2980   45.8288 H   0  0  0  0  0  0  0  0  0  0  0  0
   61.2479   34.9083   46.5054 H   0  0  0  0  0  0  0  0  0  0  0  0
   63.4325   33.2080   45.5406 H   0  0  0  0  0  0  0  0  0  0  0  0
   63.6006   34.8311   46.2407 H   0  0  0  0  0  0  0  0  0  0  0  0
   64.2913   32.2668   47.4647 H   0  0  0  0  0  0  0  0  0  0  0  0
   64.4787   33.8633   48.1944 H   0  0  0  0  0  0  0  0  0  0  0  0
   53.1580   29.9901   54.9489 H   0  0  0  0  0  0  0  0  0  0  0  0
   51.3708   31.3765   53.9112 H   0  0  0  0  0  0  0  0  0  0  0  0
  1  2  2  0
  2  3  1  0
  2  4  1  0
  4  5  2  0
  5  6  1  0
  6  7  2  0
  7  8  1  0
  8  9  1  0
  9 10  1  0
 10 11  1  0
 11 12  1  0
 12 13  2  0
 12 14  1  0
 14 15  2  0
 15 16  1  0
 16 17  2  0
 17 18  1  0
 18 19  2  0
 18 20  1  0
 20 21  1  0
 21 22  2  0
 22 23  1  0
 23 24  2  0
 21 25  1  0
 25 26  1  0
 26 27  1  0
  7 28  1  0
 28 29  2  0
 29  4  1  0
 24 14  1  0
 23 17  1  0
 27 20  1  0
  5 30  1  0
  6 31  1  0
  9 32  1  0
  9 33  1  0
 10 34  1  0
 10 35  1  0
 15 36  1  0
 16 37  1  0
 24 38  1  0
 25 39  1  0
 25 40  1  0
 26 41  1  0
 26 42  1  0
 27 43  1  0
 27 44  1  0
 28 45  1  0
 29 46  1  0
M  CHG  2   3  -1  11  -1
M  END
>  <UniqueID>  (42) 
38

>  <SMILES>  (42) 
O=C([O-])c1ccc(OCC[N-]C(=O)c2ccc3c(=O)n4c(nc3c2)CCC4)cc1

>  <Energy>  (42) 
62.35609673705078

>  <Genealogy>  (42) 
O=C([O-])c1ccc(OCC[N-]C(=O)c2ccc3c(=O)n4c(nc3c2)CCC4)cc1 (protonated)
O=C([O-])c1ccc(OCC[N-]C(=O)c2ccc3c(=O)n4c(nc3c2)CCC4)cc1 (3D coordinates assigned)
O=C([O-])c1ccc(OCC[N-]C(=O)c2ccc3c(=O)n4c(nc3c2)CCC4)cc1 (nonaromatic ring conformer: 62.35609673705078 kcal/mol)

>  <smiles>  (42) 
O=C(O)c1ccc(OCCNC(=O)c2ccc3c(=O)n4c(nc3c2)CCC4)cc1

>  <score_type>  (42) 
oracle

>  <origin>  (42) 
adg

>  <m_score__min__energy>  (42) 
-12.470000000000001

>  <m_primary>  (42) 
energy

$$$$
42:0
     RDKit          3D

 62 65  0  0  0  0  0  0  0  0999 V2000
   53.9330   26.6960   46.3800 H   0  0  0  0  0  0  0  0  0  0  0  0
   54.3800   25.9760   45.7690 N   0  0  0  0  0  0  0  0  0  0  0  0
   55.6500   25.4240   46.1020 C   0  0  0  0  0  0  0  0  0  0  0  0
   55.7080   24.3510   46.7610 O   0  0  0  0  0  0  0  0  0  0  0  0
   56.8810   26.1480   45.7370 C   0  0  0  0  0  0  0  0  0  0  0  0
   57.0300   27.5170   45.8270 C   0  0  0  0  0  0  0  0  0  0  0  0
   56.2193   28.2368   46.0135 H   0  0  0  0  0  0  0  0  0  0  0  0
   58.3330   27.8310   45.6490 N   0  0  0  0  0  0  0  0  0  0  0  0
   58.9080   29.1940   45.6980 C   0  0  0  0  0  0  0  0  0  0  0  0
   58.4910   29.9680   44.4170 C   0  0  0  0  0  0  0  0  0  0  0  0
   59.1119   30.8719   44.3309 H   0  0  0  0  0  0  0  0  0  0  0  0
   58.6367   29.3000   43.5553 H   0  0  0  0  0  0  0  0  0  0  0  0
   57.0760   30.3660   44.4470 C   0  0  0  0  0  0  0  0  0  0  0  0
   55.9630   30.6860   44.4700 N   0  0  0  0  0  0  0  0  0  0  0  0
   60.4660   29.0730   45.7520 C   0  0  0  0  0  0  0  0  0  0  0  0
   60.8649   29.1938   44.7340 H   0  0  0  0  0  0  0  0  0  0  0  0
   60.7106   28.0841   46.1670 H   0  0  0  0  0  0  0  0  0  0  0  0
   61.1040   30.1290   46.6580 C   0  0  0  0  0  0  0  0  0  0  0  0
   60.8128   31.1296   46.3059 H   0  0  0  0  0  0  0  0  0  0  0  0
   62.1971   30.0122   46.6195 H   0  0  0  0  0  0  0  0  0  0  0  0
   60.6580   29.9590   48.0600 N   0  0  0  0  0  0  0  0  0  0  0  0
   61.0550   31.1210   48.8800 C   0  0  0  0  0  0  0  0  0  0  0  0
   61.7634   30.7933   49.6551 H   0  0  0  0  0  0  0  0  0  0  0  0
   60.1579   31.5523   49.3482 H   0  0  0  0  0  0  0  0  0  0  0  0
   61.7120   32.1710   48.0160 C   0  0  0  0  0  0  0  0  0  0  0  0
   63.1110   32.2010   47.8920 C   0  0  0  0  0  0  0  0  0  0  0  0
   63.7242   31.4721   48.4422 H   0  0  0  0  0  0  0  0  0  0  0  0
   63.7280   33.1500   47.0750 C   0  0  0  0  0  0  0  0  0  0  0  0
   64.8241   33.1671   46.9835 H   0  0  0  0  0  0  0  0  0  0  0  0
   62.9560   34.0760   46.3750 C   0  0  0  0  0  0  0  0  0  0  0  0
   63.4447   34.8224   45.7316 H   0  0  0  0  0  0  0  0  0  0  0  0
   61.5640   34.0590   46.4880 C   0  0  0  0  0  0  0  0  0  0  0  0
   60.9615   34.7920   45.9315 H   0  0  0  0  0  0  0  0  0  0  0  0
   60.9260   33.1080   47.3110 C   0  0  0  0  0  0  0  0  0  0  0  0
   59.5280   33.0620   47.4560 O   0  0  0  0  0  0  0  0  0  0  0  0
   58.6030   34.0210   46.9440 C   0  0  0  0  0  0  0  0  0  0  0  0
   59.1095   34.9918   46.8391 H   0  0  0  0  0  0  0  0  0  0  0  0
   57.7576   34.1067   47.6425 H   0  0  0  0  0  0  0  0  0  0  0  0
   58.0740   33.5820   45.5830 C   0  0  0  0  0  0  0  0  0  0  0  0
   57.2344   32.8853   45.7233 H   0  0  0  0  0  0  0  0  0  0  0  0
   57.7294   34.4632   45.0219 H   0  0  0  0  0  0  0  0  0  0  0  0
   58.8765   33.0809   45.0219 H   0  0  0  0  0  0  0  0  0  0  0  0
   59.2140   29.6280   48.2050 C   0  0  0  0  0  0  0  0  0  0  0  0
   58.8087   30.1918   49.0582 H   0  0  0  0  0  0  0  0  0  0  0  0
   59.1384   28.5415   48.3590 H   0  0  0  0  0  0  0  0  0  0  0  0
   58.3930   29.9740   46.9550 C   0  0  0  0  0  0  0  0  0  0  0  0
   58.4719   31.0542   46.7628 H   0  0  0  0  0  0  0  0  0  0  0  0
   57.3474   29.6849   47.1370 H   0  0  0  0  0  0  0  0  0  0  0  0
   59.0290   26.7210   45.4480 N   0  0  0  0  0  0  0  0  0  0  0  0
   58.1740   25.6830   45.4760 C   0  0  0  0  0  0  0  0  0  0  0  0
   58.5710   24.4640   45.2400 N   0  0  0  0  0  0  0  0  0  0  0  0
   57.8830   23.4440   44.5050 C   0  0  0  0  0  0  0  0  0  0  0  0
   56.9420   23.7780   43.5130 C   0  0  0  0  0  0  0  0  0  0  0  0
   56.6878   24.8325   43.3300 H   0  0  0  0  0  0  0  0  0  0  0  0
   56.3300   22.7720   42.7600 C   0  0  0  0  0  0  0  0  0  0  0  0
   55.5793   23.0336   41.9998 H   0  0  0  0  0  0  0  0  0  0  0  0
   56.6720   21.4330   42.9730 C   0  0  0  0  0  0  0  0  0  0  0  0
   56.1808   20.6409   42.3888 H   0  0  0  0  0  0  0  0  0  0  0  0
   57.6370   21.1000   43.9270 C   0  0  0  0  0  0  0  0  0  0  0  0
   57.9150   20.0472   44.0830 H   0  0  0  0  0  0  0  0  0  0  0  0
   58.2500   22.1040   44.6840 C   0  0  0  0  0  0  0  0  0  0  0  0
   59.0222   21.8406   45.4217 H   0  0  0  0  0  0  0  0  0  0  0  0
  1  2  1  0
  2  3  1  0
  3  4  2  0
  3  5  1  0
  5  6  2  0
  6  7  1  0
  6  8  1  0
  8  9  1  0
  9 10  1  0
 10 11  1  0
 10 12  1  0
 10 13  1  0
 13 14  3  0
  9 15  1  0
 15 16  1  0
 15 17  1  0
 15 18  1  0
 18 19  1  0
 18 20  1  0
 18 21  1  0
 21 22  1  0
 22 23  1  0
 22 24  1  0
 22 25  1  0
 25 26  2  0
 26 27  1  0
 26 28  1  0
 28 29  1  0
 28 30  2  0
 30 31  1  0
 30 32  1  0
 32 33  1  0
 32 34  2  0
 34 35  1  0
 35 36  1  0
 36 37  1  0
 36 38  1  0
 36 39  1  0
 39 40  1  0
 39 41  1  0
 39 42  1  0
 21 43  1  0
 43 44  1  0
 43 45  1  0
 43 46  1  0
 46 47  1  0
 46 48  1  0
  8 49  1  0
 49 50  1  0
 50 51  2  0
 51 52  1  0
 52 53  2  0
 53 54  1  0
 53 55  1  0
 55 56  1  0
 55 57  2  0
 57 58  1  0
 57 59  1  0
 59 60  1  0
 59 61  2  0
 61 62  1  0
 50  5  1  0
 61 52  1  0
 46  9  1  0
 34 25  1  0
M  CHG  2   2  -1  49  -1
M  END
>  <UniqueID>  (43) 
39

>  <SMILES>  (43) 
CCOc1ccccc1CN1CCC(CC#N)(n2cc(C([NH-])=O)/c(=N\c3ccccc3)[n-]2)CC1

>  <Energy>  (43) 
117.46686863897969

>  <Genealogy>  (43) 
CCOc1ccccc1CN1CCC(CC#N)(n2cc(C([NH-])=O)c(=Nc3ccccc3)[n-]2)CC1 (protonated)
CCOc1ccccc1CN1CCC(CC#N)(n2cc(C([NH-])=O)/c(=N\c3ccccc3)[n-]2)CC1 (cis-trans isomerization)
CCOc1ccccc1CN1CCC(CC#N)(n2cc(C([NH-])=O)/c(=N\c3ccccc3)[n-]2)CC1 (3D coordinates assigned)
CCOc1ccccc1CN1CCC(CC#N)(n2cc(C([NH-])=O)/c(=N\c3ccccc3)[n-]2)CC1 (nonaromatic ring conformer: 117.46686863897969 kcal/mol)

>  <smiles>  (43) 
CCOc1ccccc1CN1CCC(CC#N)(n2cc(C(N)=O)c(=Nc3ccccc3)[nH]2)CC1

>  <score_type>  (43) 
oracle

>  <origin>  (43) 
adg

>  <m_score__min__energy>  (43) 
-14.17

>  <m_primary>  (43) 
energy

$$$$
43:0
     RDKit          3D

 41 43  0  0  1  0  0  0  0  0999 V2000
   58.2510   27.5390   43.6450 N   0  0  0  0  0  0  0  0  0  0  0  0
   58.6470   27.8460   44.8310 C   0  0  0  0  0  0  0  0  0  0  0  0
   59.7120   28.6420   45.0430 N   0  0  0  0  0  0  0  0  0  0  0  0
   60.0770   28.9260   46.3060 C   0  0  0  0  0  0  0  0  0  0  0  0
   61.0690   29.6660   46.5950 N   0  0  0  0  0  0  0  0  0  0  0  0
   61.0020   30.5850   47.7440 C   0  0  0  0  0  0  0  0  0  0  0  0
   61.7560   31.8140   47.4280 C   0  0  0  0  0  0  0  0  0  0  0  0
   63.1050   31.9110   47.7840 C   0  0  0  0  0  0  0  0  0  0  0  0
   63.8620   33.0240   47.4850 C   0  0  0  0  0  0  0  0  0  0  0  0
   63.3000   34.0900   46.8160 C   0  0  0  0  0  0  0  0  0  0  0  0
   61.9720   33.9980   46.4640 C   0  0  0  0  0  0  0  0  0  0  0  0
   61.1940   32.8770   46.7610 C   0  0  0  0  0  0  0  0  0  0  0  0
   59.8040   32.9460   46.3540 C   0  0  0  0  0  0  0  0  0  0  0  0
   59.0810   34.0790   46.7160 C   0  0  0  0  0  0  0  0  0  0  0  0
   57.7480   34.1950   46.3850 C   0  0  0  0  0  0  0  0  0  0  0  0
   57.0670   33.2060   45.6830 C   0  0  0  0  0  0  0  0  0  0  0  0
   57.7810   32.0810   45.3240 C   0  0  0  0  0  0  0  0  0  0  0  0
   56.9940   30.7780   44.4330 Cl  0  0  0  0  0  0  0  0  0  0  0  0
   59.1350   31.9670   45.6630 C   0  0  0  0  0  0  0  0  0  0  0  0
   59.3740   28.4110   47.3560 N   0  0  0  0  0  0  0  0  0  0  0  0
   58.3070   27.6140   47.1740 C   0  0  0  0  0  0  0  0  0  0  0  0
   57.9120   27.3070   45.8790 C   0  0  0  0  0  0  0  0  0  0  0  0
   56.7630   26.4460   45.6870 C   0  0  0  0  0  0  0  0  0  0  0  0
   55.5520   26.6430   46.3860 N   0  0  0  0  0  0  0  0  0  0  0  0
   56.8000   25.4730   44.8750 O   0  0  0  0  0  0  0  0  0  0  0  0
   57.3920   26.9540   43.4500 H   0  0  0  0  0  0  0  0  0  0  0  0
   60.2610   29.0460   44.2540 H   0  0  0  0  0  0  0  0  0  0  0  0
   59.9521   30.8404   47.9500 H   0  0  0  0  0  0  0  0  0  0  0  0
   61.4391   30.1011   48.6299 H   0  0  0  0  0  0  0  0  0  0  0  0
   63.5767   31.0736   48.3190 H   0  0  0  0  0  0  0  0  0  0  0  0
   64.9205   33.0614   47.7821 H   0  0  0  0  0  0  0  0  0  0  0  0
   63.8924   34.9841   46.5716 H   0  0  0  0  0  0  0  0  0  0  0  0
   61.5066   34.8389   45.9289 H   0  0  0  0  0  0  0  0  0  0  0  0
   59.5776   34.8886   47.2709 H   0  0  0  0  0  0  0  0  0  0  0  0
   57.2035   35.1019   46.6867 H   0  0  0  0  0  0  0  0  0  0  0  0
   56.0034   33.3161   45.4247 H   0  0  0  0  0  0  0  0  0  0  0  0
   59.6819   31.0604   45.3648 H   0  0  0  0  0  0  0  0  0  0  0  0
   59.6600   28.6330   48.3330 H   0  0  0  0  0  0  0  0  0  0  0  0
   57.7559   27.2117   48.0368 H   0  0  0  0  0  0  0  0  0  0  0  0
   55.5220   26.3270   47.3820 H   0  0  0  0  0  0  0  0  0  0  0  0
   54.7140   27.0840   45.9440 H   0  0  0  0  0  0  0  0  0  0  0  0
  1  2  2  3
  2  3  1  0
  3  4  1  0
  4  5  2  0
  5  6  1  0
  6  7  1  0
  7  8  2  0
  8  9  1  0
  9 10  2  0
 10 11  1  0
 11 12  2  0
 12 13  1  0
 13 14  2  0
 14 15  1  0
 15 16  2  0
 16 17  1  0
 17 18  1  0
 17 19  2  0
  4 20  1  0
 20 21  1  0
 21 22  2  0
 22 23  1  0
 23 24  1  0
 23 25  2  0
 22  2  1  0
 12  7  1  0
 19 13  1  0
  1 26  1  0
  3 27  1  0
  6 28  1  0
  6 29  1  0
  8 30  1  0
  9 31  1  0
 10 32  1  0
 11 33  1  0
 14 34  1  0
 15 35  1  0
 16 36  1  0
 19 37  1  0
 20 38  1  0
 21 39  1  0
 24 40  1  0
 24 41  1  0
M  END
>  <smiles>  (44) 
N=c1[nH]c(=NCc2ccccc2-c2cccc(Cl)c2)[nH]cc1C(N)=O

>  <score_type>  (44) 
oracle

>  <origin>  (44) 
adg

>  <m_score__min__energy>  (44) 
-8.4900000000000002

>  <m_primary>  (44) 
energy

$$$$
44:0
     RDKit          3D

 67 71  0  0  0  0  0  0  0  0999 V2000
   60.1160   30.0950   48.2700 C   0  0  0  0  0  0  0  0  0  0  0  0
   60.7610   29.0250   47.5840 O   0  0  0  0  0  0  0  0  0  0  0  0
   60.1560   27.7930   47.2960 C   0  0  0  0  0  0  0  0  0  0  0  0
   58.8860   27.5400   47.8240 C   0  0  0  0  0  0  0  0  0  0  0  0
   58.2500   26.3180   47.5860 C   0  0  0  0  0  0  0  0  0  0  0  0
   58.8860   25.3200   46.8410 C   0  0  0  0  0  0  0  0  0  0  0  0
   58.2300   24.0950   46.6650 O   0  0  0  0  0  0  0  0  0  0  0  0
   57.8370   23.5560   45.4310 C   0  0  0  0  0  0  0  0  0  0  0  0
   58.0020   22.2270   45.1660 N   0  0  0  0  0  0  0  0  0  0  0  0
   57.5710   21.6610   44.0080 C   0  0  0  0  0  0  0  0  0  0  0  0
   56.9170   22.4380   43.0550 C   0  0  0  0  0  0  0  0  0  0  0  0
   56.7230   23.7980   43.2980 C   0  0  0  0  0  0  0  0  0  0  0  0
   57.1990   24.3770   44.4840 C   0  0  0  0  0  0  0  0  0  0  0  0
   57.0100   25.8210   44.7300 C   0  0  0  0  0  0  0  0  0  0  0  0
   56.1780   26.2000   45.5990 O   0  0  0  0  0  0  0  0  0  0  0  0
   57.7120   26.7870   43.9330 N   0  0  0  0  0  0  0  0  0  0  0  0
   57.8120   28.1730   44.2920 C   0  0  0  0  0  0  0  0  0  0  0  0
   59.0670   28.7270   44.5730 C   0  0  0  0  0  0  0  0  0  0  0  0
   59.1830   30.0710   44.9360 C   0  0  0  0  0  0  0  0  0  0  0  0
   58.0400   30.8850   45.0470 C   0  0  0  0  0  0  0  0  0  0  0  0
   58.1600   32.2740   45.4290 N   0  0  0  0  0  0  0  0  0  0  0  0
   57.8580   32.7280   46.7920 C   0  0  0  0  0  0  0  0  0  0  0  0
   59.0220   33.5760   47.3440 C   0  0  0  0  0  0  0  0  0  0  0  0
   59.7390   34.3710   46.3090 N   0  0  0  0  0  0  0  0  0  0  0  0
   61.0750   33.8070   46.0040 C   0  0  0  0  0  0  0  0  0  0  0  0
   61.8140   33.4380   47.2670 C   0  0  0  0  0  0  0  0  0  0  0  0
   61.6720   34.2090   48.4330 C   0  0  0  0  0  0  0  0  0  0  0  0
   62.3410   33.8440   49.6060 C   0  0  0  0  0  0  0  0  0  0  0  0
   63.1540   32.7060   49.6230 C   0  0  0  0  0  0  0  0  0  0  0  0
   63.2960   31.9310   48.4660 C   0  0  0  0  0  0  0  0  0  0  0  0
   62.6280   32.2930   47.2930 C   0  0  0  0  0  0  0  0  0  0  0  0
   58.9180   34.6100   45.1000 C   0  0  0  0  0  0  0  0  0  0  0  0
   58.4900   33.2960   44.4260 C   0  0  0  0  0  0  0  0  0  0  0  0
   56.7770   30.3100   44.8070 C   0  0  0  0  0  0  0  0  0  0  0  0
   56.6660   28.9710   44.4220 C   0  0  0  0  0  0  0  0  0  0  0  0
   60.1410   25.5860   46.2670 C   0  0  0  0  0  0  0  0  0  0  0  0
   60.7740   26.8120   46.4930 C   0  0  0  0  0  0  0  0  0  0  0  0
   60.2078   29.9428   49.3555 H   0  0  0  0  0  0  0  0  0  0  0  0
   60.5904   31.0477   47.9919 H   0  0  0  0  0  0  0  0  0  0  0  0
   59.0520   30.1203   47.9919 H   0  0  0  0  0  0  0  0  0  0  0  0
   58.3839   28.3079   48.4308 H   0  0  0  0  0  0  0  0  0  0  0  0
   57.2416   26.1402   47.9878 H   0  0  0  0  0  0  0  0  0  0  0  0
   57.7386   20.5896   43.8235 H   0  0  0  0  0  0  0  0  0  0  0  0
   56.5570   21.9839   42.1200 H   0  0  0  0  0  0  0  0  0  0  0  0
   56.1956   24.4178   42.5580 H   0  0  0  0  0  0  0  0  0  0  0  0
   58.0310   26.4960   42.9820 H   0  0  0  0  0  0  0  0  0  0  0  0
   59.9680   28.0994   44.5074 H   0  0  0  0  0  0  0  0  0  0  0  0
   60.1770   30.4972   45.1370 H   0  0  0  0  0  0  0  0  0  0  0  0
   56.9413   33.3359   46.7772 H   0  0  0  0  0  0  0  0  0  0  0  0
   57.7172   31.8495   47.4388 H   0  0  0  0  0  0  0  0  0  0  0  0
   58.6175   34.2709   48.0946 H   0  0  0  0  0  0  0  0  0  0  0  0
   59.7541   32.8726   47.7673 H   0  0  0  0  0  0  0  0  0  0  0  0
   60.9512   32.9063   45.3848 H   0  0  0  0  0  0  0  0  0  0  0  0
   61.6603   34.5690   45.4685 H   0  0  0  0  0  0  0  0  0  0  0  0
   61.0319   35.1036   48.4234 H   0  0  0  0  0  0  0  0  0  0  0  0
   62.2276   34.4523   50.5155 H   0  0  0  0  0  0  0  0  0  0  0  0
   63.6815   32.4202   50.5450 H   0  0  0  0  0  0  0  0  0  0  0  0
   63.9345   31.0354   48.4801 H   0  0  0  0  0  0  0  0  0  0  0  0
   62.7399   31.6794   46.3869 H   0  0  0  0  0  0  0  0  0  0  0  0
   58.0170   35.1715   45.3878 H   0  0  0  0  0  0  0  0  0  0  0  0
   59.5278   35.1776   44.3817 H   0  0  0  0  0  0  0  0  0  0  0  0
   57.6056   33.4843   43.7995 H   0  0  0  0  0  0  0  0  0  0  0  0
   59.3253   32.9283   43.8120 H   0  0  0  0  0  0  0  0  0  0  0  0
   55.8694   30.9204   44.9236 H   0  0  0  0  0  0  0  0  0  0  0  0
   55.6741   28.5406   44.2198 H   0  0  0  0  0  0  0  0  0  0  0  0
   60.6273   24.8264   45.6373 H   0  0  0  0  0  0  0  0  0  0  0  0
   61.7575   27.0121   46.0429 H   0  0  0  0  0  0  0  0  0  0  0  0
  1  2  1  0
  2  3  1  0
  3  4  2  0
  4  5  1  0
  5  6  2  0
  6  7  1  0
  7  8  1  0
  8  9  2  0
  9 10  1  0
 10 11  2  0
 11 12  1  0
 12 13  2  0
 13 14  1  0
 14 15  2  0
 14 16  1  0
 16 17  1  0
 17 18  2  0
 18 19  1  0
 19 20  2  0
 20 21  1  0
 21 22  1  0
 22 23  1  0
 23 24  1  0
 24 25  1  0
 25 26  1  0
 26 27  2  0
 27 28  1  0
 28 29  2  0
 29 30  1  0
 30 31  2  0
 24 32  1  0
 32 33  1  0
 20 34  1  0
 34 35  2  0
  6 36  1  0
 36 37  2  0
 37  3  1  0
 13  8  1  0
 35 17  1  0
 33 21  1  0
 31 26  1  0
  1 38  1  0
  1 39  1  0
  1 40  1  0
  4 41  1  0
  5 42  1  0
 10 43  1  0
 11 44  1  0
 12 45  1  0
 16 46  1  0
 18 47  1  0
 19 48  1  0
 22 49  1  0
 22 50  1  0
 23 51  1  0
 23 52  1  0
 25 53  1  0
 25 54  1  0
 27 55  1  0
 28 56  1  0
 29 57  1  0
 30 58  1  0
 31 59  1  0
 32 60  1  0
 32 61  1  0
 33 62  1  0
 33 63  1  0
 34 64  1  0
 35 65  1  0
 36 66  1  0
 37 67  1  0
M  END
>  <UniqueID>  (45) 
40

>  <SMILES>  (45) 
COc1ccc(Oc2ncccc2C(=O)Nc2ccc(N3CCN(Cc4ccccc4)CC3)cc2)cc1

>  <Energy>  (45) 
98.19633838324337

>  <Genealogy>  (45) 
COc1ccc(Oc2ncccc2C(=O)Nc2ccc(N3CCN(Cc4ccccc4)CC3)cc2)cc1 (3D coordinates assigned)
COc1ccc(Oc2ncccc2C(=O)Nc2ccc(N3CCN(Cc4ccccc4)CC3)cc2)cc1 (nonaromatic ring conformer: 98.19633838324337 kcal/mol)

>  <smiles>  (45) 
COc1ccc(Oc2ncccc2C(=O)Nc2ccc(N3CCN(Cc4ccccc4)CC3)cc2)cc1

>  <score_type>  (45) 
oracle

>  <origin>  (45) 
adg

>  <m_score__min__energy>  (45) 
-8.8699999999999992

>  <m_primary>  (45) 
energy

$$$$
45:0
     RDKit          3D

 50 52  0  0  1  0  0  0  0  0999 V2000
   59.6870   35.0380   46.3720 C   0  0  0  0  0  0  0  0  0  0  0  0
   59.2770   34.5120   45.2480 C   0  0  0  0  0  0  0  0  0  0  0  0
   58.3510   33.3790   45.2710 C   0  0  0  0  0  0  0  0  0  0  0  0
   57.1320   33.6500   45.2460 O   0  0  0  0  0  0  0  0  0  0  0  0
   58.8310   32.0490   45.3220 N   0  0  0  0  0  0  0  0  0  0  0  0
   58.0630   30.8840   45.3490 C   0  0  0  0  0  0  0  0  0  0  0  0
   56.9350   30.6340   44.6080 C   0  0  0  0  0  0  0  0  0  0  0  0
   56.2230   29.4330   44.6980 C   0  0  0  0  0  0  0  0  0  0  0  0
   56.6340   28.4350   45.5530 C   0  0  0  0  0  0  0  0  0  0  0  0
   55.9100   27.2540   45.6240 O   0  0  0  0  0  0  0  0  0  0  0  0
   56.6500   26.0500   45.7410 C   0  0  0  0  0  0  0  0  0  0  0  0
   57.7660   28.6810   46.3000 C   0  0  0  0  0  0  0  0  0  0  0  0
   58.4640   29.8650   46.2080 C   0  0  0  0  0  0  0  0  0  0  0  0
   59.6360   30.0130   47.0390 N   0  0  0  0  0  0  0  0  0  0  0  0
   59.6050   30.8590   48.0040 C   0  0  0  0  0  0  0  0  0  0  0  0
   58.6920   30.6380   48.9740 N   0  0  0  0  0  0  0  0  0  0  0  0
   58.5740   31.4750   50.0430 C   0  0  0  0  0  0  0  0  0  0  0  0
   59.4290   32.5790   50.1140 C   0  0  0  0  0  0  0  0  0  0  0  0
   59.2780   33.7490   51.5940 Br  0  0  0  0  0  0  0  0  0  0  0  0
   60.3560   32.7820   49.1080 C   0  0  0  0  0  0  0  0  0  0  0  0
   61.1380   33.8190   49.2020 N   0  0  0  0  0  0  0  0  0  0  0  0
   62.5250   33.5940   48.9690 C   0  0  0  0  0  0  0  0  0  0  0  0
   63.4660   33.4770   49.9740 C   0  0  0  0  0  0  0  0  0  0  0  0
   63.2000   33.5600   51.4300 C   0  0  0  0  0  0  0  0  0  0  0  0
   64.6380   33.2740   49.3350 N   0  0  0  0  0  0  0  0  0  0  0  0
   65.8870   33.1000   50.0770 C   0  0  0  0  0  0  0  0  0  0  0  0
   64.4530   33.2650   48.0230 N   0  0  0  0  0  0  0  0  0  0  0  0
   63.1450   33.4620   47.7380 C   0  0  0  0  0  0  0  0  0  0  0  0
   62.5870   33.5160   46.6070 O   0  0  0  0  0  0  0  0  0  0  0  0
   60.4460   31.9320   48.0600 N   0  0  0  0  0  0  0  0  0  0  0  0
   60.3830   35.8897   46.3591 H   0  0  0  0  0  0  0  0  0  0  0  0
   59.3361   34.6290   47.3309 H   0  0  0  0  0  0  0  0  0  0  0  0
   59.6268   34.9195   44.2880 H   0  0  0  0  0  0  0  0  0  0  0  0
   59.8940   31.9620   45.3400 H   0  0  0  0  0  0  0  0  0  0  0  0
   56.5762   31.4094   43.9152 H   0  0  0  0  0  0  0  0  0  0  0  0
   55.3256   29.2845   44.0794 H   0  0  0  0  0  0  0  0  0  0  0  0
   56.7965   25.8116   46.8048 H   0  0  0  0  0  0  0  0  0  0  0  0
   56.0986   25.2319   45.2545 H   0  0  0  0  0  0  0  0  0  0  0  0
   57.6289   26.1725   45.2545 H   0  0  0  0  0  0  0  0  0  0  0  0
   58.1241   27.9055   46.9931 H   0  0  0  0  0  0  0  0  0  0  0  0
   58.0500   29.8140   48.9260 H   0  0  0  0  0  0  0  0  0  0  0  0
   57.8268   31.2872   50.8282 H   0  0  0  0  0  0  0  0  0  0  0  0
   64.1066   33.2771   51.9851 H   0  0  0  0  0  0  0  0  0  0  0  0
   62.9156   34.5896   51.6927 H   0  0  0  0  0  0  0  0  0  0  0  0
   62.3805   32.8749   51.6927 H   0  0  0  0  0  0  0  0  0  0  0  0
   65.6791   33.1290   51.1568 H   0  0  0  0  0  0  0  0  0  0  0  0
   66.3365   32.1306   49.8160 H   0  0  0  0  0  0  0  0  0  0  0  0
   66.5844   33.9097   49.8160 H   0  0  0  0  0  0  0  0  0  0  0  0
   65.2110   33.1260   47.3330 H   0  0  0  0  0  0  0  0  0  0  0  0
   61.1440   32.0800   47.2950 H   0  0  0  0  0  0  0  0  0  0  0  0
  1  2  2  0
  2  3  1  0
  3  4  2  0
  3  5  1  0
  5  6  1  0
  6  7  2  0
  7  8  1  0
  8  9  2  0
  9 10  1  0
 10 11  1  0
  9 12  1  0
 12 13  2  0
 13 14  1  0
 14 15  2  0
 15 16  1  0
 16 17  1  0
 17 18  2  0
 18 19  1  0
 18 20  1  0
 20 21  2  0
 21 22  1  0
 22 23  2  0
 23 24  1  0
 23 25  1  0
 25 26  1  0
 25 27  1  0
 27 28  1  0
 28 29  2  0
 20 30  1  0
 13  6  1  0
 30 15  1  0
 28 22  1  0
  1 31  1  0
  1 32  1  0
  2 33  1  0
  5 34  1  0
  7 35  1  0
  8 36  1  0
 11 37  1  0
 11 38  1  0
 11 39  1  0
 12 40  1  0
 16 41  1  0
 17 42  1  0
 24 43  1  0
 24 44  1  0
 24 45  1  0
 26 46  1  0
 26 47  1  0
 26 48  1  0
 27 49  1  0
 30 50  1  0
M  END
>  <smiles>  (46) 
C=CC(=O)Nc1ccc(OC)cc1N=c1[nH]cc(Br)c(=Nc2c(C)n(C)[nH]c2=O)[nH]1

>  <score_type>  (46) 
oracle

>  <origin>  (46) 
adg

>  <m_score__min__energy>  (46) 
-8.5800000000000001

>  <m_primary>  (46) 
energy

$$$$
46:0
     RDKit          3D

 62 65  0  0  0  0  0  0  0  0999 V2000
   62.1900   33.5310   46.7250 C   0  0  0  0  0  0  0  0  0  0  0  0
   61.0200   33.8750   47.5590 N   0  0  0  0  0  0  0  0  0  0  0  0
   60.0790   34.7120   46.7790 C   0  0  0  0  0  0  0  0  0  0  0  0
   58.9840   33.8560   46.1960 C   0  0  0  0  0  0  0  0  0  0  0  0
   59.2910   32.9060   45.2100 C   0  0  0  0  0  0  0  0  0  0  0  0
   58.2860   32.1180   44.6490 C   0  0  0  0  0  0  0  0  0  0  0  0
   56.9560   32.2490   45.0870 C   0  0  0  0  0  0  0  0  0  0  0  0
   55.8930   31.4510   44.5450 N   0  0  0  0  0  0  0  0  0  0  0  0
   55.9940   30.1130   44.0420 C   0  0  0  0  0  0  0  0  0  0  0  0
   56.0340   29.9320   42.7960 O   0  0  0  0  0  0  0  0  0  0  0  0
   55.9530   28.9920   44.9360 N   0  0  0  0  0  0  0  0  0  0  0  0
   57.0530   28.4380   45.6740 C   0  0  0  0  0  0  0  0  0  0  0  0
   57.1210   27.0750   46.0000 C   0  0  0  0  0  0  0  0  0  0  0  0
   58.2400   26.5640   46.6580 C   0  0  0  0  0  0  0  0  0  0  0  0
   59.3120   27.3980   46.9890 C   0  0  0  0  0  0  0  0  0  0  0  0
   60.6890   26.6820   47.8230 Cl  0  0  0  0  0  0  0  0  0  0  0  0
   59.2740   28.7680   46.6480 C   0  0  0  0  0  0  0  0  0  0  0  0
   60.4390   29.6760   46.9740 C   0  0  0  0  0  0  0  0  0  0  0  0
   60.0380   30.9910   47.1370 F   0  0  0  0  0  0  0  0  0  0  0  0
   61.0390   29.2550   48.1460 F   0  0  0  0  0  0  0  0  0  0  0  0
   61.3620   29.6320   45.9480 F   0  0  0  0  0  0  0  0  0  0  0  0
   58.1330   29.2720   45.9890 C   0  0  0  0  0  0  0  0  0  0  0  0
   56.6470   33.2160   46.0510 C   0  0  0  0  0  0  0  0  0  0  0  0
   57.6520   34.0130   46.6060 C   0  0  0  0  0  0  0  0  0  0  0  0
   61.4360   34.5260   48.8310 C   0  0  0  0  0  0  0  0  0  0  0  0
   61.9760   33.4960   49.8500 C   0  0  2  0  0  0  0  0  0  0  0  0
   63.5030   33.4840   49.9520 C   0  0  0  0  0  0  0  0  0  0  0  0
   63.9550   32.2960   49.1110 C   0  0  0  0  0  0  0  0  0  0  0  0
   62.7690   31.3410   49.0930 C   0  0  0  0  0  0  0  0  0  0  0  0
   61.6080   32.1360   49.4720 N   0  0  0  0  0  0  0  0  0  0  0  0
   60.4310   31.5040   49.9950 C   0  0  0  0  0  0  0  0  0  0  0  0
   59.1850   32.1470   49.8990 C   0  0  0  0  0  0  0  0  0  0  0  0
   58.0420   31.5500   50.4400 C   0  0  0  0  0  0  0  0  0  0  0  0
   58.1340   30.3080   51.0770 C   0  0  0  0  0  0  0  0  0  0  0  0
   56.9990   29.7200   51.6210 O   0  0  0  0  0  0  0  0  0  0  0  0
   59.3730   29.6610   51.1690 C   0  0  0  0  0  0  0  0  0  0  0  0
   60.5170   30.2590   50.6300 C   0  0  0  0  0  0  0  0  0  0  0  0
   63.0420   33.2805   47.3741 H   0  0  0  0  0  0  0  0  0  0  0  0
   61.9462   32.6665   46.0900 H   0  0  0  0  0  0  0  0  0  0  0  0
   62.4529   34.3899   46.0900 H   0  0  0  0  0  0  0  0  0  0  0  0
   59.6345   35.4712   47.4393 H   0  0  0  0  0  0  0  0  0  0  0  0
   60.6269   35.2017   45.9605 H   0  0  0  0  0  0  0  0  0  0  0  0
   60.3320   32.7818   44.8770 H   0  0  0  0  0  0  0  0  0  0  0  0
   58.5346   31.3916   43.8613 H   0  0  0  0  0  0  0  0  0  0  0  0
   56.2884   26.4065   45.7356 H   0  0  0  0  0  0  0  0  0  0  0  0
   58.2791   25.4960   46.9185 H   0  0  0  0  0  0  0  0  0  0  0  0
   58.0910   30.3373   45.7182 H   0  0  0  0  0  0  0  0  0  0  0  0
   55.6042   33.3497   46.3744 H   0  0  0  0  0  0  0  0  0  0  0  0
   57.3975   34.7657   47.3667 H   0  0  0  0  0  0  0  0  0  0  0  0
   62.2255   35.2606   48.6140 H   0  0  0  0  0  0  0  0  0  0  0  0
   60.5539   35.0141   49.2711 H   0  0  0  0  0  0  0  0  0  0  0  0
   61.5305   33.8041   50.8074 H   0  0  0  0  0  0  0  0  0  0  0  0
   63.9228   34.4195   49.5537 H   0  0  0  0  0  0  0  0  0  0  0  0
   63.8429   33.4002   50.9948 H   0  0  0  0  0  0  0  0  0  0  0  0
   64.2044   32.6197   48.0897 H   0  0  0  0  0  0  0  0  0  0  0  0
   64.8572   31.8212   49.5240 H   0  0  0  0  0  0  0  0  0  0  0  0
   62.6321   30.9204   48.0858 H   0  0  0  0  0  0  0  0  0  0  0  0
   62.9211   30.4963   49.7810 H   0  0  0  0  0  0  0  0  0  0  0  0
   59.1086   33.1227   49.3968 H   0  0  0  0  0  0  0  0  0  0  0  0
   57.0691   32.0578   50.3645 H   0  0  0  0  0  0  0  0  0  0  0  0
   59.4464   28.6821   51.6654 H   0  0  0  0  0  0  0  0  0  0  0  0
   61.4886   29.7488   50.7054 H   0  0  0  0  0  0  0  0  0  0  0  0
  1  2  1  0
  2  3  1  0
  3  4  1  0
  4  5  2  0
  5  6  1  0
  6  7  2  0
  7  8  1  0
  8  9  1  0
  9 10  2  0
  9 11  1  0
 11 12  1  0
 12 13  2  0
 13 14  1  0
 14 15  2  0
 15 16  1  0
 15 17  1  0
 17 18  1  0
 18 19  1  0
 18 20  1  0
 18 21  1  0
 17 22  2  0
  7 23  1  0
 23 24  2  0
  2 25  1  0
 25 26  1  0
 26 27  1  0
 27 28  1  0
 28 29  1  0
 29 30  1  0
 30 31  1  0
 31 32  2  0
 32 33  1  0
 33 34  2  0
 34 35  1  0
 34 36  1  0
 36 37  2  0
 24  4  1  0
 30 26  1  0
 37 31  1  0
 22 12  1  0
  1 38  1  0
  1 39  1  0
  1 40  1  0
  3 41  1  0
  3 42  1  0
  5 43  1  0
  6 44  1  0
 13 45  1  0
 14 46  1  0
 22 47  1  0
 23 48  1  0
 24 49  1  0
 25 50  1  0
 25 51  1  0
 26 52  1  1
 27 53  1  0
 27 54  1  0
 28 55  1  0
 28 56  1  0
 29 57  1  0
 29 58  1  0
 32 59  1  0
 33 60  1  0
 36 61  1  0
 37 62  1  0
M  CHG  3   8  -1  11  -1  35  -1
M  END
>  <UniqueID>  (47) 
41

>  <SMILES>  (47) 
CN(Cc1ccc([N-]C(=O)[N-]c2ccc(Cl)c(C(F)(F)F)c2)cc1)C[C@@H]1CCCN1c1ccc([O-])cc1

>  <Energy>  (47) 
83.34132428197555

>  <Genealogy>  (47) 
CN(Cc1ccc([N-]C(=O)[N-]c2ccc(Cl)c(C(F)(F)F)c2)cc1)CC1CCCN1c1ccc([O-])cc1 (protonated)
CN(Cc1ccc([N-]C(=O)[N-]c2ccc(Cl)c(C(F)(F)F)c2)cc1)C[C@@H]1CCCN1c1ccc([O-])cc1 (chirality)
CN(Cc1ccc([N-]C(=O)[N-]c2ccc(Cl)c(C(F)(F)F)c2)cc1)C[C@@H]1CCCN1c1ccc([O-])cc1 (3D coordinates assigned)
CN(Cc1ccc([N-]C(=O)[N-]c2ccc(Cl)c(C(F)(F)F)c2)cc1)C[C@@H]1CCCN1c1ccc([O-])cc1 (nonaromatic ring conformer: 83.34132428197555 kcal/mol)

>  <smiles>  (47) 
CN(Cc1ccc(NC(=O)Nc2ccc(Cl)c(C(F)(F)F)c2)cc1)CC1CCCN1c1ccc(O)cc1

>  <score_type>  (47) 
oracle

>  <origin>  (47) 
adg

>  <m_score__min__energy>  (47) 
-14.76

>  <m_primary>  (47) 
energy

$$$$
47:0
     RDKit          3D

 41 43  0  0  0  0  0  0  0  0999 V2000
   54.7770   29.3750   43.7650 O   0  0  0  0  0  0  0  0  0  0  0  0
   55.9360   29.7260   44.1110 C   0  0  0  0  0  0  0  0  0  0  0  0
   56.1250   31.0140   44.5050 N   0  0  0  0  0  0  0  0  0  0  0  0
   57.3400   31.4720   44.8950 C   0  0  0  0  0  0  0  0  0  0  0  0
   57.4210   33.1970   45.3520 S   0  0  0  0  0  0  0  0  0  0  0  0
   58.9570   33.8880   44.6880 C   0  0  0  0  0  0  0  0  0  0  0  0
   59.4860   34.9990   45.5770 C   0  0  0  0  0  0  0  0  0  0  0  0
   60.3710   34.4820   46.6470 C   0  0  0  0  0  0  0  0  0  0  0  0
   59.8900   34.6130   47.9510 C   0  0  0  0  0  0  0  0  0  0  0  0
   60.6410   34.1410   49.0090 C   0  0  0  0  0  0  0  0  0  0  0  0
   61.8600   33.5440   48.7510 C   0  0  0  0  0  0  0  0  0  0  0  0
   62.3400   33.4120   47.4710 C   0  0  0  0  0  0  0  0  0  0  0  0
   61.5840   33.8880   46.4000 C   0  0  0  0  0  0  0  0  0  0  0  0
   58.3910   30.6510   44.8990 N   0  0  0  0  0  0  0  0  0  0  0  0
   58.1920   29.3550   44.4990 C   0  0  0  0  0  0  0  0  0  0  0  0
   59.5960   28.2160   44.4560 S   0  0  0  0  0  0  0  0  0  0  0  0
   60.9100   29.0040   45.4150 C   0  0  0  0  0  0  0  0  0  0  0  0
   60.4080   29.3090   46.7680 C   0  0  0  0  0  0  0  0  0  0  0  0
   60.2420   30.6260   47.1830 C   0  0  0  0  0  0  0  0  0  0  0  0
   59.8140   30.9470   48.4670 C   0  0  0  0  0  0  0  0  0  0  0  0
   59.5470   29.9060   49.3490 C   0  0  0  0  0  0  0  0  0  0  0  0
   59.7060   28.5770   48.9500 C   0  0  0  0  0  0  0  0  0  0  0  0
   60.1380   28.2900   47.6570 C   0  0  0  0  0  0  0  0  0  0  0  0
   56.9870   28.9160   44.1170 N   0  0  0  0  0  0  0  0  0  0  0  0
   59.7113   33.0900   44.6231 H   0  0  0  0  0  0  0  0  0  0  0  0
   58.7499   34.3064   43.6920 H   0  0  0  0  0  0  0  0  0  0  0  0
   60.0548   35.7084   44.9579 H   0  0  0  0  0  0  0  0  0  0  0  0
   58.6254   35.4888   46.0560 H   0  0  0  0  0  0  0  0  0  0  0  0
   58.9163   35.0905   48.1348 H   0  0  0  0  0  0  0  0  0  0  0  0
   60.2745   34.2387   50.0415 H   0  0  0  0  0  0  0  0  0  0  0  0
   62.4606   33.1652   49.5911 H   0  0  0  0  0  0  0  0  0  0  0  0
   63.3143   32.9340   47.2917 H   0  0  0  0  0  0  0  0  0  0  0  0
   61.9552   33.7887   45.3693 H   0  0  0  0  0  0  0  0  0  0  0  0
   61.7713   28.3236   45.4870 H   0  0  0  0  0  0  0  0  0  0  0  0
   61.2221   29.9347   44.9185 H   0  0  0  0  0  0  0  0  0  0  0  0
   60.4558   31.4392   46.4737 H   0  0  0  0  0  0  0  0  0  0  0  0
   59.6902   31.9954   48.7760 H   0  0  0  0  0  0  0  0  0  0  0  0
   59.2073   30.1312   50.3707 H   0  0  0  0  0  0  0  0  0  0  0  0
   59.4909   27.7598   49.6542 H   0  0  0  0  0  0  0  0  0  0  0  0
   60.2646   27.2434   47.3431 H   0  0  0  0  0  0  0  0  0  0  0  0
   56.8770   27.9070   43.8200 H   0  0  0  0  0  0  0  0  0  0  0  0
  1  2  2  0
  2  3  1  0
  3  4  2  0
  4  5  1  0
  5  6  1  0
  6  7  1  0
  7  8  1  0
  8  9  2  0
  9 10  1  0
 10 11  2  0
 11 12  1  0
 12 13  2  0
  4 14  1  0
 14 15  2  0
 15 16  1  0
 16 17  1  0
 17 18  1  0
 18 19  2  0
 19 20  1  0
 20 21  2  0
 21 22  1  0
 22 23  2  0
 15 24  1  0
 24  2  1  0
 13  8  1  0
 23 18  1  0
  6 25  1  0
  6 26  1  0
  7 27  1  0
  7 28  1  0
  9 29  1  0
 10 30  1  0
 11 31  1  0
 12 32  1  0
 13 33  1  0
 17 34  1  0
 17 35  1  0
 19 36  1  0
 20 37  1  0
 21 38  1  0
 22 39  1  0
 23 40  1  0
 24 41  1  0
M  END
>  <smiles>  (48) 
O=c1nc(SCCc2ccccc2)nc(SCc2ccccc2)[nH]1

>  <score_type>  (48) 
oracle

>  <origin>  (48) 
adg

>  <m_score__min__energy>  (48) 
-8.4399999999999995

>  <m_primary>  (48) 
energy

$$$$
48:0
     RDKit          3D

 48 50  0  0  0  0  0  0  0  0999 V2000
   50.6220   31.5180   53.9870 C   0  0  0  0  0  0  0  0  0  0  0  0
   51.8020   31.2870   53.0850 C   0  0  0  0  0  0  0  0  0  0  0  0
   52.9480   30.6380   53.5710 C   0  0  0  0  0  0  0  0  0  0  0  0
   54.0420   30.3990   52.7270 C   0  0  0  0  0  0  0  0  0  0  0  0
   55.4490   29.5250   53.3300 S   0  0  0  0  0  0  0  0  0  0  0  0
   56.3330   29.1340   52.1780 O   0  0  0  0  0  0  0  0  0  0  0  0
   55.0060   28.2770   54.0400 O   0  0  0  0  0  0  0  0  0  0  0  0
   56.3600   30.5600   54.4610 C   0  0  0  0  0  0  0  0  0  0  0  0
   57.3020   31.4380   53.7010 C   0  0  0  0  0  0  0  0  0  0  0  0
   58.1990   32.3290   54.2550 C   0  0  0  0  0  0  0  0  0  0  0  0
   58.8040   32.9610   53.1910 C   0  0  0  0  0  0  0  0  0  0  0  0
   58.2330   32.4140   52.0540 C   0  0  0  0  0  0  0  0  0  0  0  0
   58.5520   32.7560   50.6590 C   0  0  0  0  0  0  0  0  0  0  0  0
   57.8010   32.3320   49.7400 O   0  0  0  0  0  0  0  0  0  0  0  0
   59.6990   33.5570   50.3370 N   0  0  0  0  0  0  0  0  0  0  0  0
   60.2220   33.6640   48.9750 C   0  0  0  0  0  0  0  0  0  0  0  0
   59.2680   34.4620   48.0780 C   0  0  0  0  0  0  0  0  0  0  0  0
   58.7590   33.6210   46.9350 C   0  0  0  0  0  0  0  0  0  0  0  0
   57.9450   34.1910   45.9400 C   0  0  0  0  0  0  0  0  0  0  0  0
   57.4340   33.3980   44.9070 C   0  0  0  0  0  0  0  0  0  0  0  0
   57.7290   32.0320   44.8620 C   0  0  0  0  0  0  0  0  0  0  0  0
   57.0860   31.0390   43.5660 Cl  0  0  0  0  0  0  0  0  0  0  0  0
   58.5310   31.4550   45.8520 C   0  0  0  0  0  0  0  0  0  0  0  0
   59.0420   32.2450   46.8880 C   0  0  0  0  0  0  0  0  0  0  0  0
   57.3430   31.5080   52.3910 O   0  0  0  0  0  0  0  0  0  0  0  0
   53.9870   30.8080   51.3890 C   0  0  0  0  0  0  0  0  0  0  0  0
   52.8510   31.4590   50.9010 C   0  0  0  0  0  0  0  0  0  0  0  0
   51.7590   31.6980   51.7410 C   0  0  0  0  0  0  0  0  0  0  0  0
   50.6350   32.3400   51.2340 O   0  0  0  0  0  0  0  0  0  0  0  0
   50.9449   31.4548   55.0366 H   0  0  0  0  0  0  0  0  0  0  0  0
   50.2013   32.5155   53.7922 H   0  0  0  0  0  0  0  0  0  0  0  0
   49.8562   30.7527   53.7922 H   0  0  0  0  0  0  0  0  0  0  0  0
   52.9881   30.3146   54.6216 H   0  0  0  0  0  0  0  0  0  0  0  0
   55.6567   31.1858   55.0299 H   0  0  0  0  0  0  0  0  0  0  0  0
   56.9342   29.9245   55.1512 H   0  0  0  0  0  0  0  0  0  0  0  0
   58.3910   32.4991   55.3247 H   0  0  0  0  0  0  0  0  0  0  0  0
   59.5802   33.7392   53.2353 H   0  0  0  0  0  0  0  0  0  0  0  0
   60.1830   34.0940   51.0900 H   0  0  0  0  0  0  0  0  0  0  0  0
   61.1973   34.1719   49.0036 H   0  0  0  0  0  0  0  0  0  0  0  0
   60.3257   32.6505   48.5601 H   0  0  0  0  0  0  0  0  0  0  0  0
   58.4130   34.8045   48.6794 H   0  0  0  0  0  0  0  0  0  0  0  0
   59.8182   35.3183   47.6609 H   0  0  0  0  0  0  0  0  0  0  0  0
   57.7091   35.2649   45.9741 H   0  0  0  0  0  0  0  0  0  0  0  0
   56.7998   33.8493   44.1298 H   0  0  0  0  0  0  0  0  0  0  0  0
   58.7602   30.3797   45.8163 H   0  0  0  0  0  0  0  0  0  0  0  0
   59.6675   31.7873   47.6685 H   0  0  0  0  0  0  0  0  0  0  0  0
   54.8396   30.6165   50.7209 H   0  0  0  0  0  0  0  0  0  0  0  0
   52.8156   31.7850   49.8510 H   0  0  0  0  0  0  0  0  0  0  0  0
  1  2  1  0
  2  3  2  0
  3  4  1  0
  4  5  1  0
  5  6  2  0
  5  7  2  0
  5  8  1  0
  8  9  1  0
  9 10  2  0
 10 11  1  0
 11 12  2  0
 12 13  1  0
 13 14  2  0
 13 15  1  0
 15 16  1  0
 16 17  1  0
 17 18  1  0
 18 19  2  0
 19 20  1  0
 20 21  2  0
 21 22  1  0
 21 23  1  0
 23 24  2  0
 12 25  1  0
  4 26  2  0
 26 27  1  0
 27 28  2  0
 28 29  1  0
 28  2  1  0
 25  9  1  0
 24 18  1  0
  1 30  1  0
  1 31  1  0
  1 32  1  0
  3 33  1  0
  8 34  1  0
  8 35  1  0
 10 36  1  0
 11 37  1  0
 15 38  1  0
 16 39  1  0
 16 40  1  0
 17 41  1  0
 17 42  1  0
 19 43  1  0
 20 44  1  0
 23 45  1  0
 24 46  1  0
 26 47  1  0
 27 48  1  0
M  CHG  1  29  -1
M  END
>  <UniqueID>  (49) 
42

>  <SMILES>  (49) 
Cc1cc(S(=O)(=O)Cc2ccc(C(=O)NCCc3ccc(Cl)cc3)o2)ccc1[O-]

>  <Energy>  (49) 
64.48356836900517

>  <Genealogy>  (49) 
Cc1cc(S(=O)(=O)Cc2ccc(C(=O)NCCc3ccc(Cl)cc3)o2)ccc1[O-] (protonated)
Cc1cc(S(=O)(=O)Cc2ccc(C(=O)NCCc3ccc(Cl)cc3)o2)ccc1[O-] (3D coordinates assigned)
Cc1cc(S(=O)(=O)Cc2ccc(C(=O)NCCc3ccc(Cl)cc3)o2)ccc1[O-] (optimized conformer: 64.48356836900517 kcal/mol)

>  <smiles>  (49) 
Cc1cc(S(=O)(=O)Cc2ccc(C(=O)NCCc3ccc(Cl)cc3)o2)ccc1O

>  <score_type>  (49) 
oracle

>  <origin>  (49) 
adg

>  <m_score__min__energy>  (49) 
-13.199999999999999

>  <m_primary>  (49) 
energy

$$$$
49:0
     RDKit          3D

 39 41  0  0  0  0  0  0  0  0999 V2000
   60.9180   29.2430   44.8640 O   0  0  0  0  0  0  0  0  0  0  0  0
   60.2580   29.1860   45.9390 C   0  0  0  0  0  0  0  0  0  0  0  0
   60.8000   29.7600   47.1360 N   0  0  0  0  0  0  0  0  0  0  0  0
   61.3340   31.0880   47.2200 C   0  0  0  0  0  0  0  0  0  0  0  0
   62.7250   31.2420   47.1590 C   0  0  0  0  0  0  0  0  0  0  0  0
   63.3070   32.5010   47.3100 C   0  0  0  0  0  0  0  0  0  0  0  0
   62.5020   33.6220   47.5170 C   0  0  0  0  0  0  0  0  0  0  0  0
   61.1120   33.4890   47.5480 C   0  0  0  0  0  0  0  0  0  0  0  0
   60.5070   32.2310   47.3770 C   0  0  0  0  0  0  0  0  0  0  0  0
   59.0290   32.1560   47.3010 C   0  0  0  0  0  0  0  0  0  0  0  0
   58.4510   32.1690   46.1820 O   0  0  0  0  0  0  0  0  0  0  0  0
   58.2620   32.0470   48.5080 N   0  0  0  0  0  0  0  0  0  0  0  0
   58.7720   32.0430   49.8500 C   0  0  0  0  0  0  0  0  0  0  0  0
   58.9970   33.2390   50.5590 C   0  0  0  0  0  0  0  0  0  0  0  0
   59.5150   33.2030   51.8570 C   0  0  0  0  0  0  0  0  0  0  0  0
   59.8260   31.9800   52.4540 C   0  0  0  0  0  0  0  0  0  0  0  0
   59.6300   30.7900   51.7510 C   0  0  0  0  0  0  0  0  0  0  0  0
   59.1130   30.8170   50.4500 C   0  0  0  0  0  0  0  0  0  0  0  0
   58.8820   29.3010   49.5900 Cl  0  0  0  0  0  0  0  0  0  0  0  0
   58.9220   28.5460   45.9570 C   0  0  0  0  0  0  0  0  0  0  0  0
   58.7070   27.3570   46.6770 C   0  0  0  0  0  0  0  0  0  0  0  0
   57.4470   26.7520   46.6880 C   0  0  0  0  0  0  0  0  0  0  0  0
   56.3870   27.3240   45.9800 C   0  0  0  0  0  0  0  0  0  0  0  0
   55.1380   26.7150   45.9970 O   0  0  0  0  0  0  0  0  0  0  0  0
   56.5850   28.5070   45.2580 C   0  0  0  0  0  0  0  0  0  0  0  0
   55.5220   29.0710   44.5540 O   0  0  0  0  0  0  0  0  0  0  0  0
   57.8480   29.1150   45.2460 C   0  0  0  0  0  0  0  0  0  0  0  0
   63.3640   30.3626   46.9906 H   0  0  0  0  0  0  0  0  0  0  0  0
   64.4007   32.6100   47.2659 H   0  0  0  0  0  0  0  0  0  0  0  0
   62.9626   34.6112   47.6559 H   0  0  0  0  0  0  0  0  0  0  0  0
   60.4838   34.3777   47.7079 H   0  0  0  0  0  0  0  0  0  0  0  0
   58.7641   34.2060   50.0892 H   0  0  0  0  0  0  0  0  0  0  0  0
   59.6779   34.1404   52.4091 H   0  0  0  0  0  0  0  0  0  0  0  0
   60.2256   31.9540   53.4785 H   0  0  0  0  0  0  0  0  0  0  0  0
   59.8825   29.8279   52.2207 H   0  0  0  0  0  0  0  0  0  0  0  0
   59.5369   26.8997   47.2358 H   0  0  0  0  0  0  0  0  0  0  0  0
   57.2895   25.8230   47.2556 H   0  0  0  0  0  0  0  0  0  0  0  0
   54.6150   28.6190   44.5120 H   0  0  0  0  0  0  0  0  0  0  0  0
   58.0013   30.0437   44.6768 H   0  0  0  0  0  0  0  0  0  0  0  0
  1  2  2  0
  2  3  1  0
  3  4  1  0
  4  5  2  0
  5  6  1  0
  6  7  2  0
  7  8  1  0
  8  9  2  0
  9 10  1  0
 10 11  2  0
 10 12  1  0
 12 13  1  0
 13 14  2  0
 14 15  1  0
 15 16  2  0
 16 17  1  0
 17 18  2  0
 18 19  1  0
  2 20  1  0
 20 21  2  0
 21 22  1  0
 22 23  2  0
 23 24  1  0
 23 25  1  0
 25 26  1  0
 25 27  2  0
  9  4  1  0
 18 13  1  0
 27 20  1  0
  5 28  1  0
  6 29  1  0
  7 30  1  0
  8 31  1  0
 14 32  1  0
 15 33  1  0
 16 34  1  0
 17 35  1  0
 21 36  1  0
 22 37  1  0
 26 38  1  0
 27 39  1  0
M  CHG  3   3  -1  12  -1  24  -1
M  END
>  <UniqueID>  (50) 
43

>  <SMILES>  (50) 
O=C([N-]c1ccccc1C(=O)[N-]c1ccccc1Cl)c1ccc([O-])c(O)c1

>  <Energy>  (50) 
56.693665129888004

>  <Genealogy>  (50) 
O=C([N-]c1ccccc1C(=O)[N-]c1ccccc1Cl)c1ccc([O-])c(O)c1 (protonated)
O=C([N-]c1ccccc1C(=O)[N-]c1ccccc1Cl)c1ccc([O-])c(O)c1 (3D coordinates assigned)
O=C([N-]c1ccccc1C(=O)[N-]c1ccccc1Cl)c1ccc([O-])c(O)c1 (optimized conformer: 56.693665129888004 kcal/mol)

>  <smiles>  (50) 
O=C(Nc1ccccc1C(=O)Nc1ccccc1Cl)c1ccc(O)c(O)c1

>  <score_type>  (50) 
oracle

>  <origin>  (50) 
adg

>  <m_score__min__energy>  (50) 
-13.94

>  <m_primary>  (50) 
energy

$$$$
50:0
     RDKit          3D

 46 49  0  0  0  0  0  0  0  0999 V2000
   64.7886   32.9054   47.9256 H   0  0  0  0  0  0  0  0  0  0  0  0
   63.7630   32.6460   48.2270 C   0  0  0  0  0  0  0  0  0  0  0  0
   63.1670   33.3050   49.2970 C   0  0  0  0  0  0  0  0  0  0  0  0
   63.7187   34.0984   49.8225 H   0  0  0  0  0  0  0  0  0  0  0  0
   61.8690   32.9690   49.7140 C   0  0  0  0  0  0  0  0  0  0  0  0
   61.2570   33.7600   50.8440 C   0  0  0  0  0  0  0  0  0  0  0  0
   61.5835   33.3380   51.8059 H   0  0  0  0  0  0  0  0  0  0  0  0
   61.5810   34.8089   50.7749 H   0  0  0  0  0  0  0  0  0  0  0  0
   60.1603   33.7097   50.7749 H   0  0  0  0  0  0  0  0  0  0  0  0
   61.1730   31.9080   49.0650 C   0  0  0  0  0  0  0  0  0  0  0  0
   59.7950   31.4730   49.5480 C   0  0  0  0  0  0  0  0  0  0  0  0
   59.7034   31.7050   50.6194 H   0  0  0  0  0  0  0  0  0  0  0  0
   59.6945   30.3925   49.3679 H   0  0  0  0  0  0  0  0  0  0  0  0
   58.7500   32.1410   48.8390 O   0  0  0  0  0  0  0  0  0  0  0  0
   58.9120   32.9180   47.6790 C   0  0  0  0  0  0  0  0  0  0  0  0
   59.5090   34.1940   47.7020 C   0  0  0  0  0  0  0  0  0  0  0  0
   59.8719   34.6095   48.6537 H   0  0  0  0  0  0  0  0  0  0  0  0
   59.6440   34.9370   46.5240 C   0  0  0  0  0  0  0  0  0  0  0  0
   60.1099   35.9329   46.5572 H   0  0  0  0  0  0  0  0  0  0  0  0
   59.1920   34.4240   45.3070 C   0  0  0  0  0  0  0  0  0  0  0  0
   59.3009   35.0120   44.3838 H   0  0  0  0  0  0  0  0  0  0  0  0
   58.5990   33.1560   45.2690 C   0  0  0  0  0  0  0  0  0  0  0  0
   58.4590   32.3970   46.4560 C   0  0  0  0  0  0  0  0  0  0  0  0
   57.8740   31.1610   46.4100 N   0  0  0  0  0  0  0  0  0  0  0  0
   57.4140   30.6260   45.2450 C   0  0  0  0  0  0  0  0  0  0  0  0
   56.8650   29.4450   45.2710 N   0  0  0  0  0  0  0  0  0  0  0  0
   57.5090   28.1620   45.0160 C   0  0  0  0  0  0  0  0  0  0  0  0
   57.7523   27.6772   45.9730 H   0  0  0  0  0  0  0  0  0  0  0  0
   56.8276   27.5175   44.4413 H   0  0  0  0  0  0  0  0  0  0  0  0
   58.4330   28.3233   44.4413 H   0  0  0  0  0  0  0  0  0  0  0  0
   57.5550   31.3640   44.1010 N   0  0  0  0  0  0  0  0  0  0  0  0
   57.1880   31.0680   42.8700 N   0  0  0  0  0  0  0  0  0  0  0  0
   57.5620   32.1350   42.1290 C   0  0  0  0  0  0  0  0  0  0  0  0
   57.2880   32.2530   40.6680 C   0  0  0  0  0  0  0  0  0  0  0  0
   56.2874   32.6839   40.5162 H   0  0  0  0  0  0  0  0  0  0  0  0
   58.0425   32.9060   40.2050 H   0  0  0  0  0  0  0  0  0  0  0  0
   57.3320   31.2562   40.2050 H   0  0  0  0  0  0  0  0  0  0  0  0
   58.1440   33.1180   42.8600 N   0  0  0  0  0  0  0  0  0  0  0  0
   58.1210   32.5780   44.0940 C   0  0  0  0  0  0  0  0  0  0  0  0
   61.7640   31.3010   47.9190 C   0  0  0  0  0  0  0  0  0  0  0  0
   61.0570   30.2470   47.1050 C   0  0  0  0  0  0  0  0  0  0  0  0
   60.5732   29.5257   47.7800 H   0  0  0  0  0  0  0  0  0  0  0  0
   60.2951   30.7235   46.4706 H   0  0  0  0  0  0  0  0  0  0  0  0
   61.7869   29.7228   46.4706 H   0  0  0  0  0  0  0  0  0  0  0  0
   63.0660   31.6600   47.5370 C   0  0  0  0  0  0  0  0  0  0  0  0
   63.5405   31.1558   46.6822 H   0  0  0  0  0  0  0  0  0  0  0  0
  1  2  1  0
  2  3  2  0
  3  4  1  0
  3  5  1  0
  5  6  1  0
  6  7  1  0
  6  8  1  0
  6  9  1  0
  5 10  2  0
 10 11  1  0
 11 12  1  0
 11 13  1  0
 11 14  1  0
 14 15  1  0
 15 16  2  0
 16 17  1  0
 16 18  1  0
 18 19  1  0
 18 20  2  0
 20 21  1  0
 20 22  1  0
 22 23  2  0
 23 24  1  0
 24 25  1  0
 25 26  2  0
 26 27  1  0
 27 28  1  0
 27 29  1  0
 27 30  1  0
 25 31  1  0
 31 32  1  0
 32 33  2  0
 33 34  1  0
 34 35  1  0
 34 36  1  0
 34 37  1  0
 33 38  1  0
 38 39  2  0
 10 40  1  0
 40 41  1  0
 41 42  1  0
 41 43  1  0
 41 44  1  0
 40 45  2  0
 45 46  1  0
 45  2  1  0
 23 15  1  0
 39 31  1  0
 39 22  1  0
M  CHG  1  24  -1
M  END
>  <UniqueID>  (51) 
44

>  <SMILES>  (51) 
C/N=c1/[n-]c2c(OCc3c(C)cccc3C)cccc2c2nc(C)nn12

>  <Energy>  (51) 
96.31335756386848

>  <Genealogy>  (51) 
CN=c1[n-]c2c(OCc3c(C)cccc3C)cccc2c2nc(C)nn12 (protonated)
C/N=c1/[n-]c2c(OCc3c(C)cccc3C)cccc2c2nc(C)nn12 (cis-trans isomerization)
C/N=c1/[n-]c2c(OCc3c(C)cccc3C)cccc2c2nc(C)nn12 (3D coordinates assigned)
C/N=c1/[n-]c2c(OCc3c(C)cccc3C)cccc2c2nc(C)nn12 (optimized conformer: 96.31335756386848 kcal/mol)

>  <smiles>  (51) 
CN=c1[nH]c2c(OCc3c(C)cccc3C)cccc2c2nc(C)nn12

>  <score_type>  (51) 
oracle

>  <origin>  (51) 
adg

>  <m_score__min__energy>  (51) 
-9.8900000000000006

>  <m_primary>  (51) 
energy

$$$$
51:0
     RDKit          3D

 33 35  0  0  0  0  0  0  0  0999 V2000
   57.6340   33.1360   47.0910 O   0  0  0  0  0  0  0  0  0  0  0  0
   58.2790   32.1890   46.5700 C   0  0  0  0  0  0  0  0  0  0  0  0
   57.7130   31.3080   45.5970 N   0  0  0  0  0  0  0  0  0  0  0  0
   58.6340   30.4320   45.3350 C   0  0  0  0  0  0  0  0  0  0  0  0
   58.4620   29.3330   44.3300 C   0  0  0  0  0  0  0  0  0  0  0  0
   57.9340   28.0820   44.9900 C   0  0  0  0  0  0  0  0  0  0  0  0
   58.8310   27.0350   45.2770 C   0  0  0  0  0  0  0  0  0  0  0  0
   58.3800   25.8560   45.8720 C   0  0  0  0  0  0  0  0  0  0  0  0
   57.0290   25.7000   46.1810 C   0  0  0  0  0  0  0  0  0  0  0  0
   56.1220   26.7220   45.8910 C   0  0  0  0  0  0  0  0  0  0  0  0
   54.7770   26.5510   46.1980 O   0  0  0  0  0  0  0  0  0  0  0  0
   56.5590   27.9130   45.2910 C   0  0  0  0  0  0  0  0  0  0  0  0
   55.6100   28.8970   45.0070 O   0  0  0  0  0  0  0  0  0  0  0  0
   59.8430   30.7100   46.1050 C   0  0  0  0  0  0  0  0  0  0  0  0
   60.9320   30.0840   46.0260 O   0  0  0  0  0  0  0  0  0  0  0  0
   59.6200   31.8530   46.9180 N   0  0  0  0  0  0  0  0  0  0  0  0
   60.5020   32.4830   47.8640 C   0  0  0  0  0  0  0  0  0  0  0  0
   59.9950   33.0270   49.0570 C   0  0  0  0  0  0  0  0  0  0  0  0
   60.8520   33.6410   49.9750 C   0  0  0  0  0  0  0  0  0  0  0  0
   62.2240   33.7150   49.7130 C   0  0  0  0  0  0  0  0  0  0  0  0
   63.2980   34.4840   50.8670 Cl  0  0  0  0  0  0  0  0  0  0  0  0
   62.7370   33.1760   48.5290 C   0  0  0  0  0  0  0  0  0  0  0  0
   61.8820   32.5640   47.6090 C   0  0  0  0  0  0  0  0  0  0  0  0
   57.7520   29.6598   43.5560 H   0  0  0  0  0  0  0  0  0  0  0  0
   59.4409   29.1089   43.8810 H   0  0  0  0  0  0  0  0  0  0  0  0
   59.8970   27.1475   45.0299 H   0  0  0  0  0  0  0  0  0  0  0  0
   59.0915   25.0481   46.0977 H   0  0  0  0  0  0  0  0  0  0  0  0
   56.6773   24.7711   46.6536 H   0  0  0  0  0  0  0  0  0  0  0  0
   54.7210   28.9680   45.4830 H   0  0  0  0  0  0  0  0  0  0  0  0
   58.9173   32.9692   49.2695 H   0  0  0  0  0  0  0  0  0  0  0  0
   60.4468   34.0666   50.9049 H   0  0  0  0  0  0  0  0  0  0  0  0
   63.8157   33.2340   48.3216 H   0  0  0  0  0  0  0  0  0  0  0  0
   62.2914   32.1428   46.6790 H   0  0  0  0  0  0  0  0  0  0  0  0
  1  2  2  0
  2  3  1  0
  3  4  2  0
  4  5  1  0
  5  6  1  0
  6  7  2  0
  7  8  1  0
  8  9  2  0
  9 10  1  0
 10 11  1  0
 10 12  2  0
 12 13  1  0
  4 14  1  0
 14 15  2  0
 14 16  1  0
 16 17  1  0
 17 18  2  0
 18 19  1  0
 19 20  2  0
 20 21  1  0
 20 22  1  0
 22 23  2  0
 16  2  1  0
 23 17  1  0
 12  6  1  0
  5 24  1  0
  5 25  1  0
  7 26  1  0
  8 27  1  0
  9 28  1  0
 13 29  1  0
 18 30  1  0
 19 31  1  0
 22 32  1  0
 23 33  1  0
M  CHG  1  11  -1
M  END
>  <UniqueID>  (52) 
45

>  <SMILES>  (52) 
O=C1N=C(Cc2cccc([O-])c2O)C(=O)N1c1ccc(Cl)cc1

>  <Energy>  (52) 
70.16710291008775

>  <Genealogy>  (52) 
O=C1N=C(Cc2cccc([O-])c2O)C(=O)N1c1ccc(Cl)cc1 (protonated)
O=C1N=C(Cc2cccc([O-])c2O)C(=O)N1c1ccc(Cl)cc1 (3D coordinates assigned)
O=C1N=C(Cc2cccc([O-])c2O)C(=O)N1c1ccc(Cl)cc1 (nonaromatic ring conformer: 70.16710291008775 kcal/mol)

>  <smiles>  (52) 
O=C1N=C(Cc2cccc(O)c2O)C(=O)N1c1ccc(Cl)cc1

>  <score_type>  (52) 
oracle

>  <origin>  (52) 
adg

>  <m_score__min__energy>  (52) 
-12.82

>  <m_primary>  (52) 
energy

$$$$
52:0
     RDKit          3D

 63 67  0  0  0  0  0  0  0  0999 V2000
   56.4970   22.1030   42.9380 C   0  0  0  0  0  0  0  0  0  0  0  0
   55.5560   23.2950   43.0610 C   0  0  0  0  0  0  0  0  0  0  0  0
   55.0640   23.4130   44.4300 N   0  0  0  0  0  0  0  0  0  0  0  0
   55.4730   24.4420   45.3410 C   0  0  0  0  0  0  0  0  0  0  0  0
   54.5990   25.1250   45.9460 O   0  0  0  0  0  0  0  0  0  0  0  0
   56.9110   24.6980   45.5790 C   0  0  0  0  0  0  0  0  0  0  0  0
   57.8560   23.6890   45.3630 C   0  0  0  0  0  0  0  0  0  0  0  0
   59.2120   23.9340   45.5920 C   0  0  0  0  0  0  0  0  0  0  0  0
   59.6380   25.1760   46.0590 C   0  0  0  0  0  0  0  0  0  0  0  0
   58.7070   26.1970   46.3080 C   0  0  0  0  0  0  0  0  0  0  0  0
   59.1690   27.5140   46.8130 C   0  0  0  0  0  0  0  0  0  0  0  0
   60.0840   28.2980   46.0870 C   0  0  0  0  0  0  0  0  0  0  0  0
   60.5060   29.5260   46.5980 C   0  0  0  0  0  0  0  0  0  0  0  0
   60.0240   29.9710   47.8370 C   0  0  0  0  0  0  0  0  0  0  0  0
   60.4210   31.1850   48.4270 C   0  0  0  0  0  0  0  0  0  0  0  0
   61.4260   32.0230   47.8270 N   0  0  0  0  0  0  0  0  0  0  0  0
   60.9680   33.1790   47.0320 C   0  0  0  0  0  0  0  0  0  0  0  0
   62.1130   33.9300   46.3480 C   0  0  0  0  0  0  0  0  0  0  0  0
   63.2900   33.8860   47.1180 O   0  0  0  0  0  0  0  0  0  0  0  0
   63.7690   32.5600   47.1400 C   0  0  0  0  0  0  0  0  0  0  0  0
   62.8480   31.6410   47.9630 C   0  0  1  0  0  0  0  0  0  0  0  0
   63.2680   31.6390   49.4430 C   0  0  0  0  0  0  0  0  0  0  0  0
   59.8370   31.5770   49.5910 N   0  0  0  0  0  0  0  0  0  0  0  0
   58.8960   30.8160   50.2170 C   0  0  0  0  0  0  0  0  0  0  0  0
   58.2610   31.2880   51.4230 N   0  0  0  0  0  0  0  0  0  0  0  0
   58.8350   32.4460   52.1200 C   0  0  0  0  0  0  0  0  0  0  0  0
   57.8630   33.0180   53.1400 C   0  0  0  0  0  0  0  0  0  0  0  0
   57.3620   31.9890   53.9630 O   0  0  0  0  0  0  0  0  0  0  0  0
   56.5330   31.1470   53.1960 C   0  0  0  0  0  0  0  0  0  0  0  0
   57.3470   30.3900   52.1380 C   0  0  0  0  0  0  0  0  0  0  0  0
   58.5330   29.6220   49.6760 N   0  0  0  0  0  0  0  0  0  0  0  0
   59.0740   29.1830   48.5140 C   0  0  0  0  0  0  0  0  0  0  0  0
   58.6800   27.9910   47.9930 N   0  0  0  0  0  0  0  0  0  0  0  0
   57.3470   25.9520   46.0390 C   0  0  0  0  0  0  0  0  0  0  0  0
   56.7753   21.7504   43.9421 H   0  0  0  0  0  0  0  0  0  0  0  0
   55.9926   21.2925   42.3915 H   0  0  0  0  0  0  0  0  0  0  0  0
   57.4025   22.4055   42.3915 H   0  0  0  0  0  0  0  0  0  0  0  0
   56.0966   24.2136   42.7893 H   0  0  0  0  0  0  0  0  0  0  0  0
   54.7009   23.1470   42.3851 H   0  0  0  0  0  0  0  0  0  0  0  0
   57.5298   22.6990   45.0115 H   0  0  0  0  0  0  0  0  0  0  0  0
   59.9495   23.1402   45.4022 H   0  0  0  0  0  0  0  0  0  0  0  0
   60.7089   25.3573   46.2334 H   0  0  0  0  0  0  0  0  0  0  0  0
   60.4661   27.9437   45.1183 H   0  0  0  0  0  0  0  0  0  0  0  0
   61.2161   30.1442   46.0292 H   0  0  0  0  0  0  0  0  0  0  0  0
   60.2743   32.8187   46.2581 H   0  0  0  0  0  0  0  0  0  0  0  0
   60.4832   33.8820   47.7254 H   0  0  0  0  0  0  0  0  0  0  0  0
   62.3088   33.4686   45.3688 H   0  0  0  0  0  0  0  0  0  0  0  0
   61.8152   34.9825   46.2318 H   0  0  0  0  0  0  0  0  0  0  0  0
   63.8219   32.1819   46.1084 H   0  0  0  0  0  0  0  0  0  0  0  0
   64.7643   32.5603   47.6085 H   0  0  0  0  0  0  0  0  0  0  0  0
   62.9559   30.6221   47.5628 H   0  0  0  0  0  0  0  0  0  0  0  0
   62.3704   31.6433   50.0789 H   0  0  0  0  0  0  0  0  0  0  0  0
   63.8627   30.7380   49.6542 H   0  0  0  0  0  0  0  0  0  0  0  0
   63.8712   32.5343   49.6542 H   0  0  0  0  0  0  0  0  0  0  0  0
   59.7537   32.1328   52.6376 H   0  0  0  0  0  0  0  0  0  0  0  0
   59.0529   33.2253   51.3748 H   0  0  0  0  0  0  0  0  0  0  0  0
   58.3841   33.7603   53.7624 H   0  0  0  0  0  0  0  0  0  0  0  0
   57.0252   33.4950   52.6103 H   0  0  0  0  0  0  0  0  0  0  0  0
   56.0439   30.4204   53.8615 H   0  0  0  0  0  0  0  0  0  0  0  0
   55.7821   31.7664   52.6837 H   0  0  0  0  0  0  0  0  0  0  0  0
   57.9337   29.6025   52.6336 H   0  0  0  0  0  0  0  0  0  0  0  0
   56.6478   29.9550   51.4088 H   0  0  0  0  0  0  0  0  0  0  0  0
   56.6126   26.7566   46.1917 H   0  0  0  0  0  0  0  0  0  0  0  0
  1  2  1  0
  2  3  1  0
  3  4  1  0
  4  5  2  0
  4  6  1  0
  6  7  2  0
  7  8  1  0
  8  9  2  0
  9 10  1  0
 10 11  1  0
 11 12  2  0
 12 13  1  0
 13 14  2  0
 14 15  1  0
 15 16  1  0
 16 17  1  0
 17 18  1  0
 18 19  1  0
 19 20  1  0
 20 21  1  0
 21 22  1  0
 15 23  2  0
 23 24  1  0
 24 25  1  0
 25 26  1  0
 26 27  1  0
 27 28  1  0
 28 29  1  0
 29 30  1  0
 24 31  2  0
 31 32  1  0
 32 33  2  0
 10 34  2  0
 34  6  1  0
 33 11  1  0
 32 14  1  0
 21 16  1  0
 30 25  1  0
  1 35  1  0
  1 36  1  0
  1 37  1  0
  2 38  1  0
  2 39  1  0
  7 40  1  0
  8 41  1  0
  9 42  1  0
 12 43  1  0
 13 44  1  0
 17 45  1  0
 17 46  1  0
 18 47  1  0
 18 48  1  0
 20 49  1  0
 20 50  1  0
 21 51  1  6
 22 52  1  0
 22 53  1  0
 22 54  1  0
 26 55  1  0
 26 56  1  0
 27 57  1  0
 27 58  1  0
 29 59  1  0
 29 60  1  0
 30 61  1  0
 30 62  1  0
 34 63  1  0
M  CHG  1   3  -1
M  END
>  <UniqueID>  (53) 
46

>  <SMILES>  (53) 
CC[N-]C(=O)c1cccc(-c2ccc3c(N4CCOC[C@H]4C)nc(N4CCOCC4)nc3n2)c1

>  <Energy>  (53) 
82.96083844141181

>  <Genealogy>  (53) 
CC[N-]C(=O)c1cccc(-c2ccc3c(N4CCOCC4C)nc(N4CCOCC4)nc3n2)c1 (protonated)
CC[N-]C(=O)c1cccc(-c2ccc3c(N4CCOC[C@H]4C)nc(N4CCOCC4)nc3n2)c1 (chirality)
CC[N-]C(=O)c1cccc(-c2ccc3c(N4CCOC[C@H]4C)nc(N4CCOCC4)nc3n2)c1 (3D coordinates assigned)
CC[N-]C(=O)c1cccc(-c2ccc3c(N4CCOC[C@H]4C)nc(N4CCOCC4)nc3n2)c1 (nonaromatic ring conformer: 82.96083844141181 kcal/mol)

>  <smiles>  (53) 
CCNC(=O)c1cccc(-c2ccc3c(N4CCOCC4C)nc(N4CCOCC4)nc3n2)c1

>  <score_type>  (53) 
oracle

>  <origin>  (53) 
adg

>  <m_score__min__energy>  (53) 
-11.32

>  <m_primary>  (53) 
energy

$$$$
53:0
     RDKit          3D

 71 73  0  0  0  0  0  0  0  0999 V2000
   59.6061   35.5412   44.7347 H   0  0  0  0  0  0  0  0  0  0  0  0
   59.3120   34.7300   45.4170 C   0  0  0  0  0  0  0  0  0  0  0  0
   58.1660   34.0830   45.1510 C   0  0  0  0  0  0  0  0  0  0  0  0
   57.2764   34.6936   44.9373 H   0  0  0  0  0  0  0  0  0  0  0  0
   58.0070   32.6110   45.1230 C   0  0  0  0  0  0  0  0  0  0  0  0
   58.1640   31.8560   46.2970 C   0  0  0  0  0  0  0  0  0  0  0  0
   58.3692   32.3659   47.2498 H   0  0  0  0  0  0  0  0  0  0  0  0
   58.0620   30.4660   46.2650 C   0  0  0  0  0  0  0  0  0  0  0  0
   58.1858   29.8885   47.1930 H   0  0  0  0  0  0  0  0  0  0  0  0
   57.8040   29.8010   45.0650 C   0  0  0  0  0  0  0  0  0  0  0  0
   57.7050   28.4020   45.0930 O   0  0  0  0  0  0  0  0  0  0  0  0
   58.1100   27.5810   46.1880 C   0  0  0  0  0  0  0  0  0  0  0  0
   57.6205   26.5990   46.1106 H   0  0  0  0  0  0  0  0  0  0  0  0
   57.8198   28.0619   47.1338 H   0  0  0  0  0  0  0  0  0  0  0  0
   59.6280   27.3980   46.1540 C   0  0  0  0  0  0  0  0  0  0  0  0
   60.0583   28.1199   45.4443 H   0  0  0  0  0  0  0  0  0  0  0  0
   59.8421   26.3647   45.8434 H   0  0  0  0  0  0  0  0  0  0  0  0
   60.2610   27.6240   47.5430 C   0  0  0  0  0  0  0  0  0  0  0  0
   61.1220   28.2980   47.4232 H   0  0  0  0  0  0  0  0  0  0  0  0
   60.5434   26.6318   47.9248 H   0  0  0  0  0  0  0  0  0  0  0  0
   59.2960   28.2480   48.5960 C   0  0  0  0  0  0  0  0  0  0  0  0
   59.0376   27.4565   49.3148 H   0  0  0  0  0  0  0  0  0  0  0  0
   58.4563   28.6424   48.0049 H   0  0  0  0  0  0  0  0  0  0  0  0
   59.7930   29.4280   49.3860 N   0  0  2  0  0  0  0  0  0  0  0  0
   59.8680   29.0670   50.8260 C   0  0  0  0  0  0  0  0  0  0  0  0
   59.6821   29.9616   51.4385 H   0  0  0  0  0  0  0  0  0  0  0  0
   59.1093   28.3034   51.0526 H   0  0  0  0  0  0  0  0  0  0  0  0
   60.8681   28.6688   51.0526 H   0  0  0  0  0  0  0  0  0  0  0  0
   58.7930   30.5450   49.2590 C   0  0  0  0  0  0  0  0  0  0  0  0
   59.1671   31.2521   48.5040 H   0  0  0  0  0  0  0  0  0  0  0  0
   57.8396   30.0706   48.9834 H   0  0  0  0  0  0  0  0  0  0  0  0
   58.5220   31.3240   50.5410 C   0  0  0  0  0  0  0  0  0  0  0  0
   57.3440   31.1050   51.2790 C   0  0  0  0  0  0  0  0  0  0  0  0
   56.6159   30.3552   50.9361 H   0  0  0  0  0  0  0  0  0  0  0  0
   57.0930   31.8340   52.4450 C   0  0  0  0  0  0  0  0  0  0  0  0
   56.1734   31.6490   53.0196 H   0  0  0  0  0  0  0  0  0  0  0  0
   58.0050   32.7960   52.8830 C   0  0  0  0  0  0  0  0  0  0  0  0
   57.8099   33.3594   53.8074 H   0  0  0  0  0  0  0  0  0  0  0  0
   59.1650   33.0420   52.1460 C   0  0  0  0  0  0  0  0  0  0  0  0
   59.8798   33.8061   52.4853 H   0  0  0  0  0  0  0  0  0  0  0  0
   59.4190   32.3180   50.9770 C   0  0  0  0  0  0  0  0  0  0  0  0
   60.3274   32.5268   50.3929 H   0  0  0  0  0  0  0  0  0  0  0  0
   61.1440   29.8470   48.8810 C   0  0  0  0  0  0  0  0  0  0  0  0
   61.7365   28.9371   48.7047 H   0  0  0  0  0  0  0  0  0  0  0  0
   61.5627   30.5076   49.6545 H   0  0  0  0  0  0  0  0  0  0  0  0
   61.1420   30.6710   47.5790 C   0  0  0  0  0  0  0  0  0  0  0  0
   61.1394   31.7434   47.8238 H   0  0  0  0  0  0  0  0  0  0  0  0
   62.0407   30.4311   46.9919 H   0  0  0  0  0  0  0  0  0  0  0  0
   60.2444   30.4267   46.9919 H   0  0  0  0  0  0  0  0  0  0  0  0
   57.6650   30.5470   43.8800 C   0  0  0  0  0  0  0  0  0  0  0  0
   57.4594   30.0298   42.9312 H   0  0  0  0  0  0  0  0  0  0  0  0
   57.7870   31.9530   43.8980 C   0  0  0  0  0  0  0  0  0  0  0  0
   57.6900   32.7190   42.7250 O   0  0  0  0  0  0  0  0  0  0  0  0
   57.6870   32.1840   41.4070 C   0  0  0  0  0  0  0  0  0  0  0  0
   57.6808   31.0852   41.4573 H   0  0  0  0  0  0  0  0  0  0  0  0
   56.7908   32.5316   40.8722 H   0  0  0  0  0  0  0  0  0  0  0  0
   58.5871   32.5215   40.8722 H   0  0  0  0  0  0  0  0  0  0  0  0
   60.2100   34.4380   46.5550 C   0  0  0  0  0  0  0  0  0  0  0  0
   59.7370   34.5960   47.8620 C   0  0  0  0  0  0  0  0  0  0  0  0
   58.7169   34.9680   48.0385 H   0  0  0  0  0  0  0  0  0  0  0  0
   60.5640   34.2800   48.9420 C   0  0  0  0  0  0  0  0  0  0  0  0
   60.1917   34.4053   49.9695 H   0  0  0  0  0  0  0  0  0  0  0  0
   61.8330   33.8160   48.7320 N   0  0  0  0  0  0  0  0  0  0  0  0
   62.6630   33.4410   49.8800 C   0  0  0  0  0  0  0  0  0  0  0  0
   62.1303   33.6817   50.8118 H   0  0  0  0  0  0  0  0  0  0  0  0
   62.8711   32.3614   49.8450 H   0  0  0  0  0  0  0  0  0  0  0  0
   63.6107   33.9984   49.8450 H   0  0  0  0  0  0  0  0  0  0  0  0
   62.2960   33.6110   47.4640 C   0  0  0  0  0  0  0  0  0  0  0  0
   63.3055   33.2016   47.3113 H   0  0  0  0  0  0  0  0  0  0  0  0
   61.4980   33.9170   46.3590 C   0  0  0  0  0  0  0  0  0  0  0  0
   61.8776   33.7503   45.3401 H   0  0  0  0  0  0  0  0  0  0  0  0
  1  2  1  0
  2  3  2  0
  3  4  1  0
  3  5  1  0
  5  6  2  0
  6  7  1  0
  6  8  1  0
  8  9  1  0
  8 10  2  0
 10 11  1  0
 11 12  1  0
 12 13  1  0
 12 14  1  0
 12 15  1  0
 15 16  1  0
 15 17  1  0
 15 18  1  0
 18 19  1  0
 18 20  1  0
 18 21  1  0
 21 22  1  0
 21 23  1  0
 24 21  1  6
 24 25  1  0
 25 26  1  0
 25 27  1  0
 25 28  1  0
 24 29  1  0
 29 30  1  0
 29 31  1  0
 29 32  1  0
 32 33  2  0
 33 34  1  0
 33 35  1  0
 35 36  1  0
 35 37  2  0
 37 38  1  0
 37 39  1  0
 39 40  1  0
 39 41  2  0
 41 42  1  0
 24 43  1  0
 43 44  1  0
 43 45  1  0
 43 46  1  0
 46 47  1  0
 46 48  1  0
 46 49  1  0
 10 50  1  0
 50 51  1  0
 50 52  2  0
 52 53  1  0
 53 54  1  0
 54 55  1  0
 54 56  1  0
 54 57  1  0
  2 58  1  0
 58 59  2  0
 59 60  1  0
 59 61  1  0
 61 62  1  0
 61 63  2  0
 63 64  1  0
 64 65  1  0
 64 66  1  0
 64 67  1  0
 63 68  1  0
 68 69  1  0
 68 70  2  0
 70 71  1  0
 52  5  1  0
 70 58  1  0
 41 32  1  0
M  CHG  2  24   1  63   1
M  END
>  <UniqueID>  (54) 
47

>  <SMILES>  (54) 
CC[N@+](C)(CCCCOc1ccc(/C=C\c2cc[n+](C)cc2)c(OC)c1)Cc1ccccc1

>  <Energy>  (54) 
97.37980737748782

>  <Genealogy>  (54) 
CC[N@+](C)(CCCCOc1ccc(C=Cc2cc[n+](C)cc2)c(OC)c1)Cc1ccccc1 (chirality)
CC[N@+](C)(CCCCOc1ccc(/C=C\c2cc[n+](C)cc2)c(OC)c1)Cc1ccccc1 (cis-trans isomerization)
CC[N@+](C)(CCCCOc1ccc(/C=C\c2cc[n+](C)cc2)c(OC)c1)Cc1ccccc1 (3D coordinates assigned)
CC[N@+](C)(CCCCOc1ccc(/C=C\c2cc[n+](C)cc2)c(OC)c1)Cc1ccccc1 (optimized conformer: 97.37980737748782 kcal/mol)

>  <smiles>  (54) 
CC[N+](C)(CCCCOc1ccc(C=Cc2cc[n+](C)cc2)c(OC)c1)Cc1ccccc1

>  <score_type>  (54) 
oracle

>  <origin>  (54) 
adg

>  <m_score__min__energy>  (54) 
-5.4400000000000004

>  <m_primary>  (54) 
energy

$$$$
54:0
     RDKit          3D

 44 46  0  0  0  0  0  0  0  0999 V2000
   58.9590   34.6350   47.5520 C   0  0  0  0  0  0  0  0  0  0  0  0
   59.3450   34.0180   46.2700 N   0  0  0  0  0  0  0  0  0  0  0  0
   58.5050   34.5430   45.1720 C   0  0  0  0  0  0  0  0  0  0  0  0
   57.3860   33.5530   44.8310 C   0  0  0  0  0  0  0  0  0  0  0  0
   57.6040   32.2850   45.5240 N   0  0  0  0  0  0  0  0  0  0  0  0
   57.5480   31.0280   44.8330 C   0  0  0  0  0  0  0  0  0  0  0  0
   56.7000   30.8970   43.7210 C   0  0  0  0  0  0  0  0  0  0  0  0
   56.6190   29.6910   43.0250 C   0  0  0  0  0  0  0  0  0  0  0  0
   57.3880   28.5980   43.4240 C   0  0  0  0  0  0  0  0  0  0  0  0
   58.2490   28.7020   44.5240 C   0  0  0  0  0  0  0  0  0  0  0  0
   59.0480   27.6120   44.9000 C   0  0  0  0  0  0  0  0  0  0  0  0
   59.9310   27.7240   45.9740 C   0  0  0  0  0  0  0  0  0  0  0  0
   60.0220   28.9210   46.6860 C   0  0  0  0  0  0  0  0  0  0  0  0
   60.8870   29.0260   47.7240 F   0  0  0  0  0  0  0  0  0  0  0  0
   59.2270   30.0140   46.3300 C   0  0  0  0  0  0  0  0  0  0  0  0
   58.3310   29.9230   45.2470 C   0  0  0  0  0  0  0  0  0  0  0  0
   60.7850   34.2240   46.0030 C   0  0  0  0  0  0  0  0  0  0  0  0
   61.6090   33.3870   46.9460 C   0  0  0  0  0  0  0  0  0  0  0  0
   63.0030   33.5370   46.9760 C   0  0  0  0  0  0  0  0  0  0  0  0
   63.7650   32.7190   47.8110 C   0  0  0  0  0  0  0  0  0  0  0  0
   63.1350   31.7610   48.6040 C   0  0  0  0  0  0  0  0  0  0  0  0
   61.7450   31.6420   48.5570 C   0  0  0  0  0  0  0  0  0  0  0  0
   61.0150   32.4490   47.7390 N   0  0  0  0  0  0  0  0  0  0  0  0
   59.3413   34.0239   48.3829 H   0  0  0  0  0  0  0  0  0  0  0  0
   59.3852   35.6471   47.6149 H   0  0  0  0  0  0  0  0  0  0  0  0
   57.8624   34.6944   47.6149 H   0  0  0  0  0  0  0  0  0  0  0  0
   58.0596   35.4996   45.4827 H   0  0  0  0  0  0  0  0  0  0  0  0
   59.1342   34.6888   44.2816 H   0  0  0  0  0  0  0  0  0  0  0  0
   56.4196   33.9758   45.1429 H   0  0  0  0  0  0  0  0  0  0  0  0
   57.3851   33.3729   43.7458 H   0  0  0  0  0  0  0  0  0  0  0  0
   57.9570   32.3110   46.5070 H   0  0  0  0  0  0  0  0  0  0  0  0
   56.0932   31.7548   43.3955 H   0  0  0  0  0  0  0  0  0  0  0  0
   55.9467   29.6017   42.1590 H   0  0  0  0  0  0  0  0  0  0  0  0
   57.3180   27.6492   42.8719 H   0  0  0  0  0  0  0  0  0  0  0  0
   58.9779   26.6647   44.3454 H   0  0  0  0  0  0  0  0  0  0  0  0
   60.5574   26.8664   46.2606 H   0  0  0  0  0  0  0  0  0  0  0  0
   59.3016   30.9520   46.8997 H   0  0  0  0  0  0  0  0  0  0  0  0
   61.0087   33.9317   44.9664 H   0  0  0  0  0  0  0  0  0  0  0  0
   61.0317   35.2854   46.1530 H   0  0  0  0  0  0  0  0  0  0  0  0
   63.4923   34.2942   46.3457 H   0  0  0  0  0  0  0  0  0  0  0  0
   64.8589   32.8297   47.8434 H   0  0  0  0  0  0  0  0  0  0  0  0
   63.7270   31.1058   49.2599 H   0  0  0  0  0  0  0  0  0  0  0  0
   61.2376   30.8934   49.1832 H   0  0  0  0  0  0  0  0  0  0  0  0
   59.9760   32.3350   47.7250 H   0  0  0  0  0  0  0  0  0  0  0  0
  1  2  1  0
  2  3  1  0
  3  4  1  0
  4  5  1  0
  5  6  1  0
  6  7  2  0
  7  8  1  0
  8  9  2  0
  9 10  1  0
 10 11  2  0
 11 12  1  0
 12 13  2  0
 13 14  1  0
 13 15  1  0
 15 16  2  0
  2 17  1  0
 17 18  1  0
 18 19  2  0
 19 20  1  0
 20 21  2  0
 21 22  1  0
 22 23  2  0
 16  6  1  0
 23 18  1  0
 16 10  1  0
  1 24  1  0
  1 25  1  0
  1 26  1  0
  3 27  1  0
  3 28  1  0
  4 29  1  0
  4 30  1  0
  5 31  1  0
  7 32  1  0
  8 33  1  0
  9 34  1  0
 11 35  1  0
 12 36  1  0
 15 37  1  0
 17 38  1  0
 17 39  1  0
 19 40  1  0
 20 41  1  0
 21 42  1  0
 22 43  1  0
 23 44  1  0
M  CHG  1  23   1
M  END
>  <UniqueID>  (55) 
48

>  <SMILES>  (55) 
CN(CCNc1cccc2ccc(F)cc12)Cc1cccc[nH+]1

>  <Energy>  (55) 
48.125948163428774

>  <Genealogy>  (55) 
CN(CCNc1cccc2ccc(F)cc12)Cc1cccc[nH+]1 (protonated)
CN(CCNc1cccc2ccc(F)cc12)Cc1cccc[nH+]1 (3D coordinates assigned)
CN(CCNc1cccc2ccc(F)cc12)Cc1cccc[nH+]1 (optimized conformer: 48.125948163428774 kcal/mol)

>  <smiles>  (55) 
CN(CCNc1cccc2ccc(F)cc12)Cc1ccccn1

>  <score_type>  (55) 
oracle

>  <origin>  (55) 
adg

>  <m_score__min__energy>  (55) 
-5.2999999999999998

>  <m_primary>  (55) 
energy

$$$$
55:0
     RDKit          3D

 39 41  0  0  0  0  0  0  0  0999 V2000
   58.4060   28.9230   48.9200 O   0  0  0  0  0  0  0  0  0  0  0  0
   59.1830   29.0470   47.9360 C   0  0  0  0  0  0  0  0  0  0  0  0
   59.8430   30.3640   47.6760 C   0  0  0  0  0  0  0  0  0  0  0  0
   58.8690   31.4020   47.5720 O   0  0  0  0  0  0  0  0  0  0  0  0
   59.0080   32.5830   46.8200 C   0  0  0  0  0  0  0  0  0  0  0  0
   59.5360   33.7630   47.3800 C   0  0  0  0  0  0  0  0  0  0  0  0
   59.6300   34.9290   46.6180 C   0  0  0  0  0  0  0  0  0  0  0  0
   59.2000   34.9360   45.2920 C   0  0  0  0  0  0  0  0  0  0  0  0
   58.6800   33.7730   44.7200 C   0  0  0  0  0  0  0  0  0  0  0  0
   58.5870   32.5880   45.4710 C   0  0  0  0  0  0  0  0  0  0  0  0
   58.0330   31.3670   44.8380 C   0  0  0  0  0  0  0  0  0  0  0  0
   56.6990   31.3340   44.3910 C   0  0  0  0  0  0  0  0  0  0  0  0
   56.1810   30.1770   43.8010 C   0  0  0  0  0  0  0  0  0  0  0  0
   56.9860   29.0450   43.6530 C   0  0  0  0  0  0  0  0  0  0  0  0
   58.3100   29.0650   44.0990 C   0  0  0  0  0  0  0  0  0  0  0  0
   58.8320   30.2190   44.6920 C   0  0  0  0  0  0  0  0  0  0  0  0
   59.4230   27.9510   47.0450 N   0  0  0  0  0  0  0  0  0  0  0  0
   58.4470   27.0350   46.5270 C   0  0  0  0  0  0  0  0  0  0  0  0
   58.8780   25.7800   46.0760 C   0  0  0  0  0  0  0  0  0  0  0  0
   57.9580   24.8510   45.5810 C   0  0  0  0  0  0  0  0  0  0  0  0
   56.5960   25.1640   45.5470 C   0  0  0  0  0  0  0  0  0  0  0  0
   56.1530   26.4030   46.0180 C   0  0  0  0  0  0  0  0  0  0  0  0
   54.7970   26.7050   46.0020 O   0  0  0  0  0  0  0  0  0  0  0  0
   57.0720   27.3360   46.5130 C   0  0  0  0  0  0  0  0  0  0  0  0
   60.5295   30.5941   48.5041 H   0  0  0  0  0  0  0  0  0  0  0  0
   60.3976   30.3018   46.7281 H   0  0  0  0  0  0  0  0  0  0  0  0
   59.8769   33.7656   48.4259 H   0  0  0  0  0  0  0  0  0  0  0  0
   60.0445   35.8446   47.0651 H   0  0  0  0  0  0  0  0  0  0  0  0
   59.2703   35.8579   44.6960 H   0  0  0  0  0  0  0  0  0  0  0  0
   58.3405   33.7841   43.6738 H   0  0  0  0  0  0  0  0  0  0  0  0
   56.0609   32.2225   44.5063 H   0  0  0  0  0  0  0  0  0  0  0  0
   55.1377   30.1581   43.4528 H   0  0  0  0  0  0  0  0  0  0  0  0
   56.5773   28.1373   43.1850 H   0  0  0  0  0  0  0  0  0  0  0  0
   58.9423   28.1723   43.9836 H   0  0  0  0  0  0  0  0  0  0  0  0
   59.8734   30.2288   45.0462 H   0  0  0  0  0  0  0  0  0  0  0  0
   59.9473   25.5242   46.1117 H   0  0  0  0  0  0  0  0  0  0  0  0
   58.3062   23.8728   45.2179 H   0  0  0  0  0  0  0  0  0  0  0  0
   55.8736   24.4357   45.1499 H   0  0  0  0  0  0  0  0  0  0  0  0
   56.7188   28.3064   46.8918 H   0  0  0  0  0  0  0  0  0  0  0  0
  1  2  2  0
  2  3  1  0
  3  4  1  0
  4  5  1  0
  5  6  2  0
  6  7  1  0
  7  8  2  0
  8  9  1  0
  9 10  2  0
 10 11  1  0
 11 12  2  0
 12 13  1  0
 13 14  2  0
 14 15  1  0
 15 16  2  0
  2 17  1  0
 17 18  1  0
 18 19  2  0
 19 20  1  0
 20 21  2  0
 21 22  1  0
 22 23  1  0
 22 24  2  0
 10  5  1  0
 16 11  1  0
 24 18  1  0
  3 25  1  0
  3 26  1  0
  6 27  1  0
  7 28  1  0
  8 29  1  0
  9 30  1  0
 12 31  1  0
 13 32  1  0
 14 33  1  0
 15 34  1  0
 16 35  1  0
 19 36  1  0
 20 37  1  0
 21 38  1  0
 24 39  1  0
M  CHG  2  17  -1  23  -1
M  END
>  <UniqueID>  (56) 
49

>  <SMILES>  (56) 
O=C(COc1ccccc1-c1ccccc1)[N-]c1cccc([O-])c1

>  <Energy>  (56) 
50.86226360501588

>  <Genealogy>  (56) 
O=C(COc1ccccc1-c1ccccc1)[N-]c1cccc([O-])c1 (protonated)
O=C(COc1ccccc1-c1ccccc1)[N-]c1cccc([O-])c1 (3D coordinates assigned)
O=C(COc1ccccc1-c1ccccc1)[N-]c1cccc([O-])c1 (optimized conformer: 50.86226360501588 kcal/mol)

>  <smiles>  (56) 
O=C(COc1ccccc1-c1ccccc1)Nc1cccc(O)c1

>  <score_type>  (56) 
oracle

>  <origin>  (56) 
adg

>  <m_score__min__energy>  (56) 
-12.99

>  <m_primary>  (56) 
energy

$$$$
56:0
     RDKit          3D

 41 43  0  0  0  0  0  0  0  0999 V2000
   54.7770   26.3450   45.9840 N   0  0  0  0  0  0  0  0  0  0  0  0
   56.1260   25.2800   46.1530 S   0  0  0  0  0  0  0  0  0  0  0  0
   56.0620   24.2180   45.0920 O   0  0  0  0  0  0  0  0  0  0  0  0
   56.0770   24.6180   47.5010 O   0  0  0  0  0  0  0  0  0  0  0  0
   57.6220   26.1950   45.9900 C   0  0  0  0  0  0  0  0  0  0  0  0
   58.7430   25.8550   46.7590 C   0  0  0  0  0  0  0  0  0  0  0  0
   59.9250   26.5870   46.6380 C   0  0  0  0  0  0  0  0  0  0  0  0
   59.9940   27.6660   45.7520 C   0  0  0  0  0  0  0  0  0  0  0  0
   58.8820   28.0240   44.9830 C   0  0  0  0  0  0  0  0  0  0  0  0
   59.0000   29.1170   44.1110 O   0  0  0  0  0  0  0  0  0  0  0  0
   58.0340   30.1570   43.9860 C   0  0  0  0  0  0  0  0  0  0  0  0
   57.9800   30.9330   45.2630 C   0  0  0  0  0  0  0  0  0  0  0  0
   57.0310   31.7400   45.4580 O   0  0  0  0  0  0  0  0  0  0  0  0
   58.9820   30.7220   46.2690 N   0  0  0  0  0  0  0  0  0  0  0  0
   59.1490   31.5530   47.4310 C   0  0  0  0  0  0  0  0  0  0  0  0
   59.5200   32.9040   47.2650 C   0  0  0  0  0  0  0  0  0  0  0  0
   59.6670   33.7450   48.3780 C   0  0  0  0  0  0  0  0  0  0  0  0
   59.4280   33.2250   49.6500 C   0  0  0  0  0  0  0  0  0  0  0  0
   59.0470   31.9190   49.8210 C   0  0  0  0  0  0  0  0  0  0  0  0
   58.8920   31.0620   48.7290 C   0  0  0  0  0  0  0  0  0  0  0  0
   58.8180   31.5860   51.2450 C   0  0  0  0  0  0  0  0  0  0  0  0
   59.1450   32.8950   51.9920 C   0  0  0  0  0  0  0  0  0  0  0  0
   59.5160   33.9530   50.9350 C   0  0  0  0  0  0  0  0  0  0  0  0
   57.6900   27.2820   45.1070 C   0  0  0  0  0  0  0  0  0  0  0  0
   55.1480   27.3200   46.0480 H   0  0  0  0  0  0  0  0  0  0  0  0
   58.6912   25.0088   47.4599 H   0  0  0  0  0  0  0  0  0  0  0  0
   60.8038   26.3144   47.2408 H   0  0  0  0  0  0  0  0  0  0  0  0
   60.9293   28.2374   45.6590 H   0  0  0  0  0  0  0  0  0  0  0  0
   58.3183   30.8261   43.1605 H   0  0  0  0  0  0  0  0  0  0  0  0
   57.0462   29.7210   43.7761 H   0  0  0  0  0  0  0  0  0  0  0  0
   59.5770   29.8660   46.1880 H   0  0  0  0  0  0  0  0  0  0  0  0
   59.6955   33.3012   46.2543 H   0  0  0  0  0  0  0  0  0  0  0  0
   59.9655   34.7960   48.2499 H   0  0  0  0  0  0  0  0  0  0  0  0
   58.5742   30.0196   48.8785 H   0  0  0  0  0  0  0  0  0  0  0  0
   57.7721   31.2903   51.4140 H   0  0  0  0  0  0  0  0  0  0  0  0
   59.4323   30.7395   51.5857 H   0  0  0  0  0  0  0  0  0  0  0  0
   58.2678   33.2290   52.5655 H   0  0  0  0  0  0  0  0  0  0  0  0
   59.9773   32.7418   52.6947 H   0  0  0  0  0  0  0  0  0  0  0  0
   58.8062   34.7931   50.9574 H   0  0  0  0  0  0  0  0  0  0  0  0
   60.5110   34.3897   51.1057 H   0  0  0  0  0  0  0  0  0  0  0  0
   56.8091   27.5570   44.5083 H   0  0  0  0  0  0  0  0  0  0  0  0
  1  2  1  0
  2  3  2  0
  2  4  2  0
  2  5  1  0
  5  6  2  0
  6  7  1  0
  7  8  2  0
  8  9  1  0
  9 10  1  0
 10 11  1  0
 11 12  1  0
 12 13  2  0
 12 14  1  0
 14 15  1  0
 15 16  2  0
 16 17  1  0
 17 18  2  0
 18 19  1  0
 19 20  2  0
 19 21  1  0
 21 22  1  0
 22 23  1  0
  9 24  2  0
 24  5  1  0
 20 15  1  0
 23 18  1  0
  1 25  1  0
  6 26  1  0
  7 27  1  0
  8 28  1  0
 11 29  1  0
 11 30  1  0
 14 31  1  0
 16 32  1  0
 17 33  1  0
 20 34  1  0
 21 35  1  0
 21 36  1  0
 22 37  1  0
 22 38  1  0
 23 39  1  0
 23 40  1  0
 24 41  1  0
M  CHG  1   1  -1
M  END
>  <UniqueID>  (57) 
50

>  <SMILES>  (57) 
[NH-]S(=O)(=O)c1cccc(OCC(=O)Nc2ccc3c(c2)CCC3)c1

>  <Energy>  (57) 
51.00736558117292

>  <Genealogy>  (57) 
[NH-]S(=O)(=O)c1cccc(OCC(=O)Nc2ccc3c(c2)CCC3)c1 (protonated)
[NH-]S(=O)(=O)c1cccc(OCC(=O)Nc2ccc3c(c2)CCC3)c1 (3D coordinates assigned)
[NH-]S(=O)(=O)c1cccc(OCC(=O)Nc2ccc3c(c2)CCC3)c1 (nonaromatic ring conformer: 51.00736558117292 kcal/mol)

>  <smiles>  (57) 
NS(=O)(=O)c1cccc(OCC(=O)Nc2ccc3c(c2)CCC3)c1

>  <score_type>  (57) 
oracle

>  <origin>  (57) 
adg

>  <m_score__min__energy>  (57) 
-11.59

>  <m_primary>  (57) 
energy

$$$$
57:0
     RDKit          3D

 70 73  0  0  0  0  0  0  0  0999 V2000
   56.6942   32.5038   43.9711 H   0  0  0  0  0  0  0  0  0  0  0  0
   57.0270   31.5130   44.3140 C   0  0  0  0  0  0  0  0  0  0  0  0
   56.6740   30.3690   43.5930 C   0  0  0  0  0  0  0  0  0  0  0  0
   56.0653   30.4608   42.6814 H   0  0  0  0  0  0  0  0  0  0  0  0
   57.0930   29.1080   44.0280 C   0  0  0  0  0  0  0  0  0  0  0  0
   56.8159   28.2104   43.4557 H   0  0  0  0  0  0  0  0  0  0  0  0
   57.8670   28.9840   45.1940 C   0  0  0  0  0  0  0  0  0  0  0  0
   58.3580   27.6300   45.6400 C   0  0  0  0  0  0  0  0  0  0  0  0
   59.2853   27.3895   45.0994 H   0  0  0  0  0  0  0  0  0  0  0  0
   57.5756   26.8884   45.4213 H   0  0  0  0  0  0  0  0  0  0  0  0
   58.6390   27.6060   47.1500 C   0  0  0  0  0  0  0  0  0  0  0  0
   58.4855   26.5838   47.5263 H   0  0  0  0  0  0  0  0  0  0  0  0
   57.9515   28.3104   47.6411 H   0  0  0  0  0  0  0  0  0  0  0  0
   60.0120   28.0210   47.4450 N   0  0  0  0  0  0  0  0  0  0  0  0
   60.4570   29.0310   48.1460 C   0  0  0  0  0  0  0  0  0  0  0  0
   60.2710   28.9880   49.4840 N   0  0  0  0  0  0  0  0  0  0  0  0
   60.7580   29.9260   50.3290 C   0  0  0  0  0  0  0  0  0  0  0  0
   60.3840   29.7960   51.7760 C   0  0  0  0  0  0  0  0  0  0  0  0
   61.2375   30.0927   52.4034 H   0  0  0  0  0  0  0  0  0  0  0  0
   59.5253   30.4484   51.9928 H   0  0  0  0  0  0  0  0  0  0  0  0
   60.1150   28.7517   51.9928 H   0  0  0  0  0  0  0  0  0  0  0  0
   61.5700   30.9720   49.8060 C   0  0  0  0  0  0  0  0  0  0  0  0
   62.2840   31.9030   50.6760 N   0  0  0  0  0  0  0  0  0  0  0  0
   62.0530   32.8910   50.4440 H   0  0  0  0  0  0  0  0  0  0  0  0
   61.9410   31.7390   51.6520 H   0  0  0  0  0  0  0  0  0  0  0  0
   63.7350   31.8220   50.6160 C   0  0  0  0  0  0  0  0  0  0  0  0
   64.4250   32.7320   49.7870 C   0  0  0  0  0  0  0  0  0  0  0  0
   63.8535   33.4516   49.1824 H   0  0  0  0  0  0  0  0  0  0  0  0
   65.8160   32.7360   49.7200 C   0  0  0  0  0  0  0  0  0  0  0  0
   66.3333   33.4654   49.0794 H   0  0  0  0  0  0  0  0  0  0  0  0
   66.5510   31.8190   50.4620 C   0  0  0  0  0  0  0  0  0  0  0  0
   67.6503   31.8435   50.4317 H   0  0  0  0  0  0  0  0  0  0  0  0
   65.8980   30.8690   51.2440 C   0  0  0  0  0  0  0  0  0  0  0  0
   66.4905   30.1416   51.8182 H   0  0  0  0  0  0  0  0  0  0  0  0
   64.4890   30.8240   51.3120 C   0  0  0  0  0  0  0  0  0  0  0  0
   63.8340   29.6960   52.0900 C   0  0  0  0  0  0  0  0  0  0  0  0
   63.1820   28.8060   51.2530 F   0  0  0  0  0  0  0  0  0  0  0  0
   64.7820   28.9840   52.7990 F   0  0  0  0  0  0  0  0  0  0  0  0
   62.8900   30.2100   52.9530 F   0  0  0  0  0  0  0  0  0  0  0  0
   61.5840   31.1480   48.4320 N   0  0  0  0  0  0  0  0  0  0  0  0
   62.0590   32.4130   47.8240 C   0  0  0  0  0  0  0  0  0  0  0  0
   63.1198   32.5542   48.0786 H   0  0  0  0  0  0  0  0  0  0  0  0
   61.9200   32.3425   46.7351 H   0  0  0  0  0  0  0  0  0  0  0  0
   61.2750   33.6020   48.3210 C   0  0  0  0  0  0  0  0  0  0  0  0
   61.8930   34.5070   48.9480 O   0  0  0  0  0  0  0  0  0  0  0  0
   59.8650   33.7750   48.0410 N   0  0  0  0  0  0  0  0  0  0  0  0
   59.4510   34.9480   47.2600 C   0  0  0  0  0  0  0  0  0  0  0  0
   59.1641   35.7609   47.9434 H   0  0  0  0  0  0  0  0  0  0  0  0
   60.2864   35.2797   46.6259 H   0  0  0  0  0  0  0  0  0  0  0  0
   58.5925   34.6819   46.6259 H   0  0  0  0  0  0  0  0  0  0  0  0
   58.8440   32.7820   48.4180 C   0  0  0  0  0  0  0  0  0  0  0  0
   57.8856   33.0563   47.9529 H   0  0  0  0  0  0  0  0  0  0  0  0
   59.1707   31.7915   48.0685 H   0  0  0  0  0  0  0  0  0  0  0  0
   58.6700   32.7320   49.9160 C   0  0  0  0  0  0  0  0  0  0  0  0
   57.7830   31.8080   50.4970 C   0  0  0  0  0  0  0  0  0  0  0  0
   57.2271   31.1068   49.8573 H   0  0  0  0  0  0  0  0  0  0  0  0
   57.6040   31.7760   51.8840 C   0  0  0  0  0  0  0  0  0  0  0  0
   56.9086   31.0505   52.3313 H   0  0  0  0  0  0  0  0  0  0  0  0
   58.3070   32.6640   52.7020 C   0  0  0  0  0  0  0  0  0  0  0  0
   58.1350   32.6280   54.0470 F   0  0  0  0  0  0  0  0  0  0  0  0
   59.1920   33.5830   52.1340 C   0  0  0  0  0  0  0  0  0  0  0  0
   59.7470   34.2808   52.7783 H   0  0  0  0  0  0  0  0  0  0  0  0
   59.3740   33.6180   50.7490 C   0  0  0  0  0  0  0  0  0  0  0  0
   60.0730   34.3439   50.3079 H   0  0  0  0  0  0  0  0  0  0  0  0
   61.0910   30.1670   47.5990 C   0  0  0  0  0  0  0  0  0  0  0  0
   61.1850   30.3080   46.3490 O   0  0  0  0  0  0  0  0  0  0  0  0
   58.2250   30.1390   45.9090 C   0  0  0  0  0  0  0  0  0  0  0  0
   58.8398   30.0526   46.8171 H   0  0  0  0  0  0  0  0  0  0  0  0
   57.8030   31.3980   45.4710 C   0  0  0  0  0  0  0  0  0  0  0  0
   58.0819   32.2988   46.0374 H   0  0  0  0  0  0  0  0  0  0  0  0
  1  2  1  0
  2  3  2  0
  3  4  1  0
  3  5  1  0
  5  6  1  0
  5  7  2  0
  7  8  1  0
  8  9  1  0
  8 10  1  0
  8 11  1  0
 11 12  1  0
 11 13  1  0
 11 14  1  0
 14 15  2  0
 15 16  1  0
 16 17  1  0
 17 18  1  0
 18 19  1  0
 18 20  1  0
 18 21  1  0
 17 22  2  0
 22 23  1  0
 23 24  1  0
 23 25  1  0
 23 26  1  0
 26 27  2  0
 27 28  1  0
 27 29  1  0
 29 30  1  0
 29 31  2  0
 31 32  1  0
 31 33  1  0
 33 34  1  0
 33 35  2  0
 35 36  1  0
 36 37  1  0
 36 38  1  0
 36 39  1  0
 22 40  1  0
 40 41  1  0
 41 42  1  0
 41 43  1  0
 41 44  1  0
 44 45  2  0
 44 46  1  0
 46 47  1  0
 47 48  1  0
 47 49  1  0
 47 50  1  0
 46 51  1  0
 51 52  1  0
 51 53  1  0
 51 54  1  0
 54 55  2  0
 55 56  1  0
 55 57  1  0
 57 58  1  0
 57 59  2  0
 59 60  1  0
 59 61  1  0
 61 62  1  0
 61 63  2  0
 63 64  1  0
 40 65  1  0
 65 66  2  0
  7 67  1  0
 67 68  1  0
 67 69  2  0
 69 70  1  0
 69  2  1  0
 65 15  1  0
 35 26  1  0
 63 54  1  0
M  CHG  2  16  -1  23   1
M  END
>  <UniqueID>  (58) 
51

>  <SMILES>  (58) 
Cc1[n-]/c(=N/CCc2ccccc2)c(=O)n(CC(=O)N(C)Cc2ccc(F)cc2)c1[NH2+]c1ccccc1C(F)(F)F

>  <Energy>  (58) 
97.39943545395131

>  <Genealogy>  (58) 
Cc1[n-]c(=NCCc2ccccc2)c(=O)n(CC(=O)N(C)Cc2ccc(F)cc2)c1[NH2+]c1ccccc1C(F)(F)F (protonated)
Cc1[n-]/c(=N/CCc2ccccc2)c(=O)n(CC(=O)N(C)Cc2ccc(F)cc2)c1[NH2+]c1ccccc1C(F)(F)F (cis-trans isomerization)
Cc1[n-]/c(=N/CCc2ccccc2)c(=O)n(CC(=O)N(C)Cc2ccc(F)cc2)c1[NH2+]c1ccccc1C(F)(F)F (3D coordinates assigned)
Cc1[n-]/c(=N/CCc2ccccc2)c(=O)n(CC(=O)N(C)Cc2ccc(F)cc2)c1[NH2+]c1ccccc1C(F)(F)F (optimized conformer: 97.39943545395131 kcal/mol)

>  <smiles>  (58) 
Cc1[nH]c(=NCCc2ccccc2)c(=O)n(CC(=O)N(C)Cc2ccc(F)cc2)c1Nc1ccccc1C(F)(F)F

>  <score_type>  (58) 
oracle

>  <origin>  (58) 
adg

>  <m_score__min__energy>  (58) 
-9.2699999999999996

>  <m_primary>  (58) 
energy

$$$$
58:0
     RDKit          3D

 44 46  0  0  0  0  0  0  0  0999 V2000
   62.2530   30.6160   50.0810 C   0  0  0  0  0  0  0  0  0  0  0  0
   62.1360   31.6700   49.0100 C   0  0  0  0  0  0  0  0  0  0  0  0
   63.2520   32.4610   48.7050 C   0  0  0  0  0  0  0  0  0  0  0  0
   63.1420   33.4570   47.7350 C   0  0  0  0  0  0  0  0  0  0  0  0
   64.1360   34.1760   47.4570 O   0  0  0  0  0  0  0  0  0  0  0  0
   61.9930   33.6540   47.1010 O   0  0  0  0  0  0  0  0  0  0  0  0
   60.8990   32.9350   47.3420 C   0  0  0  0  0  0  0  0  0  0  0  0
   59.7120   33.2100   46.6320 C   0  0  0  0  0  0  0  0  0  0  0  0
   59.6720   34.3420   45.6370 C   0  0  0  0  0  0  0  0  0  0  0  0
   58.5370   32.4860   46.9230 C   0  0  0  0  0  0  0  0  0  0  0  0
   57.3440   32.8380   46.2600 O   0  0  0  0  0  0  0  0  0  0  0  0
   57.0460   32.5660   44.8890 C   0  0  0  0  0  0  0  0  0  0  0  0
   56.9110   31.0940   44.6530 C   0  0  0  0  0  0  0  0  0  0  0  0
   55.7700   30.5890   44.4710 O   0  0  0  0  0  0  0  0  0  0  0  0
   58.0900   30.2860   44.5580 N   0  0  0  0  0  0  0  0  0  0  0  0
   58.3240   29.0670   45.2770 C   0  0  0  0  0  0  0  0  0  0  0  0
   59.5310   28.9130   45.9720 C   0  0  0  0  0  0  0  0  0  0  0  0
   59.7770   27.7520   46.7110 C   0  0  0  0  0  0  0  0  0  0  0  0
   58.8160   26.7400   46.7680 C   0  0  0  0  0  0  0  0  0  0  0  0
   57.5960   26.8890   46.0930 C   0  0  0  0  0  0  0  0  0  0  0  0
   56.3590   25.6390   46.2060 S   0  0  0  0  0  0  0  0  0  0  0  0
   54.7920   26.3320   45.9770 N   0  0  0  0  0  0  0  0  0  0  0  0
   56.4300   24.9920   47.5630 O   0  0  0  0  0  0  0  0  0  0  0  0
   56.5860   24.5990   45.1440 O   0  0  0  0  0  0  0  0  0  0  0  0
   57.3470   28.0570   45.3570 C   0  0  0  0  0  0  0  0  0  0  0  0
   58.5820   31.4460   47.8690 C   0  0  0  0  0  0  0  0  0  0  0  0
   59.7600   31.1610   48.5580 C   0  0  0  0  0  0  0  0  0  0  0  0
   60.9280   31.9040   48.3150 C   0  0  0  0  0  0  0  0  0  0  0  0
   62.2002   31.0920   51.0713 H   0  0  0  0  0  0  0  0  0  0  0  0
   61.4295   29.8943   49.9767 H   0  0  0  0  0  0  0  0  0  0  0  0
   63.2148   30.0924   49.9767 H   0  0  0  0  0  0  0  0  0  0  0  0
   64.2067   32.2976   49.2263 H   0  0  0  0  0  0  0  0  0  0  0  0
   59.6381   35.3013   46.1742 H   0  0  0  0  0  0  0  0  0  0  0  0
   60.5719   34.3070   45.0054 H   0  0  0  0  0  0  0  0  0  0  0  0
   58.7768   34.2436   45.0054 H   0  0  0  0  0  0  0  0  0  0  0  0
   56.1014   33.0618   44.6206 H   0  0  0  0  0  0  0  0  0  0  0  0
   57.8702   32.9471   44.2681 H   0  0  0  0  0  0  0  0  0  0  0  0
   60.2887   29.7096   45.9359 H   0  0  0  0  0  0  0  0  0  0  0  0
   60.7295   27.6353   47.2487 H   0  0  0  0  0  0  0  0  0  0  0  0
   59.0166   25.8243   47.3436 H   0  0  0  0  0  0  0  0  0  0  0  0
   54.6810   27.0790   46.6990 H   0  0  0  0  0  0  0  0  0  0  0  0
   56.3843   28.1840   44.8403 H   0  0  0  0  0  0  0  0  0  0  0  0
   57.6781   30.8513   48.0673 H   0  0  0  0  0  0  0  0  0  0  0  0
   59.7754   30.3475   49.2983 H   0  0  0  0  0  0  0  0  0  0  0  0
  1  2  1  0
  2  3  2  0
  3  4  1  0
  4  5  2  0
  4  6  1  0
  6  7  1  0
  7  8  2  0
  8  9  1  0
  8 10  1  0
 10 11  1  0
 11 12  1  0
 12 13  1  0
 13 14  2  0
 13 15  1  0
 15 16  1  0
 16 17  2  0
 17 18  1  0
 18 19  2  0
 19 20  1  0
 20 21  1  0
 21 22  1  0
 21 23  2  0
 21 24  2  0
 20 25  2  0
 10 26  2  0
 26 27  1  0
 27 28  2  0
 28  2  1  0
 28  7  1  0
 25 16  1  0
  1 29  1  0
  1 30  1  0
  1 31  1  0
  3 32  1  0
  9 33  1  0
  9 34  1  0
  9 35  1  0
 12 36  1  0
 12 37  1  0
 17 38  1  0
 18 39  1  0
 19 40  1  0
 22 41  1  0
 25 42  1  0
 26 43  1  0
 27 44  1  0
M  CHG  2  15  -1  22  -1
M  END
>  <UniqueID>  (59) 
52

>  <SMILES>  (59) 
Cc1cc(=O)oc2c(C)c(OCC(=O)[N-]c3cccc(S([NH-])(=O)=O)c3)ccc12

>  <Energy>  (59) 
54.53438698975337

>  <Genealogy>  (59) 
Cc1cc(=O)oc2c(C)c(OCC(=O)[N-]c3cccc(S([NH-])(=O)=O)c3)ccc12 (protonated)
Cc1cc(=O)oc2c(C)c(OCC(=O)[N-]c3cccc(S([NH-])(=O)=O)c3)ccc12 (3D coordinates assigned)
Cc1cc(=O)oc2c(C)c(OCC(=O)[N-]c3cccc(S([NH-])(=O)=O)c3)ccc12 (optimized conformer: 54.53438698975337 kcal/mol)

>  <smiles>  (59) 
Cc1cc(=O)oc2c(C)c(OCC(=O)Nc3cccc(S(N)(=O)=O)c3)ccc12

>  <score_type>  (59) 
oracle

>  <origin>  (59) 
adg

>  <m_score__min__energy>  (59) 
-12.75

>  <m_primary>  (59) 
energy

$$$$
59:0
     RDKit          3D

 38 39  0  0  0  0  0  0  0  0999 V2000
   55.5170   29.5820   45.2300 O   0  0  0  0  0  0  0  0  0  0  0  0
   55.9700   29.4220   43.9130 C   0  0  0  0  0  0  0  0  0  0  0  0
   56.6420   30.7020   43.4140 C   0  0  0  0  0  0  0  0  0  0  0  0
   56.6830   31.7050   44.4880 N   0  0  0  0  0  0  0  0  0  0  0  0
   57.7340   32.7020   44.2460 C   0  0  0  0  0  0  0  0  0  0  0  0
   58.3450   33.1560   45.5490 C   0  0  0  0  0  0  0  0  0  0  0  0
   58.6990   34.5040   45.7220 C   0  0  0  0  0  0  0  0  0  0  0  0
   59.2570   34.9390   46.9250 C   0  0  0  0  0  0  0  0  0  0  0  0
   59.4620   34.0350   47.9670 C   0  0  0  0  0  0  0  0  0  0  0  0
   59.1110   32.6930   47.8110 C   0  0  0  0  0  0  0  0  0  0  0  0
   58.5500   32.2380   46.6000 C   0  0  0  0  0  0  0  0  0  0  0  0
   58.1820   30.8950   46.4060 O   0  0  0  0  0  0  0  0  0  0  0  0
   58.8700   29.7620   46.9360 C   0  0  0  0  0  0  0  0  0  0  0  0
   58.4980   28.5110   46.1830 C   0  0  0  0  0  0  0  0  0  0  0  0
   58.8730   28.3610   44.8390 C   0  0  0  0  0  0  0  0  0  0  0  0
   58.5230   27.2060   44.1330 C   0  0  0  0  0  0  0  0  0  0  0  0
   57.7870   26.1960   44.7630 C   0  0  0  0  0  0  0  0  0  0  0  0
   57.3100   24.6180   43.7980 Br  0  0  0  0  0  0  0  0  0  0  0  0
   57.3990   26.3450   46.0980 C   0  0  0  0  0  0  0  0  0  0  0  0
   57.7480   27.4990   46.8050 C   0  0  0  0  0  0  0  0  0  0  0  0
   56.2220   30.0880   45.7140 H   0  0  0  0  0  0  0  0  0  0  0  0
   56.6956   28.5960   43.8784 H   0  0  0  0  0  0  0  0  0  0  0  0
   55.1081   29.1997   43.2668 H   0  0  0  0  0  0  0  0  0  0  0  0
   57.6684   30.4720   43.0921 H   0  0  0  0  0  0  0  0  0  0  0  0
   56.0649   31.1045   42.5684 H   0  0  0  0  0  0  0  0  0  0  0  0
   56.9200   31.2080   45.3780 H   0  0  0  0  0  0  0  0  0  0  0  0
   58.5172   32.2560   43.6154 H   0  0  0  0  0  0  0  0  0  0  0  0
   57.2885   33.5717   43.7409 H   0  0  0  0  0  0  0  0  0  0  0  0
   58.5355   35.2214   44.9043 H   0  0  0  0  0  0  0  0  0  0  0  0
   59.5353   35.9957   47.0514 H   0  0  0  0  0  0  0  0  0  0  0  0
   59.9015   34.3805   48.9144 H   0  0  0  0  0  0  0  0  0  0  0  0
   59.2731   31.9860   48.6380 H   0  0  0  0  0  0  0  0  0  0  0  0
   59.9544   29.9257   46.8503 H   0  0  0  0  0  0  0  0  0  0  0  0
   58.5843   29.6372   47.9909 H   0  0  0  0  0  0  0  0  0  0  0  0
   59.4451   29.1561   44.3385 H   0  0  0  0  0  0  0  0  0  0  0  0
   58.8263   27.0911   43.0819 H   0  0  0  0  0  0  0  0  0  0  0  0
   56.8181   25.5526   46.5927 H   0  0  0  0  0  0  0  0  0  0  0  0
   57.4341   27.6153   47.8528 H   0  0  0  0  0  0  0  0  0  0  0  0
  1  2  1  0
  2  3  1  0
  3  4  1  0
  4  5  1  0
  5  6  1  0
  6  7  2  0
  7  8  1  0
  8  9  2  0
  9 10  1  0
 10 11  2  0
 11 12  1  0
 12 13  1  0
 13 14  1  0
 14 15  2  0
 15 16  1  0
 16 17  2  0
 17 18  1  0
 17 19  1  0
 19 20  2  0
 11  6  1  0
 20 14  1  0
  1 21  1  0
  2 22  1  0
  2 23  1  0
  3 24  1  0
  3 25  1  0
  4 26  1  0
  5 27  1  0
  5 28  1  0
  7 29  1  0
  8 30  1  0
  9 31  1  0
 10 32  1  0
 13 33  1  0
 13 34  1  0
 15 35  1  0
 16 36  1  0
 19 37  1  0
 20 38  1  0
M  END
>  <UniqueID>  (60) 
53

>  <SMILES>  (60) 
OCCNCc1ccccc1OCc1ccc(Br)cc1

>  <Energy>  (60) 
34.08896907704877

>  <Genealogy>  (60) 
OCCNCc1ccccc1OCc1ccc(Br)cc1 (3D coordinates assigned)
OCCNCc1ccccc1OCc1ccc(Br)cc1 (optimized conformer: 34.08896907704877 kcal/mol)

>  <smiles>  (60) 
OCCNCc1ccccc1OCc1ccc(Br)cc1

>  <score_type>  (60) 
oracle

>  <origin>  (60) 
adg

>  <m_score__min__energy>  (60) 
-7.2599999999999998

>  <m_primary>  (60) 
energy

$$$$
60:0
     RDKit          3D

 45 47  0  0  0  0  0  0  0  0999 V2000
   63.7060   33.8130   46.7500 C   0  0  0  0  0  0  0  0  0  0  0  0
   63.4350   33.0640   47.9300 O   0  0  0  0  0  0  0  0  0  0  0  0
   62.2990   32.2620   48.1160 C   0  0  0  0  0  0  0  0  0  0  0  0
   61.9980   31.3000   47.1430 C   0  0  0  0  0  0  0  0  0  0  0  0
   60.8780   30.4770   47.2830 C   0  0  0  0  0  0  0  0  0  0  0  0
   60.0380   30.6070   48.3980 C   0  0  0  0  0  0  0  0  0  0  0  0
   58.8630   29.6830   48.5610 C   0  0  0  0  0  0  0  0  0  0  0  0
   58.1080   29.6370   47.3520 O   0  0  0  0  0  0  0  0  0  0  0  0
   58.3050   28.6770   46.3500 C   0  0  0  0  0  0  0  0  0  0  0  0
   59.2860   27.7400   46.4880 N   0  0  0  0  0  0  0  0  0  0  0  0
   59.5300   26.8010   45.5390 C   0  0  0  0  0  0  0  0  0  0  0  0
   58.7690   26.7750   44.3740 C   0  0  0  0  0  0  0  0  0  0  0  0
   57.7580   27.7190   44.1970 C   0  0  0  0  0  0  0  0  0  0  0  0
   57.5030   28.6840   45.1870 C   0  0  0  0  0  0  0  0  0  0  0  0
   56.4440   29.7000   44.9690 C   0  0  0  0  0  0  0  0  0  0  0  0
   55.2350   29.3420   44.9090 O   0  0  0  0  0  0  0  0  0  0  0  0
   56.7800   31.0850   44.8300 N   0  0  0  0  0  0  0  0  0  0  0  0
   58.1080   31.5600   44.4600 C   0  0  0  0  0  0  0  0  0  0  0  0
   58.4540   32.7780   45.2710 C   0  0  0  0  0  0  0  0  0  0  0  0
   58.4360   32.7130   46.6750 C   0  0  0  0  0  0  0  0  0  0  0  0
   58.8110   33.8250   47.4360 C   0  0  0  0  0  0  0  0  0  0  0  0
   59.2120   35.0040   46.8020 C   0  0  0  0  0  0  0  0  0  0  0  0
   59.2380   35.0740   45.4060 C   0  0  0  0  0  0  0  0  0  0  0  0
   59.6320   36.2180   44.7930 F   0  0  0  0  0  0  0  0  0  0  0  0
   58.8650   33.9640   44.6410 C   0  0  0  0  0  0  0  0  0  0  0  0
   60.3380   31.5650   49.3780 C   0  0  0  0  0  0  0  0  0  0  0  0
   61.4580   32.3900   49.2380 C   0  0  0  0  0  0  0  0  0  0  0  0
   64.0683   34.8142   47.0263 H   0  0  0  0  0  0  0  0  0  0  0  0
   64.4741   33.2962   46.1560 H   0  0  0  0  0  0  0  0  0  0  0  0
   62.7850   33.9073   46.1560 H   0  0  0  0  0  0  0  0  0  0  0  0
   62.6483   31.1920   46.2624 H   0  0  0  0  0  0  0  0  0  0  0  0
   60.6539   29.7228   46.5143 H   0  0  0  0  0  0  0  0  0  0  0  0
   59.2247   28.6728   48.8034 H   0  0  0  0  0  0  0  0  0  0  0  0
   58.2214   30.0542   49.3738 H   0  0  0  0  0  0  0  0  0  0  0  0
   60.3292   26.0605   45.6906 H   0  0  0  0  0  0  0  0  0  0  0  0
   58.9631   26.0173   43.6005 H   0  0  0  0  0  0  0  0  0  0  0  0
   57.1559   27.7085   43.2765 H   0  0  0  0  0  0  0  0  0  0  0  0
   58.8469   30.7688   44.6549 H   0  0  0  0  0  0  0  0  0  0  0  0
   58.1178   31.8189   43.3910 H   0  0  0  0  0  0  0  0  0  0  0  0
   58.1260   31.7846   47.1769 H   0  0  0  0  0  0  0  0  0  0  0  0
   58.7903   33.7714   48.5345 H   0  0  0  0  0  0  0  0  0  0  0  0
   59.5074   35.8775   47.4017 H   0  0  0  0  0  0  0  0  0  0  0  0
   58.8937   34.0201   43.5428 H   0  0  0  0  0  0  0  0  0  0  0  0
   59.6892   31.6675   50.2604 H   0  0  0  0  0  0  0  0  0  0  0  0
   61.6832   33.1426   50.0080 H   0  0  0  0  0  0  0  0  0  0  0  0
  1  2  1  0
  2  3  1  0
  3  4  2  0
  4  5  1  0
  5  6  2  0
  6  7  1  0
  7  8  1  0
  8  9  1  0
  9 10  2  0
 10 11  1  0
 11 12  2  0
 12 13  1  0
 13 14  2  0
 14 15  1  0
 15 16  2  0
 15 17  1  0
 17 18  1  0
 18 19  1  0
 19 20  2  0
 20 21  1  0
 21 22  2  0
 22 23  1  0
 23 24  1  0
 23 25  2  0
  6 26  1  0
 26 27  2  0
 27  3  1  0
 14  9  1  0
 25 19  1  0
  1 28  1  0
  1 29  1  0
  1 30  1  0
  4 31  1  0
  5 32  1  0
  7 33  1  0
  7 34  1  0
 11 35  1  0
 12 36  1  0
 13 37  1  0
 18 38  1  0
 18 39  1  0
 20 40  1  0
 21 41  1  0
 22 42  1  0
 25 43  1  0
 26 44  1  0
 27 45  1  0
M  CHG  1  17  -1
M  END
>  <UniqueID>  (61) 
54

>  <SMILES>  (61) 
COc1ccc(COc2ncccc2C(=O)[N-]Cc2cccc(F)c2)cc1

>  <Energy>  (61) 
44.42648447307441

>  <Genealogy>  (61) 
COc1ccc(COc2ncccc2C(=O)[N-]Cc2cccc(F)c2)cc1 (protonated)
COc1ccc(COc2ncccc2C(=O)[N-]Cc2cccc(F)c2)cc1 (3D coordinates assigned)
COc1ccc(COc2ncccc2C(=O)[N-]Cc2cccc(F)c2)cc1 (optimized conformer: 44.42648447307441 kcal/mol)

>  <smiles>  (61) 
COc1ccc(COc2ncccc2C(=O)NCc2cccc(F)c2)cc1

>  <score_type>  (61) 
oracle

>  <origin>  (61) 
adg

>  <m_score__min__energy>  (61) 
-10.16

>  <m_primary>  (61) 
energy

$$$$
61:0
     RDKit          3D

 48 51  0  0  0  0  0  0  0  0999 V2000
   60.6790   33.8290   50.9950 C   0  0  0  0  0  0  0  0  0  0  0  0
   61.3240   34.0790   49.7510 O   0  0  0  0  0  0  0  0  0  0  0  0
   60.6890   34.0380   48.4980 C   0  0  0  0  0  0  0  0  0  0  0  0
   59.2900   34.1380   48.3800 C   0  0  0  0  0  0  0  0  0  0  0  0
   58.6770   34.0840   47.1290 C   0  0  0  0  0  0  0  0  0  0  0  0
   59.4480   33.9220   45.9720 C   0  0  0  0  0  0  0  0  0  0  0  0
   58.7850   33.8150   44.6260 C   0  0  0  0  0  0  0  0  0  0  0  0
   58.1750   32.4580   44.4610 C   0  0  0  0  0  0  0  0  0  0  0  0
   57.7840   31.7290   45.4580 N   0  0  0  0  0  0  0  0  0  0  0  0
   57.1800   30.5730   44.8740 C   0  0  0  0  0  0  0  0  0  0  0  0
   56.6400   29.6640   45.5570 O   0  0  0  0  0  0  0  0  0  0  0  0
   57.2160   30.5690   43.4490 N   0  0  0  0  0  0  0  0  0  0  0  0
   56.2720   29.8870   42.5750 C   0  0  0  0  0  0  0  0  0  0  0  0
   57.8190   31.8280   43.1960 C   0  0  0  0  0  0  0  0  0  0  0  0
   57.9740   32.3250   42.0480 O   0  0  0  0  0  0  0  0  0  0  0  0
   60.8400   33.8060   46.0820 C   0  0  0  0  0  0  0  0  0  0  0  0
   61.4750   33.8900   47.3320 C   0  0  0  0  0  0  0  0  0  0  0  0
   62.9990   33.8420   47.4210 C   0  0  0  0  0  0  0  0  0  0  0  0
   63.5580   32.5400   47.8760 N   0  0  2  0  0  0  0  0  0  0  0  0
   62.5890   31.4630   47.8510 C   0  0  0  0  0  0  0  0  0  0  0  0
   62.1830   30.9590   46.7700 O   0  0  0  0  0  0  0  0  0  0  0  0
   62.1390   30.9770   49.1620 C   0  0  0  0  0  0  0  0  0  0  0  0
   61.1000   30.0810   49.4270 C   0  0  0  0  0  0  0  0  0  0  0  0
   60.8140   29.7580   50.7650 C   0  0  0  0  0  0  0  0  0  0  0  0
   61.5690   30.3270   51.8090 C   0  0  0  0  0  0  0  0  0  0  0  0
   62.6130   31.2200   51.5220 C   0  0  0  0  0  0  0  0  0  0  0  0
   62.8710   31.5250   50.1870 C   0  0  0  0  0  0  0  0  0  0  0  0
   64.0920   32.5670   49.5440 S   0  0  0  0  0  0  0  0  0  0  0  0
   65.4520   31.9400   49.6730 O   0  0  0  0  0  0  0  0  0  0  0  0
   64.0800   33.9350   50.1630 O   0  0  0  0  0  0  0  0  0  0  0  0
   61.3580   34.0922   51.8195 H   0  0  0  0  0  0  0  0  0  0  0  0
   59.7657   34.4383   51.0634 H   0  0  0  0  0  0  0  0  0  0  0  0
   60.4149   32.7634   51.0634 H   0  0  0  0  0  0  0  0  0  0  0  0
   58.6744   34.2599   49.2835 H   0  0  0  0  0  0  0  0  0  0  0  0
   57.5831   34.1690   47.0509 H   0  0  0  0  0  0  0  0  0  0  0  0
   57.9986   34.5799   44.5457 H   0  0  0  0  0  0  0  0  0  0  0  0
   59.5384   33.9698   43.8396 H   0  0  0  0  0  0  0  0  0  0  0  0
   55.5297   29.3507   43.1844 H   0  0  0  0  0  0  0  0  0  0  0  0
   55.7606   30.6256   41.9402 H   0  0  0  0  0  0  0  0  0  0  0  0
   56.8125   29.1695   41.9402 H   0  0  0  0  0  0  0  0  0  0  0  0
   61.4441   33.6469   45.1766 H   0  0  0  0  0  0  0  0  0  0  0  0
   63.4069   34.0591   46.4228 H   0  0  0  0  0  0  0  0  0  0  0  0
   63.2879   34.5844   48.1795 H   0  0  0  0  0  0  0  0  0  0  0  0
   64.3730   32.2790   47.2750 H   0  0  0  0  0  0  0  0  0  0  0  0
   60.5179   29.6376   48.6057 H   0  0  0  0  0  0  0  0  0  0  0  0
   59.9976   29.0584   50.9974 H   0  0  0  0  0  0  0  0  0  0  0  0
   61.3394   30.0704   52.8537 H   0  0  0  0  0  0  0  0  0  0  0  0
   63.2116   31.6672   52.3293 H   0  0  0  0  0  0  0  0  0  0  0  0
  1  2  1  0
  2  3  1  0
  3  4  2  0
  4  5  1  0
  5  6  2  0
  6  7  1  0
  7  8  1  0
  8  9  2  0
  9 10  1  0
 10 11  2  0
 10 12  1  0
 12 13  1  0
 12 14  1  0
 14 15  2  0
  6 16  1  0
 16 17  2  0
 17 18  1  0
 18 19  1  0
 19 20  1  0
 20 21  2  0
 20 22  1  0
 22 23  2  0
 23 24  1  0
 24 25  2  0
 25 26  1  0
 26 27  2  0
 27 28  1  0
 28 29  2  0
 28 30  2  0
 17  3  1  0
 28 19  1  0
 14  8  1  0
 27 22  1  0
  1 31  1  0
  1 32  1  0
  1 33  1  0
  4 34  1  0
  5 35  1  0
  7 36  1  0
  7 37  1  0
 13 38  1  0
 13 39  1  0
 13 40  1  0
 16 41  1  0
 18 42  1  0
 18 43  1  0
 19 44  1  6
 23 45  1  0
 24 46  1  0
 25 47  1  0
 26 48  1  0
M  CHG  1  19   1
M  END
>  <UniqueID>  (62) 
55

>  <SMILES>  (62) 
COc1ccc(CC2=NC(=O)N(C)C2=O)cc1C[N@@H+]1C(=O)c2ccccc2S1(=O)=O

>  <Energy>  (62) 
98.45368510420835

>  <Genealogy>  (62) 
COc1ccc(CC2=NC(=O)N(C)C2=O)cc1C[NH+]1C(=O)c2ccccc2S1(=O)=O (protonated)
COc1ccc(CC2=NC(=O)N(C)C2=O)cc1C[N@@H+]1C(=O)c2ccccc2S1(=O)=O (chirality)
COc1ccc(CC2=NC(=O)N(C)C2=O)cc1C[N@@H+]1C(=O)c2ccccc2S1(=O)=O (3D coordinates assigned)
COc1ccc(CC2=NC(=O)N(C)C2=O)cc1C[N@@H+]1C(=O)c2ccccc2S1(=O)=O (nonaromatic ring conformer: 98.45368510420835 kcal/mol)

>  <smiles>  (62) 
COc1ccc(CC2=NC(=O)N(C)C2=O)cc1CN1C(=O)c2ccccc2S1(=O)=O

>  <score_type>  (62) 
oracle

>  <origin>  (62) 
adg

>  <m_score__min__energy>  (62) 
-8

>  <m_primary>  (62) 
energy

$$$$
62:0
     RDKit          3D

 47 49  0  0  0  0  0  0  0  0999 V2000
   53.9400   25.1300   45.6140 C   0  0  0  0  0  0  0  0  0  0  0  0
   54.8570   26.2070   45.9660 N   0  0  0  0  0  0  0  0  0  0  0  0
   56.2860   26.0920   45.9900 C   0  0  0  0  0  0  0  0  0  0  0  0
   56.7980   24.9810   46.2890 O   0  0  0  0  0  0  0  0  0  0  0  0
   57.1740   27.2420   45.7220 C   0  0  0  0  0  0  0  0  0  0  0  0
   58.5700   27.1000   45.7710 C   0  0  0  0  0  0  0  0  0  0  0  0
   59.3970   28.2000   45.5300 C   0  0  0  0  0  0  0  0  0  0  0  0
   58.8390   29.4480   45.2410 C   0  0  0  0  0  0  0  0  0  0  0  0
   57.4430   29.6030   45.1860 C   0  0  0  0  0  0  0  0  0  0  0  0
   56.8360   30.8740   44.9080 N   0  0  0  0  0  0  0  0  0  0  0  0
   57.4770   31.9980   44.2880 C   0  0  0  0  0  0  0  0  0  0  0  0
   57.4170   32.1110   43.0350 O   0  0  0  0  0  0  0  0  0  0  0  0
   58.2440   32.9950   45.0720 C   0  0  0  0  0  0  0  0  0  0  0  0
   58.5810   34.2430   44.5170 C   0  0  0  0  0  0  0  0  0  0  0  0
   59.2990   35.1800   45.2660 C   0  0  0  0  0  0  0  0  0  0  0  0
   59.6810   34.8870   46.5760 C   0  0  0  0  0  0  0  0  0  0  0  0
   59.3450   33.6520   47.1470 C   0  0  0  0  0  0  0  0  0  0  0  0
   59.7980   33.3000   48.8110 S   0  0  0  0  0  0  0  0  0  0  0  0
   59.9420   34.5920   49.5670 O   0  0  0  0  0  0  0  0  0  0  0  0
   58.6960   32.5010   49.4550 O   0  0  0  0  0  0  0  0  0  0  0  0
   61.3030   32.3980   48.7810 N   0  0  0  0  0  0  0  0  0  0  0  0
   62.3150   32.9300   49.7150 C   0  0  0  0  0  0  0  0  0  0  0  0
   63.0250   34.1580   49.1300 C   0  0  0  0  0  0  0  0  0  0  0  0
   63.6430   33.8230   47.9070 O   0  0  0  0  0  0  0  0  0  0  0  0
   62.6510   33.4770   46.9580 C   0  0  0  0  0  0  0  0  0  0  0  0
   61.8390   32.2450   47.4130 C   0  0  0  0  0  0  0  0  0  0  0  0
   58.6190   32.7140   46.3990 C   0  0  0  0  0  0  0  0  0  0  0  0
   56.6180   28.5030   45.4560 C   0  0  0  0  0  0  0  0  0  0  0  0
   53.5470   24.6684   46.5319 H   0  0  0  0  0  0  0  0  0  0  0  0
   53.1067   25.5367   45.0223 H   0  0  0  0  0  0  0  0  0  0  0  0
   54.4744   24.3722   45.0223 H   0  0  0  0  0  0  0  0  0  0  0  0
   59.0139   26.1199   45.9998 H   0  0  0  0  0  0  0  0  0  0  0  0
   60.4901   28.0833   45.5679 H   0  0  0  0  0  0  0  0  0  0  0  0
   59.4943   30.3119   45.0559 H   0  0  0  0  0  0  0  0  0  0  0  0
   58.2777   34.4831   43.4873 H   0  0  0  0  0  0  0  0  0  0  0  0
   59.5636   36.1508   44.8216 H   0  0  0  0  0  0  0  0  0  0  0  0
   60.2468   35.6267   47.1614 H   0  0  0  0  0  0  0  0  0  0  0  0
   61.8196   33.2166   50.6544 H   0  0  0  0  0  0  0  0  0  0  0  0
   63.0670   32.1474   49.8937 H   0  0  0  0  0  0  0  0  0  0  0  0
   62.2886   34.9570   48.9588 H   0  0  0  0  0  0  0  0  0  0  0  0
   63.7923   34.5023   49.8390 H   0  0  0  0  0  0  0  0  0  0  0  0
   61.9668   34.3286   46.8293 H   0  0  0  0  0  0  0  0  0  0  0  0
   63.1511   33.2302   46.0098 H   0  0  0  0  0  0  0  0  0  0  0  0
   60.9985   32.0997   46.7184 H   0  0  0  0  0  0  0  0  0  0  0  0
   62.5162   31.3782   47.4130 H   0  0  0  0  0  0  0  0  0  0  0  0
   58.3406   31.7514   46.8528 H   0  0  0  0  0  0  0  0  0  0  0  0
   55.5252   28.6288   45.4595 H   0  0  0  0  0  0  0  0  0  0  0  0
  1  2  1  0
  2  3  1  0
  3  4  2  0
  3  5  1  0
  5  6  2  0
  6  7  1  0
  7  8  2  0
  8  9  1  0
  9 10  1  0
 10 11  1  0
 11 12  2  0
 11 13  1  0
 13 14  2  0
 14 15  1  0
 15 16  2  0
 16 17  1  0
 17 18  1  0
 18 19  2  0
 18 20  2  0
 18 21  1  0
 21 22  1  0
 22 23  1  0
 23 24  1  0
 24 25  1  0
 25 26  1  0
 17 27  2  0
  9 28  2  0
 28  5  1  0
 27 13  1  0
 26 21  1  0
  1 29  1  0
  1 30  1  0
  1 31  1  0
  6 32  1  0
  7 33  1  0
  8 34  1  0
 14 35  1  0
 15 36  1  0
 16 37  1  0
 22 38  1  0
 22 39  1  0
 23 40  1  0
 23 41  1  0
 25 42  1  0
 25 43  1  0
 26 44  1  0
 26 45  1  0
 27 46  1  0
 28 47  1  0
M  CHG  2   2  -1  10  -1
M  END
>  <UniqueID>  (63) 
56

>  <SMILES>  (63) 
C[N-]C(=O)c1cccc([N-]C(=O)c2cccc(S(=O)(=O)N3CCOCC3)c2)c1

>  <Energy>  (63) 
64.77117970841381

>  <Genealogy>  (63) 
C[N-]C(=O)c1cccc([N-]C(=O)c2cccc(S(=O)(=O)N3CCOCC3)c2)c1 (protonated)
C[N-]C(=O)c1cccc([N-]C(=O)c2cccc(S(=O)(=O)N3CCOCC3)c2)c1 (3D coordinates assigned)
C[N-]C(=O)c1cccc([N-]C(=O)c2cccc(S(=O)(=O)N3CCOCC3)c2)c1 (nonaromatic ring conformer: 64.77117970841381 kcal/mol)

>  <smiles>  (63) 
CNC(=O)c1cccc(NC(=O)c2cccc(S(=O)(=O)N3CCOCC3)c2)c1

>  <score_type>  (63) 
oracle

>  <origin>  (63) 
adg

>  <m_score__min__energy>  (63) 
-12.94

>  <m_primary>  (63) 
energy

$$$$
63:0
     RDKit          3D

 58 62  0  0  0  0  0  0  0  0999 V2000
   51.0210   32.3530   50.5260 O   0  0  0  0  0  0  0  0  0  0  0  0
   51.5490   31.2630   50.8730 C   0  0  0  0  0  0  0  0  0  0  0  0
   51.7310   30.2630   49.9280 O   0  0  0  0  0  0  0  0  0  0  0  0
   52.0370   31.0540   52.2800 C   0  0  1  0  0  0  0  0  0  0  0  0
   51.1870   30.0600   52.9730 N   0  0  0  0  0  0  0  0  0  0  0  0
   51.5170   28.6640   52.6190 C   0  0  0  0  0  0  0  0  0  0  0  0
   52.9510   28.2960   53.0300 C   0  0  0  0  0  0  0  0  0  0  0  0
   53.8930   29.3710   52.6010 C   0  0  0  0  0  0  0  0  0  0  0  0
   55.5660   29.2760   52.5230 S   0  0  0  0  0  0  0  0  0  0  0  0
   55.8020   30.8910   52.0910 C   0  0  0  0  0  0  0  0  0  0  0  0
   57.1150   31.4990   51.8020 C   0  0  0  0  0  0  0  0  0  0  0  0
   57.1790   32.7430   51.6100 O   0  0  0  0  0  0  0  0  0  0  0  0
   58.3160   30.7080   51.7470 N   0  0  0  0  0  0  0  0  0  0  0  0
   58.8740   30.1230   52.9660 C   0  0  0  0  0  0  0  0  0  0  0  0
   60.1460   30.8780   53.3440 C   0  0  0  0  0  0  0  0  0  0  0  0
   61.0730   31.0270   52.1610 C   0  0  0  0  0  0  0  0  0  0  0  0
   62.4280   31.3040   52.3870 C   0  0  0  0  0  0  0  0  0  0  0  0
   63.3030   31.4940   51.3160 C   0  0  0  0  0  0  0  0  0  0  0  0
   62.8330   31.4160   49.9920 C   0  0  0  0  0  0  0  0  0  0  0  0
   63.6690   31.5900   48.8770 O   0  0  0  0  0  0  0  0  0  0  0  0
   63.2680   32.1270   47.6160 C   0  0  0  0  0  0  0  0  0  0  0  0
   62.8290   33.5860   47.7660 C   0  0  0  0  0  0  0  0  0  0  0  0
   61.3830   33.7460   47.3830 C   0  0  0  0  0  0  0  0  0  0  0  0
   61.0170   33.8550   46.0300 C   0  0  0  0  0  0  0  0  0  0  0  0
   59.6770   34.0350   45.6770 C   0  0  0  0  0  0  0  0  0  0  0  0
   58.6940   34.1180   46.6680 C   0  0  0  0  0  0  0  0  0  0  0  0
   57.3950   34.2920   46.3230 F   0  0  0  0  0  0  0  0  0  0  0  0
   59.0530   34.0250   48.0170 C   0  0  0  0  0  0  0  0  0  0  0  0
   60.3920   33.8440   48.3750 C   0  0  0  0  0  0  0  0  0  0  0  0
   61.4760   31.1610   49.7640 C   0  0  0  0  0  0  0  0  0  0  0  0
   60.5850   30.9780   50.8330 C   0  0  0  0  0  0  0  0  0  0  0  0
   59.1390   30.6600   50.5320 C   0  0  0  0  0  0  0  0  0  0  0  0
   54.5610   31.5200   52.0030 C   0  0  0  0  0  0  0  0  0  0  0  0
   53.4950   30.6640   52.3120 C   0  0  0  0  0  0  0  0  0  0  0  0
   51.9560   32.0095   52.8190 H   0  0  0  0  0  0  0  0  0  0  0  0
   51.3120   30.1750   54.0070 H   0  0  0  0  0  0  0  0  0  0  0  0
   50.8152   27.9907   53.1330 H   0  0  0  0  0  0  0  0  0  0  0  0
   51.4363   28.5595   51.5270 H   0  0  0  0  0  0  0  0  0  0  0  0
   52.9997   28.1830   54.1231 H   0  0  0  0  0  0  0  0  0  0  0  0
   53.2355   27.3502   52.5458 H   0  0  0  0  0  0  0  0  0  0  0  0
   58.1412   30.2036   53.7824 H   0  0  0  0  0  0  0  0  0  0  0  0
   59.1092   29.0622   52.7946 H   0  0  0  0  0  0  0  0  0  0  0  0
   59.8723   31.8779   53.7119 H   0  0  0  0  0  0  0  0  0  0  0  0
   60.6696   30.3042   54.1228 H   0  0  0  0  0  0  0  0  0  0  0  0
   62.8056   31.3724   53.4179 H   0  0  0  0  0  0  0  0  0  0  0  0
   64.3652   31.7057   51.5081 H   0  0  0  0  0  0  0  0  0  0  0  0
   64.1143   32.0745   46.9152 H   0  0  0  0  0  0  0  0  0  0  0  0
   62.4202   31.5393   47.2340 H   0  0  0  0  0  0  0  0  0  0  0  0
   62.9624   33.8979   48.8124 H   0  0  0  0  0  0  0  0  0  0  0  0
   63.4432   34.2112   47.1012 H   0  0  0  0  0  0  0  0  0  0  0  0
   61.7876   33.7984   45.2471 H   0  0  0  0  0  0  0  0  0  0  0  0
   59.3947   34.1116   44.6166 H   0  0  0  0  0  0  0  0  0  0  0  0
   58.2805   34.0944   48.7970 H   0  0  0  0  0  0  0  0  0  0  0  0
   60.6712   33.7780   49.4369 H   0  0  0  0  0  0  0  0  0  0  0  0
   61.1019   31.1031   48.7312 H   0  0  0  0  0  0  0  0  0  0  0  0
   58.7538   31.3946   49.8095 H   0  0  0  0  0  0  0  0  0  0  0  0
   59.0871   29.6420   50.1186 H   0  0  0  0  0  0  0  0  0  0  0  0
   54.4321   32.5754   51.7211 H   0  0  0  0  0  0  0  0  0  0  0  0
  1  2  2  0
  2  3  1  0
  2  4  1  0
  4  5  1  0
  5  6  1  0
  6  7  1  0
  7  8  1  0
  8  9  1  0
  9 10  1  0
 10 11  1  0
 11 12  2  0
 11 13  1  0
 13 14  1  0
 14 15  1  0
 15 16  1  0
 16 17  2  0
 17 18  1  0
 18 19  2  0
 19 20  1  0
 20 21  1  0
 21 22  1  0
 22 23  1  0
 23 24  2  0
 24 25  1  0
 25 26  2  0
 26 27  1  0
 26 28  1  0
 28 29  2  0
 19 30  1  0
 30 31  2  0
 31 32  1  0
 10 33  2  0
 33 34  1  0
 34  4  1  0
 34  8  2  0
 32 13  1  0
 31 16  1  0
 29 23  1  0
  4 35  1  1
  5 36  1  0
  6 37  1  0
  6 38  1  0
  7 39  1  0
  7 40  1  0
 14 41  1  0
 14 42  1  0
 15 43  1  0
 15 44  1  0
 17 45  1  0
 18 46  1  0
 21 47  1  0
 21 48  1  0
 22 49  1  0
 22 50  1  0
 24 51  1  0
 25 52  1  0
 28 53  1  0
 29 54  1  0
 30 55  1  0
 32 56  1  0
 32 57  1  0
 33 58  1  0
M  CHG  1   3  -1
M  END
>  <UniqueID>  (64) 
57

>  <SMILES>  (64) 
O=C([O-])[C@H]1NCCc2sc(C(=O)N3CCc4ccc(OCCc5ccc(F)cc5)cc4C3)cc21

>  <Energy>  (64) 
94.90675998224584

>  <Genealogy>  (64) 
O=C([O-])C1NCCc2sc(C(=O)N3CCc4ccc(OCCc5ccc(F)cc5)cc4C3)cc21 (protonated)
O=C([O-])[C@H]1NCCc2sc(C(=O)N3CCc4ccc(OCCc5ccc(F)cc5)cc4C3)cc21 (chirality)
O=C([O-])[C@H]1NCCc2sc(C(=O)N3CCc4ccc(OCCc5ccc(F)cc5)cc4C3)cc21 (3D coordinates assigned)
O=C([O-])[C@H]1NCCc2sc(C(=O)N3CCc4ccc(OCCc5ccc(F)cc5)cc4C3)cc21 (nonaromatic ring conformer: 94.90675998224584 kcal/mol)

>  <smiles>  (64) 
O=C(O)C1NCCc2sc(C(=O)N3CCc4ccc(OCCc5ccc(F)cc5)cc4C3)cc21

>  <score_type>  (64) 
oracle

>  <origin>  (64) 
adg

>  <m_score__min__energy>  (64) 
-12.359999999999999

>  <m_primary>  (64) 
energy

$$$$
64:0
     RDKit          3D

 35 37  0  0  0  0  0  0  0  0999 V2000
   57.7920   27.4180   43.7520 C   0  0  0  0  0  0  0  0  0  0  0  0
   57.4490   28.3160   45.2500 S   0  0  0  0  0  0  0  0  0  0  0  0
   58.4260   29.4510   45.3910 O   0  0  0  0  0  0  0  0  0  0  0  0
   57.6110   27.3850   46.4190 O   0  0  0  0  0  0  0  0  0  0  0  0
   55.8150   28.9160   45.2330 N   0  0  0  0  0  0  0  0  0  0  0  0
   55.5330   29.6460   43.9970 C   0  0  0  0  0  0  0  0  0  0  0  0
   56.4330   30.8360   43.8770 C   0  0  0  0  0  0  0  0  0  0  0  0
   57.0760   31.2500   42.7280 C   0  0  0  0  0  0  0  0  0  0  0  0
   57.7800   32.3820   43.0810 C   0  0  0  0  0  0  0  0  0  0  0  0
   57.5160   32.5840   44.4240 C   0  0  0  0  0  0  0  0  0  0  0  0
   58.0440   33.6730   45.2530 C   0  0  0  0  0  0  0  0  0  0  0  0
   58.6030   34.6600   44.7040 O   0  0  0  0  0  0  0  0  0  0  0  0
   57.9130   33.5860   46.6810 N   0  0  0  0  0  0  0  0  0  0  0  0
   58.4630   32.7180   47.4790 C   0  0  0  0  0  0  0  0  0  0  0  0
   58.5780   31.4090   47.1440 N   0  0  0  0  0  0  0  0  0  0  0  0
   59.1840   30.6900   48.1260 C   0  0  0  0  0  0  0  0  0  0  0  0
   59.4410   29.3180   48.0670 C   0  0  0  0  0  0  0  0  0  0  0  0
   60.0760   28.7020   49.1600 C   0  0  0  0  0  0  0  0  0  0  0  0
   60.4140   26.9820   49.1160 Cl  0  0  0  0  0  0  0  0  0  0  0  0
   60.4450   29.4610   50.2900 C   0  0  0  0  0  0  0  0  0  0  0  0
   60.1820   30.8390   50.3380 C   0  0  0  0  0  0  0  0  0  0  0  0
   59.5520   31.4250   49.2430 C   0  0  0  0  0  0  0  0  0  0  0  0
   59.1140   33.0320   49.0190 S   0  0  0  0  0  0  0  0  0  0  0  0
   56.7100   31.6500   44.8700 O   0  0  0  0  0  0  0  0  0  0  0  0
   58.1741   26.4176   44.0035 H   0  0  0  0  0  0  0  0  0  0  0  0
   56.8679   27.3202   43.1634 H   0  0  0  0  0  0  0  0  0  0  0  0
   58.5460   27.9612   43.1634 H   0  0  0  0  0  0  0  0  0  0  0  0
   55.6965   28.9797   43.1372 H   0  0  0  0  0  0  0  0  0  0  0  0
   54.4881   29.9893   44.0158 H   0  0  0  0  0  0  0  0  0  0  0  0
   57.0353   30.7754   41.7365 H   0  0  0  0  0  0  0  0  0  0  0  0
   58.4189   32.9968   42.4299 H   0  0  0  0  0  0  0  0  0  0  0  0
   58.2420   31.0040   46.2420 H   0  0  0  0  0  0  0  0  0  0  0  0
   59.1522   28.7310   47.1827 H   0  0  0  0  0  0  0  0  0  0  0  0
   60.9422   28.9698   51.1394 H   0  0  0  0  0  0  0  0  0  0  0  0
   60.4654   31.4388   51.2154 H   0  0  0  0  0  0  0  0  0  0  0  0
  1  2  1  0
  2  3  2  0
  2  4  2  0
  2  5  1  0
  5  6  1  0
  6  7  1  0
  7  8  2  0
  8  9  1  0
  9 10  2  0
 10 11  1  0
 11 12  2  0
 11 13  1  0
 13 14  2  3
 14 15  1  0
 15 16  1  0
 16 17  2  0
 17 18  1  0
 18 19  1  0
 18 20  2  0
 20 21  1  0
 21 22  2  0
 22 23  1  0
 10 24  1  0
 24  7  1  0
 23 14  1  0
 22 16  1  0
  1 25  1  0
  1 26  1  0
  1 27  1  0
  6 28  1  0
  6 29  1  0
  8 30  1  0
  9 31  1  0
 15 32  1  0
 17 33  1  0
 20 34  1  0
 21 35  1  0
M  CHG  1   5  -1
M  END
>  <UniqueID>  (65) 
58

>  <SMILES>  (65) 
CS(=O)(=O)[N-]Cc1ccc(C(=O)N=c2[nH]c3cc(Cl)ccc3s2)o1

>  <Energy>  (65) 
93.97807690582887

>  <Genealogy>  (65) 
CS(=O)(=O)[N-]Cc1ccc(C(=O)N=c2[nH]c3cc(Cl)ccc3s2)o1 (protonated)
CS(=O)(=O)[N-]Cc1ccc(C(=O)N=c2[nH]c3cc(Cl)ccc3s2)o1 (3D coordinates assigned)
CS(=O)(=O)[N-]Cc1ccc(C(=O)N=c2[nH]c3cc(Cl)ccc3s2)o1 (optimized conformer: 93.97807690582887 kcal/mol)

>  <smiles>  (65) 
CS(=O)(=O)NCc1ccc(C(=O)N=c2[nH]c3cc(Cl)ccc3s2)o1

>  <score_type>  (65) 
oracle

>  <origin>  (65) 
adg

>  <m_score__min__energy>  (65) 
-10.66

>  <m_primary>  (65) 
energy

$$$$
65:0
     RDKit          3D

 55 58  0  0  1  0  0  0  0  0999 V2000
   55.9310   30.5340   44.8500 O   0  0  0  0  0  0  0  0  0  0  0  0
   57.1230   30.7740   44.4710 C   0  0  0  0  0  0  0  0  0  0  0  0
   57.8190   29.8600   43.6670 N   0  0  0  0  0  0  0  0  0  0  0  0
   57.2870   28.5960   43.1960 C   0  0  0  0  0  0  0  0  0  0  0  0
   58.3750   27.5540   43.3710 C   0  0  0  0  0  0  0  0  0  0  0  0
   57.7890   26.2410   43.6590 N   0  0  0  0  0  0  0  0  0  0  0  0
   57.6750   25.8360   44.8580 C   0  0  0  0  0  0  0  0  0  0  0  0
   56.7850   24.8770   45.2770 C   0  0  0  0  0  0  0  0  0  0  0  0
   56.7650   24.5330   46.5960 C   0  0  0  0  0  0  0  0  0  0  0  0
   57.5800   25.0950   47.5070 N   0  0  0  0  0  0  0  0  0  0  0  0
   58.4410   26.0270   47.0930 C   0  0  0  0  0  0  0  0  0  0  0  0
   59.2480   26.6090   47.8900 N   0  0  0  0  0  0  0  0  0  0  0  0
   59.4580   28.0010   47.8280 C   0  0  0  0  0  0  0  0  0  0  0  0
   60.2860   28.5100   46.8240 C   0  0  0  0  0  0  0  0  0  0  0  0
   60.5230   29.8770   46.7210 C   0  0  0  0  0  0  0  0  0  0  0  0
   59.9450   30.7640   47.6110 C   0  0  0  0  0  0  0  0  0  0  0  0
   60.2110   32.1330   47.4730 O   0  0  0  0  0  0  0  0  0  0  0  0
   61.5240   32.5760   47.5690 C   0  0  0  0  0  0  0  0  0  0  0  0
   62.3030   32.0750   48.6010 C   0  0  0  0  0  0  0  0  0  0  0  0
   63.6300   32.4670   48.7690 C   0  0  0  0  0  0  0  0  0  0  0  0
   64.1580   33.3870   47.8610 C   0  0  0  0  0  0  0  0  0  0  0  0
   63.3640   33.8870   46.8230 C   0  0  0  0  0  0  0  0  0  0  0  0
   62.0470   33.4720   46.6910 C   0  0  0  0  0  0  0  0  0  0  0  0
   59.1240   30.2760   48.6110 C   0  0  0  0  0  0  0  0  0  0  0  0
   58.9090   28.9140   48.6850 C   0  0  0  0  0  0  0  0  0  0  0  0
   58.4850   26.3890   45.7860 N   0  0  0  0  0  0  0  0  0  0  0  0
   57.6810   32.0440   44.9360 C   0  0  0  0  0  0  0  0  0  0  0  0
   58.4760   32.7770   44.0770 C   0  0  0  0  0  0  0  0  0  0  0  0
   59.0310   33.9980   44.4820 C   0  0  0  0  0  0  0  0  0  0  0  0
   58.7950   34.5000   45.7560 C   0  0  0  0  0  0  0  0  0  0  0  0
   59.3350   35.6900   46.1500 F   0  0  0  0  0  0  0  0  0  0  0  0
   57.9950   33.7590   46.6130 C   0  0  0  0  0  0  0  0  0  0  0  0
   57.4510   32.5480   46.1980 C   0  0  0  0  0  0  0  0  0  0  0  0
   58.7930   30.0960   43.3790 H   0  0  0  0  0  0  0  0  0  0  0  0
   56.4011   28.3176   43.7856 H   0  0  0  0  0  0  0  0  0  0  0  0
   56.9855   28.6700   42.1407 H   0  0  0  0  0  0  0  0  0  0  0  0
   58.9674   27.4908   42.4463 H   0  0  0  0  0  0  0  0  0  0  0  0
   59.0170   27.8490   44.2141 H   0  0  0  0  0  0  0  0  0  0  0  0
   56.1016   24.3959   44.5619 H   0  0  0  0  0  0  0  0  0  0  0  0
   56.0528   23.7638   46.9293 H   0  0  0  0  0  0  0  0  0  0  0  0
   57.5480   24.8200   48.5090 H   0  0  0  0  0  0  0  0  0  0  0  0
   60.7561   27.8215   46.1064 H   0  0  0  0  0  0  0  0  0  0  0  0
   61.1775   30.2567   45.9226 H   0  0  0  0  0  0  0  0  0  0  0  0
   61.8635   31.3514   49.3034 H   0  0  0  0  0  0  0  0  0  0  0  0
   64.2414   32.0647   49.5902 H   0  0  0  0  0  0  0  0  0  0  0  0
   65.2016   33.7198   47.9620 H   0  0  0  0  0  0  0  0  0  0  0  0
   63.7852   34.6109   46.1099 H   0  0  0  0  0  0  0  0  0  0  0  0
   61.4252   33.8685   45.8748 H   0  0  0  0  0  0  0  0  0  0  0  0
   58.6519   30.9588   49.3327 H   0  0  0  0  0  0  0  0  0  0  0  0
   58.2537   28.5393   49.4851 H   0  0  0  0  0  0  0  0  0  0  0  0
   59.1790   27.1310   45.4860 H   0  0  0  0  0  0  0  0  0  0  0  0
   58.6757   32.3981   43.0638 H   0  0  0  0  0  0  0  0  0  0  0  0
   59.6616   34.5665   43.7826 H   0  0  0  0  0  0  0  0  0  0  0  0
   57.7894   34.1314   47.6274 H   0  0  0  0  0  0  0  0  0  0  0  0
   56.8204   31.9773   46.8956 H   0  0  0  0  0  0  0  0  0  0  0  0
  1  2  2  0
  2  3  1  0
  3  4  1  0
  4  5  1  0
  5  6  1  0
  6  7  2  0
  7  8  1  0
  8  9  2  0
  9 10  1  0
 10 11  1  0
 11 12  2  0
 12 13  1  0
 13 14  2  0
 14 15  1  0
 15 16  2  0
 16 17  1  0
 17 18  1  0
 18 19  2  0
 19 20  1  0
 20 21  2  0
 21 22  1  0
 22 23  2  0
 16 24  1  0
 24 25  2  0
 11 26  1  0
  2 27  1  0
 27 28  2  0
 28 29  1  0
 29 30  2  0
 30 31  1  0
 30 32  1  0
 32 33  2  0
 26  7  1  0
 33 27  1  0
 25 13  1  0
 23 18  1  0
  3 34  1  0
  4 35  1  0
  4 36  1  0
  5 37  1  0
  5 38  1  0
  8 39  1  0
  9 40  1  0
 10 41  1  0
 14 42  1  0
 15 43  1  0
 19 44  1  0
 20 45  1  0
 21 46  1  0
 22 47  1  0
 23 48  1  0
 24 49  1  0
 25 50  1  0
 26 51  1  0
 28 52  1  0
 29 53  1  0
 32 54  1  0
 33 55  1  0
M  END
>  <smiles>  (66) 
O=C(NCCN=c1cc[nH]c(=Nc2ccc(Oc3ccccc3)cc2)[nH]1)c1ccc(F)cc1

>  <score_type>  (66) 
oracle

>  <origin>  (66) 
adg

>  <m_score__min__energy>  (66) 
-8.8599999999999994

>  <m_primary>  (66) 
energy

$$$$
66:0
     RDKit          3D

 38 40  0  0  0  0  0  0  0  0999 V2000
   56.5100   31.1250   44.4070 O   0  0  0  0  0  0  0  0  0  0  0  0
   57.3960   31.2850   45.2510 C   0  0  0  0  0  0  0  0  0  0  0  0
   57.9000   30.2240   46.0950 N   0  0  0  0  0  0  0  0  0  0  0  0
   58.9300   29.5370   45.7610 C   0  0  0  0  0  0  0  0  0  0  0  0
   59.8160   28.8680   46.5610 N   0  0  0  0  0  0  0  0  0  0  0  0
   60.7020   28.2930   45.7310 N   0  0  0  0  0  0  0  0  0  0  0  0
   60.3570   28.6060   44.4960 N   0  0  0  0  0  0  0  0  0  0  0  0
   59.2810   29.3650   44.4680 N   0  0  0  0  0  0  0  0  0  0  0  0
   58.0570   32.5800   45.5140 C   0  0  0  0  0  0  0  0  0  0  0  0
   58.5130   33.3120   44.4190 C   0  0  0  0  0  0  0  0  0  0  0  0
   59.1870   34.5070   44.5660 C   0  0  0  0  0  0  0  0  0  0  0  0
   59.4030   34.9670   45.8610 C   0  0  0  0  0  0  0  0  0  0  0  0
   58.9580   34.2530   46.9490 C   0  0  0  0  0  0  0  0  0  0  0  0
   59.2050   34.6630   48.2720 N   0  0  0  0  0  0  0  0  0  0  0  0
   59.8100   33.7900   49.2770 C   0  0  0  0  0  0  0  0  0  0  0  0
   60.8800   32.9530   48.6480 C   0  0  0  0  0  0  0  0  0  0  0  0
   62.0750   33.6170   48.3810 C   0  0  0  0  0  0  0  0  0  0  0  0
   63.0660   32.8770   47.7860 C   0  0  0  0  0  0  0  0  0  0  0  0
   64.3010   33.4710   47.4820 O   0  0  0  0  0  0  0  0  0  0  0  0
   62.8620   31.5440   47.4800 C   0  0  0  0  0  0  0  0  0  0  0  0
   61.6650   30.8920   47.7530 C   0  0  0  0  0  0  0  0  0  0  0  0
   60.6600   31.6380   48.3540 C   0  0  0  0  0  0  0  0  0  0  0  0
   59.4460   30.9880   48.6330 O   0  0  0  0  0  0  0  0  0  0  0  0
   58.2770   33.0470   46.7760 C   0  0  0  0  0  0  0  0  0  0  0  0
   60.9020   28.2710   43.6530 H   0  0  0  0  0  0  0  0  0  0  0  0
   58.7700   29.7720   43.6260 H   0  0  0  0  0  0  0  0  0  0  0  0
   58.3298   32.9249   43.4058 H   0  0  0  0  0  0  0  0  0  0  0  0
   59.5401   35.0744   43.6923 H   0  0  0  0  0  0  0  0  0  0  0  0
   59.9375   35.9156   46.0171 H   0  0  0  0  0  0  0  0  0  0  0  0
   58.9570   35.6240   48.5950 H   0  0  0  0  0  0  0  0  0  0  0  0
   60.2503   34.4044   50.0762 H   0  0  0  0  0  0  0  0  0  0  0  0
   59.0358   33.1315   49.6976 H   0  0  0  0  0  0  0  0  0  0  0  0
   62.2169   34.6782   48.6336 H   0  0  0  0  0  0  0  0  0  0  0  0
   64.9810   32.8980   46.9570 H   0  0  0  0  0  0  0  0  0  0  0  0
   63.6765   30.9790   47.0032 H   0  0  0  0  0  0  0  0  0  0  0  0
   61.5202   29.8305   47.5035 H   0  0  0  0  0  0  0  0  0  0  0  0
   59.0470   30.3730   47.9190 H   0  0  0  0  0  0  0  0  0  0  0  0
   57.9215   32.4793   47.6486 H   0  0  0  0  0  0  0  0  0  0  0  0
  1  2  2  0
  2  3  1  0
  3  4  2  3
  4  5  1  0
  5  6  2  0
  6  7  1  0
  7  8  1  0
  2  9  1  0
  9 10  2  0
 10 11  1  0
 11 12  2  0
 12 13  1  0
 13 14  1  0
 14 15  1  0
 15 16  1  0
 16 17  2  0
 17 18  1  0
 18 19  1  0
 18 20  2  0
 20 21  1  0
 21 22  2  0
 22 23  1  0
 13 24  2  0
  8  4  1  0
 24  9  1  0
 22 16  1  0
  7 25  1  0
  8 26  1  0
 10 27  1  0
 11 28  1  0
 12 29  1  0
 14 30  1  0
 15 31  1  0
 15 32  1  0
 17 33  1  0
 19 34  1  0
 20 35  1  0
 21 36  1  0
 23 37  1  0
 24 38  1  0
M  END
>  <smiles>  (67) 
O=C(N=c1nn[nH][nH]1)c1cccc(NCc2cc(O)ccc2O)c1

>  <score_type>  (67) 
oracle

>  <origin>  (67) 
adg

>  <m_score__min__energy>  (67) 
-9.0500000000000007

>  <m_primary>  (67) 
energy

$$$$
67:0
     RDKit          3D

 54 57  0  0  0  0  0  0  0  0999 V2000
   55.1620   29.0460   44.6640 O   0  0  0  0  0  0  0  0  0  0  0  0
   56.2900   29.6140   44.6370 C   0  0  0  0  0  0  0  0  0  0  0  0
   56.3540   31.0370   44.5350 N   0  0  0  0  0  0  0  0  0  0  0  0
   57.7700   31.8700   44.0030 S   0  0  0  0  0  0  0  0  0  0  0  0
   57.4700   32.5850   42.7170 O   0  0  0  0  0  0  0  0  0  0  0  0
   58.8500   30.8600   43.7360 O   0  0  0  0  0  0  0  0  0  0  0  0
   58.3480   33.0160   45.2140 C   0  0  0  0  0  0  0  0  0  0  0  0
   58.0970   32.7880   46.5760 C   0  0  0  0  0  0  0  0  0  0  0  0
   58.5980   33.6650   47.5420 C   0  0  0  0  0  0  0  0  0  0  0  0
   59.3520   34.7780   47.1550 C   0  0  0  0  0  0  0  0  0  0  0  0
   59.6150   35.0020   45.8000 C   0  0  0  0  0  0  0  0  0  0  0  0
   59.1090   34.1340   44.8350 C   0  0  0  0  0  0  0  0  0  0  0  0
   57.4840   28.8290   44.6880 N   0  0  0  0  0  0  0  0  0  0  0  0
   57.6170   27.6990   45.5640 C   0  0  0  0  0  0  0  0  0  0  0  0
   56.5920   26.7390   45.6230 C   0  0  0  0  0  0  0  0  0  0  0  0
   56.6500   25.6920   46.5470 C   0  0  0  0  0  0  0  0  0  0  0  0
   57.7300   25.5910   47.4210 C   0  0  0  0  0  0  0  0  0  0  0  0
   58.7600   26.5320   47.3690 C   0  0  0  0  0  0  0  0  0  0  0  0
   58.7200   27.5890   46.4410 C   0  0  0  0  0  0  0  0  0  0  0  0
   59.8620   28.5310   46.3720 C   0  0  0  0  0  0  0  0  0  0  0  0
   60.1830   29.0380   45.2650 O   0  0  0  0  0  0  0  0  0  0  0  0
   60.6730   28.8110   47.5210 N   0  0  0  0  0  0  0  0  0  0  0  0
   61.0310   30.1200   47.9820 C   0  0  0  0  0  0  0  0  0  0  0  0
   61.5590   31.0430   47.0710 C   0  0  0  0  0  0  0  0  0  0  0  0
   61.9070   32.3290   47.4910 C   0  0  0  0  0  0  0  0  0  0  0  0
   61.7040   32.7100   48.8240 C   0  0  0  0  0  0  0  0  0  0  0  0
   62.1210   34.3630   49.3650 S   0  0  0  0  0  0  0  0  0  0  0  0
   63.7080   33.8430   50.0150 C   0  0  0  0  0  0  0  0  0  0  0  0
   64.5740   33.0650   49.2310 C   0  0  0  0  0  0  0  0  0  0  0  0
   65.8080   32.6530   49.7480 C   0  0  0  0  0  0  0  0  0  0  0  0
   66.1850   33.0240   51.0460 C   0  0  0  0  0  0  0  0  0  0  0  0
   65.3210   33.8020   51.8260 C   0  0  0  0  0  0  0  0  0  0  0  0
   64.0840   34.2120   51.3130 C   0  0  0  0  0  0  0  0  0  0  0  0
   61.1590   31.8000   49.7330 C   0  0  0  0  0  0  0  0  0  0  0  0
   60.8180   30.5120   49.3160 C   0  0  0  0  0  0  0  0  0  0  0  0
   57.5032   31.9150   46.8846 H   0  0  0  0  0  0  0  0  0  0  0  0
   58.3992   33.4799   48.6079 H   0  0  0  0  0  0  0  0  0  0  0  0
   59.7368   35.4748   47.9142 H   0  0  0  0  0  0  0  0  0  0  0  0
   60.2233   35.8663   45.4951 H   0  0  0  0  0  0  0  0  0  0  0  0
   59.3066   34.3253   43.7699 H   0  0  0  0  0  0  0  0  0  0  0  0
   58.2400   29.0300   43.9970 H   0  0  0  0  0  0  0  0  0  0  0  0
   55.7363   26.8124   44.9356 H   0  0  0  0  0  0  0  0  0  0  0  0
   55.8418   24.9467   46.5841 H   0  0  0  0  0  0  0  0  0  0  0  0
   57.7713   24.7700   48.1520 H   0  0  0  0  0  0  0  0  0  0  0  0
   59.6113   26.4463   48.0603 H   0  0  0  0  0  0  0  0  0  0  0  0
   61.7005   30.7539   46.0191 H   0  0  0  0  0  0  0  0  0  0  0  0
   62.3405   33.0428   46.7751 H   0  0  0  0  0  0  0  0  0  0  0  0
   64.2829   32.7788   48.2096 H   0  0  0  0  0  0  0  0  0  0  0  0
   66.4826   32.0374   49.1348 H   0  0  0  0  0  0  0  0  0  0  0  0
   67.1568   32.7048   51.4506 H   0  0  0  0  0  0  0  0  0  0  0  0
   65.6148   34.0923   52.8455 H   0  0  0  0  0  0  0  0  0  0  0  0
   63.4081   34.8234   51.9289 H   0  0  0  0  0  0  0  0  0  0  0  0
   60.9982   32.0988   50.7794 H   0  0  0  0  0  0  0  0  0  0  0  0
   60.3813   29.8013   50.0331 H   0  0  0  0  0  0  0  0  0  0  0  0
  1  2  2  0
  2  3  1  0
  3  4  1  0
  4  5  2  0
  4  6  2  0
  4  7  1  0
  7  8  2  0
  8  9  1  0
  9 10  2  0
 10 11  1  0
 11 12  2  0
  2 13  1  0
 13 14  1  0
 14 15  2  0
 15 16  1  0
 16 17  2  0
 17 18  1  0
 18 19  2  0
 19 20  1  0
 20 21  2  0
 20 22  1  0
 22 23  1  0
 23 24  2  0
 24 25  1  0
 25 26  2  0
 26 27  1  0
 27 28  1  0
 28 29  2  0
 29 30  1  0
 30 31  2  0
 31 32  1  0
 32 33  2  0
 26 34  1  0
 34 35  2  0
 12  7  1  0
 19 14  1  0
 35 23  1  0
 33 28  1  0
  8 36  1  0
  9 37  1  0
 10 38  1  0
 11 39  1  0
 12 40  1  0
 13 41  1  0
 15 42  1  0
 16 43  1  0
 17 44  1  0
 18 45  1  0
 24 46  1  0
 25 47  1  0
 29 48  1  0
 30 49  1  0
 31 50  1  0
 32 51  1  0
 33 52  1  0
 34 53  1  0
 35 54  1  0
M  CHG  2   3  -1  22  -1
M  END
>  <UniqueID>  (68) 
59

>  <SMILES>  (68) 
O=C([N-]S(=O)(=O)c1ccccc1)Nc1ccccc1C(=O)[N-]c1ccc(Sc2ccccc2)cc1

>  <Energy>  (68) 
70.30872835630518

>  <Genealogy>  (68) 
O=C([N-]S(=O)(=O)c1ccccc1)Nc1ccccc1C(=O)[N-]c1ccc(Sc2ccccc2)cc1 (protonated)
O=C([N-]S(=O)(=O)c1ccccc1)Nc1ccccc1C(=O)[N-]c1ccc(Sc2ccccc2)cc1 (3D coordinates assigned)
O=C([N-]S(=O)(=O)c1ccccc1)Nc1ccccc1C(=O)[N-]c1ccc(Sc2ccccc2)cc1 (optimized conformer: 70.30872835630518 kcal/mol)

>  <smiles>  (68) 
O=C(Nc1ccccc1C(=O)Nc1ccc(Sc2ccccc2)cc1)NS(=O)(=O)c1ccccc1

>  <score_type>  (68) 
oracle

>  <origin>  (68) 
adg

>  <m_score__min__energy>  (68) 
-14.67

>  <m_primary>  (68) 
energy

$$$$
68:0
     RDKit          3D

 44 47  0  0  1  0  0  0  0  0999 V2000
   57.0780   25.2780   45.7160 N   0  0  0  0  0  0  0  0  0  0  0  0
   57.4550   26.5000   45.9150 C   0  0  0  0  0  0  0  0  0  0  0  0
   56.7210   27.5110   45.4090 N   0  0  0  0  0  0  0  0  0  0  0  0
   57.0640   28.8000   45.5820 C   0  0  0  0  0  0  0  0  0  0  0  0
   56.3190   29.7350   45.0700 N   0  0  0  0  0  0  0  0  0  0  0  0
   58.1810   29.1230   46.2870 C   0  0  0  0  0  0  0  0  0  0  0  0
   58.5460   30.4570   46.4710 C   0  0  0  0  0  0  0  0  0  0  0  0
   57.7980   31.5770   45.9400 C   0  0  0  0  0  0  0  0  0  0  0  0
   58.4150   32.9030   45.9360 C   0  0  0  0  0  0  0  0  0  0  0  0
   58.8050   33.6300   47.0280 C   0  0  0  0  0  0  0  0  0  0  0  0
   58.5890   32.9580   48.6100 Cl  0  0  0  0  0  0  0  0  0  0  0  0
   59.3780   34.8930   46.8670 C   0  0  0  0  0  0  0  0  0  0  0  0
   59.5760   35.4600   45.6230 C   0  0  0  0  0  0  0  0  0  0  0  0
   59.1830   34.7290   44.5230 C   0  0  0  0  0  0  0  0  0  0  0  0
   58.6200   33.4850   44.6750 C   0  0  0  0  0  0  0  0  0  0  0  0
   58.1500   32.6160   43.2050 Cl  0  0  0  0  0  0  0  0  0  0  0  0
   59.6850   30.6350   47.1930 N   0  0  0  0  0  0  0  0  0  0  0  0
   60.4170   29.6650   47.6950 C   0  0  0  0  0  0  0  0  0  0  0  0
   61.4920   29.9610   48.3720 N   0  0  0  0  0  0  0  0  0  0  0  0
   62.1090   31.2370   48.2590 C   0  0  0  0  0  0  0  0  0  0  0  0
   62.8370   31.6250   47.1480 C   0  0  0  0  0  0  0  0  0  0  0  0
   63.3930   32.8840   47.1440 C   0  0  0  0  0  0  0  0  0  0  0  0
   63.2530   33.7690   48.1960 C   0  0  0  0  0  0  0  0  0  0  0  0
   62.5210   33.3730   49.3070 C   0  0  0  0  0  0  0  0  0  0  0  0
   61.9540   32.1150   49.3340 C   0  0  0  0  0  0  0  0  0  0  0  0
   61.0300   31.6420   50.7520 Cl  0  0  0  0  0  0  0  0  0  0  0  0
   60.0700   28.3440   47.5200 C   0  0  0  0  0  0  0  0  0  0  0  0
   58.9330   28.0810   46.8050 C   0  0  0  0  0  0  0  0  0  0  0  0
   58.5710   26.8040   46.6180 N   0  0  0  0  0  0  0  0  0  0  0  0
   56.7620   24.9120   44.7950 H   0  0  0  0  0  0  0  0  0  0  0  0
   55.8660   27.2480   44.8700 H   0  0  0  0  0  0  0  0  0  0  0  0
   55.5190   30.0900   45.6730 H   0  0  0  0  0  0  0  0  0  0  0  0
   57.5502   31.3335   44.8963 H   0  0  0  0  0  0  0  0  0  0  0  0
   56.9512   31.6819   46.6342 H   0  0  0  0  0  0  0  0  0  0  0  0
   59.6823   35.4560   47.7617 H   0  0  0  0  0  0  0  0  0  0  0  0
   60.0297   36.4562   45.5147 H   0  0  0  0  0  0  0  0  0  0  0  0
   59.3213   35.1452   43.5142 H   0  0  0  0  0  0  0  0  0  0  0  0
   60.0000   31.6320   47.3590 H   0  0  0  0  0  0  0  0  0  0  0  0
   62.9676   30.9464   46.2922 H   0  0  0  0  0  0  0  0  0  0  0  0
   63.9742   33.1995   46.2650 H   0  0  0  0  0  0  0  0  0  0  0  0
   63.7125   34.7675   48.1539 H   0  0  0  0  0  0  0  0  0  0  0  0
   62.3938   34.0566   50.1593 H   0  0  0  0  0  0  0  0  0  0  0  0
   60.6827   27.5319   47.9385 H   0  0  0  0  0  0  0  0  0  0  0  0
   59.1680   26.0550   47.0260 H   0  0  0  0  0  0  0  0  0  0  0  0
  1  2  2  3
  2  3  1  0
  3  4  1  0
  4  5  2  3
  4  6  1  0
  6  7  2  0
  7  8  1  0
  8  9  1  0
  9 10  2  0
 10 11  1  0
 10 12  1  0
 12 13  2  0
 13 14  1  0
 14 15  2  0
 15 16  1  0
  7 17  1  0
 17 18  1  0
 18 19  2  0
 19 20  1  0
 20 21  2  0
 21 22  1  0
 22 23  2  0
 23 24  1  0
 24 25  2  0
 25 26  1  0
 18 27  1  0
 27 28  2  0
 28 29  1  0
 29  2  1  0
 28  6  1  0
 15  9  1  0
 25 20  1  0
  1 30  1  0
  3 31  1  0
  5 32  1  0
  8 33  1  0
  8 34  1  0
 12 35  1  0
 13 36  1  0
 14 37  1  0
 17 38  1  0
 21 39  1  0
 22 40  1  0
 23 41  1  0
 24 42  1  0
 27 43  1  0
 29 44  1  0
M  END
>  <smiles>  (69) 
N=c1[nH]c(=N)c2c(Cc3c(Cl)cccc3Cl)[nH]c(=Nc3ccccc3Cl)cc2[nH]1

>  <score_type>  (69) 
oracle

>  <origin>  (69) 
adg

>  <m_score__min__energy>  (69) 
-8.6699999999999999

>  <m_primary>  (69) 
energy

$$$$
69:0
     RDKit          3D

 65 68  0  0  0  0  0  0  0  0999 V2000
   55.4110   25.0990   45.9030 C   0  0  0  0  0  0  0  0  0  0  0  0
   55.2950   26.5310   46.1270 N   0  0  0  0  0  0  0  0  0  0  0  0
   56.2430   27.4740   45.6140 C   0  0  0  0  0  0  0  0  0  0  0  0
   55.8680   28.6220   45.2530 O   0  0  0  0  0  0  0  0  0  0  0  0
   57.6750   27.0690   45.4380 C   0  0  0  0  0  0  0  0  0  0  0  0
   58.6440   28.1360   45.9920 C   0  0  0  0  0  0  0  0  0  0  0  0
   59.4060   27.6340   47.2360 C   0  0  0  0  0  0  0  0  0  0  0  0
   60.2350   28.7760   47.8350 C   0  0  0  0  0  0  0  0  0  0  0  0
   60.9030   29.5560   46.7860 N   0  0  0  0  0  0  0  0  0  0  0  0
   61.2370   30.9280   47.0360 C   0  0  0  0  0  0  0  0  0  0  0  0
   62.5830   31.2660   47.2160 C   0  0  0  0  0  0  0  0  0  0  0  0
   62.9520   32.5870   47.4580 C   0  0  0  0  0  0  0  0  0  0  0  0
   61.9810   33.5840   47.5160 C   0  0  0  0  0  0  0  0  0  0  0  0
   60.6220   33.2760   47.3380 C   0  0  0  0  0  0  0  0  0  0  0  0
   59.6150   34.4010   47.4100 C   0  0  0  0  0  0  0  0  0  0  0  0
   59.2680   34.6700   48.7660 O   0  0  0  0  0  0  0  0  0  0  0  0
   59.8350   34.0020   49.8590 C   0  0  0  0  0  0  0  0  0  0  0  0
   61.0270   34.2360   50.1970 O   0  0  0  0  0  0  0  0  0  0  0  0
   59.0250   33.0260   50.6200 C   0  0  0  0  0  0  0  0  0  0  0  0
   58.8200   31.7230   50.1320 C   0  0  0  0  0  0  0  0  0  0  0  0
   58.0570   30.8030   50.8610 C   0  0  0  0  0  0  0  0  0  0  0  0
   57.4900   31.1760   52.0830 C   0  0  0  0  0  0  0  0  0  0  0  0
   56.5400   30.0190   53.0010 Cl  0  0  0  0  0  0  0  0  0  0  0  0
   57.6840   32.4710   52.5740 C   0  0  0  0  0  0  0  0  0  0  0  0
   58.4470   33.3920   51.8480 C   0  0  0  0  0  0  0  0  0  0  0  0
   60.2340   31.9250   47.1150 C   0  0  0  0  0  0  0  0  0  0  0  0
   58.7750   31.5440   46.9180 C   0  0  0  0  0  0  0  0  0  0  0  0
   58.2680   31.7390   45.5040 C   0  0  0  0  0  0  0  0  0  0  0  0
   58.6980   32.8690   44.7840 C   0  0  0  0  0  0  0  0  0  0  0  0
   58.2850   33.0730   43.4650 C   0  0  0  0  0  0  0  0  0  0  0  0
   57.4420   32.1450   42.8460 C   0  0  0  0  0  0  0  0  0  0  0  0
   57.0190   31.0100   43.5420 C   0  0  0  0  0  0  0  0  0  0  0  0
   57.4330   30.7980   44.8590 C   0  0  0  0  0  0  0  0  0  0  0  0
   61.0120   29.0190   45.4270 C   0  0  0  0  0  0  0  0  0  0  0  0
   59.6290   28.6080   44.8880 C   0  0  0  0  0  0  0  0  0  0  0  0
   55.4532   24.5787   46.8712 H   0  0  0  0  0  0  0  0  0  0  0  0
   54.5386   24.7450   45.3342 H   0  0  0  0  0  0  0  0  0  0  0  0
   56.3290   24.8900   45.3342 H   0  0  0  0  0  0  0  0  0  0  0  0
   57.8454   26.1220   45.9710 H   0  0  0  0  0  0  0  0  0  0  0  0
   57.8690   26.9566   44.3611 H   0  0  0  0  0  0  0  0  0  0  0  0
   58.0386   28.9975   46.3104 H   0  0  0  0  0  0  0  0  0  0  0  0
   58.6851   27.2746   47.9851 H   0  0  0  0  0  0  0  0  0  0  0  0
   60.0775   26.8135   46.9432 H   0  0  0  0  0  0  0  0  0  0  0  0
   59.5701   29.4399   48.4070 H   0  0  0  0  0  0  0  0  0  0  0  0
   61.0054   28.3407   48.4884 H   0  0  0  0  0  0  0  0  0  0  0  0
   63.3544   30.4834   47.1660 H   0  0  0  0  0  0  0  0  0  0  0  0
   64.0118   32.8434   47.6035 H   0  0  0  0  0  0  0  0  0  0  0  0
   62.2820   34.6253   47.7035 H   0  0  0  0  0  0  0  0  0  0  0  0
   60.0496   35.3060   46.9605 H   0  0  0  0  0  0  0  0  0  0  0  0
   58.7087   34.1049   46.8613 H   0  0  0  0  0  0  0  0  0  0  0  0
   59.2625   31.4245   49.1702 H   0  0  0  0  0  0  0  0  0  0  0  0
   57.9036   29.7857   50.4718 H   0  0  0  0  0  0  0  0  0  0  0  0
   57.2353   32.7664   53.5339 H   0  0  0  0  0  0  0  0  0  0  0  0
   58.5955   34.4088   52.2406 H   0  0  0  0  0  0  0  0  0  0  0  0
   58.6565   30.4832   47.1838 H   0  0  0  0  0  0  0  0  0  0  0  0
   58.1840   32.2129   47.5609 H   0  0  0  0  0  0  0  0  0  0  0  0
   59.3660   33.5990   45.2645 H   0  0  0  0  0  0  0  0  0  0  0  0
   58.6228   33.9630   42.9139 H   0  0  0  0  0  0  0  0  0  0  0  0
   57.1115   32.3088   41.8097 H   0  0  0  0  0  0  0  0  0  0  0  0
   56.3577   30.2808   43.0512 H   0  0  0  0  0  0  0  0  0  0  0  0
   57.1080   29.8951   45.3966 H   0  0  0  0  0  0  0  0  0  0  0  0
   61.4414   29.7886   44.7686 H   0  0  0  0  0  0  0  0  0  0  0  0
   61.6594   28.1300   45.4504 H   0  0  0  0  0  0  0  0  0  0  0  0
   59.1855   29.4733   44.3737 H   0  0  0  0  0  0  0  0  0  0  0  0
   59.7878   27.7545   44.2125 H   0  0  0  0  0  0  0  0  0  0  0  0
  1  2  1  0
  2  3  1  0
  3  4  2  0
  3  5  1  0
  5  6  1  0
  6  7  1  0
  7  8  1  0
  8  9  1  0
  9 10  1  0
 10 11  2  0
 11 12  1  0
 12 13  2  0
 13 14  1  0
 14 15  1  0
 15 16  1  0
 16 17  1  0
 17 18  2  0
 17 19  1  0
 19 20  2  0
 20 21  1  0
 21 22  2  0
 22 23  1  0
 22 24  1  0
 24 25  2  0
 14 26  2  0
 26 27  1  0
 27 28  1  0
 28 29  2  0
 29 30  1  0
 30 31  2  0
 31 32  1  0
 32 33  2  0
  9 34  1  0
 34 35  1  0
 35  6  1  0
 26 10  1  0
 33 28  1  0
 25 19  1  0
  1 36  1  0
  1 37  1  0
  1 38  1  0
  5 39  1  0
  5 40  1  0
  6 41  1  0
  7 42  1  0
  7 43  1  0
  8 44  1  0
  8 45  1  0
 11 46  1  0
 12 47  1  0
 13 48  1  0
 15 49  1  0
 15 50  1  0
 20 51  1  0
 21 52  1  0
 24 53  1  0
 25 54  1  0
 27 55  1  0
 27 56  1  0
 29 57  1  0
 30 58  1  0
 31 59  1  0
 32 60  1  0
 33 61  1  0
 34 62  1  0
 34 63  1  0
 35 64  1  0
 35 65  1  0
M  CHG  1   2  -1
M  END
>  <UniqueID>  (70) 
60

>  <SMILES>  (70) 
C[N-]C(=O)CC1CCN(c2cccc(COC(=O)c3ccc(Cl)cc3)c2Cc2ccccc2)CC1

>  <Energy>  (70) 
72.3725909178771

>  <Genealogy>  (70) 
C[N-]C(=O)CC1CCN(c2cccc(COC(=O)c3ccc(Cl)cc3)c2Cc2ccccc2)CC1 (protonated)
C[N-]C(=O)CC1CCN(c2cccc(COC(=O)c3ccc(Cl)cc3)c2Cc2ccccc2)CC1 (3D coordinates assigned)
C[N-]C(=O)CC1CCN(c2cccc(COC(=O)c3ccc(Cl)cc3)c2Cc2ccccc2)CC1 (nonaromatic ring conformer: 72.3725909178771 kcal/mol)

>  <smiles>  (70) 
CNC(=O)CC1CCN(c2cccc(COC(=O)c3ccc(Cl)cc3)c2Cc2ccccc2)CC1

>  <score_type>  (70) 
oracle

>  <origin>  (70) 
adg

>  <m_score__min__energy>  (70) 
-12.32

>  <m_primary>  (70) 
energy

$$$$
70:0
     RDKit          3D

 40 42  0  0  0  0  0  0  0  0999 V2000
   56.8840   27.6740   45.4790 N   0  0  0  0  0  0  0  0  0  0  0  0
   56.3070   26.3890   45.7270 C   0  0  0  0  0  0  0  0  0  0  0  0
   55.1820   26.3240   46.2920 O   0  0  0  0  0  0  0  0  0  0  0  0
   57.0160   25.1430   45.3340 C   0  0  0  0  0  0  0  0  0  0  0  0
   56.5410   24.3920   44.2410 C   0  0  0  0  0  0  0  0  0  0  0  0
   57.1880   23.2180   43.8480 C   0  0  0  0  0  0  0  0  0  0  0  0
   58.3110   22.7730   44.5430 C   0  0  0  0  0  0  0  0  0  0  0  0
   58.8000   23.5080   45.6240 C   0  0  0  0  0  0  0  0  0  0  0  0
   58.1780   24.7080   46.0150 C   0  0  0  0  0  0  0  0  0  0  0  0
   58.6710   25.4460   47.1460 N   0  0  0  0  0  0  0  0  0  0  0  0
   59.7510   26.3900   47.1320 C   0  0  0  0  0  0  0  0  0  0  0  0
   60.9170   25.9770   47.3710 O   0  0  0  0  0  0  0  0  0  0  0  0
   59.5270   27.8330   46.8900 C   0  0  0  0  0  0  0  0  0  0  0  0
   58.7260   28.5790   47.7690 C   0  0  0  0  0  0  0  0  0  0  0  0
   58.5340   29.9480   47.5620 C   0  0  0  0  0  0  0  0  0  0  0  0
   59.1270   30.5890   46.4600 C   0  0  0  0  0  0  0  0  0  0  0  0
   58.9620   31.9910   46.2120 N   0  0  0  0  0  0  0  0  0  0  0  0
   57.7710   32.6850   45.1580 S   0  0  0  0  0  0  0  0  0  0  0  0
   58.4290   33.6400   44.2030 O   0  0  0  0  0  0  0  0  0  0  0  0
   56.7350   33.4030   45.9780 O   0  0  0  0  0  0  0  0  0  0  0  0
   56.9930   31.4090   44.2470 C   0  0  0  0  0  0  0  0  0  0  0  0
   57.1300   31.1900   42.8930 C   0  0  0  0  0  0  0  0  0  0  0  0
   56.3400   30.0940   42.6170 C   0  0  0  0  0  0  0  0  0  0  0  0
   55.7740   29.7170   43.8190 C   0  0  0  0  0  0  0  0  0  0  0  0
   56.1830   30.5210   44.7740 O   0  0  0  0  0  0  0  0  0  0  0  0
   59.9050   29.8400   45.5710 C   0  0  0  0  0  0  0  0  0  0  0  0
   60.1030   28.4720   45.7800 C   0  0  0  0  0  0  0  0  0  0  0  0
   56.3940   28.5390   45.7980 H   0  0  0  0  0  0  0  0  0  0  0  0
   57.7630   27.7770   44.9240 H   0  0  0  0  0  0  0  0  0  0  0  0
   55.6515   24.7335   43.6913 H   0  0  0  0  0  0  0  0  0  0  0  0
   56.8106   22.6440   42.9889 H   0  0  0  0  0  0  0  0  0  0  0  0
   58.8122   21.8421   44.2394 H   0  0  0  0  0  0  0  0  0  0  0  0
   59.6801   23.1457   46.1756 H   0  0  0  0  0  0  0  0  0  0  0  0
   58.2465   28.0832   48.6259 H   0  0  0  0  0  0  0  0  0  0  0  0
   57.9161   30.5265   48.2645 H   0  0  0  0  0  0  0  0  0  0  0  0
   57.7403   31.7673   42.1829 H   0  0  0  0  0  0  0  0  0  0  0  0
   56.1908   29.6165   41.6374 H   0  0  0  0  0  0  0  0  0  0  0  0
   55.0845   28.8709   43.9561 H   0  0  0  0  0  0  0  0  0  0  0  0
   60.3646   30.3312   44.7007 H   0  0  0  0  0  0  0  0  0  0  0  0
   60.7132   27.8930   45.0712 H   0  0  0  0  0  0  0  0  0  0  0  0
  1  2  1  0
  2  3  2  0
  2  4  1  0
  4  5  2  0
  5  6  1  0
  6  7  2  0
  7  8  1  0
  8  9  2  0
  9 10  1  0
 10 11  1  0
 11 12  2  0
 11 13  1  0
 13 14  2  0
 14 15  1  0
 15 16  2  0
 16 17  1  0
 17 18  1  0
 18 19  2  0
 18 20  2  0
 18 21  1  0
 21 22  2  0
 22 23  1  0
 23 24  2  0
 24 25  1  0
 16 26  1  0
 26 27  2  0
  9  4  1  0
 27 13  1  0
 25 21  1  0
  1 28  1  0
  1 29  1  0
  5 30  1  0
  6 31  1  0
  7 32  1  0
  8 33  1  0
 14 34  1  0
 15 35  1  0
 22 36  1  0
 23 37  1  0
 24 38  1  0
 26 39  1  0
 27 40  1  0
M  CHG  2  10  -1  17  -1
M  END
>  <UniqueID>  (71) 
61

>  <SMILES>  (71) 
NC(=O)c1ccccc1[N-]C(=O)c1ccc([N-]S(=O)(=O)c2ccco2)cc1

>  <Energy>  (71) 
82.54060528973886

>  <Genealogy>  (71) 
NC(=O)c1ccccc1[N-]C(=O)c1ccc([N-]S(=O)(=O)c2ccco2)cc1 (protonated)
NC(=O)c1ccccc1[N-]C(=O)c1ccc([N-]S(=O)(=O)c2ccco2)cc1 (3D coordinates assigned)
NC(=O)c1ccccc1[N-]C(=O)c1ccc([N-]S(=O)(=O)c2ccco2)cc1 (optimized conformer: 82.54060528973886 kcal/mol)

>  <smiles>  (71) 
NC(=O)c1ccccc1NC(=O)c1ccc(NS(=O)(=O)c2ccco2)cc1

>  <score_type>  (71) 
oracle

>  <origin>  (71) 
adg

>  <m_score__min__energy>  (71) 
-10.99

>  <m_primary>  (71) 
energy

$$$$
71:0
     RDKit          3D

 68 73  0  0  0  0  0  0  0  0999 V2000
   55.7470   29.4640   45.2210 O   0  0  0  0  0  0  0  0  0  0  0  0
   56.9980   29.3230   45.1790 C   0  0  0  0  0  0  0  0  0  0  0  0
   57.7910   30.3760   44.6150 N   0  0  0  0  0  0  0  0  0  0  0  0
   58.1110   31.6210   45.2540 C   0  0  0  0  0  0  0  0  0  0  0  0
   57.2740   32.7420   45.1360 C   0  0  0  0  0  0  0  0  0  0  0  0
   57.6230   33.9450   45.7510 C   0  0  0  0  0  0  0  0  0  0  0  0
   58.8070   34.0420   46.4860 C   0  0  0  0  0  0  0  0  0  0  0  0
   59.6510   32.9240   46.6300 C   0  0  0  0  0  0  0  0  0  0  0  0
   60.8840   33.0210   47.3800 N   0  0  0  0  0  0  0  0  0  0  0  0
   61.0760   34.0850   48.3740 C   0  0  0  0  0  0  0  0  0  0  0  0
   62.0700   33.6270   49.4450 C   0  0  0  0  0  0  0  0  0  0  0  0
   63.3870   33.2510   48.8750 N   0  0  0  0  0  0  0  0  0  0  0  0
   64.1140   32.3600   49.8040 C   0  0  0  0  0  0  0  0  0  0  0  0
   65.2700   33.0860   50.4450 C   0  0  0  0  0  0  0  0  0  0  0  0
   66.5930   32.7580   50.0980 C   0  0  0  0  0  0  0  0  0  0  0  0
   67.6650   33.4310   50.6920 C   0  0  0  0  0  0  0  0  0  0  0  0
   67.4270   34.4330   51.6360 C   0  0  0  0  0  0  0  0  0  0  0  0
   66.1160   34.7660   51.9870 C   0  0  0  0  0  0  0  0  0  0  0  0
   65.0380   34.1000   51.3940 C   0  0  0  0  0  0  0  0  0  0  0  0
   63.7720   34.4360   51.7450 F   0  0  0  0  0  0  0  0  0  0  0  0
   63.3230   32.6920   47.4990 C   0  0  0  0  0  0  0  0  0  0  0  0
   61.9690   32.0530   47.1660 C   0  0  0  0  0  0  0  0  0  0  0  0
   59.2760   31.7090   46.0240 C   0  0  0  0  0  0  0  0  0  0  0  0
   57.6030   28.0750   45.7060 C   0  0  0  0  0  0  0  0  0  0  0  0
   57.2550   26.8630   45.0910 C   0  0  0  0  0  0  0  0  0  0  0  0
   57.8710   25.6650   45.4860 C   0  0  0  0  0  0  0  0  0  0  0  0
   57.5290   24.3680   44.8500 C   0  0  0  0  0  0  0  0  0  0  0  0
   58.0470   23.1510   45.3370 C   0  0  0  0  0  0  0  0  0  0  0  0
   57.7110   21.9400   44.7210 C   0  0  0  0  0  0  0  0  0  0  0  0
   56.8540   21.9270   43.6130 C   0  0  0  0  0  0  0  0  0  0  0  0
   56.5160   20.7270   42.9910 O   0  0  0  0  0  0  0  0  0  0  0  0
   56.3300   23.1280   43.1300 C   0  0  0  0  0  0  0  0  0  0  0  0
   56.6580   24.3400   43.7450 C   0  0  0  0  0  0  0  0  0  0  0  0
   58.7930   25.6910   46.4850 N   0  0  0  0  0  0  0  0  0  0  0  0
   59.1420   26.8350   47.1290 C   0  0  0  0  0  0  0  0  0  0  0  0
   60.0930   26.7860   48.1530 C   0  0  0  0  0  0  0  0  0  0  0  0
   60.4370   27.9480   48.8480 C   0  0  0  0  0  0  0  0  0  0  0  0
   59.8200   29.1580   48.5350 C   0  0  0  0  0  0  0  0  0  0  0  0
   58.8660   29.2190   47.5150 C   0  0  0  0  0  0  0  0  0  0  0  0
   58.5360   28.0640   46.7740 C   0  0  0  0  0  0  0  0  0  0  0  0
   56.3410   32.6718   44.5575 H   0  0  0  0  0  0  0  0  0  0  0  0
   56.9633   34.8202   45.6567 H   0  0  0  0  0  0  0  0  0  0  0  0
   59.0819   34.9981   46.9554 H   0  0  0  0  0  0  0  0  0  0  0  0
   61.4668   34.9839   47.8747 H   0  0  0  0  0  0  0  0  0  0  0  0
   60.1110   34.3129   48.8504 H   0  0  0  0  0  0  0  0  0  0  0  0
   62.2177   34.4472   50.1629 H   0  0  0  0  0  0  0  0  0  0  0  0
   61.6494   32.7344   49.9312 H   0  0  0  0  0  0  0  0  0  0  0  0
   63.4240   32.0162   50.5886 H   0  0  0  0  0  0  0  0  0  0  0  0
   64.5058   31.5025   49.2373 H   0  0  0  0  0  0  0  0  0  0  0  0
   66.7851   31.9688   49.3562 H   0  0  0  0  0  0  0  0  0  0  0  0
   68.6975   33.1711   50.4156 H   0  0  0  0  0  0  0  0  0  0  0  0
   68.2720   34.9601   52.1032 H   0  0  0  0  0  0  0  0  0  0  0  0
   65.9311   35.5541   52.7318 H   0  0  0  0  0  0  0  0  0  0  0  0
   63.5108   33.5054   46.7827 H   0  0  0  0  0  0  0  0  0  0  0  0
   64.0823   31.8988   47.4340 H   0  0  0  0  0  0  0  0  0  0  0  0
   61.9676   31.7325   46.1137 H   0  0  0  0  0  0  0  0  0  0  0  0
   61.8105   31.1854   47.8233 H   0  0  0  0  0  0  0  0  0  0  0  0
   59.9070   30.8180   46.1578 H   0  0  0  0  0  0  0  0  0  0  0  0
   56.4956   26.8514   44.2953 H   0  0  0  0  0  0  0  0  0  0  0  0
   58.7199   23.1530   46.2071 H   0  0  0  0  0  0  0  0  0  0  0  0
   58.1211   20.9956   45.1081 H   0  0  0  0  0  0  0  0  0  0  0  0
   57.0160   19.8690   43.1910 H   0  0  0  0  0  0  0  0  0  0  0  0
   55.6556   23.1204   42.2610 H   0  0  0  0  0  0  0  0  0  0  0  0
   56.2319   25.2791   43.3621 H   0  0  0  0  0  0  0  0  0  0  0  0
   60.5715   25.8300   48.4120 H   0  0  0  0  0  0  0  0  0  0  0  0
   61.1958   27.9080   49.6433 H   0  0  0  0  0  0  0  0  0  0  0  0
   60.0848   30.0684   49.0927 H   0  0  0  0  0  0  0  0  0  0  0  0
   58.3691   30.1738   47.2883 H   0  0  0  0  0  0  0  0  0  0  0  0
  1  2  2  0
  2  3  1  0
  3  4  1  0
  4  5  2  0
  5  6  1  0
  6  7  2  0
  7  8  1  0
  8  9  1  0
  9 10  1  0
 10 11  1  0
 11 12  1  0
 12 13  1  0
 13 14  1  0
 14 15  2  0
 15 16  1  0
 16 17  2  0
 17 18  1  0
 18 19  2  0
 19 20  1  0
 12 21  1  0
 21 22  1  0
  8 23  2  0
  2 24  1  0
 24 25  2  0
 25 26  1  0
 26 27  1  0
 27 28  2  0
 28 29  1  0
 29 30  2  0
 30 31  1  0
 30 32  1  0
 32 33  2  0
 26 34  2  0
 34 35  1  0
 35 36  2  0
 36 37  1  0
 37 38  2  0
 38 39  1  0
 39 40  2  0
 23  4  1  0
 40 24  1  0
 22  9  1  0
 33 27  1  0
 40 35  1  0
 19 14  1  0
  5 41  1  0
  6 42  1  0
  7 43  1  0
 10 44  1  0
 10 45  1  0
 11 46  1  0
 11 47  1  0
 13 48  1  0
 13 49  1  0
 15 50  1  0
 16 51  1  0
 17 52  1  0
 18 53  1  0
 21 54  1  0
 21 55  1  0
 22 56  1  0
 22 57  1  0
 23 58  1  0
 25 59  1  0
 28 60  1  0
 29 61  1  0
 31 62  1  0
 32 63  1  0
 33 64  1  0
 36 65  1  0
 37 66  1  0
 38 67  1  0
 39 68  1  0
M  CHG  1   3  -1
M  END
>  <UniqueID>  (72) 
62

>  <SMILES>  (72) 
O=C([N-]c1cccc(N2CCN(Cc3ccccc3F)CC2)c1)c1cc(-c2ccc(O)cc2)nc2ccccc12

>  <Energy>  (72) 
103.20988639258661

>  <Genealogy>  (72) 
O=C([N-]c1cccc(N2CCN(Cc3ccccc3F)CC2)c1)c1cc(-c2ccc(O)cc2)nc2ccccc12 (protonated)
O=C([N-]c1cccc(N2CCN(Cc3ccccc3F)CC2)c1)c1cc(-c2ccc(O)cc2)nc2ccccc12 (3D coordinates assigned)
O=C([N-]c1cccc(N2CCN(Cc3ccccc3F)CC2)c1)c1cc(-c2ccc(O)cc2)nc2ccccc12 (nonaromatic ring conformer: 103.20988639258661 kcal/mol)

>  <smiles>  (72) 
O=C(Nc1cccc(N2CCN(Cc3ccccc3F)CC2)c1)c1cc(-c2ccc(O)cc2)nc2ccccc12

>  <score_type>  (72) 
oracle

>  <origin>  (72) 
adg

>  <m_score__min__energy>  (72) 
-13.35

>  <m_primary>  (72) 
energy

$$$$
72:0
     RDKit          3D

 58 61  0  0  0  0  0  0  0  0999 V2000
   59.7320   35.3710   46.3830 C   0  0  0  0  0  0  0  0  0  0  0  0
   60.5020   34.5370   47.3210 N   0  0  0  0  0  0  0  0  0  0  0  0
   61.2550   33.4970   46.5740 C   0  0  0  0  0  0  0  0  0  0  0  0
   61.6760   32.3260   47.4660 C   0  0  0  0  0  0  0  0  0  0  0  0
   60.5080   31.7520   48.1420 N   0  0  0  0  0  0  0  0  0  0  0  0
   60.6910   30.5890   48.9630 C   0  0  0  0  0  0  0  0  0  0  0  0
   60.9630   30.7620   50.3290 C   0  0  0  0  0  0  0  0  0  0  0  0
   61.2850   29.6670   51.1320 C   0  0  0  0  0  0  0  0  0  0  0  0
   61.3480   28.3900   50.5780 C   0  0  0  0  0  0  0  0  0  0  0  0
   61.0540   28.1970   49.2260 C   0  0  0  0  0  0  0  0  0  0  0  0
   60.7030   29.2830   48.4090 C   0  0  0  0  0  0  0  0  0  0  0  0
   60.4020   29.0300   47.0230 N   0  0  0  0  0  0  0  0  0  0  0  0
   59.0760   29.0090   46.4680 C   0  0  0  0  0  0  0  0  0  0  0  0
   58.2770   27.8450   46.4900 C   0  0  0  0  0  0  0  0  0  0  0  0
   58.8180   26.5700   46.9960 C   0  0  0  0  0  0  0  0  0  0  0  0
   59.0650   26.4330   48.2230 O   0  0  0  0  0  0  0  0  0  0  0  0
   58.9870   25.4740   46.0900 N   0  0  0  0  0  0  0  0  0  0  0  0
   58.5360   24.1180   46.3760 C   0  0  0  0  0  0  0  0  0  0  0  0
   57.8830   23.5190   45.1620 C   0  0  0  0  0  0  0  0  0  0  0  0
   57.8470   22.1260   44.9780 C   0  0  0  0  0  0  0  0  0  0  0  0
   57.2030   21.5820   43.8600 C   0  0  0  0  0  0  0  0  0  0  0  0
   56.6080   22.4230   42.9160 C   0  0  0  0  0  0  0  0  0  0  0  0
   56.6520   23.8110   43.0860 C   0  0  0  0  0  0  0  0  0  0  0  0
   57.2860   24.3590   44.2050 C   0  0  0  0  0  0  0  0  0  0  0  0
   56.9780   27.8830   45.9340 C   0  0  0  0  0  0  0  0  0  0  0  0
   56.1260   26.7140   45.9730 C   0  0  0  0  0  0  0  0  0  0  0  0
   55.4420   25.7790   45.9980 N   0  0  0  0  0  0  0  0  0  0  0  0
   56.5200   29.0770   45.3430 C   0  0  0  0  0  0  0  0  0  0  0  0
   55.2450   29.1790   44.7830 O   0  0  0  0  0  0  0  0  0  0  0  0
   57.3350   30.1620   45.2980 N   0  0  0  0  0  0  0  0  0  0  0  0
   58.5850   30.1570   45.8260 C   0  0  0  0  0  0  0  0  0  0  0  0
   59.2950   31.1950   45.7440 O   0  0  0  0  0  0  0  0  0  0  0  0
   59.2770   32.5430   48.2410 C   0  0  0  0  0  0  0  0  0  0  0  0
   59.6370   34.0210   48.4120 C   0  0  0  0  0  0  0  0  0  0  0  0
   59.0921   36.0641   46.9489 H   0  0  0  0  0  0  0  0  0  0  0  0
   60.4242   35.9452   45.7497 H   0  0  0  0  0  0  0  0  0  0  0  0
   59.1044   34.7267   45.7497 H   0  0  0  0  0  0  0  0  0  0  0  0
   60.6173   33.1126   45.7643 H   0  0  0  0  0  0  0  0  0  0  0  0
   62.1699   33.9639   46.1802 H   0  0  0  0  0  0  0  0  0  0  0  0
   62.1529   31.5520   46.8468 H   0  0  0  0  0  0  0  0  0  0  0  0
   62.3831   32.6921   48.2249 H   0  0  0  0  0  0  0  0  0  0  0  0
   60.9220   31.7688   50.7702 H   0  0  0  0  0  0  0  0  0  0  0  0
   61.4892   29.8121   52.2031 H   0  0  0  0  0  0  0  0  0  0  0  0
   61.6298   27.5323   51.2064 H   0  0  0  0  0  0  0  0  0  0  0  0
   61.0980   27.1847   48.7978 H   0  0  0  0  0  0  0  0  0  0  0  0
   61.1980   28.8150   46.3790 H   0  0  0  0  0  0  0  0  0  0  0  0
   59.4000   23.5015   46.6648 H   0  0  0  0  0  0  0  0  0  0  0  0
   57.8046   24.1496   47.1970 H   0  0  0  0  0  0  0  0  0  0  0  0
   58.3254   21.4623   45.7133 H   0  0  0  0  0  0  0  0  0  0  0  0
   57.1654   20.4910   43.7247 H   0  0  0  0  0  0  0  0  0  0  0  0
   56.1042   21.9931   42.0378 H   0  0  0  0  0  0  0  0  0  0  0  0
   56.1876   24.4714   42.3389 H   0  0  0  0  0  0  0  0  0  0  0  0
   57.3180   25.4505   44.3374 H   0  0  0  0  0  0  0  0  0  0  0  0
   54.7030   28.3740   44.4960 H   0  0  0  0  0  0  0  0  0  0  0  0
   58.6824   32.4134   47.3247 H   0  0  0  0  0  0  0  0  0  0  0  0
   58.6903   32.2042   49.1076 H   0  0  0  0  0  0  0  0  0  0  0  0
   58.7072   34.6085   48.4299 H   0  0  0  0  0  0  0  0  0  0  0  0
   60.2006   34.1160   49.3518 H   0  0  0  0  0  0  0  0  0  0  0  0
  1  2  1  0
  2  3  1  0
  3  4  1  0
  4  5  1  0
  5  6  1  0
  6  7  2  0
  7  8  1  0
  8  9  2  0
  9 10  1  0
 10 11  2  0
 11 12  1  0
 12 13  1  0
 13 14  2  0
 14 15  1  0
 15 16  2  0
 15 17  1  0
 17 18  1  0
 18 19  1  0
 19 20  2  0
 20 21  1  0
 21 22  2  0
 22 23  1  0
 23 24  2  0
 14 25  1  0
 25 26  1  0
 26 27  3  0
 25 28  2  0
 28 29  1  0
 28 30  1  0
 30 31  1  0
 31 32  2  0
  5 33  1  0
 33 34  1  0
 34  2  1  0
 11  6  1  0
 31 13  1  0
 24 19  1  0
  1 35  1  0
  1 36  1  0
  1 37  1  0
  3 38  1  0
  3 39  1  0
  4 40  1  0
  4 41  1  0
  7 42  1  0
  8 43  1  0
  9 44  1  0
 10 45  1  0
 12 46  1  0
 18 47  1  0
 18 48  1  0
 20 49  1  0
 21 50  1  0
 22 51  1  0
 23 52  1  0
 24 53  1  0
 29 54  1  0
 33 55  1  0
 33 56  1  0
 34 57  1  0
 34 58  1  0
M  CHG  2  17  -1  30  -1
M  END
>  <UniqueID>  (73) 
63

>  <SMILES>  (73) 
CN1CCN(c2ccccc2Nc2c(C(=O)[N-]Cc3ccccc3)c(C#N)c(O)[n-]c2=O)CC1

>  <Energy>  (73) 
84.71332144139527

>  <Genealogy>  (73) 
CN1CCN(c2ccccc2Nc2c(C(=O)[N-]Cc3ccccc3)c(C#N)c(O)[n-]c2=O)CC1 (protonated)
CN1CCN(c2ccccc2Nc2c(C(=O)[N-]Cc3ccccc3)c(C#N)c(O)[n-]c2=O)CC1 (3D coordinates assigned)
CN1CCN(c2ccccc2Nc2c(C(=O)[N-]Cc3ccccc3)c(C#N)c(O)[n-]c2=O)CC1 (nonaromatic ring conformer: 84.71332144139527 kcal/mol)

>  <smiles>  (73) 
CN1CCN(c2ccccc2Nc2c(C(=O)NCc3ccccc3)c(C#N)c(O)[nH]c2=O)CC1

>  <score_type>  (73) 
oracle

>  <origin>  (73) 
adg

>  <m_score__min__energy>  (73) 
-11.41

>  <m_primary>  (73) 
energy

$$$$
73:0
     RDKit          3D

 52 55  0  0  0  0  0  0  0  0999 V2000
   60.8200   33.3190   51.1560 O   0  0  0  0  0  0  0  0  0  0  0  0
   60.7950   33.8900   50.0460 N   0  0  0  0  0  0  0  0  0  0  0  0
   59.6840   34.6210   49.6960 O   0  0  0  0  0  0  0  0  0  0  0  0
   61.7930   33.5910   49.0590 C   0  0  0  0  0  0  0  0  0  0  0  0
   62.9900   32.9690   49.4540 C   0  0  0  0  0  0  0  0  0  0  0  0
   63.9360   32.5820   48.5030 C   0  0  0  0  0  0  0  0  0  0  0  0
   63.6940   32.8010   47.1480 C   0  0  0  0  0  0  0  0  0  0  0  0
   62.5140   33.4250   46.7400 C   0  0  0  0  0  0  0  0  0  0  0  0
   61.5760   33.8630   47.6840 C   0  0  0  0  0  0  0  0  0  0  0  0
   60.4480   34.5540   47.2180 O   0  0  0  0  0  0  0  0  0  0  0  0
   59.4240   33.9870   46.4440 C   0  0  0  0  0  0  0  0  0  0  0  0
   58.9020   34.7440   45.3910 C   0  0  0  0  0  0  0  0  0  0  0  0
   57.9350   34.2070   44.5450 C   0  0  0  0  0  0  0  0  0  0  0  0
   57.4560   32.9150   44.7580 C   0  0  0  0  0  0  0  0  0  0  0  0
   57.9250   32.1530   45.8420 C   0  0  0  0  0  0  0  0  0  0  0  0
   57.3980   30.8480   46.1180 N   0  0  0  0  0  0  0  0  0  0  0  0
   57.0890   29.6340   44.9220 S   0  0  0  0  0  0  0  0  0  0  0  0
   57.5530   30.1240   43.5800 O   0  0  0  0  0  0  0  0  0  0  0  0
   55.6130   29.3650   44.8610 O   0  0  0  0  0  0  0  0  0  0  0  0
   57.9180   28.1490   45.3760 C   0  0  0  0  0  0  0  0  0  0  0  0
   59.3140   28.1500   45.5160 C   0  0  0  0  0  0  0  0  0  0  0  0
   59.9870   26.9730   45.8550 C   0  0  0  0  0  0  0  0  0  0  0  0
   59.2690   25.7910   46.0620 C   0  0  0  0  0  0  0  0  0  0  0  0
   57.8780   25.7850   45.9240 C   0  0  0  0  0  0  0  0  0  0  0  0
   57.2030   26.9610   45.5830 C   0  0  0  0  0  0  0  0  0  0  0  0
   58.9040   32.6930   46.7000 C   0  0  0  0  0  0  0  0  0  0  0  0
   59.2900   31.9640   47.8780 N   0  0  0  0  0  0  0  0  0  0  0  0
   60.3420   30.9440   47.8170 C   0  0  0  0  0  0  0  0  0  0  0  0
   59.8820   29.6290   48.4900 C   0  0  0  0  0  0  0  0  0  0  0  0
   58.7380   29.7610   49.3240 O   0  0  0  0  0  0  0  0  0  0  0  0
   58.7820   30.9660   50.0570 C   0  0  0  0  0  0  0  0  0  0  0  0
   58.5160   32.1350   49.1100 C   0  0  0  0  0  0  0  0  0  0  0  0
   63.1830   32.7856   50.5213 H   0  0  0  0  0  0  0  0  0  0  0  0
   64.8733   32.1037   48.8234 H   0  0  0  0  0  0  0  0  0  0  0  0
   64.4338   32.4817   46.3992 H   0  0  0  0  0  0  0  0  0  0  0  0
   62.3188   33.5742   45.6678 H   0  0  0  0  0  0  0  0  0  0  0  0
   59.2580   35.7722   45.2294 H   0  0  0  0  0  0  0  0  0  0  0  0
   57.5478   34.8039   43.7061 H   0  0  0  0  0  0  0  0  0  0  0  0
   56.7069   32.4897   44.0739 H   0  0  0  0  0  0  0  0  0  0  0  0
   59.8804   29.0797   45.3585 H   0  0  0  0  0  0  0  0  0  0  0  0
   61.0821   26.9764   45.9590 H   0  0  0  0  0  0  0  0  0  0  0  0
   59.7988   24.8660   46.3334 H   0  0  0  0  0  0  0  0  0  0  0  0
   57.3139   24.8543   46.0838 H   0  0  0  0  0  0  0  0  0  0  0  0
   56.1082   26.9541   45.4769 H   0  0  0  0  0  0  0  0  0  0  0  0
   60.5862   30.7422   46.7636 H   0  0  0  0  0  0  0  0  0  0  0  0
   61.2255   31.3206   48.3532 H   0  0  0  0  0  0  0  0  0  0  0  0
   59.6478   28.9019   47.6985 H   0  0  0  0  0  0  0  0  0  0  0  0
   60.7076   29.3060   49.1412 H   0  0  0  0  0  0  0  0  0  0  0  0
   58.0138   30.9470   50.8441 H   0  0  0  0  0  0  0  0  0  0  0  0
   59.7724   31.0822   50.5214 H   0  0  0  0  0  0  0  0  0  0  0  0
   57.4441   32.1699   48.8656 H   0  0  0  0  0  0  0  0  0  0  0  0
   58.8162   33.0733   49.5993 H   0  0  0  0  0  0  0  0  0  0  0  0
  1  2  2  0
  2  3  1  0
  2  4  1  0
  4  5  2  0
  5  6  1  0
  6  7  2  0
  7  8  1  0
  8  9  2  0
  9 10  1  0
 10 11  1  0
 11 12  2  0
 12 13  1  0
 13 14  2  0
 14 15  1  0
 15 16  1  0
 16 17  1  0
 17 18  2  0
 17 19  2  0
 17 20  1  0
 20 21  2  0
 21 22  1  0
 22 23  2  0
 23 24  1  0
 24 25  2  0
 15 26  2  0
 26 27  1  0
 27 28  1  0
 28 29  1  0
 29 30  1  0
 30 31  1  0
 31 32  1  0
  9  4  1  0
 26 11  1  0
 32 27  1  0
 25 20  1  0
  5 33  1  0
  6 34  1  0
  7 35  1  0
  8 36  1  0
 12 37  1  0
 13 38  1  0
 14 39  1  0
 21 40  1  0
 22 41  1  0
 23 42  1  0
 24 43  1  0
 25 44  1  0
 28 45  1  0
 28 46  1  0
 29 47  1  0
 29 48  1  0
 31 49  1  0
 31 50  1  0
 32 51  1  0
 32 52  1  0
M  CHG  3   2   1   3  -1  16  -1
M  END
>  <UniqueID>  (74) 
64

>  <SMILES>  (74) 
O=[N+]([O-])c1ccccc1Oc1cccc([N-]S(=O)(=O)c2ccccc2)c1N1CCOCC1

>  <Energy>  (74) 
82.57577019611243

>  <Genealogy>  (74) 
O=[N+]([O-])c1ccccc1Oc1cccc([N-]S(=O)(=O)c2ccccc2)c1N1CCOCC1 (protonated)
O=[N+]([O-])c1ccccc1Oc1cccc([N-]S(=O)(=O)c2ccccc2)c1N1CCOCC1 (3D coordinates assigned)
O=[N+]([O-])c1ccccc1Oc1cccc([N-]S(=O)(=O)c2ccccc2)c1N1CCOCC1 (nonaromatic ring conformer: 82.57577019611243 kcal/mol)

>  <smiles>  (74) 
O=[N+]([O-])c1ccccc1Oc1cccc(NS(=O)(=O)c2ccccc2)c1N1CCOCC1

>  <score_type>  (74) 
oracle

>  <origin>  (74) 
adg

>  <m_score__min__energy>  (74) 
-11.02

>  <m_primary>  (74) 
energy

$$$$
74:0
     RDKit          3D

 47 50  0  0  0  0  0  0  0  0999 V2000
   55.1480   26.7000   46.1180 N   0  0  0  0  0  0  0  0  0  0  0  0
   56.5890   25.7430   46.1320 S   0  0  0  0  0  0  0  0  0  0  0  0
   56.5680   24.7950   44.9630 O   0  0  0  0  0  0  0  0  0  0  0  0
   56.6520   24.9380   47.4010 O   0  0  0  0  0  0  0  0  0  0  0  0
   57.9960   26.8010   46.0350 C   0  0  0  0  0  0  0  0  0  0  0  0
   59.2850   26.2510   46.0560 C   0  0  0  0  0  0  0  0  0  0  0  0
   60.4090   27.0850   46.0210 C   0  0  0  0  0  0  0  0  0  0  0  0
   60.2520   28.4720   45.9560 C   0  0  0  0  0  0  0  0  0  0  0  0
   58.9620   29.0380   45.9080 C   0  0  0  0  0  0  0  0  0  0  0  0
   58.7430   30.4560   45.8580 N   0  0  0  0  0  0  0  0  0  0  0  0
   57.5930   31.1470   45.3500 C   0  0  0  0  0  0  0  0  0  0  0  0
   56.7170   30.5460   44.6700 O   0  0  0  0  0  0  0  0  0  0  0  0
   57.3740   32.5780   45.7310 C   0  0  0  0  0  0  0  0  0  0  0  0
   58.6080   33.1430   46.2740 N   0  0  0  0  0  0  0  0  0  0  0  0
   59.1700   34.4000   45.9350 C   0  0  0  0  0  0  0  0  0  0  0  0
   58.8640   35.0390   44.8930 O   0  0  0  0  0  0  0  0  0  0  0  0
   60.1020   34.8840   46.8940 N   0  0  0  0  0  0  0  0  0  0  0  0
   60.1370   33.9220   48.0030 C   0  0  2  0  0  0  0  0  0  0  0  0
   59.6220   34.6230   49.2780 C   0  0  0  0  0  0  0  0  0  0  0  0
   59.9320   33.8130   50.5370 C   0  0  0  0  0  0  0  0  0  0  0  0
   61.4430   33.6430   50.7060 C   0  0  0  0  0  0  0  0  0  0  0  0
   62.1160   33.1530   49.4450 C   0  0  0  0  0  0  0  0  0  0  0  0
   63.3940   32.5790   49.5520 C   0  0  0  0  0  0  0  0  0  0  0  0
   64.0830   32.1650   48.4100 C   0  0  0  0  0  0  0  0  0  0  0  0
   63.5080   32.3280   47.1480 C   0  0  0  0  0  0  0  0  0  0  0  0
   62.2460   32.9070   47.0240 C   0  0  0  0  0  0  0  0  0  0  0  0
   61.5380   33.3450   48.1630 C   0  0  0  0  0  0  0  0  0  0  0  0
   59.1750   32.8500   47.5440 C   0  0  0  0  0  0  0  0  0  0  0  0
   58.8980   31.8070   48.1960 O   0  0  0  0  0  0  0  0  0  0  0  0
   57.8410   28.1950   45.9710 C   0  0  0  0  0  0  0  0  0  0  0  0
   54.8070   26.7170   45.1310 H   0  0  0  0  0  0  0  0  0  0  0  0
   59.4141   25.1595   46.1002 H   0  0  0  0  0  0  0  0  0  0  0  0
   61.4180   26.6474   46.0447 H   0  0  0  0  0  0  0  0  0  0  0  0
   61.1378   29.1241   45.9423 H   0  0  0  0  0  0  0  0  0  0  0  0
   57.0715   33.1500   44.8415 H   0  0  0  0  0  0  0  0  0  0  0  0
   56.5841   32.6325   46.4946 H   0  0  0  0  0  0  0  0  0  0  0  0
   60.1034   35.6086   49.3614 H   0  0  0  0  0  0  0  0  0  0  0  0
   58.5295   34.7217   49.1958 H   0  0  0  0  0  0  0  0  0  0  0  0
   59.5264   34.3381   51.4143 H   0  0  0  0  0  0  0  0  0  0  0  0
   59.4704   32.8190   50.4432 H   0  0  0  0  0  0  0  0  0  0  0  0
   61.8782   34.6145   50.9832 H   0  0  0  0  0  0  0  0  0  0  0  0
   61.6084   32.8871   51.4879 H   0  0  0  0  0  0  0  0  0  0  0  0
   63.8553   32.4548   50.5428 H   0  0  0  0  0  0  0  0  0  0  0  0
   65.0800   31.7099   48.5048 H   0  0  0  0  0  0  0  0  0  0  0  0
   64.0518   31.9990   46.2502 H   0  0  0  0  0  0  0  0  0  0  0  0
   61.7970   33.0237   46.0266 H   0  0  0  0  0  0  0  0  0  0  0  0
   56.8311   28.6311   45.9702 H   0  0  0  0  0  0  0  0  0  0  0  0
  1  2  1  0
  2  3  2  0
  2  4  2  0
  2  5  1  0
  5  6  2  0
  6  7  1  0
  7  8  2  0
  8  9  1  0
  9 10  1  0
 10 11  1  0
 11 12  2  0
 11 13  1  0
 13 14  1  0
 14 15  1  0
 15 16  2  0
 15 17  1  0
 18 17  1  6
 18 19  1  0
 19 20  1  0
 20 21  1  0
 21 22  1  0
 22 23  2  0
 23 24  1  0
 24 25  2  0
 25 26  1  0
 26 27  2  0
 18 28  1  0
 28 29  2  0
  9 30  2  0
 30  5  1  0
 28 14  1  0
 27 18  1  0
 27 22  1  0
  1 31  1  0
  6 32  1  0
  7 33  1  0
  8 34  1  0
 13 35  1  0
 13 36  1  0
 19 37  1  0
 19 38  1  0
 20 39  1  0
 20 40  1  0
 21 41  1  0
 21 42  1  0
 23 43  1  0
 24 44  1  0
 25 45  1  0
 26 46  1  0
 30 47  1  0
M  CHG  3   1  -1  10  -1  17  -1
M  END
>  <UniqueID>  (75) 
65

>  <SMILES>  (75) 
[NH-]S(=O)(=O)c1cccc([N-]C(=O)CN2C(=O)[N-][C@@]3(CCCc4ccccc43)C2=O)c1

>  <Energy>  (75) 
72.44843383331296

>  <Genealogy>  (75) 
[NH-]S(=O)(=O)c1cccc([N-]C(=O)CN2C(=O)[N-]C3(CCCc4ccccc43)C2=O)c1 (protonated)
[NH-]S(=O)(=O)c1cccc([N-]C(=O)CN2C(=O)[N-][C@@]3(CCCc4ccccc43)C2=O)c1 (chirality)
[NH-]S(=O)(=O)c1cccc([N-]C(=O)CN2C(=O)[N-][C@@]3(CCCc4ccccc43)C2=O)c1 (3D coordinates assigned)
[NH-]S(=O)(=O)c1cccc([N-]C(=O)CN2C(=O)[N-][C@@]3(CCCc4ccccc43)C2=O)c1 (nonaromatic ring conformer: 72.44843383331296 kcal/mol)

>  <smiles>  (75) 
NS(=O)(=O)c1cccc(NC(=O)CN2C(=O)NC3(CCCc4ccccc43)C2=O)c1

>  <score_type>  (75) 
oracle

>  <origin>  (75) 
adg

>  <m_score__min__energy>  (75) 
-14.6

>  <m_primary>  (75) 
energy

$$$$
75:0
     RDKit          3D

 43 46  0  0  0  0  0  0  0  0999 V2000
   55.1240   27.8840   45.9780 H   0  0  0  0  0  0  0  0  0  0  0  0
   55.1870   26.8720   45.9840 O   0  0  0  0  0  0  0  0  0  0  0  0
   56.4150   26.2170   46.0790 C   0  0  0  0  0  0  0  0  0  0  0  0
   56.5200   25.0280   46.8150 C   0  0  0  0  0  0  0  0  0  0  0  0
   55.6356   24.6203   47.3266 H   0  0  0  0  0  0  0  0  0  0  0  0
   57.7440   24.3590   46.9010 C   0  0  0  0  0  0  0  0  0  0  0  0
   57.8220   23.4288   47.4830 H   0  0  0  0  0  0  0  0  0  0  0  0
   58.8680   24.8700   46.2490 C   0  0  0  0  0  0  0  0  0  0  0  0
   59.8292   24.3392   46.3143 H   0  0  0  0  0  0  0  0  0  0  0  0
   58.7740   26.0540   45.5140 C   0  0  0  0  0  0  0  0  0  0  0  0
   59.6607   26.4476   44.9955 H   0  0  0  0  0  0  0  0  0  0  0  0
   57.5520   26.7460   45.4330 C   0  0  0  0  0  0  0  0  0  0  0  0
   57.4510   28.0040   44.6140 C   0  0  0  0  0  0  0  0  0  0  0  0
   56.6444   27.8996   43.8734 H   0  0  0  0  0  0  0  0  0  0  0  0
   58.3995   28.1849   44.0870 H   0  0  0  0  0  0  0  0  0  0  0  0
   57.1570   29.1220   45.5060 N   0  0  0  0  0  0  0  0  0  0  0  0
   57.9060   29.7830   46.3500 C   0  0  0  0  0  0  0  0  0  0  0  0
   58.4850   29.0400   47.3310 N   0  0  0  0  0  0  0  0  0  0  0  0
   59.5020   29.4810   48.1160 C   0  0  0  0  0  0  0  0  0  0  0  0
   60.0540   28.5670   49.1440 C   0  0  0  0  0  0  0  0  0  0  0  0
   60.4350   29.0880   50.3460 N   0  0  0  0  0  0  0  0  0  0  0  0
   60.9590   28.3190   51.3360 C   0  0  0  0  0  0  0  0  0  0  0  0
   61.2487   28.7776   52.2930 H   0  0  0  0  0  0  0  0  0  0  0  0
   61.1300   26.9480   51.1400 C   0  0  0  0  0  0  0  0  0  0  0  0
   61.5479   26.3194   51.9402 H   0  0  0  0  0  0  0  0  0  0  0  0
   60.7650   26.3840   49.9180 C   0  0  0  0  0  0  0  0  0  0  0  0
   60.8991   25.3055   49.7479 H   0  0  0  0  0  0  0  0  0  0  0  0
   60.2290   27.1890   48.9100 C   0  0  0  0  0  0  0  0  0  0  0  0
   59.9460   26.7505   47.9417 H   0  0  0  0  0  0  0  0  0  0  0  0
   60.0500   30.7440   47.8630 C   0  0  0  0  0  0  0  0  0  0  0  0
   60.9514   31.0747   48.3998 H   0  0  0  0  0  0  0  0  0  0  0  0
   59.4450   31.5790   46.9260 C   0  0  0  0  0  0  0  0  0  0  0  0
   59.9410   32.8270   46.7430 N   0  0  0  0  0  0  0  0  0  0  0  0
   59.3300   33.7160   45.9260 C   0  0  0  0  0  0  0  0  0  0  0  0
   59.7940   34.6956   45.7388 H   0  0  0  0  0  0  0  0  0  0  0  0
   58.1430   33.4040   45.3340 N   0  0  0  0  0  0  0  0  0  0  0  0
   57.4310   34.4370   44.5740 C   0  0  0  0  0  0  0  0  0  0  0  0
   56.9481   35.1376   45.2711 H   0  0  0  0  0  0  0  0  0  0  0  0
   58.1450   34.9837   43.9405 H   0  0  0  0  0  0  0  0  0  0  0  0
   56.6660   33.9643   43.9405 H   0  0  0  0  0  0  0  0  0  0  0  0
   57.5750   32.1730   45.5410 C   0  0  0  0  0  0  0  0  0  0  0  0
   56.3720   31.9940   45.2150 O   0  0  0  0  0  0  0  0  0  0  0  0
   58.2970   31.1570   46.2170 C   0  0  0  0  0  0  0  0  0  0  0  0
  1  2  1  0
  2  3  1  0
  3  4  2  0
  4  5  1  0
  4  6  1  0
  6  7  1  0
  6  8  2  0
  8  9  1  0
  8 10  1  0
 10 11  1  0
 10 12  2  0
 12 13  1  0
 13 14  1  0
 13 15  1  0
 13 16  1  0
 16 17  2  0
 17 18  1  0
 18 19  1  0
 19 20  1  0
 20 21  2  0
 21 22  1  0
 22 23  1  0
 22 24  2  0
 24 25  1  0
 24 26  1  0
 26 27  1  0
 26 28  2  0
 28 29  1  0
 19 30  2  0
 30 31  1  0
 30 32  1  0
 32 33  1  0
 33 34  2  0
 34 35  1  0
 34 36  1  0
 36 37  1  0
 37 38  1  0
 37 39  1  0
 37 40  1  0
 36 41  1  0
 41 42  2  0
 41 43  1  0
 12  3  1  0
 43 17  1  0
 28 20  1  0
 43 32  2  0
M  CHG  1  18  -1
M  END
>  <UniqueID>  (76) 
66

>  <SMILES>  (76) 
Cn1cnc2cc(-c3ccccn3)[n-]/c(=N/Cc3ccccc3O)c2c1=O

>  <Energy>  (76) 
79.6847517065777

>  <Genealogy>  (76) 
Cn1cnc2cc(-c3ccccn3)[n-]c(=NCc3ccccc3O)c2c1=O (protonated)
Cn1cnc2cc(-c3ccccn3)[n-]/c(=N/Cc3ccccc3O)c2c1=O (cis-trans isomerization)
Cn1cnc2cc(-c3ccccn3)[n-]/c(=N/Cc3ccccc3O)c2c1=O (3D coordinates assigned)
Cn1cnc2cc(-c3ccccn3)[n-]/c(=N/Cc3ccccc3O)c2c1=O (optimized conformer: 79.6847517065777 kcal/mol)

>  <smiles>  (76) 
Cn1cnc2cc(-c3ccccn3)[nH]c(=NCc3ccccc3O)c2c1=O

>  <score_type>  (76) 
oracle

>  <origin>  (76) 
adg

>  <m_score__min__energy>  (76) 
-9.3399999999999999

>  <m_primary>  (76) 
energy

$$$$
76:0
     RDKit          3D

 47 47  0  0  0  0  0  0  0  0999 V2000
   55.5062   30.5356   44.1679 H   0  0  0  0  0  0  0  0  0  0  0  0
   56.4080   30.1360   43.6810 C   0  0  0  0  0  0  0  0  0  0  0  0
   56.9730   29.0280   44.1980 C   0  0  0  0  0  0  0  0  0  0  0  0
   57.4413   28.3186   43.4998 H   0  0  0  0  0  0  0  0  0  0  0  0
   57.0080   28.6920   45.6710 C   0  0  0  0  0  0  0  0  0  0  0  0
   55.9883   28.7667   46.0767 H   0  0  0  0  0  0  0  0  0  0  0  0
   57.6859   29.4030   46.1659 H   0  0  0  0  0  0  0  0  0  0  0  0
   57.5410   27.2710   45.9250 C   0  0  0  0  0  0  0  0  0  0  0  0
   58.3674   27.3293   46.6486 H   0  0  0  0  0  0  0  0  0  0  0  0
   57.8740   26.8635   44.9590 H   0  0  0  0  0  0  0  0  0  0  0  0
   56.4830   26.3400   46.4730 C   0  0  0  0  0  0  0  0  0  0  0  0
   56.7630   25.5840   47.4410 O   0  0  0  0  0  0  0  0  0  0  0  0
   55.1400   26.3460   45.9720 N   0  0  0  0  0  0  0  0  0  0  0  0
   54.3910   25.1530   45.5930 C   0  0  0  0  0  0  0  0  0  0  0  0
   53.8173   25.3577   44.6770 H   0  0  0  0  0  0  0  0  0  0  0  0
   53.7038   24.8815   46.4079 H   0  0  0  0  0  0  0  0  0  0  0  0
   55.3570   23.9930   45.3390 C   0  0  0  0  0  0  0  0  0  0  0  0
   54.7960   23.0471   45.3640 H   0  0  0  0  0  0  0  0  0  0  0  0
   56.1303   24.0066   46.1211 H   0  0  0  0  0  0  0  0  0  0  0  0
   56.0200   24.1260   44.0230 N   0  0  0  0  0  0  0  0  0  0  0  0
   57.4550   24.5010   44.0580 C   0  0  0  0  0  0  0  0  0  0  0  0
   57.5225   25.5899   44.1985 H   0  0  0  0  0  0  0  0  0  0  0  0
   57.8906   24.1630   43.1061 H   0  0  0  0  0  0  0  0  0  0  0  0
   58.2600   23.8240   45.1710 C   0  0  0  0  0  0  0  0  0  0  0  0
   57.8759   24.1471   46.1498 H   0  0  0  0  0  0  0  0  0  0  0  0
   58.1631   22.7320   45.0813 H   0  0  0  0  0  0  0  0  0  0  0  0
   59.3193   24.1067   45.0813 H   0  0  0  0  0  0  0  0  0  0  0  0
   55.6710   23.0860   43.0250 C   0  0  0  0  0  0  0  0  0  0  0  0
   54.6630   22.7120   43.2573 H   0  0  0  0  0  0  0  0  0  0  0  0
   55.7358   23.5669   42.0378 H   0  0  0  0  0  0  0  0  0  0  0  0
   56.6320   21.8850   42.9890 C   0  0  0  0  0  0  0  0  0  0  0  0
   56.8762   21.5798   44.0172 H   0  0  0  0  0  0  0  0  0  0  0  0
   56.1522   21.0471   42.4620 H   0  0  0  0  0  0  0  0  0  0  0  0
   57.5547   22.1694   42.4620 H   0  0  0  0  0  0  0  0  0  0  0  0
   56.9450   30.8590   42.4700 C   0  0  0  0  0  0  0  0  0  0  0  0
   57.5790   30.1705   41.8921 H   0  0  0  0  0  0  0  0  0  0  0  0
   56.0950   31.2030   41.8624 H   0  0  0  0  0  0  0  0  0  0  0  0
   57.7620   32.0590   42.8740 C   0  0  0  0  0  0  0  0  0  0  0  0
   58.4110   32.6790   41.9870 O   0  0  0  0  0  0  0  0  0  0  0  0
   57.8100   32.5590   44.2610 C   0  0  0  0  0  0  0  0  0  0  0  0
   57.1480   33.6240   44.6610 O   0  0  0  0  0  0  0  0  0  0  0  0
   57.3790   33.8100   45.9400 C   0  0  0  0  0  0  0  0  0  0  0  0
   56.9591   34.6255   46.5471 H   0  0  0  0  0  0  0  0  0  0  0  0
   58.2290   32.8270   46.4080 C   0  0  0  0  0  0  0  0  0  0  0  0
   58.6056   32.7134   47.4353 H   0  0  0  0  0  0  0  0  0  0  0  0
   58.5100   32.0180   45.3300 C   0  0  0  0  0  0  0  0  0  0  0  0
   59.1556   31.1274   45.3185 H   0  0  0  0  0  0  0  0  0  0  0  0
  1  2  1  0
  2  3  2  0
  3  4  1  0
  3  5  1  0
  5  6  1  0
  5  7  1  0
  5  8  1  0
  8  9  1  0
  8 10  1  0
  8 11  1  0
 11 12  2  0
 11 13  1  0
 13 14  1  0
 14 15  1  0
 14 16  1  0
 14 17  1  0
 17 18  1  0
 17 19  1  0
 17 20  1  0
 20 21  1  0
 21 22  1  0
 21 23  1  0
 21 24  1  0
 24 25  1  0
 24 26  1  0
 24 27  1  0
 20 28  1  0
 28 29  1  0
 28 30  1  0
 28 31  1  0
 31 32  1  0
 31 33  1  0
 31 34  1  0
  2 35  1  0
 35 36  1  0
 35 37  1  0
 35 38  1  0
 38 39  2  0
 38 40  1  0
 40 41  1  0
 41 42  1  0
 42 43  1  0
 42 44  2  0
 44 45  1  0
 44 46  1  0
 46 47  1  0
 46 40  2  0
M  CHG  1  13  -1
M  END
>  <UniqueID>  (77) 
67

>  <SMILES>  (77) 
CCN(CC)CC[N-]C(=O)CC/C=C\CC(=O)c1ccco1

>  <Energy>  (77) 
69.44411172052384

>  <Genealogy>  (77) 
CCN(CC)CC[N-]C(=O)CCC=CCC(=O)c1ccco1 (protonated)
CCN(CC)CC[N-]C(=O)CC/C=C\CC(=O)c1ccco1 (cis-trans isomerization)
CCN(CC)CC[N-]C(=O)CC/C=C\CC(=O)c1ccco1 (3D coordinates assigned)
CCN(CC)CC[N-]C(=O)CC/C=C\CC(=O)c1ccco1 (optimized conformer: 69.44411172052384 kcal/mol)

>  <smiles>  (77) 
CCN(CC)CCNC(=O)CCC=CCC(=O)c1ccco1

>  <score_type>  (77) 
oracle

>  <origin>  (77) 
adg

>  <m_score__min__energy>  (77) 
-8.0500000000000007

>  <m_primary>  (77) 
energy

$$$$
77:0
     RDKit          3D

 39 41  0  0  0  0  0  0  0  0999 V2000
   59.5880   34.1860   49.7177 H   0  0  0  0  0  0  0  0  0  0  0  0
   60.0380   34.3410   48.7260 C   0  0  0  0  0  0  0  0  0  0  0  0
   59.2830   34.8980   47.7650 C   0  0  0  0  0  0  0  0  0  0  0  0
   58.9718   35.9459   47.8880 H   0  0  0  0  0  0  0  0  0  0  0  0
   58.8470   34.1730   46.5460 C   0  0  0  0  0  0  0  0  0  0  0  0
   59.4190   34.5210   45.3130 C   0  0  0  0  0  0  0  0  0  0  0  0
   60.1662   35.3270   45.2683 H   0  0  0  0  0  0  0  0  0  0  0  0
   59.0500   33.8550   44.1410 C   0  0  0  0  0  0  0  0  0  0  0  0
   59.4960   34.1517   43.1803 H   0  0  0  0  0  0  0  0  0  0  0  0
   58.1140   32.8100   44.1820 C   0  0  0  0  0  0  0  0  0  0  0  0
   57.7250   32.1090   42.9340 C   0  0  0  0  0  0  0  0  0  0  0  0
   58.2850   32.4200   41.8490 O   0  0  0  0  0  0  0  0  0  0  0  0
   56.6760   31.1280   42.9060 N   0  0  0  0  0  0  0  0  0  0  0  0
   56.5170   30.1570   43.7580 C   0  0  0  0  0  0  0  0  0  0  0  0
   55.4360   30.0120   44.4840 O   0  0  0  0  0  0  0  0  0  0  0  0
   55.5250   28.9560   45.2390 N   0  0  0  0  0  0  0  0  0  0  0  0
   56.7220   28.3900   44.9840 C   0  0  0  0  0  0  0  0  0  0  0  0
   57.2120   27.1630   45.6320 C   0  0  0  0  0  0  0  0  0  0  0  0
   58.3000   26.6480   45.2610 O   0  0  0  0  0  0  0  0  0  0  0  0
   56.4640   26.5460   46.6820 N   0  0  0  0  0  0  0  0  0  0  0  0
   56.8180   25.6750   47.1360 H   0  0  0  0  0  0  0  0  0  0  0  0
   55.5590   26.9520   47.0100 H   0  0  0  0  0  0  0  0  0  0  0  0
   57.3980   29.1270   44.0300 C   0  0  0  0  0  0  0  0  0  0  0  0
   58.3909   28.9403   43.5950 H   0  0  0  0  0  0  0  0  0  0  0  0
   57.5410   32.4560   45.4150 C   0  0  0  0  0  0  0  0  0  0  0  0
   56.7963   31.6476   45.4588 H   0  0  0  0  0  0  0  0  0  0  0  0
   57.9100   33.1230   46.5860 C   0  0  0  0  0  0  0  0  0  0  0  0
   57.4648   32.8253   47.5468 H   0  0  0  0  0  0  0  0  0  0  0  0
   61.4460   33.9240   48.5210 C   0  0  0  0  0  0  0  0  0  0  0  0
   62.3110   33.9000   49.6280 C   0  0  0  0  0  0  0  0  0  0  0  0
   61.9365   34.1961   50.6190 H   0  0  0  0  0  0  0  0  0  0  0  0
   63.6440   33.5030   49.4810 C   0  0  0  0  0  0  0  0  0  0  0  0
   64.3148   33.4965   50.3528 H   0  0  0  0  0  0  0  0  0  0  0  0
   64.1240   33.1150   48.2290 C   0  0  0  0  0  0  0  0  0  0  0  0
   65.1739   32.8077   48.1134 H   0  0  0  0  0  0  0  0  0  0  0  0
   63.2710   33.1170   47.1230 C   0  0  0  0  0  0  0  0  0  0  0  0
   63.6492   32.8064   46.1379 H   0  0  0  0  0  0  0  0  0  0  0  0
   61.9370   33.5130   47.2650 C   0  0  0  0  0  0  0  0  0  0  0  0
   61.2676   33.5037   46.3922 H   0  0  0  0  0  0  0  0  0  0  0  0
  1  2  1  0
  2  3  2  0
  3  4  1  0
  3  5  1  0
  5  6  2  0
  6  7  1  0
  6  8  1  0
  8  9  1  0
  8 10  2  0
 10 11  1  0
 11 12  2  0
 11 13  1  0
 13 14  2  3
 14 15  1  0
 15 16  1  0
 16 17  1  0
 17 18  1  0
 18 19  2  0
 18 20  1  0
 20 21  1  0
 20 22  1  0
 17 23  2  0
 23 24  1  0
 10 25  1  0
 25 26  1  0
 25 27  2  0
 27 28  1  0
  2 29  1  0
 29 30  2  0
 30 31  1  0
 30 32  1  0
 32 33  1  0
 32 34  2  0
 34 35  1  0
 34 36  1  0
 36 37  1  0
 36 38  2  0
 38 39  1  0
 27  5  1  0
 38 29  1  0
 23 14  1  0
M  CHG  1  16  -1
M  END
>  <UniqueID>  (78) 
68

>  <SMILES>  (78) 
NC(=O)c1cc(=NC(=O)c2ccc(/C=C/c3ccccc3)cc2)o[n-]1

>  <Energy>  (78) 
84.23567183674513

>  <Genealogy>  (78) 
NC(=O)c1cc(=NC(=O)c2ccc(C=Cc3ccccc3)cc2)o[n-]1 (protonated)
NC(=O)c1cc(=NC(=O)c2ccc(/C=C/c3ccccc3)cc2)o[n-]1 (cis-trans isomerization)
NC(=O)c1cc(=NC(=O)c2ccc(/C=C/c3ccccc3)cc2)o[n-]1 (3D coordinates assigned)
NC(=O)c1cc(=NC(=O)c2ccc(/C=C/c3ccccc3)cc2)o[n-]1 (optimized conformer: 84.23567183674513 kcal/mol)

>  <smiles>  (78) 
NC(=O)c1cc(=NC(=O)c2ccc(C=Cc3ccccc3)cc2)o[nH]1

>  <score_type>  (78) 
oracle

>  <origin>  (78) 
adg

>  <m_score__min__energy>  (78) 
-12.24

>  <m_primary>  (78) 
energy

$$$$
78:0
     RDKit          3D

 43 46  0  0  0  0  0  0  0  0999 V2000
   54.0050   24.0720   45.4370 C   0  0  0  0  0  0  0  0  0  0  0  0
   54.8070   24.8400   46.3280 O   0  0  0  0  0  0  0  0  0  0  0  0
   56.0880   25.3260   46.0230 C   0  0  0  0  0  0  0  0  0  0  0  0
   57.1930   24.4740   45.8440 C   0  0  0  0  0  0  0  0  0  0  0  0
   58.4490   25.0080   45.5450 C   0  0  0  0  0  0  0  0  0  0  0  0
   58.6160   26.3890   45.4220 C   0  0  0  0  0  0  0  0  0  0  0  0
   57.5230   27.2560   45.5980 C   0  0  0  0  0  0  0  0  0  0  0  0
   57.6970   28.7250   45.4670 C   0  0  0  0  0  0  0  0  0  0  0  0
   56.8400   29.4760   44.6410 C   0  0  0  0  0  0  0  0  0  0  0  0
   57.0010   30.8580   44.5150 C   0  0  0  0  0  0  0  0  0  0  0  0
   58.0260   31.5120   45.2160 C   0  0  0  0  0  0  0  0  0  0  0  0
   58.2420   32.8940   45.1340 C   0  0  0  0  0  0  0  0  0  0  0  0
   57.5120   33.6260   44.4130 O   0  0  0  0  0  0  0  0  0  0  0  0
   59.2530   33.4530   45.8440 N   0  0  0  0  0  0  0  0  0  0  0  0
   60.0620   32.6950   46.6350 C   0  0  0  0  0  0  0  0  0  0  0  0
   61.1320   33.3060   47.3820 N   0  0  0  0  0  0  0  0  0  0  0  0
   60.8130   34.1010   48.5760 C   0  0  0  0  0  0  0  0  0  0  0  0
   62.0260   34.1780   49.5070 C   0  0  0  0  0  0  0  0  0  0  0  0
   63.1780   34.5890   48.7990 O   0  0  0  0  0  0  0  0  0  0  0  0
   63.5330   33.5950   47.8590 C   0  0  0  0  0  0  0  0  0  0  0  0
   62.4600   33.4620   46.7740 C   0  0  0  0  0  0  0  0  0  0  0  0
   59.8610   31.3810   46.7140 O   0  0  0  0  0  0  0  0  0  0  0  0
   58.8890   30.7700   46.0450 C   0  0  0  0  0  0  0  0  0  0  0  0
   58.7230   29.3870   46.1670 C   0  0  0  0  0  0  0  0  0  0  0  0
   56.2610   26.7100   45.8980 C   0  0  0  0  0  0  0  0  0  0  0  0
   53.3297   23.4253   46.0164 H   0  0  0  0  0  0  0  0  0  0  0  0
   53.4117   24.7473   44.8031 H   0  0  0  0  0  0  0  0  0  0  0  0
   54.6540   23.4500   44.8031 H   0  0  0  0  0  0  0  0  0  0  0  0
   57.0680   23.3853   45.9396 H   0  0  0  0  0  0  0  0  0  0  0  0
   59.3100   24.3377   45.4059 H   0  0  0  0  0  0  0  0  0  0  0  0
   59.6083   26.8010   45.1861 H   0  0  0  0  0  0  0  0  0  0  0  0
   56.0348   28.9694   44.0887 H   0  0  0  0  0  0  0  0  0  0  0  0
   56.3243   31.4336   43.8663 H   0  0  0  0  0  0  0  0  0  0  0  0
   60.5272   35.1178   48.2685 H   0  0  0  0  0  0  0  0  0  0  0  0
   59.9818   33.6202   49.1127 H   0  0  0  0  0  0  0  0  0  0  0  0
   61.8190   34.9012   50.3096 H   0  0  0  0  0  0  0  0  0  0  0  0
   62.2099   33.1790   49.9291 H   0  0  0  0  0  0  0  0  0  0  0  0
   64.4890   33.8688   47.3887 H   0  0  0  0  0  0  0  0  0  0  0  0
   63.6249   32.6321   48.3829 H   0  0  0  0  0  0  0  0  0  0  0  0
   62.4668   34.3646   46.1453 H   0  0  0  0  0  0  0  0  0  0  0  0
   62.6789   32.5736   46.1634 H   0  0  0  0  0  0  0  0  0  0  0  0
   59.4000   28.8116   46.8155 H   0  0  0  0  0  0  0  0  0  0  0  0
   55.3991   27.3793   46.0361 H   0  0  0  0  0  0  0  0  0  0  0  0
  1  2  1  0
  2  3  1  0
  3  4  2  0
  4  5  1  0
  5  6  2  0
  6  7  1  0
  7  8  1  0
  8  9  2  0
  9 10  1  0
 10 11  2  0
 11 12  1  0
 12 13  2  0
 12 14  1  0
 14 15  2  0
 15 16  1  0
 16 17  1  0
 17 18  1  0
 18 19  1  0
 19 20  1  0
 20 21  1  0
 15 22  1  0
 22 23  1  0
 23 24  2  0
  7 25  2  0
 25  3  1  0
 24  8  1  0
 23 11  1  0
 21 16  1  0
  1 26  1  0
  1 27  1  0
  1 28  1  0
  4 29  1  0
  5 30  1  0
  6 31  1  0
  9 32  1  0
 10 33  1  0
 17 34  1  0
 17 35  1  0
 18 36  1  0
 18 37  1  0
 20 38  1  0
 20 39  1  0
 21 40  1  0
 21 41  1  0
 24 42  1  0
 25 43  1  0
M  END
>  <UniqueID>  (79) 
69

>  <SMILES>  (79) 
COc1cccc(-c2ccc3c(=O)nc(N4CCOCC4)oc3c2)c1

>  <Energy>  (79) 
57.40689991536741

>  <Genealogy>  (79) 
COc1cccc(-c2ccc3c(=O)nc(N4CCOCC4)oc3c2)c1 (3D coordinates assigned)
COc1cccc(-c2ccc3c(=O)nc(N4CCOCC4)oc3c2)c1 (nonaromatic ring conformer: 57.40689991536741 kcal/mol)

>  <smiles>  (79) 
COc1cccc(-c2ccc3c(=O)nc(N4CCOCC4)oc3c2)c1

>  <score_type>  (79) 
oracle

>  <origin>  (79) 
adg

>  <m_score__min__energy>  (79) 
-7.7400000000000002

>  <m_primary>  (79) 
energy

$$$$
79:0
     RDKit          3D

 37 41  0  0  0  0  0  0  0  0999 V2000
   52.9250   31.9553   53.2069 H   0  0  0  0  0  0  0  0  0  0  0  0
   53.1350   31.2610   52.3800 C   0  0  0  0  0  0  0  0  0  0  0  0
   52.2090   31.2530   51.2390 C   0  0  0  0  0  0  0  0  0  0  0  0
   52.2570   30.3440   50.2490 N   0  0  0  0  0  0  0  0  0  0  0  0
   51.3350   30.7900   49.3690 C   0  0  0  0  0  0  0  0  0  0  0  0
   51.0720   30.1850   48.2980 O   0  0  0  0  0  0  0  0  0  0  0  0
   50.7250   31.9430   49.7210 N   0  0  0  0  0  0  0  0  0  0  0  0
   51.2990   32.2290   50.9010 C   0  0  0  0  0  0  0  0  0  0  0  0
   51.0230   33.3780   51.6320 O   0  0  0  0  0  0  0  0  0  0  0  0
   54.2190   30.4780   52.4800 C   0  0  0  0  0  0  0  0  0  0  0  0
   54.2230   29.1340   52.8550 C   0  0  0  0  0  0  0  0  0  0  0  0
   53.3320   28.5413   53.1096 H   0  0  0  0  0  0  0  0  0  0  0  0
   55.4950   28.6750   52.8560 N   0  0  0  0  0  0  0  0  0  0  0  0
   55.8080   27.7090   53.1000 H   0  0  0  0  0  0  0  0  0  0  0  0
   56.2890   29.6760   52.5150 N   0  0  0  0  0  0  0  0  0  0  0  0
   57.6410   29.6920   52.4300 C   0  0  0  0  0  0  0  0  0  0  0  0
   58.3310   28.6110   52.6410 N   0  0  0  0  0  0  0  0  0  0  0  0
   58.7970   28.2010   53.9620 C   0  0  0  0  0  0  0  0  0  0  0  0
   59.0356   27.1552   53.7184 H   0  0  0  0  0  0  0  0  0  0  0  0
   59.4880   29.3220   54.7150 C   0  0  0  0  0  0  0  0  0  0  0  0
   60.3345   29.0978   55.3807 H   0  0  0  0  0  0  0  0  0  0  0  0
   59.9631   30.2728   54.4319 H   0  0  0  0  0  0  0  0  0  0  0  0
   58.0790   28.8950   55.1040 C   0  0  0  0  0  0  0  0  0  0  0  0
   57.9071   28.3621   56.0508 H   0  0  0  0  0  0  0  0  0  0  0  0
   57.1134   29.4092   55.2186 H   0  0  0  0  0  0  0  0  0  0  0  0
   58.2500   30.8730   52.1230 N   0  0  0  0  0  0  0  0  0  0  0  0
   57.5150   32.0080   51.9230 C   0  0  0  0  0  0  0  0  0  0  0  0
   58.1350   33.1180   51.6510 N   0  0  0  0  0  0  0  0  0  0  0  0
   59.2900   33.2710   50.8130 C   0  0  0  0  0  0  0  0  0  0  0  0
   59.2730   33.7190   49.5440 N   0  0  0  0  0  0  0  0  0  0  0  0
   60.5130   33.7480   49.1490 O   0  0  0  0  0  0  0  0  0  0  0  0
   61.3290   33.3490   50.0990 C   0  0  0  0  0  0  0  0  0  0  0  0
   62.4241   33.2823   50.0190 H   0  0  0  0  0  0  0  0  0  0  0  0
   60.5820   33.0280   51.2130 C   0  0  0  0  0  0  0  0  0  0  0  0
   60.9360   32.6642   52.1889 H   0  0  0  0  0  0  0  0  0  0  0  0
   56.1490   31.9620   52.0120 N   0  0  0  0  0  0  0  0  0  0  0  0
   55.5610   30.7740   52.2880 C   0  0  0  0  0  0  0  0  0  0  0  0
  1  2  1  0
  2  3  1  0
  3  4  1  0
  4  5  1  0
  5  6  2  0
  5  7  1  0
  7  8  1  0
  8  9  1  0
  2 10  2  3
 10 11  1  0
 11 12  1  0
 11 13  2  0
 13 14  1  0
 13 15  1  0
 15 16  1  0
 16 17  2  0
 17 18  1  0
 18 19  1  0
 18 20  1  0
 20 21  1  0
 20 22  1  0
 20 23  1  0
 23 24  1  0
 23 25  1  0
 16 26  1  0
 26 27  1  0
 27 28  2  0
 28 29  1  0
 29 30  2  0
 30 31  1  0
 31 32  1  0
 32 33  1  0
 32 34  2  0
 34 35  1  0
 27 36  1  0
 36 37  2  0
  8  3  2  0
 37 10  1  0
 37 15  1  0
 23 18  1  0
 34 29  1  0
M  CHG  5   4  -1   7  -1   9  -1  13   1  26  -1
M  END
>  <UniqueID>  (80) 
70

>  <SMILES>  (80) 
O=c1[n-]c([O-])c(C=c2c[nH+]n3/c(=N/C4CC4)[n-]/c(=N/c4ccon4)nc23)[n-]1

>  <Energy>  (80) 
414.5956892003838

>  <Genealogy>  (80) 
O=c1[n-]c([O-])c(C=c2c[nH+]n3c(=NC4CC4)[n-]c(=Nc4ccon4)nc23)[n-]1 (protonated)
O=c1[n-]c([O-])c(C=c2c[nH+]n3/c(=N/C4CC4)[n-]/c(=N/c4ccon4)nc23)[n-]1 (cis-trans isomerization)
O=c1[n-]c([O-])c(C=c2c[nH+]n3/c(=N/C4CC4)[n-]/c(=N/c4ccon4)nc23)[n-]1 (3D coordinates assigned)
O=c1[n-]c([O-])c(C=c2c[nH+]n3/c(=N/C4CC4)[n-]/c(=N/c4ccon4)nc23)[n-]1 (nonaromatic ring conformer: 414.5956892003838 kcal/mol)

>  <smiles>  (80) 
O=c1[nH]c(O)c(C=c2cnn3c(=NC4CC4)[nH]c(=Nc4ccon4)nc23)[nH]1

>  <score_type>  (80) 
oracle

>  <origin>  (80) 
adg

>  <m_score__min__energy>  (80) 
-15.380000000000001

>  <m_primary>  (80) 
energy

$$$$
80:0
     RDKit          3D

 55 58  0  0  0  0  0  0  0  0999 V2000
   62.7340   34.5393   45.8931 H   0  0  0  0  0  0  0  0  0  0  0  0
   62.7850   33.8320   46.7340 C   0  0  0  0  0  0  0  0  0  0  0  0
   63.8690   33.8200   47.5420 N   0  0  0  0  0  0  0  0  0  0  0  0
   63.9690   32.9770   48.6030 C   0  0  0  0  0  0  0  0  0  0  0  0
   65.1280   33.0330   49.3860 C   0  0  0  0  0  0  0  0  0  0  0  0
   65.9316   33.7364   49.1226 H   0  0  0  0  0  0  0  0  0  0  0  0
   65.2710   32.2030   50.4980 C   0  0  0  0  0  0  0  0  0  0  0  0
   66.7240   32.2860   51.4780 Cl  0  0  0  0  0  0  0  0  0  0  0  0
   64.2500   31.3200   50.8400 C   0  0  0  0  0  0  0  0  0  0  0  0
   64.3613   30.6714   51.7214 H   0  0  0  0  0  0  0  0  0  0  0  0
   63.0830   31.2520   50.0700 C   0  0  0  0  0  0  0  0  0  0  0  0
   62.2815   30.5584   50.3641 H   0  0  0  0  0  0  0  0  0  0  0  0
   62.9150   32.0630   48.9150 C   0  0  0  0  0  0  0  0  0  0  0  0
   61.7680   32.0500   48.0420 C   0  0  0  0  0  0  0  0  0  0  0  0
   60.7290   31.2580   48.1280 N   0  0  0  0  0  0  0  0  0  0  0  0
   60.4070   29.9540   47.5550 C   0  0  0  0  0  0  0  0  0  0  0  0
   59.4022   29.6475   47.8812 H   0  0  0  0  0  0  0  0  0  0  0  0
   61.1435   29.2107   47.8944 H   0  0  0  0  0  0  0  0  0  0  0  0
   60.4420   30.0500   46.0140 C   0  0  0  0  0  0  0  0  0  0  0  0
   61.4094   30.4721   45.7041 H   0  0  0  0  0  0  0  0  0  0  0  0
   59.6115   30.6942   45.6896 H   0  0  0  0  0  0  0  0  0  0  0  0
   60.2730   28.7230   45.3840 N   0  0  0  0  0  0  0  0  0  0  0  0
   60.3890   27.6620   46.3980 C   0  0  0  0  0  0  0  0  0  0  0  0
   60.3403   28.1078   47.4024 H   0  0  0  0  0  0  0  0  0  0  0  0
   59.5639   26.9451   46.2746 H   0  0  0  0  0  0  0  0  0  0  0  0
   61.3495   27.1403   46.2746 H   0  0  0  0  0  0  0  0  0  0  0  0
   58.9930   28.6060   44.6460 C   0  0  0  0  0  0  0  0  0  0  0  0
   58.8110   29.5283   44.0749 H   0  0  0  0  0  0  0  0  0  0  0  0
   59.0412   27.7546   43.9512 H   0  0  0  0  0  0  0  0  0  0  0  0
   57.8570   28.3910   45.6490 C   0  0  0  0  0  0  0  0  0  0  0  0
   57.9203   27.3627   46.0345 H   0  0  0  0  0  0  0  0  0  0  0  0
   57.9783   29.1383   46.4470 H   0  0  0  0  0  0  0  0  0  0  0  0
   56.4650   28.5980   45.0360 C   0  0  0  0  0  0  0  0  0  0  0  0
   56.4264   28.1010   44.0555 H   0  0  0  0  0  0  0  0  0  0  0  0
   55.7154   28.1678   45.7165 H   0  0  0  0  0  0  0  0  0  0  0  0
   56.1730   30.0250   44.8620 N   0  0  0  0  0  0  0  0  0  0  0  0
   56.7480   30.8950   44.0720 C   0  0  0  0  0  0  0  0  0  0  0  0
   56.7240   30.7640   42.6670 C   0  0  0  0  0  0  0  0  0  0  0  0
   56.1766   29.9312   42.2013 H   0  0  0  0  0  0  0  0  0  0  0  0
   57.3940   31.6900   41.8700 C   0  0  0  0  0  0  0  0  0  0  0  0
   57.3692   31.5858   40.7752 H   0  0  0  0  0  0  0  0  0  0  0  0
   58.0780   32.7210   42.4330 N   0  0  0  0  0  0  0  0  0  0  0  0
   58.5750   33.3900   41.8010 H   0  0  0  0  0  0  0  0  0  0  0  0
   58.1130   32.9010   43.7850 C   0  0  0  0  0  0  0  0  0  0  0  0
   58.8140   33.9890   44.3330 C   0  0  0  0  0  0  0  0  0  0  0  0
   59.3573   34.6788   43.6705 H   0  0  0  0  0  0  0  0  0  0  0  0
   58.8250   34.2000   45.7160 C   0  0  0  0  0  0  0  0  0  0  0  0
   59.6800   35.5780   46.3870 Cl  0  0  0  0  0  0  0  0  0  0  0  0
   58.1450   33.3210   46.5630 C   0  0  0  0  0  0  0  0  0  0  0  0
   58.1501   33.4926   47.6495 H   0  0  0  0  0  0  0  0  0  0  0  0
   57.4580   32.2240   46.0340 C   0  0  0  0  0  0  0  0  0  0  0  0
   56.9327   31.5322   46.7089 H   0  0  0  0  0  0  0  0  0  0  0  0
   57.4330   31.9970   44.6400 C   0  0  0  0  0  0  0  0  0  0  0  0
   61.7360   32.9520   46.9650 C   0  0  0  0  0  0  0  0  0  0  0  0
   60.8649   32.9611   46.2933 H   0  0  0  0  0  0  0  0  0  0  0  0
  1  2  1  0
  2  3  1  0
  3  4  1  0
  4  5  2  0
  5  6  1  0
  5  7  1  0
  7  8  1  0
  7  9  2  0
  9 10  1  0
  9 11  1  0
 11 12  1  0
 11 13  2  0
 13 14  1  0
 14 15  2  0
 15 16  1  0
 16 17  1  0
 16 18  1  0
 16 19  1  0
 19 20  1  0
 19 21  1  0
 19 22  1  0
 22 23  1  0
 23 24  1  0
 23 25  1  0
 23 26  1  0
 22 27  1  0
 27 28  1  0
 27 29  1  0
 27 30  1  0
 30 31  1  0
 30 32  1  0
 30 33  1  0
 33 34  1  0
 33 35  1  0
 33 36  1  0
 36 37  2  0
 37 38  1  0
 38 39  1  0
 38 40  2  0
 40 41  1  0
 40 42  1  0
 42 43  1  0
 42 44  1  0
 44 45  2  0
 45 46  1  0
 45 47  1  0
 47 48  1  0
 47 49  2  0
 49 50  1  0
 49 51  1  0
 51 52  1  0
 51 53  2  0
 14 54  1  0
 54 55  1  0
 54  2  2  0
 13  4  1  0
 53 37  1  0
 53 44  1  0
M  CHG  1   3  -1
M  END
>  <UniqueID>  (81) 
71

>  <SMILES>  (81) 
CN(CCC/N=c1\cc[nH]c2cc(Cl)ccc12)CC/N=c1/cc[n-]c2cc(Cl)ccc12

>  <Energy>  (81) 
78.49664141387512

>  <Genealogy>  (81) 
CN(CCCN=c1cc[nH]c2cc(Cl)ccc12)CCN=c1cc[n-]c2cc(Cl)ccc12 (protonated)
CN(CCC/N=c1\cc[nH]c2cc(Cl)ccc12)CC/N=c1/cc[n-]c2cc(Cl)ccc12 (cis-trans isomerization)
CN(CCC/N=c1\cc[nH]c2cc(Cl)ccc12)CC/N=c1/cc[n-]c2cc(Cl)ccc12 (3D coordinates assigned)
CN(CCC/N=c1\cc[nH]c2cc(Cl)ccc12)CC/N=c1/cc[n-]c2cc(Cl)ccc12 (optimized conformer: 78.49664141387512 kcal/mol)

>  <smiles>  (81) 
CN(CCCN=c1cc[nH]c2cc(Cl)ccc12)CCN=c1cc[nH]c2cc(Cl)ccc12

>  <score_type>  (81) 
oracle

>  <origin>  (81) 
adg

>  <m_score__min__energy>  (81) 
-10.68

>  <m_primary>  (81) 
energy

$$$$
81:0
     RDKit          3D

 51 53  0  0  0  0  0  0  0  0999 V2000
   60.6070   29.2170   48.7190 C   0  0  0  0  0  0  0  0  0  0  0  0
   59.1270   29.0140   49.0160 C   0  0  0  0  0  0  0  0  0  0  0  0
   58.8260   29.4000   50.3550 O   0  0  0  0  0  0  0  0  0  0  0  0
   58.1050   30.5530   50.6830 C   0  0  0  0  0  0  0  0  0  0  0  0
   56.9790   30.4600   51.2440 O   0  0  0  0  0  0  0  0  0  0  0  0
   58.6610   31.8830   50.3620 C   0  0  0  0  0  0  0  0  0  0  0  0
   59.0930   32.3400   49.1260 C   0  0  0  0  0  0  0  0  0  0  0  0
   58.9960   31.6830   47.8920 O   0  0  0  0  0  0  0  0  0  0  0  0
   58.5570   32.2720   46.6950 C   0  0  0  0  0  0  0  0  0  0  0  0
   58.8740   33.6190   46.4740 C   0  0  0  0  0  0  0  0  0  0  0  0
   58.4790   34.2590   45.2980 C   0  0  0  0  0  0  0  0  0  0  0  0
   57.7570   33.5580   44.3310 C   0  0  0  0  0  0  0  0  0  0  0  0
   57.4100   32.2220   44.5460 C   0  0  0  0  0  0  0  0  0  0  0  0
   57.7800   31.5730   45.7390 C   0  0  0  0  0  0  0  0  0  0  0  0
   57.4000   30.2140   45.9910 N   0  0  0  0  0  0  0  0  0  0  0  0
   56.6190   29.3610   45.1500 C   0  0  0  0  0  0  0  0  0  0  0  0
   55.5010   29.7480   44.7170 O   0  0  0  0  0  0  0  0  0  0  0  0
   57.0780   28.0170   44.9420 N   0  0  0  0  0  0  0  0  0  0  0  0
   58.0570   27.3500   45.4960 C   0  0  0  0  0  0  0  0  0  0  0  0
   59.3720   27.8520   45.5910 C   0  0  0  0  0  0  0  0  0  0  0  0
   60.3690   27.0750   46.1850 C   0  0  0  0  0  0  0  0  0  0  0  0
   60.0750   25.8460   46.6780 N   0  0  0  0  0  0  0  0  0  0  0  0
   58.8180   25.3370   46.6200 C   0  0  0  0  0  0  0  0  0  0  0  0
   57.7790   26.0760   46.0400 C   0  0  0  0  0  0  0  0  0  0  0  0
   56.1430   25.3970   45.9950 S   0  0  0  0  0  0  0  0  0  0  0  0
   55.9260   24.4050   44.5340 C   0  0  0  0  0  0  0  0  0  0  0  0
   55.1400   26.5160   46.0000 O   0  0  0  0  0  0  0  0  0  0  0  0
   55.9050   24.5340   47.2030 O   0  0  0  0  0  0  0  0  0  0  0  0
   59.6430   33.5630   49.2530 N   0  0  0  0  0  0  0  0  0  0  0  0
   59.5170   33.8470   50.5670 C   0  0  0  0  0  0  0  0  0  0  0  0
   58.9250   32.8530   51.2610 N   0  0  0  0  0  0  0  0  0  0  0  0
   58.7090   32.8270   52.7050 C   0  0  0  0  0  0  0  0  0  0  0  0
   61.1636   29.2933   49.6647 H   0  0  0  0  0  0  0  0  0  0  0  0
   60.9852   28.3623   48.1389 H   0  0  0  0  0  0  0  0  0  0  0  0
   60.7411   30.1419   48.1389 H   0  0  0  0  0  0  0  0  0  0  0  0
   58.5318   29.6249   48.3213 H   0  0  0  0  0  0  0  0  0  0  0  0
   58.8832   27.9487   48.8909 H   0  0  0  0  0  0  0  0  0  0  0  0
   59.4395   34.1774   47.2345 H   0  0  0  0  0  0  0  0  0  0  0  0
   58.7368   35.3156   45.1335 H   0  0  0  0  0  0  0  0  0  0  0  0
   57.4605   34.0586   43.3975 H   0  0  0  0  0  0  0  0  0  0  0  0
   56.8442   31.6738   43.7783 H   0  0  0  0  0  0  0  0  0  0  0  0
   59.6112   28.8515   45.1988 H   0  0  0  0  0  0  0  0  0  0  0  0
   61.3967   27.4612   46.2533 H   0  0  0  0  0  0  0  0  0  0  0  0
   58.6139   24.3374   47.0313 H   0  0  0  0  0  0  0  0  0  0  0  0
   55.6993   23.3686   44.8248 H   0  0  0  0  0  0  0  0  0  0  0  0
   55.0949   24.8085   43.9370 H   0  0  0  0  0  0  0  0  0  0  0  0
   56.8497   24.4246   43.9370 H   0  0  0  0  0  0  0  0  0  0  0  0
   59.8601   34.7876   51.0226 H   0  0  0  0  0  0  0  0  0  0  0  0
   59.6729   32.9430   53.2221 H   0  0  0  0  0  0  0  0  0  0  0  0
   58.0383   33.6509   52.9903 H   0  0  0  0  0  0  0  0  0  0  0  0
   58.2530   31.8675   52.9903 H   0  0  0  0  0  0  0  0  0  0  0  0
  1  2  1  0
  2  3  1  0
  3  4  1  0
  4  5  2  0
  4  6  1  0
  6  7  2  0
  7  8  1  0
  8  9  1  0
  9 10  2  0
 10 11  1  0
 11 12  2  0
 12 13  1  0
 13 14  2  0
 14 15  1  0
 15 16  1  0
 16 17  2  0
 16 18  1  0
 18 19  2  3
 19 20  1  0
 20 21  2  0
 21 22  1  0
 22 23  1  0
 23 24  2  0
 24 25  1  0
 25 26  1  0
 25 27  2  0
 25 28  2  0
  7 29  1  0
 29 30  2  0
 30 31  1  0
 31 32  1  0
 31  6  1  0
 14  9  1  0
 24 19  1  0
  1 33  1  0
  1 34  1  0
  1 35  1  0
  2 36  1  0
  2 37  1  0
 10 38  1  0
 11 39  1  0
 12 40  1  0
 13 41  1  0
 20 42  1  0
 21 43  1  0
 23 44  1  0
 26 45  1  0
 26 46  1  0
 26 47  1  0
 30 48  1  0
 32 49  1  0
 32 50  1  0
 32 51  1  0
M  CHG  2  15  -1  22  -1
M  END
>  <UniqueID>  (82) 
72

>  <SMILES>  (82) 
CCOC(=O)c1c(Oc2ccccc2[N-]C(=O)N=c2cc[n-]cc2S(C)(=O)=O)ncn1C

>  <Energy>  (82) 
97.458440491836

>  <Genealogy>  (82) 
CCOC(=O)c1c(Oc2ccccc2[N-]C(=O)N=c2cc[n-]cc2S(C)(=O)=O)ncn1C (protonated)
CCOC(=O)c1c(Oc2ccccc2[N-]C(=O)N=c2cc[n-]cc2S(C)(=O)=O)ncn1C (3D coordinates assigned)
CCOC(=O)c1c(Oc2ccccc2[N-]C(=O)N=c2cc[n-]cc2S(C)(=O)=O)ncn1C (optimized conformer: 97.458440491836 kcal/mol)

>  <smiles>  (82) 
CCOC(=O)c1c(Oc2ccccc2NC(=O)N=c2cc[nH]cc2S(C)(=O)=O)ncn1C

>  <score_type>  (82) 
oracle

>  <origin>  (82) 
adg

>  <m_score__min__energy>  (82) 
-11.91

>  <m_primary>  (82) 
energy

$$$$
82:0
     RDKit          3D

 34 36  0  0  0  0  0  0  0  0999 V2000
   59.1730   33.7740   46.6760 C   0  0  0  0  0  0  0  0  0  0  0  0
   57.0490   28.3080   44.4560 N   0  0  0  0  0  0  0  0  0  0  0  0
   58.2810   32.8090   44.6190 C   0  0  0  0  0  0  0  0  0  0  0  0
   58.8760   31.3720   47.7500 O   0  0  0  0  0  0  0  0  0  0  0  0
   58.0270   30.4250   45.8160 C   0  0  0  0  0  0  0  0  0  0  0  0
   57.8950   29.2250   46.4040 N   0  0  0  0  0  0  0  0  0  0  0  0
   57.4060   28.1480   45.7440 C   0  0  0  0  0  0  0  0  0  0  0  0
   57.2790   26.6190   46.6250 S   0  0  0  0  0  0  0  0  0  0  0  0
   56.3860   25.3830   45.6650 C   0  0  0  0  0  0  0  0  0  0  0  0
   57.0010   24.7400   44.6080 C   0  0  0  0  0  0  0  0  0  0  0  0
   56.2990   23.7950   43.8850 C   0  0  0  0  0  0  0  0  0  0  0  0
   54.9960   23.5270   44.2480 C   0  0  0  0  0  0  0  0  0  0  0  0
   54.3820   24.1830   45.3180 C   0  0  0  0  0  0  0  0  0  0  0  0
   55.1310   25.1000   45.9850 N   0  0  0  0  0  0  0  0  0  0  0  0
   58.6380   32.6610   45.8960 N   0  0  0  0  0  0  0  0  0  0  0  0
   58.5310   31.4820   46.5450 C   0  0  0  0  0  0  0  0  0  0  0  0
   56.8170   29.5960   42.6200 N   0  0  0  0  0  0  0  0  0  0  0  0
   57.6590   30.6010   44.4830 C   0  0  0  0  0  0  0  0  0  0  0  0
   57.7810   31.7960   43.8620 N   0  0  0  0  0  0  0  0  0  0  0  0
   57.3970   31.9700   42.4820 C   0  0  0  0  0  0  0  0  0  0  0  0
   57.1690   29.5030   43.8330 C   0  0  0  0  0  0  0  0  0  0  0  0
   58.4180   33.9460   44.0960 O   0  0  0  0  0  0  0  0  0  0  0  0
   59.0674   33.5542   47.7486 H   0  0  0  0  0  0  0  0  0  0  0  0
   60.2368   33.9139   46.4334 H   0  0  0  0  0  0  0  0  0  0  0  0
   58.6178   34.6921   46.4334 H   0  0  0  0  0  0  0  0  0  0  0  0
   58.0418   24.9787   44.3441 H   0  0  0  0  0  0  0  0  0  0  0  0
   56.7681   23.2692   43.0403 H   0  0  0  0  0  0  0  0  0  0  0  0
   54.4251   22.7773   43.6805 H   0  0  0  0  0  0  0  0  0  0  0  0
   53.3426   23.9676   45.6065 H   0  0  0  0  0  0  0  0  0  0  0  0
   56.6690   27.4620   43.9460 H   0  0  0  0  0  0  0  0  0  0  0  0
   55.9200   29.3280   42.1900 H   0  0  0  0  0  0  0  0  0  0  0  0
   56.3960   32.4236   42.4343 H   0  0  0  0  0  0  0  0  0  0  0  0
   58.1218   32.6276   41.9798 H   0  0  0  0  0  0  0  0  0  0  0  0
   57.3804   30.9915   41.9798 H   0  0  0  0  0  0  0  0  0  0  0  0
  1  2  1  0
  2  3  1  0
  3  4  2  0
  3  5  1  0
  5  6  1  0
  6  7  2  0
  7  8  1  0
  8  9  1  0
  9 10  2  0
 10 11  1  0
 11 12  2  0
 12 13  1  0
 13 14  2  0
  7 15  1  0
 15 16  1  0
 16 17  2  3
 16 18  1  0
 18 19  1  0
 19 20  1  0
 19 21  1  0
 21 22  2  0
 21  2  1  0
 18  5  2  0
 14  9  1  0
  1 23  1  0
  1 24  1  0
  1 25  1  0
 10 26  1  0
 11 27  1  0
 12 28  1  0
 13 29  1  0
 15 30  1  0
 17 31  1  0
 20 32  1  0
 20 33  1  0
 20 34  1  0
M  END
>  <smiles>  (83) 
Cn1c(=O)c2nc(Sc3ccccn3)[nH]c(=N)c2n(C)c1=O

>  <score_type>  (83) 
oracle

>  <origin>  (83) 
adg

>  <m_score__min__energy>  (83) 
-7.04

>  <m_primary>  (83) 
energy

$$$$
83:0
     RDKit          3D

 56 59  0  0  0  0  0  0  0  0999 V2000
   56.4080   29.4410   52.8440 C   0  0  0  0  0  0  0  0  0  0  0  0
   57.1580   29.4870   51.6320 O   0  0  0  0  0  0  0  0  0  0  0  0
   57.9370   30.5770   51.2090 C   0  0  0  0  0  0  0  0  0  0  0  0
   57.7530   31.8670   51.7460 C   0  0  0  0  0  0  0  0  0  0  0  0
   58.5210   32.9380   51.2880 C   0  0  0  0  0  0  0  0  0  0  0  0
   59.4730   32.7410   50.2850 C   0  0  0  0  0  0  0  0  0  0  0  0
   59.6670   31.4680   49.7440 C   0  0  0  0  0  0  0  0  0  0  0  0
   58.9250   30.3720   50.2180 C   0  0  0  0  0  0  0  0  0  0  0  0
   59.1330   29.0080   49.6040 C   0  0  0  0  0  0  0  0  0  0  0  0
   58.6360   28.9440   48.2320 N   0  0  0  0  0  0  0  0  0  0  0  0
   59.1310   28.0840   47.2000 C   0  0  0  0  0  0  0  0  0  0  0  0
   60.3000   28.2730   46.7700 O   0  0  0  0  0  0  0  0  0  0  0  0
   58.3460   26.9540   46.6570 C   0  0  0  0  0  0  0  0  0  0  0  0
   58.0620   25.8600   47.4910 C   0  0  0  0  0  0  0  0  0  0  0  0
   57.4560   24.7110   46.9780 C   0  0  0  0  0  0  0  0  0  0  0  0
   57.1670   24.6240   45.6160 C   0  0  0  0  0  0  0  0  0  0  0  0
   57.4760   25.6880   44.7660 C   0  0  0  0  0  0  0  0  0  0  0  0
   58.0400   26.8660   45.2780 C   0  0  0  0  0  0  0  0  0  0  0  0
   58.3770   28.2340   44.1480 S   0  0  0  0  0  0  0  0  0  0  0  0
   56.9610   29.2810   44.6520 C   0  0  0  0  0  0  0  0  0  0  0  0
   57.3960   30.6410   45.1030 C   0  0  0  0  0  0  0  0  0  0  0  0
   56.7040   31.6460   44.7850 O   0  0  0  0  0  0  0  0  0  0  0  0
   58.5830   30.7960   45.8930 N   0  0  0  0  0  0  0  0  0  0  0  0
   59.0450   32.0780   46.3560 C   0  0  0  0  0  0  0  0  0  0  0  0
   58.1400   33.1490   46.3640 C   0  0  0  0  0  0  0  0  0  0  0  0
   58.5600   34.4320   46.7150 C   0  0  0  0  0  0  0  0  0  0  0  0
   59.8890   34.6650   47.0780 C   0  0  0  0  0  0  0  0  0  0  0  0
   60.8040   33.6030   47.1260 C   0  0  0  0  0  0  0  0  0  0  0  0
   62.1310   33.8350   47.5210 C   0  0  0  0  0  0  0  0  0  0  0  0
   63.0340   32.7750   47.6100 C   0  0  0  0  0  0  0  0  0  0  0  0
   62.6160   31.4740   47.3260 C   0  0  0  0  0  0  0  0  0  0  0  0
   61.2970   31.2260   46.9300 C   0  0  0  0  0  0  0  0  0  0  0  0
   60.3810   32.2880   46.7890 C   0  0  0  0  0  0  0  0  0  0  0  0
   57.0949   29.4831   53.7021 H   0  0  0  0  0  0  0  0  0  0  0  0
   55.7203   30.2987   52.8824 H   0  0  0  0  0  0  0  0  0  0  0  0
   55.8302   28.5057   52.8824 H   0  0  0  0  0  0  0  0  0  0  0  0
   56.9996   32.0304   52.5307 H   0  0  0  0  0  0  0  0  0  0  0  0
   58.3764   33.9401   51.7179 H   0  0  0  0  0  0  0  0  0  0  0  0
   60.0707   33.5896   49.9207 H   0  0  0  0  0  0  0  0  0  0  0  0
   60.4053   31.3220   48.9417 H   0  0  0  0  0  0  0  0  0  0  0  0
   60.2090   28.7793   49.6030 H   0  0  0  0  0  0  0  0  0  0  0  0
   58.5713   28.2764   50.2033 H   0  0  0  0  0  0  0  0  0  0  0  0
   58.3196   25.9087   48.5593 H   0  0  0  0  0  0  0  0  0  0  0  0
   57.2066   23.8748   47.6478 H   0  0  0  0  0  0  0  0  0  0  0  0
   56.6953   23.7164   45.2112 H   0  0  0  0  0  0  0  0  0  0  0  0
   57.2758   25.6018   43.6878 H   0  0  0  0  0  0  0  0  0  0  0  0
   56.2803   29.3927   43.7952 H   0  0  0  0  0  0  0  0  0  0  0  0
   56.4609   28.7881   45.4987 H   0  0  0  0  0  0  0  0  0  0  0  0
   58.9970   29.9400   46.3300 H   0  0  0  0  0  0  0  0  0  0  0  0
   57.0886   32.9757   46.0908 H   0  0  0  0  0  0  0  0  0  0  0  0
   57.8412   35.2646   46.7060 H   0  0  0  0  0  0  0  0  0  0  0  0
   60.2187   35.6845   47.3269 H   0  0  0  0  0  0  0  0  0  0  0  0
   62.4603   34.8567   47.7613 H   0  0  0  0  0  0  0  0  0  0  0  0
   64.0767   32.9650   47.9044 H   0  0  0  0  0  0  0  0  0  0  0  0
   63.3271   30.6393   47.4139 H   0  0  0  0  0  0  0  0  0  0  0  0
   60.9726   30.1947   46.7272 H   0  0  0  0  0  0  0  0  0  0  0  0
  1  2  1  0
  2  3  1  0
  3  4  2  0
  4  5  1  0
  5  6  2  0
  6  7  1  0
  7  8  2  0
  8  9  1  0
  9 10  1  0
 10 11  1  0
 11 12  2  0
 11 13  1  0
 13 14  2  0
 14 15  1  0
 15 16  2  0
 16 17  1  0
 17 18  2  0
 18 19  1  0
 19 20  1  0
 20 21  1  0
 21 22  2  0
 21 23  1  0
 23 24  1  0
 24 25  2  0
 25 26  1  0
 26 27  2  0
 27 28  1  0
 28 29  2  0
 29 30  1  0
 30 31  2  0
 31 32  1  0
 32 33  2  0
  8  3  1  0
 18 13  1  0
 33 24  1  0
 33 28  1  0
  1 34  1  0
  1 35  1  0
  1 36  1  0
  4 37  1  0
  5 38  1  0
  6 39  1  0
  7 40  1  0
  9 41  1  0
  9 42  1  0
 14 43  1  0
 15 44  1  0
 16 45  1  0
 17 46  1  0
 20 47  1  0
 20 48  1  0
 23 49  1  0
 25 50  1  0
 26 51  1  0
 27 52  1  0
 29 53  1  0
 30 54  1  0
 31 55  1  0
 32 56  1  0
M  CHG  1  10  -1
M  END
>  <UniqueID>  (84) 
73

>  <SMILES>  (84) 
COc1ccccc1C[N-]C(=O)c1ccccc1SCC(=O)Nc1cccc2ccccc12

>  <Energy>  (84) 
68.22106705088497

>  <Genealogy>  (84) 
COc1ccccc1C[N-]C(=O)c1ccccc1SCC(=O)Nc1cccc2ccccc12 (protonated)
COc1ccccc1C[N-]C(=O)c1ccccc1SCC(=O)Nc1cccc2ccccc12 (3D coordinates assigned)
COc1ccccc1C[N-]C(=O)c1ccccc1SCC(=O)Nc1cccc2ccccc12 (optimized conformer: 68.22106705088497 kcal/mol)

>  <smiles>  (84) 
COc1ccccc1CNC(=O)c1ccccc1SCC(=O)Nc1cccc2ccccc12

>  <score_type>  (84) 
oracle

>  <origin>  (84) 
adg

>  <m_score__min__energy>  (84) 
-12.859999999999999

>  <m_primary>  (84) 
energy

$$$$
84:0
     RDKit          3D

 53 55  0  0  0  0  0  0  0  0999 V2000
   58.2270   29.9030   44.8920 C   0  0  0  0  0  0  0  0  0  0  0  0
   56.5700   29.5520   44.3390 S   0  0  0  0  0  0  0  0  0  0  0  0
   55.7050   30.7720   44.4780 O   0  0  0  0  0  0  0  0  0  0  0  0
   56.6180   29.1580   42.8910 O   0  0  0  0  0  0  0  0  0  0  0  0
   55.8960   28.2400   45.2530 N   0  0  0  0  0  0  0  0  0  0  0  0
   56.6290   27.1400   45.8070 C   0  0  0  0  0  0  0  0  0  0  0  0
   56.0170   25.8800   45.8360 C   0  0  0  0  0  0  0  0  0  0  0  0
   56.6770   24.7850   46.4010 C   0  0  0  0  0  0  0  0  0  0  0  0
   57.9610   24.9370   46.9290 C   0  0  0  0  0  0  0  0  0  0  0  0
   58.6010   26.1850   46.8830 C   0  0  0  0  0  0  0  0  0  0  0  0
   59.9770   26.3490   47.4670 C   0  0  0  0  0  0  0  0  0  0  0  0
   60.1700   27.7250   47.9160 N   0  0  0  0  0  0  0  0  0  0  0  0
   60.4570   28.8020   47.0120 C   0  0  0  0  0  0  0  0  0  0  0  0
   60.7850   28.5510   45.8210 O   0  0  0  0  0  0  0  0  0  0  0  0
   60.4100   30.1650   47.4660 N   0  0  0  0  0  0  0  0  0  0  0  0
   61.2620   31.1850   46.8590 C   0  0  0  0  0  0  0  0  0  0  0  0
   61.9190   32.0350   47.9550 C   0  0  0  0  0  0  0  0  0  0  0  0
   60.9360   32.5310   49.0460 C   0  0  0  0  0  0  0  0  0  0  0  0
   60.3080   33.9200   48.7610 C   0  0  0  0  0  0  0  0  0  0  0  0
   59.4520   34.0100   47.5240 C   0  0  0  0  0  0  0  0  0  0  0  0
   59.8890   34.7320   46.4040 C   0  0  0  0  0  0  0  0  0  0  0  0
   59.0720   34.8370   45.2760 C   0  0  0  0  0  0  0  0  0  0  0  0
   57.8150   34.2290   45.2840 C   0  0  0  0  0  0  0  0  0  0  0  0
   57.0090   34.3170   44.1970 F   0  0  0  0  0  0  0  0  0  0  0  0
   57.3940   33.5530   46.3840 N   0  0  0  0  0  0  0  0  0  0  0  0
   58.1710   33.4400   47.4950 C   0  0  0  0  0  0  0  0  0  0  0  0
   59.9230   31.4500   49.4990 C   0  0  0  0  0  0  0  0  0  0  0  0
   59.3380   30.6250   48.3480 C   0  0  0  0  0  0  0  0  0  0  0  0
   57.9270   27.2880   46.3330 C   0  0  0  0  0  0  0  0  0  0  0  0
   58.2531   29.9085   45.9917 H   0  0  0  0  0  0  0  0  0  0  0  0
   58.9116   29.1299   44.5129 H   0  0  0  0  0  0  0  0  0  0  0  0
   58.5393   30.8872   44.5129 H   0  0  0  0  0  0  0  0  0  0  0  0
   55.0104   25.7516   45.4113 H   0  0  0  0  0  0  0  0  0  0  0  0
   56.1843   23.8019   46.4298 H   0  0  0  0  0  0  0  0  0  0  0  0
   58.4725   24.0753   47.3826 H   0  0  0  0  0  0  0  0  0  0  0  0
   60.0929   25.6673   48.3225 H   0  0  0  0  0  0  0  0  0  0  0  0
   60.7259   26.1129   46.6967 H   0  0  0  0  0  0  0  0  0  0  0  0
   60.1340   27.9170   48.9420 H   0  0  0  0  0  0  0  0  0  0  0  0
   62.0435   30.6972   46.2578 H   0  0  0  0  0  0  0  0  0  0  0  0
   60.6492   31.8335   46.2156 H   0  0  0  0  0  0  0  0  0  0  0  0
   62.6979   31.4294   48.4414 H   0  0  0  0  0  0  0  0  0  0  0  0
   62.3236   32.9310   47.4616 H   0  0  0  0  0  0  0  0  0  0  0  0
   61.5662   32.7122   49.9292 H   0  0  0  0  0  0  0  0  0  0  0  0
   59.6832   34.1918   49.6246 H   0  0  0  0  0  0  0  0  0  0  0  0
   61.1542   34.6016   48.5897 H   0  0  0  0  0  0  0  0  0  0  0  0
   60.8766   35.2163   46.4139 H   0  0  0  0  0  0  0  0  0  0  0  0
   59.4151   35.3927   44.3909 H   0  0  0  0  0  0  0  0  0  0  0  0
   57.7926   32.8989   48.3748 H   0  0  0  0  0  0  0  0  0  0  0  0
   60.4343   30.7648   50.1911 H   0  0  0  0  0  0  0  0  0  0  0  0
   59.0823   31.9789   49.9718 H   0  0  0  0  0  0  0  0  0  0  0  0
   58.8051   29.7545   48.7581 H   0  0  0  0  0  0  0  0  0  0  0  0
   58.6414   31.2521   47.7723 H   0  0  0  0  0  0  0  0  0  0  0  0
   58.4160   28.2732   46.3131 H   0  0  0  0  0  0  0  0  0  0  0  0
  1  2  1  0
  2  3  2  0
  2  4  2  0
  2  5  1  0
  5  6  1  0
  6  7  2  0
  7  8  1  0
  8  9  2  0
  9 10  1  0
 10 11  1  0
 11 12  1  0
 12 13  1  0
 13 14  2  0
 13 15  1  0
 15 16  1  0
 16 17  1  0
 17 18  1  0
 18 19  1  0
 19 20  1  0
 20 21  2  0
 21 22  1  0
 22 23  2  0
 23 24  1  0
 23 25  1  0
 25 26  2  0
 18 27  1  0
 27 28  1  0
 10 29  2  0
 29  6  1  0
 28 15  1  0
 26 20  1  0
  1 30  1  0
  1 31  1  0
  1 32  1  0
  7 33  1  0
  8 34  1  0
  9 35  1  0
 11 36  1  0
 11 37  1  0
 12 38  1  0
 16 39  1  0
 16 40  1  0
 17 41  1  0
 17 42  1  0
 18 43  1  0
 19 44  1  0
 19 45  1  0
 21 46  1  0
 22 47  1  0
 26 48  1  0
 27 49  1  0
 27 50  1  0
 28 51  1  0
 28 52  1  0
 29 53  1  0
M  CHG  1   5  -1
M  END
>  <UniqueID>  (85) 
74

>  <SMILES>  (85) 
CS(=O)(=O)[N-]c1cccc(CNC(=O)N2CCC(Cc3ccc(F)nc3)CC2)c1

>  <Energy>  (85) 
53.91554442621772

>  <Genealogy>  (85) 
CS(=O)(=O)[N-]c1cccc(CNC(=O)N2CCC(Cc3ccc(F)nc3)CC2)c1 (protonated)
CS(=O)(=O)[N-]c1cccc(CNC(=O)N2CCC(Cc3ccc(F)nc3)CC2)c1 (3D coordinates assigned)
CS(=O)(=O)[N-]c1cccc(CNC(=O)N2CCC(Cc3ccc(F)nc3)CC2)c1 (nonaromatic ring conformer: 53.91554442621772 kcal/mol)

>  <smiles>  (85) 
CS(=O)(=O)Nc1cccc(CNC(=O)N2CCC(Cc3ccc(F)nc3)CC2)c1

>  <score_type>  (85) 
oracle

>  <origin>  (85) 
adg

>  <m_score__min__energy>  (85) 
-10.949999999999999

>  <m_primary>  (85) 
energy

$$$$
85:0
     RDKit          3D

 65 68  0  0  0  0  0  0  0  0999 V2000
   56.4740   23.5180   47.8450 C   0  0  0  0  0  0  0  0  0  0  0  0
   57.6060   24.2770   47.4240 O   0  0  0  0  0  0  0  0  0  0  0  0
   57.5610   25.3030   46.4690 C   0  0  0  0  0  0  0  0  0  0  0  0
   58.3330   25.2750   45.2910 C   0  0  0  0  0  0  0  0  0  0  0  0
   58.2580   26.3300   44.3770 C   0  0  0  0  0  0  0  0  0  0  0  0
   57.4250   27.4330   44.6280 C   0  0  0  0  0  0  0  0  0  0  0  0
   57.3760   28.5090   43.6770 N   0  0  0  0  0  0  0  0  0  0  0  0
   56.4020   29.5600   43.7150 C   0  0  0  0  0  0  0  0  0  0  0  0
   55.6870   29.7360   44.7390 O   0  0  0  0  0  0  0  0  0  0  0  0
   56.2800   30.4470   42.5990 N   0  0  0  0  0  0  0  0  0  0  0  0
   57.1470   31.6040   42.3910 C   0  0  0  0  0  0  0  0  0  0  0  0
   58.1360   31.7790   43.5550 C   0  0  0  0  0  0  0  0  0  0  0  0
   57.9570   33.1110   44.3000 C   0  0  0  0  0  0  0  0  0  0  0  0
   58.7030   33.1550   45.6110 C   0  0  0  0  0  0  0  0  0  0  0  0
   59.5090   34.1890   45.9590 N   0  0  0  0  0  0  0  0  0  0  0  0
   60.0140   33.8000   47.1420 C   0  0  0  0  0  0  0  0  0  0  0  0
   59.5500   32.5800   47.4850 C   0  0  0  0  0  0  0  0  0  0  0  0
   58.6970   32.1560   46.5320 N   0  0  0  0  0  0  0  0  0  0  0  0
   57.9610   30.8860   46.4900 C   0  0  0  0  0  0  0  0  0  0  0  0
   58.9190   29.7240   46.4990 C   0  0  0  0  0  0  0  0  0  0  0  0
   58.9570   28.8490   47.6020 C   0  0  0  0  0  0  0  0  0  0  0  0
   59.8630   27.7840   47.6270 C   0  0  0  0  0  0  0  0  0  0  0  0
   60.7430   27.5900   46.5580 C   0  0  0  0  0  0  0  0  0  0  0  0
   60.7150   28.4540   45.4550 C   0  0  0  0  0  0  0  0  0  0  0  0
   59.8040   29.5160   45.4230 C   0  0  0  0  0  0  0  0  0  0  0  0
   59.8530   31.9680   48.8100 C   0  0  0  0  0  0  0  0  0  0  0  0
   61.2230   32.4510   49.3820 C   0  0  0  0  0  0  0  0  0  0  0  0
   61.8310   33.6660   48.7500 N   0  0  0  0  0  0  0  0  0  0  0  0
   63.2280   33.2650   47.7690 S   0  0  0  0  0  0  0  0  0  0  0  0
   63.1580   31.5880   47.1620 C   0  0  0  0  0  0  0  0  0  0  0  0
   64.4730   33.4260   48.5990 O   0  0  0  0  0  0  0  0  0  0  0  0
   63.3100   34.2060   46.5950 O   0  0  0  0  0  0  0  0  0  0  0  0
   60.9050   34.5750   48.0390 C   0  0  0  0  0  0  0  0  0  0  0  0
   56.6360   27.4470   45.7920 C   0  0  0  0  0  0  0  0  0  0  0  0
   56.7120   26.3940   46.7070 C   0  0  0  0  0  0  0  0  0  0  0  0
   56.4373   23.4934   48.9441 H   0  0  0  0  0  0  0  0  0  0  0  0
   55.5557   23.9836   47.4578 H   0  0  0  0  0  0  0  0  0  0  0  0
   56.5561   22.4917   47.4578 H   0  0  0  0  0  0  0  0  0  0  0  0
   58.9964   24.4209   45.0899 H   0  0  0  0  0  0  0  0  0  0  0  0
   58.8558   26.2963   43.4542 H   0  0  0  0  0  0  0  0  0  0  0  0
   58.1400   28.5720   42.9620 H   0  0  0  0  0  0  0  0  0  0  0  0
   57.7130   31.4643   41.4582 H   0  0  0  0  0  0  0  0  0  0  0  0
   56.5167   32.5036   42.3335 H   0  0  0  0  0  0  0  0  0  0  0  0
   57.9866   30.9554   44.2687 H   0  0  0  0  0  0  0  0  0  0  0  0
   59.1500   31.7742   43.1287 H   0  0  0  0  0  0  0  0  0  0  0  0
   58.3265   33.9245   43.6584 H   0  0  0  0  0  0  0  0  0  0  0  0
   56.8861   33.2220   44.5255 H   0  0  0  0  0  0  0  0  0  0  0  0
   57.3022   30.8195   47.3684 H   0  0  0  0  0  0  0  0  0  0  0  0
   57.3643   30.8496   45.5667 H   0  0  0  0  0  0  0  0  0  0  0  0
   58.2709   29.0040   48.4477 H   0  0  0  0  0  0  0  0  0  0  0  0
   59.8833   27.0991   48.4875 H   0  0  0  0  0  0  0  0  0  0  0  0
   61.4600   26.7561   46.5828 H   0  0  0  0  0  0  0  0  0  0  0  0
   61.4082   28.2977   44.6154 H   0  0  0  0  0  0  0  0  0  0  0  0
   59.7790   30.1906   44.5545 H   0  0  0  0  0  0  0  0  0  0  0  0
   59.0568   32.2426   49.5176 H   0  0  0  0  0  0  0  0  0  0  0  0
   59.9087   30.8778   48.6742 H   0  0  0  0  0  0  0  0  0  0  0  0
   61.0787   32.6691   50.4505 H   0  0  0  0  0  0  0  0  0  0  0  0
   61.9273   31.6336   49.1680 H   0  0  0  0  0  0  0  0  0  0  0  0
   63.1289   30.8911   48.0126 H   0  0  0  0  0  0  0  0  0  0  0  0
   62.2536   31.4571   46.5497 H   0  0  0  0  0  0  0  0  0  0  0  0
   64.0483   31.3822   46.5497 H   0  0  0  0  0  0  0  0  0  0  0  0
   60.2951   35.1202   48.7744 H   0  0  0  0  0  0  0  0  0  0  0  0
   61.4910   35.2848   47.4367 H   0  0  0  0  0  0  0  0  0  0  0  0
   55.9562   28.2905   45.9828 H   0  0  0  0  0  0  0  0  0  0  0  0
   56.1012   26.4207   47.6214 H   0  0  0  0  0  0  0  0  0  0  0  0
  1  2  1  0
  2  3  1  0
  3  4  2  0
  4  5  1  0
  5  6  2  0
  6  7  1  0
  7  8  1  0
  8  9  2  0
  8 10  1  0
 10 11  1  0
 11 12  1  0
 12 13  1  0
 13 14  1  0
 14 15  2  0
 15 16  1  0
 16 17  2  0
 17 18  1  0
 18 19  1  0
 19 20  1  0
 20 21  2  0
 21 22  1  0
 22 23  2  0
 23 24  1  0
 24 25  2  0
 17 26  1  0
 26 27  1  0
 27 28  1  0
 28 29  1  0
 29 30  1  0
 29 31  2  0
 29 32  2  0
 28 33  1  0
  6 34  1  0
 34 35  2  0
 35  3  1  0
 18 14  1  0
 25 20  1  0
 33 16  1  0
  1 36  1  0
  1 37  1  0
  1 38  1  0
  4 39  1  0
  5 40  1  0
  7 41  1  0
 11 42  1  0
 11 43  1  0
 12 44  1  0
 12 45  1  0
 13 46  1  0
 13 47  1  0
 19 48  1  0
 19 49  1  0
 21 50  1  0
 22 51  1  0
 23 52  1  0
 24 53  1  0
 25 54  1  0
 26 55  1  0
 26 56  1  0
 27 57  1  0
 27 58  1  0
 30 59  1  0
 30 60  1  0
 30 61  1  0
 33 62  1  0
 33 63  1  0
 34 64  1  0
 35 65  1  0
M  CHG  1  10  -1
M  END
>  <UniqueID>  (86) 
75

>  <SMILES>  (86) 
COc1ccc(NC(=O)[N-]CCCc2nc3c(n2Cc2ccccc2)CCN(S(C)(=O)=O)C3)cc1

>  <Energy>  (86) 
102.00015802884798

>  <Genealogy>  (86) 
COc1ccc(NC(=O)[N-]CCCc2nc3c(n2Cc2ccccc2)CCN(S(C)(=O)=O)C3)cc1 (protonated)
COc1ccc(NC(=O)[N-]CCCc2nc3c(n2Cc2ccccc2)CCN(S(C)(=O)=O)C3)cc1 (3D coordinates assigned)
COc1ccc(NC(=O)[N-]CCCc2nc3c(n2Cc2ccccc2)CCN(S(C)(=O)=O)C3)cc1 (nonaromatic ring conformer: 102.00015802884798 kcal/mol)

>  <smiles>  (86) 
COc1ccc(NC(=O)NCCCc2nc3c(n2Cc2ccccc2)CCN(S(C)(=O)=O)C3)cc1

>  <score_type>  (86) 
oracle

>  <origin>  (86) 
adg

>  <m_score__min__energy>  (86) 
-11

>  <m_primary>  (86) 
energy

$$$$
86:0
     RDKit          3D

 58 61  0  0  0  0  0  0  0  0999 V2000
   56.3814   27.7270   44.5582 H   0  0  0  0  0  0  0  0  0  0  0  0
   56.9910   28.5050   45.0410 C   0  0  0  0  0  0  0  0  0  0  0  0
   56.6690   29.8160   44.8780 N   0  0  0  0  0  0  0  0  0  0  0  0
   57.4000   30.7930   45.4740 C   0  0  0  0  0  0  0  0  0  0  0  0
   57.0990   32.0420   45.2680 N   0  0  0  0  0  0  0  0  0  0  0  0
   57.9560   33.1600   45.5660 C   0  0  0  0  0  0  0  0  0  0  0  0
   58.4700   33.9790   44.5410 C   0  0  0  0  0  0  0  0  0  0  0  0
   58.2297   33.7562   43.4909 H   0  0  0  0  0  0  0  0  0  0  0  0
   59.2820   35.0710   44.8500 C   0  0  0  0  0  0  0  0  0  0  0  0
   59.6677   35.7140   44.0452 H   0  0  0  0  0  0  0  0  0  0  0  0
   59.6050   35.3480   46.1780 C   0  0  0  0  0  0  0  0  0  0  0  0
   60.2359   36.2159   46.4203 H   0  0  0  0  0  0  0  0  0  0  0  0
   59.1280   34.5240   47.2020 C   0  0  0  0  0  0  0  0  0  0  0  0
   59.3972   34.7384   48.2468 H   0  0  0  0  0  0  0  0  0  0  0  0
   58.3040   33.4200   46.9030 C   0  0  0  0  0  0  0  0  0  0  0  0
   57.8030   32.5720   47.9030 O   0  0  0  0  0  0  0  0  0  0  0  0
   58.5060   32.2250   49.0920 C   0  0  0  0  0  0  0  0  0  0  0  0
   57.9106   32.5189   49.9690 H   0  0  0  0  0  0  0  0  0  0  0  0
   58.6777   31.1387   49.1127 H   0  0  0  0  0  0  0  0  0  0  0  0
   59.4727   32.7494   49.1127 H   0  0  0  0  0  0  0  0  0  0  0  0
   58.4730   30.4540   46.2340 N   0  0  0  0  0  0  0  0  0  0  0  0
   58.8480   29.1630   46.4230 C   0  0  0  0  0  0  0  0  0  0  0  0
   59.9910   28.8750   47.2480 N   0  0  0  0  0  0  0  0  0  0  0  0
   60.1380   27.8990   47.5930 H   0  0  0  0  0  0  0  0  0  0  0  0
   60.7670   29.9210   47.8560 C   0  0  0  0  0  0  0  0  0  0  0  0
   61.2750   30.9480   47.0500 C   0  0  0  0  0  0  0  0  0  0  0  0
   61.0141   30.9834   45.9820 H   0  0  0  0  0  0  0  0  0  0  0  0
   62.1100   31.9270   47.5920 C   0  0  0  0  0  0  0  0  0  0  0  0
   62.5186   32.7160   46.9435 H   0  0  0  0  0  0  0  0  0  0  0  0
   62.4320   31.9120   48.9580 C   0  0  0  0  0  0  0  0  0  0  0  0
   63.3340   32.8920   49.5140 N   0  0  0  0  0  0  0  0  0  0  0  0
   64.7000   33.0570   49.0110 C   0  0  0  0  0  0  0  0  0  0  0  0
   64.8744   32.3445   48.1913 H   0  0  0  0  0  0  0  0  0  0  0  0
   64.8270   34.0867   48.6454 H   0  0  0  0  0  0  0  0  0  0  0  0
   65.7150   32.7940   50.1390 C   0  0  0  0  0  0  0  0  0  0  0  0
   65.9607   31.7218   50.1416 H   0  0  0  0  0  0  0  0  0  0  0  0
   66.5919   33.4260   49.9351 H   0  0  0  0  0  0  0  0  0  0  0  0
   65.2180   33.1650   51.4920 N   0  0  0  0  0  0  0  0  0  0  0  0
   64.8190   31.9810   52.2730 C   0  0  0  0  0  0  0  0  0  0  0  0
   64.8953   32.2073   53.3468 H   0  0  0  0  0  0  0  0  0  0  0  0
   63.7808   31.7127   52.0276 H   0  0  0  0  0  0  0  0  0  0  0  0
   65.4830   31.1391   52.0276 H   0  0  0  0  0  0  0  0  0  0  0  0
   64.1490   34.1870   51.4590 C   0  0  0  0  0  0  0  0  0  0  0  0
   63.8393   34.4116   52.4903 H   0  0  0  0  0  0  0  0  0  0  0  0
   64.5484   35.0833   50.9618 H   0  0  0  0  0  0  0  0  0  0  0  0
   62.9220   33.7060   50.6640 C   0  0  0  0  0  0  0  0  0  0  0  0
   62.2797   33.1022   51.3219 H   0  0  0  0  0  0  0  0  0  0  0  0
   62.3729   34.5852   50.2958 H   0  0  0  0  0  0  0  0  0  0  0  0
   61.8990   30.9000   49.7740 C   0  0  0  0  0  0  0  0  0  0  0  0
   62.1407   30.8837   50.8470 H   0  0  0  0  0  0  0  0  0  0  0  0
   61.0590   29.9060   49.2350 C   0  0  0  0  0  0  0  0  0  0  0  0
   60.4970   28.9010   50.0390 O   0  0  0  0  0  0  0  0  0  0  0  0
   59.8840   29.1260   51.3040 C   0  0  0  0  0  0  0  0  0  0  0  0
   60.5912   28.8664   52.1055 H   0  0  0  0  0  0  0  0  0  0  0  0
   59.6030   30.1859   51.3920 H   0  0  0  0  0  0  0  0  0  0  0  0
   58.9841   28.4996   51.3920 H   0  0  0  0  0  0  0  0  0  0  0  0
   58.0940   28.1420   45.8200 C   0  0  0  0  0  0  0  0  0  0  0  0
   58.5050   26.4410   45.9960 Cl  0  0  0  0  0  0  0  0  0  0  0  0
  1  2  1  0
  2  3  2  0
  3  4  1  0
  4  5  2  0
  5  6  1  0
  6  7  2  0
  7  8  1  0
  7  9  1  0
  9 10  1  0
  9 11  2  0
 11 12  1  0
 11 13  1  0
 13 14  1  0
 13 15  2  0
 15 16  1  0
 16 17  1  0
 17 18  1  0
 17 19  1  0
 17 20  1  0
  4 21  1  0
 21 22  1  0
 22 23  1  0
 23 24  1  0
 23 25  1  0
 25 26  2  0
 26 27  1  0
 26 28  1  0
 28 29  1  0
 28 30  2  0
 30 31  1  0
 31 32  1  0
 32 33  1  0
 32 34  1  0
 32 35  1  0
 35 36  1  0
 35 37  1  0
 35 38  1  0
 38 39  1  0
 39 40  1  0
 39 41  1  0
 39 42  1  0
 38 43  1  0
 43 44  1  0
 43 45  1  0
 43 46  1  0
 46 47  1  0
 46 48  1  0
 30 49  1  0
 49 50  1  0
 49 51  2  0
 51 52  1  0
 52 53  1  0
 53 54  1  0
 53 55  1  0
 53 56  1  0
 22 57  2  0
 57 58  1  0
 57  2  1  0
 15  6  1  0
 51 25  1  0
 46 31  1  0
M  CHG  1  21  -1
M  END
>  <UniqueID>  (87) 
76

>  <SMILES>  (87) 
COc1ccccc1/N=c1/ncc(Cl)c(Nc2ccc(N3CCN(C)CC3)cc2OC)[n-]1

>  <Energy>  (87) 
80.57001315871337

>  <Genealogy>  (87) 
COc1ccccc1N=c1ncc(Cl)c(Nc2ccc(N3CCN(C)CC3)cc2OC)[n-]1 (protonated)
COc1ccccc1/N=c1/ncc(Cl)c(Nc2ccc(N3CCN(C)CC3)cc2OC)[n-]1 (cis-trans isomerization)
COc1ccccc1/N=c1/ncc(Cl)c(Nc2ccc(N3CCN(C)CC3)cc2OC)[n-]1 (3D coordinates assigned)
COc1ccccc1/N=c1/ncc(Cl)c(Nc2ccc(N3CCN(C)CC3)cc2OC)[n-]1 (nonaromatic ring conformer: 80.57001315871337 kcal/mol)

>  <smiles>  (87) 
COc1ccccc1N=c1ncc(Cl)c(Nc2ccc(N3CCN(C)CC3)cc2OC)[nH]1

>  <score_type>  (87) 
oracle

>  <origin>  (87) 
adg

>  <m_score__min__energy>  (87) 
-10.77

>  <m_primary>  (87) 
energy

$$$$
87:0
     RDKit          3D

 73 77  0  0  0  0  0  0  0  0999 V2000
   55.1230   30.8720   52.3010 C   0  0  0  0  0  0  0  0  0  0  0  0
   56.4340   31.6090   52.5580 C   0  0  0  0  0  0  0  0  0  0  0  0
   57.5370   31.1000   51.6680 C   0  0  0  0  0  0  0  0  0  0  0  0
   57.9550   31.8390   50.5510 C   0  0  0  0  0  0  0  0  0  0  0  0
   58.9070   31.3130   49.6760 C   0  0  0  0  0  0  0  0  0  0  0  0
   59.4840   30.0500   49.9160 C   0  0  0  0  0  0  0  0  0  0  0  0
   60.4040   29.4150   48.9330 C   0  0  0  0  0  0  0  0  0  0  0  0
   60.7820   28.2290   49.1150 O   0  0  0  0  0  0  0  0  0  0  0  0
   60.8030   30.0750   47.7270 N   0  0  0  0  0  0  0  0  0  0  0  0
   59.9470   30.8160   46.8480 C   0  0  0  0  0  0  0  0  0  0  0  0
   58.9580   30.1690   46.0910 C   0  0  0  0  0  0  0  0  0  0  0  0
   58.1460   30.9010   45.2130 C   0  0  0  0  0  0  0  0  0  0  0  0
   56.9410   30.0770   44.2240 S   0  0  0  0  0  0  0  0  0  0  0  0
   57.0650   30.5430   42.8000 O   0  0  0  0  0  0  0  0  0  0  0  0
   55.5660   30.4360   44.7140 O   0  0  0  0  0  0  0  0  0  0  0  0
   57.1470   28.3420   44.2760 N   0  0  0  0  0  0  0  0  0  0  0  0
   56.8770   27.8280   45.6330 C   0  0  0  0  0  0  0  0  0  0  0  0
   57.5020   26.4390   45.8120 C   0  0  0  0  0  0  0  0  0  0  0  0
   58.9190   26.4230   45.6760 O   0  0  0  0  0  0  0  0  0  0  0  0
   59.4290   27.4820   44.8720 C   0  0  0  0  0  0  0  0  0  0  0  0
   58.4660   27.9240   43.7500 C   0  0  0  0  0  0  0  0  0  0  0  0
   58.3070   32.2890   45.1150 C   0  0  0  0  0  0  0  0  0  0  0  0
   59.2860   32.9380   45.8690 C   0  0  0  0  0  0  0  0  0  0  0  0
   60.1070   32.2100   46.7380 C   0  0  0  0  0  0  0  0  0  0  0  0
   61.1880   32.8730   47.4080 N   0  0  0  0  0  0  0  0  0  0  0  0
   60.8990   33.5860   48.6620 C   0  0  0  0  0  0  0  0  0  0  0  0
   62.0160   34.5760   48.9980 C   0  0  0  0  0  0  0  0  0  0  0  0
   63.3120   33.9130   48.8480 N   0  0  0  0  0  0  0  0  0  0  0  0
   63.9670   33.3310   49.9860 C   0  0  0  0  0  0  0  0  0  0  0  0
   65.1320   33.6940   50.2880 O   0  0  0  0  0  0  0  0  0  0  0  0
   63.3270   32.2470   50.7450 C   0  0  0  0  0  0  0  0  0  0  0  0
   63.7110   30.9170   50.5170 C   0  0  0  0  0  0  0  0  0  0  0  0
   63.0920   29.8760   51.2160 C   0  0  0  0  0  0  0  0  0  0  0  0
   62.0980   30.1610   52.1560 C   0  0  0  0  0  0  0  0  0  0  0  0
   61.7240   31.4870   52.4020 C   0  0  0  0  0  0  0  0  0  0  0  0
   62.3380   32.5300   51.7000 C   0  0  0  0  0  0  0  0  0  0  0  0
   63.6100   33.3760   47.5240 C   0  0  0  0  0  0  0  0  0  0  0  0
   62.5400   32.3510   47.1490 C   0  0  0  0  0  0  0  0  0  0  0  0
   59.1000   29.3410   51.0680 C   0  0  0  0  0  0  0  0  0  0  0  0
   58.1360   29.8610   51.9350 C   0  0  0  0  0  0  0  0  0  0  0  0
   54.6557   30.6093   53.2615 H   0  0  0  0  0  0  0  0  0  0  0  0
   54.4440   31.5206   51.7281 H   0  0  0  0  0  0  0  0  0  0  0  0
   55.3242   29.9548   51.7281 H   0  0  0  0  0  0  0  0  0  0  0  0
   56.2849   32.6816   52.3646 H   0  0  0  0  0  0  0  0  0  0  0  0
   56.7274   31.4367   53.6041 H   0  0  0  0  0  0  0  0  0  0  0  0
   57.5309   32.8366   50.3641 H   0  0  0  0  0  0  0  0  0  0  0  0
   59.2099   31.8904   48.7900 H   0  0  0  0  0  0  0  0  0  0  0  0
   58.8192   29.0820   46.1870 H   0  0  0  0  0  0  0  0  0  0  0  0
   57.3074   28.5175   46.3742 H   0  0  0  0  0  0  0  0  0  0  0  0
   55.7890   27.7511   45.7758 H   0  0  0  0  0  0  0  0  0  0  0  0
   57.2461   26.0707   46.8165 H   0  0  0  0  0  0  0  0  0  0  0  0
   57.0970   25.8008   45.0128 H   0  0  0  0  0  0  0  0  0  0  0  0
   59.6270   28.3475   45.5214 H   0  0  0  0  0  0  0  0  0  0  0  0
   60.3414   27.1071   44.3852 H   0  0  0  0  0  0  0  0  0  0  0  0
   58.9161   28.7701   43.2101 H   0  0  0  0  0  0  0  0  0  0  0  0
   58.3061   27.0630   43.0844 H   0  0  0  0  0  0  0  0  0  0  0  0
   57.6596   32.8696   44.4414 H   0  0  0  0  0  0  0  0  0  0  0  0
   59.4130   34.0270   45.7799 H   0  0  0  0  0  0  0  0  0  0  0  0
   59.9519   34.1349   48.5540 H   0  0  0  0  0  0  0  0  0  0  0  0
   60.8260   32.8495   49.4758 H   0  0  0  0  0  0  0  0  0  0  0  0
   61.9622   35.4363   48.3146 H   0  0  0  0  0  0  0  0  0  0  0  0
   61.8989   34.9254   50.0344 H   0  0  0  0  0  0  0  0  0  0  0  0
   64.5016   30.6923   49.7859 H   0  0  0  0  0  0  0  0  0  0  0  0
   63.3873   28.8335   51.0261 H   0  0  0  0  0  0  0  0  0  0  0  0
   61.6088   29.3419   52.7034 H   0  0  0  0  0  0  0  0  0  0  0  0
   60.9467   31.7094   53.1479 H   0  0  0  0  0  0  0  0  0  0  0  0
   62.0456   33.5720   51.8966 H   0  0  0  0  0  0  0  0  0  0  0  0
   63.6125   34.1926   46.7870 H   0  0  0  0  0  0  0  0  0  0  0  0
   64.5987   32.8940   47.5329 H   0  0  0  0  0  0  0  0  0  0  0  0
   62.6329   32.1104   46.0797 H   0  0  0  0  0  0  0  0  0  0  0  0
   62.6894   31.4511   47.7637 H   0  0  0  0  0  0  0  0  0  0  0  0
   59.5630   28.3679   51.2885 H   0  0  0  0  0  0  0  0  0  0  0  0
   57.8453   29.2951   52.8323 H   0  0  0  0  0  0  0  0  0  0  0  0
  1  2  1  0
  2  3  1  0
  3  4  2  0
  4  5  1  0
  5  6  2  0
  6  7  1  0
  7  8  2  0
  7  9  1  0
  9 10  1  0
 10 11  2  0
 11 12  1  0
 12 13  1  0
 13 14  2  0
 13 15  2  0
 13 16  1  0
 16 17  1  0
 17 18  1  0
 18 19  1  0
 19 20  1  0
 20 21  1  0
 12 22  2  0
 22 23  1  0
 23 24  2  0
 24 25  1  0
 25 26  1  0
 26 27  1  0
 27 28  1  0
 28 29  1  0
 29 30  2  0
 29 31  1  0
 31 32  2  0
 32 33  1  0
 33 34  2  0
 34 35  1  0
 35 36  2  0
 28 37  1  0
 37 38  1  0
  6 39  1  0
 39 40  2  0
 40  3  1  0
 24 10  1  0
 38 25  1  0
 21 16  1  0
 36 31  1  0
  1 41  1  0
  1 42  1  0
  1 43  1  0
  2 44  1  0
  2 45  1  0
  4 46  1  0
  5 47  1  0
 11 48  1  0
 17 49  1  0
 17 50  1  0
 18 51  1  0
 18 52  1  0
 20 53  1  0
 20 54  1  0
 21 55  1  0
 21 56  1  0
 22 57  1  0
 23 58  1  0
 26 59  1  0
 26 60  1  0
 27 61  1  0
 27 62  1  0
 32 63  1  0
 33 64  1  0
 34 65  1  0
 35 66  1  0
 36 67  1  0
 37 68  1  0
 37 69  1  0
 38 70  1  0
 38 71  1  0
 39 72  1  0
 40 73  1  0
M  CHG  1   9  -1
M  END
>  <UniqueID>  (88) 
77

>  <SMILES>  (88) 
CCc1ccc(C(=O)[N-]c2cc(S(=O)(=O)N3CCOCC3)ccc2N2CCN(C(=O)c3ccccc3)CC2)cc1

>  <Energy>  (88) 
105.12165946406556

>  <Genealogy>  (88) 
CCc1ccc(C(=O)[N-]c2cc(S(=O)(=O)N3CCOCC3)ccc2N2CCN(C(=O)c3ccccc3)CC2)cc1 (protonated)
CCc1ccc(C(=O)[N-]c2cc(S(=O)(=O)N3CCOCC3)ccc2N2CCN(C(=O)c3ccccc3)CC2)cc1 (3D coordinates assigned)
CCc1ccc(C(=O)[N-]c2cc(S(=O)(=O)N3CCOCC3)ccc2N2CCN(C(=O)c3ccccc3)CC2)cc1 (nonaromatic ring conformer: 105.12165946406556 kcal/mol)

>  <smiles>  (88) 
CCc1ccc(C(=O)Nc2cc(S(=O)(=O)N3CCOCC3)ccc2N2CCN(C(=O)c3ccccc3)CC2)cc1

>  <score_type>  (88) 
oracle

>  <origin>  (88) 
adg

>  <m_score__min__energy>  (88) 
-11.59

>  <m_primary>  (88) 
energy

$$$$
88:0
     RDKit          3D

 38 40  0  0  0  0  0  0  0  0999 V2000
   64.0770   33.4650   47.5120 N   0  0  0  0  0  0  0  0  0  0  0  0
   62.4390   32.9200   47.4120 S   0  0  0  0  0  0  0  0  0  0  0  0
   61.7350   33.6760   46.3210 O   0  0  0  0  0  0  0  0  0  0  0  0
   62.4550   31.4550   47.0790 O   0  0  0  0  0  0  0  0  0  0  0  0
   61.6030   33.1780   48.9540 C   0  0  0  0  0  0  0  0  0  0  0  0
   62.3330   33.6700   50.0480 C   0  0  0  0  0  0  0  0  0  0  0  0
   61.7220   33.8420   51.2920 C   0  0  0  0  0  0  0  0  0  0  0  0
   60.3750   33.5240   51.4600 C   0  0  0  0  0  0  0  0  0  0  0  0
   59.6310   33.0440   50.3810 C   0  0  0  0  0  0  0  0  0  0  0  0
   60.2270   32.8770   49.1200 C   0  0  0  0  0  0  0  0  0  0  0  0
   59.3880   32.3910   48.0070 C   0  0  0  0  0  0  0  0  0  0  0  0
   59.3710   31.0290   47.6730 C   0  0  0  0  0  0  0  0  0  0  0  0
   58.5810   30.5740   46.6140 C   0  0  0  0  0  0  0  0  0  0  0  0
   57.8200   31.4820   45.8570 C   0  0  0  0  0  0  0  0  0  0  0  0
   56.9760   31.0420   44.7840 N   0  0  0  0  0  0  0  0  0  0  0  0
   56.3450   29.7600   44.6690 C   0  0  0  0  0  0  0  0  0  0  0  0
   55.1060   29.6740   44.8730 O   0  0  0  0  0  0  0  0  0  0  0  0
   57.1130   28.5320   44.2620 C   0  0  0  0  0  0  0  0  0  0  0  0
   57.3860   27.6640   45.4520 C   0  0  0  0  0  0  0  0  0  0  0  0
   58.8950   27.4650   46.1780 S   0  0  0  0  0  0  0  0  0  0  0  0
   58.3050   26.3390   47.2790 C   0  0  0  0  0  0  0  0  0  0  0  0
   59.0040   25.7800   48.1640 O   0  0  0  0  0  0  0  0  0  0  0  0
   56.9890   26.0890   47.1160 N   0  0  0  0  0  0  0  0  0  0  0  0
   56.4790   26.8230   46.0920 C   0  0  0  0  0  0  0  0  0  0  0  0
   55.1430   26.7250   45.7200 O   0  0  0  0  0  0  0  0  0  0  0  0
   57.8300   32.8390   46.2000 C   0  0  0  0  0  0  0  0  0  0  0  0
   58.6200   33.2950   47.2600 C   0  0  0  0  0  0  0  0  0  0  0  0
   64.6760   32.7300   47.0720 H   0  0  0  0  0  0  0  0  0  0  0  0
   63.3964   33.9224   49.9240 H   0  0  0  0  0  0  0  0  0  0  0  0
   62.3047   34.2291   52.1409 H   0  0  0  0  0  0  0  0  0  0  0  0
   59.8984   33.6514   52.4432 H   0  0  0  0  0  0  0  0  0  0  0  0
   58.5687   32.7943   50.5193 H   0  0  0  0  0  0  0  0  0  0  0  0
   59.9817   30.3164   48.2467 H   0  0  0  0  0  0  0  0  0  0  0  0
   58.5544   29.5013   46.3717 H   0  0  0  0  0  0  0  0  0  0  0  0
   56.5237   27.9637   43.5273 H   0  0  0  0  0  0  0  0  0  0  0  0
   58.0719   28.8425   43.8214 H   0  0  0  0  0  0  0  0  0  0  0  0
   57.2128   33.5510   45.6324 H   0  0  0  0  0  0  0  0  0  0  0  0
   58.6388   34.3664   47.5084 H   0  0  0  0  0  0  0  0  0  0  0  0
  1  2  1  0
  2  3  2  0
  2  4  2  0
  2  5  1  0
  5  6  2  0
  6  7  1  0
  7  8  2  0
  8  9  1  0
  9 10  2  0
 10 11  1  0
 11 12  2  0
 12 13  1  0
 13 14  2  0
 14 15  1  0
 15 16  1  0
 16 17  2  0
 16 18  1  0
 18 19  1  0
 19 20  1  0
 20 21  1  0
 21 22  2  0
 21 23  1  0
 23 24  1  0
 24 25  1  0
 14 26  1  0
 26 27  2  0
 10  5  1  0
 27 11  1  0
 24 19  2  0
  1 28  1  0
  6 29  1  0
  7 30  1  0
  8 31  1  0
  9 32  1  0
 12 33  1  0
 13 34  1  0
 18 35  1  0
 18 36  1  0
 26 37  1  0
 27 38  1  0
M  CHG  4   1  -1  15  -1  23  -1  25  -1
M  END
>  <UniqueID>  (89) 
78

>  <SMILES>  (89) 
[NH-]S(=O)(=O)c1ccccc1-c1ccc([N-]C(=O)Cc2sc(=O)[n-]c2[O-])cc1

>  <Energy>  (89) 
83.70952467096944

>  <Genealogy>  (89) 
[NH-]S(=O)(=O)c1ccccc1-c1ccc([N-]C(=O)Cc2sc(=O)[n-]c2[O-])cc1 (protonated)
[NH-]S(=O)(=O)c1ccccc1-c1ccc([N-]C(=O)Cc2sc(=O)[n-]c2[O-])cc1 (3D coordinates assigned)
[NH-]S(=O)(=O)c1ccccc1-c1ccc([N-]C(=O)Cc2sc(=O)[n-]c2[O-])cc1 (optimized conformer: 83.70952467096944 kcal/mol)

>  <smiles>  (89) 
NS(=O)(=O)c1ccccc1-c1ccc(NC(=O)Cc2sc(=O)[nH]c2O)cc1

>  <score_type>  (89) 
oracle

>  <origin>  (89) 
adg

>  <m_score__min__energy>  (89) 
-17.48

>  <m_primary>  (89) 
energy

$$$$
89:0
     RDKit          3D

 50 52  0  0  0  0  0  0  0  0999 V2000
   60.7260   34.2490   48.0770 C   0  0  0  0  0  0  0  0  0  0  0  0
   59.6760   33.9550   47.0380 C   0  0  0  0  0  0  0  0  0  0  0  0
   59.5450   34.8060   45.9260 C   0  0  0  0  0  0  0  0  0  0  0  0
   58.5810   34.5530   44.9490 C   0  0  0  0  0  0  0  0  0  0  0  0
   57.7320   33.4520   45.0710 C   0  0  0  0  0  0  0  0  0  0  0  0
   57.8400   32.6040   46.1750 C   0  0  0  0  0  0  0  0  0  0  0  0
   58.8050   32.8480   47.1670 C   0  0  0  0  0  0  0  0  0  0  0  0
   58.8790   31.9360   48.3300 C   0  0  0  0  0  0  0  0  0  0  0  0
   58.1160   32.2470   49.4620 C   0  0  0  0  0  0  0  0  0  0  0  0
   58.1160   31.4030   50.5670 C   0  0  0  0  0  0  0  0  0  0  0  0
   58.8690   30.2330   50.5530 C   0  0  0  0  0  0  0  0  0  0  0  0
   59.6520   29.8900   49.4370 C   0  0  0  0  0  0  0  0  0  0  0  0
   60.4070   28.5710   49.4830 C   0  0  0  0  0  0  0  0  0  0  0  0
   59.9160   27.6100   48.4800 N   0  0  0  0  0  0  0  0  0  0  0  0
   60.9460   27.2860   47.4780 C   0  0  0  0  0  0  0  0  0  0  0  0
   60.4320   26.2350   46.4890 C   0  0  0  0  0  0  0  0  0  0  0  0
   58.9390   26.3420   46.3300 C   0  0  0  0  0  0  0  0  0  0  0  0
   58.1000   25.3250   46.8160 C   0  0  0  0  0  0  0  0  0  0  0  0
   56.7100   25.4430   46.7000 C   0  0  0  0  0  0  0  0  0  0  0  0
   56.1500   26.5800   46.1090 C   0  0  0  0  0  0  0  0  0  0  0  0
   54.7700   26.6950   45.9950 O   0  0  0  0  0  0  0  0  0  0  0  0
   56.9790   27.6020   45.6370 C   0  0  0  0  0  0  0  0  0  0  0  0
   58.3680   27.4870   45.7510 C   0  0  0  0  0  0  0  0  0  0  0  0
   59.6790   30.7620   48.3090 C   0  0  0  0  0  0  0  0  0  0  0  0
   60.4890   30.4430   47.0710 C   0  0  0  0  0  0  0  0  0  0  0  0
   60.2927   34.1277   49.0808 H   0  0  0  0  0  0  0  0  0  0  0  0
   61.5683   33.5521   47.9545 H   0  0  0  0  0  0  0  0  0  0  0  0
   61.0839   35.2819   47.9545 H   0  0  0  0  0  0  0  0  0  0  0  0
   60.2078   35.6782   45.8255 H   0  0  0  0  0  0  0  0  0  0  0  0
   58.4902   35.2227   44.0811 H   0  0  0  0  0  0  0  0  0  0  0  0
   56.9769   33.2521   44.2965 H   0  0  0  0  0  0  0  0  0  0  0  0
   57.1658   31.7399   46.2688 H   0  0  0  0  0  0  0  0  0  0  0  0
   57.5119   33.1661   49.4773 H   0  0  0  0  0  0  0  0  0  0  0  0
   57.5193   31.6609   51.4544 H   0  0  0  0  0  0  0  0  0  0  0  0
   58.8513   29.5667   51.4280 H   0  0  0  0  0  0  0  0  0  0  0  0
   61.4727   28.7667   49.2933 H   0  0  0  0  0  0  0  0  0  0  0  0
   60.2505   28.1284   50.4778 H   0  0  0  0  0  0  0  0  0  0  0  0
   59.5920   26.7320   48.9470 H   0  0  0  0  0  0  0  0  0  0  0  0
   59.0950   28.0430   47.9950 H   0  0  0  0  0  0  0  0  0  0  0  0
   61.2128   28.1998   46.9268 H   0  0  0  0  0  0  0  0  0  0  0  0
   61.8271   26.8805   47.9968 H   0  0  0  0  0  0  0  0  0  0  0  0
   60.9118   26.3930   45.5118 H   0  0  0  0  0  0  0  0  0  0  0  0
   60.6765   25.2347   46.8759 H   0  0  0  0  0  0  0  0  0  0  0  0
   58.5369   24.4332   47.2892 H   0  0  0  0  0  0  0  0  0  0  0  0
   56.0574   24.6404   47.0742 H   0  0  0  0  0  0  0  0  0  0  0  0
   56.5381   28.4978   45.1753 H   0  0  0  0  0  0  0  0  0  0  0  0
   59.0163   28.2970   45.3855 H   0  0  0  0  0  0  0  0  0  0  0  0
   61.4746   30.0549   47.3676 H   0  0  0  0  0  0  0  0  0  0  0  0
   59.9615   29.6855   46.4728 H   0  0  0  0  0  0  0  0  0  0  0  0
   60.6197   31.3568   46.4728 H   0  0  0  0  0  0  0  0  0  0  0  0
  1  2  1  0
  2  3  2  0
  3  4  1  0
  4  5  2  0
  5  6  1  0
  6  7  2  0
  7  8  1  0
  8  9  2  0
  9 10  1  0
 10 11  2  0
 11 12  1  0
 12 13  1  0
 13 14  1  0
 14 15  1  0
 15 16  1  0
 16 17  1  0
 17 18  2  0
 18 19  1  0
 19 20  2  0
 20 21  1  0
 20 22  1  0
 22 23  2  0
 12 24  2  0
 24 25  1  0
  7  2  1  0
 24  8  1  0
 23 17  1  0
  1 26  1  0
  1 27  1  0
  1 28  1  0
  3 29  1  0
  4 30  1  0
  5 31  1  0
  6 32  1  0
  9 33  1  0
 10 34  1  0
 11 35  1  0
 13 36  1  0
 13 37  1  0
 14 38  1  0
 14 39  1  0
 15 40  1  0
 15 41  1  0
 16 42  1  0
 16 43  1  0
 18 44  1  0
 19 45  1  0
 22 46  1  0
 23 47  1  0
 25 48  1  0
 25 49  1  0
 25 50  1  0
M  CHG  2  14   1  21  -1
M  END
>  <UniqueID>  (90) 
79

>  <SMILES>  (90) 
Cc1ccccc1-c1cccc(C[NH2+]CCc2ccc([O-])cc2)c1C

>  <Energy>  (90) 
60.20391909839364

>  <Genealogy>  (90) 
Cc1ccccc1-c1cccc(C[NH2+]CCc2ccc([O-])cc2)c1C (protonated)
Cc1ccccc1-c1cccc(C[NH2+]CCc2ccc([O-])cc2)c1C (3D coordinates assigned)
Cc1ccccc1-c1cccc(C[NH2+]CCc2ccc([O-])cc2)c1C (optimized conformer: 60.20391909839364 kcal/mol)

>  <smiles>  (90) 
Cc1ccccc1-c1cccc(CNCCc2ccc(O)cc2)c1C

>  <score_type>  (90) 
oracle

>  <origin>  (90) 
adg

>  <m_score__min__energy>  (90) 
-10.98

>  <m_primary>  (90) 
energy

$$$$
90:0
     RDKit          3D

 32 34  0  0  0  0  0  0  0  0999 V2000
   58.9165   30.1556   51.1892 H   0  0  0  0  0  0  0  0  0  0  0  0
   59.1740   30.2070   50.1210 C   0  0  0  0  0  0  0  0  0  0  0  0
   59.9830   29.0200   49.2410 S   0  0  0  0  0  0  0  0  0  0  0  0
   59.9150   29.8900   47.8080 C   0  0  0  0  0  0  0  0  0  0  0  0
   60.4250   29.4670   46.6890 N   0  0  0  0  0  0  0  0  0  0  0  0
   59.8190   29.5620   45.3920 C   0  0  0  0  0  0  0  0  0  0  0  0
   60.1680   28.7460   44.5000 O   0  0  0  0  0  0  0  0  0  0  0  0
   58.7050   30.5020   45.1380 C   0  0  0  0  0  0  0  0  0  0  0  0
   58.8440   31.8380   45.1570 N   0  0  0  0  0  0  0  0  0  0  0  0
   57.5910   32.3000   44.9860 C   0  0  0  0  0  0  0  0  0  0  0  0
   57.1990   34.0480   44.9670 S   0  0  0  0  0  0  0  0  0  0  0  0
   58.9430   34.5940   44.9060 C   0  0  0  0  0  0  0  0  0  0  0  0
   59.4689   34.0353   44.1178 H   0  0  0  0  0  0  0  0  0  0  0  0
   58.9685   35.6725   44.6913 H   0  0  0  0  0  0  0  0  0  0  0  0
   59.6250   34.3470   46.2260 C   0  0  0  0  0  0  0  0  0  0  0  0
   58.9810   34.6880   47.4260 C   0  0  0  0  0  0  0  0  0  0  0  0
   57.9517   35.0755   47.4044 H   0  0  0  0  0  0  0  0  0  0  0  0
   59.6430   34.5370   48.6490 C   0  0  0  0  0  0  0  0  0  0  0  0
   59.1330   34.8045   49.5862 H   0  0  0  0  0  0  0  0  0  0  0  0
   60.9510   34.0470   48.6820 C   0  0  0  0  0  0  0  0  0  0  0  0
   61.4712   33.9326   49.6445 H   0  0  0  0  0  0  0  0  0  0  0  0
   61.5990   33.7020   47.4920 C   0  0  0  0  0  0  0  0  0  0  0  0
   63.3970   33.0590   47.5360 Br  0  0  0  0  0  0  0  0  0  0  0  0
   60.9370   33.8440   46.2680 C   0  0  0  0  0  0  0  0  0  0  0  0
   61.4452   33.5609   45.3344 H   0  0  0  0  0  0  0  0  0  0  0  0
   56.6590   31.3340   44.8620 N   0  0  0  0  0  0  0  0  0  0  0  0
   57.3720   30.1970   44.9540 C   0  0  0  0  0  0  0  0  0  0  0  0
   56.6430   28.6010   44.8920 Cl  0  0  0  0  0  0  0  0  0  0  0  0
   59.3070   31.0870   47.9820 N   0  0  0  0  0  0  0  0  0  0  0  0
   59.1980   31.8200   47.2460 H   0  0  0  0  0  0  0  0  0  0  0  0
   58.8880   31.2640   49.2620 C   0  0  0  0  0  0  0  0  0  0  0  0
   58.3634   32.1722   49.5938 H   0  0  0  0  0  0  0  0  0  0  0  0
  1  2  1  0
  2  3  1  0
  3  4  1  0
  4  5  2  0
  5  6  1  0
  6  7  2  0
  6  8  1  0
  8  9  1  0
  9 10  2  0
 10 11  1  0
 11 12  1  0
 12 13  1  0
 12 14  1  0
 12 15  1  0
 15 16  2  0
 16 17  1  0
 16 18  1  0
 18 19  1  0
 18 20  2  0
 20 21  1  0
 20 22  1  0
 22 23  1  0
 22 24  2  0
 24 25  1  0
 10 26  1  0
 26 27  1  0
 27 28  1  0
  4 29  1  0
 29 30  1  0
 29 31  1  0
 31 32  1  0
 31  2  2  0
 27  8  2  0
 24 15  1  0
M  CHG  1  26  -1
M  END
>  <UniqueID>  (91) 
80

>  <SMILES>  (91) 
O=C(/N=c1\[nH]ccs1)c1nc(SCc2cccc(Br)c2)[n-]c1Cl

>  <Energy>  (91) 
92.94387352002882

>  <Genealogy>  (91) 
O=C(N=c1[nH]ccs1)c1nc(SCc2cccc(Br)c2)[n-]c1Cl (protonated)
O=C(/N=c1\[nH]ccs1)c1nc(SCc2cccc(Br)c2)[n-]c1Cl (cis-trans isomerization)
O=C(/N=c1\[nH]ccs1)c1nc(SCc2cccc(Br)c2)[n-]c1Cl (3D coordinates assigned)
O=C(/N=c1\[nH]ccs1)c1nc(SCc2cccc(Br)c2)[n-]c1Cl (optimized conformer: 92.94387352002882 kcal/mol)

>  <smiles>  (91) 
O=C(N=c1[nH]ccs1)c1nc(SCc2cccc(Br)c2)[nH]c1Cl

>  <score_type>  (91) 
oracle

>  <origin>  (91) 
adg

>  <m_score__min__energy>  (91) 
-9.8499999999999996

>  <m_primary>  (91) 
energy

$$$$
91:0
     RDKit          3D

 39 40  0  0  0  0  0  0  0  0999 V2000
   57.4650   32.0090   43.6060 C   0  0  0  0  0  0  0  0  0  0  0  0
   57.8630   32.5230   44.9620 C   0  0  0  0  0  0  0  0  0  0  0  0
   58.7370   31.7930   45.7750 C   0  0  0  0  0  0  0  0  0  0  0  0
   59.1140   32.2590   47.0070 N   0  0  0  0  0  0  0  0  0  0  0  0
   60.0610   31.4460   47.8120 C   0  0  1  0  0  0  0  0  0  0  0  0
   60.0530   30.0050   47.3580 C   0  0  0  0  0  0  0  0  0  0  0  0
   61.1370   29.4520   47.0240 O   0  0  0  0  0  0  0  0  0  0  0  0
   58.8250   29.2760   47.2840 N   0  0  0  0  0  0  0  0  0  0  0  0
   58.6710   28.0370   46.5330 C   0  0  0  0  0  0  0  0  0  0  0  0
   57.3190   28.0220   45.8240 C   0  0  0  0  0  0  0  0  0  0  0  0
   56.5860   26.7400   46.0810 C   0  0  0  0  0  0  0  0  0  0  0  0
   55.1640   26.7000   45.9860 N   0  0  0  0  0  0  0  0  0  0  0  0
   57.2220   25.7070   46.4230 O   0  0  0  0  0  0  0  0  0  0  0  0
   61.4520   32.0800   47.8690 C   0  0  0  0  0  0  0  0  0  0  0  0
   61.8750   33.0090   46.8930 C   0  0  0  0  0  0  0  0  0  0  0  0
   63.1390   33.5940   46.9640 C   0  0  0  0  0  0  0  0  0  0  0  0
   64.0030   33.2720   48.0070 C   0  0  0  0  0  0  0  0  0  0  0  0
   63.6070   32.3650   48.9920 C   0  0  0  0  0  0  0  0  0  0  0  0
   64.7340   31.9990   50.2940 Cl  0  0  0  0  0  0  0  0  0  0  0  0
   62.3340   31.7670   48.9340 C   0  0  0  0  0  0  0  0  0  0  0  0
   61.8590   30.6310   50.2010 Cl  0  0  0  0  0  0  0  0  0  0  0  0
   58.6590   33.4890   47.4230 C   0  0  0  0  0  0  0  0  0  0  0  0
   59.0190   33.9760   48.5290 O   0  0  0  0  0  0  0  0  0  0  0  0
   57.8210   34.2130   46.6380 N   0  0  0  0  0  0  0  0  0  0  0  0
   57.4150   33.7630   45.4270 C   0  0  0  0  0  0  0  0  0  0  0  0
   56.6410   34.4730   44.7300 O   0  0  0  0  0  0  0  0  0  0  0  0
   56.7954   31.1442   43.7237 H   0  0  0  0  0  0  0  0  0  0  0  0
   56.9441   32.8033   43.0512 H   0  0  0  0  0  0  0  0  0  0  0  0
   58.3644   31.7035   43.0512 H   0  0  0  0  0  0  0  0  0  0  0  0
   59.1281   30.8285   45.4189 H   0  0  0  0  0  0  0  0  0  0  0  0
   59.7155   31.4355   48.8563 H   0  0  0  0  0  0  0  0  0  0  0  0
   59.4750   27.9612   45.7862 H   0  0  0  0  0  0  0  0  0  0  0  0
   58.7250   27.1848   47.2265 H   0  0  0  0  0  0  0  0  0  0  0  0
   56.7118   28.8623   46.1916 H   0  0  0  0  0  0  0  0  0  0  0  0
   57.4925   28.1129   44.7416 H   0  0  0  0  0  0  0  0  0  0  0  0
   54.5640   27.0970   46.7410 H   0  0  0  0  0  0  0  0  0  0  0  0
   61.1992   33.2744   46.0667 H   0  0  0  0  0  0  0  0  0  0  0  0
   63.4544   34.3125   46.1931 H   0  0  0  0  0  0  0  0  0  0  0  0
   65.0004   33.7334   48.0553 H   0  0  0  0  0  0  0  0  0  0  0  0
  1  2  1  0
  2  3  2  0
  3  4  1  0
  4  5  1  0
  5  6  1  0
  6  7  2  0
  6  8  1  0
  8  9  1  0
  9 10  1  0
 10 11  1  0
 11 12  1  0
 11 13  2  0
  5 14  1  0
 14 15  2  0
 15 16  1  0
 16 17  2  0
 17 18  1  0
 18 19  1  0
 18 20  2  0
 20 21  1  0
  4 22  1  0
 22 23  2  0
 22 24  1  0
 24 25  1  0
 25 26  2  0
 25  2  1  0
 20 14  1  0
  1 27  1  0
  1 28  1  0
  1 29  1  0
  3 30  1  0
  5 31  1  1
  9 32  1  0
  9 33  1  0
 10 34  1  0
 10 35  1  0
 12 36  1  0
 15 37  1  0
 16 38  1  0
 17 39  1  0
M  CHG  3   8  -1  12  -1  24  -1
M  END
>  <UniqueID>  (92) 
81

>  <SMILES>  (92) 
Cc1cn([C@@H](C(=O)[N-]CCC([NH-])=O)c2cccc(Cl)c2Cl)c(=O)[n-]c1=O

>  <Energy>  (92) 
42.200047696001256

>  <Genealogy>  (92) 
Cc1cn(C(C(=O)[N-]CCC([NH-])=O)c2cccc(Cl)c2Cl)c(=O)[n-]c1=O (protonated)
Cc1cn([C@@H](C(=O)[N-]CCC([NH-])=O)c2cccc(Cl)c2Cl)c(=O)[n-]c1=O (chirality)
Cc1cn([C@@H](C(=O)[N-]CCC([NH-])=O)c2cccc(Cl)c2Cl)c(=O)[n-]c1=O (3D coordinates assigned)
Cc1cn([C@@H](C(=O)[N-]CCC([NH-])=O)c2cccc(Cl)c2Cl)c(=O)[n-]c1=O (optimized conformer: 42.200047696001256 kcal/mol)

>  <smiles>  (92) 
Cc1cn(C(C(=O)NCCC(N)=O)c2cccc(Cl)c2Cl)c(=O)[nH]c1=O

>  <score_type>  (92) 
oracle

>  <origin>  (92) 
adg

>  <m_score__min__energy>  (92) 
-13.029999999999999

>  <m_primary>  (92) 
energy

$$$$
92:0
     RDKit          3D

 57 60  0  0  0  0  0  0  0  0999 V2000
   62.7620   32.7930   47.8250 C   0  0  0  0  0  0  0  0  0  0  0  0
   62.9220   32.7820   49.2390 O   0  0  0  0  0  0  0  0  0  0  0  0
   64.1380   32.5430   49.9010 C   0  0  0  0  0  0  0  0  0  0  0  0
   65.3680   32.9950   49.3830 C   0  0  0  0  0  0  0  0  0  0  0  0
   66.5600   32.7450   50.0670 C   0  0  0  0  0  0  0  0  0  0  0  0
   66.5410   32.0430   51.2720 C   0  0  0  0  0  0  0  0  0  0  0  0
   65.3300   31.5900   51.7990 C   0  0  0  0  0  0  0  0  0  0  0  0
   64.1230   31.8320   51.1210 C   0  0  0  0  0  0  0  0  0  0  0  0
   62.8210   31.3570   51.7150 C   0  0  0  0  0  0  0  0  0  0  0  0
   62.0630   30.5860   50.7310 N   0  0  0  0  0  0  0  0  0  0  0  0
   61.0550   29.6360   51.1110 C   0  0  0  0  0  0  0  0  0  0  0  0
   60.7690   29.4830   52.3310 O   0  0  0  0  0  0  0  0  0  0  0  0
   60.3230   28.8460   50.0930 C   0  0  0  0  0  0  0  0  0  0  0  0
   60.7590   27.5520   49.7630 C   0  0  0  0  0  0  0  0  0  0  0  0
   60.0820   26.7970   48.8030 C   0  0  0  0  0  0  0  0  0  0  0  0
   58.9730   27.3370   48.1290 C   0  0  0  0  0  0  0  0  0  0  0  0
   58.2740   26.6010   47.1160 N   0  0  0  0  0  0  0  0  0  0  0  0
   57.7240   27.1470   45.9080 C   0  0  0  0  0  0  0  0  0  0  0  0
   56.5690   26.8010   45.5520 O   0  0  0  0  0  0  0  0  0  0  0  0
   58.4600   28.0650   45.0900 N   0  0  0  0  0  0  0  0  0  0  0  0
   58.4930   29.4830   45.2820 C   0  0  0  0  0  0  0  0  0  0  0  0
   59.7660   30.3300   45.9920 S   0  0  0  0  0  0  0  0  0  0  0  0
   59.0690   31.8430   45.8040 C   0  0  0  0  0  0  0  0  0  0  0  0
   57.8060   31.7110   45.2280 C   0  0  0  0  0  0  0  0  0  0  0  0
   57.4780   30.3710   44.9060 C   0  0  0  0  0  0  0  0  0  0  0  0
   56.2420   29.9450   44.2010 C   0  0  0  0  0  0  0  0  0  0  0  0
   55.1560   29.3730   44.9260 N   0  0  0  0  0  0  0  0  0  0  0  0
   56.1420   30.0680   42.9510 O   0  0  0  0  0  0  0  0  0  0  0  0
   56.9540   32.9210   44.9250 C   0  0  0  0  0  0  0  0  0  0  0  0
   57.4220   34.1690   45.6980 C   0  0  0  0  0  0  0  0  0  0  0  0
   58.9480   34.3290   45.6330 C   0  0  0  0  0  0  0  0  0  0  0  0
   59.6540   33.1350   46.2890 C   0  0  0  0  0  0  0  0  0  0  0  0
   58.5240   28.6180   48.4680 C   0  0  0  0  0  0  0  0  0  0  0  0
   59.1960   29.3720   49.4350 C   0  0  0  0  0  0  0  0  0  0  0  0
   61.6927   32.8665   47.5776 H   0  0  0  0  0  0  0  0  0  0  0  0
   63.2964   33.6565   47.4022 H   0  0  0  0  0  0  0  0  0  0  0  0
   63.1732   31.8645   47.4022 H   0  0  0  0  0  0  0  0  0  0  0  0
   65.3897   33.5489   48.4329 H   0  0  0  0  0  0  0  0  0  0  0  0
   67.5151   33.1023   49.6546 H   0  0  0  0  0  0  0  0  0  0  0  0
   67.4812   31.8460   51.8078 H   0  0  0  0  0  0  0  0  0  0  0  0
   65.3206   31.0399   52.7515 H   0  0  0  0  0  0  0  0  0  0  0  0
   63.0313   30.7225   52.5886 H   0  0  0  0  0  0  0  0  0  0  0  0
   62.2267   32.2318   52.0174 H   0  0  0  0  0  0  0  0  0  0  0  0
   62.2300   30.7950   49.7210 H   0  0  0  0  0  0  0  0  0  0  0  0
   61.6417   27.1296   50.2654 H   0  0  0  0  0  0  0  0  0  0  0  0
   60.4181   25.7751   48.5732 H   0  0  0  0  0  0  0  0  0  0  0  0
   55.3130   28.5930   45.6020 H   0  0  0  0  0  0  0  0  0  0  0  0
   57.0075   33.1312   43.8466 H   0  0  0  0  0  0  0  0  0  0  0  0
   55.9236   32.6961   45.2377 H   0  0  0  0  0  0  0  0  0  0  0  0
   56.9497   35.0600   45.2587 H   0  0  0  0  0  0  0  0  0  0  0  0
   57.1308   34.0525   46.7523 H   0  0  0  0  0  0  0  0  0  0  0  0
   59.2582   34.3962   44.5798 H   0  0  0  0  0  0  0  0  0  0  0  0
   59.2281   35.2437   46.1761 H   0  0  0  0  0  0  0  0  0  0  0  0
   60.7241   33.1645   46.0361 H   0  0  0  0  0  0  0  0  0  0  0  0
   59.5180   33.1983   47.3787 H   0  0  0  0  0  0  0  0  0  0  0  0
   57.6361   29.0349   47.9703 H   0  0  0  0  0  0  0  0  0  0  0  0
   58.8412   30.3832   49.6830 H   0  0  0  0  0  0  0  0  0  0  0  0
  1  2  1  0
  2  3  1  0
  3  4  2  0
  4  5  1  0
  5  6  2  0
  6  7  1  0
  7  8  2  0
  8  9  1  0
  9 10  1  0
 10 11  1  0
 11 12  2  0
 11 13  1  0
 13 14  2  0
 14 15  1  0
 15 16  2  0
 16 17  1  0
 17 18  1  0
 18 19  2  0
 18 20  1  0
 20 21  1  0
 21 22  1  0
 22 23  1  0
 23 24  2  0
 24 25  1  0
 25 26  1  0
 26 27  1  0
 26 28  2  0
 24 29  1  0
 29 30  1  0
 30 31  1  0
 31 32  1  0
 16 33  1  0
 33 34  2  0
  8  3  1  0
 34 13  1  0
 25 21  2  0
 32 23  1  0
  1 35  1  0
  1 36  1  0
  1 37  1  0
  4 38  1  0
  5 39  1  0
  6 40  1  0
  7 41  1  0
  9 42  1  0
  9 43  1  0
 10 44  1  0
 14 45  1  0
 15 46  1  0
 27 47  1  0
 29 48  1  0
 29 49  1  0
 30 50  1  0
 30 51  1  0
 31 52  1  0
 31 53  1  0
 32 54  1  0
 32 55  1  0
 33 56  1  0
 34 57  1  0
M  CHG  3  17  -1  20  -1  27  -1
M  END
>  <UniqueID>  (93) 
82

>  <SMILES>  (93) 
COc1ccccc1CNC(=O)c1ccc([N-]C(=O)[N-]c2sc3c(c2C([NH-])=O)CCCC3)cc1

>  <Energy>  (93) 
93.45940957699625

>  <Genealogy>  (93) 
COc1ccccc1CNC(=O)c1ccc([N-]C(=O)[N-]c2sc3c(c2C([NH-])=O)CCCC3)cc1 (protonated)
COc1ccccc1CNC(=O)c1ccc([N-]C(=O)[N-]c2sc3c(c2C([NH-])=O)CCCC3)cc1 (3D coordinates assigned)
COc1ccccc1CNC(=O)c1ccc([N-]C(=O)[N-]c2sc3c(c2C([NH-])=O)CCCC3)cc1 (nonaromatic ring conformer: 93.45940957699625 kcal/mol)

>  <smiles>  (93) 
COc1ccccc1CNC(=O)c1ccc(NC(=O)Nc2sc3c(c2C(N)=O)CCCC3)cc1

>  <score_type>  (93) 
oracle

>  <origin>  (93) 
adg

>  <m_score__min__energy>  (93) 
-13.85

>  <m_primary>  (93) 
energy

$$$$
93:0
     RDKit          3D

 46 48  0  0  0  0  0  0  0  0999 V2000
   62.9620   33.7530   46.7530 C   0  0  0  0  0  0  0  0  0  0  0  0
   61.5530   33.7950   46.9620 O   0  0  0  0  0  0  0  0  0  0  0  0
   60.6920   32.6970   46.8090 C   0  0  0  0  0  0  0  0  0  0  0  0
   61.0360   31.4150   47.2750 C   0  0  0  0  0  0  0  0  0  0  0  0
   60.1500   30.3460   47.1260 C   0  0  0  0  0  0  0  0  0  0  0  0
   58.9070   30.5360   46.5060 C   0  0  0  0  0  0  0  0  0  0  0  0
   57.9390   29.3860   46.3830 C   0  0  0  0  0  0  0  0  0  0  0  0
   58.1960   28.5680   45.1120 C   0  0  0  0  0  0  0  0  0  0  0  0
   57.2390   27.4690   44.9830 N   0  0  0  0  0  0  0  0  0  0  0  0
   57.5280   26.1370   45.4260 C   0  0  0  0  0  0  0  0  0  0  0  0
   58.6580   25.8570   45.9100 O   0  0  0  0  0  0  0  0  0  0  0  0
   56.4930   25.0850   45.3350 C   0  0  0  0  0  0  0  0  0  0  0  0
   55.1570   25.4180   45.6320 C   0  0  0  0  0  0  0  0  0  0  0  0
   54.8180   26.7150   45.9990 O   0  0  0  0  0  0  0  0  0  0  0  0
   54.1490   24.4560   45.5490 C   0  0  0  0  0  0  0  0  0  0  0  0
   54.4530   23.1490   45.1730 C   0  0  0  0  0  0  0  0  0  0  0  0
   55.7740   22.7840   44.8850 C   0  0  0  0  0  0  0  0  0  0  0  0
   56.0750   21.4600   44.5320 C   0  0  0  0  0  0  0  0  0  0  0  0
   57.3930   21.0830   44.2700 C   0  0  0  0  0  0  0  0  0  0  0  0
   58.4190   22.0210   44.3580 C   0  0  0  0  0  0  0  0  0  0  0  0
   58.1390   23.3450   44.7020 C   0  0  0  0  0  0  0  0  0  0  0  0
   56.8120   23.7520   44.9650 C   0  0  0  0  0  0  0  0  0  0  0  0
   58.5640   31.8100   46.0310 C   0  0  0  0  0  0  0  0  0  0  0  0
   59.4490   32.8890   46.1750 C   0  0  0  0  0  0  0  0  0  0  0  0
   58.9940   34.4900   45.5870 S   0  0  0  0  0  0  0  0  0  0  0  0
   59.5320   35.6890   46.7080 N   0  0  0  0  0  0  0  0  0  0  0  0
   57.4990   34.5930   45.4370 O   0  0  0  0  0  0  0  0  0  0  0  0
   59.6320   34.7300   44.2470 O   0  0  0  0  0  0  0  0  0  0  0  0
   63.4766   33.7377   47.7251 H   0  0  0  0  0  0  0  0  0  0  0  0
   63.2218   32.8467   46.1863 H   0  0  0  0  0  0  0  0  0  0  0  0
   63.2753   34.6422   46.1863 H   0  0  0  0  0  0  0  0  0  0  0  0
   62.0099   31.2535   47.7602 H   0  0  0  0  0  0  0  0  0  0  0  0
   60.4290   29.3489   47.4973 H   0  0  0  0  0  0  0  0  0  0  0  0
   58.0504   28.7299   47.2588 H   0  0  0  0  0  0  0  0  0  0  0  0
   56.9202   29.7971   46.3284 H   0  0  0  0  0  0  0  0  0  0  0  0
   58.1036   29.2278   44.2367 H   0  0  0  0  0  0  0  0  0  0  0  0
   59.2079   28.1410   45.1733 H   0  0  0  0  0  0  0  0  0  0  0  0
   56.2710   27.6940   44.6620 H   0  0  0  0  0  0  0  0  0  0  0  0
   53.1096   24.7309   45.7815 H   0  0  0  0  0  0  0  0  0  0  0  0
   53.6508   22.3997   45.1020 H   0  0  0  0  0  0  0  0  0  0  0  0
   55.2684   20.7154   44.4614 H   0  0  0  0  0  0  0  0  0  0  0  0
   57.6220   20.0432   43.9935 H   0  0  0  0  0  0  0  0  0  0  0  0
   59.4565   21.7168   44.1552 H   0  0  0  0  0  0  0  0  0  0  0  0
   58.9578   24.0766   44.7687 H   0  0  0  0  0  0  0  0  0  0  0  0
   57.5916   31.9649   45.5407 H   0  0  0  0  0  0  0  0  0  0  0  0
   59.9930   35.1870   47.4970 H   0  0  0  0  0  0  0  0  0  0  0  0
  1  2  1  0
  2  3  1  0
  3  4  2  0
  4  5  1  0
  5  6  2  0
  6  7  1  0
  7  8  1  0
  8  9  1  0
  9 10  1  0
 10 11  2  0
 10 12  1  0
 12 13  2  0
 13 14  1  0
 13 15  1  0
 15 16  2  0
 16 17  1  0
 17 18  2  0
 18 19  1  0
 19 20  2  0
 20 21  1  0
 21 22  2  0
  6 23  1  0
 23 24  2  0
 24 25  1  0
 25 26  1  0
 25 27  2  0
 25 28  2  0
 24  3  1  0
 22 12  1  0
 22 17  1  0
  1 29  1  0
  1 30  1  0
  1 31  1  0
  4 32  1  0
  5 33  1  0
  7 34  1  0
  7 35  1  0
  8 36  1  0
  8 37  1  0
  9 38  1  0
 15 39  1  0
 16 40  1  0
 18 41  1  0
 19 42  1  0
 20 43  1  0
 21 44  1  0
 23 45  1  0
 26 46  1  0
M  CHG  2  14  -1  26  -1
M  END
>  <UniqueID>  (94) 
83

>  <SMILES>  (94) 
COc1ccc(CCNC(=O)c2c([O-])ccc3ccccc23)cc1S([NH-])(=O)=O

>  <Energy>  (94) 
53.85161205297324

>  <Genealogy>  (94) 
COc1ccc(CCNC(=O)c2c([O-])ccc3ccccc23)cc1S([NH-])(=O)=O (protonated)
COc1ccc(CCNC(=O)c2c([O-])ccc3ccccc23)cc1S([NH-])(=O)=O (3D coordinates assigned)
COc1ccc(CCNC(=O)c2c([O-])ccc3ccccc23)cc1S([NH-])(=O)=O (optimized conformer: 53.85161205297324 kcal/mol)

>  <smiles>  (94) 
COc1ccc(CCNC(=O)c2c(O)ccc3ccccc23)cc1S(N)(=O)=O

>  <score_type>  (94) 
oracle

>  <origin>  (94) 
adg

>  <m_score__min__energy>  (94) 
-14.630000000000001

>  <m_primary>  (94) 
energy

$$$$
94:0
     RDKit          3D

 46 48  0  0  0  0  0  0  0  0999 V2000
   56.9390   30.7990   52.3210 C   0  0  0  0  0  0  0  0  0  0  0  0
   57.4080   29.9740   51.2580 O   0  0  0  0  0  0  0  0  0  0  0  0
   58.4370   30.3330   50.3740 C   0  0  0  0  0  0  0  0  0  0  0  0
   59.3680   29.3560   50.0020 C   0  0  0  0  0  0  0  0  0  0  0  0
   60.4100   29.6670   49.1260 C   0  0  0  0  0  0  0  0  0  0  0  0
   60.5290   30.9580   48.6070 C   0  0  0  0  0  0  0  0  0  0  0  0
   59.5980   31.9490   48.9560 C   0  0  0  0  0  0  0  0  0  0  0  0
   59.7110   33.3510   48.3930 C   0  0  0  0  0  0  0  0  0  0  0  0
   58.9970   33.5610   47.1050 N   0  0  1  0  0  0  0  0  0  0  0  0
   59.6130   34.6400   46.2960 C   0  0  0  0  0  0  0  0  0  0  0  0
   58.9500   34.8060   44.9030 C   0  0  0  0  0  0  0  0  0  0  0  0
   57.6540   34.0000   44.7520 C   0  0  0  0  0  0  0  0  0  0  0  0
   57.9010   32.5180   45.0990 C   0  0  2  0  0  0  0  0  0  0  0  0
   56.6510   31.7360   45.1640 N   0  0  0  0  0  0  0  0  0  0  0  0
   56.6950   30.1050   44.5320 S   0  0  0  0  0  0  0  0  0  0  0  0
   56.8110   30.1780   43.0360 O   0  0  0  0  0  0  0  0  0  0  0  0
   55.4480   29.3410   44.8690 O   0  0  0  0  0  0  0  0  0  0  0  0
   58.0990   29.2420   45.1380 C   0  0  0  0  0  0  0  0  0  0  0  0
   59.3810   29.3020   44.6130 C   0  0  0  0  0  0  0  0  0  0  0  0
   60.2710   28.4270   45.2450 C   0  0  0  0  0  0  0  0  0  0  0  0
   59.6890   27.6800   46.2630 C   0  0  0  0  0  0  0  0  0  0  0  0
   58.0650   28.1050   46.3740 S   0  0  0  0  0  0  0  0  0  0  0  0
   58.8530   32.3200   46.3100 C   0  0  0  0  0  0  0  0  0  0  0  0
   58.5620   31.6330   49.8520 C   0  0  0  0  0  0  0  0  0  0  0  0
   57.2007   30.3387   53.2852 H   0  0  0  0  0  0  0  0  0  0  0  0
   57.4079   31.7914   52.2492 H   0  0  0  0  0  0  0  0  0  0  0  0
   55.8463   30.9037   52.2492 H   0  0  0  0  0  0  0  0  0  0  0  0
   59.2780   28.3356   50.4028 H   0  0  0  0  0  0  0  0  0  0  0  0
   61.1390   28.8931   48.8440 H   0  0  0  0  0  0  0  0  0  0  0  0
   61.3553   31.1993   47.9222 H   0  0  0  0  0  0  0  0  0  0  0  0
   59.2973   34.0521   49.1328 H   0  0  0  0  0  0  0  0  0  0  0  0
   60.7786   33.5195   48.1885 H   0  0  0  0  0  0  0  0  0  0  0  0
   58.0420   33.8870   47.3780 H   0  0  0  0  0  0  0  0  0  0  0  0
   59.5173   35.5883   46.8452 H   0  0  0  0  0  0  0  0  0  0  0  0
   60.6655   34.3669   46.1294 H   0  0  0  0  0  0  0  0  0  0  0  0
   58.7197   35.8707   44.7499 H   0  0  0  0  0  0  0  0  0  0  0  0
   59.6610   34.4258   44.1547 H   0  0  0  0  0  0  0  0  0  0  0  0
   56.8912   34.4092   45.4307 H   0  0  0  0  0  0  0  0  0  0  0  0
   57.3086   34.0704   43.7100 H   0  0  0  0  0  0  0  0  0  0  0  0
   58.4579   32.0888   44.2530 H   0  0  0  0  0  0  0  0  0  0  0  0
   59.6682   29.9680   43.7860 H   0  0  0  0  0  0  0  0  0  0  0  0
   61.3306   28.3384   44.9633 H   0  0  0  0  0  0  0  0  0  0  0  0
   60.2034   26.9368   46.8899 H   0  0  0  0  0  0  0  0  0  0  0  0
   58.4468   31.5281   46.9565 H   0  0  0  0  0  0  0  0  0  0  0  0
   59.8453   32.0446   45.9234 H   0  0  0  0  0  0  0  0  0  0  0  0
   57.8419   32.4102   50.1478 H   0  0  0  0  0  0  0  0  0  0  0  0
  1  2  1  0
  2  3  1  0
  3  4  2  0
  4  5  1  0
  5  6  2  0
  6  7  1  0
  7  8  1  0
  8  9  1  0
  9 10  1  0
 10 11  1  0
 11 12  1  0
 12 13  1  0
 13 14  1  0
 14 15  1  0
 15 16  2  0
 15 17  2  0
 15 18  1  0
 18 19  2  0
 19 20  1  0
 20 21  2  0
 21 22  1  0
 13 23  1  0
  7 24  2  0
 24  3  1  0
 23  9  1  0
 22 18  1  0
  1 25  1  0
  1 26  1  0
  1 27  1  0
  4 28  1  0
  5 29  1  0
  6 30  1  0
  8 31  1  0
  8 32  1  0
  9 33  1  1
 10 34  1  0
 10 35  1  0
 11 36  1  0
 11 37  1  0
 12 38  1  0
 12 39  1  0
 13 40  1  6
 19 41  1  0
 20 42  1  0
 21 43  1  0
 23 44  1  0
 23 45  1  0
 24 46  1  0
M  CHG  2   9   1  14  -1
M  END
>  <UniqueID>  (95) 
84

>  <SMILES>  (95) 
COc1cccc(C[N@H+]2CCC[C@H]([N-]S(=O)(=O)c3cccs3)C2)c1

>  <Energy>  (95) 
86.67539125661564

>  <Genealogy>  (95) 
COc1cccc(C[NH+]2CCCC([N-]S(=O)(=O)c3cccs3)C2)c1 (protonated)
COc1cccc(C[N@H+]2CCC[C@H]([N-]S(=O)(=O)c3cccs3)C2)c1 (chirality)
COc1cccc(C[N@H+]2CCC[C@H]([N-]S(=O)(=O)c3cccs3)C2)c1 (3D coordinates assigned)
COc1cccc(C[N@H+]2CCC[C@H]([N-]S(=O)(=O)c3cccs3)C2)c1 (nonaromatic ring conformer: 86.67539125661564 kcal/mol)

>  <smiles>  (95) 
COc1cccc(CN2CCCC(NS(=O)(=O)c3cccs3)C2)c1

>  <score_type>  (95) 
oracle

>  <origin>  (95) 
adg

>  <m_score__min__energy>  (95) 
-8.3000000000000007

>  <m_primary>  (95) 
energy

$$$$
