0:0
     RDKit          3D

 42 44  0  0  0  0  0  0  0  0999 V2000
   56.2330   25.3990   47.3080 O   0  0  0  0  0  0  0  0  0  0  0  0
   56.2570   25.8190   46.1210 C   0  0  0  0  0  0  0  0  0  0  0  0
   55.2780   26.7060   45.6870 O   0  0  0  0  0  0  0  0  0  0  0  0
   57.3110   25.3250   45.1680 C   0  0  1  0  0  0  0  0  0  0  0  0
   56.6710   24.6630   43.9360 C   0  0  0  0  0  0  0  0  0  0  0  0
   56.5620   23.1630   44.0700 C   0  0  0  0  0  0  0  0  0  0  0  0
   56.2000   22.5840   45.2990 C   0  0  0  0  0  0  0  0  0  0  0  0
   56.0730   21.1960   45.4140 C   0  0  0  0  0  0  0  0  0  0  0  0
   56.3020   20.3770   44.3040 C   0  0  0  0  0  0  0  0  0  0  0  0
   56.6590   20.9460   43.0770 C   0  0  0  0  0  0  0  0  0  0  0  0
   56.7870   22.3320   42.9590 C   0  0  0  0  0  0  0  0  0  0  0  0
   58.1590   26.3980   44.7500 O   0  0  0  0  0  0  0  0  0  0  0  0
   57.8400   27.7630   44.8140 C   0  0  0  0  0  0  0  0  0  0  0  0
   57.3880   28.3900   43.6480 C   0  0  0  0  0  0  0  0  0  0  0  0
   57.0580   29.7480   43.6520 C   0  0  0  0  0  0  0  0  0  0  0  0
   57.1890   30.5050   44.8290 C   0  0  0  0  0  0  0  0  0  0  0  0
   56.8510   31.8660   44.8790 O   0  0  0  0  0  0  0  0  0  0  0  0
   57.6960   32.8970   45.3130 C   0  0  0  0  0  0  0  0  0  0  0  0
   57.8050   33.1430   46.6880 C   0  0  0  0  0  0  0  0  0  0  0  0
   58.6490   34.1540   47.1610 C   0  0  0  0  0  0  0  0  0  0  0  0
   59.4000   34.9170   46.2620 C   0  0  0  0  0  0  0  0  0  0  0  0
   59.3130   34.6650   44.8900 C   0  0  0  0  0  0  0  0  0  0  0  0
   58.4690   33.6560   44.4140 C   0  0  0  0  0  0  0  0  0  0  0  0
   57.6230   29.8770   46.0010 C   0  0  0  0  0  0  0  0  0  0  0  0
   57.9550   28.5180   45.9970 C   0  0  0  0  0  0  0  0  0  0  0  0
   57.9163   24.5758   45.6994 H   0  0  0  0  0  0  0  0  0  0  0  0
   55.6617   25.0781   43.7982 H   0  0  0  0  0  0  0  0  0  0  0  0
   57.3191   24.8728   43.0723 H   0  0  0  0  0  0  0  0  0  0  0  0
   56.0159   23.2253   46.1736 H   0  0  0  0  0  0  0  0  0  0  0  0
   55.7926   20.7480   46.3787 H   0  0  0  0  0  0  0  0  0  0  0  0
   56.2014   19.2855   44.3957 H   0  0  0  0  0  0  0  0  0  0  0  0
   56.8391   20.3013   42.2041 H   0  0  0  0  0  0  0  0  0  0  0  0
   57.0653   22.7754   41.9916 H   0  0  0  0  0  0  0  0  0  0  0  0
   57.2914   27.8086   42.7192 H   0  0  0  0  0  0  0  0  0  0  0  0
   56.6944   30.2262   42.7306 H   0  0  0  0  0  0  0  0  0  0  0  0
   57.2239   32.5381   47.3996 H   0  0  0  0  0  0  0  0  0  0  0  0
   58.7216   34.3485   48.2412 H   0  0  0  0  0  0  0  0  0  0  0  0
   60.0590   35.7152   46.6342 H   0  0  0  0  0  0  0  0  0  0  0  0
   59.9091   35.2610   44.1833 H   0  0  0  0  0  0  0  0  0  0  0  0
   58.4092   33.4551   43.3342 H   0  0  0  0  0  0  0  0  0  0  0  0
   57.7039   30.4560   46.9328 H   0  0  0  0  0  0  0  0  0  0  0  0
   58.3073   28.0374   46.9216 H   0  0  0  0  0  0  0  0  0  0  0  0
  1  2  2  0
  2  3  1  0
  2  4  1  0
  4  5  1  0
  5  6  1  0
  6  7  2  0
  7  8  1  0
  8  9  2  0
  9 10  1  0
 10 11  2  0
  4 12  1  0
 12 13  1  0
 13 14  2  0
 14 15  1  0
 15 16  2  0
 16 17  1  0
 17 18  1  0
 18 19  2  0
 19 20  1  0
 20 21  2  0
 21 22  1  0
 22 23  2  0
 16 24  1  0
 24 25  2  0
 11  6  1  0
 25 13  1  0
 23 18  1  0
  4 26  1  1
  5 27  1  0
  5 28  1  0
  7 29  1  0
  8 30  1  0
  9 31  1  0
 10 32  1  0
 11 33  1  0
 14 34  1  0
 15 35  1  0
 19 36  1  0
 20 37  1  0
 21 38  1  0
 22 39  1  0
 23 40  1  0
 24 41  1  0
 25 42  1  0
M  CHG  1   3  -1
M  END
>  <UniqueID>  (1) 
1

>  <SMILES>  (1) 
O=C([O-])[C@@H](Cc1ccccc1)Oc1ccc(Oc2ccccc2)cc1

>  <Energy>  (1) 
49.18029582325507

>  <Genealogy>  (1) 
O=C([O-])C(Cc1ccccc1)Oc1ccc(Oc2ccccc2)cc1 (protonated)
O=C([O-])[C@@H](Cc1ccccc1)Oc1ccc(Oc2ccccc2)cc1 (chirality)
O=C([O-])[C@@H](Cc1ccccc1)Oc1ccc(Oc2ccccc2)cc1 (3D coordinates assigned)
O=C([O-])[C@@H](Cc1ccccc1)Oc1ccc(Oc2ccccc2)cc1 (optimized conformer: 49.18029582325507 kcal/mol)

>  <smiles>  (1) 
O=C(O)C(Cc1ccccc1)Oc1ccc(Oc2ccccc2)cc1

>  <score_type>  (1) 
oracle

>  <origin>  (1) 
adg

>  <m_score__min__energy>  (1) 
-11.01

>  <m_primary>  (1) 
energy

$$$$
1:0
     RDKit          3D

 65 68  0  0  0  0  0  0  0  0999 V2000
   57.8630   25.6740   46.4900 C   0  0  0  0  0  0  0  0  0  0  0  0
   58.7140   26.6310   47.2690 C   0  0  0  0  0  0  0  0  0  0  0  0
   60.0360   26.2900   47.5990 C   0  0  0  0  0  0  0  0  0  0  0  0
   60.8090   27.1520   48.3780 C   0  0  0  0  0  0  0  0  0  0  0  0
   60.2690   28.3550   48.8400 C   0  0  0  0  0  0  0  0  0  0  0  0
   58.9540   28.7120   48.5200 C   0  0  0  0  0  0  0  0  0  0  0  0
   58.4260   29.9340   49.0580 N   0  0  0  0  0  0  0  0  0  0  0  0
   58.5180   30.3840   50.4150 C   0  0  0  0  0  0  0  0  0  0  0  0
   57.8040   29.8650   51.3190 O   0  0  0  0  0  0  0  0  0  0  0  0
   59.4700   31.4970   50.7450 C   0  0  0  0  0  0  0  0  0  0  0  0
   59.9130   32.2180   49.5280 N   0  0  0  0  0  0  0  0  0  0  0  0
   58.9670   32.8330   48.7400 C   0  0  0  0  0  0  0  0  0  0  0  0
   57.7410   32.7080   49.0230 O   0  0  0  0  0  0  0  0  0  0  0  0
   59.3340   33.5740   47.6430 N   0  0  0  0  0  0  0  0  0  0  0  0
   58.3010   34.2030   46.7860 C   0  0  0  0  0  0  0  0  0  0  0  0
   57.2940   33.1660   46.2640 C   0  0  0  0  0  0  0  0  0  0  0  0
   57.4230   32.9320   44.7540 C   0  0  0  0  0  0  0  0  0  0  0  0
   57.2460   31.2020   44.3280 S   0  0  0  0  0  0  0  0  0  0  0  0
   55.7980   30.8310   44.4970 O   0  0  0  0  0  0  0  0  0  0  0  0
   57.6440   30.9680   42.8960 O   0  0  0  0  0  0  0  0  0  0  0  0
   58.2400   30.1720   45.4200 C   0  0  0  0  0  0  0  0  0  0  0  0
   59.6350   30.7970   45.6480 C   0  0  0  0  0  0  0  0  0  0  0  0
   60.6540   29.7430   46.0930 C   0  0  0  0  0  0  0  0  0  0  0  0
   60.8620   28.6690   45.0060 C   0  0  0  0  0  0  0  0  0  0  0  0
   59.6140   28.4380   44.1290 C   0  0  0  0  0  0  0  0  0  0  0  0
   58.3160   28.7110   44.8980 C   0  0  0  0  0  0  0  0  0  0  0  0
   60.6550   33.6980   47.3060 C   0  0  0  0  0  0  0  0  0  0  0  0
   60.9920   34.4080   46.3170 O   0  0  0  0  0  0  0  0  0  0  0  0
   61.6370   33.0280   48.0440 C   0  0  0  0  0  0  0  0  0  0  0  0
   62.9960   33.0970   47.6750 C   0  0  0  0  0  0  0  0  0  0  0  0
   63.9590   32.3930   48.3950 C   0  0  0  0  0  0  0  0  0  0  0  0
   63.5830   31.6150   49.4840 C   0  0  0  0  0  0  0  0  0  0  0  0
   62.2430   31.5440   49.8700 C   0  0  0  0  0  0  0  0  0  0  0  0
   61.2440   32.2610   49.1640 C   0  0  0  0  0  0  0  0  0  0  0  0
   58.1690   27.8330   47.7490 C   0  0  0  0  0  0  0  0  0  0  0  0
   57.2967   25.0371   47.1855 H   0  0  0  0  0  0  0  0  0  0  0  0
   57.1627   26.2381   45.8564 H   0  0  0  0  0  0  0  0  0  0  0  0
   58.5051   25.0445   45.8564 H   0  0  0  0  0  0  0  0  0  0  0  0
   60.4631   25.3411   47.2425 H   0  0  0  0  0  0  0  0  0  0  0  0
   61.8459   26.8838   48.6289 H   0  0  0  0  0  0  0  0  0  0  0  0
   60.8817   29.0263   49.4596 H   0  0  0  0  0  0  0  0  0  0  0  0
   58.9679   32.2079   51.4177 H   0  0  0  0  0  0  0  0  0  0  0  0
   60.3569   31.0586   51.2259 H   0  0  0  0  0  0  0  0  0  0  0  0
   57.7617   34.9604   47.3738 H   0  0  0  0  0  0  0  0  0  0  0  0
   58.8028   34.6622   45.9215 H   0  0  0  0  0  0  0  0  0  0  0  0
   57.4670   32.2127   46.7849 H   0  0  0  0  0  0  0  0  0  0  0  0
   56.2831   33.5543   46.4573 H   0  0  0  0  0  0  0  0  0  0  0  0
   56.6408   33.5072   44.2370 H   0  0  0  0  0  0  0  0  0  0  0  0
   58.4265   33.2583   44.4433 H   0  0  0  0  0  0  0  0  0  0  0  0
   57.7466   30.1276   46.4021 H   0  0  0  0  0  0  0  0  0  0  0  0
   59.9801   31.2543   44.7090 H   0  0  0  0  0  0  0  0  0  0  0  0
   59.5499   31.5532   46.4423 H   0  0  0  0  0  0  0  0  0  0  0  0
   61.6153   30.2376   46.2963 H   0  0  0  0  0  0  0  0  0  0  0  0
   60.2701   29.2501   46.9984 H   0  0  0  0  0  0  0  0  0  0  0  0
   61.6913   28.9858   44.3565 H   0  0  0  0  0  0  0  0  0  0  0  0
   61.0776   27.7215   45.5215 H   0  0  0  0  0  0  0  0  0  0  0  0
   59.6606   29.1107   43.2600 H   0  0  0  0  0  0  0  0  0  0  0  0
   59.6087   27.3838   43.8148 H   0  0  0  0  0  0  0  0  0  0  0  0
   57.4625   28.5291   44.2283 H   0  0  0  0  0  0  0  0  0  0  0  0
   58.2915   28.0394   45.7688 H   0  0  0  0  0  0  0  0  0  0  0  0
   63.2979   33.7105   46.8133 H   0  0  0  0  0  0  0  0  0  0  0  0
   65.0174   32.4529   48.1015 H   0  0  0  0  0  0  0  0  0  0  0  0
   64.3446   31.0527   50.0442 H   0  0  0  0  0  0  0  0  0  0  0  0
   61.9587   30.9239   50.7329 H   0  0  0  0  0  0  0  0  0  0  0  0
   57.1237   28.0892   47.5216 H   0  0  0  0  0  0  0  0  0  0  0  0
  1  2  1  0
  2  3  2  0
  3  4  1  0
  4  5  2  0
  5  6  1  0
  6  7  1  0
  7  8  1  0
  8  9  2  0
  8 10  1  0
 10 11  1  0
 11 12  1  0
 12 13  2  0
 12 14  1  0
 14 15  1  0
 15 16  1  0
 16 17  1  0
 17 18  1  0
 18 19  2  0
 18 20  2  0
 18 21  1  0
 21 22  1  0
 22 23  1  0
 23 24  1  0
 24 25  1  0
 25 26  1  0
 14 27  1  0
 27 28  2  0
 27 29  1  0
 29 30  2  0
 30 31  1  0
 31 32  2  0
 32 33  1  0
 33 34  2  0
  6 35  2  0
 35  2  1  0
 34 11  1  0
 26 21  1  0
 34 29  1  0
  1 36  1  0
  1 37  1  0
  1 38  1  0
  3 39  1  0
  4 40  1  0
  5 41  1  0
 10 42  1  0
 10 43  1  0
 15 44  1  0
 15 45  1  0
 16 46  1  0
 16 47  1  0
 17 48  1  0
 17 49  1  0
 21 50  1  0
 22 51  1  0
 22 52  1  0
 23 53  1  0
 23 54  1  0
 24 55  1  0
 24 56  1  0
 25 57  1  0
 25 58  1  0
 26 59  1  0
 26 60  1  0
 30 61  1  0
 31 62  1  0
 32 63  1  0
 33 64  1  0
 35 65  1  0
M  CHG  1   7  -1
M  END
>  <UniqueID>  (2) 
2

>  <SMILES>  (2) 
Cc1cccc([N-]C(=O)Cn2c(=O)n(CCCS(=O)(=O)C3CCCCC3)c(=O)c3ccccc32)c1

>  <Energy>  (2) 
76.66967121660267

>  <Genealogy>  (2) 
Cc1cccc([N-]C(=O)Cn2c(=O)n(CCCS(=O)(=O)C3CCCCC3)c(=O)c3ccccc32)c1 (protonated)
Cc1cccc([N-]C(=O)Cn2c(=O)n(CCCS(=O)(=O)C3CCCCC3)c(=O)c3ccccc32)c1 (3D coordinates assigned)
Cc1cccc([N-]C(=O)Cn2c(=O)n(CCCS(=O)(=O)C3CCCCC3)c(=O)c3ccccc32)c1 (nonaromatic ring conformer: 76.66967121660267 kcal/mol)

>  <smiles>  (2) 
Cc1cccc(NC(=O)Cn2c(=O)n(CCCS(=O)(=O)C3CCCCC3)c(=O)c3ccccc32)c1

>  <score_type>  (2) 
oracle

>  <origin>  (2) 
adg

>  <m_score__min__energy>  (2) 
-11.460000000000001

>  <m_primary>  (2) 
energy

$$$$
2:0
     RDKit          3D

 25 26  0  0  0  0  0  0  0  0999 V2000
   60.0680   27.7490   47.0320 O   0  0  0  0  0  0  0  0  0  0  0  0
   59.3210   27.7140   46.0160 C   0  0  0  0  0  0  0  0  0  0  0  0
   59.4930   28.7590   44.9410 C   0  0  0  0  0  0  0  0  0  0  0  0
   58.2390   29.4600   44.6690 N   0  0  0  0  0  0  0  0  0  0  0  0
   57.3740   29.2110   43.6730 C   0  0  0  0  0  0  0  0  0  0  0  0
   56.3650   30.1450   43.7490 C   0  0  0  0  0  0  0  0  0  0  0  0
   56.6000   30.9840   44.7800 N   0  0  0  0  0  0  0  0  0  0  0  0
   57.7560   30.5380   45.3170 C   0  0  0  0  0  0  0  0  0  0  0  0
   58.2920   26.6450   45.9030 C   0  0  0  0  0  0  0  0  0  0  0  0
   58.6520   25.2930   45.7290 C   0  0  0  0  0  0  0  0  0  0  0  0
   57.6710   24.3040   45.6250 C   0  0  0  0  0  0  0  0  0  0  0  0
   56.3190   24.6450   45.6930 C   0  0  0  0  0  0  0  0  0  0  0  0
   55.9420   25.9820   45.8660 C   0  0  0  0  0  0  0  0  0  0  0  0
   54.5960   26.3350   45.9350 O   0  0  0  0  0  0  0  0  0  0  0  0
   56.9220   26.9740   45.9700 C   0  0  0  0  0  0  0  0  0  0  0  0
   60.2467   29.4895   45.2701 H   0  0  0  0  0  0  0  0  0  0  0  0
   59.8134   28.2544   44.0176 H   0  0  0  0  0  0  0  0  0  0  0  0
   57.4565   28.4049   42.9291 H   0  0  0  0  0  0  0  0  0  0  0  0
   55.4993   30.1992   43.0725 H   0  0  0  0  0  0  0  0  0  0  0  0
   58.2474   31.0021   46.1848 H   0  0  0  0  0  0  0  0  0  0  0  0
   59.7148   25.0145   45.6747 H   0  0  0  0  0  0  0  0  0  0  0  0
   57.9649   23.2527   45.4890 H   0  0  0  0  0  0  0  0  0  0  0  0
   55.5498   23.8630   45.6106 H   0  0  0  0  0  0  0  0  0  0  0  0
   53.9120   25.7330   46.3780 H   0  0  0  0  0  0  0  0  0  0  0  0
   56.6210   28.0233   46.1057 H   0  0  0  0  0  0  0  0  0  0  0  0
  1  2  2  0
  2  3  1  0
  3  4  1  0
  4  5  1  0
  5  6  2  0
  6  7  1  0
  7  8  2  0
  2  9  1  0
  9 10  2  0
 10 11  1  0
 11 12  2  0
 12 13  1  0
 13 14  1  0
 13 15  2  0
  8  4  1  0
 15  9  1  0
  3 16  1  0
  3 17  1  0
  5 18  1  0
  6 19  1  0
  8 20  1  0
 10 21  1  0
 11 22  1  0
 12 23  1  0
 14 24  1  0
 15 25  1  0
M  END
>  <UniqueID>  (3) 
3

>  <SMILES>  (3) 
O=C(Cn1ccnc1)c1cccc(O)c1

>  <Energy>  (3) 
55.35773743327427

>  <Genealogy>  (3) 
O=C(Cn1ccnc1)c1cccc(O)c1 (3D coordinates assigned)
O=C(Cn1ccnc1)c1cccc(O)c1 (optimized conformer: 55.35773743327427 kcal/mol)

>  <smiles>  (3) 
O=C(Cn1ccnc1)c1cccc(O)c1

>  <score_type>  (3) 
oracle

>  <origin>  (3) 
adg

>  <m_score__min__energy>  (3) 
-6.3700000000000001

>  <m_primary>  (3) 
energy

$$$$
3:0
     RDKit          3D

 52 54  0  0  0  0  0  0  0  0999 V2000
   60.4060   29.0890   49.0470 C   0  0  0  0  0  0  0  0  0  0  0  0
   60.4210   27.8030   48.2300 C   0  0  0  0  0  0  0  0  0  0  0  0
   59.6350   27.9710   46.9570 C   0  0  0  0  0  0  0  0  0  0  0  0
   58.2940   27.5600   46.8920 C   0  0  0  0  0  0  0  0  0  0  0  0
   57.5750   27.6860   45.6990 C   0  0  0  0  0  0  0  0  0  0  0  0
   58.1820   28.2210   44.5560 C   0  0  0  0  0  0  0  0  0  0  0  0
   57.4140   28.3420   43.3900 O   0  0  0  0  0  0  0  0  0  0  0  0
   56.6720   29.5030   43.0270 C   0  0  0  0  0  0  0  0  0  0  0  0
   55.9660   30.0580   44.2310 C   0  0  0  0  0  0  0  0  0  0  0  0
   55.1660   29.3170   44.8600 O   0  0  0  0  0  0  0  0  0  0  0  0
   56.1830   31.3980   44.7020 N   0  0  0  0  0  0  0  0  0  0  0  0
   57.4020   31.9080   45.2580 C   0  0  0  0  0  0  0  0  0  0  0  0
   58.1460   31.1690   46.1910 C   0  0  0  0  0  0  0  0  0  0  0  0
   59.2840   31.7240   46.7820 C   0  0  0  0  0  0  0  0  0  0  0  0
   59.7080   33.0160   46.4310 C   0  0  0  0  0  0  0  0  0  0  0  0
   60.8640   33.5990   47.0600 N   0  0  0  0  0  0  0  0  0  0  0  0
   62.1610   33.5940   46.3750 C   0  0  0  0  0  0  0  0  0  0  0  0
   63.3030   33.8600   47.3700 C   0  0  0  0  0  0  0  0  0  0  0  0
   63.0700   33.1860   48.6660 N   0  0  0  0  0  0  0  0  0  0  0  0
   63.1490   31.7200   48.5430 C   0  0  0  0  0  0  0  0  0  0  0  0
   61.8150   33.6170   49.3380 C   0  0  0  0  0  0  0  0  0  0  0  0
   60.7690   34.2220   48.3830 C   0  0  0  0  0  0  0  0  0  0  0  0
   59.0000   33.7240   45.4450 C   0  0  0  0  0  0  0  0  0  0  0  0
   57.8560   33.1700   44.8610 C   0  0  0  0  0  0  0  0  0  0  0  0
   59.5310   28.6200   44.6160 C   0  0  0  0  0  0  0  0  0  0  0  0
   60.2520   28.4900   45.8070 C   0  0  0  0  0  0  0  0  0  0  0  0
   60.4089   28.8424   50.1190 H   0  0  0  0  0  0  0  0  0  0  0  0
   61.2972   29.6870   48.8059 H   0  0  0  0  0  0  0  0  0  0  0  0
   59.5011   29.6660   48.8059 H   0  0  0  0  0  0  0  0  0  0  0  0
   61.4611   27.5459   47.9807 H   0  0  0  0  0  0  0  0  0  0  0  0
   59.9613   27.0006   48.8257 H   0  0  0  0  0  0  0  0  0  0  0  0
   57.8069   27.1372   47.7830 H   0  0  0  0  0  0  0  0  0  0  0  0
   56.5245   27.3623   45.6582 H   0  0  0  0  0  0  0  0  0  0  0  0
   57.3581   30.2628   42.6245 H   0  0  0  0  0  0  0  0  0  0  0  0
   55.9271   29.2319   42.2644 H   0  0  0  0  0  0  0  0  0  0  0  0
   57.8320   30.1491   46.4579 H   0  0  0  0  0  0  0  0  0  0  0  0
   59.8510   31.1457   47.5264 H   0  0  0  0  0  0  0  0  0  0  0  0
   62.3156   32.6130   45.9019 H   0  0  0  0  0  0  0  0  0  0  0  0
   62.1622   34.3891   45.6149 H   0  0  0  0  0  0  0  0  0  0  0  0
   64.2444   33.4881   46.9394 H   0  0  0  0  0  0  0  0  0  0  0  0
   63.3527   34.9437   47.5520 H   0  0  0  0  0  0  0  0  0  0  0  0
   63.1733   31.2687   49.5459 H   0  0  0  0  0  0  0  0  0  0  0  0
   62.2695   31.3500   47.9957 H   0  0  0  0  0  0  0  0  0  0  0  0
   64.0632   31.4467   47.9957 H   0  0  0  0  0  0  0  0  0  0  0  0
   61.3679   32.7409   49.8305 H   0  0  0  0  0  0  0  0  0  0  0  0
   62.0910   34.4084   50.0503 H   0  0  0  0  0  0  0  0  0  0  0  0
   59.7625   34.0511   48.7926 H   0  0  0  0  0  0  0  0  0  0  0  0
   60.9586   35.3010   48.2836 H   0  0  0  0  0  0  0  0  0  0  0  0
   59.3473   34.7193   45.1307 H   0  0  0  0  0  0  0  0  0  0  0  0
   57.3111   33.7292   44.0862 H   0  0  0  0  0  0  0  0  0  0  0  0
   60.0196   29.0356   43.7224 H   0  0  0  0  0  0  0  0  0  0  0  0
   61.3080   28.7958   45.8434 H   0  0  0  0  0  0  0  0  0  0  0  0
  1  2  1  0
  2  3  1  0
  3  4  2  0
  4  5  1  0
  5  6  2  0
  6  7  1  0
  7  8  1  0
  8  9  1  0
  9 10  2  0
  9 11  1  0
 11 12  1  0
 12 13  2  0
 13 14  1  0
 14 15  2  0
 15 16  1  0
 16 17  1  0
 17 18  1  0
 18 19  1  0
 19 20  1  0
 19 21  1  0
 21 22  1  0
 15 23  1  0
 23 24  2  0
  6 25  1  0
 25 26  2  0
 26  3  1  0
 24 12  1  0
 22 16  1  0
  1 27  1  0
  1 28  1  0
  1 29  1  0
  2 30  1  0
  2 31  1  0
  4 32  1  0
  5 33  1  0
  8 34  1  0
  8 35  1  0
 13 36  1  0
 14 37  1  0
 17 38  1  0
 17 39  1  0
 18 40  1  0
 18 41  1  0
 20 42  1  0
 20 43  1  0
 20 44  1  0
 21 45  1  0
 21 46  1  0
 22 47  1  0
 22 48  1  0
 23 49  1  0
 24 50  1  0
 25 51  1  0
 26 52  1  0
M  CHG  1  11  -1
M  END
>  <UniqueID>  (4) 
4

>  <SMILES>  (4) 
CCc1ccc(OCC(=O)[N-]c2ccc(N3CCN(C)CC3)cc2)cc1

>  <Energy>  (4) 
63.337491310619946

>  <Genealogy>  (4) 
CCc1ccc(OCC(=O)[N-]c2ccc(N3CCN(C)CC3)cc2)cc1 (protonated)
CCc1ccc(OCC(=O)[N-]c2ccc(N3CCN(C)CC3)cc2)cc1 (3D coordinates assigned)
CCc1ccc(OCC(=O)[N-]c2ccc(N3CCN(C)CC3)cc2)cc1 (nonaromatic ring conformer: 63.337491310619946 kcal/mol)

>  <smiles>  (4) 
CCc1ccc(OCC(=O)Nc2ccc(N3CCN(C)CC3)cc2)cc1

>  <score_type>  (4) 
oracle

>  <origin>  (4) 
adg

>  <m_score__min__energy>  (4) 
-9.5099999999999998

>  <m_primary>  (4) 
energy

$$$$
4:0
     RDKit          3D

 48 50  0  0  0  0  0  0  0  0999 V2000
   58.7790   25.1730   45.8830 O   0  0  0  0  0  0  0  0  0  0  0  0
   57.8880   24.9010   45.0350 C   0  0  0  0  0  0  0  0  0  0  0  0
   57.5290   25.8680   44.0390 N   0  0  0  0  0  0  0  0  0  0  0  0
   58.2880   27.1080   43.8700 C   0  0  0  0  0  0  0  0  0  0  0  0
   57.3950   28.2170   43.2900 C   0  0  0  0  0  0  0  0  0  0  0  0
   57.2930   29.4860   44.1800 C   0  0  0  0  0  0  0  0  0  0  0  0
   56.0510   29.4940   44.8530 O   0  0  0  0  0  0  0  0  0  0  0  0
   57.3350   30.7320   43.2660 C   0  0  0  0  0  0  0  0  0  0  0  0
   57.2780   32.0540   44.0690 C   0  0  0  0  0  0  0  0  0  0  0  0
   57.5400   31.8440   45.5060 N   0  0  0  0  0  0  0  0  0  0  0  0
   57.7390   33.3790   46.3130 S   0  0  0  0  0  0  0  0  0  0  0  0
   57.4530   34.4990   45.3510 O   0  0  0  0  0  0  0  0  0  0  0  0
   56.7600   33.4710   47.4500 O   0  0  0  0  0  0  0  0  0  0  0  0
   59.3660   33.5710   46.9490 C   0  0  0  0  0  0  0  0  0  0  0  0
   60.5170   33.7540   46.1980 C   0  0  0  0  0  0  0  0  0  0  0  0
   61.6670   33.8860   46.9850 C   0  0  0  0  0  0  0  0  0  0  0  0
   61.4190   33.8080   48.3510 C   0  0  0  0  0  0  0  0  0  0  0  0
   59.7690   33.5760   48.5790 S   0  0  0  0  0  0  0  0  0  0  0  0
   58.7330   31.0070   45.7010 C   0  0  0  0  0  0  0  0  0  0  0  0
   58.4810   29.5740   45.1880 C   0  0  0  0  0  0  0  0  0  0  0  0
   57.1830   23.6050   45.1170 C   0  0  0  0  0  0  0  0  0  0  0  0
   55.7930   23.5990   45.3330 C   0  0  0  0  0  0  0  0  0  0  0  0
   55.0910   22.3930   45.3960 C   0  0  0  0  0  0  0  0  0  0  0  0
   55.7640   21.1820   45.2520 C   0  0  0  0  0  0  0  0  0  0  0  0
   57.1470   21.1710   45.0560 C   0  0  0  0  0  0  0  0  0  0  0  0
   57.8640   22.3730   44.9920 C   0  0  0  0  0  0  0  0  0  0  0  0
   59.6150   22.2830   44.8360 Cl  0  0  0  0  0  0  0  0  0  0  0  0
   56.6790   25.6960   43.4580 H   0  0  0  0  0  0  0  0  0  0  0  0
   58.6751   27.4305   44.8478 H   0  0  0  0  0  0  0  0  0  0  0  0
   59.1186   26.9221   43.1731 H   0  0  0  0  0  0  0  0  0  0  0  0
   57.8044   28.5134   42.3130 H   0  0  0  0  0  0  0  0  0  0  0  0
   56.3798   27.7994   43.2191 H   0  0  0  0  0  0  0  0  0  0  0  0
   56.0890   30.1550   45.5880 H   0  0  0  0  0  0  0  0  0  0  0  0
   58.2682   30.7120   42.6839 H   0  0  0  0  0  0  0  0  0  0  0  0
   56.4515   30.6983   42.6116 H   0  0  0  0  0  0  0  0  0  0  0  0
   58.0342   32.7451   43.6682 H   0  0  0  0  0  0  0  0  0  0  0  0
   56.2640   32.4680   43.9672 H   0  0  0  0  0  0  0  0  0  0  0  0
   60.5256   33.7915   45.0987 H   0  0  0  0  0  0  0  0  0  0  0  0
   62.6715   34.0371   46.5630 H   0  0  0  0  0  0  0  0  0  0  0  0
   62.1739   33.8850   49.1473 H   0  0  0  0  0  0  0  0  0  0  0  0
   59.5767   31.4457   45.1481 H   0  0  0  0  0  0  0  0  0  0  0  0
   58.9637   30.9634   46.7757 H   0  0  0  0  0  0  0  0  0  0  0  0
   59.3926   29.2158   44.6872 H   0  0  0  0  0  0  0  0  0  0  0  0
   58.2196   28.9546   46.0587 H   0  0  0  0  0  0  0  0  0  0  0  0
   55.2550   24.5509   45.4532 H   0  0  0  0  0  0  0  0  0  0  0  0
   54.0033   22.3997   45.5598 H   0  0  0  0  0  0  0  0  0  0  0  0
   55.2066   20.2346   45.2926 H   0  0  0  0  0  0  0  0  0  0  0  0
   57.6765   20.2125   44.9512 H   0  0  0  0  0  0  0  0  0  0  0  0
  1  2  2  0
  2  3  1  0
  3  4  1  0
  4  5  1  0
  5  6  1  0
  6  7  1  0
  6  8  1  0
  8  9  1  0
  9 10  1  0
 10 11  1  0
 11 12  2  0
 11 13  2  0
 11 14  1  0
 14 15  2  0
 15 16  1  0
 16 17  2  0
 17 18  1  0
 10 19  1  0
 19 20  1  0
  2 21  1  0
 21 22  2  0
 22 23  1  0
 23 24  2  0
 24 25  1  0
 25 26  2  0
 26 27  1  0
 20  6  1  0
 26 21  1  0
 18 14  1  0
  3 28  1  0
  4 29  1  0
  4 30  1  0
  5 31  1  0
  5 32  1  0
  7 33  1  0
  8 34  1  0
  8 35  1  0
  9 36  1  0
  9 37  1  0
 15 38  1  0
 16 39  1  0
 17 40  1  0
 19 41  1  0
 19 42  1  0
 20 43  1  0
 20 44  1  0
 22 45  1  0
 23 46  1  0
 24 47  1  0
 25 48  1  0
M  END
>  <UniqueID>  (5) 
5

>  <SMILES>  (5) 
O=C(NCCC1(O)CCN(S(=O)(=O)c2cccs2)CC1)c1ccccc1Cl

>  <Energy>  (5) 
83.30246908691234

>  <Genealogy>  (5) 
O=C(NCCC1(O)CCN(S(=O)(=O)c2cccs2)CC1)c1ccccc1Cl (3D coordinates assigned)
O=C(NCCC1(O)CCN(S(=O)(=O)c2cccs2)CC1)c1ccccc1Cl (nonaromatic ring conformer: 83.30246908691234 kcal/mol)

>  <smiles>  (5) 
O=C(NCCC1(O)CCN(S(=O)(=O)c2cccs2)CC1)c1ccccc1Cl

>  <score_type>  (5) 
oracle

>  <origin>  (5) 
adg

>  <m_score__min__energy>  (5) 
-9.7899999999999991

>  <m_primary>  (5) 
energy

$$$$
5:0
     RDKit          3D

 48 50  0  0  0  0  0  0  0  0999 V2000
   60.6790   29.5570   50.5830 C   0  0  0  0  0  0  0  0  0  0  0  0
   60.9390   29.9520   49.2400 O   0  0  0  0  0  0  0  0  0  0  0  0
   61.8560   30.9480   48.8650 C   0  0  0  0  0  0  0  0  0  0  0  0
   62.6630   31.6090   49.8130 C   0  0  0  0  0  0  0  0  0  0  0  0
   63.5520   32.6090   49.4110 C   0  0  0  0  0  0  0  0  0  0  0  0
   63.6440   32.9640   48.0660 C   0  0  0  0  0  0  0  0  0  0  0  0
   62.8530   32.3170   47.1150 C   0  0  0  0  0  0  0  0  0  0  0  0
   61.9680   31.2960   47.5020 C   0  0  0  0  0  0  0  0  0  0  0  0
   61.0960   30.6340   46.4650 C   0  0  0  0  0  0  0  0  0  0  0  0
   59.7120   30.5500   46.9360 N   0  0  0  0  0  0  0  0  0  0  0  0
   58.6380   30.0360   46.1230 C   0  0  0  0  0  0  0  0  0  0  0  0
   58.1230   28.7450   46.3580 C   0  0  0  0  0  0  0  0  0  0  0  0
   57.0370   28.2520   45.6180 C   0  0  0  0  0  0  0  0  0  0  0  0
   56.4990   26.8960   45.8750 C   0  0  0  0  0  0  0  0  0  0  0  0
   57.2740   25.9090   45.9860 O   0  0  0  0  0  0  0  0  0  0  0  0
   55.1290   26.6930   45.9960 O   0  0  0  0  0  0  0  0  0  0  0  0
   56.4610   29.0640   44.6310 C   0  0  0  0  0  0  0  0  0  0  0  0
   56.9640   30.3400   44.3830 C   0  0  0  0  0  0  0  0  0  0  0  0
   58.0530   30.8410   45.1150 C   0  0  0  0  0  0  0  0  0  0  0  0
   58.6100   32.1290   44.7950 N   0  0  0  0  0  0  0  0  0  0  0  0
   58.1490   33.5910   45.6070 S   0  0  0  0  0  0  0  0  0  0  0  0
   56.6550   33.6200   45.7620 O   0  0  0  0  0  0  0  0  0  0  0  0
   58.5740   34.7690   44.7740 O   0  0  0  0  0  0  0  0  0  0  0  0
   58.8980   33.6640   47.1970 C   0  0  0  0  0  0  0  0  0  0  0  0
   59.9710   34.5340   47.4350 C   0  0  0  0  0  0  0  0  0  0  0  0
   60.5670   34.5850   48.6990 C   0  0  0  0  0  0  0  0  0  0  0  0
   60.0940   33.7700   49.7310 C   0  0  0  0  0  0  0  0  0  0  0  0
   60.6730   33.8210   50.9550 F   0  0  0  0  0  0  0  0  0  0  0  0
   59.0210   32.9040   49.5000 C   0  0  0  0  0  0  0  0  0  0  0  0
   58.4220   32.8510   48.2370 C   0  0  0  0  0  0  0  0  0  0  0  0
   61.1499   30.2724   51.2733 H   0  0  0  0  0  0  0  0  0  0  0  0
   59.5929   29.5405   50.7566 H   0  0  0  0  0  0  0  0  0  0  0  0
   61.0933   28.5529   50.7566 H   0  0  0  0  0  0  0  0  0  0  0  0
   62.5924   31.3357   50.8762 H   0  0  0  0  0  0  0  0  0  0  0  0
   64.1805   33.1172   50.1571 H   0  0  0  0  0  0  0  0  0  0  0  0
   64.3412   33.7554   47.7535 H   0  0  0  0  0  0  0  0  0  0  0  0
   62.9227   32.6080   46.0565 H   0  0  0  0  0  0  0  0  0  0  0  0
   61.1272   31.2230   45.5365 H   0  0  0  0  0  0  0  0  0  0  0  0
   61.4716   29.6165   46.2817 H   0  0  0  0  0  0  0  0  0  0  0  0
   59.5030   30.8510   47.9140 H   0  0  0  0  0  0  0  0  0  0  0  0
   58.5798   28.1135   47.1342 H   0  0  0  0  0  0  0  0  0  0  0  0
   55.6058   28.6914   44.0480 H   0  0  0  0  0  0  0  0  0  0  0  0
   56.5018   30.9632   43.6033 H   0  0  0  0  0  0  0  0  0  0  0  0
   59.3320   32.2130   44.0470 H   0  0  0  0  0  0  0  0  0  0  0  0
   60.3451   35.1781   46.6256 H   0  0  0  0  0  0  0  0  0  0  0  0
   61.4098   35.2680   48.8813 H   0  0  0  0  0  0  0  0  0  0  0  0
   58.6473   32.2635   50.3125 H   0  0  0  0  0  0  0  0  0  0  0  0
   57.5762   32.1707   48.0587 H   0  0  0  0  0  0  0  0  0  0  0  0
  1  2  1  0
  2  3  1  0
  3  4  2  0
  4  5  1  0
  5  6  2  0
  6  7  1  0
  7  8  2  0
  8  9  1  0
  9 10  1  0
 10 11  1  0
 11 12  2  0
 12 13  1  0
 13 14  1  0
 14 15  2  0
 14 16  1  0
 13 17  2  0
 17 18  1  0
 18 19  2  0
 19 20  1  0
 20 21  1  0
 21 22  2  0
 21 23  2  0
 21 24  1  0
 24 25  2  0
 25 26  1  0
 26 27  2  0
 27 28  1  0
 27 29  1  0
 29 30  2  0
  8  3  1  0
 19 11  1  0
 30 24  1  0
  1 31  1  0
  1 32  1  0
  1 33  1  0
  4 34  1  0
  5 35  1  0
  6 36  1  0
  7 37  1  0
  9 38  1  0
  9 39  1  0
 10 40  1  0
 12 41  1  0
 17 42  1  0
 18 43  1  0
 20 44  1  0
 25 45  1  0
 26 46  1  0
 29 47  1  0
 30 48  1  0
M  CHG  1  16  -1
M  END
>  <UniqueID>  (6) 
6

>  <SMILES>  (6) 
COc1ccccc1CNc1cc(C(=O)[O-])ccc1NS(=O)(=O)c1ccc(F)cc1

>  <Energy>  (6) 
57.07276171137319

>  <Genealogy>  (6) 
COc1ccccc1CNc1cc(C(=O)[O-])ccc1NS(=O)(=O)c1ccc(F)cc1 (protonated)
COc1ccccc1CNc1cc(C(=O)[O-])ccc1NS(=O)(=O)c1ccc(F)cc1 (3D coordinates assigned)
COc1ccccc1CNc1cc(C(=O)[O-])ccc1NS(=O)(=O)c1ccc(F)cc1 (optimized conformer: 57.07276171137319 kcal/mol)

>  <smiles>  (6) 
COc1ccccc1CNc1cc(C(=O)O)ccc1NS(=O)(=O)c1ccc(F)cc1

>  <score_type>  (6) 
oracle

>  <origin>  (6) 
adg

>  <m_score__min__energy>  (6) 
-10.800000000000001

>  <m_primary>  (6) 
energy

$$$$
6:0
     RDKit          3D

 56 59  0  0  0  0  0  0  0  0999 V2000
   57.0270   21.1560   43.0400 C   0  0  0  0  0  0  0  0  0  0  0  0
   56.1970   22.3130   43.0080 O   0  0  0  0  0  0  0  0  0  0  0  0
   56.3420   23.4160   43.8620 C   0  0  0  0  0  0  0  0  0  0  0  0
   55.4070   23.5890   44.8890 C   0  0  0  0  0  0  0  0  0  0  0  0
   55.5100   24.6700   45.7690 C   0  0  0  0  0  0  0  0  0  0  0  0
   56.5510   25.6020   45.6300 C   0  0  0  0  0  0  0  0  0  0  0  0
   56.6830   26.7470   46.6000 C   0  0  0  0  0  0  0  0  0  0  0  0
   57.4110   27.8710   45.9770 N   0  0  0  0  0  0  0  0  0  0  0  0
   56.7510   28.7470   45.1520 C   0  0  0  0  0  0  0  0  0  0  0  0
   55.5270   28.5920   44.8910 O   0  0  0  0  0  0  0  0  0  0  0  0
   57.4280   29.8230   44.5860 C   0  0  0  0  0  0  0  0  0  0  0  0
   56.7880   30.6910   43.7620 F   0  0  0  0  0  0  0  0  0  0  0  0
   58.7730   29.9970   44.8730 C   0  0  0  0  0  0  0  0  0  0  0  0
   59.4200   29.1330   45.7060 N   0  0  0  0  0  0  0  0  0  0  0  0
   60.8540   29.3330   45.9670 C   0  0  0  0  0  0  0  0  0  0  0  0
   61.0440   30.3390   47.0610 C   0  0  0  0  0  0  0  0  0  0  0  0
   60.2780   30.3180   48.0620 O   0  0  0  0  0  0  0  0  0  0  0  0
   62.1320   31.2720   46.9970 N   0  0  0  0  0  0  0  0  0  0  0  0
   62.3280   32.3070   47.9720 C   0  0  0  0  0  0  0  0  0  0  0  0
   63.4970   32.2870   48.7460 C   0  0  0  0  0  0  0  0  0  0  0  0
   63.7070   33.2450   49.7390 C   0  0  0  0  0  0  0  0  0  0  0  0
   62.7550   34.2390   49.9640 C   0  0  0  0  0  0  0  0  0  0  0  0
   61.5980   34.2900   49.1840 C   0  0  0  0  0  0  0  0  0  0  0  0
   61.3760   33.3410   48.1700 C   0  0  0  0  0  0  0  0  0  0  0  0
   60.1810   33.4830   47.3030 C   0  0  0  0  0  0  0  0  0  0  0  0
   58.9230   33.0420   47.7490 C   0  0  0  0  0  0  0  0  0  0  0  0
   57.7970   33.1760   46.9320 C   0  0  0  0  0  0  0  0  0  0  0  0
   57.9150   33.7560   45.6650 C   0  0  0  0  0  0  0  0  0  0  0  0
   59.1590   34.2070   45.2170 C   0  0  0  0  0  0  0  0  0  0  0  0
   60.2870   34.0770   46.0320 C   0  0  0  0  0  0  0  0  0  0  0  0
   58.7450   28.0680   46.2490 C   0  0  0  0  0  0  0  0  0  0  0  0
   59.3590   27.2600   47.0030 O   0  0  0  0  0  0  0  0  0  0  0  0
   57.4910   25.4300   44.6020 C   0  0  0  0  0  0  0  0  0  0  0  0
   57.3880   24.3470   43.7220 C   0  0  0  0  0  0  0  0  0  0  0  0
   57.2271   20.8771   44.0851 H   0  0  0  0  0  0  0  0  0  0  0  0
   56.5177   20.3251   42.5298 H   0  0  0  0  0  0  0  0  0  0  0  0
   57.9773   21.3722   42.5298 H   0  0  0  0  0  0  0  0  0  0  0  0
   54.5842   22.8682   45.0046 H   0  0  0  0  0  0  0  0  0  0  0  0
   54.7714   24.7913   46.5750 H   0  0  0  0  0  0  0  0  0  0  0  0
   55.6800   27.0862   46.8983 H   0  0  0  0  0  0  0  0  0  0  0  0
   57.2448   26.4039   47.4813 H   0  0  0  0  0  0  0  0  0  0  0  0
   59.3223   30.8383   44.4254 H   0  0  0  0  0  0  0  0  0  0  0  0
   61.3053   28.3767   46.2700 H   0  0  0  0  0  0  0  0  0  0  0  0
   61.3381   29.7023   45.0509 H   0  0  0  0  0  0  0  0  0  0  0  0
   62.8980   31.0940   46.3090 H   0  0  0  0  0  0  0  0  0  0  0  0
   64.2550   31.5097   48.5691 H   0  0  0  0  0  0  0  0  0  0  0  0
   64.6246   33.2160   50.3450 H   0  0  0  0  0  0  0  0  0  0  0  0
   62.9158   34.9840   50.7572 H   0  0  0  0  0  0  0  0  0  0  0  0
   60.8535   35.0795   49.3642 H   0  0  0  0  0  0  0  0  0  0  0  0
   58.8243   32.5890   48.7465 H   0  0  0  0  0  0  0  0  0  0  0  0
   56.8166   32.8247   47.2861 H   0  0  0  0  0  0  0  0  0  0  0  0
   57.0287   33.8571   45.0214 H   0  0  0  0  0  0  0  0  0  0  0  0
   59.2509   34.6652   44.2212 H   0  0  0  0  0  0  0  0  0  0  0  0
   61.2627   34.4410   45.6779 H   0  0  0  0  0  0  0  0  0  0  0  0
   58.3138   26.1511   44.4874 H   0  0  0  0  0  0  0  0  0  0  0  0
   58.1277   24.2228   42.9174 H   0  0  0  0  0  0  0  0  0  0  0  0
  1  2  1  0
  2  3  1  0
  3  4  2  0
  4  5  1  0
  5  6  2  0
  6  7  1  0
  7  8  1  0
  8  9  1  0
  9 10  2  0
  9 11  1  0
 11 12  1  0
 11 13  2  0
 13 14  1  0
 14 15  1  0
 15 16  1  0
 16 17  2  0
 16 18  1  0
 18 19  1  0
 19 20  2  0
 20 21  1  0
 21 22  2  0
 22 23  1  0
 23 24  2  0
 24 25  1  0
 25 26  2  0
 26 27  1  0
 27 28  2  0
 28 29  1  0
 29 30  2  0
 14 31  1  0
 31 32  2  0
  6 33  1  0
 33 34  2  0
 34  3  1  0
 31  8  1  0
 24 19  1  0
 30 25  1  0
  1 35  1  0
  1 36  1  0
  1 37  1  0
  4 38  1  0
  5 39  1  0
  7 40  1  0
  7 41  1  0
 13 42  1  0
 15 43  1  0
 15 44  1  0
 18 45  1  0
 20 46  1  0
 21 47  1  0
 22 48  1  0
 23 49  1  0
 26 50  1  0
 27 51  1  0
 28 52  1  0
 29 53  1  0
 30 54  1  0
 33 55  1  0
 34 56  1  0
M  END
>  <UniqueID>  (7) 
7

>  <SMILES>  (7) 
COc1ccc(Cn2c(=O)c(F)cn(CC(=O)Nc3ccccc3-c3ccccc3)c2=O)cc1

>  <Energy>  (7) 
74.88444034736628

>  <Genealogy>  (7) 
COc1ccc(Cn2c(=O)c(F)cn(CC(=O)Nc3ccccc3-c3ccccc3)c2=O)cc1 (3D coordinates assigned)
COc1ccc(Cn2c(=O)c(F)cn(CC(=O)Nc3ccccc3-c3ccccc3)c2=O)cc1 (optimized conformer: 74.88444034736628 kcal/mol)

>  <smiles>  (7) 
COc1ccc(Cn2c(=O)c(F)cn(CC(=O)Nc3ccccc3-c3ccccc3)c2=O)cc1

>  <score_type>  (7) 
oracle

>  <origin>  (7) 
adg

>  <m_score__min__energy>  (7) 
-9.3100000000000005

>  <m_primary>  (7) 
energy

$$$$
7:0
     RDKit          3D

 44 46  0  0  0  0  0  0  0  0999 V2000
   59.2120   30.9340   50.8700 C   0  0  0  0  0  0  0  0  0  0  0  0
   58.6930   30.0780   49.8570 O   0  0  0  0  0  0  0  0  0  0  0  0
   59.2080   29.9900   48.5550 C   0  0  0  0  0  0  0  0  0  0  0  0
   60.4480   30.5830   48.2890 C   0  0  0  0  0  0  0  0  0  0  0  0
   61.0060   30.5160   47.0120 C   0  0  0  0  0  0  0  0  0  0  0  0
   60.3290   29.8570   45.9830 C   0  0  0  0  0  0  0  0  0  0  0  0
   59.0780   29.2670   46.2260 C   0  0  0  0  0  0  0  0  0  0  0  0
   58.3760   28.5070   45.1340 C   0  0  0  0  0  0  0  0  0  0  0  0
   57.2100   27.7690   45.7090 C   0  0  0  0  0  0  0  0  0  0  0  0
   57.4020   26.8530   46.5540 O   0  0  0  0  0  0  0  0  0  0  0  0
   55.8890   28.0670   45.2480 N   0  0  0  0  0  0  0  0  0  0  0  0
   55.4540   29.4050   44.8680 C   0  0  0  0  0  0  0  0  0  0  0  0
   55.9770   29.7480   43.4710 C   0  0  0  0  0  0  0  0  0  0  0  0
   56.8480   30.9630   43.5120 C   0  0  0  0  0  0  0  0  0  0  0  0
   57.2620   31.5470   44.6560 N   0  0  0  0  0  0  0  0  0  0  0  0
   58.0540   32.6320   44.4280 C   0  0  0  0  0  0  0  0  0  0  0  0
   58.6140   33.4310   45.5470 C   0  0  0  0  0  0  0  0  0  0  0  0
   59.2550   34.6560   45.2800 C   0  0  0  0  0  0  0  0  0  0  0  0
   59.7900   35.4200   46.3220 C   0  0  0  0  0  0  0  0  0  0  0  0
   59.6860   34.9750   47.6410 C   0  0  0  0  0  0  0  0  0  0  0  0
   59.0440   33.7670   47.9230 C   0  0  0  0  0  0  0  0  0  0  0  0
   58.9340   33.3430   49.2060 F   0  0  0  0  0  0  0  0  0  0  0  0
   58.5090   32.9970   46.8840 C   0  0  0  0  0  0  0  0  0  0  0  0
   58.2660   32.9160   43.0750 C   0  0  0  0  0  0  0  0  0  0  0  0
   57.4360   31.7740   42.1630 S   0  0  0  0  0  0  0  0  0  0  0  0
   58.5260   29.3260   47.5160 C   0  0  0  0  0  0  0  0  0  0  0  0
   58.9632   30.5236   51.8598 H   0  0  0  0  0  0  0  0  0  0  0  0
   60.3049   31.0041   50.7663 H   0  0  0  0  0  0  0  0  0  0  0  0
   58.7688   31.9354   50.7663 H   0  0  0  0  0  0  0  0  0  0  0  0
   60.9866   31.1058   49.0931 H   0  0  0  0  0  0  0  0  0  0  0  0
   61.9820   30.9835   46.8149 H   0  0  0  0  0  0  0  0  0  0  0  0
   60.7769   29.8001   44.9799 H   0  0  0  0  0  0  0  0  0  0  0  0
   58.0217   29.2112   44.3668 H   0  0  0  0  0  0  0  0  0  0  0  0
   59.0752   27.7897   44.6794 H   0  0  0  0  0  0  0  0  0  0  0  0
   54.3547   29.4436   44.8651 H   0  0  0  0  0  0  0  0  0  0  0  0
   55.8508   30.1328   45.5911 H   0  0  0  0  0  0  0  0  0  0  0  0
   56.5609   28.8988   43.0863 H   0  0  0  0  0  0  0  0  0  0  0  0
   55.1186   29.9523   42.8142 H   0  0  0  0  0  0  0  0  0  0  0  0
   59.3356   35.0149   44.2433 H   0  0  0  0  0  0  0  0  0  0  0  0
   60.2935   36.3729   46.1019 H   0  0  0  0  0  0  0  0  0  0  0  0
   60.1100   35.5761   48.4589 H   0  0  0  0  0  0  0  0  0  0  0  0
   58.0034   32.0471   47.1122 H   0  0  0  0  0  0  0  0  0  0  0  0
   58.8713   33.7436   42.6767 H   0  0  0  0  0  0  0  0  0  0  0  0
   57.5546   28.8506   47.7167 H   0  0  0  0  0  0  0  0  0  0  0  0
  1  2  1  0
  2  3  1  0
  3  4  2  0
  4  5  1  0
  5  6  2  0
  6  7  1  0
  7  8  1  0
  8  9  1  0
  9 10  2  0
  9 11  1  0
 11 12  1  0
 12 13  1  0
 13 14  1  0
 14 15  2  0
 15 16  1  0
 16 17  1  0
 17 18  2  0
 18 19  1  0
 19 20  2  0
 20 21  1  0
 21 22  1  0
 21 23  2  0
 16 24  2  0
 24 25  1  0
  7 26  2  0
 26  3  1  0
 25 14  1  0
 23 17  1  0
  1 27  1  0
  1 28  1  0
  1 29  1  0
  4 30  1  0
  5 31  1  0
  6 32  1  0
  8 33  1  0
  8 34  1  0
 12 35  1  0
 12 36  1  0
 13 37  1  0
 13 38  1  0
 18 39  1  0
 19 40  1  0
 20 41  1  0
 23 42  1  0
 24 43  1  0
 26 44  1  0
M  CHG  1  11  -1
M  END
>  <UniqueID>  (8) 
8

>  <SMILES>  (8) 
COc1cccc(CC(=O)[N-]CCc2nc(-c3cccc(F)c3)cs2)c1

>  <Energy>  (8) 
70.19299160002774

>  <Genealogy>  (8) 
COc1cccc(CC(=O)[N-]CCc2nc(-c3cccc(F)c3)cs2)c1 (protonated)
COc1cccc(CC(=O)[N-]CCc2nc(-c3cccc(F)c3)cs2)c1 (3D coordinates assigned)
COc1cccc(CC(=O)[N-]CCc2nc(-c3cccc(F)c3)cs2)c1 (optimized conformer: 70.19299160002774 kcal/mol)

>  <smiles>  (8) 
COc1cccc(CC(=O)NCCc2nc(-c3cccc(F)c3)cs2)c1

>  <score_type>  (8) 
oracle

>  <origin>  (8) 
adg

>  <m_score__min__energy>  (8) 
-9.9600000000000009

>  <m_primary>  (8) 
energy

$$$$
8:0
     RDKit          3D

 47 50  0  0  0  0  0  0  0  0999 V2000
   55.3090   28.9890   44.8660 O   0  0  0  0  0  0  0  0  0  0  0  0
   56.3580   29.6870   44.8580 C   0  0  0  0  0  0  0  0  0  0  0  0
   56.2810   31.0490   44.4270 N   0  0  0  0  0  0  0  0  0  0  0  0
   56.5990   32.0930   45.2380 O   0  0  0  0  0  0  0  0  0  0  0  0
   57.8210   32.6190   44.7710 C   0  0  0  0  0  0  0  0  0  0  0  0
   58.5780   33.2780   45.8940 C   0  0  0  0  0  0  0  0  0  0  0  0
   58.4920   32.7650   47.1980 C   0  0  0  0  0  0  0  0  0  0  0  0
   59.1720   33.3930   48.2470 C   0  0  0  0  0  0  0  0  0  0  0  0
   59.9320   34.5400   48.0020 C   0  0  0  0  0  0  0  0  0  0  0  0
   60.0110   35.0630   46.7080 C   0  0  0  0  0  0  0  0  0  0  0  0
   59.3330   34.4380   45.6570 C   0  0  0  0  0  0  0  0  0  0  0  0
   57.6340   29.0860   45.2880 C   0  0  0  0  0  0  0  0  0  0  0  0
   58.4790   28.3330   44.4950 C   0  0  0  0  0  0  0  0  0  0  0  0
   59.5440   27.9880   45.3000 C   0  0  0  0  0  0  0  0  0  0  0  0
   59.2760   28.5490   46.5370 C   0  0  0  0  0  0  0  0  0  0  0  0
   60.1290   28.4790   47.7350 C   0  0  0  0  0  0  0  0  0  0  0  0
   60.2500   27.3750   48.3300 O   0  0  0  0  0  0  0  0  0  0  0  0
   60.7990   29.6430   48.2490 N   0  0  0  0  0  0  0  0  0  0  0  0
   60.6730   29.9900   49.6680 C   0  0  0  0  0  0  0  0  0  0  0  0
   62.0050   30.5230   50.1860 C   0  0  0  0  0  0  0  0  0  0  0  0
   62.5690   31.5860   49.2790 C   0  0  0  0  0  0  0  0  0  0  0  0
   63.5180   32.4870   49.7860 C   0  0  0  0  0  0  0  0  0  0  0  0
   64.0970   33.4480   48.9540 C   0  0  0  0  0  0  0  0  0  0  0  0
   63.7420   33.5110   47.6060 C   0  0  0  0  0  0  0  0  0  0  0  0
   62.8110   32.6100   47.0840 C   0  0  0  0  0  0  0  0  0  0  0  0
   62.2270   31.6330   47.9070 C   0  0  0  0  0  0  0  0  0  0  0  0
   61.2020   30.6970   47.3110 C   0  0  0  0  0  0  0  0  0  0  0  0
   58.1360   29.1980   46.4960 O   0  0  0  0  0  0  0  0  0  0  0  0
   58.4300   31.8033   44.3543 H   0  0  0  0  0  0  0  0  0  0  0  0
   57.6105   33.3708   43.9960 H   0  0  0  0  0  0  0  0  0  0  0  0
   57.8883   31.8669   47.3954 H   0  0  0  0  0  0  0  0  0  0  0  0
   59.1084   32.9835   49.2659 H   0  0  0  0  0  0  0  0  0  0  0  0
   60.4680   35.0313   48.8274 H   0  0  0  0  0  0  0  0  0  0  0  0
   60.6073   35.9673   46.5164 H   0  0  0  0  0  0  0  0  0  0  0  0
   59.3912   34.8563   44.6413 H   0  0  0  0  0  0  0  0  0  0  0  0
   58.3321   28.0641   43.4385 H   0  0  0  0  0  0  0  0  0  0  0  0
   60.4238   27.3910   45.0179 H   0  0  0  0  0  0  0  0  0  0  0  0
   59.8984   30.7617   49.7885 H   0  0  0  0  0  0  0  0  0  0  0  0
   60.3921   29.0930   50.2393 H   0  0  0  0  0  0  0  0  0  0  0  0
   61.8523   30.9525   51.1871 H   0  0  0  0  0  0  0  0  0  0  0  0
   62.7192   29.6871   50.2212 H   0  0  0  0  0  0  0  0  0  0  0  0
   63.8079   32.4361   50.8459 H   0  0  0  0  0  0  0  0  0  0  0  0
   64.8336   34.1559   49.3618 H   0  0  0  0  0  0  0  0  0  0  0  0
   64.1960   34.2713   46.9535 H   0  0  0  0  0  0  0  0  0  0  0  0
   62.5333   32.6660   46.0211 H   0  0  0  0  0  0  0  0  0  0  0  0
   60.3123   31.2794   47.0297 H   0  0  0  0  0  0  0  0  0  0  0  0
   61.6578   30.2121   46.4352 H   0  0  0  0  0  0  0  0  0  0  0  0
  1  2  2  0
  2  3  1  0
  3  4  1  0
  4  5  1  0
  5  6  1  0
  6  7  2  0
  7  8  1  0
  8  9  2  0
  9 10  1  0
 10 11  2  0
  2 12  1  0
 12 13  2  0
 13 14  1  0
 14 15  2  0
 15 16  1  0
 16 17  2  0
 16 18  1  0
 18 19  1  0
 19 20  1  0
 20 21  1  0
 21 22  2  0
 22 23  1  0
 23 24  2  0
 24 25  1  0
 25 26  2  0
 26 27  1  0
 15 28  1  0
 11  6  1  0
 28 12  1  0
 27 18  1  0
 26 21  1  0
  5 29  1  0
  5 30  1  0
  7 31  1  0
  8 32  1  0
  9 33  1  0
 10 34  1  0
 11 35  1  0
 13 36  1  0
 14 37  1  0
 19 38  1  0
 19 39  1  0
 20 40  1  0
 20 41  1  0
 22 42  1  0
 23 43  1  0
 24 44  1  0
 25 45  1  0
 27 46  1  0
 27 47  1  0
M  CHG  1   3  -1
M  END
>  <UniqueID>  (9) 
9

>  <SMILES>  (9) 
O=C([N-]OCc1ccccc1)c1ccc(C(=O)N2CCc3ccccc3C2)o1

>  <Energy>  (9) 
79.35798133904169

>  <Genealogy>  (9) 
O=C([N-]OCc1ccccc1)c1ccc(C(=O)N2CCc3ccccc3C2)o1 (protonated)
O=C([N-]OCc1ccccc1)c1ccc(C(=O)N2CCc3ccccc3C2)o1 (3D coordinates assigned)
O=C([N-]OCc1ccccc1)c1ccc(C(=O)N2CCc3ccccc3C2)o1 (nonaromatic ring conformer: 79.35798133904169 kcal/mol)

>  <smiles>  (9) 
O=C(NOCc1ccccc1)c1ccc(C(=O)N2CCc3ccccc3C2)o1

>  <score_type>  (9) 
oracle

>  <origin>  (9) 
adg

>  <m_score__min__energy>  (9) 
-11.81

>  <m_primary>  (9) 
energy

$$$$
9:0
     RDKit          3D

 40 41  0  0  0  0  0  0  0  0999 V2000
   58.0570   25.2450   47.3460 C   0  0  0  0  0  0  0  0  0  0  0  0
   57.0350   24.4380   46.6870 N   0  0  0  0  0  0  0  0  0  0  0  0
   56.5920   23.1740   47.1380 C   0  0  0  0  0  0  0  0  0  0  0  0
   57.0160   22.6300   48.1920 O   0  0  0  0  0  0  0  0  0  0  0  0
   55.5710   22.5760   46.2560 C   0  0  0  0  0  0  0  0  0  0  0  0
   55.5280   23.5430   45.0620 C   0  0  0  0  0  0  0  0  0  0  0  0
   56.3400   24.8020   45.4620 C   0  0  1  0  0  0  0  0  0  0  0  0
   55.4270   25.9810   45.7070 C   0  0  0  0  0  0  0  0  0  0  0  0
   54.2060   25.7760   45.9410 O   0  0  0  0  0  0  0  0  0  0  0  0
   55.8890   27.3370   45.6290 N   0  0  0  0  0  0  0  0  0  0  0  0
   57.2690   27.7740   45.4400 C   0  0  0  0  0  0  0  0  0  0  0  0
   57.3280   29.1270   44.7680 C   0  0  0  0  0  0  0  0  0  0  0  0
   56.6450   29.3180   43.5570 C   0  0  0  0  0  0  0  0  0  0  0  0
   56.6630   30.5570   42.9220 C   0  0  0  0  0  0  0  0  0  0  0  0
   57.3720   31.6190   43.4770 C   0  0  0  0  0  0  0  0  0  0  0  0
   58.0930   31.4540   44.6710 C   0  0  0  0  0  0  0  0  0  0  0  0
   58.8180   32.5580   45.2450 N   0  0  0  0  0  0  0  0  0  0  0  0
   58.0430   33.9340   45.9630 S   0  0  0  0  0  0  0  0  0  0  0  0
   59.2620   35.0570   46.6150 C   0  0  0  0  0  0  0  0  0  0  0  0
   57.1850   34.6310   44.9450 O   0  0  0  0  0  0  0  0  0  0  0  0
   57.1750   33.4670   47.0970 O   0  0  0  0  0  0  0  0  0  0  0  0
   58.0730   30.1960   45.3200 C   0  0  0  0  0  0  0  0  0  0  0  0
   59.0250   29.9500   46.7890 Cl  0  0  0  0  0  0  0  0  0  0  0  0
   57.9462   25.1575   48.4369 H   0  0  0  0  0  0  0  0  0  0  0  0
   59.0541   24.8880   47.0489 H   0  0  0  0  0  0  0  0  0  0  0  0
   57.9409   26.2977   47.0489 H   0  0  0  0  0  0  0  0  0  0  0  0
   55.8688   21.5667   45.9356 H   0  0  0  0  0  0  0  0  0  0  0  0
   54.5945   22.4540   46.7475 H   0  0  0  0  0  0  0  0  0  0  0  0
   55.9784   23.0695   44.1772 H   0  0  0  0  0  0  0  0  0  0  0  0
   54.4904   23.8104   44.8133 H   0  0  0  0  0  0  0  0  0  0  0  0
   57.0349   25.1034   44.6643 H   0  0  0  0  0  0  0  0  0  0  0  0
   57.7621   27.8391   46.4211 H   0  0  0  0  0  0  0  0  0  0  0  0
   57.7802   27.0432   44.7961 H   0  0  0  0  0  0  0  0  0  0  0  0
   56.0908   28.4819   43.1057 H   0  0  0  0  0  0  0  0  0  0  0  0
   56.1151   30.6973   41.9785 H   0  0  0  0  0  0  0  0  0  0  0  0
   57.3674   32.5977   42.9750 H   0  0  0  0  0  0  0  0  0  0  0  0
   59.8550   32.6050   45.1490 H   0  0  0  0  0  0  0  0  0  0  0  0
   59.2337   35.0310   47.7143 H   0  0  0  0  0  0  0  0  0  0  0  0
   60.2611   34.7562   46.2667 H   0  0  0  0  0  0  0  0  0  0  0  0
   59.0440   36.0774   46.2667 H   0  0  0  0  0  0  0  0  0  0  0  0
  1  2  1  0
  2  3  1  0
  3  4  2  0
  3  5  1  0
  5  6  1  0
  6  7  1  0
  7  8  1  0
  8  9  2  0
  8 10  1  0
 10 11  1  0
 11 12  1  0
 12 13  2  0
 13 14  1  0
 14 15  2  0
 15 16  1  0
 16 17  1  0
 17 18  1  0
 18 19  1  0
 18 20  2  0
 18 21  2  0
 16 22  2  0
 22 23  1  0
  7  2  1  0
 22 12  1  0
  1 24  1  0
  1 25  1  0
  1 26  1  0
  5 27  1  0
  5 28  1  0
  6 29  1  0
  6 30  1  0
  7 31  1  6
 11 32  1  0
 11 33  1  0
 13 34  1  0
 14 35  1  0
 15 36  1  0
 17 37  1  0
 19 38  1  0
 19 39  1  0
 19 40  1  0
M  CHG  1  10  -1
M  END
>  <UniqueID>  (10) 
10

>  <SMILES>  (10) 
CN1C(=O)CC[C@H]1C(=O)[N-]Cc1cccc(NS(C)(=O)=O)c1Cl

>  <Energy>  (10) 
42.65997435977129

>  <Genealogy>  (10) 
CN1C(=O)CCC1C(=O)[N-]Cc1cccc(NS(C)(=O)=O)c1Cl (protonated)
CN1C(=O)CC[C@H]1C(=O)[N-]Cc1cccc(NS(C)(=O)=O)c1Cl (chirality)
CN1C(=O)CC[C@H]1C(=O)[N-]Cc1cccc(NS(C)(=O)=O)c1Cl (3D coordinates assigned)
CN1C(=O)CC[C@H]1C(=O)[N-]Cc1cccc(NS(C)(=O)=O)c1Cl (nonaromatic ring conformer: 42.65997435977129 kcal/mol)

>  <smiles>  (10) 
CN1C(=O)CCC1C(=O)NCc1cccc(NS(C)(=O)=O)c1Cl

>  <score_type>  (10) 
oracle

>  <origin>  (10) 
adg

>  <m_score__min__energy>  (10) 
-10.23

>  <m_primary>  (10) 
energy

$$$$
10:0
     RDKit          3D

 59 62  0  0  0  0  0  0  0  0999 V2000
   54.5540   29.6380   52.4550 C   0  0  0  0  0  0  0  0  0  0  0  0
   55.9600   29.4020   52.3850 O   0  0  0  0  0  0  0  0  0  0  0  0
   56.9080   30.3690   51.9980 C   0  0  0  0  0  0  0  0  0  0  0  0
   56.6580   31.7100   52.3220 C   0  0  0  0  0  0  0  0  0  0  0  0
   57.5600   32.7130   51.9420 C   0  0  0  0  0  0  0  0  0  0  0  0
   58.7300   32.3840   51.2290 C   0  0  0  0  0  0  0  0  0  0  0  0
   59.6760   33.4590   50.7670 C   0  0  0  0  0  0  0  0  0  0  0  0
   59.3250   33.9140   49.4190 N   0  0  0  0  0  0  0  0  0  0  0  0
   60.0060   33.5900   48.1920 C   0  0  0  0  0  0  0  0  0  0  0  0
   61.2410   33.3560   48.2310 O   0  0  0  0  0  0  0  0  0  0  0  0
   59.3040   33.5260   46.8950 C   0  0  0  0  0  0  0  0  0  0  0  0
   59.2370   34.6900   46.1030 C   0  0  0  0  0  0  0  0  0  0  0  0
   58.6060   34.6690   44.8610 C   0  0  0  0  0  0  0  0  0  0  0  0
   58.0710   33.4810   44.3680 C   0  0  0  0  0  0  0  0  0  0  0  0
   58.1800   32.3100   45.1100 C   0  0  0  0  0  0  0  0  0  0  0  0
   58.7780   32.3110   46.3800 C   0  0  0  0  0  0  0  0  0  0  0  0
   58.8410   31.0630   47.0870 N   0  0  0  0  0  0  0  0  0  0  0  0
   60.0260   30.4050   47.5420 C   0  0  0  0  0  0  0  0  0  0  0  0
   61.1750   30.7730   47.1260 O   0  0  0  0  0  0  0  0  0  0  0  0
   59.9340   29.2440   48.4990 C   0  0  0  0  0  0  0  0  0  0  0  0
   60.8530   28.1510   48.1120 N   0  0  0  0  0  0  0  0  0  0  0  0
   60.7250   27.0220   49.0430 C   0  0  0  0  0  0  0  0  0  0  0  0
   60.5220   27.5930   46.4800 S   0  0  0  0  0  0  0  0  0  0  0  0
   60.9710   28.6300   45.4860 O   0  0  0  0  0  0  0  0  0  0  0  0
   61.3040   26.3320   46.2190 O   0  0  0  0  0  0  0  0  0  0  0  0
   58.8100   27.2550   46.2200 C   0  0  0  0  0  0  0  0  0  0  0  0
   57.9250   28.3000   45.8350 C   0  0  0  0  0  0  0  0  0  0  0  0
   56.5540   28.0450   45.6240 C   0  0  0  0  0  0  0  0  0  0  0  0
   56.0990   26.7390   45.8090 C   0  0  0  0  0  0  0  0  0  0  0  0
   54.8320   26.3040   45.6850 N   0  0  0  0  0  0  0  0  0  0  0  0
   54.9150   24.9810   45.9780 C   0  0  0  0  0  0  0  0  0  0  0  0
   53.8130   24.1340   45.9870 O   0  0  0  0  0  0  0  0  0  0  0  0
   56.2080   24.5770   46.2780 C   0  0  0  0  0  0  0  0  0  0  0  0
   56.9550   25.7260   46.1690 C   0  0  0  0  0  0  0  0  0  0  0  0
   58.3180   25.9430   46.3790 C   0  0  0  0  0  0  0  0  0  0  0  0
   58.9910   31.0390   50.9200 C   0  0  0  0  0  0  0  0  0  0  0  0
   58.0880   30.0350   51.2970 C   0  0  0  0  0  0  0  0  0  0  0  0
   54.2430   29.6902   53.5088 H   0  0  0  0  0  0  0  0  0  0  0  0
   54.3164   30.5886   51.9551 H   0  0  0  0  0  0  0  0  0  0  0  0
   54.0191   28.8171   51.9551 H   0  0  0  0  0  0  0  0  0  0  0  0
   55.7474   31.9767   52.8784 H   0  0  0  0  0  0  0  0  0  0  0  0
   57.3537   33.7619   52.2015 H   0  0  0  0  0  0  0  0  0  0  0  0
   59.6215   34.3106   51.4611 H   0  0  0  0  0  0  0  0  0  0  0  0
   60.6960   33.0476   50.7468 H   0  0  0  0  0  0  0  0  0  0  0  0
   59.6874   35.6244   46.4692 H   0  0  0  0  0  0  0  0  0  0  0  0
   58.5301   35.5926   44.2684 H   0  0  0  0  0  0  0  0  0  0  0  0
   57.5627   33.4692   43.3925 H   0  0  0  0  0  0  0  0  0  0  0  0
   57.7915   31.3681   44.6953 H   0  0  0  0  0  0  0  0  0  0  0  0
   60.1964   29.5913   49.5092 H   0  0  0  0  0  0  0  0  0  0  0  0
   58.9050   28.8560   48.4745 H   0  0  0  0  0  0  0  0  0  0  0  0
   60.7671   27.3933   50.0776 H   0  0  0  0  0  0  0  0  0  0  0  0
   59.7636   26.5148   48.8743 H   0  0  0  0  0  0  0  0  0  0  0  0
   61.5485   26.3124   48.8743 H   0  0  0  0  0  0  0  0  0  0  0  0
   58.3148   29.3197   45.7002 H   0  0  0  0  0  0  0  0  0  0  0  0
   55.8662   28.8491   45.3235 H   0  0  0  0  0  0  0  0  0  0  0  0
   56.5560   23.5676   46.5427 H   0  0  0  0  0  0  0  0  0  0  0  0
   58.9873   25.1164   46.6597 H   0  0  0  0  0  0  0  0  0  0  0  0
   59.9103   30.7715   50.3784 H   0  0  0  0  0  0  0  0  0  0  0  0
   58.2989   28.9849   51.0464 H   0  0  0  0  0  0  0  0  0  0  0  0
  1  2  1  0
  2  3  1  0
  3  4  2  0
  4  5  1  0
  5  6  2  0
  6  7  1  0
  7  8  1  0
  8  9  1  0
  9 10  2  0
  9 11  1  0
 11 12  2  0
 12 13  1  0
 13 14  2  0
 14 15  1  0
 15 16  2  0
 16 17  1  0
 17 18  1  0
 18 19  2  0
 18 20  1  0
 20 21  1  0
 21 22  1  0
 21 23  1  0
 23 24  2  0
 23 25  2  0
 23 26  1  0
 26 27  2  0
 27 28  1  0
 28 29  2  0
 29 30  1  0
 30 31  1  0
 31 32  1  0
 31 33  2  0
 33 34  1  0
 34 35  2  0
  6 36  1  0
 36 37  2  0
 37  3  1  0
 16 11  1  0
 35 26  1  0
 34 29  1  0
  1 38  1  0
  1 39  1  0
  1 40  1  0
  4 41  1  0
  5 42  1  0
  7 43  1  0
  7 44  1  0
 12 45  1  0
 13 46  1  0
 14 47  1  0
 15 48  1  0
 20 49  1  0
 20 50  1  0
 22 51  1  0
 22 52  1  0
 22 53  1  0
 27 54  1  0
 28 55  1  0
 33 56  1  0
 35 57  1  0
 36 58  1  0
 37 59  1  0
M  CHG  4   8  -1  17  -1  30  -1  32  -1
M  END
>  <UniqueID>  (11) 
11

>  <SMILES>  (11) 
COc1ccc(C[N-]C(=O)c2ccccc2[N-]C(=O)CN(C)S(=O)(=O)c2ccc3[n-]c([O-])cc3c2)cc1

>  <Energy>  (11) 
103.4271956313543

>  <Genealogy>  (11) 
COc1ccc(C[N-]C(=O)c2ccccc2[N-]C(=O)CN(C)S(=O)(=O)c2ccc3[n-]c([O-])cc3c2)cc1 (protonated)
COc1ccc(C[N-]C(=O)c2ccccc2[N-]C(=O)CN(C)S(=O)(=O)c2ccc3[n-]c([O-])cc3c2)cc1 (3D coordinates assigned)
COc1ccc(C[N-]C(=O)c2ccccc2[N-]C(=O)CN(C)S(=O)(=O)c2ccc3[n-]c([O-])cc3c2)cc1 (optimized conformer: 103.4271956313543 kcal/mol)

>  <smiles>  (11) 
COc1ccc(CNC(=O)c2ccccc2NC(=O)CN(C)S(=O)(=O)c2ccc3[nH]c(O)cc3c2)cc1

>  <score_type>  (11) 
oracle

>  <origin>  (11) 
adg

>  <m_score__min__energy>  (11) 
-15.380000000000001

>  <m_primary>  (11) 
energy

$$$$
11:0
     RDKit          3D

 49 51  0  0  0  0  0  0  0  0999 V2000
   51.4480   24.0470   44.7220 C   0  0  0  0  0  0  0  0  0  0  0  0
   52.5060   23.0950   44.6860 O   0  0  0  0  0  0  0  0  0  0  0  0
   53.7720   23.2970   45.2520 C   0  0  0  0  0  0  0  0  0  0  0  0
   54.8230   23.6890   44.4150 C   0  0  0  0  0  0  0  0  0  0  0  0
   56.1040   23.9000   44.9330 C   0  0  0  0  0  0  0  0  0  0  0  0
   56.3580   23.7000   46.2950 C   0  0  0  0  0  0  0  0  0  0  0  0
   57.6780   23.9500   46.7980 N   0  0  0  0  0  0  0  0  0  0  0  0
   58.8890   24.0270   46.0340 C   0  0  0  0  0  0  0  0  0  0  0  0
   59.3530   22.9720   45.5270 O   0  0  0  0  0  0  0  0  0  0  0  0
   59.6700   25.3010   45.8970 C   0  0  0  0  0  0  0  0  0  0  0  0
   59.2030   26.4600   47.2240 S   0  0  0  0  0  0  0  0  0  0  0  0
   58.1060   27.4040   46.1670 C   0  0  0  0  0  0  0  0  0  0  0  0
   56.7690   27.2510   46.1620 N   0  0  0  0  0  0  0  0  0  0  0  0
   56.2900   28.0810   45.2460 N   0  0  0  0  0  0  0  0  0  0  0  0
   57.3430   28.7290   44.7110 C   0  0  0  0  0  0  0  0  0  0  0  0
   57.2180   29.7260   43.5970 C   0  0  0  0  0  0  0  0  0  0  0  0
   57.8760   30.9810   43.9520 N   0  0  0  0  0  0  0  0  0  0  0  0
   57.8820   31.4940   45.2950 C   0  0  0  0  0  0  0  0  0  0  0  0
   57.4000   30.7960   46.2290 O   0  0  0  0  0  0  0  0  0  0  0  0
   58.4830   32.8100   45.6110 C   0  0  0  0  0  0  0  0  0  0  0  0
   58.6260   33.7670   44.5890 C   0  0  0  0  0  0  0  0  0  0  0  0
   59.1850   35.0190   44.8620 C   0  0  0  0  0  0  0  0  0  0  0  0
   59.6150   35.3270   46.1540 C   0  0  0  0  0  0  0  0  0  0  0  0
   59.4960   34.3820   47.1740 C   0  0  0  0  0  0  0  0  0  0  0  0
   58.9390   33.1260   46.9090 C   0  0  0  0  0  0  0  0  0  0  0  0
   58.9010   32.2130   47.9110 F   0  0  0  0  0  0  0  0  0  0  0  0
   58.5020   28.3380   45.2800 N   0  0  0  0  0  0  0  0  0  0  0  0
   59.8660   28.7020   44.9090 C   0  0  0  0  0  0  0  0  0  0  0  0
   55.3010   23.3370   47.1440 C   0  0  0  0  0  0  0  0  0  0  0  0
   54.0200   23.1260   46.6280 C   0  0  0  0  0  0  0  0  0  0  0  0
   51.1950   24.2746   45.7680 H   0  0  0  0  0  0  0  0  0  0  0  0
   51.7665   24.9686   44.2129 H   0  0  0  0  0  0  0  0  0  0  0  0
   50.5650   23.6333   44.2129 H   0  0  0  0  0  0  0  0  0  0  0  0
   54.6393   23.8323   43.3400 H   0  0  0  0  0  0  0  0  0  0  0  0
   56.9168   24.2249   44.2668 H   0  0  0  0  0  0  0  0  0  0  0  0
   60.7451   25.0793   45.9679 H   0  0  0  0  0  0  0  0  0  0  0  0
   59.4485   25.7587   44.9216 H   0  0  0  0  0  0  0  0  0  0  0  0
   57.6874   29.3158   42.6907 H   0  0  0  0  0  0  0  0  0  0  0  0
   56.1510   29.9242   43.4174 H   0  0  0  0  0  0  0  0  0  0  0  0
   58.4490   31.4530   43.2170 H   0  0  0  0  0  0  0  0  0  0  0  0
   58.2954   33.5280   43.5675 H   0  0  0  0  0  0  0  0  0  0  0  0
   59.2862   35.7625   44.0576 H   0  0  0  0  0  0  0  0  0  0  0  0
   60.0479   36.3153   46.3682 H   0  0  0  0  0  0  0  0  0  0  0  0
   59.8412   34.6253   48.1897 H   0  0  0  0  0  0  0  0  0  0  0  0
   60.4633   28.8614   45.8188 H   0  0  0  0  0  0  0  0  0  0  0  0
   60.3129   27.8917   44.3143 H   0  0  0  0  0  0  0  0  0  0  0  0
   59.8497   29.6272   44.3143 H   0  0  0  0  0  0  0  0  0  0  0  0
   55.4823   23.2179   48.2224 H   0  0  0  0  0  0  0  0  0  0  0  0
   53.2018   22.8251   47.2989 H   0  0  0  0  0  0  0  0  0  0  0  0
  1  2  1  0
  2  3  1  0
  3  4  2  0
  4  5  1  0
  5  6  2  0
  6  7  1  0
  7  8  1  0
  8  9  2  0
  8 10  1  0
 10 11  1  0
 11 12  1  0
 12 13  2  0
 13 14  1  0
 14 15  2  0
 15 16  1  0
 16 17  1  0
 17 18  1  0
 18 19  2  0
 18 20  1  0
 20 21  2  0
 21 22  1  0
 22 23  2  0
 23 24  1  0
 24 25  2  0
 25 26  1  0
 15 27  1  0
 27 28  1  0
  6 29  1  0
 29 30  2  0
 30  3  1  0
 27 12  1  0
 25 20  1  0
  1 31  1  0
  1 32  1  0
  1 33  1  0
  4 34  1  0
  5 35  1  0
 10 36  1  0
 10 37  1  0
 16 38  1  0
 16 39  1  0
 17 40  1  0
 21 41  1  0
 22 42  1  0
 23 43  1  0
 24 44  1  0
 28 45  1  0
 28 46  1  0
 28 47  1  0
 29 48  1  0
 30 49  1  0
M  CHG  1   7  -1
M  END
>  <UniqueID>  (12) 
12

>  <SMILES>  (12) 
COc1ccc([N-]C(=O)CSc2nnc(CNC(=O)c3ccccc3F)n2C)cc1

>  <Energy>  (12) 
85.3932447839545

>  <Genealogy>  (12) 
COc1ccc([N-]C(=O)CSc2nnc(CNC(=O)c3ccccc3F)n2C)cc1 (protonated)
COc1ccc([N-]C(=O)CSc2nnc(CNC(=O)c3ccccc3F)n2C)cc1 (3D coordinates assigned)
COc1ccc([N-]C(=O)CSc2nnc(CNC(=O)c3ccccc3F)n2C)cc1 (optimized conformer: 85.3932447839545 kcal/mol)

>  <smiles>  (12) 
COc1ccc(NC(=O)CSc2nnc(CNC(=O)c3ccccc3F)n2C)cc1

>  <score_type>  (12) 
oracle

>  <origin>  (12) 
adg

>  <m_score__min__energy>  (12) 
-10.890000000000001

>  <m_primary>  (12) 
energy

$$$$
12:0
     RDKit          3D

 40 43  0  0  0  0  0  0  0  0999 V2000
   61.3720   30.5680   47.0860 C   0  0  0  0  0  0  0  0  0  0  0  0
   60.2070   29.8710   46.4360 C   0  0  0  0  0  0  0  0  0  0  0  0
   60.1870   28.4750   46.3450 C   0  0  0  0  0  0  0  0  0  0  0  0
   59.1100   27.8330   45.7440 C   0  0  0  0  0  0  0  0  0  0  0  0
   58.0530   28.5870   45.2340 C   0  0  0  0  0  0  0  0  0  0  0  0
   58.0620   29.9560   45.3160 N   0  0  0  0  0  0  0  0  0  0  0  0
   57.0160   30.6920   44.8150 C   0  0  0  0  0  0  0  0  0  0  0  0
   56.0240   30.1280   44.2730 O   0  0  0  0  0  0  0  0  0  0  0  0
   57.0290   32.0840   44.9000 C   0  0  0  0  0  0  0  0  0  0  0  0
   58.1220   32.7150   45.4920 C   0  0  0  0  0  0  0  0  0  0  0  0
   58.1640   34.2070   45.6390 C   0  0  0  0  0  0  0  0  0  0  0  0
   59.6130   34.7030   45.6550 C   0  0  0  0  0  0  0  0  0  0  0  0
   60.2350   34.4650   46.9980 C   0  0  0  0  0  0  0  0  0  0  0  0
   59.6050   34.5650   48.2330 C   0  0  0  0  0  0  0  0  0  0  0  0
   60.4520   34.2070   49.2260 N   0  0  0  0  0  0  0  0  0  0  0  0
   61.6070   33.8700   48.6240 C   0  0  0  0  0  0  0  0  0  0  0  0
   62.7760   33.4150   49.2330 C   0  0  0  0  0  0  0  0  0  0  0  0
   63.8680   33.0970   48.4050 C   0  0  0  0  0  0  0  0  0  0  0  0
   63.7670   33.2360   47.0030 C   0  0  0  0  0  0  0  0  0  0  0  0
   62.5740   33.6960   46.4160 C   0  0  0  0  0  0  0  0  0  0  0  0
   61.5120   34.0090   47.2630 C   0  0  0  0  0  0  0  0  0  0  0  0
   59.1360   31.9630   45.9890 N   0  0  0  0  0  0  0  0  0  0  0  0
   59.1270   30.6050   45.9090 C   0  0  0  0  0  0  0  0  0  0  0  0
   61.2715   30.5079   48.1797 H   0  0  0  0  0  0  0  0  0  0  0  0
   62.3091   30.0820   46.7766 H   0  0  0  0  0  0  0  0  0  0  0  0
   61.3868   31.6235   46.7766 H   0  0  0  0  0  0  0  0  0  0  0  0
   61.0232   27.8854   46.7489 H   0  0  0  0  0  0  0  0  0  0  0  0
   59.0916   26.7356   45.6710 H   0  0  0  0  0  0  0  0  0  0  0  0
   57.2014   28.0770   44.7600 H   0  0  0  0  0  0  0  0  0  0  0  0
   56.1893   32.6752   44.5058 H   0  0  0  0  0  0  0  0  0  0  0  0
   57.6323   34.6692   44.7942 H   0  0  0  0  0  0  0  0  0  0  0  0
   57.6819   34.4851   46.5878 H   0  0  0  0  0  0  0  0  0  0  0  0
   60.1888   34.1633   44.8887 H   0  0  0  0  0  0  0  0  0  0  0  0
   59.6215   35.7828   45.4455 H   0  0  0  0  0  0  0  0  0  0  0  0
   58.5646   34.8894   48.3822 H   0  0  0  0  0  0  0  0  0  0  0  0
   60.2430   34.1830   50.2490 H   0  0  0  0  0  0  0  0  0  0  0  0
   62.8422   33.3081   50.3258 H   0  0  0  0  0  0  0  0  0  0  0  0
   64.8066   32.7378   48.8523 H   0  0  0  0  0  0  0  0  0  0  0  0
   64.6271   32.9828   46.3657 H   0  0  0  0  0  0  0  0  0  0  0  0
   62.4823   33.8050   45.3253 H   0  0  0  0  0  0  0  0  0  0  0  0
  1  2  1  0
  2  3  2  0
  3  4  1  0
  4  5  2  0
  5  6  1  0
  6  7  1  0
  7  8  2  0
  7  9  1  0
  9 10  2  0
 10 11  1  0
 11 12  1  0
 12 13  1  0
 13 14  2  0
 14 15  1  0
 15 16  1  0
 16 17  2  0
 17 18  1  0
 18 19  2  0
 19 20  1  0
 20 21  2  0
 10 22  1  0
 22 23  2  0
 23  2  1  0
 23  6  1  0
 21 13  1  0
 21 16  1  0
  1 24  1  0
  1 25  1  0
  1 26  1  0
  3 27  1  0
  4 28  1  0
  5 29  1  0
  9 30  1  0
 11 31  1  0
 11 32  1  0
 12 33  1  0
 12 34  1  0
 14 35  1  0
 15 36  1  0
 17 37  1  0
 18 38  1  0
 19 39  1  0
 20 40  1  0
M  END
>  <UniqueID>  (13) 
13

>  <SMILES>  (13) 
Cc1cccn2c(=O)cc(CCc3c[nH]c4ccccc34)nc12

>  <Energy>  (13) 
78.65117819329481

>  <Genealogy>  (13) 
Cc1cccn2c(=O)cc(CCc3c[nH]c4ccccc34)nc12 (3D coordinates assigned)
Cc1cccn2c(=O)cc(CCc3c[nH]c4ccccc34)nc12 (optimized conformer: 78.65117819329481 kcal/mol)

>  <smiles>  (13) 
Cc1cccn2c(=O)cc(CCc3c[nH]c4ccccc34)nc12

>  <score_type>  (13) 
oracle

>  <origin>  (13) 
adg

>  <m_score__min__energy>  (13) 
-8.2699999999999996

>  <m_primary>  (13) 
energy

$$$$
13:0
     RDKit          3D

 38 40  0  0  0  0  0  0  0  0999 V2000
   58.8443   31.0874   50.1997 H   0  0  0  0  0  0  0  0  0  0  0  0
   59.2520   30.4940   49.3680 C   0  0  0  0  0  0  0  0  0  0  0  0
   58.7420   29.2640   49.0970 N   0  0  0  0  0  0  0  0  0  0  0  0
   59.2110   28.4920   48.0760 C   0  0  0  0  0  0  0  0  0  0  0  0
   58.7010   27.3180   47.8330 N   0  0  0  0  0  0  0  0  0  0  0  0
   58.0320   26.8930   46.6340 C   0  0  0  0  0  0  0  0  0  0  0  0
   58.1170   25.7030   46.2250 O   0  0  0  0  0  0  0  0  0  0  0  0
   57.2350   27.8600   45.8700 C   0  0  0  0  0  0  0  0  0  0  0  0
   55.9210   27.7180   45.6100 N   0  0  0  0  0  0  0  0  0  0  0  0
   55.5210   28.7640   44.9010 N   0  0  0  0  0  0  0  0  0  0  0  0
   56.5830   29.5690   44.7060 C   0  0  0  0  0  0  0  0  0  0  0  0
   56.5230   30.8710   43.9690 C   0  0  0  0  0  0  0  0  0  0  0  0
   57.4555   31.0076   43.4017 H   0  0  0  0  0  0  0  0  0  0  0  0
   55.6598   30.8511   43.2875 H   0  0  0  0  0  0  0  0  0  0  0  0
   56.3640   31.9600   44.8770 O   0  0  0  0  0  0  0  0  0  0  0  0
   57.3910   32.8220   45.2970 C   0  0  0  0  0  0  0  0  0  0  0  0
   57.5360   33.0590   46.6700 C   0  0  0  0  0  0  0  0  0  0  0  0
   56.8534   32.5735   47.3830 H   0  0  0  0  0  0  0  0  0  0  0  0
   58.5430   33.9090   47.1410 C   0  0  0  0  0  0  0  0  0  0  0  0
   58.6495   34.0891   48.2209 H   0  0  0  0  0  0  0  0  0  0  0  0
   59.4130   34.5290   46.2410 C   0  0  0  0  0  0  0  0  0  0  0  0
   60.2048   35.1964   46.6121 H   0  0  0  0  0  0  0  0  0  0  0  0
   59.2770   34.3010   44.8690 C   0  0  0  0  0  0  0  0  0  0  0  0
   59.9620   34.7898   44.1606 H   0  0  0  0  0  0  0  0  0  0  0  0
   58.2710   33.4520   44.3950 C   0  0  0  0  0  0  0  0  0  0  0  0
   58.1668   33.2758   43.3142 H   0  0  0  0  0  0  0  0  0  0  0  0
   57.6990   29.0350   45.3150 C   0  0  0  0  0  0  0  0  0  0  0  0
   58.7179   29.4480   45.3501 H   0  0  0  0  0  0  0  0  0  0  0  0
   60.2590   28.9670   47.2690 C   0  0  0  0  0  0  0  0  0  0  0  0
   60.7340   28.1600   46.2220 O   0  0  0  0  0  0  0  0  0  0  0  0
   60.8870   28.5970   44.8750 C   0  0  0  0  0  0  0  0  0  0  0  0
   61.2505   29.6352   44.8654 H   0  0  0  0  0  0  0  0  0  0  0  0
   61.6120   27.9499   44.3597 H   0  0  0  0  0  0  0  0  0  0  0  0
   59.9167   28.5434   44.3597 H   0  0  0  0  0  0  0  0  0  0  0  0
   60.7970   30.2390   47.5400 C   0  0  0  0  0  0  0  0  0  0  0  0
   61.6175   30.6310   46.9210 H   0  0  0  0  0  0  0  0  0  0  0  0
   60.2920   31.0040   48.5920 C   0  0  0  0  0  0  0  0  0  0  0  0
   60.7099   31.9986   48.8068 H   0  0  0  0  0  0  0  0  0  0  0  0
  1  2  1  0
  2  3  1  0
  3  4  1  0
  4  5  2  0
  5  6  1  0
  6  7  2  0
  6  8  1  0
  8  9  2  0
  9 10  1  0
 10 11  1  0
 11 12  1  0
 12 13  1  0
 12 14  1  0
 12 15  1  0
 15 16  1  0
 16 17  2  0
 17 18  1  0
 17 19  1  0
 19 20  1  0
 19 21  2  0
 21 22  1  0
 21 23  1  0
 23 24  1  0
 23 25  2  0
 25 26  1  0
 11 27  2  0
 27 28  1  0
  4 29  1  0
 29 30  1  0
 30 31  1  0
 31 32  1  0
 31 33  1  0
 31 34  1  0
 29 35  2  0
 35 36  1  0
 35 37  1  0
 37 38  1  0
 37  2  2  0
 27  8  1  0
 25 16  1  0
M  CHG  2   3  -1  10  -1
M  END
>  <UniqueID>  (14) 
14

>  <SMILES>  (14) 
COc1ccc[n-]/c1=N\C(=O)c1cc(COc2ccccc2)[n-]n1

>  <Energy>  (14) 
70.96440506023833

>  <Genealogy>  (14) 
COc1ccc[n-]c1=NC(=O)c1cc(COc2ccccc2)[n-]n1 (protonated)
COc1ccc[n-]/c1=N\C(=O)c1cc(COc2ccccc2)[n-]n1 (cis-trans isomerization)
COc1ccc[n-]/c1=N\C(=O)c1cc(COc2ccccc2)[n-]n1 (3D coordinates assigned)
COc1ccc[n-]/c1=N\C(=O)c1cc(COc2ccccc2)[n-]n1 (optimized conformer: 70.96440506023833 kcal/mol)

>  <smiles>  (14) 
COc1ccc[nH]c1=NC(=O)c1cc(COc2ccccc2)[nH]n1

>  <score_type>  (14) 
oracle

>  <origin>  (14) 
adg

>  <m_score__min__energy>  (14) 
-11.640000000000001

>  <m_primary>  (14) 
energy

$$$$
14:0
     RDKit          3D

 48 50  0  0  0  0  0  0  0  0999 V2000
   54.8070   26.3210   45.9650 N   0  0  0  0  0  0  0  0  0  0  0  0
   56.1440   25.2570   46.2370 S   0  0  0  0  0  0  0  0  0  0  0  0
   55.9290   24.5200   47.5310 O   0  0  0  0  0  0  0  0  0  0  0  0
   56.2130   24.2720   45.1040 O   0  0  0  0  0  0  0  0  0  0  0  0
   57.6570   26.1540   46.3210 C   0  0  0  0  0  0  0  0  0  0  0  0
   58.8730   25.5390   45.9980 C   0  0  0  0  0  0  0  0  0  0  0  0
   60.0630   26.2700   46.0490 C   0  0  0  0  0  0  0  0  0  0  0  0
   60.0450   27.6170   46.4110 C   0  0  0  0  0  0  0  0  0  0  0  0
   58.8310   28.2560   46.7250 C   0  0  0  0  0  0  0  0  0  0  0  0
   58.8100   29.7000   47.0570 C   0  0  0  0  0  0  0  0  0  0  0  0
   59.7150   30.1860   47.7900 O   0  0  0  0  0  0  0  0  0  0  0  0
   57.8130   30.5600   46.4840 N   0  0  0  0  0  0  0  0  0  0  0  0
   57.7020   30.9220   45.0970 C   0  0  0  0  0  0  0  0  0  0  0  0
   57.0740   30.0620   44.1770 C   0  0  0  0  0  0  0  0  0  0  0  0
   56.9140   30.4430   42.8440 C   0  0  0  0  0  0  0  0  0  0  0  0
   57.3850   31.6810   42.4090 C   0  0  0  0  0  0  0  0  0  0  0  0
   58.0360   32.5330   43.3020 C   0  0  0  0  0  0  0  0  0  0  0  0
   58.2250   32.1560   44.6430 C   0  0  0  0  0  0  0  0  0  0  0  0
   58.9510   33.0780   45.5460 C   0  0  0  0  0  0  0  0  0  0  0  0
   58.6920   34.3120   45.5060 O   0  0  0  0  0  0  0  0  0  0  0  0
   59.9840   32.5910   46.4170 N   0  0  0  0  0  0  0  0  0  0  0  0
   60.7440   33.4840   47.3000 C   0  0  2  0  0  0  0  0  0  0  0  0
   62.2080   33.1500   47.2440 C   0  0  0  0  0  0  0  0  0  0  0  0
   62.5790   31.9550   47.0900 O   0  0  0  0  0  0  0  0  0  0  0  0
   63.1610   34.1530   47.3540 O   0  0  0  0  0  0  0  0  0  0  0  0
   60.2590   33.4090   48.7340 C   0  0  0  0  0  0  0  0  0  0  0  0
   59.0360   32.7980   49.0690 C   0  0  0  0  0  0  0  0  0  0  0  0
   58.6380   32.6920   50.4060 C   0  0  0  0  0  0  0  0  0  0  0  0
   59.4600   33.1850   51.4220 C   0  0  0  0  0  0  0  0  0  0  0  0
   60.6800   33.7850   51.1020 C   0  0  0  0  0  0  0  0  0  0  0  0
   61.0810   33.8930   49.7670 C   0  0  0  0  0  0  0  0  0  0  0  0
   57.6410   27.5050   46.6960 C   0  0  0  0  0  0  0  0  0  0  0  0
   55.1480   27.0900   45.3440 H   0  0  0  0  0  0  0  0  0  0  0  0
   58.8915   24.4792   45.7038 H   0  0  0  0  0  0  0  0  0  0  0  0
   61.0173   25.7814   45.8028 H   0  0  0  0  0  0  0  0  0  0  0  0
   60.9867   28.1840   46.4513 H   0  0  0  0  0  0  0  0  0  0  0  0
   56.7060   29.0808   44.5115 H   0  0  0  0  0  0  0  0  0  0  0  0
   56.4154   29.7654   42.1353 H   0  0  0  0  0  0  0  0  0  0  0  0
   57.2434   31.9862   41.3617 H   0  0  0  0  0  0  0  0  0  0  0  0
   58.4048   33.5089   42.9533 H   0  0  0  0  0  0  0  0  0  0  0  0
   60.2450   31.5800   46.3620 H   0  0  0  0  0  0  0  0  0  0  0  0
   60.5846   34.5115   46.9412 H   0  0  0  0  0  0  0  0  0  0  0  0
   58.3883   32.4009   48.2735 H   0  0  0  0  0  0  0  0  0  0  0  0
   57.6768   32.2199   50.6574 H   0  0  0  0  0  0  0  0  0  0  0  0
   59.1468   33.1008   52.4731 H   0  0  0  0  0  0  0  0  0  0  0  0
   61.3269   34.1735   51.9023 H   0  0  0  0  0  0  0  0  0  0  0  0
   62.0466   34.3600   49.5230 H   0  0  0  0  0  0  0  0  0  0  0  0
   56.6889   27.9827   46.9703 H   0  0  0  0  0  0  0  0  0  0  0  0
  1  2  1  0
  2  3  2  0
  2  4  2  0
  2  5  1  0
  5  6  2  0
  6  7  1  0
  7  8  2  0
  8  9  1  0
  9 10  1  0
 10 11  2  0
 10 12  1  0
 12 13  1  0
 13 14  2  0
 14 15  1  0
 15 16  2  0
 16 17  1  0
 17 18  2  0
 18 19  1  0
 19 20  2  0
 19 21  1  0
 21 22  1  0
 22 23  1  0
 23 24  2  0
 23 25  1  0
 22 26  1  0
 26 27  2  0
 27 28  1  0
 28 29  2  0
 29 30  1  0
 30 31  2  0
  9 32  2  0
 32  5  1  0
 18 13  1  0
 31 26  1  0
  1 33  1  0
  6 34  1  0
  7 35  1  0
  8 36  1  0
 14 37  1  0
 15 38  1  0
 16 39  1  0
 17 40  1  0
 21 41  1  0
 22 42  1  6
 27 43  1  0
 28 44  1  0
 29 45  1  0
 30 46  1  0
 31 47  1  0
 32 48  1  0
M  CHG  3   1  -1  12  -1  25  -1
M  END
>  <UniqueID>  (15) 
15

>  <SMILES>  (15) 
[NH-]S(=O)(=O)c1cccc(C(=O)[N-]c2ccccc2C(=O)N[C@H](C(=O)[O-])c2ccccc2)c1

>  <Energy>  (15) 
56.35684007867269

>  <Genealogy>  (15) 
[NH-]S(=O)(=O)c1cccc(C(=O)[N-]c2ccccc2C(=O)NC(C(=O)[O-])c2ccccc2)c1 (protonated)
[NH-]S(=O)(=O)c1cccc(C(=O)[N-]c2ccccc2C(=O)N[C@H](C(=O)[O-])c2ccccc2)c1 (chirality)
[NH-]S(=O)(=O)c1cccc(C(=O)[N-]c2ccccc2C(=O)N[C@H](C(=O)[O-])c2ccccc2)c1 (3D coordinates assigned)
[NH-]S(=O)(=O)c1cccc(C(=O)[N-]c2ccccc2C(=O)N[C@H](C(=O)[O-])c2ccccc2)c1 (optimized conformer: 56.35684007867269 kcal/mol)

>  <smiles>  (15) 
NS(=O)(=O)c1cccc(C(=O)Nc2ccccc2C(=O)NC(C(=O)O)c2ccccc2)c1

>  <score_type>  (15) 
oracle

>  <origin>  (15) 
adg

>  <m_score__min__energy>  (15) 
-14.289999999999999

>  <m_primary>  (15) 
energy

$$$$
15:0
     RDKit          3D

 45 47  0  0  0  0  0  0  0  0999 V2000
   62.4230   31.6840   47.5060 C   0  0  0  0  0  0  0  0  0  0  0  0
   61.7350   30.8820   48.6200 C   0  0  0  0  0  0  0  0  0  0  0  0
   60.2460   30.8360   48.5580 N   0  0  2  0  0  0  0  0  0  0  0  0
   59.5400   31.5670   49.6490 C   0  0  0  0  0  0  0  0  0  0  0  0
   59.5100   33.1010   49.5080 C   0  0  0  0  0  0  0  0  0  0  0  0
   59.9700   33.4890   48.2130 O   0  0  0  0  0  0  0  0  0  0  0  0
   59.1550   33.8020   47.1140 C   0  0  0  0  0  0  0  0  0  0  0  0
   59.7130   34.5530   46.0700 C   0  0  0  0  0  0  0  0  0  0  0  0
   58.9490   34.8950   44.9520 C   0  0  0  0  0  0  0  0  0  0  0  0
   57.6140   34.4910   44.8660 C   0  0  0  0  0  0  0  0  0  0  0  0
   57.0430   33.7460   45.9010 C   0  0  0  0  0  0  0  0  0  0  0  0
   57.8050   33.4020   47.0220 C   0  0  0  0  0  0  0  0  0  0  0  0
   59.6540   29.5250   48.1690 C   0  0  0  0  0  0  0  0  0  0  0  0
   58.8020   29.5500   46.9260 C   0  0  0  0  0  0  0  0  0  0  0  0
   57.8250   28.6220   46.7430 N   0  0  0  0  0  0  0  0  0  0  0  0
   57.0360   28.6290   45.6390 C   0  0  0  0  0  0  0  0  0  0  0  0
   56.1480   27.7430   45.5090 O   0  0  0  0  0  0  0  0  0  0  0  0
   57.2170   29.6190   44.6610 C   0  0  0  0  0  0  0  0  0  0  0  0
   56.4360   29.6810   43.4920 C   0  0  0  0  0  0  0  0  0  0  0  0
   56.6620   30.6940   42.5530 C   0  0  0  0  0  0  0  0  0  0  0  0
   57.6600   31.6480   42.7730 C   0  0  0  0  0  0  0  0  0  0  0  0
   58.4410   31.5950   43.9330 C   0  0  0  0  0  0  0  0  0  0  0  0
   58.2240   30.5840   44.8760 C   0  0  0  0  0  0  0  0  0  0  0  0
   58.9830   30.5300   46.0010 N   0  0  0  0  0  0  0  0  0  0  0  0
   63.0772   32.4466   47.9537 H   0  0  0  0  0  0  0  0  0  0  0  0
   63.0240   31.0052   46.8831 H   0  0  0  0  0  0  0  0  0  0  0  0
   61.6607   32.1748   46.8831 H   0  0  0  0  0  0  0  0  0  0  0  0
   62.1074   29.8481   48.5716 H   0  0  0  0  0  0  0  0  0  0  0  0
   61.9803   31.4008   49.5584 H   0  0  0  0  0  0  0  0  0  0  0  0
   60.0410   31.4320   47.7190 H   0  0  0  0  0  0  0  0  0  0  0  0
   58.5003   31.2090   49.6793 H   0  0  0  0  0  0  0  0  0  0  0  0
   60.1073   31.3592   50.5682 H   0  0  0  0  0  0  0  0  0  0  0  0
   58.4792   33.4582   49.6490 H   0  0  0  0  0  0  0  0  0  0  0  0
   60.1696   33.5431   50.2692 H   0  0  0  0  0  0  0  0  0  0  0  0
   60.7627   34.8760   46.1320 H   0  0  0  0  0  0  0  0  0  0  0  0
   59.3986   35.4830   44.1383 H   0  0  0  0  0  0  0  0  0  0  0  0
   57.0133   34.7592   43.9844 H   0  0  0  0  0  0  0  0  0  0  0  0
   55.9917   33.4294   45.8339 H   0  0  0  0  0  0  0  0  0  0  0  0
   57.3502   32.8173   47.8352 H   0  0  0  0  0  0  0  0  0  0  0  0
   60.4779   28.8153   48.0028 H   0  0  0  0  0  0  0  0  0  0  0  0
   58.9846   29.2356   48.9925 H   0  0  0  0  0  0  0  0  0  0  0  0
   55.6482   28.9336   43.3163 H   0  0  0  0  0  0  0  0  0  0  0  0
   56.0522   30.7397   41.6386 H   0  0  0  0  0  0  0  0  0  0  0  0
   57.8319   32.4427   42.0321 H   0  0  0  0  0  0  0  0  0  0  0  0
   59.2250   32.3475   44.1035 H   0  0  0  0  0  0  0  0  0  0  0  0
  1  2  1  0
  2  3  1  0
  3  4  1  0
  4  5  1  0
  5  6  1  0
  6  7  1  0
  7  8  2  0
  8  9  1  0
  9 10  2  0
 10 11  1  0
 11 12  2  0
  3 13  1  0
 13 14  1  0
 14 15  2  0
 15 16  1  0
 16 17  2  0
 16 18  1  0
 18 19  2  0
 19 20  1  0
 20 21  2  0
 21 22  1  0
 22 23  2  0
 23 24  1  0
 12  7  1  0
 24 14  1  0
 23 18  1  0
  1 25  1  0
  1 26  1  0
  1 27  1  0
  2 28  1  0
  2 29  1  0
  3 30  1  6
  4 31  1  0
  4 32  1  0
  5 33  1  0
  5 34  1  0
  8 35  1  0
  9 36  1  0
 10 37  1  0
 11 38  1  0
 12 39  1  0
 13 40  1  0
 13 41  1  0
 19 42  1  0
 20 43  1  0
 21 44  1  0
 22 45  1  0
M  CHG  2   3   1  24  -1
M  END
>  <UniqueID>  (16) 
16

>  <SMILES>  (16) 
CC[N@H+](CCOc1ccccc1)Cc1nc(=O)c2ccccc2[n-]1

>  <Energy>  (16) 
65.8176441459625

>  <Genealogy>  (16) 
CC[NH+](CCOc1ccccc1)Cc1nc(=O)c2ccccc2[n-]1 (protonated)
CC[N@H+](CCOc1ccccc1)Cc1nc(=O)c2ccccc2[n-]1 (chirality)
CC[N@H+](CCOc1ccccc1)Cc1nc(=O)c2ccccc2[n-]1 (3D coordinates assigned)
CC[N@H+](CCOc1ccccc1)Cc1nc(=O)c2ccccc2[n-]1 (optimized conformer: 65.8176441459625 kcal/mol)

>  <smiles>  (16) 
CCN(CCOc1ccccc1)Cc1nc(=O)c2ccccc2[nH]1

>  <score_type>  (16) 
oracle

>  <origin>  (16) 
adg

>  <m_score__min__energy>  (16) 
-7.2699999999999996

>  <m_primary>  (16) 
energy

$$$$
16:0
     RDKit          3D

 85 89  0  0  0  0  0  0  0  0999 V2000
   63.6920   32.4700   47.3410 C   0  0  0  0  0  0  0  0  0  0  0  0
   63.0600   33.8380   47.1120 C   0  0  0  0  0  0  0  0  0  0  0  0
   62.9020   34.5390   48.3480 O   0  0  0  0  0  0  0  0  0  0  0  0
   61.9540   34.2360   49.3410 C   0  0  0  0  0  0  0  0  0  0  0  0
   62.4200   33.9440   50.6270 C   0  0  0  0  0  0  0  0  0  0  0  0
   61.5260   33.6110   51.6490 C   0  0  0  0  0  0  0  0  0  0  0  0
   60.1490   33.5890   51.4060 C   0  0  0  0  0  0  0  0  0  0  0  0
   59.2690   33.1660   52.4540 N   0  0  0  0  0  0  0  0  0  0  0  0
   58.4590   31.9840   52.4690 C   0  0  0  0  0  0  0  0  0  0  0  0
   57.2090   32.1090   52.3670 O   0  0  0  0  0  0  0  0  0  0  0  0
   59.0800   30.6050   52.4730 C   0  0  0  0  0  0  0  0  0  0  0  0
   59.9330   30.3940   51.2800 N   0  0  0  0  0  0  0  0  0  0  0  0
   59.2180   30.1700   50.0260 C   0  0  0  0  0  0  0  0  0  0  0  0
   58.1270   29.5340   50.0660 O   0  0  0  0  0  0  0  0  0  0  0  0
   59.6360   30.6620   48.6940 C   0  0  0  0  0  0  0  0  0  0  0  0
   58.8060   30.4770   47.7000 N   0  0  0  0  0  0  0  0  0  0  0  0
   59.1110   30.2490   46.2860 C   0  0  0  0  0  0  0  0  0  0  0  0
   60.2560   29.2430   46.1150 C   0  0  0  0  0  0  0  0  0  0  0  0
   59.6930   27.8690   46.0080 N   0  0  0  0  0  0  0  0  0  0  0  0
   60.5660   26.8770   46.6830 C   0  0  0  0  0  0  0  0  0  0  0  0
   60.4560   26.9840   48.2060 C   0  0  0  0  0  0  0  0  0  0  0  0
   58.3090   27.8010   46.5410 C   0  0  0  0  0  0  0  0  0  0  0  0
   57.2670   27.5420   45.4380 C   0  0  0  0  0  0  0  0  0  0  0  0
   57.5340   26.2700   44.6210 C   0  0  0  0  0  0  0  0  0  0  0  0
   56.7110   25.1460   45.0780 N   0  0  0  0  0  0  0  0  0  0  0  0
   55.4910   25.2000   45.6550 C   0  0  0  0  0  0  0  0  0  0  0  0
   54.8040   26.3690   45.9530 O   0  0  0  0  0  0  0  0  0  0  0  0
   55.0370   23.9170   45.8750 C   0  0  0  0  0  0  0  0  0  0  0  0
   55.9830   23.0550   45.4550 N   0  0  0  0  0  0  0  0  0  0  0  0
   56.9690   23.8240   44.9490 C   0  0  0  0  0  0  0  0  0  0  0  0
   58.0000   23.3600   44.3910 O   0  0  0  0  0  0  0  0  0  0  0  0
   55.8520   21.5980   45.4230 C   0  0  0  0  0  0  0  0  0  0  0  0
   54.7370   21.1390   46.3810 C   0  0  0  0  0  0  0  0  0  0  0  0
   53.4760   22.0090   46.2210 C   0  0  0  0  0  0  0  0  0  0  0  0
   53.7660   23.4860   46.5370 C   0  0  0  0  0  0  0  0  0  0  0  0
   60.9950   31.2440   48.4960 C   0  0  0  0  0  0  0  0  0  0  0  0
   61.9530   30.3920   49.0890 O   0  0  0  0  0  0  0  0  0  0  0  0
   62.3100   30.5590   50.4160 C   0  0  0  0  0  0  0  0  0  0  0  0
   63.6550   30.8420   50.6850 C   0  0  0  0  0  0  0  0  0  0  0  0
   64.1290   30.8500   51.9930 C   0  0  0  0  0  0  0  0  0  0  0  0
   63.2630   30.5710   53.0450 C   0  0  0  0  0  0  0  0  0  0  0  0
   61.9110   30.3360   52.7930 C   0  0  0  0  0  0  0  0  0  0  0  0
   61.3850   30.3760   51.4760 C   0  0  0  0  0  0  0  0  0  0  0  0
   59.6750   33.8730   50.1150 C   0  0  0  0  0  0  0  0  0  0  0  0
   60.5680   34.2070   49.0920 C   0  0  0  0  0  0  0  0  0  0  0  0
   63.7787   32.2824   48.4214 H   0  0  0  0  0  0  0  0  0  0  0  0
   63.0614   31.6935   46.8834 H   0  0  0  0  0  0  0  0  0  0  0  0
   64.6920   32.4469   46.8834 H   0  0  0  0  0  0  0  0  0  0  0  0
   63.7063   34.4263   46.4441 H   0  0  0  0  0  0  0  0  0  0  0  0
   62.0679   33.6960   46.6586 H   0  0  0  0  0  0  0  0  0  0  0  0
   63.4994   33.9766   50.8361 H   0  0  0  0  0  0  0  0  0  0  0  0
   61.9082   33.3647   52.6506 H   0  0  0  0  0  0  0  0  0  0  0  0
   59.6954   30.4920   53.3777 H   0  0  0  0  0  0  0  0  0  0  0  0
   58.2706   29.8602   52.4566 H   0  0  0  0  0  0  0  0  0  0  0  0
   58.2133   29.8579   45.7849 H   0  0  0  0  0  0  0  0  0  0  0  0
   59.4216   31.2056   45.8405 H   0  0  0  0  0  0  0  0  0  0  0  0
   60.8205   29.4808   45.2013 H   0  0  0  0  0  0  0  0  0  0  0  0
   60.9280   29.2988   46.9841 H   0  0  0  0  0  0  0  0  0  0  0  0
   60.2657   25.8654   46.3723 H   0  0  0  0  0  0  0  0  0  0  0  0
   61.6082   27.0794   46.3953 H   0  0  0  0  0  0  0  0  0  0  0  0
   61.1693   26.2902   48.6748 H   0  0  0  0  0  0  0  0  0  0  0  0
   60.6861   28.0132   48.5188 H   0  0  0  0  0  0  0  0  0  0  0  0
   59.4336   26.7256   48.5188 H   0  0  0  0  0  0  0  0  0  0  0  0
   58.2538   26.9858   47.2774 H   0  0  0  0  0  0  0  0  0  0  0  0
   58.0778   28.7742   46.9986 H   0  0  0  0  0  0  0  0  0  0  0  0
   56.2777   27.4499   45.9100 H   0  0  0  0  0  0  0  0  0  0  0  0
   57.3223   28.3896   44.7391 H   0  0  0  0  0  0  0  0  0  0  0  0
   57.3060   26.4715   43.5639 H   0  0  0  0  0  0  0  0  0  0  0  0
   58.5910   25.9952   44.7523 H   0  0  0  0  0  0  0  0  0  0  0  0
   55.6052   21.2785   44.3998 H   0  0  0  0  0  0  0  0  0  0  0  0
   56.8037   21.1467   45.7402 H   0  0  0  0  0  0  0  0  0  0  0  0
   54.4817   20.0921   46.1599 H   0  0  0  0  0  0  0  0  0  0  0  0
   55.1012   21.2380   47.4142 H   0  0  0  0  0  0  0  0  0  0  0  0
   53.1160   21.9293   45.1847 H   0  0  0  0  0  0  0  0  0  0  0  0
   52.7155   21.6477   46.9288 H   0  0  0  0  0  0  0  0  0  0  0  0
   52.9358   24.1062   46.1679 H   0  0  0  0  0  0  0  0  0  0  0  0
   53.8700   23.6061   47.6255 H   0  0  0  0  0  0  0  0  0  0  0  0
   61.2021   31.3386   47.4198 H   0  0  0  0  0  0  0  0  0  0  0  0
   61.0440   32.2388   48.9629 H   0  0  0  0  0  0  0  0  0  0  0  0
   64.3428   31.0599   49.8547 H   0  0  0  0  0  0  0  0  0  0  0  0
   65.1864   31.0765   52.1947 H   0  0  0  0  0  0  0  0  0  0  0  0
   63.6442   30.5356   54.0762 H   0  0  0  0  0  0  0  0  0  0  0  0
   61.2378   30.1147   53.6343 H   0  0  0  0  0  0  0  0  0  0  0  0
   58.5955   33.8325   49.9073 H   0  0  0  0  0  0  0  0  0  0  0  0
   60.1865   34.4480   48.0888 H   0  0  0  0  0  0  0  0  0  0  0  0
  1  2  1  0
  2  3  1  0
  3  4  1  0
  4  5  2  0
  5  6  1  0
  6  7  2  0
  7  8  1  0
  8  9  1  0
  9 10  2  0
  9 11  1  0
 11 12  1  0
 12 13  1  0
 13 14  2  0
 13 15  1  0
 15 16  2  3
 16 17  1  0
 17 18  1  0
 18 19  1  0
 19 20  1  0
 20 21  1  0
 19 22  1  0
 22 23  1  0
 23 24  1  0
 24 25  1  0
 25 26  1  0
 26 27  1  0
 26 28  2  0
 28 29  1  0
 29 30  1  0
 30 31  2  0
 29 32  1  0
 32 33  1  0
 33 34  1  0
 34 35  1  0
 15 36  1  0
 36 37  1  0
 37 38  1  0
 38 39  2  0
 39 40  1  0
 40 41  2  0
 41 42  1  0
 42 43  2  0
  7 44  1  0
 44 45  2  0
 45  4  1  0
 43 12  1  0
 30 25  1  0
 43 38  1  0
 35 28  1  0
  1 46  1  0
  1 47  1  0
  1 48  1  0
  2 49  1  0
  2 50  1  0
  5 51  1  0
  6 52  1  0
 11 53  1  0
 11 54  1  0
 17 55  1  0
 17 56  1  0
 18 57  1  0
 18 58  1  0
 20 59  1  0
 20 60  1  0
 21 61  1  0
 21 62  1  0
 21 63  1  0
 22 64  1  0
 22 65  1  0
 23 66  1  0
 23 67  1  0
 24 68  1  0
 24 69  1  0
 32 70  1  0
 32 71  1  0
 33 72  1  0
 33 73  1  0
 34 74  1  0
 34 75  1  0
 35 76  1  0
 35 77  1  0
 36 78  1  0
 36 79  1  0
 39 80  1  0
 40 81  1  0
 41 82  1  0
 42 83  1  0
 44 84  1  0
 45 85  1  0
M  CHG  2   8  -1  27  -1
M  END
>  <UniqueID>  (17) 
17

>  <SMILES>  (17) 
CCOc1ccc([N-]C(=O)CN2C(=O)C(=NCCN(CC)CCCn3c([O-])c4n(c3=O)CCCC4)COc3ccccc32)cc1

>  <Energy>  (17) 
148.05825366557207

>  <Genealogy>  (17) 
CCOc1ccc([N-]C(=O)CN2C(=O)C(=NCCN(CC)CCCn3c([O-])c4n(c3=O)CCCC4)COc3ccccc32)cc1 (protonated)
CCOc1ccc([N-]C(=O)CN2C(=O)C(=NCCN(CC)CCCn3c([O-])c4n(c3=O)CCCC4)COc3ccccc32)cc1 (3D coordinates assigned)
CCOc1ccc([N-]C(=O)CN2C(=O)C(=NCCN(CC)CCCn3c([O-])c4n(c3=O)CCCC4)COc3ccccc32)cc1 (nonaromatic ring conformer: 148.05825366557207 kcal/mol)

>  <smiles>  (17) 
CCOc1ccc(NC(=O)CN2C(=O)C(=NCCN(CC)CCCn3c(O)c4n(c3=O)CCCC4)COc3ccccc32)cc1

>  <score_type>  (17) 
oracle

>  <origin>  (17) 
adg

>  <m_score__min__energy>  (17) 
-11.119999999999999

>  <m_primary>  (17) 
energy

$$$$
17:0
     RDKit          3D

 69 73  0  0  0  0  0  0  0  0999 V2000
   52.7170   23.9590   44.8860 C   0  0  0  0  0  0  0  0  0  0  0  0
   53.0030   22.6340   45.3260 O   0  0  0  0  0  0  0  0  0  0  0  0
   53.8120   22.3160   46.4280 C   0  0  0  0  0  0  0  0  0  0  0  0
   53.4190   22.5950   47.7540 C   0  0  0  0  0  0  0  0  0  0  0  0
   54.2530   22.2590   48.8230 C   0  0  0  0  0  0  0  0  0  0  0  0
   55.4950   21.6710   48.5840 C   0  0  0  0  0  0  0  0  0  0  0  0
   55.9000   21.4000   47.2740 C   0  0  0  0  0  0  0  0  0  0  0  0
   55.0460   21.6880   46.1930 C   0  0  0  0  0  0  0  0  0  0  0  0
   55.4080   21.3610   44.8450 N   0  0  0  0  0  0  0  0  0  0  0  0
   56.4210   22.3390   43.8260 S   0  0  0  0  0  0  0  0  0  0  0  0
   55.6220   22.8140   42.6390 O   0  0  0  0  0  0  0  0  0  0  0  0
   57.5740   21.5040   43.3380 O   0  0  0  0  0  0  0  0  0  0  0  0
   57.0790   23.7130   44.7150 C   0  0  0  0  0  0  0  0  0  0  0  0
   58.3600   23.6330   45.2760 C   0  0  0  0  0  0  0  0  0  0  0  0
   58.8700   24.7070   46.0090 C   0  0  0  0  0  0  0  0  0  0  0  0
   58.1160   25.8710   46.1650 C   0  0  0  0  0  0  0  0  0  0  0  0
   56.8490   25.9760   45.5830 C   0  0  0  0  0  0  0  0  0  0  0  0
   56.0930   27.1800   45.7740 N   0  0  0  0  0  0  0  0  0  0  0  0
   56.2770   28.4220   45.0840 C   0  0  0  0  0  0  0  0  0  0  0  0
   55.2860   29.1850   44.9260 O   0  0  0  0  0  0  0  0  0  0  0  0
   57.6240   28.8620   44.5780 C   0  0  0  0  0  0  0  0  0  0  0  0
   57.8880   30.3040   44.9030 C   0  0  0  0  0  0  0  0  0  0  0  0
   57.2850   31.5790   43.9850 S   0  0  0  0  0  0  0  0  0  0  0  0
   57.8580   32.7470   45.0380 C   0  0  0  0  0  0  0  0  0  0  0  0
   57.5590   34.5020   44.8490 S   0  0  0  0  0  0  0  0  0  0  0  0
   59.2540   34.9820   45.3610 C   0  0  0  0  0  0  0  0  0  0  0  0
   59.4310   34.7840   46.8370 C   0  0  0  0  0  0  0  0  0  0  0  0
   58.4190   34.5820   47.5630 O   0  0  0  0  0  0  0  0  0  0  0  0
   60.7440   34.8720   47.4040 N   0  0  0  0  0  0  0  0  0  0  0  0
   61.6350   33.7880   47.7160 C   0  0  0  0  0  0  0  0  0  0  0  0
   62.7320   33.4700   46.8890 C   0  0  0  0  0  0  0  0  0  0  0  0
   63.5790   32.4090   47.2260 C   0  0  0  0  0  0  0  0  0  0  0  0
   63.3530   31.6680   48.3900 C   0  0  0  0  0  0  0  0  0  0  0  0
   62.2840   31.9930   49.2310 C   0  0  0  0  0  0  0  0  0  0  0  0
   61.4310   33.0530   48.9010 C   0  0  0  0  0  0  0  0  0  0  0  0
   60.0920   33.4340   49.9770 Cl  0  0  0  0  0  0  0  0  0  0  0  0
   58.4910   32.2040   46.1000 N   0  0  0  0  0  0  0  0  0  0  0  0
   58.5280   30.8430   46.0370 C   0  0  0  0  0  0  0  0  0  0  0  0
   59.1190   30.0610   47.1480 C   0  0  0  0  0  0  0  0  0  0  0  0
   58.9550   30.4410   48.4890 C   0  0  0  0  0  0  0  0  0  0  0  0
   59.5330   29.6830   49.5130 C   0  0  0  0  0  0  0  0  0  0  0  0
   60.2460   28.5210   49.2120 C   0  0  0  0  0  0  0  0  0  0  0  0
   60.8060   27.7860   50.2070 F   0  0  0  0  0  0  0  0  0  0  0  0
   60.3860   28.1150   47.8820 C   0  0  0  0  0  0  0  0  0  0  0  0
   59.8210   28.8780   46.8560 C   0  0  0  0  0  0  0  0  0  0  0  0
   56.3190   24.8770   44.8860 C   0  0  0  0  0  0  0  0  0  0  0  0
   52.5759   24.6129   45.7592 H   0  0  0  0  0  0  0  0  0  0  0  0
   53.5551   24.3329   44.2796 H   0  0  0  0  0  0  0  0  0  0  0  0
   51.7993   23.9539   44.2796 H   0  0  0  0  0  0  0  0  0  0  0  0
   52.4506   23.0797   47.9471 H   0  0  0  0  0  0  0  0  0  0  0  0
   53.9296   22.4585   49.8553 H   0  0  0  0  0  0  0  0  0  0  0  0
   56.1560   21.4205   49.4268 H   0  0  0  0  0  0  0  0  0  0  0  0
   56.8906   20.9597   47.0871 H   0  0  0  0  0  0  0  0  0  0  0  0
   58.9644   22.7242   45.1393 H   0  0  0  0  0  0  0  0  0  0  0  0
   59.8687   24.6352   46.4646 H   0  0  0  0  0  0  0  0  0  0  0  0
   58.5208   26.7106   46.7491 H   0  0  0  0  0  0  0  0  0  0  0  0
   58.4022   28.2415   45.0463 H   0  0  0  0  0  0  0  0  0  0  0  0
   57.6373   28.7460   43.4842 H   0  0  0  0  0  0  0  0  0  0  0  0
   59.9847   34.3611   44.8220 H   0  0  0  0  0  0  0  0  0  0  0  0
   59.4110   36.0443   45.1225 H   0  0  0  0  0  0  0  0  0  0  0  0
   62.9218   34.0568   45.9781 H   0  0  0  0  0  0  0  0  0  0  0  0
   64.4268   32.1564   46.5722 H   0  0  0  0  0  0  0  0  0  0  0  0
   64.0167   30.8285   48.6445 H   0  0  0  0  0  0  0  0  0  0  0  0
   62.1133   31.4158   50.1517 H   0  0  0  0  0  0  0  0  0  0  0  0
   58.3694   31.3388   48.7360 H   0  0  0  0  0  0  0  0  0  0  0  0
   59.4253   30.0039   50.5596 H   0  0  0  0  0  0  0  0  0  0  0  0
   60.9405   27.1956   47.6427 H   0  0  0  0  0  0  0  0  0  0  0  0
   59.9264   28.5502   45.8113 H   0  0  0  0  0  0  0  0  0  0  0  0
   55.3012   24.9312   44.4722 H   0  0  0  0  0  0  0  0  0  0  0  0
  1  2  1  0
  2  3  1  0
  3  4  2  0
  4  5  1  0
  5  6  2  0
  6  7  1  0
  7  8  2  0
  8  9  1  0
  9 10  1  0
 10 11  2  0
 10 12  2  0
 10 13  1  0
 13 14  2  0
 14 15  1  0
 15 16  2  0
 16 17  1  0
 17 18  1  0
 18 19  1  0
 19 20  2  0
 19 21  1  0
 21 22  1  0
 22 23  1  0
 23 24  1  0
 24 25  1  0
 25 26  1  0
 26 27  1  0
 27 28  2  0
 27 29  1  0
 29 30  1  0
 30 31  2  0
 31 32  1  0
 32 33  2  0
 33 34  1  0
 34 35  2  0
 35 36  1  0
 24 37  2  0
 37 38  1  0
 38 39  1  0
 39 40  2  0
 40 41  1  0
 41 42  2  0
 42 43  1  0
 42 44  1  0
 44 45  2  0
 17 46  2  0
  8  3  1  0
 46 13  1  0
 38 22  2  0
 45 39  1  0
 35 30  1  0
  1 47  1  0
  1 48  1  0
  1 49  1  0
  4 50  1  0
  5 51  1  0
  6 52  1  0
  7 53  1  0
 14 54  1  0
 15 55  1  0
 16 56  1  0
 21 57  1  0
 21 58  1  0
 26 59  1  0
 26 60  1  0
 31 61  1  0
 32 62  1  0
 33 63  1  0
 34 64  1  0
 40 65  1  0
 41 66  1  0
 44 67  1  0
 45 68  1  0
 46 69  1  0
M  CHG  3   9  -1  18  -1  29  -1
M  END
>  <UniqueID>  (18) 
18

>  <SMILES>  (18) 
COc1ccccc1[N-]S(=O)(=O)c1cccc([N-]C(=O)Cc2sc(SCC(=O)[N-]c3ccccc3Cl)nc2-c2ccc(F)cc2)c1

>  <Energy>  (18) 
115.18420533123478

>  <Genealogy>  (18) 
COc1ccccc1[N-]S(=O)(=O)c1cccc([N-]C(=O)Cc2sc(SCC(=O)[N-]c3ccccc3Cl)nc2-c2ccc(F)cc2)c1 (protonated)
COc1ccccc1[N-]S(=O)(=O)c1cccc([N-]C(=O)Cc2sc(SCC(=O)[N-]c3ccccc3Cl)nc2-c2ccc(F)cc2)c1 (3D coordinates assigned)
COc1ccccc1[N-]S(=O)(=O)c1cccc([N-]C(=O)Cc2sc(SCC(=O)[N-]c3ccccc3Cl)nc2-c2ccc(F)cc2)c1 (optimized conformer: 115.18420533123478 kcal/mol)

>  <smiles>  (18) 
COc1ccccc1NS(=O)(=O)c1cccc(NC(=O)Cc2sc(SCC(=O)Nc3ccccc3Cl)nc2-c2ccc(F)cc2)c1

>  <score_type>  (18) 
oracle

>  <origin>  (18) 
adg

>  <m_score__min__energy>  (18) 
-15.199999999999999

>  <m_primary>  (18) 
energy

$$$$
18:0
     RDKit          3D

 42 44  0  0  0  0  0  0  0  0999 V2000
   58.0140   32.5700   43.3240 C   0  0  0  0  0  0  0  0  0  0  0  0
   58.3930   33.0630   44.6970 C   0  0  0  0  0  0  0  0  0  0  0  0
   58.6700   34.4310   44.8650 C   0  0  0  0  0  0  0  0  0  0  0  0
   59.0680   34.9290   46.1080 C   0  0  0  0  0  0  0  0  0  0  0  0
   59.1920   34.0700   47.1980 C   0  0  0  0  0  0  0  0  0  0  0  0
   58.9020   32.7120   47.0550 C   0  0  0  0  0  0  0  0  0  0  0  0
   58.4790   32.1970   45.8180 C   0  0  0  0  0  0  0  0  0  0  0  0
   58.1540   30.7580   45.7330 C   0  0  0  0  0  0  0  0  0  0  0  0
   57.0360   30.4120   45.2600 O   0  0  0  0  0  0  0  0  0  0  0  0
   59.0990   29.7700   46.1750 N   0  0  0  0  0  0  0  0  0  0  0  0
   58.8490   28.3550   46.1640 C   0  0  0  0  0  0  0  0  0  0  0  0
   59.8890   27.4270   45.9830 C   0  0  0  0  0  0  0  0  0  0  0  0
   59.6180   26.0560   45.9970 C   0  0  0  0  0  0  0  0  0  0  0  0
   58.3150   25.6000   46.2130 C   0  0  0  0  0  0  0  0  0  0  0  0
   57.2760   26.5090   46.4420 C   0  0  0  0  0  0  0  0  0  0  0  0
   55.9500   26.0070   46.6630 N   0  0  0  0  0  0  0  0  0  0  0  0
   55.2210   25.1270   45.7950 C   0  0  0  0  0  0  0  0  0  0  0  0
   53.9950   25.3470   45.6100 O   0  0  0  0  0  0  0  0  0  0  0  0
   55.8750   24.0070   45.0770 C   0  0  0  0  0  0  0  0  0  0  0  0
   56.4110   22.9140   45.7820 C   0  0  0  0  0  0  0  0  0  0  0  0
   57.0200   21.8610   45.0940 C   0  0  0  0  0  0  0  0  0  0  0  0
   57.1110   21.8930   43.7010 C   0  0  0  0  0  0  0  0  0  0  0  0
   56.5970   22.9820   42.9920 C   0  0  0  0  0  0  0  0  0  0  0  0
   55.9850   24.0380   43.6760 C   0  0  0  0  0  0  0  0  0  0  0  0
   57.5470   27.8890   46.4000 C   0  0  0  0  0  0  0  0  0  0  0  0
   57.3460   31.7011   43.4179 H   0  0  0  0  0  0  0  0  0  0  0  0
   57.4976   33.3720   42.7761 H   0  0  0  0  0  0  0  0  0  0  0  0
   58.9217   32.2772   42.7761 H   0  0  0  0  0  0  0  0  0  0  0  0
   58.5724   35.1157   44.0096 H   0  0  0  0  0  0  0  0  0  0  0  0
   59.2839   36.0011   46.2264 H   0  0  0  0  0  0  0  0  0  0  0  0
   59.5188   34.4624   48.1723 H   0  0  0  0  0  0  0  0  0  0  0  0
   59.0056   32.0388   47.9188 H   0  0  0  0  0  0  0  0  0  0  0  0
   59.9930   30.0970   46.6040 H   0  0  0  0  0  0  0  0  0  0  0  0
   60.9192   27.7808   45.8299 H   0  0  0  0  0  0  0  0  0  0  0  0
   60.4325   25.3341   45.8376 H   0  0  0  0  0  0  0  0  0  0  0  0
   58.1047   24.5203   46.2030 H   0  0  0  0  0  0  0  0  0  0  0  0
   56.3505   22.8880   46.8800 H   0  0  0  0  0  0  0  0  0  0  0  0
   57.4286   21.0050   45.6511 H   0  0  0  0  0  0  0  0  0  0  0  0
   57.5873   21.0610   43.1617 H   0  0  0  0  0  0  0  0  0  0  0  0
   56.6736   23.0090   41.8950 H   0  0  0  0  0  0  0  0  0  0  0  0
   55.5880   24.8967   43.1147 H   0  0  0  0  0  0  0  0  0  0  0  0
   56.7301   28.6095   46.5537 H   0  0  0  0  0  0  0  0  0  0  0  0
  1  2  1  0
  2  3  2  0
  3  4  1  0
  4  5  2  0
  5  6  1  0
  6  7  2  0
  7  8  1  0
  8  9  2  0
  8 10  1  0
 10 11  1  0
 11 12  2  0
 12 13  1  0
 13 14  2  0
 14 15  1  0
 15 16  1  0
 16 17  1  0
 17 18  2  0
 17 19  1  0
 19 20  2  0
 20 21  1  0
 21 22  2  0
 22 23  1  0
 23 24  2  0
 15 25  2  0
  7  2  1  0
 25 11  1  0
 24 19  1  0
  1 26  1  0
  1 27  1  0
  1 28  1  0
  3 29  1  0
  4 30  1  0
  5 31  1  0
  6 32  1  0
 10 33  1  0
 12 34  1  0
 13 35  1  0
 14 36  1  0
 20 37  1  0
 21 38  1  0
 22 39  1  0
 23 40  1  0
 24 41  1  0
 25 42  1  0
M  CHG  1  16  -1
M  END
>  <UniqueID>  (19) 
19

>  <SMILES>  (19) 
Cc1ccccc1C(=O)Nc1cccc([N-]C(=O)c2ccccc2)c1

>  <Energy>  (19) 
61.212483952572015

>  <Genealogy>  (19) 
Cc1ccccc1C(=O)Nc1cccc([N-]C(=O)c2ccccc2)c1 (protonated)
Cc1ccccc1C(=O)Nc1cccc([N-]C(=O)c2ccccc2)c1 (3D coordinates assigned)
Cc1ccccc1C(=O)Nc1cccc([N-]C(=O)c2ccccc2)c1 (optimized conformer: 61.212483952572015 kcal/mol)

>  <smiles>  (19) 
Cc1ccccc1C(=O)Nc1cccc(NC(=O)c2ccccc2)c1

>  <score_type>  (19) 
oracle

>  <origin>  (19) 
adg

>  <m_score__min__energy>  (19) 
-11.039999999999999

>  <m_primary>  (19) 
energy

$$$$
19:0
     RDKit          3D

 20 20  0  0  0  0  0  0  0  0999 V2000
   57.6220   28.5900   43.4090 N   0  0  0  0  0  0  0  0  0  0  0  0
   58.8640   28.2000   44.0770 C   0  0  0  0  0  0  0  0  0  0  0  0
   58.6760   28.0490   45.5940 C   0  0  0  0  0  0  0  0  0  0  0  0
   57.6980   26.9950   45.9110 N   0  0  0  0  0  0  0  0  0  0  0  0
   58.1500   25.8010   46.4010 C   0  0  0  0  0  0  0  0  0  0  0  0
   57.2570   24.7740   46.7000 C   0  0  0  0  0  0  0  0  0  0  0  0
   55.8990   24.9900   46.4860 C   0  0  0  0  0  0  0  0  0  0  0  0
   55.0630   24.0840   46.7460 O   0  0  0  0  0  0  0  0  0  0  0  0
   55.4750   26.1800   45.9950 N   0  0  0  0  0  0  0  0  0  0  0  0
   56.3530   27.1770   45.7060 C   0  0  0  0  0  0  0  0  0  0  0  0
   55.9110   28.2640   45.2450 O   0  0  0  0  0  0  0  0  0  0  0  0
   57.1910   29.3870   43.9300 H   0  0  0  0  0  0  0  0  0  0  0  0
   57.8190   28.9010   42.4300 H   0  0  0  0  0  0  0  0  0  0  0  0
   56.9480   27.7900   43.4010 H   0  0  0  0  0  0  0  0  0  0  0  0
   59.2035   27.2389   43.6634 H   0  0  0  0  0  0  0  0  0  0  0  0
   59.6076   28.9917   43.9030 H   0  0  0  0  0  0  0  0  0  0  0  0
   59.6426   27.7896   46.0505 H   0  0  0  0  0  0  0  0  0  0  0  0
   58.2996   29.0024   45.9932 H   0  0  0  0  0  0  0  0  0  0  0  0
   59.2279   25.6500   46.5605 H   0  0  0  0  0  0  0  0  0  0  0  0
   57.6176   23.8134   47.0966 H   0  0  0  0  0  0  0  0  0  0  0  0
  1  2  1  0
  2  3  1  0
  3  4  1  0
  4  5  1  0
  5  6  2  0
  6  7  1  0
  7  8  2  0
  7  9  1  0
  9 10  1  0
 10 11  2  0
 10  4  1  0
  1 12  1  0
  1 13  1  0
  1 14  1  0
  2 15  1  0
  2 16  1  0
  3 17  1  0
  3 18  1  0
  5 19  1  0
  6 20  1  0
M  CHG  2   1   1   9  -1
M  END
>  <UniqueID>  (20) 
20

>  <SMILES>  (20) 
[NH3+]CCn1ccc(=O)[n-]c1=O

>  <Energy>  (20) 
17.852581433320648

>  <Genealogy>  (20) 
[NH3+]CCn1ccc(=O)[n-]c1=O (protonated)
[NH3+]CCn1ccc(=O)[n-]c1=O (3D coordinates assigned)
[NH3+]CCn1ccc(=O)[n-]c1=O (optimized conformer: 17.852581433320648 kcal/mol)

>  <smiles>  (20) 
NCCn1ccc(=O)[nH]c1=O

>  <score_type>  (20) 
oracle

>  <origin>  (20) 
adg

>  <m_score__min__energy>  (20) 
-5.0199999999999996

>  <m_primary>  (20) 
energy

$$$$
20:0
     RDKit          3D

 47 50  0  0  0  0  0  0  0  0999 V2000
   54.8260   25.8480   45.8860 N   0  0  0  0  0  0  0  0  0  0  0  0
   55.8790   26.5750   46.0800 C   0  0  0  0  0  0  0  0  0  0  0  0
   56.9150   26.0890   46.8120 N   0  0  0  0  0  0  0  0  0  0  0  0
   58.0260   26.8330   47.0410 C   0  0  0  0  0  0  0  0  0  0  0  0
   59.0690   26.2980   47.8040 C   0  0  0  0  0  0  0  0  0  0  0  0
   60.2100   27.0570   48.0600 C   0  0  0  0  0  0  0  0  0  0  0  0
   60.3180   28.3550   47.5580 C   0  0  0  0  0  0  0  0  0  0  0  0
   59.2820   28.9140   46.7850 C   0  0  0  0  0  0  0  0  0  0  0  0
   59.4150   30.2020   46.2500 O   0  0  0  0  0  0  0  0  0  0  0  0
   59.8740   31.3330   46.9920 C   0  0  0  0  0  0  0  0  0  0  0  0
   59.5060   32.6060   46.2620 C   0  0  0  0  0  0  0  0  0  0  0  0
   58.3220   32.6120   45.5000 C   0  0  0  0  0  0  0  0  0  0  0  0
   57.8950   33.7730   44.8550 C   0  0  0  0  0  0  0  0  0  0  0  0
   58.6240   34.9550   44.9850 C   0  0  0  0  0  0  0  0  0  0  0  0
   59.7870   34.9780   45.7540 C   0  0  0  0  0  0  0  0  0  0  0  0
   60.2470   33.8110   46.3910 C   0  0  0  0  0  0  0  0  0  0  0  0
   61.4870   33.9070   47.1800 C   0  0  0  0  0  0  0  0  0  0  0  0
   62.5930   34.0700   46.5980 O   0  0  0  0  0  0  0  0  0  0  0  0
   61.4170   33.7990   48.6090 N   0  0  0  0  0  0  0  0  0  0  0  0
   60.6540   32.8440   49.3580 C   0  0  0  0  0  0  0  0  0  0  0  0
   59.3120   33.1270   49.6360 C   0  0  0  0  0  0  0  0  0  0  0  0
   58.5340   32.2310   50.3750 C   0  0  0  0  0  0  0  0  0  0  0  0
   59.0960   31.0400   50.8670 C   0  0  0  0  0  0  0  0  0  0  0  0
   58.2810   30.0910   51.6580 C   0  0  0  0  0  0  0  0  0  0  0  0
   57.0220   30.1460   51.6240 O   0  0  0  0  0  0  0  0  0  0  0  0
   58.8940   29.1260   52.4490 O   0  0  0  0  0  0  0  0  0  0  0  0
   60.4500   30.7670   50.6060 C   0  0  0  0  0  0  0  0  0  0  0  0
   61.2260   31.6640   49.8660 C   0  0  0  0  0  0  0  0  0  0  0  0
   58.1260   28.1410   46.5120 C   0  0  0  0  0  0  0  0  0  0  0  0
   57.0370   28.6180   45.7480 C   0  0  0  0  0  0  0  0  0  0  0  0
   57.0550   29.7710   45.2400 O   0  0  0  0  0  0  0  0  0  0  0  0
   55.9470   27.8270   45.5510 N   0  0  0  0  0  0  0  0  0  0  0  0
   53.9270   26.0470   46.3780 H   0  0  0  0  0  0  0  0  0  0  0  0
   58.9888   25.2760   48.2030 H   0  0  0  0  0  0  0  0  0  0  0  0
   61.0281   26.6315   48.6597 H   0  0  0  0  0  0  0  0  0  0  0  0
   61.2210   28.9469   47.7682 H   0  0  0  0  0  0  0  0  0  0  0  0
   59.4039   31.3330   47.9865 H   0  0  0  0  0  0  0  0  0  0  0  0
   60.9673   31.2783   47.0999 H   0  0  0  0  0  0  0  0  0  0  0  0
   57.7270   31.6910   45.4123 H   0  0  0  0  0  0  0  0  0  0  0  0
   56.9814   33.7562   44.2426 H   0  0  0  0  0  0  0  0  0  0  0  0
   58.2811   35.8702   44.4803 H   0  0  0  0  0  0  0  0  0  0  0  0
   60.3497   35.9168   45.8635 H   0  0  0  0  0  0  0  0  0  0  0  0
   58.8652   34.0631   49.2697 H   0  0  0  0  0  0  0  0  0  0  0  0
   57.4762   32.4591   50.5726 H   0  0  0  0  0  0  0  0  0  0  0  0
   60.9028   29.8398   50.9872 H   0  0  0  0  0  0  0  0  0  0  0  0
   62.2881   31.4460   49.6804 H   0  0  0  0  0  0  0  0  0  0  0  0
   55.1450   28.1940   44.9890 H   0  0  0  0  0  0  0  0  0  0  0  0
  1  2  2  3
  2  3  1  0
  3  4  1  0
  4  5  2  0
  5  6  1  0
  6  7  2  0
  7  8  1  0
  8  9  1  0
  9 10  1  0
 10 11  1  0
 11 12  2  0
 12 13  1  0
 13 14  2  0
 14 15  1  0
 15 16  2  0
 16 17  1  0
 17 18  2  0
 17 19  1  0
 19 20  1  0
 20 21  2  0
 21 22  1  0
 22 23  2  0
 23 24  1  0
 24 25  2  0
 24 26  1  0
 23 27  1  0
 27 28  2  0
  8 29  2  0
 29 30  1  0
 30 31  2  0
 30 32  1  0
 32  2  1  0
 29  4  1  0
 16 11  1  0
 28 20  1  0
  1 33  1  0
  5 34  1  0
  6 35  1  0
  7 36  1  0
 10 37  1  0
 10 38  1  0
 12 39  1  0
 13 40  1  0
 14 41  1  0
 15 42  1  0
 21 43  1  0
 22 44  1  0
 27 45  1  0
 28 46  1  0
 32 47  1  0
M  CHG  3   3  -1  19  -1  26  -1
M  END
>  <UniqueID>  (21) 
21

>  <SMILES>  (21) 
N=c1[n-]c2cccc(OCc3ccccc3C(=O)[N-]c3ccc(C(=O)[O-])cc3)c2c(=O)[nH]1

>  <Energy>  (21) 
75.11434493697259

>  <Genealogy>  (21) 
N=c1[n-]c2cccc(OCc3ccccc3C(=O)[N-]c3ccc(C(=O)[O-])cc3)c2c(=O)[nH]1 (protonated)
N=c1[n-]c2cccc(OCc3ccccc3C(=O)[N-]c3ccc(C(=O)[O-])cc3)c2c(=O)[nH]1 (3D coordinates assigned)
N=c1[n-]c2cccc(OCc3ccccc3C(=O)[N-]c3ccc(C(=O)[O-])cc3)c2c(=O)[nH]1 (optimized conformer: 75.11434493697259 kcal/mol)

>  <smiles>  (21) 
N=c1[nH]c(=O)c2c(OCc3ccccc3C(=O)Nc3ccc(C(=O)O)cc3)cccc2[nH]1

>  <score_type>  (21) 
oracle

>  <origin>  (21) 
adg

>  <m_score__min__energy>  (21) 
-13.970000000000001

>  <m_primary>  (21) 
energy

$$$$
21:0
     RDKit          3D

 59 61  0  0  0  0  0  0  0  0999 V2000
   56.6320   22.4590   43.1360 C   0  0  0  0  0  0  0  0  0  0  0  0
   56.5980   23.8950   43.6540 C   0  0  0  0  0  0  0  0  0  0  0  0
   55.3510   24.1450   44.5070 C   0  0  0  0  0  0  0  0  0  0  0  0
   55.7440   25.1950   45.8970 S   0  0  0  0  0  0  0  0  0  0  0  0
   54.7550   26.3280   45.9480 O   0  0  0  0  0  0  0  0  0  0  0  0
   55.6650   24.3970   47.1690 O   0  0  0  0  0  0  0  0  0  0  0  0
   57.3480   25.8180   45.7040 N   0  0  0  0  0  0  0  0  0  0  0  0
   58.2510   26.0040   46.8030 C   0  0  0  0  0  0  0  0  0  0  0  0
   58.0740   25.3570   47.8760 O   0  0  0  0  0  0  0  0  0  0  0  0
   59.4150   26.9790   46.6970 C   0  0  2  0  0  0  0  0  0  0  0  0
   60.7300   26.2450   46.3590 C   0  0  0  0  0  0  0  0  0  0  0  0
   59.5530   27.7660   48.0160 C   0  0  0  0  0  0  0  0  0  0  0  0
   58.7360   29.0390   47.8250 C   0  0  0  0  0  0  0  0  0  0  0  0
   58.6020   29.2040   46.3850 N   0  0  0  0  0  0  0  0  0  0  0  0
   57.8280   30.2490   45.7670 C   0  0  0  0  0  0  0  0  0  0  0  0
   56.7160   29.9720   45.2430 O   0  0  0  0  0  0  0  0  0  0  0  0
   58.2990   31.6490   45.7410 C   0  0  0  0  0  0  0  0  0  0  0  0
   57.5450   32.6460   45.1020 C   0  0  0  0  0  0  0  0  0  0  0  0
   57.9950   33.9680   45.0820 C   0  0  0  0  0  0  0  0  0  0  0  0
   59.2010   34.3210   45.7040 C   0  0  0  0  0  0  0  0  0  0  0  0
   59.6550   35.7560   45.6760 C   0  0  0  0  0  0  0  0  0  0  0  0
   59.9360   33.3330   46.3930 C   0  0  0  0  0  0  0  0  0  0  0  0
   61.1450   33.6640   47.0820 N   0  0  0  0  0  0  0  0  0  0  0  0
   62.4260   33.8400   46.4090 C   0  0  0  0  0  0  0  0  0  0  0  0
   63.5560   33.5750   47.4300 C   0  0  0  0  0  0  0  0  0  0  0  0
   63.0480   33.7990   48.8630 C   0  0  0  0  0  0  0  0  0  0  0  0
   61.3090   33.5220   48.7790 S   0  0  0  0  0  0  0  0  0  0  0  0
   60.9380   32.1440   49.2540 O   0  0  0  0  0  0  0  0  0  0  0  0
   60.5320   34.5860   49.5050 O   0  0  0  0  0  0  0  0  0  0  0  0
   59.4820   32.0060   46.4050 C   0  0  0  0  0  0  0  0  0  0  0  0
   59.1010   28.0560   45.6410 C   0  0  0  0  0  0  0  0  0  0  0  0
   56.6485   21.7625   43.9872 H   0  0  0  0  0  0  0  0  0  0  0  0
   55.7381   22.2688   42.5238 H   0  0  0  0  0  0  0  0  0  0  0  0
   57.5339   22.3113   42.5238 H   0  0  0  0  0  0  0  0  0  0  0  0
   57.4939   24.0774   44.2656 H   0  0  0  0  0  0  0  0  0  0  0  0
   56.5730   24.5768   42.7911 H   0  0  0  0  0  0  0  0  0  0  0  0
   54.5825   24.6337   43.8901 H   0  0  0  0  0  0  0  0  0  0  0  0
   54.9785   23.1809   44.8836 H   0  0  0  0  0  0  0  0  0  0  0  0
   61.2407   25.9599   47.2906 H   0  0  0  0  0  0  0  0  0  0  0  0
   60.5055   25.3417   45.7727 H   0  0  0  0  0  0  0  0  0  0  0  0
   61.3810   26.9102   45.7727 H   0  0  0  0  0  0  0  0  0  0  0  0
   59.1559   27.1781   48.8566 H   0  0  0  0  0  0  0  0  0  0  0  0
   60.6050   27.9898   48.2468 H   0  0  0  0  0  0  0  0  0  0  0  0
   57.7463   28.9343   48.2935 H   0  0  0  0  0  0  0  0  0  0  0  0
   59.2215   29.9088   48.2915 H   0  0  0  0  0  0  0  0  0  0  0  0
   56.5943   32.3845   44.6143 H   0  0  0  0  0  0  0  0  0  0  0  0
   57.3978   34.7393   44.5736 H   0  0  0  0  0  0  0  0  0  0  0  0
   59.7714   36.1239   46.7061 H   0  0  0  0  0  0  0  0  0  0  0  0
   60.6190   35.8254   45.1507 H   0  0  0  0  0  0  0  0  0  0  0  0
   58.9064   36.3672   45.1507 H   0  0  0  0  0  0  0  0  0  0  0  0
   62.5069   33.1295   45.5731 H   0  0  0  0  0  0  0  0  0  0  0  0
   62.5070   34.8633   46.0138 H   0  0  0  0  0  0  0  0  0  0  0  0
   63.9015   32.5358   47.3264 H   0  0  0  0  0  0  0  0  0  0  0  0
   64.3848   34.2708   47.2329 H   0  0  0  0  0  0  0  0  0  0  0  0
   63.5199   33.0871   49.5562 H   0  0  0  0  0  0  0  0  0  0  0  0
   63.2885   34.8062   49.2340 H   0  0  0  0  0  0  0  0  0  0  0  0
   60.0592   31.2377   46.9403 H   0  0  0  0  0  0  0  0  0  0  0  0
   58.3366   27.6927   44.9383 H   0  0  0  0  0  0  0  0  0  0  0  0
   59.9901   28.3129   45.0465 H   0  0  0  0  0  0  0  0  0  0  0  0
  1  2  1  0
  2  3  1  0
  3  4  1  0
  4  5  2  0
  4  6  2  0
  4  7  1  0
  7  8  1  0
  8  9  2  0
  8 10  1  0
 10 11  1  6
 10 12  1  0
 12 13  1  0
 13 14  1  0
 14 15  1  0
 15 16  2  0
 15 17  1  0
 17 18  2  0
 18 19  1  0
 19 20  2  0
 20 21  1  0
 20 22  1  0
 22 23  1  0
 23 24  1  0
 24 25  1  0
 25 26  1  0
 26 27  1  0
 27 28  2  0
 27 29  2  0
 22 30  2  0
 14 31  1  0
 31 10  1  0
 30 17  1  0
 27 23  1  0
  1 32  1  0
  1 33  1  0
  1 34  1  0
  2 35  1  0
  2 36  1  0
  3 37  1  0
  3 38  1  0
 11 39  1  0
 11 40  1  0
 11 41  1  0
 12 42  1  0
 12 43  1  0
 13 44  1  0
 13 45  1  0
 18 46  1  0
 19 47  1  0
 21 48  1  0
 21 49  1  0
 21 50  1  0
 24 51  1  0
 24 52  1  0
 25 53  1  0
 25 54  1  0
 26 55  1  0
 26 56  1  0
 30 57  1  0
 31 58  1  0
 31 59  1  0
M  CHG  1   7  -1
M  END
>  <UniqueID>  (22) 
22

>  <SMILES>  (22) 
CCCS(=O)(=O)[N-]C(=O)[C@]1(C)CCN(C(=O)c2ccc(C)c(N3CCCS3(=O)=O)c2)C1

>  <Energy>  (22) 
69.0199574042405

>  <Genealogy>  (22) 
CCCS(=O)(=O)[N-]C(=O)C1(C)CCN(C(=O)c2ccc(C)c(N3CCCS3(=O)=O)c2)C1 (protonated)
CCCS(=O)(=O)[N-]C(=O)[C@]1(C)CCN(C(=O)c2ccc(C)c(N3CCCS3(=O)=O)c2)C1 (chirality)
CCCS(=O)(=O)[N-]C(=O)[C@]1(C)CCN(C(=O)c2ccc(C)c(N3CCCS3(=O)=O)c2)C1 (3D coordinates assigned)
CCCS(=O)(=O)[N-]C(=O)[C@]1(C)CCN(C(=O)c2ccc(C)c(N3CCCS3(=O)=O)c2)C1 (nonaromatic ring conformer: 69.0199574042405 kcal/mol)

>  <smiles>  (22) 
CCCS(=O)(=O)NC(=O)C1(C)CCN(C(=O)c2ccc(C)c(N3CCCS3(=O)=O)c2)C1

>  <score_type>  (22) 
oracle

>  <origin>  (22) 
adg

>  <m_score__min__energy>  (22) 
-12.35

>  <m_primary>  (22) 
energy

$$$$
22:0
     RDKit          3D

 29 30  0  0  0  0  0  0  0  0999 V2000
   57.2958   23.1817   43.8846 H   0  0  0  0  0  0  0  0  0  0  0  0
   57.2430   23.9690   44.6510 C   0  0  0  0  0  0  0  0  0  0  0  0
   57.4183   25.0190   44.3739 H   0  0  0  0  0  0  0  0  0  0  0  0
   56.9660   23.6500   45.9180 C   0  0  0  0  0  0  0  0  0  0  0  0
   56.7930   22.5958   46.1803 H   0  0  0  0  0  0  0  0  0  0  0  0
   56.8850   24.6950   46.9930 C   0  0  0  0  0  0  0  0  0  0  0  0
   55.8759   24.6877   47.4308 H   0  0  0  0  0  0  0  0  0  0  0  0
   57.6334   24.4705   47.7673 H   0  0  0  0  0  0  0  0  0  0  0  0
   57.1600   26.0210   46.4350 N   0  0  0  0  0  0  0  0  0  0  0  0
   56.2480   26.9020   45.9550 C   0  0  0  0  0  0  0  0  0  0  0  0
   54.8720   26.7030   46.0160 O   0  0  0  0  0  0  0  0  0  0  0  0
   56.8780   28.0290   45.4410 C   0  0  0  0  0  0  0  0  0  0  0  0
   56.2680   29.2220   44.9280 N   0  0  0  0  0  0  0  0  0  0  0  0
   56.6510   30.4170   45.1730 N   0  0  0  0  0  0  0  0  0  0  0  0
   57.2990   31.2980   44.2430 C   0  0  0  0  0  0  0  0  0  0  0  0
   57.5160   32.4910   44.5780 O   0  0  0  0  0  0  0  0  0  0  0  0
   57.7800   30.8230   42.9840 N   0  0  0  0  0  0  0  0  0  0  0  0
   57.7840   29.8050   42.7570 H   0  0  0  0  0  0  0  0  0  0  0  0
   58.2100   31.4890   42.3030 H   0  0  0  0  0  0  0  0  0  0  0  0
   58.2240   27.8390   45.6580 C   0  0  0  0  0  0  0  0  0  0  0  0
   59.3200   28.6500   45.3680 C   0  0  0  0  0  0  0  0  0  0  0  0
   59.1889   29.6382   44.9030 H   0  0  0  0  0  0  0  0  0  0  0  0
   60.5990   28.1620   45.6900 C   0  0  0  0  0  0  0  0  0  0  0  0
   61.4869   28.7750   45.4760 H   0  0  0  0  0  0  0  0  0  0  0  0
   60.7520   26.8910   46.2860 C   0  0  0  0  0  0  0  0  0  0  0  0
   61.7584   26.5205   46.5308 H   0  0  0  0  0  0  0  0  0  0  0  0
   59.6270   26.0950   46.5690 C   0  0  0  0  0  0  0  0  0  0  0  0
   59.7365   25.1036   47.0328 H   0  0  0  0  0  0  0  0  0  0  0  0
   58.3660   26.6020   46.2430 C   0  0  0  0  0  0  0  0  0  0  0  0
  1  2  1  0
  2  3  1  0
  2  4  2  0
  4  5  1  0
  4  6  1  0
  6  7  1  0
  6  8  1  0
  6  9  1  0
  9 10  1  0
 10 11  1  0
 10 12  2  0
 12 13  1  0
 13 14  2  0
 14 15  1  0
 15 16  2  0
 15 17  1  0
 17 18  1  0
 17 19  1  0
 12 20  1  0
 20 21  2  0
 21 22  1  0
 21 23  1  0
 23 24  1  0
 23 25  2  0
 25 26  1  0
 25 27  1  0
 27 28  1  0
 27 29  2  0
 29  9  1  0
 29 20  1  0
M  CHG  1  11  -1
M  END
>  <UniqueID>  (23) 
23

>  <SMILES>  (23) 
C=CCn1c([O-])c(/N=N\C(N)=O)c2ccccc21

>  <Energy>  (23) 
72.28286041007141

>  <Genealogy>  (23) 
C=CCn1c([O-])c(N=NC(N)=O)c2ccccc21 (protonated)
C=CCn1c([O-])c(/N=N\C(N)=O)c2ccccc21 (cis-trans isomerization)
C=CCn1c([O-])c(/N=N\C(N)=O)c2ccccc21 (3D coordinates assigned)
C=CCn1c([O-])c(/N=N\C(N)=O)c2ccccc21 (optimized conformer: 72.28286041007141 kcal/mol)

>  <smiles>  (23) 
C=CCn1c(O)c(N=NC(N)=O)c2ccccc21

>  <score_type>  (23) 
oracle

>  <origin>  (23) 
adg

>  <m_score__min__energy>  (23) 
-10.41

>  <m_primary>  (23) 
energy

$$$$
23:0
     RDKit          3D

 48 49  0  0  0  0  0  0  0  0999 V2000
   57.7970   32.6860   43.5670 C   0  0  0  0  0  0  0  0  0  0  0  0
   57.0950   32.7770   44.9190 C   0  0  0  0  0  0  0  0  0  0  0  0
   57.4560   34.0600   45.6810 C   0  0  0  0  0  0  0  0  0  0  0  0
   58.8020   33.9980   46.3490 C   0  0  0  0  0  0  0  0  0  0  0  0
   60.0210   34.1420   45.6960 C   0  0  0  0  0  0  0  0  0  0  0  0
   61.1260   33.8780   46.5120 C   0  0  0  0  0  0  0  0  0  0  0  0
   60.7820   33.5250   47.8130 C   0  0  0  0  0  0  0  0  0  0  0  0
   61.7150   33.0320   48.8770 C   0  0  0  0  0  0  0  0  0  0  0  0
   61.4370   31.2630   49.2630 S   0  0  0  0  0  0  0  0  0  0  0  0
   61.6440   30.6210   47.5630 C   0  0  0  0  0  0  0  0  0  0  0  0
   60.3310   30.1820   46.9750 C   0  0  0  0  0  0  0  0  0  0  0  0
   59.3760   29.5310   47.7720 C   0  0  0  0  0  0  0  0  0  0  0  0
   58.1490   29.1430   47.2270 C   0  0  0  0  0  0  0  0  0  0  0  0
   57.8680   29.3760   45.8730 C   0  0  0  0  0  0  0  0  0  0  0  0
   56.5690   28.9590   45.3080 C   0  0  0  0  0  0  0  0  0  0  0  0
   55.9430   29.7550   44.5600 O   0  0  0  0  0  0  0  0  0  0  0  0
   55.9720   27.6940   45.6210 N   0  0  0  0  0  0  0  0  0  0  0  0
   56.7100   26.5240   46.0820 C   0  0  0  0  0  0  0  0  0  0  0  0
   55.9760   25.2540   45.6760 C   0  0  0  0  0  0  0  0  0  0  0  0
   54.6030   25.4010   45.9750 O   0  0  0  0  0  0  0  0  0  0  0  0
   53.8940   24.2940   45.4700 C   0  0  0  0  0  0  0  0  0  0  0  0
   58.8140   30.0470   45.0820 C   0  0  0  0  0  0  0  0  0  0  0  0
   60.0350   30.4470   45.6290 C   0  0  0  0  0  0  0  0  0  0  0  0
   59.1040   33.4910   47.9270 S   0  0  0  0  0  0  0  0  0  0  0  0
   58.8768   32.5460   43.7232 H   0  0  0  0  0  0  0  0  0  0  0  0
   57.3946   31.8325   43.0016 H   0  0  0  0  0  0  0  0  0  0  0  0
   57.6256   33.6139   43.0016 H   0  0  0  0  0  0  0  0  0  0  0  0
   56.0076   32.7581   44.7543 H   0  0  0  0  0  0  0  0  0  0  0  0
   57.4257   31.9218   45.5267 H   0  0  0  0  0  0  0  0  0  0  0  0
   57.4577   34.8993   44.9700 H   0  0  0  0  0  0  0  0  0  0  0  0
   56.7050   34.1894   46.4742 H   0  0  0  0  0  0  0  0  0  0  0  0
   60.1081   34.4353   44.6394 H   0  0  0  0  0  0  0  0  0  0  0  0
   62.1659   33.9432   46.1593 H   0  0  0  0  0  0  0  0  0  0  0  0
   62.7507   33.1618   48.5298 H   0  0  0  0  0  0  0  0  0  0  0  0
   61.5274   33.6140   49.7914 H   0  0  0  0  0  0  0  0  0  0  0  0
   62.0712   31.4137   46.9313 H   0  0  0  0  0  0  0  0  0  0  0  0
   62.3128   29.7486   47.6030 H   0  0  0  0  0  0  0  0  0  0  0  0
   59.5945   29.3254   48.8303 H   0  0  0  0  0  0  0  0  0  0  0  0
   57.3989   28.6517   47.8642 H   0  0  0  0  0  0  0  0  0  0  0  0
   57.7134   26.5250   45.6312 H   0  0  0  0  0  0  0  0  0  0  0  0
   56.7942   26.5583   47.1782 H   0  0  0  0  0  0  0  0  0  0  0  0
   56.1023   25.0841   44.5966 H   0  0  0  0  0  0  0  0  0  0  0  0
   56.3866   24.3950   46.2270 H   0  0  0  0  0  0  0  0  0  0  0  0
   53.5088   23.6926   46.3066 H   0  0  0  0  0  0  0  0  0  0  0  0
   53.0534   24.6468   44.8545 H   0  0  0  0  0  0  0  0  0  0  0  0
   54.5660   23.6780   44.8545 H   0  0  0  0  0  0  0  0  0  0  0  0
   58.5922   30.2588   44.0256 H   0  0  0  0  0  0  0  0  0  0  0  0
   60.7692   30.9730   45.0011 H   0  0  0  0  0  0  0  0  0  0  0  0
  1  2  1  0
  2  3  1  0
  3  4  1  0
  4  5  2  0
  5  6  1  0
  6  7  2  0
  7  8  1  0
  8  9  1  0
  9 10  1  0
 10 11  1  0
 11 12  2  0
 12 13  1  0
 13 14  2  0
 14 15  1  0
 15 16  2  0
 15 17  1  0
 17 18  1  0
 18 19  1  0
 19 20  1  0
 20 21  1  0
 14 22  1  0
 22 23  2  0
  7 24  1  0
 24  4  1  0
 23 11  1  0
  1 25  1  0
  1 26  1  0
  1 27  1  0
  2 28  1  0
  2 29  1  0
  3 30  1  0
  3 31  1  0
  5 32  1  0
  6 33  1  0
  8 34  1  0
  8 35  1  0
 10 36  1  0
 10 37  1  0
 12 38  1  0
 13 39  1  0
 18 40  1  0
 18 41  1  0
 19 42  1  0
 19 43  1  0
 21 44  1  0
 21 45  1  0
 21 46  1  0
 22 47  1  0
 23 48  1  0
M  CHG  1  17  -1
M  END
>  <UniqueID>  (24) 
24

>  <SMILES>  (24) 
CCCc1ccc(CSCc2ccc(C(=O)[N-]CCOC)cc2)s1

>  <Energy>  (24) 
59.854940209985116

>  <Genealogy>  (24) 
CCCc1ccc(CSCc2ccc(C(=O)[N-]CCOC)cc2)s1 (protonated)
CCCc1ccc(CSCc2ccc(C(=O)[N-]CCOC)cc2)s1 (3D coordinates assigned)
CCCc1ccc(CSCc2ccc(C(=O)[N-]CCOC)cc2)s1 (optimized conformer: 59.854940209985116 kcal/mol)

>  <smiles>  (24) 
CCCc1ccc(CSCc2ccc(C(=O)NCCOC)cc2)s1

>  <score_type>  (24) 
oracle

>  <origin>  (24) 
adg

>  <m_score__min__energy>  (24) 
-10.039999999999999

>  <m_primary>  (24) 
energy

$$$$
24:0
     RDKit          3D

 57 59  0  0  0  0  0  0  0  0999 V2000
   55.5760   28.3280   53.5700 C   0  0  0  0  0  0  0  0  0  0  0  0
   54.5610   29.2100   52.8810 C   0  0  0  0  0  0  0  0  0  0  0  0
   53.2070   28.8080   52.8610 C   0  0  0  0  0  0  0  0  0  0  0  0
   52.2400   29.5890   52.2310 C   0  0  0  0  0  0  0  0  0  0  0  0
   52.5970   30.7970   51.6090 C   0  0  0  0  0  0  0  0  0  0  0  0
   51.5910   31.6070   50.9700 N   0  0  0  0  0  0  0  0  0  0  0  0
   51.1860   31.3280   49.8180 O   0  0  0  0  0  0  0  0  0  0  0  0
   51.0640   32.7080   51.6140 O   0  0  0  0  0  0  0  0  0  0  0  0
   53.9460   31.2010   51.6170 C   0  0  0  0  0  0  0  0  0  0  0  0
   54.9390   30.4100   52.2250 C   0  0  0  0  0  0  0  0  0  0  0  0
   56.6240   30.9590   52.1460 S   0  0  0  0  0  0  0  0  0  0  0  0
   57.3230   30.5930   53.4260 O   0  0  0  0  0  0  0  0  0  0  0  0
   56.6750   32.4430   51.9420 O   0  0  0  0  0  0  0  0  0  0  0  0
   57.4110   30.1650   50.8190 N   0  0  0  0  0  0  0  0  0  0  0  0
   58.8320   30.0990   50.6300 C   0  0  0  0  0  0  0  0  0  0  0  0
   59.6620   29.5550   51.6310 C   0  0  0  0  0  0  0  0  0  0  0  0
   61.0440   29.4780   51.4260 C   0  0  0  0  0  0  0  0  0  0  0  0
   61.6020   29.9120   50.2280 C   0  0  0  0  0  0  0  0  0  0  0  0
   60.7860   30.4580   49.2350 C   0  0  0  0  0  0  0  0  0  0  0  0
   59.3960   30.5820   49.4350 C   0  0  0  0  0  0  0  0  0  0  0  0
   58.5320   31.0680   48.3940 N   0  0  0  0  0  0  0  0  0  0  0  0
   58.4920   32.4280   47.9190 C   0  0  0  0  0  0  0  0  0  0  0  0
   59.0510   33.3540   48.5660 O   0  0  0  0  0  0  0  0  0  0  0  0
   57.7710   32.7550   46.6420 C   0  0  0  0  0  0  0  0  0  0  0  0
   58.5000   32.2140   45.4000 C   0  0  0  0  0  0  0  0  0  0  0  0
   57.5570   31.6370   44.3250 C   0  0  0  0  0  0  0  0  0  0  0  0
   56.7120   30.5130   44.8370 C   0  0  0  0  0  0  0  0  0  0  0  0
   55.6370   30.2180   44.2510 O   0  0  0  0  0  0  0  0  0  0  0  0
   57.1530   29.7770   45.9830 N   0  0  0  0  0  0  0  0  0  0  0  0
   58.2960   28.9080   46.0850 C   0  0  0  0  0  0  0  0  0  0  0  0
   58.2910   27.9050   47.0730 C   0  0  0  0  0  0  0  0  0  0  0  0
   59.3850   27.0410   47.2200 C   0  0  0  0  0  0  0  0  0  0  0  0
   60.4950   27.1630   46.3730 C   0  0  0  0  0  0  0  0  0  0  0  0
   60.4980   28.1410   45.3680 C   0  0  0  0  0  0  0  0  0  0  0  0
   59.3990   29.0040   45.2130 C   0  0  0  0  0  0  0  0  0  0  0  0
   55.4653   28.4242   54.6602 H   0  0  0  0  0  0  0  0  0  0  0  0
   55.4117   27.2809   53.2757 H   0  0  0  0  0  0  0  0  0  0  0  0
   56.5899   28.6368   53.2757 H   0  0  0  0  0  0  0  0  0  0  0  0
   52.9123   27.8671   53.3486 H   0  0  0  0  0  0  0  0  0  0  0  0
   51.1911   29.2577   52.2207 H   0  0  0  0  0  0  0  0  0  0  0  0
   54.2286   32.1510   51.1399 H   0  0  0  0  0  0  0  0  0  0  0  0
   59.2238   29.1914   52.5722 H   0  0  0  0  0  0  0  0  0  0  0  0
   61.6926   29.0721   52.2163 H   0  0  0  0  0  0  0  0  0  0  0  0
   62.6861   29.8251   50.0628 H   0  0  0  0  0  0  0  0  0  0  0  0
   61.2321   30.7946   48.2875 H   0  0  0  0  0  0  0  0  0  0  0  0
   57.8720   30.3930   47.9450 H   0  0  0  0  0  0  0  0  0  0  0  0
   56.7648   32.3123   46.6814 H   0  0  0  0  0  0  0  0  0  0  0  0
   57.7270   33.8506   46.5536 H   0  0  0  0  0  0  0  0  0  0  0  0
   59.0758   33.0365   44.9505 H   0  0  0  0  0  0  0  0  0  0  0  0
   59.1408   31.3872   45.7403 H   0  0  0  0  0  0  0  0  0  0  0  0
   56.8951   32.4408   43.9702 H   0  0  0  0  0  0  0  0  0  0  0  0
   58.1842   31.2370   43.5147 H   0  0  0  0  0  0  0  0  0  0  0  0
   57.4199   27.7983   47.7362 H   0  0  0  0  0  0  0  0  0  0  0  0
   59.3723   26.2664   48.0009 H   0  0  0  0  0  0  0  0  0  0  0  0
   61.3599   26.4946   46.4960 H   0  0  0  0  0  0  0  0  0  0  0  0
   61.3649   28.2334   44.6973 H   0  0  0  0  0  0  0  0  0  0  0  0
   59.4000   29.7555   44.4097 H   0  0  0  0  0  0  0  0  0  0  0  0
  1  2  1  0
  2  3  2  0
  3  4  1  0
  4  5  2  0
  5  6  1  0
  6  7  2  0
  6  8  1  0
  5  9  1  0
  9 10  2  0
 10 11  1  0
 11 12  2  0
 11 13  2  0
 11 14  1  0
 14 15  1  0
 15 16  2  0
 16 17  1  0
 17 18  2  0
 18 19  1  0
 19 20  2  0
 20 21  1  0
 21 22  1  0
 22 23  2  0
 22 24  1  0
 24 25  1  0
 25 26  1  0
 26 27  1  0
 27 28  2  0
 27 29  1  0
 29 30  1  0
 30 31  2  0
 31 32  1  0
 32 33  2  0
 33 34  1  0
 34 35  2  0
 10  2  1  0
 20 15  1  0
 35 30  1  0
  1 36  1  0
  1 37  1  0
  1 38  1  0
  3 39  1  0
  4 40  1  0
  9 41  1  0
 16 42  1  0
 17 43  1  0
 18 44  1  0
 19 45  1  0
 21 46  1  0
 24 47  1  0
 24 48  1  0
 25 49  1  0
 25 50  1  0
 26 51  1  0
 26 52  1  0
 31 53  1  0
 32 54  1  0
 33 55  1  0
 34 56  1  0
 35 57  1  0
M  CHG  4   6   1   8  -1  14  -1  29  -1
M  END
>  <UniqueID>  (25) 
25

>  <SMILES>  (25) 
Cc1ccc([N+](=O)[O-])cc1S(=O)(=O)[N-]c1ccccc1NC(=O)CCCC(=O)[N-]c1ccccc1

>  <Energy>  (25) 
64.72209021833675

>  <Genealogy>  (25) 
Cc1ccc([N+](=O)[O-])cc1S(=O)(=O)[N-]c1ccccc1NC(=O)CCCC(=O)[N-]c1ccccc1 (protonated)
Cc1ccc([N+](=O)[O-])cc1S(=O)(=O)[N-]c1ccccc1NC(=O)CCCC(=O)[N-]c1ccccc1 (3D coordinates assigned)
Cc1ccc([N+](=O)[O-])cc1S(=O)(=O)[N-]c1ccccc1NC(=O)CCCC(=O)[N-]c1ccccc1 (optimized conformer: 64.72209021833675 kcal/mol)

>  <smiles>  (25) 
Cc1ccc([N+](=O)[O-])cc1S(=O)(=O)Nc1ccccc1NC(=O)CCCC(=O)Nc1ccccc1

>  <score_type>  (25) 
oracle

>  <origin>  (25) 
adg

>  <m_score__min__energy>  (25) 
-12.83

>  <m_primary>  (25) 
energy

$$$$
25:0
     RDKit          3D

 55 58  0  0  0  0  0  0  0  0999 V2000
   55.0450   26.6740   45.9880 O   0  0  0  0  0  0  0  0  0  0  0  0
   56.2250   26.3430   46.2830 C   0  0  0  0  0  0  0  0  0  0  0  0
   56.4320   25.2540   47.1220 O   0  0  0  0  0  0  0  0  0  0  0  0
   57.3750   27.1050   45.7440 C   0  0  0  0  0  0  0  0  0  0  0  0
   57.8020   26.9110   44.4200 C   0  0  0  0  0  0  0  0  0  0  0  0
   58.8970   27.6160   43.9210 C   0  0  0  0  0  0  0  0  0  0  0  0
   59.5840   28.5180   44.7350 C   0  0  0  0  0  0  0  0  0  0  0  0
   59.1710   28.7320   46.0580 C   0  0  0  0  0  0  0  0  0  0  0  0
   59.8980   29.7080   46.9460 C   0  0  0  0  0  0  0  0  0  0  0  0
   59.0120   30.7330   47.4050 O   0  0  0  0  0  0  0  0  0  0  0  0
   58.8590   32.0150   46.8460 C   0  0  0  0  0  0  0  0  0  0  0  0
   57.7510   32.3590   46.0400 C   0  0  0  0  0  0  0  0  0  0  0  0
   57.6480   33.6350   45.4800 C   0  0  0  0  0  0  0  0  0  0  0  0
   58.6470   34.5810   45.7030 C   0  0  0  0  0  0  0  0  0  0  0  0
   59.7560   34.2540   46.4840 C   0  0  0  0  0  0  0  0  0  0  0  0
   59.8670   32.9810   47.0710 C   0  0  0  0  0  0  0  0  0  0  0  0
   61.0700   32.6730   47.8790 C   0  0  0  0  0  0  0  0  0  0  0  0
   62.2060   32.9390   47.4080 O   0  0  0  0  0  0  0  0  0  0  0  0
   60.9980   32.0510   49.1690 N   0  0  0  0  0  0  0  0  0  0  0  0
   60.1610   32.4160   50.2790 C   0  0  0  0  0  0  0  0  0  0  0  0
   60.6470   33.3590   51.1920 C   0  0  0  0  0  0  0  0  0  0  0  0
   59.8400   33.8180   52.2350 C   0  0  0  0  0  0  0  0  0  0  0  0
   58.5430   33.3230   52.3900 C   0  0  0  0  0  0  0  0  0  0  0  0
   58.0430   32.3580   51.4950 C   0  0  0  0  0  0  0  0  0  0  0  0
   56.7030   31.8460   51.6130 N   0  0  0  0  0  0  0  0  0  0  0  0
   56.3890   30.4840   51.9560 C   0  0  0  0  0  0  0  0  0  0  0  0
   57.2840   29.5950   51.8780 O   0  0  0  0  0  0  0  0  0  0  0  0
   55.0070   30.0940   52.3320 C   0  0  0  0  0  0  0  0  0  0  0  0
   54.7670   29.1350   53.3400 C   0  0  0  0  0  0  0  0  0  0  0  0
   53.4560   28.7810   53.6850 C   0  0  0  0  0  0  0  0  0  0  0  0
   52.3730   29.3800   53.0350 C   0  0  0  0  0  0  0  0  0  0  0  0
   52.5980   30.3320   52.0330 C   0  0  0  0  0  0  0  0  0  0  0  0
   53.9060   30.6870   51.6800 C   0  0  0  0  0  0  0  0  0  0  0  0
   58.8440   31.9400   50.4200 C   0  0  0  0  0  0  0  0  0  0  0  0
   58.0570   28.0330   46.5530 C   0  0  0  0  0  0  0  0  0  0  0  0
   57.2695   26.1986   43.7727 H   0  0  0  0  0  0  0  0  0  0  0  0
   59.2207   27.4605   42.8813 H   0  0  0  0  0  0  0  0  0  0  0  0
   60.4527   29.0631   44.3373 H   0  0  0  0  0  0  0  0  0  0  0  0
   60.3079   29.1702   47.8136 H   0  0  0  0  0  0  0  0  0  0  0  0
   60.7088   30.1751   46.3677 H   0  0  0  0  0  0  0  0  0  0  0  0
   56.9623   31.6157   45.8516 H   0  0  0  0  0  0  0  0  0  0  0  0
   56.7760   33.8937   44.8614 H   0  0  0  0  0  0  0  0  0  0  0  0
   58.5611   35.5856   45.2632 H   0  0  0  0  0  0  0  0  0  0  0  0
   60.5503   34.9984   46.6419 H   0  0  0  0  0  0  0  0  0  0  0  0
   61.6730   33.7416   51.0870 H   0  0  0  0  0  0  0  0  0  0  0  0
   60.2268   34.5717   52.9367 H   0  0  0  0  0  0  0  0  0  0  0  0
   57.9110   33.6879   53.2130 H   0  0  0  0  0  0  0  0  0  0  0  0
   55.9230   32.4590   51.2830 H   0  0  0  0  0  0  0  0  0  0  0  0
   55.6148   28.6627   53.8579 H   0  0  0  0  0  0  0  0  0  0  0  0
   53.2785   28.0301   54.4690 H   0  0  0  0  0  0  0  0  0  0  0  0
   51.3445   29.1036   53.3105 H   0  0  0  0  0  0  0  0  0  0  0  0
   51.7451   30.8023   51.5218 H   0  0  0  0  0  0  0  0  0  0  0  0
   54.0756   31.4328   50.8894 H   0  0  0  0  0  0  0  0  0  0  0  0
   58.4382   31.2336   49.6809 H   0  0  0  0  0  0  0  0  0  0  0  0
   57.7147   28.2129   47.5828 H   0  0  0  0  0  0  0  0  0  0  0  0
  1  2  2  0
  2  3  1  0
  2  4  1  0
  4  5  2  0
  5  6  1  0
  6  7  2  0
  7  8  1  0
  8  9  1  0
  9 10  1  0
 10 11  1  0
 11 12  2  0
 12 13  1  0
 13 14  2  0
 14 15  1  0
 15 16  2  0
 16 17  1  0
 17 18  2  0
 17 19  1  0
 19 20  1  0
 20 21  2  0
 21 22  1  0
 22 23  2  0
 23 24  1  0
 24 25  1  0
 25 26  1  0
 26 27  2  0
 26 28  1  0
 28 29  2  0
 29 30  1  0
 30 31  2  0
 31 32  1  0
 32 33  2  0
 24 34  2  0
  8 35  2  0
 35  4  1  0
 16 11  1  0
 34 20  1  0
 33 28  1  0
  5 36  1  0
  6 37  1  0
  7 38  1  0
  9 39  1  0
  9 40  1  0
 12 41  1  0
 13 42  1  0
 14 43  1  0
 15 44  1  0
 21 45  1  0
 22 46  1  0
 23 47  1  0
 25 48  1  0
 29 49  1  0
 30 50  1  0
 31 51  1  0
 32 52  1  0
 33 53  1  0
 34 54  1  0
 35 55  1  0
M  CHG  2   3  -1  19  -1
M  END
>  <UniqueID>  (26) 
26

>  <SMILES>  (26) 
O=C([O-])c1cccc(COc2ccccc2C(=O)[N-]c2cccc(NC(=O)c3ccccc3)c2)c1

>  <Energy>  (26) 
70.83851657249816

>  <Genealogy>  (26) 
O=C([O-])c1cccc(COc2ccccc2C(=O)[N-]c2cccc(NC(=O)c3ccccc3)c2)c1 (protonated)
O=C([O-])c1cccc(COc2ccccc2C(=O)[N-]c2cccc(NC(=O)c3ccccc3)c2)c1 (3D coordinates assigned)
O=C([O-])c1cccc(COc2ccccc2C(=O)[N-]c2cccc(NC(=O)c3ccccc3)c2)c1 (optimized conformer: 70.83851657249816 kcal/mol)

>  <smiles>  (26) 
O=C(O)c1cccc(COc2ccccc2C(=O)Nc2cccc(NC(=O)c3ccccc3)c2)c1

>  <score_type>  (26) 
oracle

>  <origin>  (26) 
adg

>  <m_score__min__energy>  (26) 
-13.800000000000001

>  <m_primary>  (26) 
energy

$$$$
26:0
     RDKit          3D

 40 42  0  0  0  0  0  0  0  0999 V2000
   56.6230   31.6390   44.6840 O   0  0  0  0  0  0  0  0  0  0  0  0
   57.8700   31.4720   44.7670 C   0  0  0  0  0  0  0  0  0  0  0  0
   58.4740   30.3000   44.1990 N   0  0  0  0  0  0  0  0  0  0  0  0
   57.6870   29.1440   43.7760 C   0  0  0  0  0  0  0  0  0  0  0  0
   56.9350   28.5470   44.9370 C   0  0  0  0  0  0  0  0  0  0  0  0
   55.7750   28.9740   45.1850 O   0  0  0  0  0  0  0  0  0  0  0  0
   57.5000   27.4980   45.7550 N   0  0  0  0  0  0  0  0  0  0  0  0
   57.0810   26.1310   45.5760 C   0  0  0  0  0  0  0  0  0  0  0  0
   58.0300   25.1450   45.2520 C   0  0  0  0  0  0  0  0  0  0  0  0
   57.6390   23.8140   45.0820 C   0  0  0  0  0  0  0  0  0  0  0  0
   58.8310   22.5960   44.6690 Cl  0  0  0  0  0  0  0  0  0  0  0  0
   56.2970   23.4540   45.2410 C   0  0  0  0  0  0  0  0  0  0  0  0
   55.3480   24.4230   45.5760 C   0  0  0  0  0  0  0  0  0  0  0  0
   55.7340   25.7560   45.7500 C   0  0  0  0  0  0  0  0  0  0  0  0
   54.7790   26.6970   46.1160 O   0  0  0  0  0  0  0  0  0  0  0  0
   58.5020   27.7860   46.7460 C   0  0  0  0  0  0  0  0  0  0  0  0
   59.4190   26.7920   47.1210 C   0  0  0  0  0  0  0  0  0  0  0  0
   60.3870   27.0570   48.0930 C   0  0  0  0  0  0  0  0  0  0  0  0
   60.4540   28.3200   48.6880 C   0  0  0  0  0  0  0  0  0  0  0  0
   59.5560   29.3210   48.3080 C   0  0  0  0  0  0  0  0  0  0  0  0
   58.5830   29.0600   47.3360 C   0  0  0  0  0  0  0  0  0  0  0  0
   57.7390   30.0500   46.9530 F   0  0  0  0  0  0  0  0  0  0  0  0
   58.6810   32.4870   45.4570 C   0  0  0  0  0  0  0  0  0  0  0  0
   58.3620   33.8230   45.6390 C   0  0  0  0  0  0  0  0  0  0  0  0
   59.4260   34.3730   46.3210 C   0  0  0  0  0  0  0  0  0  0  0  0
   60.3220   33.3430   46.5130 C   0  0  0  0  0  0  0  0  0  0  0  0
   62.0010   33.4860   47.4030 Br  0  0  0  0  0  0  0  0  0  0  0  0
   59.8550   32.2340   45.9890 O   0  0  0  0  0  0  0  0  0  0  0  0
   59.5100   30.2500   44.0910 H   0  0  0  0  0  0  0  0  0  0  0  0
   56.9676   29.4610   43.0066 H   0  0  0  0  0  0  0  0  0  0  0  0
   58.3718   28.3827   43.3741 H   0  0  0  0  0  0  0  0  0  0  0  0
   59.0874   25.4233   45.1315 H   0  0  0  0  0  0  0  0  0  0  0  0
   55.9885   22.4073   45.1022 H   0  0  0  0  0  0  0  0  0  0  0  0
   54.2936   24.1366   45.7034 H   0  0  0  0  0  0  0  0  0  0  0  0
   59.3754   25.8000   46.6476 H   0  0  0  0  0  0  0  0  0  0  0  0
   61.0969   26.2711   48.3902 H   0  0  0  0  0  0  0  0  0  0  0  0
   61.2141   28.5262   49.4559 H   0  0  0  0  0  0  0  0  0  0  0  0
   59.6138   30.3159   48.7736 H   0  0  0  0  0  0  0  0  0  0  0  0
   57.4484   34.3382   45.3077 H   0  0  0  0  0  0  0  0  0  0  0  0
   59.5373   35.4182   46.6452 H   0  0  0  0  0  0  0  0  0  0  0  0
  1  2  2  0
  2  3  1  0
  3  4  1  0
  4  5  1  0
  5  6  2  0
  5  7  1  0
  7  8  1  0
  8  9  2  0
  9 10  1  0
 10 11  1  0
 10 12  2  0
 12 13  1  0
 13 14  2  0
 14 15  1  0
  7 16  1  0
 16 17  2  0
 17 18  1  0
 18 19  2  0
 19 20  1  0
 20 21  2  0
 21 22  1  0
  2 23  1  0
 23 24  2  0
 24 25  1  0
 25 26  2  0
 26 27  1  0
 26 28  1  0
 14  8  1  0
 21 16  1  0
 28 23  1  0
  3 29  1  0
  4 30  1  0
  4 31  1  0
  9 32  1  0
 12 33  1  0
 13 34  1  0
 17 35  1  0
 18 36  1  0
 19 37  1  0
 20 38  1  0
 24 39  1  0
 25 40  1  0
M  CHG  1  15  -1
M  END
>  <UniqueID>  (27) 
27

>  <SMILES>  (27) 
O=C(NCC(=O)N(c1cc(Cl)ccc1[O-])c1ccccc1F)c1ccc(Br)o1

>  <Energy>  (27) 
75.84160995767564

>  <Genealogy>  (27) 
O=C(NCC(=O)N(c1cc(Cl)ccc1[O-])c1ccccc1F)c1ccc(Br)o1 (protonated)
O=C(NCC(=O)N(c1cc(Cl)ccc1[O-])c1ccccc1F)c1ccc(Br)o1 (3D coordinates assigned)
O=C(NCC(=O)N(c1cc(Cl)ccc1[O-])c1ccccc1F)c1ccc(Br)o1 (optimized conformer: 75.84160995767564 kcal/mol)

>  <smiles>  (27) 
O=C(NCC(=O)N(c1cc(Cl)ccc1O)c1ccccc1F)c1ccc(Br)o1

>  <score_type>  (27) 
oracle

>  <origin>  (27) 
adg

>  <m_score__min__energy>  (27) 
-13.42

>  <m_primary>  (27) 
energy

$$$$
27:0
     RDKit          3D

 49 52  0  0  0  0  0  0  0  0999 V2000
   65.0780   33.1770   47.9240 H   0  0  0  0  0  0  0  0  0  0  0  0
   64.5360   33.3900   48.7520 O   0  0  0  0  0  0  0  0  0  0  0  0
   63.1430   33.4390   48.7200 C   0  0  0  0  0  0  0  0  0  0  0  0
   62.4130   33.5870   49.9060 C   0  0  0  0  0  0  0  0  0  0  0  0
   62.9454   33.6776   50.8643 H   0  0  0  0  0  0  0  0  0  0  0  0
   61.0120   33.6210   49.8860 C   0  0  0  0  0  0  0  0  0  0  0  0
   60.2990   33.7690   51.1220 N   0  0  0  0  0  0  0  0  0  0  0  0
   60.6670   34.4580   51.8150 H   0  0  0  0  0  0  0  0  0  0  0  0
   59.4120   32.7250   51.6360 C   0  0  0  0  0  0  0  0  0  0  0  0
   59.6185   32.5645   52.7045 H   0  0  0  0  0  0  0  0  0  0  0  0
   58.3666   33.0400   51.5024 H   0  0  0  0  0  0  0  0  0  0  0  0
   59.6420   31.4430   50.8860 C   0  0  0  0  0  0  0  0  0  0  0  0
   58.6890   30.9880   49.9590 C   0  0  0  0  0  0  0  0  0  0  0  0
   57.7626   31.5597   49.8007 H   0  0  0  0  0  0  0  0  0  0  0  0
   58.9130   29.8120   49.2370 C   0  0  0  0  0  0  0  0  0  0  0  0
   58.1617   29.4588   48.5154 H   0  0  0  0  0  0  0  0  0  0  0  0
   60.0900   29.0850   49.4310 C   0  0  0  0  0  0  0  0  0  0  0  0
   60.2630   28.1578   48.8649 H   0  0  0  0  0  0  0  0  0  0  0  0
   61.0480   29.5350   50.3440 C   0  0  0  0  0  0  0  0  0  0  0  0
   61.9758   28.9633   50.4937 H   0  0  0  0  0  0  0  0  0  0  0  0
   60.8280   30.7110   51.0670 C   0  0  0  0  0  0  0  0  0  0  0  0
   61.5865   31.0650   51.7807 H   0  0  0  0  0  0  0  0  0  0  0  0
   60.3360   33.5480   48.6510 C   0  0  0  0  0  0  0  0  0  0  0  0
   58.9810   33.6560   48.6010 N   0  0  0  0  0  0  0  0  0  0  0  0
   58.2910   33.5900   47.4330 C   0  0  0  0  0  0  0  0  0  0  0  0
   57.1957   33.6911   47.4377 H   0  0  0  0  0  0  0  0  0  0  0  0
   58.9670   33.3940   46.2240 C   0  0  0  0  0  0  0  0  0  0  0  0
   58.1950   33.3380   44.9620 C   0  0  0  0  0  0  0  0  0  0  0  0
   57.6748   34.2542   44.6460 H   0  0  0  0  0  0  0  0  0  0  0  0
   58.0790   32.2580   44.1720 C   0  0  0  0  0  0  0  0  0  0  0  0
   58.3461   32.3763   43.1115 H   0  0  0  0  0  0  0  0  0  0  0  0
   57.6210   30.9220   44.6130 C   0  0  0  0  0  0  0  0  0  0  0  0
   58.4680   30.1370   45.4080 C   0  0  0  0  0  0  0  0  0  0  0  0
   59.4541   30.5246   45.7037 H   0  0  0  0  0  0  0  0  0  0  0  0
   58.0680   28.8660   45.8270 C   0  0  0  0  0  0  0  0  0  0  0  0
   58.7358   28.2650   46.4617 H   0  0  0  0  0  0  0  0  0  0  0  0
   56.8170   28.3490   45.4430 C   0  0  0  0  0  0  0  0  0  0  0  0
   56.3880   27.0050   45.8890 C   0  0  0  0  0  0  0  0  0  0  0  0
   55.1640   26.7240   45.9940 O   0  0  0  0  0  0  0  0  0  0  0  0
   57.3310   26.0310   46.1960 O   0  0  0  0  0  0  0  0  0  0  0  0
   55.9840   29.1240   44.6210 C   0  0  0  0  0  0  0  0  0  0  0  0
   55.0073   28.7282   44.3056 H   0  0  0  0  0  0  0  0  0  0  0  0
   56.3860   30.3950   44.2000 C   0  0  0  0  0  0  0  0  0  0  0  0
   55.7318   30.9856   43.5418 H   0  0  0  0  0  0  0  0  0  0  0  0
   60.3700   33.3310   46.2360 C   0  0  0  0  0  0  0  0  0  0  0  0
   60.9225   33.2273   45.2905 H   0  0  0  0  0  0  0  0  0  0  0  0
   61.0690   33.4000   47.4510 C   0  0  0  0  0  0  0  0  0  0  0  0
   62.4750   33.3400   47.4940 C   0  0  0  0  0  0  0  0  0  0  0  0
   63.2160   33.1870   46.3250 O   0  0  0  0  0  0  0  0  0  0  0  0
  1  2  1  0
  2  3  1  0
  3  4  2  0
  4  5  1  0
  4  6  1  0
  6  7  1  0
  7  8  1  0
  7  9  1  0
  9 10  1  0
  9 11  1  0
  9 12  1  0
 12 13  2  0
 13 14  1  0
 13 15  1  0
 15 16  1  0
 15 17  2  0
 17 18  1  0
 17 19  1  0
 19 20  1  0
 19 21  2  0
 21 22  1  0
  6 23  2  0
 23 24  1  0
 24 25  2  0
 25 26  1  0
 25 27  1  0
 27 28  1  0
 28 29  1  0
 28 30  2  0
 30 31  1  0
 30 32  1  0
 32 33  2  0
 33 34  1  0
 33 35  1  0
 35 36  1  0
 35 37  2  0
 37 38  1  0
 38 39  2  0
 38 40  1  0
 37 41  1  0
 41 42  1  0
 41 43  2  0
 43 44  1  0
 27 45  2  0
 45 46  1  0
 45 47  1  0
 47 48  2  0
 48 49  1  0
 48  3  1  0
 21 12  1  0
 47 23  1  0
 43 32  1  0
M  CHG  2  40  -1  49  -1
M  END
>  <UniqueID>  (28) 
28

>  <SMILES>  (28) 
O=C([O-])c1ccc(/C=C\c2cnc3c(NCc4ccccc4)cc(O)c([O-])c3c2)cc1

>  <Energy>  (28) 
70.77841185609687

>  <Genealogy>  (28) 
O=C([O-])c1ccc(C=Cc2cnc3c(NCc4ccccc4)cc(O)c([O-])c3c2)cc1 (protonated)
O=C([O-])c1ccc(/C=C\c2cnc3c(NCc4ccccc4)cc(O)c([O-])c3c2)cc1 (cis-trans isomerization)
O=C([O-])c1ccc(/C=C\c2cnc3c(NCc4ccccc4)cc(O)c([O-])c3c2)cc1 (3D coordinates assigned)
O=C([O-])c1ccc(/C=C\c2cnc3c(NCc4ccccc4)cc(O)c([O-])c3c2)cc1 (optimized conformer: 70.77841185609687 kcal/mol)

>  <smiles>  (28) 
O=C(O)c1ccc(C=Cc2cnc3c(NCc4ccccc4)cc(O)c(O)c3c2)cc1

>  <score_type>  (28) 
oracle

>  <origin>  (28) 
adg

>  <m_score__min__energy>  (28) 
-13.109999999999999

>  <m_primary>  (28) 
energy

$$$$
28:0
     RDKit          3D

 67 70  0  0  0  0  0  0  0  0999 V2000
   64.8310   30.2920   52.0870 C   0  0  0  0  0  0  0  0  0  0  0  0
   63.5010   30.3780   51.3940 C   0  0  0  0  0  0  0  0  0  0  0  0
   63.4850   30.7000   50.2140 O   0  0  0  0  0  0  0  0  0  0  0  0
   62.2620   30.1000   52.1060 N   0  0  0  0  0  0  0  0  0  0  0  0
   61.2170   31.1030   51.8580 C   0  0  0  0  0  0  0  0  0  0  0  0
   60.6510   31.0680   50.4280 C   0  0  0  0  0  0  0  0  0  0  0  0
   60.6040   29.7300   49.7970 N   0  0  0  0  0  0  0  0  0  0  0  0
   60.0260   29.6020   48.4580 C   0  0  0  0  0  0  0  0  0  0  0  0
   58.7150   29.1040   48.2650 C   0  0  0  0  0  0  0  0  0  0  0  0
   58.1690   28.9810   46.9850 C   0  0  0  0  0  0  0  0  0  0  0  0
   58.9020   29.3530   45.8580 C   0  0  0  0  0  0  0  0  0  0  0  0
   58.3070   29.2070   44.5970 O   0  0  0  0  0  0  0  0  0  0  0  0
   57.9330   30.2920   43.7500 C   0  0  0  0  0  0  0  0  0  0  0  0
   57.3670   31.4390   44.5880 C   0  0  0  0  0  0  0  0  0  0  0  0
   57.8030   32.8110   44.0460 C   0  0  0  0  0  0  0  0  0  0  0  0
   57.6760   33.8680   45.0780 N   0  0  0  0  0  0  0  0  0  0  0  0
   58.6710   34.9650   44.9140 C   0  0  0  0  0  0  0  0  0  0  0  0
   59.8070   34.9560   45.9620 C   0  0  0  0  0  0  0  0  0  0  0  0
   60.1910   33.5190   46.3420 C   0  0  0  0  0  0  0  0  0  0  0  0
   61.3780   33.4890   47.2890 C   0  0  0  0  0  0  0  0  0  0  0  0
   62.6570   33.1130   46.8370 C   0  0  0  0  0  0  0  0  0  0  0  0
   63.7430   33.0980   47.7170 C   0  0  0  0  0  0  0  0  0  0  0  0
   63.5680   33.4580   49.0550 C   0  0  0  0  0  0  0  0  0  0  0  0
   64.9410   33.4380   50.1500 Cl  0  0  0  0  0  0  0  0  0  0  0  0
   62.3020   33.8360   49.5160 C   0  0  0  0  0  0  0  0  0  0  0  0
   62.1200   34.1900   50.8130 F   0  0  0  0  0  0  0  0  0  0  0  0
   61.2130   33.8530   48.6380 C   0  0  0  0  0  0  0  0  0  0  0  0
   58.9780   32.7550   46.9250 C   0  0  0  0  0  0  0  0  0  0  0  0
   57.6300   33.3420   46.4610 C   0  0  0  0  0  0  0  0  0  0  0  0
   60.2000   29.8580   46.0260 C   0  0  0  0  0  0  0  0  0  0  0  0
   60.7530   29.9810   47.3030 C   0  0  0  0  0  0  0  0  0  0  0  0
   61.2540   28.5500   50.4060 C   0  0  0  0  0  0  0  0  0  0  0  0
   61.7410   28.7510   51.8470 C   0  0  0  0  0  0  0  0  0  0  0  0
   64.6782   30.3019   53.1763 H   0  0  0  0  0  0  0  0  0  0  0  0
   65.3364   29.3593   51.7961 H   0  0  0  0  0  0  0  0  0  0  0  0
   65.4523   31.1518   51.7961 H   0  0  0  0  0  0  0  0  0  0  0  0
   62.4610   30.1400   53.1340 H   0  0  0  0  0  0  0  0  0  0  0  0
   60.3911   30.9251   52.5625 H   0  0  0  0  0  0  0  0  0  0  0  0
   61.6814   32.0907   51.9951 H   0  0  0  0  0  0  0  0  0  0  0  0
   59.6256   31.4649   50.4590 H   0  0  0  0  0  0  0  0  0  0  0  0
   61.3389   31.6686   49.8147 H   0  0  0  0  0  0  0  0  0  0  0  0
   58.1154   28.8086   49.1386 H   0  0  0  0  0  0  0  0  0  0  0  0
   57.1494   28.5863   46.8645 H   0  0  0  0  0  0  0  0  0  0  0  0
   58.8170   30.6453   43.1989 H   0  0  0  0  0  0  0  0  0  0  0  0
   57.1643   29.9488   43.0419 H   0  0  0  0  0  0  0  0  0  0  0  0
   56.2685   31.3828   44.5729 H   0  0  0  0  0  0  0  0  0  0  0  0
   57.7538   31.3373   45.6127 H   0  0  0  0  0  0  0  0  0  0  0  0
   58.8529   32.7507   43.7234 H   0  0  0  0  0  0  0  0  0  0  0  0
   57.1484   33.0725   43.2016 H   0  0  0  0  0  0  0  0  0  0  0  0
   59.1230   34.8735   43.9153 H   0  0  0  0  0  0  0  0  0  0  0  0
   58.1238   35.9093   45.0511 H   0  0  0  0  0  0  0  0  0  0  0  0
   60.6875   35.4652   45.5430 H   0  0  0  0  0  0  0  0  0  0  0  0
   59.4557   35.4763   46.8653 H   0  0  0  0  0  0  0  0  0  0  0  0
   60.4997   33.0021   45.4214 H   0  0  0  0  0  0  0  0  0  0  0  0
   62.8028   32.8291   45.7843 H   0  0  0  0  0  0  0  0  0  0  0  0
   64.7384   32.8018   47.3545 H   0  0  0  0  0  0  0  0  0  0  0  0
   60.2204   34.1532   49.0050 H   0  0  0  0  0  0  0  0  0  0  0  0
   59.0348   31.7048   46.6026 H   0  0  0  0  0  0  0  0  0  0  0  0
   59.0219   32.8456   48.0204 H   0  0  0  0  0  0  0  0  0  0  0  0
   56.8672   32.5510   46.5104 H   0  0  0  0  0  0  0  0  0  0  0  0
   57.3902   34.1843   47.1266 H   0  0  0  0  0  0  0  0  0  0  0  0
   60.7867   30.1594   45.1457 H   0  0  0  0  0  0  0  0  0  0  0  0
   61.7722   30.3797   47.4136 H   0  0  0  0  0  0  0  0  0  0  0  0
   60.5302   27.7217   50.4026 H   0  0  0  0  0  0  0  0  0  0  0  0
   62.1515   28.3474   49.8031 H   0  0  0  0  0  0  0  0  0  0  0  0
   60.8976   28.5666   52.5286 H   0  0  0  0  0  0  0  0  0  0  0  0
   62.5702   28.0468   52.0098 H   0  0  0  0  0  0  0  0  0  0  0  0
  1  2  1  0
  2  3  2  0
  2  4  1  0
  4  5  1  0
  5  6  1  0
  6  7  1  0
  7  8  1  0
  8  9  2  0
  9 10  1  0
 10 11  2  0
 11 12  1  0
 12 13  1  0
 13 14  1  0
 14 15  1  0
 15 16  1  0
 16 17  1  0
 17 18  1  0
 18 19  1  0
 19 20  1  0
 20 21  2  0
 21 22  1  0
 22 23  2  0
 23 24  1  0
 23 25  1  0
 25 26  1  0
 25 27  2  0
 19 28  1  0
 28 29  1  0
 11 30  1  0
 30 31  2  0
  7 32  1  0
 32 33  1  0
 33  4  1  0
 31  8  1  0
 29 16  1  0
 27 20  1  0
  1 34  1  0
  1 35  1  0
  1 36  1  0
  4 37  1  0
  5 38  1  0
  5 39  1  0
  6 40  1  0
  6 41  1  0
  9 42  1  0
 10 43  1  0
 13 44  1  0
 13 45  1  0
 14 46  1  0
 14 47  1  0
 15 48  1  0
 15 49  1  0
 17 50  1  0
 17 51  1  0
 18 52  1  0
 18 53  1  0
 19 54  1  0
 21 55  1  0
 22 56  1  0
 27 57  1  0
 28 58  1  0
 28 59  1  0
 29 60  1  0
 29 61  1  0
 30 62  1  0
 31 63  1  0
 32 64  1  0
 32 65  1  0
 33 66  1  0
 33 67  1  0
M  CHG  1   4   1
M  END
>  <UniqueID>  (29) 
29

>  <SMILES>  (29) 
CC(=O)[NH+]1CCN(c2ccc(OCCCN3CCC(c4ccc(Cl)c(F)c4)CC3)cc2)CC1

>  <Energy>  (29) 
88.379771496943

>  <Genealogy>  (29) 
CC(=O)[NH+]1CCN(c2ccc(OCCCN3CCC(c4ccc(Cl)c(F)c4)CC3)cc2)CC1 (protonated)
CC(=O)[NH+]1CCN(c2ccc(OCCCN3CCC(c4ccc(Cl)c(F)c4)CC3)cc2)CC1 (3D coordinates assigned)
CC(=O)[NH+]1CCN(c2ccc(OCCCN3CCC(c4ccc(Cl)c(F)c4)CC3)cc2)CC1 (nonaromatic ring conformer: 88.379771496943 kcal/mol)

>  <smiles>  (29) 
CC(=O)N1CCN(c2ccc(OCCCN3CCC(c4ccc(Cl)c(F)c4)CC3)cc2)CC1

>  <score_type>  (29) 
oracle

>  <origin>  (29) 
adg

>  <m_score__min__energy>  (29) 
-9.4499999999999993

>  <m_primary>  (29) 
energy

$$$$
29:0
     RDKit          3D

 36 38  0  0  0  0  0  0  0  0999 V2000
   55.8840   29.7970   44.7960 N   0  0  0  0  0  0  0  0  0  0  0  0
   56.3300   28.8300   45.2470 C   0  0  0  0  0  0  0  0  0  0  0  0
   56.8880   27.6260   45.8060 C   0  0  0  0  0  0  0  0  0  0  0  0
   58.2220   27.4880   46.1800 C   0  0  0  0  0  0  0  0  0  0  0  0
   59.2060   28.5350   46.1390 N   0  0  0  0  0  0  0  0  0  0  0  0
   59.4030   29.4870   47.1970 C   0  0  0  0  0  0  0  0  0  0  0  0
   60.2970   29.1890   48.2360 C   0  0  0  0  0  0  0  0  0  0  0  0
   60.4830   30.0890   49.2890 C   0  0  0  0  0  0  0  0  0  0  0  0
   59.7640   31.2900   49.3250 C   0  0  0  0  0  0  0  0  0  0  0  0
   59.9700   32.4190   50.6610 S   0  0  0  0  0  0  0  0  0  0  0  0
   60.3400   31.6470   51.8950 O   0  0  0  0  0  0  0  0  0  0  0  0
   58.6990   33.1780   50.9210 O   0  0  0  0  0  0  0  0  0  0  0  0
   61.2370   33.5430   50.2910 N   0  0  0  0  0  0  0  0  0  0  0  0
   62.0340   33.5270   49.0990 C   0  0  0  0  0  0  0  0  0  0  0  0
   63.4030   33.1960   49.1190 C   0  0  0  0  0  0  0  0  0  0  0  0
   64.1470   33.2050   47.9360 C   0  0  0  0  0  0  0  0  0  0  0  0
   63.5350   33.5380   46.7260 C   0  0  0  0  0  0  0  0  0  0  0  0
   62.1760   33.8610   46.6960 C   0  0  0  0  0  0  0  0  0  0  0  0
   61.4280   33.8560   47.8770 C   0  0  0  0  0  0  0  0  0  0  0  0
   60.1110   34.1800   47.8350 F   0  0  0  0  0  0  0  0  0  0  0  0
   58.8560   31.5830   48.3010 C   0  0  0  0  0  0  0  0  0  0  0  0
   58.6700   30.6850   47.2460 C   0  0  0  0  0  0  0  0  0  0  0  0
   58.4510   25.9440   46.8230 S   0  0  0  0  0  0  0  0  0  0  0  0
   56.8660   25.4270   46.6000 C   0  0  0  0  0  0  0  0  0  0  0  0
   56.1990   23.7040   47.0750 Br  0  0  0  0  0  0  0  0  0  0  0  0
   56.1360   26.4650   46.0360 C   0  0  0  0  0  0  0  0  0  0  0  0
   54.7820   26.3610   45.7370 O   0  0  0  0  0  0  0  0  0  0  0  0
   59.7510   28.6620   45.2570 H   0  0  0  0  0  0  0  0  0  0  0  0
   60.8551   28.2412   48.2219 H   0  0  0  0  0  0  0  0  0  0  0  0
   61.1966   29.8531   50.0922 H   0  0  0  0  0  0  0  0  0  0  0  0
   63.8884   32.9294   50.0694 H   0  0  0  0  0  0  0  0  0  0  0  0
   65.2166   32.9493   47.9582 H   0  0  0  0  0  0  0  0  0  0  0  0
   64.1228   33.5460   45.7963 H   0  0  0  0  0  0  0  0  0  0  0  0
   61.6939   34.1196   45.7417 H   0  0  0  0  0  0  0  0  0  0  0  0
   58.2864   32.5237   48.3265 H   0  0  0  0  0  0  0  0  0  0  0  0
   57.9466   30.9171   46.4505 H   0  0  0  0  0  0  0  0  0  0  0  0
  1  2  3  0
  2  3  1  0
  3  4  2  0
  4  5  1  0
  5  6  1  0
  6  7  2  0
  7  8  1  0
  8  9  2  0
  9 10  1  0
 10 11  2  0
 10 12  2  0
 10 13  1  0
 13 14  1  0
 14 15  2  0
 15 16  1  0
 16 17  2  0
 17 18  1  0
 18 19  2  0
 19 20  1  0
  9 21  1  0
 21 22  2  0
  4 23  1  0
 23 24  1  0
 24 25  1  0
 24 26  2  0
 26 27  1  0
 26  3  1  0
 22  6  1  0
 19 14  1  0
  5 28  1  0
  7 29  1  0
  8 30  1  0
 15 31  1  0
 16 32  1  0
 17 33  1  0
 18 34  1  0
 21 35  1  0
 22 36  1  0
M  CHG  2  13  -1  27  -1
M  END
>  <UniqueID>  (30) 
30

>  <SMILES>  (30) 
N#Cc1c(Nc2ccc(S(=O)(=O)[N-]c3ccccc3F)cc2)sc(Br)c1[O-]

>  <Energy>  (30) 
73.40003979794666

>  <Genealogy>  (30) 
N#Cc1c(Nc2ccc(S(=O)(=O)[N-]c3ccccc3F)cc2)sc(Br)c1[O-] (protonated)
N#Cc1c(Nc2ccc(S(=O)(=O)[N-]c3ccccc3F)cc2)sc(Br)c1[O-] (3D coordinates assigned)
N#Cc1c(Nc2ccc(S(=O)(=O)[N-]c3ccccc3F)cc2)sc(Br)c1[O-] (optimized conformer: 73.40003979794666 kcal/mol)

>  <smiles>  (30) 
N#Cc1c(Nc2ccc(S(=O)(=O)Nc3ccccc3F)cc2)sc(Br)c1O

>  <score_type>  (30) 
oracle

>  <origin>  (30) 
adg

>  <m_score__min__energy>  (30) 
-13.109999999999999

>  <m_primary>  (30) 
energy

$$$$
30:0
     RDKit          3D

 25 26  0  0  0  0  0  0  0  0999 V2000
   54.7770   27.1240   45.9460 H   0  0  0  0  0  0  0  0  0  0  0  0
   54.3870   26.1920   45.9060 O   0  0  0  0  0  0  0  0  0  0  0  0
   55.1460   25.0590   45.6040 C   0  0  0  0  0  0  0  0  0  0  0  0
   54.4630   23.8890   45.2470 C   0  0  0  0  0  0  0  0  0  0  0  0
   53.3634   23.8701   45.2711 H   0  0  0  0  0  0  0  0  0  0  0  0
   55.1670   22.7470   44.8610 C   0  0  0  0  0  0  0  0  0  0  0  0
   54.6218   21.8333   44.5819 H   0  0  0  0  0  0  0  0  0  0  0  0
   56.5620   22.7640   44.8290 C   0  0  0  0  0  0  0  0  0  0  0  0
   57.1153   21.8683   44.5104 H   0  0  0  0  0  0  0  0  0  0  0  0
   57.2560   23.9170   45.2010 C   0  0  0  0  0  0  0  0  0  0  0  0
   58.3555   23.9251   45.1691 H   0  0  0  0  0  0  0  0  0  0  0  0
   56.5630   25.0680   45.6160 C   0  0  0  0  0  0  0  0  0  0  0  0
   57.3480   26.2370   46.0800 C   0  0  0  0  0  0  0  0  0  0  0  0
   58.5770   26.0910   46.3150 O   0  0  0  0  0  0  0  0  0  0  0  0
   56.7720   27.5460   46.2240 N   0  0  0  0  0  0  0  0  0  0  0  0
   56.7440   28.5170   45.3550 C   0  0  0  0  0  0  0  0  0  0  0  0
   55.5320   28.9510   44.9110 N   0  0  0  0  0  0  0  0  0  0  0  0
   55.4040   29.9540   44.0020 C   0  0  0  0  0  0  0  0  0  0  0  0
   54.4042   30.2766   43.6759 H   0  0  0  0  0  0  0  0  0  0  0  0
   56.5410   30.5740   43.4830 C   0  0  0  0  0  0  0  0  0  0  0  0
   56.4448   31.3935   42.7555 H   0  0  0  0  0  0  0  0  0  0  0  0
   57.8000   30.1430   43.8970 C   0  0  0  0  0  0  0  0  0  0  0  0
   58.7048   30.6176   43.4894 H   0  0  0  0  0  0  0  0  0  0  0  0
   57.9140   29.1090   44.8290 C   0  0  0  0  0  0  0  0  0  0  0  0
   58.9059   28.7587   45.1506 H   0  0  0  0  0  0  0  0  0  0  0  0
  1  2  1  0
  2  3  1  0
  3  4  2  0
  4  5  1  0
  4  6  1  0
  6  7  1  0
  6  8  2  0
  8  9  1  0
  8 10  1  0
 10 11  1  0
 10 12  2  0
 12 13  1  0
 13 14  2  0
 13 15  1  0
 15 16  2  0
 16 17  1  0
 17 18  1  0
 18 19  1  0
 18 20  2  0
 20 21  1  0
 20 22  1  0
 22 23  1  0
 22 24  2  0
 24 25  1  0
 12  3  1  0
 24 16  1  0
M  CHG  1  17  -1
M  END
>  <UniqueID>  (31) 
31

>  <SMILES>  (31) 
O=C(/N=c1\cccc[n-]1)c1ccccc1O

>  <Energy>  (31) 
40.74440768137576

>  <Genealogy>  (31) 
O=C(N=c1cccc[n-]1)c1ccccc1O (protonated)
O=C(/N=c1\cccc[n-]1)c1ccccc1O (cis-trans isomerization)
O=C(/N=c1\cccc[n-]1)c1ccccc1O (3D coordinates assigned)
O=C(/N=c1\cccc[n-]1)c1ccccc1O (optimized conformer: 40.74440768137576 kcal/mol)

>  <smiles>  (31) 
O=C(N=c1cccc[nH]1)c1ccccc1O

>  <score_type>  (31) 
oracle

>  <origin>  (31) 
adg

>  <m_score__min__energy>  (31) 
-8.8499999999999996

>  <m_primary>  (31) 
energy

$$$$
31:0
     RDKit          3D

 66 70  0  0  0  0  0  0  0  0999 V2000
   63.7230   32.9070   46.7520 C   0  0  0  0  0  0  0  0  0  0  0  0
   63.0970   32.9250   48.1150 C   0  0  0  0  0  0  0  0  0  0  0  0
   62.7040   34.1580   48.6950 C   0  0  0  0  0  0  0  0  0  0  0  0
   62.1360   34.1970   49.9820 C   0  0  0  0  0  0  0  0  0  0  0  0
   61.9910   32.9920   50.6690 C   0  0  0  0  0  0  0  0  0  0  0  0
   61.4500   32.8120   51.8860 N   0  0  0  0  0  0  0  0  0  0  0  0
   61.4950   31.4820   52.1220 C   0  0  0  0  0  0  0  0  0  0  0  0
   62.0940   30.8150   51.0530 C   0  0  0  0  0  0  0  0  0  0  0  0
   62.2410   29.3280   50.8780 C   0  0  0  0  0  0  0  0  0  0  0  0
   60.8820   28.6170   50.8340 C   0  0  0  0  0  0  0  0  0  0  0  0
   60.2050   28.8920   49.5490 N   0  0  0  0  0  0  0  0  0  0  0  0
   59.3610   29.9690   49.4330 C   0  0  0  0  0  0  0  0  0  0  0  0
   59.1700   30.7440   50.4120 O   0  0  0  0  0  0  0  0  0  0  0  0
   58.7140   30.2190   48.2630 N   0  0  0  0  0  0  0  0  0  0  0  0
   58.8650   29.4040   47.1850 C   0  0  0  0  0  0  0  0  0  0  0  0
   58.1810   29.6740   45.9880 C   0  0  0  0  0  0  0  0  0  0  0  0
   58.3210   28.8200   44.8790 C   0  0  0  0  0  0  0  0  0  0  0  0
   57.6440   29.0380   43.6690 O   0  0  0  0  0  0  0  0  0  0  0  0
   56.8620   30.1940   43.3780 C   0  0  0  0  0  0  0  0  0  0  0  0
   57.7490   31.4390   43.3660 C   0  0  0  0  0  0  0  0  0  0  0  0
   57.4220   32.3820   44.5440 C   0  0  0  0  0  0  0  0  0  0  0  0
   58.5910   33.1390   45.0410 N   0  0  0  0  0  0  0  0  0  0  0  0
   59.1590   32.6250   46.3160 C   0  0  0  0  0  0  0  0  0  0  0  0
   59.0680   33.6430   47.4630 C   0  0  0  0  0  0  0  0  0  0  0  0
   59.7450   34.9770   47.0910 C   0  0  0  0  0  0  0  0  0  0  0  0
   59.6220   35.3190   45.5950 C   0  0  0  0  0  0  0  0  0  0  0  0
   58.4260   34.6070   44.9580 C   0  0  0  0  0  0  0  0  0  0  0  0
   59.1570   27.7020   44.9780 C   0  0  0  0  0  0  0  0  0  0  0  0
   59.8460   27.4300   46.1610 C   0  0  0  0  0  0  0  0  0  0  0  0
   59.7040   28.2780   47.2750 C   0  0  0  0  0  0  0  0  0  0  0  0
   60.3710   28.0370   48.4880 C   0  0  0  0  0  0  0  0  0  0  0  0
   61.1220   27.0260   48.5970 O   0  0  0  0  0  0  0  0  0  0  0  0
   62.3870   31.7980   50.1240 C   0  0  0  0  0  0  0  0  0  0  0  0
   62.9460   31.7250   48.8450 C   0  0  0  0  0  0  0  0  0  0  0  0
   64.8180   32.8755   46.8518 H   0  0  0  0  0  0  0  0  0  0  0  0
   63.3792   32.0184   46.2023 H   0  0  0  0  0  0  0  0  0  0  0  0
   63.4308   33.8139   46.2023 H   0  0  0  0  0  0  0  0  0  0  0  0
   62.8445   35.0933   48.1333 H   0  0  0  0  0  0  0  0  0  0  0  0
   61.8163   35.1484   50.4321 H   0  0  0  0  0  0  0  0  0  0  0  0
   61.0510   33.5450   52.5140 H   0  0  0  0  0  0  0  0  0  0  0  0
   61.1126   30.9935   53.0304 H   0  0  0  0  0  0  0  0  0  0  0  0
   62.7748   29.1323   49.9363 H   0  0  0  0  0  0  0  0  0  0  0  0
   62.8005   28.9381   51.7411 H   0  0  0  0  0  0  0  0  0  0  0  0
   61.0352   27.5329   50.9396 H   0  0  0  0  0  0  0  0  0  0  0  0
   60.2548   28.9888   51.6576 H   0  0  0  0  0  0  0  0  0  0  0  0
   58.0810   31.0510   48.2020 H   0  0  0  0  0  0  0  0  0  0  0  0
   57.5316   30.5591   45.9175 H   0  0  0  0  0  0  0  0  0  0  0  0
   56.3892   30.0746   42.3920 H   0  0  0  0  0  0  0  0  0  0  0  0
   56.0892   30.3100   44.1521 H   0  0  0  0  0  0  0  0  0  0  0  0
   58.8016   31.1280   43.4394 H   0  0  0  0  0  0  0  0  0  0  0  0
   57.5644   31.9836   42.4283 H   0  0  0  0  0  0  0  0  0  0  0  0
   56.6583   33.1007   44.2119 H   0  0  0  0  0  0  0  0  0  0  0  0
   57.0712   31.7506   45.3737 H   0  0  0  0  0  0  0  0  0  0  0  0
   58.6072   31.7187   46.6062 H   0  0  0  0  0  0  0  0  0  0  0  0
   60.2251   32.4166   46.1427 H   0  0  0  0  0  0  0  0  0  0  0  0
   58.0083   33.8314   47.6902 H   0  0  0  0  0  0  0  0  0  0  0  0
   59.5882   33.2246   48.3372 H   0  0  0  0  0  0  0  0  0  0  0  0
   59.2753   35.7827   47.6743 H   0  0  0  0  0  0  0  0  0  0  0  0
   60.8166   34.8759   47.3177 H   0  0  0  0  0  0  0  0  0  0  0  0
   59.4919   36.4058   45.4854 H   0  0  0  0  0  0  0  0  0  0  0  0
   60.5374   34.9832   45.0858 H   0  0  0  0  0  0  0  0  0  0  0  0
   57.5072   34.8983   45.4881 H   0  0  0  0  0  0  0  0  0  0  0  0
   58.3621   34.8980   43.8991 H   0  0  0  0  0  0  0  0  0  0  0  0
   59.2723   27.0305   44.1144 H   0  0  0  0  0  0  0  0  0  0  0  0
   60.5024   26.5495   46.2227 H   0  0  0  0  0  0  0  0  0  0  0  0
   63.2595   30.7605   48.4189 H   0  0  0  0  0  0  0  0  0  0  0  0
  1  2  1  0
  2  3  2  0
  3  4  1  0
  4  5  2  0
  5  6  1  0
  6  7  1  0
  7  8  2  0
  8  9  1  0
  9 10  1  0
 10 11  1  0
 11 12  1  0
 12 13  2  0
 12 14  1  0
 14 15  1  0
 15 16  2  0
 16 17  1  0
 17 18  1  0
 18 19  1  0
 19 20  1  0
 20 21  1  0
 21 22  1  0
 22 23  1  0
 23 24  1  0
 24 25  1  0
 25 26  1  0
 26 27  1  0
 17 28  2  0
 28 29  1  0
 29 30  2  0
 30 31  1  0
 31 32  2  0
  8 33  1  0
 33 34  2  0
 34  2  1  0
 33  5  1  0
 31 11  1  0
 30 15  1  0
 27 22  1  0
  1 35  1  0
  1 36  1  0
  1 37  1  0
  3 38  1  0
  4 39  1  0
  6 40  1  0
  7 41  1  0
  9 42  1  0
  9 43  1  0
 10 44  1  0
 10 45  1  0
 14 46  1  0
 16 47  1  0
 19 48  1  0
 19 49  1  0
 20 50  1  0
 20 51  1  0
 21 52  1  0
 21 53  1  0
 23 54  1  0
 23 55  1  0
 24 56  1  0
 24 57  1  0
 25 58  1  0
 25 59  1  0
 26 60  1  0
 26 61  1  0
 27 62  1  0
 27 63  1  0
 28 64  1  0
 29 65  1  0
 34 66  1  0
M  END
>  <UniqueID>  (32) 
32

>  <SMILES>  (32) 
Cc1ccc2[nH]cc(CCn3c(=O)[nH]c4cc(OCCCN5CCCCC5)ccc4c3=O)c2c1

>  <Energy>  (32) 
115.01596655616231

>  <Genealogy>  (32) 
Cc1ccc2[nH]cc(CCn3c(=O)[nH]c4cc(OCCCN5CCCCC5)ccc4c3=O)c2c1 (3D coordinates assigned)
Cc1ccc2[nH]cc(CCn3c(=O)[nH]c4cc(OCCCN5CCCCC5)ccc4c3=O)c2c1 (nonaromatic ring conformer: 115.01596655616231 kcal/mol)

>  <smiles>  (32) 
Cc1ccc2[nH]cc(CCn3c(=O)[nH]c4cc(OCCCN5CCCCC5)ccc4c3=O)c2c1

>  <score_type>  (32) 
oracle

>  <origin>  (32) 
adg

>  <m_score__min__energy>  (32) 
-9.6099999999999994

>  <m_primary>  (32) 
energy

$$$$
32:0
     RDKit          3D

 34 35  0  0  0  0  0  0  0  0999 V2000
   58.5240   33.8600   44.1350 C   0  0  0  0  0  0  0  0  0  0  0  0
   58.3910   32.8210   45.1540 N   0  0  0  0  0  0  0  0  0  0  0  0
   58.6460   32.9030   46.4760 C   0  0  0  0  0  0  0  0  0  0  0  0
   59.1630   34.1200   47.1860 C   0  0  0  0  0  0  0  0  0  0  0  0
   60.6250   33.9570   47.5070 C   0  0  0  0  0  0  0  0  0  0  0  0
   61.0660   33.9360   48.8400 C   0  0  0  0  0  0  0  0  0  0  0  0
   62.4220   33.7570   49.1310 C   0  0  0  0  0  0  0  0  0  0  0  0
   63.3490   33.5960   48.0970 C   0  0  0  0  0  0  0  0  0  0  0  0
   64.6960   33.4170   48.4010 O   0  0  0  0  0  0  0  0  0  0  0  0
   62.9150   33.6140   46.7650 C   0  0  0  0  0  0  0  0  0  0  0  0
   61.5590   33.7930   46.4710 C   0  0  0  0  0  0  0  0  0  0  0  0
   58.2690   31.7810   47.1190 N   0  0  0  0  0  0  0  0  0  0  0  0
   57.7600   30.9640   46.2080 N   0  0  0  0  0  0  0  0  0  0  0  0
   57.8250   31.6050   45.0270 C   0  0  0  0  0  0  0  0  0  0  0  0
   57.1850   30.9200   43.4950 S   0  0  0  0  0  0  0  0  0  0  0  0
   57.5370   29.1840   43.9480 C   0  0  0  0  0  0  0  0  0  0  0  0
   56.4990   28.6500   44.8950 C   0  0  0  0  0  0  0  0  0  0  0  0
   55.3490   29.1660   44.8780 O   0  0  0  0  0  0  0  0  0  0  0  0
   56.7620   27.5990   45.8360 N   0  0  0  0  0  0  0  0  0  0  0  0
   56.0370   26.3780   46.0270 C   0  0  0  0  0  0  0  0  0  0  0  0
   54.7810   26.3370   45.9830 O   0  0  0  0  0  0  0  0  0  0  0  0
   58.6492   34.8380   44.6227 H   0  0  0  0  0  0  0  0  0  0  0  0
   59.4023   33.6480   43.5076 H   0  0  0  0  0  0  0  0  0  0  0  0
   57.6206   33.8761   43.5076 H   0  0  0  0  0  0  0  0  0  0  0  0
   59.0293   35.0007   46.5406 H   0  0  0  0  0  0  0  0  0  0  0  0
   58.6035   34.2513   48.1240 H   0  0  0  0  0  0  0  0  0  0  0  0
   60.3419   34.0609   49.6586 H   0  0  0  0  0  0  0  0  0  0  0  0
   62.7606   33.7428   50.1775 H   0  0  0  0  0  0  0  0  0  0  0  0
   65.2810   32.7870   47.8640 H   0  0  0  0  0  0  0  0  0  0  0  0
   63.6417   33.4872   45.9490 H   0  0  0  0  0  0  0  0  0  0  0  0
   61.2228   33.8054   45.4237 H   0  0  0  0  0  0  0  0  0  0  0  0
   57.5417   28.5688   43.0362 H   0  0  0  0  0  0  0  0  0  0  0  0
   58.5170   29.1450   44.4461 H   0  0  0  0  0  0  0  0  0  0  0  0
   56.5953   25.4496   46.2176 H   0  0  0  0  0  0  0  0  0  0  0  0
  1  2  1  0
  2  3  1  0
  3  4  1  0
  4  5  1  0
  5  6  2  0
  6  7  1  0
  7  8  2  0
  8  9  1  0
  8 10  1  0
 10 11  2  0
  3 12  2  0
 12 13  1  0
 13 14  2  0
 14 15  1  0
 15 16  1  0
 16 17  1  0
 17 18  2  0
 17 19  1  0
 19 20  1  0
 20 21  2  0
 14  2  1  0
 11  5  1  0
  1 22  1  0
  1 23  1  0
  1 24  1  0
  4 25  1  0
  4 26  1  0
  6 27  1  0
  7 28  1  0
  9 29  1  0
 10 30  1  0
 11 31  1  0
 16 32  1  0
 16 33  1  0
 20 34  1  0
M  CHG  1  19  -1
M  END
>  <UniqueID>  (33) 
33

>  <SMILES>  (33) 
Cn1c(Cc2ccc(O)cc2)nnc1SCC(=O)[N-]C=O

>  <Energy>  (33) 
63.27320056185722

>  <Genealogy>  (33) 
Cn1c(Cc2ccc(O)cc2)nnc1SCC(=O)[N-]C=O (protonated)
Cn1c(Cc2ccc(O)cc2)nnc1SCC(=O)[N-]C=O (3D coordinates assigned)
Cn1c(Cc2ccc(O)cc2)nnc1SCC(=O)[N-]C=O (optimized conformer: 63.27320056185722 kcal/mol)

>  <smiles>  (33) 
Cn1c(Cc2ccc(O)cc2)nnc1SCC(=O)NC=O

>  <score_type>  (33) 
oracle

>  <origin>  (33) 
adg

>  <m_score__min__energy>  (33) 
-9.6699999999999999

>  <m_primary>  (33) 
energy

$$$$
33:0
     RDKit          3D

 67 71  0  0  0  0  0  0  0  0999 V2000
   62.9310   33.0570   46.9910 O   0  0  0  0  0  0  0  0  0  0  0  0
   62.0360   32.8110   47.8450 C   0  0  0  0  0  0  0  0  0  0  0  0
   61.4590   31.4520   47.9170 C   0  0  0  0  0  0  0  0  0  0  0  0
   61.0720   30.7850   46.7420 C   0  0  0  0  0  0  0  0  0  0  0  0
   60.5450   29.4910   46.8050 C   0  0  0  0  0  0  0  0  0  0  0  0
   60.4090   28.8400   48.0400 C   0  0  0  0  0  0  0  0  0  0  0  0
   59.8590   27.4320   48.1020 C   0  0  0  0  0  0  0  0  0  0  0  0
   59.6250   26.8720   46.7620 N   0  0  0  0  0  0  0  0  0  0  0  0
   58.2250   26.6880   46.4800 C   0  0  0  0  0  0  0  0  0  0  0  0
   57.2490   27.4300   45.8200 C   0  0  0  0  0  0  0  0  0  0  0  0
   57.2040   28.6720   45.0950 N   0  0  0  0  0  0  0  0  0  0  0  0
   58.4730   29.2150   44.5850 C   0  0  0  0  0  0  0  0  0  0  0  0
   58.3050   30.5720   43.8890 C   0  0  0  0  0  0  0  0  0  0  0  0
   57.0830   30.6410   43.1880 O   0  0  0  0  0  0  0  0  0  0  0  0
   56.0280   30.6450   44.1230 C   0  0  0  0  0  0  0  0  0  0  0  0
   55.9000   29.2790   44.8030 C   0  0  0  0  0  0  0  0  0  0  0  0
   56.3050   26.4780   46.1600 C   0  0  0  0  0  0  0  0  0  0  0  0
   55.0740   26.3300   45.9460 O   0  0  0  0  0  0  0  0  0  0  0  0
   57.2650   25.7610   46.8450 C   0  0  0  0  0  0  0  0  0  0  0  0
   57.2600   24.7010   47.5260 O   0  0  0  0  0  0  0  0  0  0  0  0
   60.8050   29.5000   49.2130 C   0  0  0  0  0  0  0  0  0  0  0  0
   61.3290   30.7940   49.1510 C   0  0  0  0  0  0  0  0  0  0  0  0
   61.6070   33.8560   48.7380 N   0  0  0  0  0  0  0  0  0  0  0  0
   60.1750   34.1470   48.9090 C   0  0  0  0  0  0  0  0  0  0  0  0
   59.4620   34.0480   47.5880 C   0  0  0  0  0  0  0  0  0  0  0  0
   59.8310   34.8770   46.5150 C   0  0  0  0  0  0  0  0  0  0  0  0
   59.1460   34.7930   45.2970 C   0  0  0  0  0  0  0  0  0  0  0  0
   58.0900   33.8890   45.1450 C   0  0  0  0  0  0  0  0  0  0  0  0
   57.7110   33.0710   46.2130 C   0  0  0  0  0  0  0  0  0  0  0  0
   58.3910   33.1530   47.4310 C   0  0  0  0  0  0  0  0  0  0  0  0
   62.6110   34.5940   49.5120 C   0  0  0  0  0  0  0  0  0  0  0  0
   63.5630   33.6240   50.1550 C   0  0  0  0  0  0  0  0  0  0  0  0
   63.1960   32.9360   51.3240 C   0  0  0  0  0  0  0  0  0  0  0  0
   64.0530   31.9810   51.8790 C   0  0  0  0  0  0  0  0  0  0  0  0
   65.2730   31.6950   51.2620 C   0  0  0  0  0  0  0  0  0  0  0  0
   65.6410   32.3650   50.0910 C   0  0  0  0  0  0  0  0  0  0  0  0
   64.7880   33.3260   49.5370 C   0  0  0  0  0  0  0  0  0  0  0  0
   61.1842   31.2833   45.7678 H   0  0  0  0  0  0  0  0  0  0  0  0
   60.2354   28.9809   45.8809 H   0  0  0  0  0  0  0  0  0  0  0  0
   60.5793   26.7925   48.6333 H   0  0  0  0  0  0  0  0  0  0  0  0
   58.8939   27.4672   48.6287 H   0  0  0  0  0  0  0  0  0  0  0  0
   60.0140   27.5300   46.0480 H   0  0  0  0  0  0  0  0  0  0  0  0
   60.1280   25.9610   46.6730 H   0  0  0  0  0  0  0  0  0  0  0  0
   59.1671   29.3373   45.4296 H   0  0  0  0  0  0  0  0  0  0  0  0
   58.8587   28.5061   43.8375 H   0  0  0  0  0  0  0  0  0  0  0  0
   58.3287   31.3688   44.6470 H   0  0  0  0  0  0  0  0  0  0  0  0
   59.1263   30.6962   43.1678 H   0  0  0  0  0  0  0  0  0  0  0  0
   56.2259   31.4112   44.8870 H   0  0  0  0  0  0  0  0  0  0  0  0
   55.0888   30.8655   43.5945 H   0  0  0  0  0  0  0  0  0  0  0  0
   55.3503   29.4052   45.7474 H   0  0  0  0  0  0  0  0  0  0  0  0
   55.3673   28.6099   44.1112 H   0  0  0  0  0  0  0  0  0  0  0  0
   60.7026   28.9967   50.1857 H   0  0  0  0  0  0  0  0  0  0  0  0
   61.6420   31.3010   50.0756 H   0  0  0  0  0  0  0  0  0  0  0  0
   59.7387   33.4224   49.6123 H   0  0  0  0  0  0  0  0  0  0  0  0
   60.0613   35.1681   49.3020 H   0  0  0  0  0  0  0  0  0  0  0  0
   60.6585   35.5922   46.6322 H   0  0  0  0  0  0  0  0  0  0  0  0
   59.4393   35.4400   44.4571 H   0  0  0  0  0  0  0  0  0  0  0  0
   57.5576   33.8217   44.1848 H   0  0  0  0  0  0  0  0  0  0  0  0
   56.8776   32.3628   46.0948 H   0  0  0  0  0  0  0  0  0  0  0  0
   58.0857   32.5128   48.2718 H   0  0  0  0  0  0  0  0  0  0  0  0
   63.1687   35.2655   48.8426 H   0  0  0  0  0  0  0  0  0  0  0  0
   62.1094   35.1859   50.2918 H   0  0  0  0  0  0  0  0  0  0  0  0
   62.2299   33.1498   51.8046 H   0  0  0  0  0  0  0  0  0  0  0  0
   63.7665   31.4549   52.8016 H   0  0  0  0  0  0  0  0  0  0  0  0
   65.9455   30.9415   51.6979 H   0  0  0  0  0  0  0  0  0  0  0  0
   66.6012   32.1365   49.6053 H   0  0  0  0  0  0  0  0  0  0  0  0
   65.0782   33.8497   48.6142 H   0  0  0  0  0  0  0  0  0  0  0  0
  1  2  2  0
  2  3  1  0
  3  4  2  0
  4  5  1  0
  5  6  2  0
  6  7  1  0
  7  8  1  0
  8  9  1  0
  9 10  2  0
 10 11  1  0
 11 12  1  0
 12 13  1  0
 13 14  1  0
 14 15  1  0
 15 16  1  0
 10 17  1  0
 17 18  2  0
 17 19  1  0
 19 20  2  0
  6 21  1  0
 21 22  2  0
  2 23  1  0
 23 24  1  0
 24 25  1  0
 25 26  2  0
 26 27  1  0
 27 28  2  0
 28 29  1  0
 29 30  2  0
 23 31  1  0
 31 32  1  0
 32 33  2  0
 33 34  1  0
 34 35  2  0
 35 36  1  0
 36 37  2  0
 22  3  1  0
 30 25  1  0
 37 32  1  0
 19  9  1  0
 16 11  1  0
  4 38  1  0
  5 39  1  0
  7 40  1  0
  7 41  1  0
  8 42  1  0
  8 43  1  0
 12 44  1  0
 12 45  1  0
 13 46  1  0
 13 47  1  0
 15 48  1  0
 15 49  1  0
 16 50  1  0
 16 51  1  0
 21 52  1  0
 22 53  1  0
 24 54  1  0
 24 55  1  0
 26 56  1  0
 27 57  1  0
 28 58  1  0
 29 59  1  0
 30 60  1  0
 31 61  1  0
 31 62  1  0
 33 63  1  0
 34 64  1  0
 35 65  1  0
 36 66  1  0
 37 67  1  0
M  CHG  1   8   1
M  END
>  <UniqueID>  (34) 
34

>  <SMILES>  (34) 
O=C(c1ccc(C[NH2+]c2c(N3CCOCC3)c(=O)c2=O)cc1)N(Cc1ccccc1)Cc1ccccc1

>  <Energy>  (34) 
65.42640024081896

>  <Genealogy>  (34) 
O=C(c1ccc(C[NH2+]c2c(N3CCOCC3)c(=O)c2=O)cc1)N(Cc1ccccc1)Cc1ccccc1 (protonated)
O=C(c1ccc(C[NH2+]c2c(N3CCOCC3)c(=O)c2=O)cc1)N(Cc1ccccc1)Cc1ccccc1 (3D coordinates assigned)
O=C(c1ccc(C[NH2+]c2c(N3CCOCC3)c(=O)c2=O)cc1)N(Cc1ccccc1)Cc1ccccc1 (nonaromatic ring conformer: 65.42640024081896 kcal/mol)

>  <smiles>  (34) 
O=C(c1ccc(CNc2c(N3CCOCC3)c(=O)c2=O)cc1)N(Cc1ccccc1)Cc1ccccc1

>  <score_type>  (34) 
oracle

>  <origin>  (34) 
adg

>  <m_score__min__energy>  (34) 
-9.3900000000000006

>  <m_primary>  (34) 
energy

$$$$
34:0
     RDKit          3D

 60 64  0  0  0  0  0  0  0  0999 V2000
   50.2950   32.9850   54.0350 C   0  0  0  0  0  0  0  0  0  0  0  0
   50.8340   31.6720   53.9670 O   0  0  0  0  0  0  0  0  0  0  0  0
   51.8600   31.2810   53.0890 C   0  0  0  0  0  0  0  0  0  0  0  0
   52.9860   30.5550   53.5270 C   0  0  0  0  0  0  0  0  0  0  0  0
   53.9700   30.1540   52.6120 C   0  0  0  0  0  0  0  0  0  0  0  0
   55.1370   29.3870   53.0850 C   0  0  0  0  0  0  0  0  0  0  0  0
   54.9470   28.1190   53.4370 O   0  0  0  0  0  0  0  0  0  0  0  0
   55.9120   27.3490   53.9230 C   0  0  0  0  0  0  0  0  0  0  0  0
   55.6280   26.0250   54.2770 C   0  0  0  0  0  0  0  0  0  0  0  0
   56.6310   25.2080   54.8020 C   0  0  0  0  0  0  0  0  0  0  0  0
   56.3440   23.8960   55.1560 O   0  0  0  0  0  0  0  0  0  0  0  0
   57.9240   25.7110   54.9750 C   0  0  0  0  0  0  0  0  0  0  0  0
   58.2190   27.0300   54.6220 C   0  0  0  0  0  0  0  0  0  0  0  0
   57.2170   27.8590   54.0920 C   0  0  0  0  0  0  0  0  0  0  0  0
   57.4670   29.1880   53.7100 C   0  0  0  0  0  0  0  0  0  0  0  0
   58.6220   29.6830   53.8220 O   0  0  0  0  0  0  0  0  0  0  0  0
   56.4270   29.9630   53.1790 C   0  0  0  0  0  0  0  0  0  0  0  0
   56.6950   31.3030   52.7260 N   0  0  0  0  0  0  0  0  0  0  0  0
   57.7200   31.6320   51.7730 C   0  0  0  0  0  0  0  0  0  0  0  0
   57.9780   30.7630   50.7050 C   0  0  0  0  0  0  0  0  0  0  0  0
   58.9770   31.0630   49.7730 C   0  0  0  0  0  0  0  0  0  0  0  0
   59.7120   32.2480   49.8770 C   0  0  0  0  0  0  0  0  0  0  0  0
   60.6670   32.5260   48.8880 O   0  0  0  0  0  0  0  0  0  0  0  0
   60.3790   32.6690   47.4940 C   0  0  0  0  0  0  0  0  0  0  0  0
   59.5110   33.8760   47.2660 C   0  0  0  0  0  0  0  0  0  0  0  0
   59.7340   34.9180   47.9380 O   0  0  0  0  0  0  0  0  0  0  0  0
   58.4930   33.9160   46.2550 N   0  0  0  0  0  0  0  0  0  0  0  0
   58.1550   32.8680   45.3390 C   0  0  0  0  0  0  0  0  0  0  0  0
   57.8070   31.5830   45.7870 C   0  0  0  0  0  0  0  0  0  0  0  0
   57.4880   30.5780   44.8660 C   0  0  0  0  0  0  0  0  0  0  0  0
   57.4860   30.8590   43.4970 C   0  0  0  0  0  0  0  0  0  0  0  0
   57.7880   32.1470   43.0480 C   0  0  0  0  0  0  0  0  0  0  0  0
   58.1100   33.1520   43.9670 C   0  0  0  0  0  0  0  0  0  0  0  0
   59.4780   33.1080   50.9690 C   0  0  0  0  0  0  0  0  0  0  0  0
   60.2460   34.2060   51.1770 F   0  0  0  0  0  0  0  0  0  0  0  0
   58.4740   32.8140   51.8910 C   0  0  0  0  0  0  0  0  0  0  0  0
   53.8410   30.5000   51.2580 C   0  0  0  0  0  0  0  0  0  0  0  0
   52.7380   31.2350   50.8240 C   0  0  0  0  0  0  0  0  0  0  0  0
   51.7510   31.6260   51.7350 C   0  0  0  0  0  0  0  0  0  0  0  0
   50.6530   32.3530   51.2870 O   0  0  0  0  0  0  0  0  0  0  0  0
   50.1748   33.2779   55.0884 H   0  0  0  0  0  0  0  0  0  0  0  0
   50.9773   33.6878   53.5346 H   0  0  0  0  0  0  0  0  0  0  0  0
   49.3156   33.0057   53.5346 H   0  0  0  0  0  0  0  0  0  0  0  0
   53.0934   30.3017   54.5920 H   0  0  0  0  0  0  0  0  0  0  0  0
   54.6116   25.6270   54.1412 H   0  0  0  0  0  0  0  0  0  0  0  0
   58.7119   25.0657   55.3906 H   0  0  0  0  0  0  0  0  0  0  0  0
   59.2383   27.4201   54.7595 H   0  0  0  0  0  0  0  0  0  0  0  0
   56.1250   32.0770   53.1320 H   0  0  0  0  0  0  0  0  0  0  0  0
   57.3912   29.8387   50.5986 H   0  0  0  0  0  0  0  0  0  0  0  0
   59.1860   30.3614   48.9520 H   0  0  0  0  0  0  0  0  0  0  0  0
   61.3209   32.7882   46.9384 H   0  0  0  0  0  0  0  0  0  0  0  0
   59.8476   31.7722   47.1426 H   0  0  0  0  0  0  0  0  0  0  0  0
   57.7850   31.3656   46.8651 H   0  0  0  0  0  0  0  0  0  0  0  0
   57.2388   29.5668   45.2200 H   0  0  0  0  0  0  0  0  0  0  0  0
   57.2467   30.0661   42.7731 H   0  0  0  0  0  0  0  0  0  0  0  0
   57.7727   32.3713   41.9712 H   0  0  0  0  0  0  0  0  0  0  0  0
   58.3288   34.1696   43.6111 H   0  0  0  0  0  0  0  0  0  0  0  0
   58.2700   33.5115   52.7168 H   0  0  0  0  0  0  0  0  0  0  0  0
   54.6120   30.1906   50.5370 H   0  0  0  0  0  0  0  0  0  0  0  0
   52.6439   31.5080   49.7626 H   0  0  0  0  0  0  0  0  0  0  0  0
  1  2  1  0
  2  3  1  0
  3  4  2  0
  4  5  1  0
  5  6  1  0
  6  7  1  0
  7  8  1  0
  8  9  2  0
  9 10  1  0
 10 11  1  0
 10 12  2  0
 12 13  1  0
 13 14  2  0
 14 15  1  0
 15 16  2  0
 15 17  1  0
 17 18  1  0
 18 19  1  0
 19 20  2  0
 20 21  1  0
 21 22  2  0
 22 23  1  0
 23 24  1  0
 24 25  1  0
 25 26  2  0
 25 27  1  0
 27 28  1  0
 28 29  2  0
 29 30  1  0
 30 31  2  0
 31 32  1  0
 32 33  2  0
 22 34  1  0
 34 35  1  0
 34 36  2  0
  5 37  2  0
 37 38  1  0
 38 39  2  0
 39 40  1  0
 39  3  1  0
 17  6  2  0
 36 19  1  0
 14  8  1  0
 33 28  1  0
  1 41  1  0
  1 42  1  0
  1 43  1  0
  4 44  1  0
  9 45  1  0
 12 46  1  0
 13 47  1  0
 18 48  1  0
 20 49  1  0
 21 50  1  0
 24 51  1  0
 24 52  1  0
 29 53  1  0
 30 54  1  0
 31 55  1  0
 32 56  1  0
 33 57  1  0
 36 58  1  0
 37 59  1  0
 38 60  1  0
M  CHG  3  11  -1  27  -1  40  -1
M  END
>  <UniqueID>  (35) 
35

>  <SMILES>  (35) 
COc1cc(-c2oc3cc([O-])ccc3c(=O)c2Nc2ccc(OCC(=O)[N-]c3ccccc3)c(F)c2)ccc1[O-]

>  <Energy>  (35) 
89.45120171441611

>  <Genealogy>  (35) 
COc1cc(-c2oc3cc([O-])ccc3c(=O)c2Nc2ccc(OCC(=O)[N-]c3ccccc3)c(F)c2)ccc1[O-] (protonated)
COc1cc(-c2oc3cc([O-])ccc3c(=O)c2Nc2ccc(OCC(=O)[N-]c3ccccc3)c(F)c2)ccc1[O-] (3D coordinates assigned)
COc1cc(-c2oc3cc([O-])ccc3c(=O)c2Nc2ccc(OCC(=O)[N-]c3ccccc3)c(F)c2)ccc1[O-] (optimized conformer: 89.45120171441611 kcal/mol)

>  <smiles>  (35) 
COc1cc(-c2oc3cc(O)ccc3c(=O)c2Nc2ccc(OCC(=O)Nc3ccccc3)c(F)c2)ccc1O

>  <score_type>  (35) 
oracle

>  <origin>  (35) 
adg

>  <m_score__min__energy>  (35) 
-14.5

>  <m_primary>  (35) 
energy

$$$$
35:0
     RDKit          3D

 56 59  0  0  0  0  0  0  0  0999 V2000
   56.5210   30.0440   52.8540 C   0  0  0  0  0  0  0  0  0  0  0  0
   57.3980   29.3870   51.9450 O   0  0  0  0  0  0  0  0  0  0  0  0
   58.1370   30.0380   50.9450 C   0  0  0  0  0  0  0  0  0  0  0  0
   58.0620   31.4340   50.8650 C   0  0  0  0  0  0  0  0  0  0  0  0
   58.7820   32.1290   49.8890 C   0  0  0  0  0  0  0  0  0  0  0  0
   59.6100   31.4420   48.9940 C   0  0  0  0  0  0  0  0  0  0  0  0
   60.3210   32.1770   48.0350 O   0  0  0  0  0  0  0  0  0  0  0  0
   59.7370   32.9380   47.0110 C   0  0  0  0  0  0  0  0  0  0  0  0
   59.6370   34.2930   47.1280 N   0  0  0  0  0  0  0  0  0  0  0  0
   59.0570   35.0620   46.1680 C   0  0  0  0  0  0  0  0  0  0  0  0
   58.5350   34.4680   45.0200 C   0  0  0  0  0  0  0  0  0  0  0  0
   58.6140   33.0840   44.8710 C   0  0  0  0  0  0  0  0  0  0  0  0
   59.2080   32.2980   45.8710 C   0  0  0  0  0  0  0  0  0  0  0  0
   59.3090   30.8060   45.6770 C   0  0  0  0  0  0  0  0  0  0  0  0
   57.9740   30.2030   45.6420 N   0  0  0  0  0  0  0  0  0  0  0  0
   57.7520   28.7880   45.7800 C   0  0  0  0  0  0  0  0  0  0  0  0
   58.8260   27.9690   46.1580 C   0  0  0  0  0  0  0  0  0  0  0  0
   58.6650   26.5750   46.2850 C   0  0  0  0  0  0  0  0  0  0  0  0
   59.7290   25.7280   46.6340 O   0  0  0  0  0  0  0  0  0  0  0  0
   61.1000   26.0050   46.3690 C   0  0  0  0  0  0  0  0  0  0  0  0
   57.4050   26.0030   46.0580 C   0  0  0  0  0  0  0  0  0  0  0  0
   57.2660   24.6110   46.1670 O   0  0  0  0  0  0  0  0  0  0  0  0
   57.1750   23.7200   45.0870 C   0  0  0  0  0  0  0  0  0  0  0  0
   56.2330   23.8960   44.0560 C   0  0  0  0  0  0  0  0  0  0  0  0
   56.1610   22.9770   43.0060 C   0  0  0  0  0  0  0  0  0  0  0  0
   57.0150   21.8710   42.9830 C   0  0  0  0  0  0  0  0  0  0  0  0
   57.9380   21.6800   44.0140 C   0  0  0  0  0  0  0  0  0  0  0  0
   58.0160   22.6000   45.0650 C   0  0  0  0  0  0  0  0  0  0  0  0
   56.3260   26.8220   45.6840 C   0  0  0  0  0  0  0  0  0  0  0  0
   56.4900   28.2030   45.5530 C   0  0  0  0  0  0  0  0  0  0  0  0
   55.3880   28.9810   45.2150 O   0  0  0  0  0  0  0  0  0  0  0  0
   59.6740   30.0390   49.0560 C   0  0  0  0  0  0  0  0  0  0  0  0
   58.9450   29.3420   50.0270 C   0  0  0  0  0  0  0  0  0  0  0  0
   56.8251   29.8162   53.8863 H   0  0  0  0  0  0  0  0  0  0  0  0
   56.5687   31.1305   52.6890 H   0  0  0  0  0  0  0  0  0  0  0  0
   55.4917   29.6929   52.6890 H   0  0  0  0  0  0  0  0  0  0  0  0
   57.4315   31.9881   51.5759 H   0  0  0  0  0  0  0  0  0  0  0  0
   58.6972   33.2238   49.8240 H   0  0  0  0  0  0  0  0  0  0  0  0
   58.9998   36.1529   46.2974 H   0  0  0  0  0  0  0  0  0  0  0  0
   58.0655   35.0849   44.2396 H   0  0  0  0  0  0  0  0  0  0  0  0
   58.2094   32.6062   43.9665 H   0  0  0  0  0  0  0  0  0  0  0  0
   59.8254   30.5982   44.7282 H   0  0  0  0  0  0  0  0  0  0  0  0
   59.8730   30.3747   46.5172 H   0  0  0  0  0  0  0  0  0  0  0  0
   57.1410   30.8350   45.6990 H   0  0  0  0  0  0  0  0  0  0  0  0
   59.8084   28.4216   46.3582 H   0  0  0  0  0  0  0  0  0  0  0  0
   61.6423   26.1146   47.3197 H   0  0  0  0  0  0  0  0  0  0  0  0
   61.5364   25.1769   45.7913 H   0  0  0  0  0  0  0  0  0  0  0  0
   61.1806   26.9376   45.7913 H   0  0  0  0  0  0  0  0  0  0  0  0
   55.5517   24.7594   44.0770 H   0  0  0  0  0  0  0  0  0  0  0  0
   55.4311   23.1242   42.1963 H   0  0  0  0  0  0  0  0  0  0  0  0
   56.9604   21.1510   42.1532 H   0  0  0  0  0  0  0  0  0  0  0  0
   58.6044   20.8050   43.9994 H   0  0  0  0  0  0  0  0  0  0  0  0
   58.7408   22.4432   45.8775 H   0  0  0  0  0  0  0  0  0  0  0  0
   55.3414   26.3706   45.4923 H   0  0  0  0  0  0  0  0  0  0  0  0
   60.2992   29.4868   48.3389 H   0  0  0  0  0  0  0  0  0  0  0  0
   59.0042   28.2445   50.0725 H   0  0  0  0  0  0  0  0  0  0  0  0
  1  2  1  0
  2  3  1  0
  3  4  2  0
  4  5  1  0
  5  6  2  0
  6  7  1  0
  7  8  1  0
  8  9  2  0
  9 10  1  0
 10 11  2  0
 11 12  1  0
 12 13  2  0
 13 14  1  0
 14 15  1  0
 15 16  1  0
 16 17  2  0
 17 18  1  0
 18 19  1  0
 19 20  1  0
 18 21  2  0
 21 22  1  0
 22 23  1  0
 23 24  2  0
 24 25  1  0
 25 26  2  0
 26 27  1  0
 27 28  2  0
 21 29  1  0
 29 30  2  0
 30 31  1  0
  6 32  1  0
 32 33  2  0
 33  3  1  0
 13  8  1  0
 30 16  1  0
 28 23  1  0
  1 34  1  0
  1 35  1  0
  1 36  1  0
  4 37  1  0
  5 38  1  0
 10 39  1  0
 11 40  1  0
 12 41  1  0
 14 42  1  0
 14 43  1  0
 15 44  1  0
 17 45  1  0
 20 46  1  0
 20 47  1  0
 20 48  1  0
 24 49  1  0
 25 50  1  0
 26 51  1  0
 27 52  1  0
 28 53  1  0
 29 54  1  0
 32 55  1  0
 33 56  1  0
M  CHG  1  31  -1
M  END
>  <UniqueID>  (36) 
36

>  <SMILES>  (36) 
COc1ccc(Oc2ncccc2CNc2cc(OC)c(Oc3ccccc3)cc2[O-])cc1

>  <Energy>  (36) 
75.29909063921166

>  <Genealogy>  (36) 
COc1ccc(Oc2ncccc2CNc2cc(OC)c(Oc3ccccc3)cc2[O-])cc1 (protonated)
COc1ccc(Oc2ncccc2CNc2cc(OC)c(Oc3ccccc3)cc2[O-])cc1 (3D coordinates assigned)
COc1ccc(Oc2ncccc2CNc2cc(OC)c(Oc3ccccc3)cc2[O-])cc1 (optimized conformer: 75.29909063921166 kcal/mol)

>  <smiles>  (36) 
COc1ccc(Oc2ncccc2CNc2cc(OC)c(Oc3ccccc3)cc2O)cc1

>  <score_type>  (36) 
oracle

>  <origin>  (36) 
adg

>  <m_score__min__energy>  (36) 
-10.890000000000001

>  <m_primary>  (36) 
energy

$$$$
36:0
     RDKit          3D

 34 35  0  0  0  0  0  0  0  0999 V2000
   57.2900   28.8990   43.3050 N   0  0  0  0  0  0  0  0  0  0  0  0
   56.7070   30.4970   43.6140 S   0  0  0  0  0  0  0  0  0  0  0  0
   56.6180   31.2590   42.3210 O   0  0  0  0  0  0  0  0  0  0  0  0
   55.3340   30.4200   44.2210 O   0  0  0  0  0  0  0  0  0  0  0  0
   57.8040   31.3230   44.7160 C   0  0  0  0  0  0  0  0  0  0  0  0
   58.0140   32.7040   44.6020 C   0  0  0  0  0  0  0  0  0  0  0  0
   58.8870   33.3540   45.4780 C   0  0  0  0  0  0  0  0  0  0  0  0
   59.5400   32.6340   46.4820 C   0  0  0  0  0  0  0  0  0  0  0  0
   59.3060   31.2570   46.6300 C   0  0  0  0  0  0  0  0  0  0  0  0
   59.9740   30.4850   47.6370 N   0  0  0  0  0  0  0  0  0  0  0  0
   59.3870   29.4700   48.4630 C   0  0  0  0  0  0  0  0  0  0  0  0
   58.4790   29.7950   49.2730 O   0  0  0  0  0  0  0  0  0  0  0  0
   59.8600   28.0480   48.4360 C   0  0  0  0  0  0  0  0  0  0  0  0
   60.3690   27.7420   47.1430 O   0  0  0  0  0  0  0  0  0  0  0  0
   59.5800   27.7850   45.9900 C   0  0  0  0  0  0  0  0  0  0  0  0
   60.0160   28.3290   44.9390 O   0  0  0  0  0  0  0  0  0  0  0  0
   58.2290   27.1990   46.0000 C   0  0  0  0  0  0  0  0  0  0  0  0
   58.0190   25.8670   46.3810 C   0  0  0  0  0  0  0  0  0  0  0  0
   56.7220   25.3550   46.3790 C   0  0  0  0  0  0  0  0  0  0  0  0
   55.6660   26.1810   45.9970 C   0  0  0  0  0  0  0  0  0  0  0  0
   54.4870   25.7440   45.9850 O   0  0  0  0  0  0  0  0  0  0  0  0
   55.9190   27.4660   45.6360 N   0  0  0  0  0  0  0  0  0  0  0  0
   57.1590   27.9580   45.6370 N   0  0  0  0  0  0  0  0  0  0  0  0
   58.4540   30.6040   45.7290 C   0  0  0  0  0  0  0  0  0  0  0  0
   58.1640   28.7800   43.8630 H   0  0  0  0  0  0  0  0  0  0  0  0
   56.5870   28.2360   43.7010 H   0  0  0  0  0  0  0  0  0  0  0  0
   57.4909   33.2767   43.8220 H   0  0  0  0  0  0  0  0  0  0  0  0
   59.0608   34.4355   45.3771 H   0  0  0  0  0  0  0  0  0  0  0  0
   60.2394   33.1472   47.1584 H   0  0  0  0  0  0  0  0  0  0  0  0
   60.6544   27.9115   49.1845 H   0  0  0  0  0  0  0  0  0  0  0  0
   59.0192   27.3774   48.6672 H   0  0  0  0  0  0  0  0  0  0  0  0
   58.8672   25.2328   46.6781 H   0  0  0  0  0  0  0  0  0  0  0  0
   56.5344   24.3123   46.6752 H   0  0  0  0  0  0  0  0  0  0  0  0
   58.2941   29.5193   45.8173 H   0  0  0  0  0  0  0  0  0  0  0  0
  1  2  1  0
  2  3  2  0
  2  4  2  0
  2  5  1  0
  5  6  2  0
  6  7  1  0
  7  8  2  0
  8  9  1  0
  9 10  1  0
 10 11  1  0
 11 12  2  0
 11 13  1  0
 13 14  1  0
 14 15  1  0
 15 16  2  0
 15 17  1  0
 17 18  1  0
 18 19  2  0
 19 20  1  0
 20 21  2  0
 20 22  1  0
 22 23  1  0
  9 24  2  0
 24  5  1  0
 23 17  2  0
  1 25  1  0
  1 26  1  0
  6 27  1  0
  7 28  1  0
  8 29  1  0
 13 30  1  0
 13 31  1  0
 18 32  1  0
 19 33  1  0
 24 34  1  0
M  CHG  2  10  -1  22  -1
M  END
>  <UniqueID>  (37) 
37

>  <SMILES>  (37) 
NS(=O)(=O)c1cccc([N-]C(=O)COC(=O)c2ccc(=O)[n-]n2)c1

>  <Energy>  (37) 
35.61753796758042

>  <Genealogy>  (37) 
NS(=O)(=O)c1cccc([N-]C(=O)COC(=O)c2ccc(=O)[n-]n2)c1 (protonated)
NS(=O)(=O)c1cccc([N-]C(=O)COC(=O)c2ccc(=O)[n-]n2)c1 (3D coordinates assigned)
NS(=O)(=O)c1cccc([N-]C(=O)COC(=O)c2ccc(=O)[n-]n2)c1 (optimized conformer: 35.61753796758042 kcal/mol)

>  <smiles>  (37) 
NS(=O)(=O)c1cccc(NC(=O)COC(=O)c2ccc(=O)[nH]n2)c1

>  <score_type>  (37) 
oracle

>  <origin>  (37) 
adg

>  <m_score__min__energy>  (37) 
-10.99

>  <m_primary>  (37) 
energy

$$$$
37:0
     RDKit          3D

 47 49  0  0  0  0  0  0  0  0999 V2000
   63.3130   32.4360   47.5300 C   0  0  0  0  0  0  0  0  0  0  0  0
   62.8310   33.1560   49.1390 S   0  0  0  0  0  0  0  0  0  0  0  0
   61.6890   31.8300   49.5280 C   0  0  0  0  0  0  0  0  0  0  0  0
   61.9960   30.4900   49.6490 C   0  0  0  0  0  0  0  0  0  0  0  0
   60.8770   29.8070   49.9660 N   0  0  0  0  0  0  0  0  0  0  0  0
   59.8780   30.6760   50.0510 N   0  0  0  0  0  0  0  0  0  0  0  0
   58.5220   30.2850   50.4230 C   0  0  0  0  0  0  0  0  0  0  0  0
   60.3330   31.9210   49.7880 C   0  0  0  0  0  0  0  0  0  0  0  0
   59.3640   33.4380   49.9150 S   0  0  0  0  0  0  0  0  0  0  0  0
   59.1940   33.6230   48.1370 C   0  0  0  0  0  0  0  0  0  0  0  0
   60.1850   34.2810   47.4120 C   0  0  0  0  0  0  0  0  0  0  0  0
   60.1060   34.3580   46.0200 C   0  0  0  0  0  0  0  0  0  0  0  0
   59.0200   33.7850   45.3420 C   0  0  0  0  0  0  0  0  0  0  0  0
   58.9720   33.8510   43.9130 N   0  0  0  0  0  0  0  0  0  0  0  0
   57.9800   33.1780   46.0740 C   0  0  0  0  0  0  0  0  0  0  0  0
   56.8440   32.6500   45.3800 N   0  0  0  0  0  0  0  0  0  0  0  0
   56.8530   31.1670   44.4790 S   0  0  0  0  0  0  0  0  0  0  0  0
   55.4350   30.8130   44.1120 O   0  0  0  0  0  0  0  0  0  0  0  0
   57.6320   31.3770   43.2080 O   0  0  0  0  0  0  0  0  0  0  0  0
   57.5990   29.8550   45.3940 C   0  0  0  0  0  0  0  0  0  0  0  0
   58.8430   30.0510   46.0100 C   0  0  0  0  0  0  0  0  0  0  0  0
   59.4500   29.0030   46.7180 C   0  0  0  0  0  0  0  0  0  0  0  0
   58.8200   27.7540   46.8100 C   0  0  0  0  0  0  0  0  0  0  0  0
   57.5770   27.5500   46.1930 C   0  0  0  0  0  0  0  0  0  0  0  0
   56.7530   25.9960   46.3270 S   0  0  0  0  0  0  0  0  0  0  0  0
   55.0700   26.2150   45.9940 N   0  0  0  0  0  0  0  0  0  0  0  0
   57.3390   25.0290   45.3360 O   0  0  0  0  0  0  0  0  0  0  0  0
   56.9230   25.4290   47.7100 O   0  0  0  0  0  0  0  0  0  0  0  0
   56.9690   28.6020   45.4900 C   0  0  0  0  0  0  0  0  0  0  0  0
   58.0770   33.1110   47.4730 C   0  0  0  0  0  0  0  0  0  0  0  0
   63.9177   31.5328   47.6989 H   0  0  0  0  0  0  0  0  0  0  0  0
   62.4094   32.1713   46.9613 H   0  0  0  0  0  0  0  0  0  0  0  0
   63.9021   33.1706   46.9613 H   0  0  0  0  0  0  0  0  0  0  0  0
   62.9941   30.0493   49.5092 H   0  0  0  0  0  0  0  0  0  0  0  0
   58.4353   30.2600   51.5193 H   0  0  0  0  0  0  0  0  0  0  0  0
   57.8055   31.0131   50.0150 H   0  0  0  0  0  0  0  0  0  0  0  0
   58.3032   29.2872   50.0150 H   0  0  0  0  0  0  0  0  0  0  0  0
   61.0337   34.7420   47.9385 H   0  0  0  0  0  0  0  0  0  0  0  0
   60.8979   34.8696   45.4534 H   0  0  0  0  0  0  0  0  0  0  0  0
   59.7300   34.3070   43.3550 H   0  0  0  0  0  0  0  0  0  0  0  0
   58.1550   33.4570   43.3900 H   0  0  0  0  0  0  0  0  0  0  0  0
   59.3438   31.0278   45.9381 H   0  0  0  0  0  0  0  0  0  0  0  0
   60.4244   29.1619   47.2030 H   0  0  0  0  0  0  0  0  0  0  0  0
   59.3000   26.9348   47.3655 H   0  0  0  0  0  0  0  0  0  0  0  0
   54.7710   27.0890   46.4870 H   0  0  0  0  0  0  0  0  0  0  0  0
   55.9917   28.4446   45.0104 H   0  0  0  0  0  0  0  0  0  0  0  0
   57.2639   32.6499   48.0529 H   0  0  0  0  0  0  0  0  0  0  0  0
  1  2  1  0
  2  3  1  0
  3  4  1  0
  4  5  2  0
  5  6  1  0
  6  7  1  0
  6  8  1  0
  8  9  1  0
  9 10  1  0
 10 11  2  0
 11 12  1  0
 12 13  2  0
 13 14  1  0
 13 15  1  0
 15 16  1  0
 16 17  1  0
 17 18  2  0
 17 19  2  0
 17 20  1  0
 20 21  2  0
 21 22  1  0
 22 23  2  0
 23 24  1  0
 24 25  1  0
 25 26  1  0
 25 27  2  0
 25 28  2  0
 24 29  2  0
 15 30  2  0
  8  3  2  0
 30 10  1  0
 29 20  1  0
  1 31  1  0
  1 32  1  0
  1 33  1  0
  4 34  1  0
  7 35  1  0
  7 36  1  0
  7 37  1  0
 11 38  1  0
 12 39  1  0
 14 40  1  0
 14 41  1  0
 21 42  1  0
 22 43  1  0
 23 44  1  0
 26 45  1  0
 29 46  1  0
 30 47  1  0
M  CHG  2  16  -1  26  -1
M  END
>  <UniqueID>  (38) 
38

>  <SMILES>  (38) 
CSc1cnn(C)c1Sc1ccc(N)c([N-]S(=O)(=O)c2cccc(S([NH-])(=O)=O)c2)c1

>  <Energy>  (38) 
73.81307057948196

>  <Genealogy>  (38) 
CSc1cnn(C)c1Sc1ccc(N)c([N-]S(=O)(=O)c2cccc(S([NH-])(=O)=O)c2)c1 (protonated)
CSc1cnn(C)c1Sc1ccc(N)c([N-]S(=O)(=O)c2cccc(S([NH-])(=O)=O)c2)c1 (3D coordinates assigned)
CSc1cnn(C)c1Sc1ccc(N)c([N-]S(=O)(=O)c2cccc(S([NH-])(=O)=O)c2)c1 (optimized conformer: 73.81307057948196 kcal/mol)

>  <smiles>  (38) 
CSc1cnn(C)c1Sc1ccc(N)c(NS(=O)(=O)c2cccc(S(N)(=O)=O)c2)c1

>  <score_type>  (38) 
oracle

>  <origin>  (38) 
adg

>  <m_score__min__energy>  (38) 
-12.98

>  <m_primary>  (38) 
energy

$$$$
38:0
     RDKit          3D

 44 46  0  0  0  0  0  0  0  0999 V2000
   61.4470   33.3760   50.5510 C   0  0  0  0  0  0  0  0  0  0  0  0
   60.1230   33.4310   50.0310 O   0  0  0  0  0  0  0  0  0  0  0  0
   59.8100   33.6290   48.6770 C   0  0  0  0  0  0  0  0  0  0  0  0
   58.7170   32.9370   48.1410 C   0  0  0  0  0  0  0  0  0  0  0  0
   58.3620   33.1000   46.7990 C   0  0  0  0  0  0  0  0  0  0  0  0
   59.0910   33.9720   45.9760 C   0  0  0  0  0  0  0  0  0  0  0  0
   58.7380   34.1190   44.5180 C   0  0  0  0  0  0  0  0  0  0  0  0
   57.3950   33.5690   44.2550 N   0  0  0  0  0  0  0  0  0  0  0  0
   57.3890   32.4140   43.3300 C   0  0  1  0  0  0  0  0  0  0  0  0
   58.5230   32.4190   42.4940 O   0  0  0  0  0  0  0  0  0  0  0  0
   57.2060   31.0960   44.0550 C   0  0  0  0  0  0  0  0  0  0  0  0
   56.0350   30.3670   44.2020 C   0  0  0  0  0  0  0  0  0  0  0  0
   56.3930   29.2330   44.8980 C   0  0  0  0  0  0  0  0  0  0  0  0
   55.5240   28.1930   45.2130 O   0  0  0  0  0  0  0  0  0  0  0  0
   57.7090   29.2410   45.1970 N   0  0  0  0  0  0  0  0  0  0  0  0
   58.4580   28.2190   45.8760 C   0  0  0  0  0  0  0  0  0  0  0  0
   58.5340   26.9250   45.3290 C   0  0  0  0  0  0  0  0  0  0  0  0
   59.2580   25.9240   45.9800 C   0  0  0  0  0  0  0  0  0  0  0  0
   59.9220   26.2050   47.1770 C   0  0  0  0  0  0  0  0  0  0  0  0
   59.8650   27.4900   47.7220 C   0  0  0  0  0  0  0  0  0  0  0  0
   59.1410   28.4970   47.0760 C   0  0  0  0  0  0  0  0  0  0  0  0
   59.1450   29.7490   47.5970 F   0  0  0  0  0  0  0  0  0  0  0  0
   58.2140   30.3770   44.6740 C   0  0  0  0  0  0  0  0  0  0  0  0
   60.1980   34.6540   46.5060 C   0  0  0  0  0  0  0  0  0  0  0  0
   60.5530   34.4880   47.8480 C   0  0  0  0  0  0  0  0  0  0  0  0
   61.4095   33.3776   51.6504 H   0  0  0  0  0  0  0  0  0  0  0  0
   61.9400   32.4566   50.2022 H   0  0  0  0  0  0  0  0  0  0  0  0
   62.0146   34.2513   50.2022 H   0  0  0  0  0  0  0  0  0  0  0  0
   58.1330   32.2596   48.7813 H   0  0  0  0  0  0  0  0  0  0  0  0
   57.5080   32.5427   46.3865 H   0  0  0  0  0  0  0  0  0  0  0  0
   58.7521   35.1851   44.2476 H   0  0  0  0  0  0  0  0  0  0  0  0
   59.4738   33.5659   43.9157 H   0  0  0  0  0  0  0  0  0  0  0  0
   56.7980   34.3250   43.8430 H   0  0  0  0  0  0  0  0  0  0  0  0
   56.9520   33.2760   45.1580 H   0  0  0  0  0  0  0  0  0  0  0  0
   56.5097   32.5235   42.6782 H   0  0  0  0  0  0  0  0  0  0  0  0
   58.7390   31.4820   42.2540 H   0  0  0  0  0  0  0  0  0  0  0  0
   55.0322   30.6372   43.8394 H   0  0  0  0  0  0  0  0  0  0  0  0
   58.0200   26.7004   44.3828 H   0  0  0  0  0  0  0  0  0  0  0  0
   59.3057   24.9127   45.5499 H   0  0  0  0  0  0  0  0  0  0  0  0
   60.4895   25.4145   47.6900 H   0  0  0  0  0  0  0  0  0  0  0  0
   60.3914   27.7105   48.6624 H   0  0  0  0  0  0  0  0  0  0  0  0
   59.2683   30.6857   44.7308 H   0  0  0  0  0  0  0  0  0  0  0  0
   60.7888   35.3222   45.8622 H   0  0  0  0  0  0  0  0  0  0  0  0
   61.4173   35.0317   48.2571 H   0  0  0  0  0  0  0  0  0  0  0  0
  1  2  1  0
  2  3  1  0
  3  4  2  0
  4  5  1  0
  5  6  2  0
  6  7  1  0
  7  8  1  0
  8  9  1  0
  9 10  1  0
  9 11  1  0
 11 12  1  0
 12 13  2  0
 13 14  1  0
 13 15  1  0
 15 16  1  0
 16 17  2  0
 17 18  1  0
 18 19  2  0
 19 20  1  0
 20 21  2  0
 21 22  1  0
 15 23  1  0
  6 24  1  0
 24 25  2  0
 25  3  1  0
 23 11  2  0
 21 16  1  0
  1 26  1  0
  1 27  1  0
  1 28  1  0
  4 29  1  0
  5 30  1  0
  7 31  1  0
  7 32  1  0
  8 33  1  0
  8 34  1  0
  9 35  1  6
 10 36  1  0
 12 37  1  0
 17 38  1  0
 18 39  1  0
 19 40  1  0
 20 41  1  0
 23 42  1  0
 24 43  1  0
 25 44  1  0
M  CHG  2   8   1  14  -1
M  END
>  <UniqueID>  (39) 
39

>  <SMILES>  (39) 
COc1ccc(C[NH2+][C@@H](O)c2cc([O-])n(-c3ccccc3F)c2)cc1

>  <Energy>  (39) 
81.43857250909042

>  <Genealogy>  (39) 
COc1ccc(C[NH2+]C(O)c2cc([O-])n(-c3ccccc3F)c2)cc1 (protonated)
COc1ccc(C[NH2+][C@@H](O)c2cc([O-])n(-c3ccccc3F)c2)cc1 (chirality)
COc1ccc(C[NH2+][C@@H](O)c2cc([O-])n(-c3ccccc3F)c2)cc1 (3D coordinates assigned)
COc1ccc(C[NH2+][C@@H](O)c2cc([O-])n(-c3ccccc3F)c2)cc1 (optimized conformer: 81.43857250909042 kcal/mol)

>  <smiles>  (39) 
COc1ccc(CNC(O)c2cc(O)n(-c3ccccc3F)c2)cc1

>  <score_type>  (39) 
oracle

>  <origin>  (39) 
adg

>  <m_score__min__energy>  (39) 
-8.6699999999999999

>  <m_primary>  (39) 
energy

$$$$
39:0
     RDKit          3D

 33 34  0  0  0  0  0  0  0  0999 V2000
   55.1480   26.7010   46.0300 N   0  0  0  0  0  0  0  0  0  0  0  0
   56.3630   25.4760   46.1470 S   0  0  0  0  0  0  0  0  0  0  0  0
   56.1920   24.5100   45.0090 O   0  0  0  0  0  0  0  0  0  0  0  0
   56.1910   24.7510   47.4520 O   0  0  0  0  0  0  0  0  0  0  0  0
   57.9810   26.1840   46.0720 C   0  0  0  0  0  0  0  0  0  0  0  0
   59.0190   25.6300   46.8390 C   0  0  0  0  0  0  0  0  0  0  0  0
   60.3050   26.1700   46.7820 C   0  0  0  0  0  0  0  0  0  0  0  0
   60.5650   27.2710   45.9680 C   0  0  0  0  0  0  0  0  0  0  0  0
   59.5390   27.8380   45.2090 C   0  0  0  0  0  0  0  0  0  0  0  0
   58.2400   27.2980   45.2450 C   0  0  0  0  0  0  0  0  0  0  0  0
   57.1680   27.8460   44.4590 N   0  0  0  0  0  0  0  0  0  0  0  0
   56.8890   29.5160   44.0720 S   0  0  0  0  0  0  0  0  0  0  0  0
   55.7960   30.0870   44.9310 O   0  0  0  0  0  0  0  0  0  0  0  0
   56.4480   29.5980   42.6390 O   0  0  0  0  0  0  0  0  0  0  0  0
   58.3920   30.4720   44.2420 C   0  0  0  0  0  0  0  0  0  0  0  0
   58.1350   31.7750   44.9490 C   0  0  0  0  0  0  0  0  0  0  0  0
   58.2590   31.8490   46.3470 C   0  0  0  0  0  0  0  0  0  0  0  0
   58.0740   33.0670   47.0080 C   0  0  0  0  0  0  0  0  0  0  0  0
   57.7670   34.2190   46.2810 C   0  0  0  0  0  0  0  0  0  0  0  0
   57.6400   34.1560   44.8910 C   0  0  0  0  0  0  0  0  0  0  0  0
   57.8210   32.9410   44.2230 C   0  0  0  0  0  0  0  0  0  0  0  0
   57.7120   32.9050   42.8700 F   0  0  0  0  0  0  0  0  0  0  0  0
   55.2090   27.1020   45.0670 H   0  0  0  0  0  0  0  0  0  0  0  0
   58.8174   24.7654   47.4885 H   0  0  0  0  0  0  0  0  0  0  0  0
   61.1142   25.7260   47.3803 H   0  0  0  0  0  0  0  0  0  0  0  0
   61.5795   27.6938   45.9233 H   0  0  0  0  0  0  0  0  0  0  0  0
   59.7480   28.7142   44.5776 H   0  0  0  0  0  0  0  0  0  0  0  0
   59.1238   29.8890   44.8203 H   0  0  0  0  0  0  0  0  0  0  0  0
   58.7779   30.6935   43.2360 H   0  0  0  0  0  0  0  0  0  0  0  0
   58.5027   30.9446   46.9237 H   0  0  0  0  0  0  0  0  0  0  0  0
   58.1704   33.1179   48.1026 H   0  0  0  0  0  0  0  0  0  0  0  0
   57.6250   35.1768   46.8030 H   0  0  0  0  0  0  0  0  0  0  0  0
   57.3970   35.0646   44.3206 H   0  0  0  0  0  0  0  0  0  0  0  0
  1  2  1  0
  2  3  2  0
  2  4  2  0
  2  5  1  0
  5  6  2  0
  6  7  1  0
  7  8  2  0
  8  9  1  0
  9 10  2  0
 10 11  1  0
 11 12  1  0
 12 13  2  0
 12 14  2  0
 12 15  1  0
 15 16  1  0
 16 17  2  0
 17 18  1  0
 18 19  2  0
 19 20  1  0
 20 21  2  0
 21 22  1  0
 10  5  1  0
 21 16  1  0
  1 23  1  0
  6 24  1  0
  7 25  1  0
  8 26  1  0
  9 27  1  0
 15 28  1  0
 15 29  1  0
 17 30  1  0
 18 31  1  0
 19 32  1  0
 20 33  1  0
M  CHG  2   1  -1  11  -1
M  END
>  <UniqueID>  (40) 
40

>  <SMILES>  (40) 
[NH-]S(=O)(=O)c1ccccc1[N-]S(=O)(=O)Cc1ccccc1F

>  <Energy>  (40) 
31.797692466023506

>  <Genealogy>  (40) 
[NH-]S(=O)(=O)c1ccccc1[N-]S(=O)(=O)Cc1ccccc1F (protonated)
[NH-]S(=O)(=O)c1ccccc1[N-]S(=O)(=O)Cc1ccccc1F (3D coordinates assigned)
[NH-]S(=O)(=O)c1ccccc1[N-]S(=O)(=O)Cc1ccccc1F (optimized conformer: 31.797692466023506 kcal/mol)

>  <smiles>  (40) 
NS(=O)(=O)c1ccccc1NS(=O)(=O)Cc1ccccc1F

>  <score_type>  (40) 
oracle

>  <origin>  (40) 
adg

>  <m_score__min__energy>  (40) 
-13.359999999999999

>  <m_primary>  (40) 
energy

$$$$
40:0
     RDKit          3D

 31 32  0  0  0  0  0  0  0  0999 V2000
   58.5360   29.8570   49.9660 C   0  0  0  0  0  0  0  0  0  0  0  0
   58.2280   30.9920   50.9180 C   0  0  0  0  0  0  0  0  0  0  0  0
   57.2360   30.8200   51.9160 C   0  0  0  0  0  0  0  0  0  0  0  0
   56.5780   29.5490   52.0510 N   0  0  0  0  0  0  0  0  0  0  0  0
   55.2210   29.2160   53.0780 S   0  0  0  0  0  0  0  0  0  0  0  0
   55.6030   29.4960   54.5040 O   0  0  0  0  0  0  0  0  0  0  0  0
   54.8490   27.7650   52.9460 O   0  0  0  0  0  0  0  0  0  0  0  0
   53.8630   30.2480   52.6410 C   0  0  0  0  0  0  0  0  0  0  0  0
   53.7840   30.8120   51.3590 C   0  0  0  0  0  0  0  0  0  0  0  0
   52.7080   31.6390   51.0210 C   0  0  0  0  0  0  0  0  0  0  0  0
   51.7050   31.9040   51.9600 C   0  0  0  0  0  0  0  0  0  0  0  0
   50.6380   32.7260   51.6220 O   0  0  0  0  0  0  0  0  0  0  0  0
   51.7790   31.3390   53.2370 C   0  0  0  0  0  0  0  0  0  0  0  0
   52.8530   30.5120   53.5780 C   0  0  0  0  0  0  0  0  0  0  0  0
   56.9100   31.8940   52.7620 C   0  0  0  0  0  0  0  0  0  0  0  0
   57.5640   33.1150   52.6380 C   0  0  0  0  0  0  0  0  0  0  0  0
   58.5650   33.2820   51.6870 C   0  0  0  0  0  0  0  0  0  0  0  0
   58.9280   32.2290   50.8310 C   0  0  0  0  0  0  0  0  0  0  0  0
   60.0450   32.4560   49.8800 C   0  0  0  0  0  0  0  0  0  0  0  0
   61.0500   31.6960   49.8930 O   0  0  0  0  0  0  0  0  0  0  0  0
   59.9850   33.4690   48.9310 O   0  0  0  0  0  0  0  0  0  0  0  0
   58.7815   28.9522   50.5414 H   0  0  0  0  0  0  0  0  0  0  0  0
   57.6584   29.6616   49.3323 H   0  0  0  0  0  0  0  0  0  0  0  0
   59.3920   30.1320   49.3323 H   0  0  0  0  0  0  0  0  0  0  0  0
   54.5699   30.6034   50.6181 H   0  0  0  0  0  0  0  0  0  0  0  0
   52.6501   32.0817   50.0157 H   0  0  0  0  0  0  0  0  0  0  0  0
   50.9900   31.5459   53.9750 H   0  0  0  0  0  0  0  0  0  0  0  0
   52.9063   30.0675   54.5828 H   0  0  0  0  0  0  0  0  0  0  0  0
   56.1312   31.7677   53.5285 H   0  0  0  0  0  0  0  0  0  0  0  0
   57.2882   33.9528   53.2953 H   0  0  0  0  0  0  0  0  0  0  0  0
   59.0790   34.2510   51.6041 H   0  0  0  0  0  0  0  0  0  0  0  0
  1  2  1  0
  2  3  2  0
  3  4  1  0
  4  5  1  0
  5  6  2  0
  5  7  2  0
  5  8  1  0
  8  9  2  0
  9 10  1  0
 10 11  2  0
 11 12  1  0
 11 13  1  0
 13 14  2  0
  3 15  1  0
 15 16  2  0
 16 17  1  0
 17 18  2  0
 18 19  1  0
 19 20  2  0
 19 21  1  0
 18  2  1  0
 14  8  1  0
  1 22  1  0
  1 23  1  0
  1 24  1  0
  9 25  1  0
 10 26  1  0
 13 27  1  0
 14 28  1  0
 15 29  1  0
 16 30  1  0
 17 31  1  0
M  CHG  3   4  -1  12  -1  21  -1
M  END
>  <UniqueID>  (41) 
41

>  <SMILES>  (41) 
Cc1c([N-]S(=O)(=O)c2ccc([O-])cc2)cccc1C(=O)[O-]

>  <Energy>  (41) 
41.39286902028236

>  <Genealogy>  (41) 
Cc1c([N-]S(=O)(=O)c2ccc([O-])cc2)cccc1C(=O)[O-] (protonated)
Cc1c([N-]S(=O)(=O)c2ccc([O-])cc2)cccc1C(=O)[O-] (3D coordinates assigned)
Cc1c([N-]S(=O)(=O)c2ccc([O-])cc2)cccc1C(=O)[O-] (optimized conformer: 41.39286902028236 kcal/mol)

>  <smiles>  (41) 
Cc1c(NS(=O)(=O)c2ccc(O)cc2)cccc1C(=O)O

>  <score_type>  (41) 
oracle

>  <origin>  (41) 
adg

>  <m_score__min__energy>  (41) 
-11.75

>  <m_primary>  (41) 
energy

$$$$
41:0
     RDKit          3D

 72 75  0  0  0  0  0  0  0  0999 V2000
   51.0080   26.4160   52.4850 C   0  0  0  0  0  0  0  0  0  0  0  0
   51.4720   26.1870   53.8450 N   0  0  0  0  0  0  0  0  0  0  0  0
   52.8440   26.3170   54.2230 C   0  0  0  0  0  0  0  0  0  0  0  0
   53.2430   25.8590   55.3300 O   0  0  0  0  0  0  0  0  0  0  0  0
   53.7930   27.0220   53.2970 C   0  0  0  0  0  0  0  0  0  0  0  0
   53.8550   28.4640   53.5930 N   0  0  0  0  0  0  0  0  0  0  0  0
   52.6060   29.1700   53.9250 C   0  0  0  0  0  0  0  0  0  0  0  0
   52.2270   30.1280   52.8240 C   0  0  0  0  0  0  0  0  0  0  0  0
   51.5710   31.3350   53.1270 C   0  0  0  0  0  0  0  0  0  0  0  0
   51.1720   32.1970   52.1030 C   0  0  0  0  0  0  0  0  0  0  0  0
   51.4170   31.8600   50.7680 C   0  0  0  0  0  0  0  0  0  0  0  0
   51.0140   32.7150   49.7500 O   0  0  0  0  0  0  0  0  0  0  0  0
   52.0670   30.6620   50.4580 C   0  0  0  0  0  0  0  0  0  0  0  0
   52.4680   29.7970   51.4800 C   0  0  0  0  0  0  0  0  0  0  0  0
   55.1450   29.1090   53.6960 C   0  0  0  0  0  0  0  0  0  0  0  0
   55.8410   29.1830   54.9150 C   0  0  0  0  0  0  0  0  0  0  0  0
   57.0730   29.8370   54.9650 C   0  0  0  0  0  0  0  0  0  0  0  0
   57.6090   30.4110   53.8130 C   0  0  0  0  0  0  0  0  0  0  0  0
   56.8990   30.3170   52.6050 C   0  0  0  0  0  0  0  0  0  0  0  0
   57.4370   30.8680   51.3490 C   0  0  0  0  0  0  0  0  0  0  0  0
   57.0120   31.9770   50.9280 O   0  0  0  0  0  0  0  0  0  0  0  0
   58.4210   30.1450   50.6010 N   0  0  0  0  0  0  0  0  0  0  0  0
   59.6120   30.7580   50.0240 C   0  0  0  0  0  0  0  0  0  0  0  0
   59.8210   30.2630   48.6110 C   0  0  0  0  0  0  0  0  0  0  0  0
   59.2760   29.0220   48.2300 C   0  0  0  0  0  0  0  0  0  0  0  0
   59.4700   28.5260   46.9390 C   0  0  0  0  0  0  0  0  0  0  0  0
   60.2080   29.2590   46.0110 C   0  0  0  0  0  0  0  0  0  0  0  0
   60.7530   30.4930   46.3690 C   0  0  0  0  0  0  0  0  0  0  0  0
   60.5700   31.0010   47.6650 C   0  0  0  0  0  0  0  0  0  0  0  0
   61.1140   32.2900   47.9880 N   0  0  0  0  0  0  0  0  0  0  0  0
   60.2140   33.3950   48.3310 C   0  0  0  0  0  0  0  0  0  0  0  0
   59.2850   33.6910   47.1860 C   0  0  0  0  0  0  0  0  0  0  0  0
   59.7300   34.4520   46.0930 C   0  0  0  0  0  0  0  0  0  0  0  0
   58.8850   34.6850   45.0040 C   0  0  0  0  0  0  0  0  0  0  0  0
   57.5930   34.1560   44.9990 C   0  0  0  0  0  0  0  0  0  0  0  0
   57.1470   33.3850   46.0750 C   0  0  0  0  0  0  0  0  0  0  0  0
   57.9880   33.1490   47.1670 C   0  0  0  0  0  0  0  0  0  0  0  0
   62.7740   32.6260   47.6090 S   0  0  0  0  0  0  0  0  0  0  0  0
   63.6100   33.2060   49.0700 C   0  0  0  0  0  0  0  0  0  0  0  0
   63.4370   31.3750   47.1030 O   0  0  0  0  0  0  0  0  0  0  0  0
   62.8580   33.6910   46.5490 O   0  0  0  0  0  0  0  0  0  0  0  0
   55.6950   29.6830   52.5900 N   0  0  0  0  0  0  0  0  0  0  0  0
   50.0219   26.9027   52.5111 H   0  0  0  0  0  0  0  0  0  0  0  0
   51.7232   27.0646   51.9579 H   0  0  0  0  0  0  0  0  0  0  0  0
   50.9282   25.4538   51.9579 H   0  0  0  0  0  0  0  0  0  0  0  0
   54.7971   26.5883   53.4142 H   0  0  0  0  0  0  0  0  0  0  0  0
   53.4326   26.8937   52.2657 H   0  0  0  0  0  0  0  0  0  0  0  0
   51.7992   28.4340   54.0570 H   0  0  0  0  0  0  0  0  0  0  0  0
   52.7578   29.7401   54.8534 H   0  0  0  0  0  0  0  0  0  0  0  0
   51.3713   31.6012   54.1755 H   0  0  0  0  0  0  0  0  0  0  0  0
   50.6645   33.1420   52.3469 H   0  0  0  0  0  0  0  0  0  0  0  0
   52.2633   30.3996   49.4080 H   0  0  0  0  0  0  0  0  0  0  0  0
   52.9745   28.8529   51.2310 H   0  0  0  0  0  0  0  0  0  0  0  0
   55.4177   28.7287   55.8230 H   0  0  0  0  0  0  0  0  0  0  0  0
   57.6225   29.8997   55.9158 H   0  0  0  0  0  0  0  0  0  0  0  0
   58.5772   30.9317   53.8499 H   0  0  0  0  0  0  0  0  0  0  0  0
   59.4885   31.8510   50.0117 H   0  0  0  0  0  0  0  0  0  0  0  0
   60.4868   30.4859   50.6329 H   0  0  0  0  0  0  0  0  0  0  0  0
   58.6919   28.4376   48.9561 H   0  0  0  0  0  0  0  0  0  0  0  0
   59.0395   27.5548   46.6538 H   0  0  0  0  0  0  0  0  0  0  0  0
   60.3610   28.8645   44.9956 H   0  0  0  0  0  0  0  0  0  0  0  0
   61.3293   31.0709   45.6315 H   0  0  0  0  0  0  0  0  0  0  0  0
   59.6218   33.1185   49.2158 H   0  0  0  0  0  0  0  0  0  0  0  0
   60.8152   34.2915   48.5429 H   0  0  0  0  0  0  0  0  0  0  0  0
   60.7487   34.8669   46.0937 H   0  0  0  0  0  0  0  0  0  0  0  0
   59.2377   35.2846   44.1519 H   0  0  0  0  0  0  0  0  0  0  0  0
   56.9250   34.3467   44.1461 H   0  0  0  0  0  0  0  0  0  0  0  0
   56.1315   32.9624   46.0633 H   0  0  0  0  0  0  0  0  0  0  0  0
   57.6346   32.5390   48.0114 H   0  0  0  0  0  0  0  0  0  0  0  0
   63.0829   32.8403   49.9636 H   0  0  0  0  0  0  0  0  0  0  0  0
   64.6438   32.8301   49.0745 H   0  0  0  0  0  0  0  0  0  0  0  0
   63.6198   34.3059   49.0745 H   0  0  0  0  0  0  0  0  0  0  0  0
  1  2  1  0
  2  3  1  0
  3  4  2  0
  3  5  1  0
  5  6  1  0
  6  7  1  0
  7  8  1  0
  8  9  2  0
  9 10  1  0
 10 11  2  0
 11 12  1  0
 11 13  1  0
 13 14  2  0
  6 15  1  0
 15 16  2  0
 16 17  1  0
 17 18  2  0
 18 19  1  0
 19 20  1  0
 20 21  2  0
 20 22  1  0
 22 23  1  0
 23 24  1  0
 24 25  2  0
 25 26  1  0
 26 27  2  0
 27 28  1  0
 28 29  2  0
 29 30  1  0
 30 31  1  0
 31 32  1  0
 32 33  2  0
 33 34  1  0
 34 35  2  0
 35 36  1  0
 36 37  2  0
 30 38  1  0
 38 39  1  0
 38 40  2  0
 38 41  2  0
 19 42  2  0
 14  8  1  0
 42 15  1  0
 29 24  1  0
 37 32  1  0
  1 43  1  0
  1 44  1  0
  1 45  1  0
  5 46  1  0
  5 47  1  0
  7 48  1  0
  7 49  1  0
  9 50  1  0
 10 51  1  0
 13 52  1  0
 14 53  1  0
 16 54  1  0
 17 55  1  0
 18 56  1  0
 23 57  1  0
 23 58  1  0
 25 59  1  0
 26 60  1  0
 27 61  1  0
 28 62  1  0
 31 63  1  0
 31 64  1  0
 33 65  1  0
 34 66  1  0
 35 67  1  0
 36 68  1  0
 37 69  1  0
 39 70  1  0
 39 71  1  0
 39 72  1  0
M  CHG  3   2  -1  12  -1  22  -1
M  END
>  <UniqueID>  (42) 
42

>  <SMILES>  (42) 
C[N-]C(=O)CN(Cc1ccc([O-])cc1)c1cccc(C(=O)[N-]Cc2ccccc2N(Cc2ccccc2)S(C)(=O)=O)n1

>  <Energy>  (42) 
72.64549521837449

>  <Genealogy>  (42) 
C[N-]C(=O)CN(Cc1ccc([O-])cc1)c1cccc(C(=O)[N-]Cc2ccccc2N(Cc2ccccc2)S(C)(=O)=O)n1 (protonated)
C[N-]C(=O)CN(Cc1ccc([O-])cc1)c1cccc(C(=O)[N-]Cc2ccccc2N(Cc2ccccc2)S(C)(=O)=O)n1 (3D coordinates assigned)
C[N-]C(=O)CN(Cc1ccc([O-])cc1)c1cccc(C(=O)[N-]Cc2ccccc2N(Cc2ccccc2)S(C)(=O)=O)n1 (optimized conformer: 72.64549521837449 kcal/mol)

>  <smiles>  (42) 
CNC(=O)CN(Cc1ccc(O)cc1)c1cccc(C(=O)NCc2ccccc2N(Cc2ccccc2)S(C)(=O)=O)n1

>  <score_type>  (42) 
oracle

>  <origin>  (42) 
adg

>  <m_score__min__energy>  (42) 
-16.77

>  <m_primary>  (42) 
energy

$$$$
42:0
     RDKit          3D

 75 78  0  0  0  0  0  0  0  0999 V2000
   54.4610   28.4410   53.2640 C   0  0  0  0  0  0  0  0  0  0  0  0
   55.5680   29.3530   52.8290 C   0  0  0  0  0  0  0  0  0  0  0  0
   55.2840   30.4950   52.0610 C   0  0  0  0  0  0  0  0  0  0  0  0
   56.3130   31.3610   51.6810 C   0  0  0  0  0  0  0  0  0  0  0  0
   57.6400   31.0800   52.0370 C   0  0  0  0  0  0  0  0  0  0  0  0
   58.6810   32.0090   51.7220 N   0  0  0  0  0  0  0  0  0  0  0  0
   58.9990   32.9580   52.5890 N   0  0  0  0  0  0  0  0  0  0  0  0
   59.8520   33.8070   51.9990 C   0  0  0  0  0  0  0  0  0  0  0  0
   60.0720   33.3950   50.7050 C   0  0  0  0  0  0  0  0  0  0  0  0
   60.8390   34.1470   49.7000 C   0  0  0  0  0  0  0  0  0  0  0  0
   62.0580   34.3830   49.9080 O   0  0  0  0  0  0  0  0  0  0  0  0
   60.2240   34.6580   48.5110 N   0  0  0  0  0  0  0  0  0  0  0  0
   60.5460   34.2290   47.1540 C   0  0  0  0  0  0  0  0  0  0  0  0
   59.3880   34.5610   46.2120 C   0  0  0  0  0  0  0  0  0  0  0  0
   58.7650   33.3020   45.6650 C   0  0  0  0  0  0  0  0  0  0  0  0
   57.7310   33.3740   44.7190 C   0  0  0  0  0  0  0  0  0  0  0  0
   57.1150   32.2070   44.2560 C   0  0  0  0  0  0  0  0  0  0  0  0
   57.5260   30.9550   44.7340 C   0  0  0  0  0  0  0  0  0  0  0  0
   56.7380   29.4790   44.1860 S   0  0  0  0  0  0  0  0  0  0  0  0
   55.1400   29.3980   44.8360 N   0  0  0  0  0  0  0  0  0  0  0  0
   57.5300   28.2870   44.6450 O   0  0  0  0  0  0  0  0  0  0  0  0
   56.6600   29.4600   42.6850 O   0  0  0  0  0  0  0  0  0  0  0  0
   58.5490   30.8820   45.6870 C   0  0  0  0  0  0  0  0  0  0  0  0
   59.1610   32.0480   46.1560 C   0  0  0  0  0  0  0  0  0  0  0  0
   59.3430   32.2160   50.5450 C   0  0  0  0  0  0  0  0  0  0  0  0
   59.3600   31.3380   49.2730 C   0  0  0  0  0  0  0  0  0  0  0  0
   58.7950   29.9100   49.3840 C   0  0  0  0  0  0  0  0  0  0  0  0
   59.6570   28.9510   50.2290 C   0  0  0  0  0  0  0  0  0  0  0  0
   61.0470   29.3950   50.4580 N   0  0  0  0  0  0  0  0  0  0  0  0
   61.8050   28.7300   51.4860 C   0  0  0  0  0  0  0  0  0  0  0  0
   63.0250   29.0090   51.6500 O   0  0  0  0  0  0  0  0  0  0  0  0
   61.1730   27.7870   52.3130 O   0  0  0  0  0  0  0  0  0  0  0  0
   61.0260   27.8630   53.7380 C   0  0  0  0  0  0  0  0  0  0  0  0
   59.7050   27.1650   54.0930 C   0  0  0  0  0  0  0  0  0  0  0  0
   60.9510   29.3320   54.1990 C   0  0  0  0  0  0  0  0  0  0  0  0
   62.1840   27.1300   54.4400 C   0  0  0  0  0  0  0  0  0  0  0  0
   61.7000   30.4840   49.7120 C   0  0  0  0  0  0  0  0  0  0  0  0
   60.7790   31.1580   48.6970 C   0  0  0  0  0  0  0  0  0  0  0  0
   57.9120   29.9870   52.8710 C   0  0  0  0  0  0  0  0  0  0  0  0
   56.8850   29.1190   53.2530 C   0  0  0  0  0  0  0  0  0  0  0  0
   54.4225   28.4093   54.3629 H   0  0  0  0  0  0  0  0  0  0  0  0
   53.5029   28.8154   52.8742 H   0  0  0  0  0  0  0  0  0  0  0  0
   54.6451   27.4290   52.8742 H   0  0  0  0  0  0  0  0  0  0  0  0
   54.2483   30.7081   51.7579 H   0  0  0  0  0  0  0  0  0  0  0  0
   56.0812   32.2662   51.1006 H   0  0  0  0  0  0  0  0  0  0  0  0
   60.3035   34.6909   52.4732 H   0  0  0  0  0  0  0  0  0  0  0  0
   61.4534   34.7490   46.8132 H   0  0  0  0  0  0  0  0  0  0  0  0
   60.7150   33.1421   47.1494 H   0  0  0  0  0  0  0  0  0  0  0  0
   58.6257   35.1301   46.7643 H   0  0  0  0  0  0  0  0  0  0  0  0
   59.7762   35.1559   45.3721 H   0  0  0  0  0  0  0  0  0  0  0  0
   57.4034   34.3532   44.3398 H   0  0  0  0  0  0  0  0  0  0  0  0
   56.3053   32.2718   43.5143 H   0  0  0  0  0  0  0  0  0  0  0  0
   55.1580   28.6990   45.6130 H   0  0  0  0  0  0  0  0  0  0  0  0
   58.8727   29.9024   46.0685 H   0  0  0  0  0  0  0  0  0  0  0  0
   59.9563   31.9826   46.9131 H   0  0  0  0  0  0  0  0  0  0  0  0
   58.6900   31.9263   48.6287 H   0  0  0  0  0  0  0  0  0  0  0  0
   57.7963   29.9692   49.8413 H   0  0  0  0  0  0  0  0  0  0  0  0
   58.7742   29.4991   48.3638 H   0  0  0  0  0  0  0  0  0  0  0  0
   59.1719   28.8306   51.2089 H   0  0  0  0  0  0  0  0  0  0  0  0
   59.7250   28.0146   49.6558 H   0  0  0  0  0  0  0  0  0  0  0  0
   59.6016   27.1103   55.1868 H   0  0  0  0  0  0  0  0  0  0  0  0
   58.8640   27.7364   53.6733 H   0  0  0  0  0  0  0  0  0  0  0  0
   59.7032   26.1482   53.6733 H   0  0  0  0  0  0  0  0  0  0  0  0
   60.9490   29.3717   55.2983 H   0  0  0  0  0  0  0  0  0  0  0  0
   61.8222   29.8821   53.8138 H   0  0  0  0  0  0  0  0  0  0  0  0
   60.0283   29.7905   53.8138 H   0  0  0  0  0  0  0  0  0  0  0  0
   62.0602   27.2083   55.5302 H   0  0  0  0  0  0  0  0  0  0  0  0
   62.1791   26.0701   54.1456 H   0  0  0  0  0  0  0  0  0  0  0  0
   63.1399   27.5879   54.1456 H   0  0  0  0  0  0  0  0  0  0  0  0
   62.0425   31.2431   50.4307 H   0  0  0  0  0  0  0  0  0  0  0  0
   62.5343   30.0392   49.1498 H   0  0  0  0  0  0  0  0  0  0  0  0
   61.1900   32.1449   48.4380 H   0  0  0  0  0  0  0  0  0  0  0  0
   60.7162   30.5202   47.8030 H   0  0  0  0  0  0  0  0  0  0  0  0
   58.9380   29.8114   53.2265 H   0  0  0  0  0  0  0  0  0  0  0  0
   57.1100   28.2496   53.8882 H   0  0  0  0  0  0  0  0  0  0  0  0
  1  2  1  0
  2  3  2  0
  3  4  1  0
  4  5  2  0
  5  6  1  0
  6  7  1  0
  7  8  2  0
  8  9  1  0
  9 10  1  0
 10 11  2  0
 10 12  1  0
 12 13  1  0
 13 14  1  0
 14 15  1  0
 15 16  2  0
 16 17  1  0
 17 18  2  0
 18 19  1  0
 19 20  1  0
 19 21  2  0
 19 22  2  0
 18 23  1  0
 23 24  2  0
  9 25  2  0
 25 26  1  0
 26 27  1  0
 27 28  1  0
 28 29  1  0
 29 30  1  0
 30 31  2  0
 30 32  1  0
 32 33  1  0
 33 34  1  0
 33 35  1  0
 33 36  1  0
 29 37  1  0
 37 38  1  0
  5 39  1  0
 39 40  2  0
 40  2  1  0
 25  6  1  0
 38 26  1  0
 24 15  1  0
  1 41  1  0
  1 42  1  0
  1 43  1  0
  3 44  1  0
  4 45  1  0
  8 46  1  0
 13 47  1  0
 13 48  1  0
 14 49  1  0
 14 50  1  0
 16 51  1  0
 17 52  1  0
 20 53  1  0
 23 54  1  0
 24 55  1  0
 26 56  1  0
 27 57  1  0
 27 58  1  0
 28 59  1  0
 28 60  1  0
 34 61  1  0
 34 62  1  0
 34 63  1  0
 35 64  1  0
 35 65  1  0
 35 66  1  0
 36 67  1  0
 36 68  1  0
 36 69  1  0
 37 70  1  0
 37 71  1  0
 38 72  1  0
 38 73  1  0
 39 74  1  0
 40 75  1  0
M  CHG  2  12  -1  20  -1
M  END
>  <UniqueID>  (43) 
43

>  <SMILES>  (43) 
Cc1ccc(-n2ncc(C(=O)[N-]CCc3ccc(S([NH-])(=O)=O)cc3)c2C2CCN(C(=O)OC(C)(C)C)CC2)cc1

>  <Energy>  (43) 
116.25142703505081

>  <Genealogy>  (43) 
Cc1ccc(-n2ncc(C(=O)[N-]CCc3ccc(S([NH-])(=O)=O)cc3)c2C2CCN(C(=O)OC(C)(C)C)CC2)cc1 (protonated)
Cc1ccc(-n2ncc(C(=O)[N-]CCc3ccc(S([NH-])(=O)=O)cc3)c2C2CCN(C(=O)OC(C)(C)C)CC2)cc1 (3D coordinates assigned)
Cc1ccc(-n2ncc(C(=O)[N-]CCc3ccc(S([NH-])(=O)=O)cc3)c2C2CCN(C(=O)OC(C)(C)C)CC2)cc1 (nonaromatic ring conformer: 116.25142703505081 kcal/mol)

>  <smiles>  (43) 
Cc1ccc(-n2ncc(C(=O)NCCc3ccc(S(N)(=O)=O)cc3)c2C2CCN(C(=O)OC(C)(C)C)CC2)cc1

>  <score_type>  (43) 
oracle

>  <origin>  (43) 
adg

>  <m_score__min__energy>  (43) 
-14.15

>  <m_primary>  (43) 
energy

$$$$
43:0
     RDKit          3D

 40 42  0  0  0  0  0  0  0  0999 V2000
   59.3700   35.4210   45.7690 O   0  0  0  0  0  0  0  0  0  0  0  0
   59.1320   34.4910   46.5830 C   0  0  0  0  0  0  0  0  0  0  0  0
   57.9570   33.5870   46.3340 C   0  0  0  0  0  0  0  0  0  0  0  0
   57.9000   33.0400   44.5920 S   0  0  0  0  0  0  0  0  0  0  0  0
   57.5560   31.3220   44.9660 C   0  0  0  0  0  0  0  0  0  0  0  0
   58.4740   30.5770   45.6260 N   0  0  0  0  0  0  0  0  0  0  0  0
   58.2420   29.2740   45.9280 C   0  0  0  0  0  0  0  0  0  0  0  0
   59.1360   28.6210   46.5270 O   0  0  0  0  0  0  0  0  0  0  0  0
   57.0200   28.6690   45.5580 C   0  0  0  0  0  0  0  0  0  0  0  0
   56.7210   27.2440   45.8700 C   0  0  0  0  0  0  0  0  0  0  0  0
   55.5260   26.8660   46.0070 O   0  0  0  0  0  0  0  0  0  0  0  0
   57.7850   26.2860   45.9700 N   0  0  0  0  0  0  0  0  0  0  0  0
   57.8220   24.9840   45.3670 C   0  0  0  0  0  0  0  0  0  0  0  0
   58.8860   24.1270   45.6830 C   0  0  0  0  0  0  0  0  0  0  0  0
   58.9490   22.8440   45.1320 C   0  0  0  0  0  0  0  0  0  0  0  0
   57.9410   22.4020   44.2720 C   0  0  0  0  0  0  0  0  0  0  0  0
   56.8620   23.2380   43.9720 C   0  0  0  0  0  0  0  0  0  0  0  0
   56.7970   24.5230   44.5190 C   0  0  0  0  0  0  0  0  0  0  0  0
   56.0820   29.4760   44.8790 C   0  0  0  0  0  0  0  0  0  0  0  0
   54.8430   28.9720   44.4960 O   0  0  0  0  0  0  0  0  0  0  0  0
   56.3720   30.7730   44.6020 N   0  0  0  0  0  0  0  0  0  0  0  0
   60.0570   34.2630   47.6560 N   0  0  0  0  0  0  0  0  0  0  0  0
   61.1940   33.3890   47.6400 C   0  0  0  0  0  0  0  0  0  0  0  0
   62.4190   33.8010   47.0860 C   0  0  0  0  0  0  0  0  0  0  0  0
   63.5080   32.9260   47.0510 C   0  0  0  0  0  0  0  0  0  0  0  0
   63.3790   31.6270   47.5500 C   0  0  0  0  0  0  0  0  0  0  0  0
   62.1560   31.1990   48.0730 C   0  0  0  0  0  0  0  0  0  0  0  0
   61.0610   32.0710   48.1110 C   0  0  0  0  0  0  0  0  0  0  0  0
   59.4010   31.4450   48.8310 Br  0  0  0  0  0  0  0  0  0  0  0  0
   58.0398   32.7039   46.9846 H   0  0  0  0  0  0  0  0  0  0  0  0
   57.0354   34.1461   46.5533 H   0  0  0  0  0  0  0  0  0  0  0  0
   59.6761   24.4666   46.3689 H   0  0  0  0  0  0  0  0  0  0  0  0
   59.7929   22.1819   45.3758 H   0  0  0  0  0  0  0  0  0  0  0  0
   57.9965   21.3959   43.8308 H   0  0  0  0  0  0  0  0  0  0  0  0
   56.0625   22.8844   43.3044 H   0  0  0  0  0  0  0  0  0  0  0  0
   55.9427   25.1756   44.2862 H   0  0  0  0  0  0  0  0  0  0  0  0
   62.5206   34.8175   46.6780 H   0  0  0  0  0  0  0  0  0  0  0  0
   64.4679   33.2601   46.6302 H   0  0  0  0  0  0  0  0  0  0  0  0
   64.2395   30.9421   47.5311 H   0  0  0  0  0  0  0  0  0  0  0  0
   62.0530   30.1731   48.4564 H   0  0  0  0  0  0  0  0  0  0  0  0
  1  2  2  0
  2  3  1  0
  3  4  1  0
  4  5  1  0
  5  6  2  0
  6  7  1  0
  7  8  2  0
  7  9  1  0
  9 10  1  0
 10 11  2  0
 10 12  1  0
 12 13  1  0
 13 14  2  0
 14 15  1  0
 15 16  2  0
 16 17  1  0
 17 18  2  0
  9 19  2  0
 19 20  1  0
 19 21  1  0
  2 22  1  0
 22 23  1  0
 23 24  2  0
 24 25  1  0
 25 26  2  0
 26 27  1  0
 27 28  2  0
 28 29  1  0
 21  5  1  0
 28 23  1  0
 18 13  1  0
  3 30  1  0
  3 31  1  0
 14 32  1  0
 15 33  1  0
 16 34  1  0
 17 35  1  0
 18 36  1  0
 24 37  1  0
 25 38  1  0
 26 39  1  0
 27 40  1  0
M  CHG  4  12  -1  20  -1  21  -1  22  -1
M  END
>  <UniqueID>  (44) 
44

>  <SMILES>  (44) 
O=C(CSc1nc(=O)c(C(=O)[N-]c2ccccc2)c([O-])[n-]1)[N-]c1ccccc1Br

>  <Energy>  (44) 
54.202129556046266

>  <Genealogy>  (44) 
O=C(CSc1nc(=O)c(C(=O)[N-]c2ccccc2)c([O-])[n-]1)[N-]c1ccccc1Br (protonated)
O=C(CSc1nc(=O)c(C(=O)[N-]c2ccccc2)c([O-])[n-]1)[N-]c1ccccc1Br (3D coordinates assigned)
O=C(CSc1nc(=O)c(C(=O)[N-]c2ccccc2)c([O-])[n-]1)[N-]c1ccccc1Br (optimized conformer: 54.202129556046266 kcal/mol)

>  <smiles>  (44) 
O=C(CSc1nc(=O)c(C(=O)Nc2ccccc2)c(O)[nH]1)Nc1ccccc1Br

>  <score_type>  (44) 
oracle

>  <origin>  (44) 
adg

>  <m_score__min__energy>  (44) 
-16.699999999999999

>  <m_primary>  (44) 
energy

$$$$
44:0
     RDKit          3D

 44 47  0  0  0  0  0  0  0  0999 V2000
   58.1414   33.0171   47.9977 H   0  0  0  0  0  0  0  0  0  0  0  0
   58.1470   32.9920   46.8980 C   0  0  0  0  0  0  0  0  0  0  0  0
   57.4130   32.0580   46.2380 N   0  0  0  0  0  0  0  0  0  0  0  0
   57.3700   31.9910   44.8800 C   0  0  0  0  0  0  0  0  0  0  0  0
   56.6470   31.0570   44.3260 N   0  0  0  0  0  0  0  0  0  0  0  0
   56.3490   29.7590   44.8650 C   0  0  0  0  0  0  0  0  0  0  0  0
   55.1560   29.3550   44.8350 O   0  0  0  0  0  0  0  0  0  0  0  0
   57.4160   28.8610   45.3760 C   0  0  0  0  0  0  0  0  0  0  0  0
   57.7230   27.6610   44.7130 C   0  0  0  0  0  0  0  0  0  0  0  0
   57.1738   27.3834   43.8012 H   0  0  0  0  0  0  0  0  0  0  0  0
   58.7220   26.8190   45.2060 C   0  0  0  0  0  0  0  0  0  0  0  0
   58.9585   25.8829   44.6789 H   0  0  0  0  0  0  0  0  0  0  0  0
   59.4220   27.1600   46.3650 C   0  0  0  0  0  0  0  0  0  0  0  0
   60.2043   26.4895   46.7503 H   0  0  0  0  0  0  0  0  0  0  0  0
   59.1310   28.3540   47.0390 C   0  0  0  0  0  0  0  0  0  0  0  0
   59.8500   28.7000   48.3140 C   0  0  0  0  0  0  0  0  0  0  0  0
   59.1564   28.5980   49.1616 H   0  0  0  0  0  0  0  0  0  0  0  0
   60.7025   28.0168   48.4425 H   0  0  0  0  0  0  0  0  0  0  0  0
   60.3440   30.0740   48.2570 N   0  0  0  0  0  0  0  0  0  0  0  0
   60.4520   30.9790   49.3590 C   0  0  0  0  0  0  0  0  0  0  0  0
   59.8720   30.8230   50.4660 O   0  0  0  0  0  0  0  0  0  0  0  0
   61.3410   32.0820   49.0150 C   0  0  0  0  0  0  0  0  0  0  0  0
   61.7440   33.1930   49.7550 C   0  0  0  0  0  0  0  0  0  0  0  0
   61.3720   33.3581   50.7770 H   0  0  0  0  0  0  0  0  0  0  0  0
   62.6400   34.0960   49.1560 C   0  0  0  0  0  0  0  0  0  0  0  0
   62.9748   34.9835   49.7131 H   0  0  0  0  0  0  0  0  0  0  0  0
   63.1130   33.8720   47.8450 C   0  0  0  0  0  0  0  0  0  0  0  0
   63.8133   34.5863   47.3874 H   0  0  0  0  0  0  0  0  0  0  0  0
   62.6950   32.7420   47.1200 C   0  0  0  0  0  0  0  0  0  0  0  0
   63.0607   32.5564   46.0993 H   0  0  0  0  0  0  0  0  0  0  0  0
   61.8030   31.8640   47.7340 C   0  0  0  0  0  0  0  0  0  0  0  0
   61.2100   30.6190   47.2580 C   0  0  0  0  0  0  0  0  0  0  0  0
   61.4330   30.0820   46.1410 O   0  0  0  0  0  0  0  0  0  0  0  0
   58.1190   29.1950   46.5480 C   0  0  0  0  0  0  0  0  0  0  0  0
   57.8738   30.1233   47.0847 H   0  0  0  0  0  0  0  0  0  0  0  0
   58.1270   32.9110   44.1250 C   0  0  0  0  0  0  0  0  0  0  0  0
   58.1208   32.8644   43.0260 H   0  0  0  0  0  0  0  0  0  0  0  0
   58.8840   33.8810   44.7840 C   0  0  0  0  0  0  0  0  0  0  0  0
   59.4615   34.6149   44.2027 H   0  0  0  0  0  0  0  0  0  0  0  0
   58.9100   33.9220   46.1830 C   0  0  0  0  0  0  0  0  0  0  0  0
   59.6900   34.9840   46.9010 C   0  0  0  0  0  0  0  0  0  0  0  0
   59.5868   34.8436   47.9871 H   0  0  0  0  0  0  0  0  0  0  0  0
   60.7513   34.9118   46.6211 H   0  0  0  0  0  0  0  0  0  0  0  0
   59.3036   35.9751   46.6211 H   0  0  0  0  0  0  0  0  0  0  0  0
  1  2  1  0
  2  3  1  0
  3  4  1  0
  4  5  2  0
  5  6  1  0
  6  7  2  0
  6  8  1  0
  8  9  2  0
  9 10  1  0
  9 11  1  0
 11 12  1  0
 11 13  2  0
 13 14  1  0
 13 15  1  0
 15 16  1  0
 16 17  1  0
 16 18  1  0
 16 19  1  0
 19 20  1  0
 20 21  2  0
 20 22  1  0
 22 23  2  0
 23 24  1  0
 23 25  1  0
 25 26  1  0
 25 27  2  0
 27 28  1  0
 27 29  1  0
 29 30  1  0
 29 31  2  0
 31 32  1  0
 32 33  2  0
 15 34  2  0
 34 35  1  0
  4 36  1  0
 36 37  1  0
 36 38  2  0
 38 39  1  0
 38 40  1  0
 40 41  1  0
 41 42  1  0
 41 43  1  0
 41 44  1  0
 40  2  2  0
 34  8  1  0
 32 19  1  0
 31 22  1  0
M  CHG  1   3  -1
M  END
>  <UniqueID>  (45) 
45

>  <SMILES>  (45) 
Cc1cc/c(=N\C(=O)c2cccc(CN3C(=O)c4ccccc4C3=O)c2)[n-]c1

>  <Energy>  (45) 
89.19625755415326

>  <Genealogy>  (45) 
Cc1ccc(=NC(=O)c2cccc(CN3C(=O)c4ccccc4C3=O)c2)[n-]c1 (protonated)
Cc1cc/c(=N\C(=O)c2cccc(CN3C(=O)c4ccccc4C3=O)c2)[n-]c1 (cis-trans isomerization)
Cc1cc/c(=N\C(=O)c2cccc(CN3C(=O)c4ccccc4C3=O)c2)[n-]c1 (3D coordinates assigned)
Cc1cc/c(=N\C(=O)c2cccc(CN3C(=O)c4ccccc4C3=O)c2)[n-]c1 (nonaromatic ring conformer: 89.19625755415326 kcal/mol)

>  <smiles>  (45) 
Cc1ccc(=NC(=O)c2cccc(CN3C(=O)c4ccccc4C3=O)c2)[nH]c1

>  <score_type>  (45) 
oracle

>  <origin>  (45) 
adg

>  <m_score__min__energy>  (45) 
-11.390000000000001

>  <m_primary>  (45) 
energy

$$$$
45:0
     RDKit          3D

 52 54  0  0  0  0  0  0  0  0999 V2000
   63.3610   33.7010   46.5570 C   0  0  0  0  0  0  0  0  0  0  0  0
   62.1910   33.1130   47.3510 C   0  0  0  0  0  0  0  0  0  0  0  0
   61.9990   33.8750   48.6610 C   0  0  0  0  0  0  0  0  0  0  0  0
   62.4380   31.7370   47.6470 O   0  0  0  0  0  0  0  0  0  0  0  0
   62.1950   31.1610   48.8970 C   0  0  0  0  0  0  0  0  0  0  0  0
   62.8470   31.5320   49.9120 O   0  0  0  0  0  0  0  0  0  0  0  0
   61.2370   30.1020   48.9950 N   0  0  0  0  0  0  0  0  0  0  0  0
   60.3520   29.6650   47.9530 C   0  0  0  0  0  0  0  0  0  0  0  0
   60.5340   28.3920   47.4060 C   0  0  0  0  0  0  0  0  0  0  0  0
   59.6730   27.9200   46.4130 C   0  0  0  0  0  0  0  0  0  0  0  0
   58.6220   28.7180   45.9460 C   0  0  0  0  0  0  0  0  0  0  0  0
   57.6640   28.1230   45.0580 N   0  0  0  0  0  0  0  0  0  0  0  0
   56.2410   28.0760   45.2460 C   0  0  0  0  0  0  0  0  0  0  0  0
   55.5530   29.0760   44.9180 O   0  0  0  0  0  0  0  0  0  0  0  0
   55.5790   26.9380   45.8200 N   0  0  0  0  0  0  0  0  0  0  0  0
   56.1080   25.6080   45.9070 C   0  0  0  0  0  0  0  0  0  0  0  0
   56.6530   25.1730   47.1210 C   0  0  0  0  0  0  0  0  0  0  0  0
   57.2180   23.8970   47.2220 C   0  0  0  0  0  0  0  0  0  0  0  0
   57.2270   23.0450   46.1130 C   0  0  0  0  0  0  0  0  0  0  0  0
   56.6540   23.4620   44.9070 C   0  0  0  0  0  0  0  0  0  0  0  0
   56.6660   22.3940   43.5150 Cl  0  0  0  0  0  0  0  0  0  0  0  0
   56.0820   24.7340   44.8060 C   0  0  0  0  0  0  0  0  0  0  0  0
   58.5070   30.0510   46.4100 C   0  0  0  0  0  0  0  0  0  0  0  0
   57.5560   30.9430   45.8980 O   0  0  0  0  0  0  0  0  0  0  0  0
   57.8640   32.0110   45.0460 C   0  0  0  0  0  0  0  0  0  0  0  0
   57.6390   31.9180   43.8080 O   0  0  0  0  0  0  0  0  0  0  0  0
   58.4660   33.2410   45.6030 C   0  0  0  0  0  0  0  0  0  0  0  0
   58.4880   33.4670   46.9910 C   0  0  0  0  0  0  0  0  0  0  0  0
   59.0700   34.6270   47.5100 C   0  0  0  0  0  0  0  0  0  0  0  0
   59.6370   35.5720   46.6510 C   0  0  0  0  0  0  0  0  0  0  0  0
   59.6220   35.3570   45.2710 C   0  0  0  0  0  0  0  0  0  0  0  0
   59.0410   34.1990   44.7460 C   0  0  0  0  0  0  0  0  0  0  0  0
   59.3510   30.5010   47.4310 C   0  0  0  0  0  0  0  0  0  0  0  0
   64.1216   34.0833   47.2537 H   0  0  0  0  0  0  0  0  0  0  0  0
   63.8042   32.9186   45.9235 H   0  0  0  0  0  0  0  0  0  0  0  0
   62.9976   34.5236   45.9235 H   0  0  0  0  0  0  0  0  0  0  0  0
   61.2816   33.2028   46.7387 H   0  0  0  0  0  0  0  0  0  0  0  0
   62.1702   33.1955   49.5089 H   0  0  0  0  0  0  0  0  0  0  0  0
   62.7152   34.7085   48.7087 H   0  0  0  0  0  0  0  0  0  0  0  0
   60.9733   34.2697   48.7087 H   0  0  0  0  0  0  0  0  0  0  0  0
   61.3604   27.7580   47.7597 H   0  0  0  0  0  0  0  0  0  0  0  0
   59.8218   26.9136   45.9947 H   0  0  0  0  0  0  0  0  0  0  0  0
   56.6370   25.8365   47.9982 H   0  0  0  0  0  0  0  0  0  0  0  0
   57.6555   23.5636   48.1746 H   0  0  0  0  0  0  0  0  0  0  0  0
   57.6844   22.0475   46.1891 H   0  0  0  0  0  0  0  0  0  0  0  0
   55.6111   25.0512   43.8639 H   0  0  0  0  0  0  0  0  0  0  0  0
   58.0444   32.7262   47.6724 H   0  0  0  0  0  0  0  0  0  0  0  0
   59.0817   34.7963   48.5968 H   0  0  0  0  0  0  0  0  0  0  0  0
   60.0947   36.4843   47.0612 H   0  0  0  0  0  0  0  0  0  0  0  0
   60.0687   36.1012   44.5952 H   0  0  0  0  0  0  0  0  0  0  0  0
   59.0330   34.0354   43.6583 H   0  0  0  0  0  0  0  0  0  0  0  0
   59.2296   31.5193   47.8289 H   0  0  0  0  0  0  0  0  0  0  0  0
  1  2  1  0
  2  3  1  0
  2  4  1  0
  4  5  1  0
  5  6  2  0
  5  7  1  0
  7  8  1  0
  8  9  2  0
  9 10  1  0
 10 11  2  0
 11 12  1  0
 12 13  1  0
 13 14  2  0
 13 15  1  0
 15 16  1  0
 16 17  2  0
 17 18  1  0
 18 19  2  0
 19 20  1  0
 20 21  1  0
 20 22  2  0
 11 23  1  0
 23 24  1  0
 24 25  1  0
 25 26  2  0
 25 27  1  0
 27 28  2  0
 28 29  1  0
 29 30  2  0
 30 31  1  0
 31 32  2  0
 23 33  2  0
 33  8  1  0
 22 16  1  0
 32 27  1  0
  1 34  1  0
  1 35  1  0
  1 36  1  0
  2 37  1  0
  3 38  1  0
  3 39  1  0
  3 40  1  0
  9 41  1  0
 10 42  1  0
 17 43  1  0
 18 44  1  0
 19 45  1  0
 22 46  1  0
 28 47  1  0
 29 48  1  0
 30 49  1  0
 31 50  1  0
 32 51  1  0
 33 52  1  0
M  CHG  3   7  -1  12  -1  15  -1
M  END
>  <UniqueID>  (46) 
46

>  <SMILES>  (46) 
CC(C)OC(=O)[N-]c1ccc([N-]C(=O)[N-]c2cccc(Cl)c2)c(OC(=O)c2ccccc2)c1

>  <Energy>  (46) 
64.99370978327693

>  <Genealogy>  (46) 
CC(C)OC(=O)[N-]c1ccc([N-]C(=O)[N-]c2cccc(Cl)c2)c(OC(=O)c2ccccc2)c1 (protonated)
CC(C)OC(=O)[N-]c1ccc([N-]C(=O)[N-]c2cccc(Cl)c2)c(OC(=O)c2ccccc2)c1 (3D coordinates assigned)
CC(C)OC(=O)[N-]c1ccc([N-]C(=O)[N-]c2cccc(Cl)c2)c(OC(=O)c2ccccc2)c1 (optimized conformer: 64.99370978327693 kcal/mol)

>  <smiles>  (46) 
CC(C)OC(=O)Nc1ccc(NC(=O)Nc2cccc(Cl)c2)c(OC(=O)c2ccccc2)c1

>  <score_type>  (46) 
oracle

>  <origin>  (46) 
adg

>  <m_score__min__energy>  (46) 
-13.09

>  <m_primary>  (46) 
energy

$$$$
46:0
     RDKit          3D

 36 38  0  0  0  0  0  0  0  0999 V2000
   51.1610   32.2750   50.4800 N   0  0  0  0  0  0  0  0  0  0  0  0
   51.8680   31.0370   50.5310 C   0  0  0  0  0  0  0  0  0  0  0  0
   51.7270   30.2110   49.5890 O   0  0  0  0  0  0  0  0  0  0  0  0
   52.7570   30.7230   51.6740 C   0  0  0  0  0  0  0  0  0  0  0  0
   52.2620   30.7420   52.9900 C   0  0  0  0  0  0  0  0  0  0  0  0
   53.0980   30.4360   54.0660 C   0  0  0  0  0  0  0  0  0  0  0  0
   54.4390   30.1180   53.8450 C   0  0  0  0  0  0  0  0  0  0  0  0
   54.9590   30.1120   52.5480 C   0  0  0  0  0  0  0  0  0  0  0  0
   56.3090   29.7760   52.3640 O   0  0  0  0  0  0  0  0  0  0  0  0
   57.2330   30.5210   51.6160 C   0  0  0  0  0  0  0  0  0  0  0  0
   58.1740   29.8410   50.8360 C   0  0  0  0  0  0  0  0  0  0  0  0
   59.1030   30.5510   50.0690 C   0  0  0  0  0  0  0  0  0  0  0  0
   59.1010   31.9510   50.0740 C   0  0  0  0  0  0  0  0  0  0  0  0
   60.0600   32.6520   49.2700 N   0  0  0  0  0  0  0  0  0  0  0  0
   59.8310   33.8850   48.5730 C   0  0  0  0  0  0  0  0  0  0  0  0
   60.3080   34.9460   49.0530 O   0  0  0  0  0  0  0  0  0  0  0  0
   59.1010   33.9350   47.2890 C   0  0  0  0  0  0  0  0  0  0  0  0
   59.5520   34.6350   46.1550 C   0  0  0  0  0  0  0  0  0  0  0  0
   58.6930   34.5480   45.0680 C   0  0  0  0  0  0  0  0  0  0  0  0
   57.3700   33.6180   45.5220 S   0  0  0  0  0  0  0  0  0  0  0  0
   57.8700   33.3130   47.0960 C   0  0  0  0  0  0  0  0  0  0  0  0
   58.1930   32.6350   50.9010 C   0  0  0  0  0  0  0  0  0  0  0  0
   57.2650   31.9250   51.6660 C   0  0  0  0  0  0  0  0  0  0  0  0
   54.1100   30.3970   51.4610 C   0  0  0  0  0  0  0  0  0  0  0  0
   50.2220   32.3400   50.0280 H   0  0  0  0  0  0  0  0  0  0  0  0
   51.2085   30.9998   53.1733 H   0  0  0  0  0  0  0  0  0  0  0  0
   52.6984   30.4456   55.0908 H   0  0  0  0  0  0  0  0  0  0  0  0
   55.0900   29.8708   54.6965 H   0  0  0  0  0  0  0  0  0  0  0  0
   58.1833   28.7411   50.8258 H   0  0  0  0  0  0  0  0  0  0  0  0
   59.8389   30.0069   49.4588 H   0  0  0  0  0  0  0  0  0  0  0  0
   60.4965   35.1983   46.1319 H   0  0  0  0  0  0  0  0  0  0  0  0
   58.8512   35.0079   44.0814 H   0  0  0  0  0  0  0  0  0  0  0  0
   57.3203   32.7239   47.8449 H   0  0  0  0  0  0  0  0  0  0  0  0
   58.2135   33.7339   50.9458 H   0  0  0  0  0  0  0  0  0  0  0  0
   56.5566   32.4667   52.3100 H   0  0  0  0  0  0  0  0  0  0  0  0
   54.5077   30.3646   50.4359 H   0  0  0  0  0  0  0  0  0  0  0  0
  1  2  1  0
  2  3  2  0
  2  4  1  0
  4  5  2  0
  5  6  1  0
  6  7  2  0
  7  8  1  0
  8  9  1  0
  9 10  1  0
 10 11  2  0
 11 12  1  0
 12 13  2  0
 13 14  1  0
 14 15  1  0
 15 16  2  0
 15 17  1  0
 17 18  1  0
 18 19  2  0
 19 20  1  0
 20 21  1  0
 13 22  1  0
 22 23  2  0
  8 24  2  0
 24  4  1  0
 23 10  1  0
 21 17  2  0
  1 25  1  0
  5 26  1  0
  6 27  1  0
  7 28  1  0
 11 29  1  0
 12 30  1  0
 18 31  1  0
 19 32  1  0
 21 33  1  0
 22 34  1  0
 23 35  1  0
 24 36  1  0
M  CHG  2   1  -1  14  -1
M  END
>  <UniqueID>  (47) 
47

>  <SMILES>  (47) 
[NH-]C(=O)c1cccc(Oc2ccc([N-]C(=O)c3ccsc3)cc2)c1

>  <Energy>  (47) 
76.40513733211603

>  <Genealogy>  (47) 
[NH-]C(=O)c1cccc(Oc2ccc([N-]C(=O)c3ccsc3)cc2)c1 (protonated)
[NH-]C(=O)c1cccc(Oc2ccc([N-]C(=O)c3ccsc3)cc2)c1 (3D coordinates assigned)
[NH-]C(=O)c1cccc(Oc2ccc([N-]C(=O)c3ccsc3)cc2)c1 (optimized conformer: 76.40513733211603 kcal/mol)

>  <smiles>  (47) 
NC(=O)c1cccc(Oc2ccc(NC(=O)c3ccsc3)cc2)c1

>  <score_type>  (47) 
oracle

>  <origin>  (47) 
adg

>  <m_score__min__energy>  (47) 
-12.199999999999999

>  <m_primary>  (47) 
energy

$$$$
47:0
     RDKit          3D

 31 33  0  0  0  0  0  0  0  0999 V2000
   55.3470   26.6650   45.9620 O   0  0  0  0  0  0  0  0  0  0  0  0
   56.5480   26.8960   46.2140 N   0  0  0  0  0  0  0  0  0  0  0  0
   57.1600   28.1320   45.8410 C   0  0  0  0  0  0  0  0  0  0  0  0
   56.6090   29.1550   45.0820 C   0  0  0  0  0  0  0  0  0  0  0  0
   55.3220   29.1310   44.5460 O   0  0  0  0  0  0  0  0  0  0  0  0
   57.4970   30.1770   44.9450 N   0  0  0  0  0  0  0  0  0  0  0  0
   57.2870   31.4660   44.2740 C   0  0  0  0  0  0  0  0  0  0  0  0
   57.8840   32.5840   45.0850 C   0  0  0  0  0  0  0  0  0  0  0  0
   58.7370   33.5220   44.4780 C   0  0  0  0  0  0  0  0  0  0  0  0
   59.2790   34.5710   45.2260 C   0  0  0  0  0  0  0  0  0  0  0  0
   58.9750   34.6940   46.5840 C   0  0  0  0  0  0  0  0  0  0  0  0
   58.1290   33.7660   47.1970 C   0  0  0  0  0  0  0  0  0  0  0  0
   57.5850   32.7150   46.4530 C   0  0  0  0  0  0  0  0  0  0  0  0
   58.6000   29.7940   45.6310 C   0  0  0  0  0  0  0  0  0  0  0  0
   59.7940   30.5000   45.8110 C   0  0  0  0  0  0  0  0  0  0  0  0
   60.8110   29.8990   46.5760 C   0  0  0  0  0  0  0  0  0  0  0  0
   60.6210   28.6190   47.1410 C   0  0  0  0  0  0  0  0  0  0  0  0
   59.4120   27.9270   46.9490 C   0  0  0  0  0  0  0  0  0  0  0  0
   58.4240   28.5460   46.1870 C   0  0  0  0  0  0  0  0  0  0  0  0
   54.7660   28.2880   44.5010 H   0  0  0  0  0  0  0  0  0  0  0  0
   57.7655   31.4412   43.2838 H   0  0  0  0  0  0  0  0  0  0  0  0
   56.2062   31.6406   44.1677 H   0  0  0  0  0  0  0  0  0  0  0  0
   58.9792   33.4300   43.4089 H   0  0  0  0  0  0  0  0  0  0  0  0
   59.9462   35.3011   44.7445 H   0  0  0  0  0  0  0  0  0  0  0  0
   59.4015   35.5211   47.1705 H   0  0  0  0  0  0  0  0  0  0  0  0
   57.8908   33.8627   48.2665 H   0  0  0  0  0  0  0  0  0  0  0  0
   56.9197   31.9868   46.9399 H   0  0  0  0  0  0  0  0  0  0  0  0
   59.9341   31.4967   45.3672 H   0  0  0  0  0  0  0  0  0  0  0  0
   61.7609   30.4304   46.7349 H   0  0  0  0  0  0  0  0  0  0  0  0
   61.4245   28.1598   47.7356 H   0  0  0  0  0  0  0  0  0  0  0  0
   59.2519   26.9303   47.3859 H   0  0  0  0  0  0  0  0  0  0  0  0
  1  2  2  0
  2  3  1  0
  3  4  2  0
  4  5  1  0
  4  6  1  0
  6  7  1  0
  7  8  1  0
  8  9  2  0
  9 10  1  0
 10 11  2  0
 11 12  1  0
 12 13  2  0
  6 14  1  0
 14 15  2  0
 15 16  1  0
 16 17  2  0
 17 18  1  0
 18 19  2  0
 19  3  1  0
 13  8  1  0
 19 14  1  0
  5 20  1  0
  7 21  1  0
  7 22  1  0
  9 23  1  0
 10 24  1  0
 11 25  1  0
 12 26  1  0
 13 27  1  0
 15 28  1  0
 16 29  1  0
 17 30  1  0
 18 31  1  0
M  END
>  <UniqueID>  (48) 
48

>  <SMILES>  (48) 
O=Nc1c(O)n(Cc2ccccc2)c2ccccc12

>  <Energy>  (48) 
69.5364655406899

>  <Genealogy>  (48) 
O=Nc1c(O)n(Cc2ccccc2)c2ccccc12 (3D coordinates assigned)
O=Nc1c(O)n(Cc2ccccc2)c2ccccc12 (optimized conformer: 69.5364655406899 kcal/mol)

>  <smiles>  (48) 
O=Nc1c(O)n(Cc2ccccc2)c2ccccc12

>  <score_type>  (48) 
oracle

>  <origin>  (48) 
adg

>  <m_score__min__energy>  (48) 
-8.5999999999999996

>  <m_primary>  (48) 
energy

$$$$
48:0
     RDKit          3D

 45 47  0  0  1  0  0  0  0  0999 V2000
   57.2300   25.2280   44.5580 C   0  0  0  0  0  0  0  0  0  0  0  0
   56.6340   26.0770   45.9770 S   0  0  0  0  0  0  0  0  0  0  0  0
   55.9800   25.1300   46.9530 O   0  0  0  0  0  0  0  0  0  0  0  0
   55.5810   27.0960   45.6290 O   0  0  0  0  0  0  0  0  0  0  0  0
   57.9500   26.9050   46.7430 C   0  0  0  0  0  0  0  0  0  0  0  0
   57.8090   28.2340   47.0360 C   0  0  0  0  0  0  0  0  0  0  0  0
   58.8190   28.9330   47.6420 C   0  0  0  0  0  0  0  0  0  0  0  0
   60.0380   28.3520   47.9960 C   0  0  0  0  0  0  0  0  0  0  0  0
   61.0670   29.0770   48.6450 N   0  0  0  0  0  0  0  0  0  0  0  0
   61.2580   30.4700   48.5750 C   0  0  0  0  0  0  0  0  0  0  0  0
   60.8150   31.1780   47.4510 C   0  0  0  0  0  0  0  0  0  0  0  0
   61.0330   32.5540   47.3700 C   0  0  0  0  0  0  0  0  0  0  0  0
   60.6380   33.2580   46.3630 N   0  0  0  0  0  0  0  0  0  0  0  0
   59.2710   33.1690   45.9370 C   0  0  0  0  0  0  0  0  0  0  0  0
   58.3620   34.1850   46.1060 C   0  0  0  0  0  0  0  0  0  0  0  0
   57.0540   33.9730   45.6470 C   0  0  0  0  0  0  0  0  0  0  0  0
   56.7130   32.7630   45.0440 C   0  0  0  0  0  0  0  0  0  0  0  0
   57.6430   31.7450   44.8800 C   0  0  0  0  0  0  0  0  0  0  0  0
   57.2580   30.2210   44.1310 S   0  0  0  0  0  0  0  0  0  0  0  0
   55.7950   29.6010   44.8320 N   0  0  0  0  0  0  0  0  0  0  0  0
   56.9470   30.4480   42.6570 O   0  0  0  0  0  0  0  0  0  0  0  0
   58.3840   29.2510   44.1930 O   0  0  0  0  0  0  0  0  0  0  0  0
   58.9250   31.9580   45.3320 C   0  0  0  0  0  0  0  0  0  0  0  0
   61.6560   33.1690   48.3570 N   0  0  0  0  0  0  0  0  0  0  0  0
   62.0900   32.5130   49.4460 C   0  0  0  0  0  0  0  0  0  0  0  0
   61.8820   31.1710   49.5330 N   0  0  0  0  0  0  0  0  0  0  0  0
   60.1740   26.9970   47.6940 C   0  0  0  0  0  0  0  0  0  0  0  0
   59.1430   26.2870   47.0760 C   0  0  0  0  0  0  0  0  0  0  0  0
   57.8354   24.3657   44.8740 H   0  0  0  0  0  0  0  0  0  0  0  0
   56.3787   24.8775   43.9560 H   0  0  0  0  0  0  0  0  0  0  0  0
   57.8489   25.9096   43.9560 H   0  0  0  0  0  0  0  0  0  0  0  0
   56.8708   28.7486   46.7812 H   0  0  0  0  0  0  0  0  0  0  0  0
   58.6626   29.9999   47.8595 H   0  0  0  0  0  0  0  0  0  0  0  0
   61.7340   28.4990   49.2250 H   0  0  0  0  0  0  0  0  0  0  0  0
   60.2974   30.6518   46.6354 H   0  0  0  0  0  0  0  0  0  0  0  0
   58.6503   35.1324   46.5849 H   0  0  0  0  0  0  0  0  0  0  0  0
   56.2963   34.7620   45.7628 H   0  0  0  0  0  0  0  0  0  0  0  0
   55.6827   32.6112   44.6898 H   0  0  0  0  0  0  0  0  0  0  0  0
   55.5490   28.7640   44.2650 H   0  0  0  0  0  0  0  0  0  0  0  0
   56.0510   29.2480   45.7850 H   0  0  0  0  0  0  0  0  0  0  0  0
   59.6829   31.1692   45.2162 H   0  0  0  0  0  0  0  0  0  0  0  0
   62.6053   33.0521   50.2546 H   0  0  0  0  0  0  0  0  0  0  0  0
   62.2540   30.7270   50.3990 H   0  0  0  0  0  0  0  0  0  0  0  0
   61.1105   26.4785   47.9474 H   0  0  0  0  0  0  0  0  0  0  0  0
   59.2809   25.2193   46.8501 H   0  0  0  0  0  0  0  0  0  0  0  0
  1  2  1  0
  2  3  2  0
  2  4  2  0
  2  5  1  0
  5  6  2  0
  6  7  1  0
  7  8  2  0
  8  9  1  0
  9 10  1  0
 10 11  2  0
 11 12  1  0
 12 13  2  0
 13 14  1  0
 14 15  2  0
 15 16  1  0
 16 17  2  0
 17 18  1  0
 18 19  1  0
 19 20  1  0
 19 21  2  0
 19 22  2  0
 18 23  2  0
 12 24  1  0
 24 25  2  0
 25 26  1  0
  8 27  1  0
 27 28  2  0
 28  5  1  0
 26 10  1  0
 23 14  1  0
  1 29  1  0
  1 30  1  0
  1 31  1  0
  6 32  1  0
  7 33  1  0
  9 34  1  0
 11 35  1  0
 15 36  1  0
 16 37  1  0
 17 38  1  0
 20 39  1  0
 20 40  1  0
 23 41  1  0
 25 42  1  0
 26 43  1  0
 27 44  1  0
 28 45  1  0
M  END
>  <smiles>  (49) 
CS(=O)(=O)c1ccc(Nc2cc(=Nc3cccc(S(N)(=O)=O)c3)nc[nH]2)cc1

>  <score_type>  (49) 
oracle

>  <origin>  (49) 
adg

>  <m_score__min__energy>  (49) 
-10.08

>  <m_primary>  (49) 
energy

$$$$
49:0
     RDKit          3D

 32 35  0  0  0  0  0  0  0  0999 V2000
   57.2900   30.9100   52.2770 C   0  0  0  0  0  0  0  0  0  0  0  0
   58.2350   31.2940   51.1880 C   0  0  0  0  0  0  0  0  0  0  0  0
   59.4850   30.7490   50.9770 C   0  0  0  0  0  0  0  0  0  0  0  0
   60.0070   31.4190   49.8920 C   0  0  0  0  0  0  0  0  0  0  0  0
   59.0380   32.3320   49.5080 C   0  0  0  0  0  0  0  0  0  0  0  0
   59.1230   33.3090   48.4100 C   0  0  0  0  0  0  0  0  0  0  0  0
   59.6490   34.5950   48.5220 C   0  0  0  0  0  0  0  0  0  0  0  0
   59.5930   35.2380   47.3350 N   0  0  0  0  0  0  0  0  0  0  0  0
   59.0250   34.3730   46.4810 C   0  0  0  0  0  0  0  0  0  0  0  0
   58.7430   34.6150   45.1800 N   0  0  0  0  0  0  0  0  0  0  0  0
   58.1220   33.6510   44.4380 C   0  0  0  0  0  0  0  0  0  0  0  0
   57.7540   32.4100   45.0240 C   0  0  0  0  0  0  0  0  0  0  0  0
   57.0600   31.3590   44.2450 C   0  0  0  0  0  0  0  0  0  0  0  0
   57.2140   31.0800   42.8970 C   0  0  0  0  0  0  0  0  0  0  0  0
   56.3650   30.0270   42.6320 C   0  0  0  0  0  0  0  0  0  0  0  0
   55.7470   29.7240   43.8250 C   0  0  0  0  0  0  0  0  0  0  0  0
   56.1800   30.5330   44.7640 O   0  0  0  0  0  0  0  0  0  0  0  0
   58.0530   32.1830   46.3870 C   0  0  0  0  0  0  0  0  0  0  0  0
   58.7150   33.1880   47.0900 C   0  0  0  0  0  0  0  0  0  0  0  0
   57.9990   32.2380   50.3070 O   0  0  0  0  0  0  0  0  0  0  0  0
   57.7590   31.1006   53.2536 H   0  0  0  0  0  0  0  0  0  0  0  0
   56.3691   31.5052   52.1901 H   0  0  0  0  0  0  0  0  0  0  0  0
   57.0453   29.8411   52.1901 H   0  0  0  0  0  0  0  0  0  0  0  0
   59.9653   29.9459   51.5553 H   0  0  0  0  0  0  0  0  0  0  0  0
   60.9910   31.2614   49.4263 H   0  0  0  0  0  0  0  0  0  0  0  0
   60.0539   35.0269   49.4491 H   0  0  0  0  0  0  0  0  0  0  0  0
   59.9160   36.2100   47.1310 H   0  0  0  0  0  0  0  0  0  0  0  0
   57.9045   33.8373   43.3759 H   0  0  0  0  0  0  0  0  0  0  0  0
   57.8771   31.5930   42.1849 H   0  0  0  0  0  0  0  0  0  0  0  0
   56.2119   29.5291   41.6632 H   0  0  0  0  0  0  0  0  0  0  0  0
   55.0039   28.9258   43.9691 H   0  0  0  0  0  0  0  0  0  0  0  0
   57.7712   31.2402   46.8786 H   0  0  0  0  0  0  0  0  0  0  0  0
  1  2  1  0
  2  3  2  0
  3  4  1  0
  4  5  2  0
  5  6  1  0
  6  7  2  0
  7  8  1  0
  8  9  1  0
  9 10  2  0
 10 11  1  0
 11 12  2  0
 12 13  1  0
 13 14  2  0
 14 15  1  0
 15 16  2  0
 16 17  1  0
 12 18  1  0
 18 19  2  0
  5 20  1  0
 20  2  1  0
 19  6  1  0
 19  9  1  0
 17 13  1  0
  1 21  1  0
  1 22  1  0
  1 23  1  0
  3 24  1  0
  4 25  1  0
  7 26  1  0
  8 27  1  0
 11 28  1  0
 14 29  1  0
 15 30  1  0
 16 31  1  0
 18 32  1  0
M  END
>  <UniqueID>  (50) 
49

>  <SMILES>  (50) 
Cc1ccc(-c2c[nH]c3ncc(-c4ccco4)cc23)o1

>  <Energy>  (50) 
125.12672722650873

>  <Genealogy>  (50) 
Cc1ccc(-c2c[nH]c3ncc(-c4ccco4)cc23)o1 (3D coordinates assigned)
Cc1ccc(-c2c[nH]c3ncc(-c4ccco4)cc23)o1 (optimized conformer: 125.12672722650873 kcal/mol)

>  <smiles>  (50) 
Cc1ccc(-c2c[nH]c3ncc(-c4ccco4)cc23)o1

>  <score_type>  (50) 
oracle

>  <origin>  (50) 
adg

>  <m_score__min__energy>  (50) 
-7.0899999999999999

>  <m_primary>  (50) 
energy

$$$$
50:0
     RDKit          3D

 57 60  0  0  0  0  0  0  0  0999 V2000
   54.3880   25.9640   45.9840 O   0  0  0  0  0  0  0  0  0  0  0  0
   55.6370   26.1200   45.9830 C   0  0  0  0  0  0  0  0  0  0  0  0
   56.5240   24.9740   46.3930 C   0  0  0  0  0  0  0  0  0  0  0  0
   56.7090   24.0070   45.2540 C   0  0  0  0  0  0  0  0  0  0  0  0
   57.7610   23.0750   45.2820 C   0  0  0  0  0  0  0  0  0  0  0  0
   57.9190   22.1600   44.2370 C   0  0  0  0  0  0  0  0  0  0  0  0
   57.0270   22.1630   43.1620 C   0  0  0  0  0  0  0  0  0  0  0  0
   55.9710   23.0780   43.1320 C   0  0  0  0  0  0  0  0  0  0  0  0
   55.8080   23.9950   44.1760 C   0  0  0  0  0  0  0  0  0  0  0  0
   56.1700   27.4040   45.6340 N   0  0  0  0  0  0  0  0  0  0  0  0
   57.5450   27.8070   45.7030 C   0  0  0  0  0  0  0  0  0  0  0  0
   58.2910   27.8660   44.5220 C   0  0  0  0  0  0  0  0  0  0  0  0
   59.6380   28.2310   44.5550 C   0  0  0  0  0  0  0  0  0  0  0  0
   60.2560   28.5240   45.7730 C   0  0  0  0  0  0  0  0  0  0  0  0
   59.5330   28.4440   46.9770 C   0  0  0  0  0  0  0  0  0  0  0  0
   60.1890   28.7440   48.2710 C   0  0  0  0  0  0  0  0  0  0  0  0
   59.9560   28.0210   49.2780 O   0  0  0  0  0  0  0  0  0  0  0  0
   61.1230   29.8290   48.3690 N   0  0  0  0  0  0  0  0  0  0  0  0
   61.0500   31.0840   47.6760 C   0  0  0  0  0  0  0  0  0  0  0  0
   62.1960   31.8560   47.4130 C   0  0  0  0  0  0  0  0  0  0  0  0
   62.0780   33.0900   46.7680 C   0  0  0  0  0  0  0  0  0  0  0  0
   60.8200   33.5680   46.3910 C   0  0  0  0  0  0  0  0  0  0  0  0
   59.6720   32.8150   46.6610 C   0  0  0  0  0  0  0  0  0  0  0  0
   58.0840   33.4390   46.2190 S   0  0  0  0  0  0  0  0  0  0  0  0
   58.1550   34.9330   46.0580 O   0  0  0  0  0  0  0  0  0  0  0  0
   57.1140   33.1250   47.3250 O   0  0  0  0  0  0  0  0  0  0  0  0
   57.5440   32.6940   44.7370 N   0  0  0  0  0  0  0  0  0  0  0  0
   57.4340   31.2350   44.9160 C   0  0  0  0  0  0  0  0  0  0  0  0
   57.2440   30.5240   43.5600 C   0  0  0  0  0  0  0  0  0  0  0  0
   56.9330   31.4540   42.5400 O   0  0  0  0  0  0  0  0  0  0  0  0
   58.0290   32.3280   42.3400 C   0  0  0  0  0  0  0  0  0  0  0  0
   58.4870   33.0040   43.6520 C   0  0  0  0  0  0  0  0  0  0  0  0
   59.7910   31.5800   47.3140 C   0  0  0  0  0  0  0  0  0  0  0  0
   58.1750   28.0720   46.9320 C   0  0  0  0  0  0  0  0  0  0  0  0
   57.5057   25.3679   46.6947 H   0  0  0  0  0  0  0  0  0  0  0  0
   56.0498   24.4438   47.2321 H   0  0  0  0  0  0  0  0  0  0  0  0
   58.4624   23.0657   46.1293 H   0  0  0  0  0  0  0  0  0  0  0  0
   58.7471   21.4364   44.2613 H   0  0  0  0  0  0  0  0  0  0  0  0
   57.1558   21.4449   42.3387 H   0  0  0  0  0  0  0  0  0  0  0  0
   55.2672   23.0772   42.2866 H   0  0  0  0  0  0  0  0  0  0  0  0
   54.9716   24.7090   44.1528 H   0  0  0  0  0  0  0  0  0  0  0  0
   57.8137   27.6234   43.5611 H   0  0  0  0  0  0  0  0  0  0  0  0
   60.2141   28.2880   43.6197 H   0  0  0  0  0  0  0  0  0  0  0  0
   61.3155   28.8194   45.7907 H   0  0  0  0  0  0  0  0  0  0  0  0
   63.1873   31.4875   47.7157 H   0  0  0  0  0  0  0  0  0  0  0  0
   62.9776   33.6867   46.5565 H   0  0  0  0  0  0  0  0  0  0  0  0
   60.7321   34.5385   45.8808 H   0  0  0  0  0  0  0  0  0  0  0  0
   58.3520   30.8609   45.3927 H   0  0  0  0  0  0  0  0  0  0  0  0
   56.5583   31.0246   45.5476 H   0  0  0  0  0  0  0  0  0  0  0  0
   58.1733   29.9979   43.2962 H   0  0  0  0  0  0  0  0  0  0  0  0
   56.4109   29.8115   43.6511 H   0  0  0  0  0  0  0  0  0  0  0  0
   58.8700   31.7519   41.9266 H   0  0  0  0  0  0  0  0  0  0  0  0
   57.7060   33.1200   41.6483 H   0  0  0  0  0  0  0  0  0  0  0  0
   59.4869   32.6335   43.9222 H   0  0  0  0  0  0  0  0  0  0  0  0
   58.5187   34.0934   43.5033 H   0  0  0  0  0  0  0  0  0  0  0  0
   58.8879   30.9956   47.5440 H   0  0  0  0  0  0  0  0  0  0  0  0
   57.6019   27.9880   47.8672 H   0  0  0  0  0  0  0  0  0  0  0  0
  1  2  2  0
  2  3  1  0
  3  4  1  0
  4  5  2  0
  5  6  1  0
  6  7  2  0
  7  8  1  0
  8  9  2  0
  2 10  1  0
 10 11  1  0
 11 12  2  0
 12 13  1  0
 13 14  2  0
 14 15  1  0
 15 16  1  0
 16 17  2  0
 16 18  1  0
 18 19  1  0
 19 20  2  0
 20 21  1  0
 21 22  2  0
 22 23  1  0
 23 24  1  0
 24 25  2  0
 24 26  2  0
 24 27  1  0
 27 28  1  0
 28 29  1  0
 29 30  1  0
 30 31  1  0
 31 32  1  0
 23 33  2  0
 15 34  2  0
  9  4  1  0
 34 11  1  0
 33 19  1  0
 32 27  1  0
  3 35  1  0
  3 36  1  0
  5 37  1  0
  6 38  1  0
  7 39  1  0
  8 40  1  0
  9 41  1  0
 12 42  1  0
 13 43  1  0
 14 44  1  0
 20 45  1  0
 21 46  1  0
 22 47  1  0
 28 48  1  0
 28 49  1  0
 29 50  1  0
 29 51  1  0
 31 52  1  0
 31 53  1  0
 32 54  1  0
 32 55  1  0
 33 56  1  0
 34 57  1  0
M  CHG  2  10  -1  18  -1
M  END
>  <UniqueID>  (51) 
50

>  <SMILES>  (51) 
O=C(Cc1ccccc1)[N-]c1cccc(C(=O)[N-]c2cccc(S(=O)(=O)N3CCOCC3)c2)c1

>  <Energy>  (51) 
75.82064526204451

>  <Genealogy>  (51) 
O=C(Cc1ccccc1)[N-]c1cccc(C(=O)[N-]c2cccc(S(=O)(=O)N3CCOCC3)c2)c1 (protonated)
O=C(Cc1ccccc1)[N-]c1cccc(C(=O)[N-]c2cccc(S(=O)(=O)N3CCOCC3)c2)c1 (3D coordinates assigned)
O=C(Cc1ccccc1)[N-]c1cccc(C(=O)[N-]c2cccc(S(=O)(=O)N3CCOCC3)c2)c1 (nonaromatic ring conformer: 75.82064526204451 kcal/mol)

>  <smiles>  (51) 
O=C(Cc1ccccc1)Nc1cccc(C(=O)Nc2cccc(S(=O)(=O)N3CCOCC3)c2)c1

>  <score_type>  (51) 
oracle

>  <origin>  (51) 
adg

>  <m_score__min__energy>  (51) 
-13.92

>  <m_primary>  (51) 
energy

$$$$
51:0
     RDKit          3D

 61 66  0  0  0  0  0  0  0  0999 V2000
   58.6580   32.0350   48.6920 C   0  0  0  0  0  0  0  0  0  0  0  0
   60.1130   31.9380   48.3110 C   0  0  0  0  0  0  0  0  0  0  0  0
   61.0250   32.8440   48.8790 C   0  0  0  0  0  0  0  0  0  0  0  0
   62.3850   32.7730   48.5670 C   0  0  0  0  0  0  0  0  0  0  0  0
   62.8500   31.8010   47.6810 C   0  0  0  0  0  0  0  0  0  0  0  0
   61.9550   30.9060   47.0930 C   0  0  0  0  0  0  0  0  0  0  0  0
   60.5820   30.9710   47.3850 C   0  0  0  0  0  0  0  0  0  0  0  0
   59.6690   30.0190   46.7120 C   0  0  0  0  0  0  0  0  0  0  0  0
   58.4620   30.4850   46.1380 C   0  0  0  0  0  0  0  0  0  0  0  0
   57.5650   29.6040   45.4880 C   0  0  0  0  0  0  0  0  0  0  0  0
   56.3340   30.1400   44.8620 C   0  0  0  0  0  0  0  0  0  0  0  0
   55.1740   29.3260   44.7080 N   0  0  0  0  0  0  0  0  0  0  0  0
   56.3180   31.3200   44.4180 O   0  0  0  0  0  0  0  0  0  0  0  0
   57.9120   28.2400   45.4620 C   0  0  0  0  0  0  0  0  0  0  0  0
   57.1970   27.1990   44.9660 N   0  0  0  0  0  0  0  0  0  0  0  0
   57.9440   26.1030   45.2190 C   0  0  0  0  0  0  0  0  0  0  0  0
   57.6280   24.7810   44.9080 C   0  0  0  0  0  0  0  0  0  0  0  0
   58.5490   23.7680   45.2780 C   0  0  0  0  0  0  0  0  0  0  0  0
   58.3170   22.4130   45.0040 O   0  0  0  0  0  0  0  0  0  0  0  0
   57.3950   21.5930   45.7190 C   0  0  0  0  0  0  0  0  0  0  0  0
   56.1500   21.3840   44.9160 C   0  0  0  0  0  0  0  0  0  0  0  0
   56.2470   21.0340   43.7100 O   0  0  0  0  0  0  0  0  0  0  0  0
   54.8630   21.5750   45.5140 N   0  0  0  0  0  0  0  0  0  0  0  0
   54.2980   22.8840   45.8280 C   0  0  1  0  0  0  0  0  0  0  0  0
   54.2900   23.7840   44.5600 C   0  0  0  0  0  0  0  0  0  0  0  0
   52.8860   24.0610   44.2700 N   0  0  0  0  0  0  0  0  0  0  0  0
   52.0890   23.4420   45.2540 C   0  0  0  0  0  0  0  0  0  0  0  0
   50.6980   23.4960   45.3470 C   0  0  0  0  0  0  0  0  0  0  0  0
   50.0760   22.8300   46.4150 C   0  0  0  0  0  0  0  0  0  0  0  0
   50.8510   22.1340   47.3630 C   0  0  0  0  0  0  0  0  0  0  0  0
   52.2520   22.1000   47.2450 C   0  0  0  0  0  0  0  0  0  0  0  0
   52.8470   22.7630   46.1680 C   0  0  0  0  0  0  0  0  0  0  0  0
   59.7440   24.1180   45.9490 C   0  0  0  0  0  0  0  0  0  0  0  0
   60.0350   25.4600   46.2560 C   0  0  0  0  0  0  0  0  0  0  0  0
   59.1110   26.4260   45.8720 C   0  0  0  0  0  0  0  0  0  0  0  0
   59.0900   27.7920   46.0350 C   0  0  0  0  0  0  0  0  0  0  0  0
   59.9850   28.6470   46.6660 C   0  0  0  0  0  0  0  0  0  0  0  0
   58.5656   32.0412   49.7881 H   0  0  0  0  0  0  0  0  0  0  0  0
   58.2330   32.9635   48.2830 H   0  0  0  0  0  0  0  0  0  0  0  0
   58.1135   31.1712   48.2830 H   0  0  0  0  0  0  0  0  0  0  0  0
   60.6649   33.6157   49.5753 H   0  0  0  0  0  0  0  0  0  0  0  0
   63.0903   33.4848   49.0208 H   0  0  0  0  0  0  0  0  0  0  0  0
   63.9228   31.7399   47.4456 H   0  0  0  0  0  0  0  0  0  0  0  0
   62.3279   30.1425   46.3944 H   0  0  0  0  0  0  0  0  0  0  0  0
   58.2157   31.5554   46.1984 H   0  0  0  0  0  0  0  0  0  0  0  0
   54.4070   29.3460   45.4150 H   0  0  0  0  0  0  0  0  0  0  0  0
   56.2560   27.2080   44.5170 H   0  0  0  0  0  0  0  0  0  0  0  0
   56.6904   24.5307   44.3901 H   0  0  0  0  0  0  0  0  0  0  0  0
   57.8612   20.6182   45.9248 H   0  0  0  0  0  0  0  0  0  0  0  0
   57.1308   22.0929   46.6625 H   0  0  0  0  0  0  0  0  0  0  0  0
   54.9016   23.2930   46.6517 H   0  0  0  0  0  0  0  0  0  0  0  0
   54.8322   24.7213   44.7535 H   0  0  0  0  0  0  0  0  0  0  0  0
   54.7858   23.2888   43.7121 H   0  0  0  0  0  0  0  0  0  0  0  0
   52.5340   24.6490   43.4830 H   0  0  0  0  0  0  0  0  0  0  0  0
   50.1038   24.0463   44.6026 H   0  0  0  0  0  0  0  0  0  0  0  0
   48.9805   22.8518   46.5117 H   0  0  0  0  0  0  0  0  0  0  0  0
   50.3587   21.6151   48.1987 H   0  0  0  0  0  0  0  0  0  0  0  0
   52.8657   21.5637   47.9837 H   0  0  0  0  0  0  0  0  0  0  0  0
   60.4560   23.3298   46.2349 H   0  0  0  0  0  0  0  0  0  0  0  0
   60.9612   25.7356   46.7815 H   0  0  0  0  0  0  0  0  0  0  0  0
   60.9127   28.2640   47.1162 H   0  0  0  0  0  0  0  0  0  0  0  0
  1  2  1  0
  2  3  2  0
  3  4  1  0
  4  5  2  0
  5  6  1  0
  6  7  2  0
  7  8  1  0
  8  9  2  0
  9 10  1  0
 10 11  1  0
 11 12  1  0
 11 13  2  0
 10 14  2  0
 14 15  1  0
 15 16  1  0
 16 17  2  0
 17 18  1  0
 18 19  1  0
 19 20  1  0
 20 21  1  0
 21 22  2  0
 21 23  1  0
 23 24  1  0
 24 25  1  0
 25 26  1  0
 26 27  1  0
 27 28  2  0
 28 29  1  0
 29 30  2  0
 30 31  1  0
 31 32  2  0
 18 33  2  0
 33 34  1  0
 34 35  2  0
 35 36  1  0
 36 37  2  0
  7  2  1  0
 37  8  1  0
 36 14  1  0
 35 16  1  0
 32 24  1  0
 32 27  1  0
  1 38  1  0
  1 39  1  0
  1 40  1  0
  3 41  1  0
  4 42  1  0
  5 43  1  0
  6 44  1  0
  9 45  1  0
 12 46  1  0
 15 47  1  0
 17 48  1  0
 20 49  1  0
 20 50  1  0
 24 51  1  1
 25 52  1  0
 25 53  1  0
 26 54  1  0
 28 55  1  0
 29 56  1  0
 30 57  1  0
 31 58  1  0
 33 59  1  0
 34 60  1  0
 37 61  1  0
M  CHG  2  12  -1  23  -1
M  END
>  <UniqueID>  (52) 
51

>  <SMILES>  (52) 
Cc1ccccc1-c1cc(C([NH-])=O)c2[nH]c3cc(OCC(=O)[N-][C@H]4CNc5ccccc54)ccc3c2c1

>  <Energy>  (52) 
131.3333077394017

>  <Genealogy>  (52) 
Cc1ccccc1-c1cc(C([NH-])=O)c2[nH]c3cc(OCC(=O)[N-]C4CNc5ccccc54)ccc3c2c1 (protonated)
Cc1ccccc1-c1cc(C([NH-])=O)c2[nH]c3cc(OCC(=O)[N-][C@H]4CNc5ccccc54)ccc3c2c1 (chirality)
Cc1ccccc1-c1cc(C([NH-])=O)c2[nH]c3cc(OCC(=O)[N-][C@H]4CNc5ccccc54)ccc3c2c1 (3D coordinates assigned)
Cc1ccccc1-c1cc(C([NH-])=O)c2[nH]c3cc(OCC(=O)[N-][C@H]4CNc5ccccc54)ccc3c2c1 (nonaromatic ring conformer: 131.3333077394017 kcal/mol)

>  <smiles>  (52) 
Cc1ccccc1-c1cc(C(N)=O)c2[nH]c3cc(OCC(=O)NC4CNc5ccccc54)ccc3c2c1

>  <score_type>  (52) 
oracle

>  <origin>  (52) 
adg

>  <m_score__min__energy>  (52) 
-13.58

>  <m_primary>  (52) 
energy

$$$$
52:0
     RDKit          3D

 63 66  0  0  1  0  0  0  0  0999 V2000
   64.5680   30.5930   51.2700 C   0  0  0  0  0  0  0  0  0  0  0  0
   63.8160   31.9090   50.3320 S   0  0  0  0  0  0  0  0  0  0  0  0
   63.9740   33.2070   51.0920 O   0  0  0  0  0  0  0  0  0  0  0  0
   64.5000   31.9720   48.9850 O   0  0  0  0  0  0  0  0  0  0  0  0
   62.1480   31.5720   50.0670 N   0  0  0  0  0  0  0  0  0  0  0  0
   61.1230   31.8980   50.9910 C   0  0  0  0  0  0  0  0  0  0  0  0
   60.4800   30.9510   51.7740 C   0  0  0  0  0  0  0  0  0  0  0  0
   59.4890   31.2670   52.6750 C   0  0  0  0  0  0  0  0  0  0  0  0
   59.0890   32.5750   52.8340 C   0  0  0  0  0  0  0  0  0  0  0  0
   59.7020   33.5470   52.0770 C   0  0  0  0  0  0  0  0  0  0  0  0
   60.6880   33.2140   51.1850 C   0  0  0  0  0  0  0  0  0  0  0  0
   61.3570   34.2040   50.3730 N   0  0  0  0  0  0  0  0  0  0  0  0
   61.4040   34.0240   49.0740 C   0  0  0  0  0  0  0  0  0  0  0  0
   60.2290   34.0420   48.3460 C   0  0  0  0  0  0  0  0  0  0  0  0
   60.3600   33.8490   46.9800 C   0  0  0  0  0  0  0  0  0  0  0  0
   59.2070   33.8400   46.1360 N   0  0  0  0  0  0  0  0  0  0  0  0
   58.0250   33.2070   46.6470 C   0  0  0  0  0  0  0  0  0  0  0  0
   57.0900   32.8930   45.5330 C   0  0  0  0  0  0  0  0  0  0  0  0
   57.6840   32.6070   44.2850 N   0  0  0  0  0  0  0  0  0  0  0  0
   57.6500   31.2890   43.7980 C   0  0  0  0  0  0  0  0  0  0  0  0
   57.9720   30.3200   44.8650 C   0  0  0  0  0  0  0  0  0  0  0  0
   57.2590   29.1750   45.1350 C   0  0  0  0  0  0  0  0  0  0  0  0
   57.6470   28.3440   46.1670 C   0  0  0  0  0  0  0  0  0  0  0  0
   58.7500   28.6330   46.9480 C   0  0  0  0  0  0  0  0  0  0  0  0
   59.1580   27.8010   48.0000 O   0  0  0  0  0  0  0  0  0  0  0  0
   59.4740   29.7730   46.6920 C   0  0  0  0  0  0  0  0  0  0  0  0
   60.6390   30.1070   47.4950 C   0  0  0  0  0  0  0  0  0  0  0  0
   61.4710   30.9010   47.0240 O   0  0  0  0  0  0  0  0  0  0  0  0
   60.8060   29.5400   48.7630 O   0  0  0  0  0  0  0  0  0  0  0  0
   59.0880   30.6110   45.6580 C   0  0  0  0  0  0  0  0  0  0  0  0
   58.6740   33.4650   43.7800 C   0  0  0  0  0  0  0  0  0  0  0  0
   59.2070   34.4460   44.8150 C   0  0  0  0  0  0  0  0  0  0  0  0
   61.5570   33.6580   46.4030 N   0  0  0  0  0  0  0  0  0  0  0  0
   62.6610   33.6490   47.1530 C   0  0  0  0  0  0  0  0  0  0  0  0
   63.7920   33.4570   46.5610 N   0  0  0  0  0  0  0  0  0  0  0  0
   62.6130   33.8290   48.4900 N   0  0  0  0  0  0  0  0  0  0  0  0
   64.4519   30.7961   52.3448 H   0  0  0  0  0  0  0  0  0  0  0  0
   64.0783   29.6398   51.0220 H   0  0  0  0  0  0  0  0  0  0  0  0
   65.6379   30.5310   51.0220 H   0  0  0  0  0  0  0  0  0  0  0  0
   61.8330   31.0940   49.1770 H   0  0  0  0  0  0  0  0  0  0  0  0
   60.7763   29.8968   51.6699 H   0  0  0  0  0  0  0  0  0  0  0  0
   59.0150   30.4724   53.2699 H   0  0  0  0  0  0  0  0  0  0  0  0
   58.2967   32.8372   53.5506 H   0  0  0  0  0  0  0  0  0  0  0  0
   59.3986   34.5984   52.1885 H   0  0  0  0  0  0  0  0  0  0  0  0
   59.2499   34.1999   48.8219 H   0  0  0  0  0  0  0  0  0  0  0  0
   58.3045   32.2754   47.1607 H   0  0  0  0  0  0  0  0  0  0  0  0
   57.5279   33.8892   47.3524 H   0  0  0  0  0  0  0  0  0  0  0  0
   56.4951   32.0169   45.8306 H   0  0  0  0  0  0  0  0  0  0  0  0
   56.4997   33.8079   45.3763 H   0  0  0  0  0  0  0  0  0  0  0  0
   56.6431   31.0751   43.4102 H   0  0  0  0  0  0  0  0  0  0  0  0
   58.4003   31.1919   42.9995 H   0  0  0  0  0  0  0  0  0  0  0  0
   56.3779   28.9210   44.5274 H   0  0  0  0  0  0  0  0  0  0  0  0
   57.0660   27.4327   46.3719 H   0  0  0  0  0  0  0  0  0  0  0  0
   60.1620   27.5900   48.1080 H   0  0  0  0  0  0  0  0  0  0  0  0
   60.0380   29.0150   49.1790 H   0  0  0  0  0  0  0  0  0  0  0  0
   59.6699   31.5225   45.4566 H   0  0  0  0  0  0  0  0  0  0  0  0
   59.5122   32.8537   43.4144 H   0  0  0  0  0  0  0  0  0  0  0  0
   58.2119   34.0582   42.9771 H   0  0  0  0  0  0  0  0  0  0  0  0
   60.2350   34.7318   44.5476 H   0  0  0  0  0  0  0  0  0  0  0  0
   58.5590   35.3347   44.8306 H   0  0  0  0  0  0  0  0  0  0  0  0
   61.6280   33.5170   45.3860 H   0  0  0  0  0  0  0  0  0  0  0  0
   64.5160   32.8350   46.9470 H   0  0  0  0  0  0  0  0  0  0  0  0
   63.4790   33.8240   49.0950 H   0  0  0  0  0  0  0  0  0  0  0  0
  1  2  1  0
  2  3  2  0
  2  4  2  0
  2  5  1  0
  5  6  1  0
  6  7  2  0
  7  8  1  0
  8  9  2  0
  9 10  1  0
 10 11  2  0
 11 12  1  0
 12 13  2  0
 13 14  1  0
 14 15  2  0
 15 16  1  0
 16 17  1  0
 17 18  1  0
 18 19  1  0
 19 20  1  0
 20 21  1  0
 21 22  2  0
 22 23  1  0
 23 24  2  0
 24 25  1  0
 24 26  1  0
 26 27  1  0
 27 28  2  0
 27 29  1  0
 26 30  2  0
 19 31  1  0
 31 32  1  0
 15 33  1  0
 33 34  1  0
 34 35  2  3
 34 36  1  0
 11  6  1  0
 36 13  1  0
 32 16  1  0
 30 21  1  0
  1 37  1  0
  1 38  1  0
  1 39  1  0
  5 40  1  0
  7 41  1  0
  8 42  1  0
  9 43  1  0
 10 44  1  0
 14 45  1  0
 17 46  1  0
 17 47  1  0
 18 48  1  0
 18 49  1  0
 20 50  1  0
 20 51  1  0
 22 52  1  0
 23 53  1  0
 25 54  1  0
 29 55  1  0
 30 56  1  0
 31 57  1  0
 31 58  1  0
 32 59  1  0
 32 60  1  0
 33 61  1  0
 35 62  1  0
 36 63  1  0
M  END
>  <smiles>  (53) 
CS(=O)(=O)Nc1ccccc1N=c1cc(N2CCN(Cc3ccc(O)c(C(=O)O)c3)CC2)[nH]c(=N)[nH]1

>  <score_type>  (53) 
oracle

>  <origin>  (53) 
adg

>  <m_score__min__energy>  (53) 
-9.7599999999999998

>  <m_primary>  (53) 
energy

$$$$
53:0
     RDKit          3D

 25 26  0  0  0  0  0  0  0  0999 V2000
   58.1559   25.4164   46.4589 H   0  0  0  0  0  0  0  0  0  0  0  0
   57.5000   25.5360   45.5840 C   0  0  0  0  0  0  0  0  0  0  0  0
   57.8430   26.3600   44.6400 N   0  0  0  0  0  0  0  0  0  0  0  0
   58.0370   27.7800   44.7690 C   0  0  0  0  0  0  0  0  0  0  0  0
   59.3060   28.3640   44.9670 C   0  0  0  0  0  0  0  0  0  0  0  0
   60.2012   27.7269   45.0200 H   0  0  0  0  0  0  0  0  0  0  0  0
   59.4280   29.7510   45.0960 C   0  0  0  0  0  0  0  0  0  0  0  0
   60.4205   30.2020   45.2431 H   0  0  0  0  0  0  0  0  0  0  0  0
   58.2960   30.5660   45.0390 C   0  0  0  0  0  0  0  0  0  0  0  0
   58.3977   31.6569   45.1365 H   0  0  0  0  0  0  0  0  0  0  0  0
   57.0340   29.9950   44.8580 C   0  0  0  0  0  0  0  0  0  0  0  0
   55.9050   30.8030   44.8080 O   0  0  0  0  0  0  0  0  0  0  0  0
   56.9050   28.6080   44.7280 C   0  0  0  0  0  0  0  0  0  0  0  0
   55.9082   28.1631   44.5926 H   0  0  0  0  0  0  0  0  0  0  0  0
   56.2440   24.7540   45.5070 C   0  0  0  0  0  0  0  0  0  0  0  0
   56.3300   23.3800   45.2230 C   0  0  0  0  0  0  0  0  0  0  0  0
   57.3155   22.9175   45.0652 H   0  0  0  0  0  0  0  0  0  0  0  0
   55.1760   22.5950   45.1390 C   0  0  0  0  0  0  0  0  0  0  0  0
   55.2573   21.5210   44.9157 H   0  0  0  0  0  0  0  0  0  0  0  0
   53.9220   23.1720   45.3380 C   0  0  0  0  0  0  0  0  0  0  0  0
   52.7750   22.3900   45.2540 O   0  0  0  0  0  0  0  0  0  0  0  0
   53.8170   24.5360   45.6230 C   0  0  0  0  0  0  0  0  0  0  0  0
   52.8264   24.9877   45.7805 H   0  0  0  0  0  0  0  0  0  0  0  0
   54.9660   25.3300   45.7090 C   0  0  0  0  0  0  0  0  0  0  0  0
   54.8200   26.6830   45.9970 O   0  0  0  0  0  0  0  0  0  0  0  0
  1  2  1  0
  2  3  2  0
  3  4  1  0
  4  5  2  0
  5  6  1  0
  5  7  1  0
  7  8  1  0
  7  9  2  0
  9 10  1  0
  9 11  1  0
 11 12  1  0
 11 13  2  0
 13 14  1  0
  2 15  1  0
 15 16  2  0
 16 17  1  0
 16 18  1  0
 18 19  1  0
 18 20  2  0
 20 21  1  0
 20 22  1  0
 22 23  1  0
 22 24  2  0
 24 25  1  0
 13  4  1  0
 24 15  1  0
M  CHG  3  12  -1  21  -1  25  -1
M  END
>  <UniqueID>  (54) 
52

>  <SMILES>  (54) 
[O-]c1cccc(/N=C/c2ccc([O-])cc2[O-])c1

>  <Energy>  (54) 
30.678654891602648

>  <Genealogy>  (54) 
[O-]c1cccc(N=Cc2ccc([O-])cc2[O-])c1 (protonated)
[O-]c1cccc(/N=C/c2ccc([O-])cc2[O-])c1 (cis-trans isomerization)
[O-]c1cccc(/N=C/c2ccc([O-])cc2[O-])c1 (3D coordinates assigned)
[O-]c1cccc(/N=C/c2ccc([O-])cc2[O-])c1 (optimized conformer: 30.678654891602648 kcal/mol)

>  <smiles>  (54) 
Oc1cccc(N=Cc2ccc(O)cc2O)c1

>  <score_type>  (54) 
oracle

>  <origin>  (54) 
adg

>  <m_score__min__energy>  (54) 
-13.66

>  <m_primary>  (54) 
energy

$$$$
54:0
     RDKit          3D

 80 83  0  0  0  0  0  0  0  0999 V2000
   55.7290   28.9480   53.1110 C   0  0  0  0  0  0  0  0  0  0  0  0
   56.7540   29.4760   52.2790 O   0  0  0  0  0  0  0  0  0  0  0  0
   57.4190   30.6920   52.5090 C   0  0  0  0  0  0  0  0  0  0  0  0
   56.8620   31.9260   52.1230 C   0  0  0  0  0  0  0  0  0  0  0  0
   57.5400   33.1200   52.3790 C   0  0  0  0  0  0  0  0  0  0  0  0
   58.7730   33.1010   53.0270 C   0  0  0  0  0  0  0  0  0  0  0  0
   59.3440   31.8860   53.4050 C   0  0  0  0  0  0  0  0  0  0  0  0
   58.6790   30.6730   53.1490 C   0  0  0  0  0  0  0  0  0  0  0  0
   59.3360   29.3700   53.5490 C   0  0  0  0  0  0  0  0  0  0  0  0
   59.3350   28.3240   52.4170 C   0  0  0  0  0  0  0  0  0  0  0  0
   60.5660   28.3560   51.5570 C   0  0  0  0  0  0  0  0  0  0  0  0
   61.6650   28.7690   52.0240 O   0  0  0  0  0  0  0  0  0  0  0  0
   60.5080   27.8060   50.2410 N   0  0  0  0  0  0  0  0  0  0  0  0
   59.7580   28.2270   49.2630 C   0  0  0  0  0  0  0  0  0  0  0  0
   59.6120   27.5340   47.9580 C   0  0  0  0  0  0  0  0  0  0  0  0
   60.5950   26.9590   47.4250 O   0  0  0  0  0  0  0  0  0  0  0  0
   58.3380   27.4320   47.3170 N   0  0  0  0  0  0  0  0  0  0  0  0
   58.0040   26.4960   46.2800 C   0  0  0  0  0  0  0  0  0  0  0  0
   57.4660   25.2320   46.5910 C   0  0  0  0  0  0  0  0  0  0  0  0
   57.0960   24.3510   45.5710 C   0  0  0  0  0  0  0  0  0  0  0  0
   57.2350   24.7260   44.2350 C   0  0  0  0  0  0  0  0  0  0  0  0
   57.7530   25.9830   43.9160 C   0  0  0  0  0  0  0  0  0  0  0  0
   58.1410   26.8710   44.9320 C   0  0  0  0  0  0  0  0  0  0  0  0
   58.8000   28.4830   44.4780 S   0  0  0  0  0  0  0  0  0  0  0  0
   57.3330   29.0190   43.5290 C   0  0  0  0  0  0  0  0  0  0  0  0
   56.6910   30.1980   44.1830 C   0  0  0  0  0  0  0  0  0  0  0  0
   55.6550   30.0350   44.8840 O   0  0  0  0  0  0  0  0  0  0  0  0
   57.2750   31.4970   44.0310 N   0  0  0  0  0  0  0  0  0  0  0  0
   57.5700   32.4010   45.1020 C   0  0  0  0  0  0  0  0  0  0  0  0
   56.6240   33.0480   45.6170 O   0  0  0  0  0  0  0  0  0  0  0  0
   58.9020   32.5330   45.6350 N   0  0  0  0  0  0  0  0  0  0  0  0
   59.6690   31.3380   46.0080 C   0  0  0  0  0  0  0  0  0  0  0  0
   59.8980   31.3080   47.4970 C   0  0  0  0  0  0  0  0  0  0  0  0
   58.8620   31.6530   48.3820 C   0  0  0  0  0  0  0  0  0  0  0  0
   59.0820   31.6340   49.7640 C   0  0  0  0  0  0  0  0  0  0  0  0
   60.3290   31.2610   50.2700 C   0  0  0  0  0  0  0  0  0  0  0  0
   61.3570   30.8880   49.3970 C   0  0  0  0  0  0  0  0  0  0  0  0
   61.1420   30.9050   48.0140 C   0  0  0  0  0  0  0  0  0  0  0  0
   59.4410   34.1010   46.1700 S   0  0  0  0  0  0  0  0  0  0  0  0
   58.4280   34.7200   47.0930 O   0  0  0  0  0  0  0  0  0  0  0  0
   59.6180   34.9990   44.9770 O   0  0  0  0  0  0  0  0  0  0  0  0
   60.9550   33.9210   47.0470 C   0  0  0  0  0  0  0  0  0  0  0  0
   60.9870   34.1900   48.4160 C   0  0  0  0  0  0  0  0  0  0  0  0
   62.1760   34.0400   49.1390 C   0  0  0  0  0  0  0  0  0  0  0  0
   63.3540   33.6390   48.4870 C   0  0  0  0  0  0  0  0  0  0  0  0
   64.6220   33.4380   49.2640 C   0  0  0  0  0  0  0  0  0  0  0  0
   63.3190   33.3680   47.1100 C   0  0  0  0  0  0  0  0  0  0  0  0
   62.1250   33.5140   46.3930 C   0  0  0  0  0  0  0  0  0  0  0  0
   56.0042   29.0897   54.1666 H   0  0  0  0  0  0  0  0  0  0  0  0
   54.7836   29.4713   52.9051 H   0  0  0  0  0  0  0  0  0  0  0  0
   55.6062   27.8744   52.9051 H   0  0  0  0  0  0  0  0  0  0  0  0
   55.8860   31.9500   51.6162 H   0  0  0  0  0  0  0  0  0  0  0  0
   57.0989   34.0785   52.0679 H   0  0  0  0  0  0  0  0  0  0  0  0
   59.2964   34.0446   53.2406 H   0  0  0  0  0  0  0  0  0  0  0  0
   60.3225   31.8761   53.9075 H   0  0  0  0  0  0  0  0  0  0  0  0
   60.3779   29.5760   53.8353 H   0  0  0  0  0  0  0  0  0  0  0  0
   58.7561   28.9515   54.3849 H   0  0  0  0  0  0  0  0  0  0  0  0
   59.2544   27.3245   52.8692 H   0  0  0  0  0  0  0  0  0  0  0  0
   58.4829   28.5620   51.7634 H   0  0  0  0  0  0  0  0  0  0  0  0
   59.1943   29.1595   49.4141 H   0  0  0  0  0  0  0  0  0  0  0  0
   57.3363   24.9365   47.6426 H   0  0  0  0  0  0  0  0  0  0  0  0
   56.6939   23.3586   45.8228 H   0  0  0  0  0  0  0  0  0  0  0  0
   56.9373   24.0331   43.4342 H   0  0  0  0  0  0  0  0  0  0  0  0
   57.8577   26.2794   42.8619 H   0  0  0  0  0  0  0  0  0  0  0  0
   57.6416   29.2937   42.5095 H   0  0  0  0  0  0  0  0  0  0  0  0
   56.6086   28.1919   43.4953 H   0  0  0  0  0  0  0  0  0  0  0  0
   59.1095   30.4395   45.7086 H   0  0  0  0  0  0  0  0  0  0  0  0
   60.6425   31.3632   45.4964 H   0  0  0  0  0  0  0  0  0  0  0  0
   57.8758   31.9387   47.9874 H   0  0  0  0  0  0  0  0  0  0  0  0
   58.2712   31.9134   50.4529 H   0  0  0  0  0  0  0  0  0  0  0  0
   60.5033   31.2604   51.3561 H   0  0  0  0  0  0  0  0  0  0  0  0
   62.3344   30.5813   49.7977 H   0  0  0  0  0  0  0  0  0  0  0  0
   61.9483   30.6023   47.3298 H   0  0  0  0  0  0  0  0  0  0  0  0
   60.0727   34.5218   48.9297 H   0  0  0  0  0  0  0  0  0  0  0  0
   62.1881   34.2367   50.2212 H   0  0  0  0  0  0  0  0  0  0  0  0
   64.4015   33.4730   50.3411 H   0  0  0  0  0  0  0  0  0  0  0  0
   65.0564   32.4598   49.0102 H   0  0  0  0  0  0  0  0  0  0  0  0
   65.3376   34.2339   49.0102 H   0  0  0  0  0  0  0  0  0  0  0  0
   64.2325   33.0399   46.5925 H   0  0  0  0  0  0  0  0  0  0  0  0
   62.1058   33.3084   45.3126 H   0  0  0  0  0  0  0  0  0  0  0  0
  1  2  1  0
  2  3  1  0
  3  4  2  0
  4  5  1  0
  5  6  2  0
  6  7  1  0
  7  8  2  0
  8  9  1  0
  9 10  1  0
 10 11  1  0
 11 12  2  0
 11 13  1  0
 13 14  2  3
 14 15  1  0
 15 16  2  0
 15 17  1  0
 17 18  1  0
 18 19  2  0
 19 20  1  0
 20 21  2  0
 21 22  1  0
 22 23  2  0
 23 24  1  0
 24 25  1  0
 25 26  1  0
 26 27  2  0
 26 28  1  0
 28 29  1  0
 29 30  2  0
 29 31  1  0
 31 32  1  0
 32 33  1  0
 33 34  2  0
 34 35  1  0
 35 36  2  0
 36 37  1  0
 37 38  2  0
 31 39  1  0
 39 40  2  0
 39 41  2  0
 39 42  1  0
 42 43  2  0
 43 44  1  0
 44 45  2  0
 45 46  1  0
 45 47  1  0
 47 48  2  0
  8  3  1  0
 23 18  1  0
 38 33  1  0
 48 42  1  0
  1 49  1  0
  1 50  1  0
  1 51  1  0
  4 52  1  0
  5 53  1  0
  6 54  1  0
  7 55  1  0
  9 56  1  0
  9 57  1  0
 10 58  1  0
 10 59  1  0
 14 60  1  0
 19 61  1  0
 20 62  1  0
 21 63  1  0
 22 64  1  0
 25 65  1  0
 25 66  1  0
 32 67  1  0
 32 68  1  0
 34 69  1  0
 35 70  1  0
 36 71  1  0
 37 72  1  0
 38 73  1  0
 43 74  1  0
 44 75  1  0
 46 76  1  0
 46 77  1  0
 46 78  1  0
 47 79  1  0
 48 80  1  0
M  CHG  2  17  -1  28  -1
M  END
>  <UniqueID>  (55) 
53

>  <SMILES>  (55) 
COc1ccccc1CCC(=O)N=CC(=O)[N-]c1ccccc1SCC(=O)[N-]C(=O)N(Cc1ccccc1)S(=O)(=O)c1ccc(C)cc1

>  <Energy>  (55) 
90.17905401027116

>  <Genealogy>  (55) 
COc1ccccc1CCC(=O)N=CC(=O)[N-]c1ccccc1SCC(=O)[N-]C(=O)N(Cc1ccccc1)S(=O)(=O)c1ccc(C)cc1 (protonated)
COc1ccccc1CCC(=O)N=CC(=O)[N-]c1ccccc1SCC(=O)[N-]C(=O)N(Cc1ccccc1)S(=O)(=O)c1ccc(C)cc1 (3D coordinates assigned)
COc1ccccc1CCC(=O)N=CC(=O)[N-]c1ccccc1SCC(=O)[N-]C(=O)N(Cc1ccccc1)S(=O)(=O)c1ccc(C)cc1 (optimized conformer: 90.17905401027116 kcal/mol)

>  <smiles>  (55) 
COc1ccccc1CCC(=O)N=CC(=O)Nc1ccccc1SCC(=O)NC(=O)N(Cc1ccccc1)S(=O)(=O)c1ccc(C)cc1

>  <score_type>  (55) 
oracle

>  <origin>  (55) 
adg

>  <m_score__min__energy>  (55) 
-14.94

>  <m_primary>  (55) 
energy

$$$$
55:0
     RDKit          3D

 59 63  0  0  0  0  0  0  0  0999 V2000
   59.5700   29.3730   44.6190 C   0  0  0  0  0  0  0  0  0  0  0  0
   58.1130   29.4000   44.7250 N   0  0  0  0  0  0  0  0  0  0  0  0
   57.2810   30.4680   44.8160 C   0  0  0  0  0  0  0  0  0  0  0  0
   57.6860   31.8920   44.8420 C   0  0  0  0  0  0  0  0  0  0  0  0
   58.4440   32.4120   43.7790 C   0  0  0  0  0  0  0  0  0  0  0  0
   58.8610   33.7470   43.7920 C   0  0  0  0  0  0  0  0  0  0  0  0
   58.5370   34.5720   44.8730 C   0  0  0  0  0  0  0  0  0  0  0  0
   58.9480   35.8660   44.8860 F   0  0  0  0  0  0  0  0  0  0  0  0
   57.8030   34.0600   45.9460 C   0  0  0  0  0  0  0  0  0  0  0  0
   57.3840   32.7240   45.9380 C   0  0  0  0  0  0  0  0  0  0  0  0
   55.9920   30.0770   44.9270 N   0  0  0  0  0  0  0  0  0  0  0  0
   55.9970   28.7550   44.8870 N   0  0  0  0  0  0  0  0  0  0  0  0
   57.2710   28.3450   44.7720 C   0  0  0  0  0  0  0  0  0  0  0  0
   57.7580   26.6170   44.6620 S   0  0  0  0  0  0  0  0  0  0  0  0
   58.8320   26.6230   46.1440 C   0  0  0  0  0  0  0  0  0  0  0  0
   58.1330   27.2280   47.3660 C   0  0  0  0  0  0  0  0  0  0  0  0
   59.1030   28.0270   48.2510 C   0  0  0  0  0  0  0  0  0  0  0  0
   58.5220   29.3230   48.6700 N   0  0  0  0  0  0  0  0  0  0  0  0
   59.1750   29.8430   49.9060 C   0  0  0  0  0  0  0  0  0  0  0  0
   59.2630   31.3760   49.9570 C   0  0  0  0  0  0  0  0  0  0  0  0
   60.0090   31.9650   48.7320 C   0  0  0  0  0  0  0  0  0  0  0  0
   59.8120   31.0960   47.4640 C   0  0  0  0  0  0  0  0  0  0  0  0
   58.5090   30.2920   47.5440 C   0  0  0  0  0  0  0  0  0  0  0  0
   59.4850   33.2710   48.4810 O   0  0  0  0  0  0  0  0  0  0  0  0
   60.5250   34.2230   48.6650 C   0  0  0  0  0  0  0  0  0  0  0  0
   61.7460   33.4730   48.9970 C   0  0  0  0  0  0  0  0  0  0  0  0
   63.0290   33.9590   49.2580 C   0  0  0  0  0  0  0  0  0  0  0  0
   64.0460   33.0340   49.5490 C   0  0  0  0  0  0  0  0  0  0  0  0
   65.3040   33.4690   49.8120 F   0  0  0  0  0  0  0  0  0  0  0  0
   63.7610   31.6540   49.5610 C   0  0  0  0  0  0  0  0  0  0  0  0
   62.4580   31.2020   49.2940 C   0  0  0  0  0  0  0  0  0  0  0  0
   61.4630   32.1520   49.0220 C   0  0  0  0  0  0  0  0  0  0  0  0
   60.0109   29.3648   45.6268 H   0  0  0  0  0  0  0  0  0  0  0  0
   59.8814   28.4689   44.0752 H   0  0  0  0  0  0  0  0  0  0  0  0
   59.9147   30.2649   44.0752 H   0  0  0  0  0  0  0  0  0  0  0  0
   58.7112   31.7646   42.9308 H   0  0  0  0  0  0  0  0  0  0  0  0
   59.4447   34.1483   42.9504 H   0  0  0  0  0  0  0  0  0  0  0  0
   57.5537   34.7081   46.7991 H   0  0  0  0  0  0  0  0  0  0  0  0
   56.8169   32.3225   46.7907 H   0  0  0  0  0  0  0  0  0  0  0  0
   55.1410   28.1580   44.9220 H   0  0  0  0  0  0  0  0  0  0  0  0
   59.1187   25.5870   46.3773 H   0  0  0  0  0  0  0  0  0  0  0  0
   59.7127   27.2425   45.9190 H   0  0  0  0  0  0  0  0  0  0  0  0
   57.3331   27.8995   47.0206 H   0  0  0  0  0  0  0  0  0  0  0  0
   57.7282   26.4013   47.9682 H   0  0  0  0  0  0  0  0  0  0  0  0
   59.3372   27.4348   49.1479 H   0  0  0  0  0  0  0  0  0  0  0  0
   60.0113   28.2320   47.6654 H   0  0  0  0  0  0  0  0  0  0  0  0
   58.5966   29.4988   50.7760 H   0  0  0  0  0  0  0  0  0  0  0  0
   60.2063   29.4604   49.9112 H   0  0  0  0  0  0  0  0  0  0  0  0
   58.2434   31.7880   49.9816 H   0  0  0  0  0  0  0  0  0  0  0  0
   59.8296   31.6501   50.8591 H   0  0  0  0  0  0  0  0  0  0  0  0
   59.7764   31.7512   46.5812 H   0  0  0  0  0  0  0  0  0  0  0  0
   60.6535   30.3917   47.3885 H   0  0  0  0  0  0  0  0  0  0  0  0
   57.6696   30.9889   47.6847 H   0  0  0  0  0  0  0  0  0  0  0  0
   58.4017   29.7242   46.6080 H   0  0  0  0  0  0  0  0  0  0  0  0
   60.6763   34.7996   47.7405 H   0  0  0  0  0  0  0  0  0  0  0  0
   60.2701   34.9302   49.4681 H   0  0  0  0  0  0  0  0  0  0  0  0
   63.2382   35.0387   49.2363 H   0  0  0  0  0  0  0  0  0  0  0  0
   64.5597   30.9299   49.7797 H   0  0  0  0  0  0  0  0  0  0  0  0
   62.2235   30.1273   49.2982 H   0  0  0  0  0  0  0  0  0  0  0  0
  1  2  1  0
  2  3  1  0
  3  4  1  0
  4  5  2  0
  5  6  1  0
  6  7  2  0
  7  8  1  0
  7  9  1  0
  9 10  2  0
  3 11  2  0
 11 12  1  0
 12 13  2  0
 13 14  1  0
 14 15  1  0
 15 16  1  0
 16 17  1  0
 17 18  1  0
 18 19  1  0
 19 20  1  0
 20 21  1  0
 21 22  1  0
 22 23  1  0
 21 24  1  0
 24 25  1  0
 25 26  1  0
 26 27  2  0
 27 28  1  0
 28 29  1  0
 28 30  2  0
 30 31  1  0
 31 32  2  0
 13  2  1  0
 23 18  1  0
 32 26  1  0
 10  4  1  0
 32 21  1  0
  1 33  1  0
  1 34  1  0
  1 35  1  0
  5 36  1  0
  6 37  1  0
  9 38  1  0
 10 39  1  0
 12 40  1  0
 15 41  1  0
 15 42  1  0
 16 43  1  0
 16 44  1  0
 17 45  1  0
 17 46  1  0
 19 47  1  0
 19 48  1  0
 20 49  1  0
 20 50  1  0
 22 51  1  0
 22 52  1  0
 23 53  1  0
 23 54  1  0
 25 55  1  0
 25 56  1  0
 27 57  1  0
 30 58  1  0
 31 59  1  0
M  CHG  1  12   1
M  END
>  <UniqueID>  (56) 
54

>  <SMILES>  (56) 
Cn1c(-c2ccc(F)cc2)n[nH+]c1SCCCN1CCC2(CC1)OCc1cc(F)ccc12

>  <Energy>  (56) 
120.14715006611628

>  <Genealogy>  (56) 
Cn1c(-c2ccc(F)cc2)n[nH+]c1SCCCN1CCC2(CC1)OCc1cc(F)ccc12 (protonated)
Cn1c(-c2ccc(F)cc2)n[nH+]c1SCCCN1CCC2(CC1)OCc1cc(F)ccc12 (3D coordinates assigned)
Cn1c(-c2ccc(F)cc2)n[nH+]c1SCCCN1CCC2(CC1)OCc1cc(F)ccc12 (nonaromatic ring conformer: 120.14715006611628 kcal/mol)

>  <smiles>  (56) 
Cn1c(SCCCN2CCC3(CC2)OCc2cc(F)ccc23)nnc1-c1ccc(F)cc1

>  <score_type>  (56) 
oracle

>  <origin>  (56) 
adg

>  <m_score__min__energy>  (56) 
-8.3300000000000001

>  <m_primary>  (56) 
energy

$$$$
56:0
     RDKit          3D

 39 40  0  0  0  0  0  0  0  0999 V2000
   57.7030   34.2750   45.4410 C   0  0  0  0  0  0  0  0  0  0  0  0
   58.9290   34.1190   46.2770 C   0  0  0  0  0  0  0  0  0  0  0  0
   60.1860   33.7980   45.8070 C   0  0  0  0  0  0  0  0  0  0  0  0
   61.0050   33.7780   46.9200 C   0  0  0  0  0  0  0  0  0  0  0  0
   62.4490   33.4830   46.9180 C   0  0  0  0  0  0  0  0  0  0  0  0
   63.2470   34.2720   46.3440 O   0  0  0  0  0  0  0  0  0  0  0  0
   62.9480   32.3070   47.5600 N   0  0  0  0  0  0  0  0  0  0  0  0
   62.2790   31.6700   48.6850 C   0  0  0  0  0  0  0  0  0  0  0  0
   61.2990   30.6670   48.1700 C   0  0  0  0  0  0  0  0  0  0  0  0
   60.6720   29.9400   48.9860 O   0  0  0  0  0  0  0  0  0  0  0  0
   61.1480   30.4780   46.7540 N   0  0  0  0  0  0  0  0  0  0  0  0
   60.1450   29.6420   46.1540 C   0  0  0  0  0  0  0  0  0  0  0  0
   60.2680   28.2410   46.1410 C   0  0  0  0  0  0  0  0  0  0  0  0
   59.2690   27.4510   45.5660 C   0  0  0  0  0  0  0  0  0  0  0  0
   58.1320   28.0470   45.0150 C   0  0  0  0  0  0  0  0  0  0  0  0
   57.9820   29.4390   45.0490 C   0  0  0  0  0  0  0  0  0  0  0  0
   56.5520   30.1970   44.3540 S   0  0  0  0  0  0  0  0  0  0  0  0
   55.1450   29.3130   44.8230 N   0  0  0  0  0  0  0  0  0  0  0  0
   56.4360   31.6140   44.8440 O   0  0  0  0  0  0  0  0  0  0  0  0
   56.6620   30.2130   42.8560 O   0  0  0  0  0  0  0  0  0  0  0  0
   58.9880   30.2320   45.6200 C   0  0  0  0  0  0  0  0  0  0  0  0
   60.1880   34.0970   47.9990 C   0  0  0  0  0  0  0  0  0  0  0  0
   60.5910   34.2140   49.4330 C   0  0  0  0  0  0  0  0  0  0  0  0
   58.9590   34.2950   47.5780 O   0  0  0  0  0  0  0  0  0  0  0  0
   56.8253   34.3867   46.0946 H   0  0  0  0  0  0  0  0  0  0  0  0
   57.8033   35.1676   44.8061 H   0  0  0  0  0  0  0  0  0  0  0  0
   57.5766   33.3857   44.8061 H   0  0  0  0  0  0  0  0  0  0  0  0
   60.4756   33.5995   44.7645 H   0  0  0  0  0  0  0  0  0  0  0  0
   63.0236   31.1653   49.3181 H   0  0  0  0  0  0  0  0  0  0  0  0
   61.7516   32.4302   49.2799 H   0  0  0  0  0  0  0  0  0  0  0  0
   61.8730   30.8990   46.1300 H   0  0  0  0  0  0  0  0  0  0  0  0
   61.1545   27.7650   46.5854 H   0  0  0  0  0  0  0  0  0  0  0  0
   59.3782   26.3566   45.5472 H   0  0  0  0  0  0  0  0  0  0  0  0
   57.3533   27.4219   44.5537 H   0  0  0  0  0  0  0  0  0  0  0  0
   54.6750   29.8640   45.5760 H   0  0  0  0  0  0  0  0  0  0  0  0
   58.8697   31.3252   45.6498 H   0  0  0  0  0  0  0  0  0  0  0  0
   59.7340   33.9652   50.0762 H   0  0  0  0  0  0  0  0  0  0  0  0
   61.4182   33.5189   49.6393 H   0  0  0  0  0  0  0  0  0  0  0  0
   60.9174   35.2440   49.6393 H   0  0  0  0  0  0  0  0  0  0  0  0
  1  2  1  0
  2  3  2  0
  3  4  1  0
  4  5  1  0
  5  6  2  0
  5  7  1  0
  7  8  1  0
  8  9  1  0
  9 10  2  0
  9 11  1  0
 11 12  1  0
 12 13  2  0
 13 14  1  0
 14 15  2  0
 15 16  1  0
 16 17  1  0
 17 18  1  0
 17 19  2  0
 17 20  2  0
 16 21  2  0
  4 22  2  0
 22 23  1  0
 22 24  1  0
 24  2  1  0
 21 12  1  0
  1 25  1  0
  1 26  1  0
  1 27  1  0
  3 28  1  0
  8 29  1  0
  8 30  1  0
 11 31  1  0
 13 32  1  0
 14 33  1  0
 15 34  1  0
 18 35  1  0
 21 36  1  0
 23 37  1  0
 23 38  1  0
 23 39  1  0
M  CHG  2   7  -1  18  -1
M  END
>  <UniqueID>  (57) 
55

>  <SMILES>  (57) 
Cc1cc(C(=O)[N-]CC(=O)Nc2cccc(S([NH-])(=O)=O)c2)c(C)o1

>  <Energy>  (57) 
61.84820814050759

>  <Genealogy>  (57) 
Cc1cc(C(=O)[N-]CC(=O)Nc2cccc(S([NH-])(=O)=O)c2)c(C)o1 (protonated)
Cc1cc(C(=O)[N-]CC(=O)Nc2cccc(S([NH-])(=O)=O)c2)c(C)o1 (3D coordinates assigned)
Cc1cc(C(=O)[N-]CC(=O)Nc2cccc(S([NH-])(=O)=O)c2)c(C)o1 (optimized conformer: 61.84820814050759 kcal/mol)

>  <smiles>  (57) 
Cc1cc(C(=O)NCC(=O)Nc2cccc(S(N)(=O)=O)c2)c(C)o1

>  <score_type>  (57) 
oracle

>  <origin>  (57) 
adg

>  <m_score__min__energy>  (57) 
-12.300000000000001

>  <m_primary>  (57) 
energy

$$$$
57:0
     RDKit          3D

 40 42  0  0  0  0  0  0  0  0999 V2000
   55.7890   28.7390   44.8700 O   0  0  0  0  0  0  0  0  0  0  0  0
   56.8100   28.9140   45.5900 C   0  0  0  0  0  0  0  0  0  0  0  0
   57.3080   27.8350   46.3940 N   0  0  0  0  0  0  0  0  0  0  0  0
   57.2160   26.4420   46.0670 C   0  0  0  0  0  0  0  0  0  0  0  0
   58.4010   25.7320   45.8320 C   0  0  0  0  0  0  0  0  0  0  0  0
   58.3590   24.3740   45.5050 C   0  0  0  0  0  0  0  0  0  0  0  0
   57.1310   23.7190   45.3900 C   0  0  0  0  0  0  0  0  0  0  0  0
   55.9410   24.4260   45.5890 C   0  0  0  0  0  0  0  0  0  0  0  0
   55.9740   25.7910   45.9110 C   0  0  0  0  0  0  0  0  0  0  0  0
   54.7810   26.5000   46.0420 O   0  0  0  0  0  0  0  0  0  0  0  0
   57.4600   30.2440   45.6430 C   0  0  0  0  0  0  0  0  0  0  0  0
   57.2900   31.1640   44.5920 C   0  0  0  0  0  0  0  0  0  0  0  0
   57.9050   32.4190   44.6410 C   0  0  0  0  0  0  0  0  0  0  0  0
   58.7020   32.7720   45.7370 C   0  0  0  0  0  0  0  0  0  0  0  0
   59.4680   34.3560   45.8050 S   0  0  0  0  0  0  0  0  0  0  0  0
   58.8710   35.1330   46.9450 O   0  0  0  0  0  0  0  0  0  0  0  0
   59.2370   35.0780   44.5070 O   0  0  0  0  0  0  0  0  0  0  0  0
   61.1730   34.1490   46.0510 N   0  0  0  0  0  0  0  0  0  0  0  0
   61.8290   33.6330   47.2190 C   0  0  0  0  0  0  0  0  0  0  0  0
   62.9970   32.8810   47.0300 C   0  0  0  0  0  0  0  0  0  0  0  0
   63.6860   32.3460   48.1220 C   0  0  0  0  0  0  0  0  0  0  0  0
   63.2160   32.5600   49.4170 C   0  0  0  0  0  0  0  0  0  0  0  0
   62.0550   33.3080   49.6230 C   0  0  0  0  0  0  0  0  0  0  0  0
   61.3590   33.8470   48.5360 C   0  0  0  0  0  0  0  0  0  0  0  0
   60.2420   34.5700   48.7910 F   0  0  0  0  0  0  0  0  0  0  0  0
   58.8690   31.8650   46.7900 C   0  0  0  0  0  0  0  0  0  0  0  0
   58.2550   30.6090   46.7440 C   0  0  0  0  0  0  0  0  0  0  0  0
   59.3703   26.2468   45.9054 H   0  0  0  0  0  0  0  0  0  0  0  0
   59.2946   23.8202   45.3379 H   0  0  0  0  0  0  0  0  0  0  0  0
   57.0998   22.6475   45.1430 H   0  0  0  0  0  0  0  0  0  0  0  0
   54.9746   23.9094   45.4926 H   0  0  0  0  0  0  0  0  0  0  0  0
   54.7690   27.4690   46.3420 H   0  0  0  0  0  0  0  0  0  0  0  0
   56.6687   30.8940   43.7253 H   0  0  0  0  0  0  0  0  0  0  0  0
   57.7621   33.1317   43.8154 H   0  0  0  0  0  0  0  0  0  0  0  0
   63.3752   32.7102   46.0113 H   0  0  0  0  0  0  0  0  0  0  0  0
   64.5998   31.7556   47.9596 H   0  0  0  0  0  0  0  0  0  0  0  0
   63.7595   32.1398   50.2761 H   0  0  0  0  0  0  0  0  0  0  0  0
   61.6857   33.4743   50.6457 H   0  0  0  0  0  0  0  0  0  0  0  0
   59.4860   32.1412   47.6578 H   0  0  0  0  0  0  0  0  0  0  0  0
   58.3950   29.9019   47.5749 H   0  0  0  0  0  0  0  0  0  0  0  0
  1  2  2  0
  2  3  1  0
  3  4  1  0
  4  5  2  0
  5  6  1  0
  6  7  2  0
  7  8  1  0
  8  9  2  0
  9 10  1  0
  2 11  1  0
 11 12  2  0
 12 13  1  0
 13 14  2  0
 14 15  1  0
 15 16  2  0
 15 17  2  0
 15 18  1  0
 18 19  1  0
 19 20  2  0
 20 21  1  0
 21 22  2  0
 22 23  1  0
 23 24  2  0
 24 25  1  0
 14 26  1  0
 26 27  2  0
  9  4  1  0
 27 11  1  0
 24 19  1  0
  5 28  1  0
  6 29  1  0
  7 30  1  0
  8 31  1  0
 10 32  1  0
 12 33  1  0
 13 34  1  0
 20 35  1  0
 21 36  1  0
 22 37  1  0
 23 38  1  0
 26 39  1  0
 27 40  1  0
M  CHG  2   3  -1  18  -1
M  END
>  <UniqueID>  (58) 
56

>  <SMILES>  (58) 
O=C([N-]c1ccccc1O)c1ccc(S(=O)(=O)[N-]c2ccccc2F)cc1

>  <Energy>  (58) 
55.64903068867371

>  <Genealogy>  (58) 
O=C([N-]c1ccccc1O)c1ccc(S(=O)(=O)[N-]c2ccccc2F)cc1 (protonated)
O=C([N-]c1ccccc1O)c1ccc(S(=O)(=O)[N-]c2ccccc2F)cc1 (3D coordinates assigned)
O=C([N-]c1ccccc1O)c1ccc(S(=O)(=O)[N-]c2ccccc2F)cc1 (optimized conformer: 55.64903068867371 kcal/mol)

>  <smiles>  (58) 
O=C(Nc1ccccc1O)c1ccc(S(=O)(=O)Nc2ccccc2F)cc1

>  <score_type>  (58) 
oracle

>  <origin>  (58) 
adg

>  <m_score__min__energy>  (58) 
-12.74

>  <m_primary>  (58) 
energy

$$$$
58:0
     RDKit          3D

 42 44  0  0  0  0  0  0  0  0999 V2000
   51.0890   32.3280   49.9290 O   0  0  0  0  0  0  0  0  0  0  0  0
   51.4040   32.2890   51.1480 C   0  0  0  0  0  0  0  0  0  0  0  0
   50.9230   33.2770   52.0000 O   0  0  0  0  0  0  0  0  0  0  0  0
   52.2740   31.2100   51.6660 C   0  0  0  0  0  0  0  0  0  0  0  0
   51.7380   30.1700   52.4460 C   0  0  0  0  0  0  0  0  0  0  0  0
   52.5660   29.1660   52.9500 C   0  0  0  0  0  0  0  0  0  0  0  0
   53.9350   29.1800   52.6740 C   0  0  0  0  0  0  0  0  0  0  0  0
   54.4860   30.1910   51.8780 C   0  0  0  0  0  0  0  0  0  0  0  0
   55.9000   30.1780   51.6350 N   0  0  0  0  0  0  0  0  0  0  0  0
   56.8250   31.2370   51.9180 C   0  0  0  0  0  0  0  0  0  0  0  0
   56.6320   31.9960   52.9070 O   0  0  0  0  0  0  0  0  0  0  0  0
   57.9800   31.4740   51.0210 C   0  0  0  0  0  0  0  0  0  0  0  0
   58.5190   30.4250   50.2550 C   0  0  0  0  0  0  0  0  0  0  0  0
   59.6090   30.6490   49.4080 C   0  0  0  0  0  0  0  0  0  0  0  0
   60.1730   31.9310   49.3010 C   0  0  0  0  0  0  0  0  0  0  0  0
   61.3080   32.1930   48.4620 N   0  0  0  0  0  0  0  0  0  0  0  0
   61.3210   32.9590   47.2480 C   0  0  0  0  0  0  0  0  0  0  0  0
   62.4050   33.4360   46.8150 O   0  0  0  0  0  0  0  0  0  0  0  0
   60.0710   33.1470   46.4760 C   0  0  0  0  0  0  0  0  0  0  0  0
   59.7190   34.4180   45.9890 C   0  0  0  0  0  0  0  0  0  0  0  0
   58.5420   34.5960   45.2590 C   0  0  0  0  0  0  0  0  0  0  0  0
   57.7000   33.5110   45.0070 C   0  0  0  0  0  0  0  0  0  0  0  0
   58.0270   32.2300   45.4830 C   0  0  0  0  0  0  0  0  0  0  0  0
   57.1570   31.1150   45.2200 N   0  0  0  0  0  0  0  0  0  0  0  0
   56.1530   31.2470   44.4880 O   0  0  0  0  0  0  0  0  0  0  0  0
   57.4150   29.8800   45.7720 O   0  0  0  0  0  0  0  0  0  0  0  0
   59.2170   32.0580   46.2180 C   0  0  0  0  0  0  0  0  0  0  0  0
   59.6550   32.9740   50.0820 C   0  0  0  0  0  0  0  0  0  0  0  0
   60.2210   34.2430   50.0160 O   0  0  0  0  0  0  0  0  0  0  0  0
   58.5650   32.7490   50.9290 C   0  0  0  0  0  0  0  0  0  0  0  0
   53.6550   31.2170   51.3930 C   0  0  0  0  0  0  0  0  0  0  0  0
   50.6593   30.1477   52.6603 H   0  0  0  0  0  0  0  0  0  0  0  0
   52.1391   28.3612   53.5665 H   0  0  0  0  0  0  0  0  0  0  0  0
   54.5838   28.3922   53.0844 H   0  0  0  0  0  0  0  0  0  0  0  0
   58.0792   29.4190   50.3227 H   0  0  0  0  0  0  0  0  0  0  0  0
   60.0269   29.8168   48.8225 H   0  0  0  0  0  0  0  0  0  0  0  0
   60.3756   35.2786   46.1845 H   0  0  0  0  0  0  0  0  0  0  0  0
   58.2772   35.5945   44.8811 H   0  0  0  0  0  0  0  0  0  0  0  0
   56.7743   33.6601   44.4319 H   0  0  0  0  0  0  0  0  0  0  0  0
   59.4822   31.0593   46.5952 H   0  0  0  0  0  0  0  0  0  0  0  0
   58.1615   33.5779   51.5291 H   0  0  0  0  0  0  0  0  0  0  0  0
   54.0882   32.0323   50.7949 H   0  0  0  0  0  0  0  0  0  0  0  0
  1  2  2  0
  2  3  1  0
  2  4  1  0
  4  5  2  0
  5  6  1  0
  6  7  2  0
  7  8  1  0
  8  9  1  0
  9 10  1  0
 10 11  2  0
 10 12  1  0
 12 13  2  0
 13 14  1  0
 14 15  2  0
 15 16  1  0
 16 17  1  0
 17 18  2  0
 17 19  1  0
 19 20  2  0
 20 21  1  0
 21 22  2  0
 22 23  1  0
 23 24  1  0
 24 25  2  0
 24 26  1  0
 23 27  2  0
 15 28  1  0
 28 29  1  0
 28 30  2  0
  8 31  2  0
 31  4  1  0
 30 12  1  0
 27 19  1  0
  5 32  1  0
  6 33  1  0
  7 34  1  0
 13 35  1  0
 14 36  1  0
 20 37  1  0
 21 38  1  0
 22 39  1  0
 27 40  1  0
 30 41  1  0
 31 42  1  0
M  CHG  6   3  -1   9  -1  16  -1  24   1  26  -1  29  -1
M  END
>  <UniqueID>  (59) 
57

>  <SMILES>  (59) 
O=C([O-])c1cccc([N-]C(=O)c2ccc([N-]C(=O)c3cccc([N+](=O)[O-])c3)c([O-])c2)c1

>  <Energy>  (59) 
56.421930942961644

>  <Genealogy>  (59) 
O=C([O-])c1cccc([N-]C(=O)c2ccc([N-]C(=O)c3cccc([N+](=O)[O-])c3)c([O-])c2)c1 (protonated)
O=C([O-])c1cccc([N-]C(=O)c2ccc([N-]C(=O)c3cccc([N+](=O)[O-])c3)c([O-])c2)c1 (3D coordinates assigned)
O=C([O-])c1cccc([N-]C(=O)c2ccc([N-]C(=O)c3cccc([N+](=O)[O-])c3)c([O-])c2)c1 (optimized conformer: 56.421930942961644 kcal/mol)

>  <smiles>  (59) 
O=C(O)c1cccc(NC(=O)c2ccc(NC(=O)c3cccc([N+](=O)[O-])c3)c(O)c2)c1

>  <score_type>  (59) 
oracle

>  <origin>  (59) 
adg

>  <m_score__min__energy>  (59) 
-17.52

>  <m_primary>  (59) 
energy

$$$$
59:0
     RDKit          3D

 42 44  0  0  0  0  0  0  0  0999 V2000
   60.7430   27.0310   47.9270 C   0  0  0  0  0  0  0  0  0  0  0  0
   59.7000   27.1880   46.9220 N   0  0  0  0  0  0  0  0  0  0  0  0
   58.3800   27.2820   47.1660 C   0  0  0  0  0  0  0  0  0  0  0  0
   57.7240   27.3220   45.9510 C   0  0  0  0  0  0  0  0  0  0  0  0
   56.2740   27.4340   45.7010 C   0  0  0  0  0  0  0  0  0  0  0  0
   55.5300   26.4460   45.9400 O   0  0  0  0  0  0  0  0  0  0  0  0
   55.6910   28.6160   45.1360 N   0  0  0  0  0  0  0  0  0  0  0  0
   56.3990   29.6730   44.4730 C   0  0  0  0  0  0  0  0  0  0  0  0
   56.2880   29.8760   43.0870 C   0  0  0  0  0  0  0  0  0  0  0  0
   56.9900   30.9150   42.4710 C   0  0  0  0  0  0  0  0  0  0  0  0
   57.8220   31.7440   43.2280 C   0  0  0  0  0  0  0  0  0  0  0  0
   57.9820   31.5230   44.6040 C   0  0  0  0  0  0  0  0  0  0  0  0
   58.8310   32.3970   45.3640 N   0  0  0  0  0  0  0  0  0  0  0  0
   58.5880   33.8030   45.5290 C   0  0  0  0  0  0  0  0  0  0  0  0
   57.4670   34.3010   45.2320 O   0  0  0  0  0  0  0  0  0  0  0  0
   59.6740   34.6970   46.0430 C   0  0  0  0  0  0  0  0  0  0  0  0
   60.6890   33.8810   46.7960 C   0  0  0  0  0  0  0  0  0  0  0  0
   62.0260   33.8330   46.3610 C   0  0  0  0  0  0  0  0  0  0  0  0
   62.9780   33.1090   47.0880 C   0  0  0  0  0  0  0  0  0  0  0  0
   62.6040   32.4370   48.2560 C   0  0  0  0  0  0  0  0  0  0  0  0
   61.2800   32.4880   48.6990 C   0  0  0  0  0  0  0  0  0  0  0  0
   60.3250   33.2120   47.9760 C   0  0  0  0  0  0  0  0  0  0  0  0
   57.2580   30.4860   45.2220 C   0  0  0  0  0  0  0  0  0  0  0  0
   58.7270   27.2580   44.9990 C   0  0  0  0  0  0  0  0  0  0  0  0
   59.9220   27.1600   45.6170 N   0  0  0  0  0  0  0  0  0  0  0  0
   60.2981   27.0980   48.9308 H   0  0  0  0  0  0  0  0  0  0  0  0
   61.2255   26.0501   47.8045 H   0  0  0  0  0  0  0  0  0  0  0  0
   61.4929   27.8264   47.8045 H   0  0  0  0  0  0  0  0  0  0  0  0
   57.9067   27.3202   48.1582 H   0  0  0  0  0  0  0  0  0  0  0  0
   55.6467   29.2151   42.4854 H   0  0  0  0  0  0  0  0  0  0  0  0
   56.8876   31.0807   41.3884 H   0  0  0  0  0  0  0  0  0  0  0  0
   58.3546   32.5748   42.7421 H   0  0  0  0  0  0  0  0  0  0  0  0
   59.6380   31.9770   45.8790 H   0  0  0  0  0  0  0  0  0  0  0  0
   60.1645   35.2001   45.1967 H   0  0  0  0  0  0  0  0  0  0  0  0
   59.2381   35.4486   46.7176 H   0  0  0  0  0  0  0  0  0  0  0  0
   62.3243   34.3663   45.4463 H   0  0  0  0  0  0  0  0  0  0  0  0
   64.0209   33.0686   46.7405 H   0  0  0  0  0  0  0  0  0  0  0  0
   63.3528   31.8678   48.8264 H   0  0  0  0  0  0  0  0  0  0  0  0
   60.9876   31.9582   49.6176 H   0  0  0  0  0  0  0  0  0  0  0  0
   59.2856   33.2572   48.3333 H   0  0  0  0  0  0  0  0  0  0  0  0
   57.3681   30.3130   46.3027 H   0  0  0  0  0  0  0  0  0  0  0  0
   58.5736   27.2831   43.9100 H   0  0  0  0  0  0  0  0  0  0  0  0
  1  2  1  0
  2  3  1  0
  3  4  2  0
  4  5  1  0
  5  6  2  0
  5  7  1  0
  7  8  1  0
  8  9  2  0
  9 10  1  0
 10 11  2  0
 11 12  1  0
 12 13  1  0
 13 14  1  0
 14 15  2  0
 14 16  1  0
 16 17  1  0
 17 18  2  0
 18 19  1  0
 19 20  2  0
 20 21  1  0
 21 22  2  0
 12 23  2  0
  4 24  1  0
 24 25  2  0
 25  2  1  0
 23  8  1  0
 22 17  1  0
  1 26  1  0
  1 27  1  0
  1 28  1  0
  3 29  1  0
  9 30  1  0
 10 31  1  0
 11 32  1  0
 13 33  1  0
 16 34  1  0
 16 35  1  0
 18 36  1  0
 19 37  1  0
 20 38  1  0
 21 39  1  0
 22 40  1  0
 23 41  1  0
 24 42  1  0
M  CHG  1   7  -1
M  END
>  <UniqueID>  (60) 
58

>  <SMILES>  (60) 
Cn1cc(C(=O)[N-]c2cccc(NC(=O)Cc3ccccc3)c2)cn1

>  <Energy>  (60) 
79.40031775678054

>  <Genealogy>  (60) 
Cn1cc(C(=O)[N-]c2cccc(NC(=O)Cc3ccccc3)c2)cn1 (protonated)
Cn1cc(C(=O)[N-]c2cccc(NC(=O)Cc3ccccc3)c2)cn1 (3D coordinates assigned)
Cn1cc(C(=O)[N-]c2cccc(NC(=O)Cc3ccccc3)c2)cn1 (optimized conformer: 79.40031775678054 kcal/mol)

>  <smiles>  (60) 
Cn1cc(C(=O)Nc2cccc(NC(=O)Cc3ccccc3)c2)cn1

>  <score_type>  (60) 
oracle

>  <origin>  (60) 
adg

>  <m_score__min__energy>  (60) 
-11.18

>  <m_primary>  (60) 
energy

$$$$
60:0
     RDKit          3D

 31 32  0  0  0  0  0  0  0  0999 V2000
   59.5200   34.9730   46.4620 C   0  0  0  0  0  0  0  0  0  0  0  0
   58.5660   34.0350   45.7870 C   0  0  0  0  0  0  0  0  0  0  0  0
   57.3300   34.1870   45.9690 O   0  0  0  0  0  0  0  0  0  0  0  0
   59.0140   32.9970   44.9060 N   0  0  0  0  0  0  0  0  0  0  0  0
   58.1940   32.0390   44.2200 C   0  0  0  0  0  0  0  0  0  0  0  0
   57.7540   32.2690   42.9040 C   0  0  0  0  0  0  0  0  0  0  0  0
   56.9770   31.3150   42.2420 C   0  0  0  0  0  0  0  0  0  0  0  0
   56.6460   30.1170   42.8790 C   0  0  0  0  0  0  0  0  0  0  0  0
   57.1020   29.8660   44.1740 C   0  0  0  0  0  0  0  0  0  0  0  0
   57.8870   30.8150   44.8430 C   0  0  0  0  0  0  0  0  0  0  0  0
   58.4690   30.4530   46.5050 S   0  0  0  0  0  0  0  0  0  0  0  0
   58.4460   28.6800   46.2340 C   0  0  0  0  0  0  0  0  0  0  0  0
   59.6170   28.0150   45.8580 C   0  0  0  0  0  0  0  0  0  0  0  0
   59.6020   26.6340   45.6520 C   0  0  0  0  0  0  0  0  0  0  0  0
   58.4160   25.9120   45.8180 C   0  0  0  0  0  0  0  0  0  0  0  0
   57.2300   26.5680   46.1890 C   0  0  0  0  0  0  0  0  0  0  0  0
   55.9760   25.8030   46.3640 C   0  0  0  0  0  0  0  0  0  0  0  0
   55.9900   24.6630   46.9000 O   0  0  0  0  0  0  0  0  0  0  0  0
   54.7630   26.3330   45.9390 O   0  0  0  0  0  0  0  0  0  0  0  0
   57.2540   27.9610   46.3930 C   0  0  0  0  0  0  0  0  0  0  0  0
   59.4203   34.8750   47.5531 H   0  0  0  0  0  0  0  0  0  0  0  0
   60.5497   34.7258   46.1642 H   0  0  0  0  0  0  0  0  0  0  0  0
   59.2903   36.0067   46.1642 H   0  0  0  0  0  0  0  0  0  0  0  0
   58.0232   33.2052   42.3931 H   0  0  0  0  0  0  0  0  0  0  0  0
   56.6255   31.5077   41.2177 H   0  0  0  0  0  0  0  0  0  0  0  0
   56.0259   29.3712   42.3601 H   0  0  0  0  0  0  0  0  0  0  0  0
   56.8442   28.9195   44.6716 H   0  0  0  0  0  0  0  0  0  0  0  0
   60.5511   28.5803   45.7243 H   0  0  0  0  0  0  0  0  0  0  0  0
   60.5252   26.1129   45.3585 H   0  0  0  0  0  0  0  0  0  0  0  0
   58.4114   24.8238   45.6572 H   0  0  0  0  0  0  0  0  0  0  0  0
   56.3316   28.4878   46.6788 H   0  0  0  0  0  0  0  0  0  0  0  0
  1  2  1  0
  2  3  2  0
  2  4  1  0
  4  5  1  0
  5  6  2  0
  6  7  1  0
  7  8  2  0
  8  9  1  0
  9 10  2  0
 10 11  1  0
 11 12  1  0
 12 13  2  0
 13 14  1  0
 14 15  2  0
 15 16  1  0
 16 17  1  0
 17 18  2  0
 17 19  1  0
 16 20  2  0
 10  5  1  0
 20 12  1  0
  1 21  1  0
  1 22  1  0
  1 23  1  0
  6 24  1  0
  7 25  1  0
  8 26  1  0
  9 27  1  0
 13 28  1  0
 14 29  1  0
 15 30  1  0
 20 31  1  0
M  CHG  2   4  -1  19  -1
M  END
>  <UniqueID>  (61) 
59

>  <SMILES>  (61) 
CC(=O)[N-]c1ccccc1Sc1cccc(C(=O)[O-])c1

>  <Energy>  (61) 
31.167443139875626

>  <Genealogy>  (61) 
CC(=O)[N-]c1ccccc1Sc1cccc(C(=O)[O-])c1 (protonated)
CC(=O)[N-]c1ccccc1Sc1cccc(C(=O)[O-])c1 (3D coordinates assigned)
CC(=O)[N-]c1ccccc1Sc1cccc(C(=O)[O-])c1 (optimized conformer: 31.167443139875626 kcal/mol)

>  <smiles>  (61) 
CC(=O)Nc1ccccc1Sc1cccc(C(=O)O)c1

>  <score_type>  (61) 
oracle

>  <origin>  (61) 
adg

>  <m_score__min__energy>  (61) 
-12.289999999999999

>  <m_primary>  (61) 
energy

$$$$
61:0
     RDKit          3D

 43 45  0  0  0  0  0  0  0  0999 V2000
   54.8270   26.3890   45.9970 O   0  0  0  0  0  0  0  0  0  0  0  0
   56.0300   26.0160   46.0190 C   0  0  0  0  0  0  0  0  0  0  0  0
   57.1110   26.9880   45.6670 C   0  0  0  0  0  0  0  0  0  0  0  0
   56.5540   28.3260   45.4940 N   0  0  0  0  0  0  0  0  0  0  0  0
   57.3490   29.4470   45.0880 C   0  0  0  0  0  0  0  0  0  0  0  0
   58.5720   29.2940   44.8190 O   0  0  0  0  0  0  0  0  0  0  0  0
   56.7280   30.7290   44.9370 N   0  0  0  0  0  0  0  0  0  0  0  0
   57.3920   31.9960   45.0530 C   0  0  0  0  0  0  0  0  0  0  0  0
   57.4360   32.6210   46.3070 C   0  0  0  0  0  0  0  0  0  0  0  0
   58.0800   33.8520   46.4640 C   0  0  0  0  0  0  0  0  0  0  0  0
   58.6970   34.4630   45.3710 C   0  0  0  0  0  0  0  0  0  0  0  0
   58.6850   33.8360   44.1220 C   0  0  0  0  0  0  0  0  0  0  0  0
   58.0470   32.6000   43.9590 C   0  0  0  0  0  0  0  0  0  0  0  0
   58.1150   31.9800   42.7550 F   0  0  0  0  0  0  0  0  0  0  0  0
   56.3810   24.6860   46.4200 N   0  0  0  0  0  0  0  0  0  0  0  0
   56.8070   23.6210   45.5540 C   0  0  0  0  0  0  0  0  0  0  0  0
   58.1760   23.3760   45.3280 C   0  0  0  0  0  0  0  0  0  0  0  0
   58.5810   22.3020   44.5330 C   0  0  0  0  0  0  0  0  0  0  0  0
   57.6310   21.4490   43.9700 C   0  0  0  0  0  0  0  0  0  0  0  0
   56.2700   21.6650   44.2050 C   0  0  0  0  0  0  0  0  0  0  0  0
   55.8440   22.7460   44.9960 C   0  0  0  0  0  0  0  0  0  0  0  0
   54.3910   22.9540   45.2150 C   0  0  0  0  0  0  0  0  0  0  0  0
   53.7430   22.3460   46.3050 C   0  0  0  0  0  0  0  0  0  0  0  0
   52.3720   22.5350   46.5070 C   0  0  0  0  0  0  0  0  0  0  0  0
   51.6350   23.3240   45.6190 C   0  0  0  0  0  0  0  0  0  0  0  0
   52.2680   23.9250   44.5270 C   0  0  0  0  0  0  0  0  0  0  0  0
   53.6390   23.7400   44.3220 C   0  0  0  0  0  0  0  0  0  0  0  0
   57.8580   27.0077   46.4743 H   0  0  0  0  0  0  0  0  0  0  0  0
   57.5822   26.6725   44.7244 H   0  0  0  0  0  0  0  0  0  0  0  0
   55.5430   28.4790   45.7100 H   0  0  0  0  0  0  0  0  0  0  0  0
   56.9603   32.1393   47.1740 H   0  0  0  0  0  0  0  0  0  0  0  0
   58.1005   34.3396   47.4498 H   0  0  0  0  0  0  0  0  0  0  0  0
   59.1924   35.4375   45.4927 H   0  0  0  0  0  0  0  0  0  0  0  0
   59.1786   34.3152   43.2637 H   0  0  0  0  0  0  0  0  0  0  0  0
   58.9309   24.0354   45.7810 H   0  0  0  0  0  0  0  0  0  0  0  0
   59.6516   22.1279   44.3501 H   0  0  0  0  0  0  0  0  0  0  0  0
   57.9532   20.6061   43.3409 H   0  0  0  0  0  0  0  0  0  0  0  0
   55.5261   20.9832   43.7672 H   0  0  0  0  0  0  0  0  0  0  0  0
   54.3174   21.7185   47.0024 H   0  0  0  0  0  0  0  0  0  0  0  0
   51.8730   22.0622   47.3657 H   0  0  0  0  0  0  0  0  0  0  0  0
   50.5569   23.4720   45.7795 H   0  0  0  0  0  0  0  0  0  0  0  0
   51.6869   24.5443   43.8279 H   0  0  0  0  0  0  0  0  0  0  0  0
   54.1319   24.2110   43.4588 H   0  0  0  0  0  0  0  0  0  0  0  0
  1  2  2  0
  2  3  1  0
  3  4  1  0
  4  5  1  0
  5  6  2  0
  5  7  1  0
  7  8  1  0
  8  9  2  0
  9 10  1  0
 10 11  2  0
 11 12  1  0
 12 13  2  0
 13 14  1  0
  2 15  1  0
 15 16  1  0
 16 17  2  0
 17 18  1  0
 18 19  2  0
 19 20  1  0
 20 21  2  0
 21 22  1  0
 22 23  2  0
 23 24  1  0
 24 25  2  0
 25 26  1  0
 26 27  2  0
 13  8  1  0
 21 16  1  0
 27 22  1  0
  3 28  1  0
  3 29  1  0
  4 30  1  0
  9 31  1  0
 10 32  1  0
 11 33  1  0
 12 34  1  0
 17 35  1  0
 18 36  1  0
 19 37  1  0
 20 38  1  0
 23 39  1  0
 24 40  1  0
 25 41  1  0
 26 42  1  0
 27 43  1  0
M  CHG  2   7  -1  15  -1
M  END
>  <UniqueID>  (62) 
60

>  <SMILES>  (62) 
O=C(CNC(=O)[N-]c1ccccc1F)[N-]c1ccccc1-c1ccccc1

>  <Energy>  (62) 
57.22560654758399

>  <Genealogy>  (62) 
O=C(CNC(=O)[N-]c1ccccc1F)[N-]c1ccccc1-c1ccccc1 (protonated)
O=C(CNC(=O)[N-]c1ccccc1F)[N-]c1ccccc1-c1ccccc1 (3D coordinates assigned)
O=C(CNC(=O)[N-]c1ccccc1F)[N-]c1ccccc1-c1ccccc1 (optimized conformer: 57.22560654758399 kcal/mol)

>  <smiles>  (62) 
O=C(CNC(=O)Nc1ccccc1F)Nc1ccccc1-c1ccccc1

>  <score_type>  (62) 
oracle

>  <origin>  (62) 
adg

>  <m_score__min__energy>  (62) 
-11.68

>  <m_primary>  (62) 
energy

$$$$
62:0
     RDKit          3D

 38 40  0  0  0  0  0  0  0  0999 V2000
   56.2140   21.9720   41.5010 H   0  0  0  0  0  0  0  0  0  0  0  0
   55.9140   21.8650   42.4630 O   0  0  0  0  0  0  0  0  0  0  0  0
   55.9950   22.9170   43.3720 C   0  0  0  0  0  0  0  0  0  0  0  0
   54.8460   23.3350   44.0500 C   0  0  0  0  0  0  0  0  0  0  0  0
   53.8857   22.8320   43.8635 H   0  0  0  0  0  0  0  0  0  0  0  0
   54.9140   24.3900   44.9640 C   0  0  0  0  0  0  0  0  0  0  0  0
   54.0093   24.7011   45.5068 H   0  0  0  0  0  0  0  0  0  0  0  0
   56.1250   25.0540   45.1940 C   0  0  0  0  0  0  0  0  0  0  0  0
   56.1580   26.1130   46.1680 N   0  0  0  0  0  0  0  0  0  0  0  0
   56.6010   27.3250   45.9930 C   0  0  0  0  0  0  0  0  0  0  0  0
   55.8960   28.2420   45.2740 N   0  0  0  0  0  0  0  0  0  0  0  0
   56.3320   29.4930   45.1160 N   0  0  0  0  0  0  0  0  0  0  0  0
   57.4960   29.9200   45.6770 C   0  0  0  0  0  0  0  0  0  0  0  0
   57.9510   31.3080   45.4480 C   0  0  0  0  0  0  0  0  0  0  0  0
   58.5030   32.0130   46.5290 C   0  0  0  0  0  0  0  0  0  0  0  0
   58.6056   31.5175   47.5057 H   0  0  0  0  0  0  0  0  0  0  0  0
   58.9230   33.3350   46.3790 C   0  0  0  0  0  0  0  0  0  0  0  0
   59.3597   33.8713   47.2344 H   0  0  0  0  0  0  0  0  0  0  0  0
   58.7910   33.9820   45.1440 C   0  0  0  0  0  0  0  0  0  0  0  0
   59.2680   35.3940   44.9770 C   0  0  0  0  0  0  0  0  0  0  0  0
   59.4216   35.8486   45.9668 H   0  0  0  0  0  0  0  0  0  0  0  0
   60.2170   35.3971   44.4209 H   0  0  0  0  0  0  0  0  0  0  0  0
   58.5152   35.9720   44.4209 H   0  0  0  0  0  0  0  0  0  0  0  0
   58.2790   33.2750   44.0470 C   0  0  0  0  0  0  0  0  0  0  0  0
   58.1963   33.7741   43.0702 H   0  0  0  0  0  0  0  0  0  0  0  0
   57.8700   31.9370   44.1790 C   0  0  0  0  0  0  0  0  0  0  0  0
   57.3580   31.2160   42.9590 C   0  0  0  0  0  0  0  0  0  0  0  0
   56.7472   30.3559   43.2708 H   0  0  0  0  0  0  0  0  0  0  0  0
   56.7442   31.9029   42.3578 H   0  0  0  0  0  0  0  0  0  0  0  0
   58.2088   30.8629   42.3578 H   0  0  0  0  0  0  0  0  0  0  0  0
   58.2620   29.0140   46.4180 C   0  0  0  0  0  0  0  0  0  0  0  0
   59.2172   29.3285   46.8637 H   0  0  0  0  0  0  0  0  0  0  0  0
   57.8030   27.7090   46.5860 C   0  0  0  0  0  0  0  0  0  0  0  0
   58.3836   26.9886   47.1809 H   0  0  0  0  0  0  0  0  0  0  0  0
   57.2870   24.6120   44.5320 C   0  0  0  0  0  0  0  0  0  0  0  0
   58.2522   25.0992   44.7347 H   0  0  0  0  0  0  0  0  0  0  0  0
   57.2180   23.5560   43.6180 C   0  0  0  0  0  0  0  0  0  0  0  0
   58.1254   23.2261   43.0910 H   0  0  0  0  0  0  0  0  0  0  0  0
  1  2  1  0
  2  3  1  0
  3  4  2  0
  4  5  1  0
  4  6  1  0
  6  7  1  0
  6  8  2  0
  8  9  1  0
  9 10  2  0
 10 11  1  0
 11 12  1  0
 12 13  2  0
 13 14  1  0
 14 15  2  0
 15 16  1  0
 15 17  1  0
 17 18  1  0
 17 19  2  0
 19 20  1  0
 20 21  1  0
 20 22  1  0
 20 23  1  0
 19 24  1  0
 24 25  1  0
 24 26  2  0
 26 27  1  0
 27 28  1  0
 27 29  1  0
 27 30  1  0
 13 31  1  0
 31 32  1  0
 31 33  2  0
 33 34  1  0
  8 35  1  0
 35 36  1  0
 35 37  2  0
 37 38  1  0
 37  3  1  0
 33 10  1  0
 26 14  1  0
M  CHG  1  11  -1
M  END
>  <UniqueID>  (63) 
61

>  <SMILES>  (63) 
Cc1ccc(-c2cc/c(=N/c3ccc(O)cc3)[n-]n2)c(C)c1

>  <Energy>  (63) 
54.086969431223004

>  <Genealogy>  (63) 
Cc1ccc(-c2ccc(=Nc3ccc(O)cc3)[n-]n2)c(C)c1 (protonated)
Cc1ccc(-c2cc/c(=N/c3ccc(O)cc3)[n-]n2)c(C)c1 (cis-trans isomerization)
Cc1ccc(-c2cc/c(=N/c3ccc(O)cc3)[n-]n2)c(C)c1 (3D coordinates assigned)
Cc1ccc(-c2cc/c(=N/c3ccc(O)cc3)[n-]n2)c(C)c1 (optimized conformer: 54.086969431223004 kcal/mol)

>  <smiles>  (63) 
Cc1ccc(-c2ccc(=Nc3ccc(O)cc3)[nH]n2)c(C)c1

>  <score_type>  (63) 
oracle

>  <origin>  (63) 
adg

>  <m_score__min__energy>  (63) 
-10.32

>  <m_primary>  (63) 
energy

$$$$
63:0
     RDKit          3D

 39 40  0  0  0  0  0  0  0  0999 V2000
   55.6980   24.1380   44.5380 C   0  0  0  0  0  0  0  0  0  0  0  0
   54.6880   24.7180   45.5220 C   0  0  0  0  0  0  0  0  0  0  0  0
   55.1160   25.9970   45.9910 O   0  0  0  0  0  0  0  0  0  0  0  0
   56.4320   26.3470   46.3430 C   0  0  0  0  0  0  0  0  0  0  0  0
   57.2400   25.5190   47.1490 C   0  0  0  0  0  0  0  0  0  0  0  0
   58.5420   25.9040   47.4750 C   0  0  0  0  0  0  0  0  0  0  0  0
   59.0590   27.1060   46.9940 C   0  0  0  0  0  0  0  0  0  0  0  0
   58.2720   27.9320   46.1900 C   0  0  0  0  0  0  0  0  0  0  0  0
   56.9520   27.5670   45.8690 C   0  0  0  0  0  0  0  0  0  0  0  0
   56.1490   28.4040   45.0170 N   0  0  0  0  0  0  0  0  0  0  0  0
   56.6450   29.5750   44.3510 C   0  0  0  0  0  0  0  0  0  0  0  0
   55.8650   30.1000   43.0050 S   0  0  0  0  0  0  0  0  0  0  0  0
   57.7240   30.3370   44.9290 N   0  0  0  0  0  0  0  0  0  0  0  0
   58.3550   31.4850   44.2800 C   0  0  0  0  0  0  0  0  0  0  0  0
   57.6950   32.7870   44.7410 C   0  0  0  0  0  0  0  0  0  0  0  0
   58.4340   33.3590   45.8740 N   0  0  0  0  0  0  0  0  0  0  0  0
   58.6340   32.7390   47.0790 C   0  0  0  0  0  0  0  0  0  0  0  0
   58.1330   31.4750   47.3900 O   0  0  0  0  0  0  0  0  0  0  0  0
   59.3950   33.4610   47.9930 C   0  0  0  0  0  0  0  0  0  0  0  0
   59.8540   34.9090   47.2680 S   0  0  0  0  0  0  0  0  0  0  0  0
   59.0620   34.5590   45.8300 C   0  0  0  0  0  0  0  0  0  0  0  0
   59.0570   35.3190   44.8250 O   0  0  0  0  0  0  0  0  0  0  0  0
   56.5213   23.6652   45.0936 H   0  0  0  0  0  0  0  0  0  0  0  0
   55.2034   23.3863   43.9053 H   0  0  0  0  0  0  0  0  0  0  0  0
   56.0979   24.9440   43.9053 H   0  0  0  0  0  0  0  0  0  0  0  0
   53.7152   24.8248   45.0198 H   0  0  0  0  0  0  0  0  0  0  0  0
   54.6015   24.0373   46.3818 H   0  0  0  0  0  0  0  0  0  0  0  0
   56.8423   24.5641   47.5232 H   0  0  0  0  0  0  0  0  0  0  0  0
   59.1616   25.2569   48.1133 H   0  0  0  0  0  0  0  0  0  0  0  0
   60.0871   27.4034   47.2481 H   0  0  0  0  0  0  0  0  0  0  0  0
   58.6869   28.8751   45.8047 H   0  0  0  0  0  0  0  0  0  0  0  0
   55.1480   28.1410   44.8670 H   0  0  0  0  0  0  0  0  0  0  0  0
   58.0670   30.0790   45.8810 H   0  0  0  0  0  0  0  0  0  0  0  0
   59.4232   31.5075   44.5417 H   0  0  0  0  0  0  0  0  0  0  0  0
   58.2350   31.3900   43.1907 H   0  0  0  0  0  0  0  0  0  0  0  0
   57.6919   33.5067   43.9091 H   0  0  0  0  0  0  0  0  0  0  0  0
   56.6635   32.5730   45.0576 H   0  0  0  0  0  0  0  0  0  0  0  0
   58.5000   30.9100   48.1440 H   0  0  0  0  0  0  0  0  0  0  0  0
   59.6523   33.1407   49.0134 H   0  0  0  0  0  0  0  0  0  0  0  0
  1  2  1  0
  2  3  1  0
  3  4  1  0
  4  5  2  0
  5  6  1  0
  6  7  2  0
  7  8  1  0
  8  9  2  0
  9 10  1  0
 10 11  1  0
 11 12  2  0
 11 13  1  0
 13 14  1  0
 14 15  1  0
 15 16  1  0
 16 17  1  0
 17 18  1  0
 17 19  2  0
 19 20  1  0
 20 21  1  0
 21 22  2  0
  9  4  1  0
 21 16  1  0
  1 23  1  0
  1 24  1  0
  1 25  1  0
  2 26  1  0
  2 27  1  0
  5 28  1  0
  6 29  1  0
  7 30  1  0
  8 31  1  0
 10 32  1  0
 13 33  1  0
 14 34  1  0
 14 35  1  0
 15 36  1  0
 15 37  1  0
 18 38  1  0
 19 39  1  0
M  END
>  <UniqueID>  (64) 
62

>  <SMILES>  (64) 
CCOc1ccccc1NC(=S)NCCn1c(O)csc1=O

>  <Energy>  (64) 
69.65103755971015

>  <Genealogy>  (64) 
CCOc1ccccc1NC(=S)NCCn1c(O)csc1=O (3D coordinates assigned)
CCOc1ccccc1NC(=S)NCCn1c(O)csc1=O (optimized conformer: 69.65103755971015 kcal/mol)

>  <smiles>  (64) 
CCOc1ccccc1NC(=S)NCCn1c(O)csc1=O

>  <score_type>  (64) 
oracle

>  <origin>  (64) 
adg

>  <m_score__min__energy>  (64) 
-7.25

>  <m_primary>  (64) 
energy

$$$$
64:0
     RDKit          3D

 44 46  0  0  0  0  0  0  0  0999 V2000
   57.8170   32.5550   42.7670 O   0  0  0  0  0  0  0  0  0  0  0  0
   57.8420   31.9750   44.1540 S   0  0  0  0  0  0  0  0  0  0  0  0
   56.4410   31.6120   44.5550 O   0  0  0  0  0  0  0  0  0  0  0  0
   58.8230   30.5450   44.1520 N   0  0  0  0  0  0  0  0  0  0  0  0
   58.5010   29.3210   44.8270 C   0  0  0  0  0  0  0  0  0  0  0  0
   59.0720   29.0790   46.0820 C   0  0  0  0  0  0  0  0  0  0  0  0
   58.7950   27.8950   46.7710 C   0  0  0  0  0  0  0  0  0  0  0  0
   57.9360   26.9340   46.2110 C   0  0  0  0  0  0  0  0  0  0  0  0
   57.6350   25.6980   46.8740 N   0  0  0  0  0  0  0  0  0  0  0  0
   56.2310   24.7230   46.5800 S   0  0  0  0  0  0  0  0  0  0  0  0
   55.1310   25.6030   46.0590 O   0  0  0  0  0  0  0  0  0  0  0  0
   55.7930   24.1030   47.8770 O   0  0  0  0  0  0  0  0  0  0  0  0
   56.5800   23.4760   45.3780 C   0  0  0  0  0  0  0  0  0  0  0  0
   56.2830   23.7160   44.0270 C   0  0  0  0  0  0  0  0  0  0  0  0
   56.5570   22.7490   43.0590 C   0  0  0  0  0  0  0  0  0  0  0  0
   57.1230   21.5300   43.4320 C   0  0  0  0  0  0  0  0  0  0  0  0
   57.4100   21.2710   44.7740 C   0  0  0  0  0  0  0  0  0  0  0  0
   57.1370   22.2390   45.7630 C   0  0  0  0  0  0  0  0  0  0  0  0
   57.3990   22.0080   47.1250 O   0  0  0  0  0  0  0  0  0  0  0  0
   56.6090   21.2020   47.9970 C   0  0  0  0  0  0  0  0  0  0  0  0
   57.0680   19.9010   47.9430 F   0  0  0  0  0  0  0  0  0  0  0  0
   55.2840   21.2250   47.5980 F   0  0  0  0  0  0  0  0  0  0  0  0
   56.7180   21.6590   49.2980 F   0  0  0  0  0  0  0  0  0  0  0  0
   57.3590   27.1790   44.9600 C   0  0  0  0  0  0  0  0  0  0  0  0
   57.6350   28.3640   44.2700 C   0  0  0  0  0  0  0  0  0  0  0  0
   58.4810   33.1390   45.3130 C   0  0  0  0  0  0  0  0  0  0  0  0
   59.1020   34.3160   44.8650 C   0  0  0  0  0  0  0  0  0  0  0  0
   59.6210   35.2320   45.7850 C   0  0  0  0  0  0  0  0  0  0  0  0
   59.5210   34.9800   47.1560 C   0  0  0  0  0  0  0  0  0  0  0  0
   58.9010   33.8130   47.6090 C   0  0  0  0  0  0  0  0  0  0  0  0
   58.3800   32.8930   46.6920 C   0  0  0  0  0  0  0  0  0  0  0  0
   57.7780   31.7670   47.1500 F   0  0  0  0  0  0  0  0  0  0  0  0
   59.7438   29.8264   46.5293 H   0  0  0  0  0  0  0  0  0  0  0  0
   59.2512   27.7146   47.7556 H   0  0  0  0  0  0  0  0  0  0  0  0
   55.8309   24.6736   43.7293 H   0  0  0  0  0  0  0  0  0  0  0  0
   56.3267   22.9480   42.0020 H   0  0  0  0  0  0  0  0  0  0  0  0
   57.3439   20.7708   42.6673 H   0  0  0  0  0  0  0  0  0  0  0  0
   57.8519   20.3056   45.0617 H   0  0  0  0  0  0  0  0  0  0  0  0
   56.6829   26.4337   44.5156 H   0  0  0  0  0  0  0  0  0  0  0  0
   57.1731   28.5476   43.2887 H   0  0  0  0  0  0  0  0  0  0  0  0
   59.1804   34.5181   43.7866 H   0  0  0  0  0  0  0  0  0  0  0  0
   60.1084   36.1518   45.4294 H   0  0  0  0  0  0  0  0  0  0  0  0
   59.9307   35.7009   47.8788 H   0  0  0  0  0  0  0  0  0  0  0  0
   58.8221   33.6168   48.6885 H   0  0  0  0  0  0  0  0  0  0  0  0
  1  2  2  0
  2  3  2  0
  2  4  1  0
  4  5  1  0
  5  6  2  0
  6  7  1  0
  7  8  2  0
  8  9  1  0
  9 10  1  0
 10 11  2  0
 10 12  2  0
 10 13  1  0
 13 14  2  0
 14 15  1  0
 15 16  2  0
 16 17  1  0
 17 18  2  0
 18 19  1  0
 19 20  1  0
 20 21  1  0
 20 22  1  0
 20 23  1  0
  8 24  1  0
 24 25  2  0
  2 26  1  0
 26 27  2  0
 27 28  1  0
 28 29  2  0
 29 30  1  0
 30 31  2  0
 31 32  1  0
 25  5  1  0
 31 26  1  0
 18 13  1  0
  6 33  1  0
  7 34  1  0
 14 35  1  0
 15 36  1  0
 16 37  1  0
 17 38  1  0
 24 39  1  0
 25 40  1  0
 27 41  1  0
 28 42  1  0
 29 43  1  0
 30 44  1  0
M  CHG  2   4  -1   9  -1
M  END
>  <UniqueID>  (65) 
63

>  <SMILES>  (65) 
O=S(=O)([N-]c1ccc([N-]S(=O)(=O)c2ccccc2OC(F)(F)F)cc1)c1ccccc1F

>  <Energy>  (65) 
54.41851282028692

>  <Genealogy>  (65) 
O=S(=O)([N-]c1ccc([N-]S(=O)(=O)c2ccccc2OC(F)(F)F)cc1)c1ccccc1F (protonated)
O=S(=O)([N-]c1ccc([N-]S(=O)(=O)c2ccccc2OC(F)(F)F)cc1)c1ccccc1F (3D coordinates assigned)
O=S(=O)([N-]c1ccc([N-]S(=O)(=O)c2ccccc2OC(F)(F)F)cc1)c1ccccc1F (optimized conformer: 54.41851282028692 kcal/mol)

>  <smiles>  (65) 
O=S(=O)(Nc1ccc(NS(=O)(=O)c2ccccc2OC(F)(F)F)cc1)c1ccccc1F

>  <score_type>  (65) 
oracle

>  <origin>  (65) 
adg

>  <m_score__min__energy>  (65) 
-11.43

>  <m_primary>  (65) 
energy

$$$$
65:0
     RDKit          3D

 57 60  0  0  0  0  0  0  0  0999 V2000
   59.2820   34.8440   54.3370 C   0  0  0  0  0  0  0  0  0  0  0  0
   58.5110   34.3150   53.2630 O   0  0  0  0  0  0  0  0  0  0  0  0
   59.0170   33.4580   52.2730 C   0  0  0  0  0  0  0  0  0  0  0  0
   60.3980   33.2880   52.0520 C   0  0  0  0  0  0  0  0  0  0  0  0
   60.8510   32.4160   51.0570 C   0  0  0  0  0  0  0  0  0  0  0  0
   59.9410   31.7040   50.2590 C   0  0  0  0  0  0  0  0  0  0  0  0
   60.4440   30.8070   49.2510 N   0  0  0  0  0  0  0  0  0  0  0  0
   59.7030   29.2910   48.8400 S   0  0  0  0  0  0  0  0  0  0  0  0
   60.7620   28.2230   48.8510 O   0  0  0  0  0  0  0  0  0  0  0  0
   58.6690   28.9690   49.8820 O   0  0  0  0  0  0  0  0  0  0  0  0
   58.9170   29.3590   47.2500 C   0  0  0  0  0  0  0  0  0  0  0  0
   58.5550   30.6140   46.7350 C   0  0  0  0  0  0  0  0  0  0  0  0
   57.9900   30.7410   45.4590 C   0  0  0  0  0  0  0  0  0  0  0  0
   57.6180   32.0140   44.9180 N   0  0  0  0  0  0  0  0  0  0  0  0
   57.6270   33.5180   45.7870 S   0  0  0  0  0  0  0  0  0  0  0  0
   57.3540   34.6760   44.8710 O   0  0  0  0  0  0  0  0  0  0  0  0
   56.5310   33.4700   46.8120 O   0  0  0  0  0  0  0  0  0  0  0  0
   59.1830   33.7170   46.5960 C   0  0  0  0  0  0  0  0  0  0  0  0
   60.3550   33.2240   46.0030 C   0  0  0  0  0  0  0  0  0  0  0  0
   61.5800   33.3010   46.6780 C   0  0  0  0  0  0  0  0  0  0  0  0
   61.6550   33.9080   47.9450 C   0  0  0  0  0  0  0  0  0  0  0  0
   62.8760   33.9520   48.6980 N   0  0  0  0  0  0  0  0  0  0  0  0
   63.7280   32.8600   49.0570 C   0  0  0  0  0  0  0  0  0  0  0  0
   65.0390   33.0620   49.7500 C   0  0  0  0  0  0  0  0  0  0  0  0
   63.3400   31.6880   48.8200 O   0  0  0  0  0  0  0  0  0  0  0  0
   60.4810   34.3950   48.5370 C   0  0  0  0  0  0  0  0  0  0  0  0
   59.2530   34.3030   47.8690 C   0  0  0  0  0  0  0  0  0  0  0  0
   57.8020   29.6020   44.6780 C   0  0  0  0  0  0  0  0  0  0  0  0
   58.1110   28.3310   45.1810 C   0  0  0  0  0  0  0  0  0  0  0  0
   57.8580   27.1910   44.4000 C   0  0  0  0  0  0  0  0  0  0  0  0
   58.1400   25.9190   44.8980 C   0  0  0  0  0  0  0  0  0  0  0  0
   58.6750   25.7730   46.1760 C   0  0  0  0  0  0  0  0  0  0  0  0
   58.9370   26.8960   46.9660 C   0  0  0  0  0  0  0  0  0  0  0  0
   58.6650   28.1940   46.4810 C   0  0  0  0  0  0  0  0  0  0  0  0
   58.5620   31.8780   50.4830 C   0  0  0  0  0  0  0  0  0  0  0  0
   58.1090   32.7470   51.4820 C   0  0  0  0  0  0  0  0  0  0  0  0
   58.8356   34.5377   55.2945 H   0  0  0  0  0  0  0  0  0  0  0  0
   60.3111   34.4609   54.2731 H   0  0  0  0  0  0  0  0  0  0  0  0
   59.2949   35.9421   54.2731 H   0  0  0  0  0  0  0  0  0  0  0  0
   61.1231   33.8436   52.6648 H   0  0  0  0  0  0  0  0  0  0  0  0
   61.9317   32.2865   50.8978 H   0  0  0  0  0  0  0  0  0  0  0  0
   61.2590   31.1080   48.6640 H   0  0  0  0  0  0  0  0  0  0  0  0
   58.7180   31.5148   47.3449 H   0  0  0  0  0  0  0  0  0  0  0  0
   60.3116   32.7736   45.0004 H   0  0  0  0  0  0  0  0  0  0  0  0
   62.4872   32.8851   46.2155 H   0  0  0  0  0  0  0  0  0  0  0  0
   64.8856   33.0384   50.8390 H   0  0  0  0  0  0  0  0  0  0  0  0
   65.7343   32.2604   49.4602 H   0  0  0  0  0  0  0  0  0  0  0  0
   65.4607   34.0357   49.4602 H   0  0  0  0  0  0  0  0  0  0  0  0
   60.5246   34.8538   49.5358 H   0  0  0  0  0  0  0  0  0  0  0  0
   58.3403   34.6916   48.3443 H   0  0  0  0  0  0  0  0  0  0  0  0
   57.4070   29.7018   43.6562 H   0  0  0  0  0  0  0  0  0  0  0  0
   57.4353   27.3021   43.3905 H   0  0  0  0  0  0  0  0  0  0  0  0
   57.9398   25.0305   44.2812 H   0  0  0  0  0  0  0  0  0  0  0  0
   58.8926   24.7677   46.5658 H   0  0  0  0  0  0  0  0  0  0  0  0
   59.3586   26.7676   47.9739 H   0  0  0  0  0  0  0  0  0  0  0  0
   57.8352   31.3268   49.8682 H   0  0  0  0  0  0  0  0  0  0  0  0
   57.0286   32.8720   51.6466 H   0  0  0  0  0  0  0  0  0  0  0  0
  1  2  1  0
  2  3  1  0
  3  4  2  0
  4  5  1  0
  5  6  2  0
  6  7  1  0
  7  8  1  0
  8  9  2  0
  8 10  2  0
  8 11  1  0
 11 12  2  0
 12 13  1  0
 13 14  1  0
 14 15  1  0
 15 16  2  0
 15 17  2  0
 15 18  1  0
 18 19  2  0
 19 20  1  0
 20 21  2  0
 21 22  1  0
 22 23  1  0
 23 24  1  0
 23 25  2  0
 21 26  1  0
 26 27  2  0
 13 28  2  0
 28 29  1  0
 29 30  2  0
 30 31  1  0
 31 32  2  0
 32 33  1  0
 33 34  2  0
  6 35  1  0
 35 36  2  0
 36  3  1  0
 34 11  1  0
 27 18  1  0
 34 29  1  0
  1 37  1  0
  1 38  1  0
  1 39  1  0
  4 40  1  0
  5 41  1  0
  7 42  1  0
 12 43  1  0
 19 44  1  0
 20 45  1  0
 24 46  1  0
 24 47  1  0
 24 48  1  0
 26 49  1  0
 27 50  1  0
 28 51  1  0
 30 52  1  0
 31 53  1  0
 32 54  1  0
 33 55  1  0
 35 56  1  0
 36 57  1  0
M  CHG  2  14  -1  22  -1
M  END
>  <UniqueID>  (66) 
64

>  <SMILES>  (66) 
COc1ccc(NS(=O)(=O)c2cc([N-]S(=O)(=O)c3ccc([N-]C(C)=O)cc3)cc3ccccc23)cc1

>  <Energy>  (66) 
79.06315064494449

>  <Genealogy>  (66) 
COc1ccc(NS(=O)(=O)c2cc([N-]S(=O)(=O)c3ccc([N-]C(C)=O)cc3)cc3ccccc23)cc1 (protonated)
COc1ccc(NS(=O)(=O)c2cc([N-]S(=O)(=O)c3ccc([N-]C(C)=O)cc3)cc3ccccc23)cc1 (3D coordinates assigned)
COc1ccc(NS(=O)(=O)c2cc([N-]S(=O)(=O)c3ccc([N-]C(C)=O)cc3)cc3ccccc23)cc1 (optimized conformer: 79.06315064494449 kcal/mol)

>  <smiles>  (66) 
COc1ccc(NS(=O)(=O)c2cc(NS(=O)(=O)c3ccc(NC(C)=O)cc3)cc3ccccc23)cc1

>  <score_type>  (66) 
oracle

>  <origin>  (66) 
adg

>  <m_score__min__energy>  (66) 
-12.460000000000001

>  <m_primary>  (66) 
energy

$$$$
66:0
     RDKit          3D

 35 37  0  0  0  0  0  0  0  0999 V2000
   57.8649   34.3994   46.0535 H   0  0  0  0  0  0  0  0  0  0  0  0
   57.7520   33.5270   45.3930 C   0  0  0  0  0  0  0  0  0  0  0  0
   57.0430   32.4260   45.7550 N   0  0  0  0  0  0  0  0  0  0  0  0
   57.0410   31.4940   44.7750 C   0  0  0  0  0  0  0  0  0  0  0  0
   56.4640   30.3340   44.8650 N   0  0  0  0  0  0  0  0  0  0  0  0
   57.0290   29.0700   44.4810 C   0  0  0  0  0  0  0  0  0  0  0  0
   57.0200   28.7530   43.2630 O   0  0  0  0  0  0  0  0  0  0  0  0
   57.5460   28.0970   45.4730 C   0  0  0  0  0  0  0  0  0  0  0  0
   57.3510   26.7240   45.2380 C   0  0  0  0  0  0  0  0  0  0  0  0
   56.7588   26.3984   44.3701 H   0  0  0  0  0  0  0  0  0  0  0  0
   57.9020   25.7710   46.0960 C   0  0  0  0  0  0  0  0  0  0  0  0
   57.7322   24.7003   45.9096 H   0  0  0  0  0  0  0  0  0  0  0  0
   58.6680   26.1750   47.1900 C   0  0  0  0  0  0  0  0  0  0  0  0
   59.1092   25.4223   47.8600 H   0  0  0  0  0  0  0  0  0  0  0  0
   58.8750   27.5340   47.4350 C   0  0  0  0  0  0  0  0  0  0  0  0
   59.4894   27.8454   48.2926 H   0  0  0  0  0  0  0  0  0  0  0  0
   58.3070   28.5060   46.5980 C   0  0  0  0  0  0  0  0  0  0  0  0
   58.5190   29.8920   46.9140 N   0  0  0  0  0  0  0  0  0  0  0  0
   57.7850   30.5730   46.6140 H   0  0  0  0  0  0  0  0  0  0  0  0
   59.8040   30.4200   47.2800 C   0  0  0  0  0  0  0  0  0  0  0  0
   60.8200   29.6730   47.2560 O   0  0  0  0  0  0  0  0  0  0  0  0
   59.9750   31.8580   47.5890 C   0  0  0  0  0  0  0  0  0  0  0  0
   60.7110   32.6550   46.6920 C   0  0  0  0  0  0  0  0  0  0  0  0
   61.1556   32.1978   45.7957 H   0  0  0  0  0  0  0  0  0  0  0  0
   60.8820   34.0200   46.9290 C   0  0  0  0  0  0  0  0  0  0  0  0
   61.4537   34.6331   46.2168 H   0  0  0  0  0  0  0  0  0  0  0  0
   60.3300   34.6080   48.0660 C   0  0  0  0  0  0  0  0  0  0  0  0
   60.4582   35.6856   48.2457 H   0  0  0  0  0  0  0  0  0  0  0  0
   59.6140   33.8280   48.9770 C   0  0  0  0  0  0  0  0  0  0  0  0
   59.1882   34.2938   49.8780 H   0  0  0  0  0  0  0  0  0  0  0  0
   59.4340   32.4570   48.7520 C   0  0  0  0  0  0  0  0  0  0  0  0
   58.5300   31.4590   50.1200 Br  0  0  0  0  0  0  0  0  0  0  0  0
   57.9270   31.9870   43.4370 S   0  0  0  0  0  0  0  0  0  0  0  0
   58.3250   33.4710   44.1260 C   0  0  0  0  0  0  0  0  0  0  0  0
   58.9322   34.2589   43.6564 H   0  0  0  0  0  0  0  0  0  0  0  0
  1  2  1  0
  2  3  1  0
  3  4  1  0
  4  5  2  0
  5  6  1  0
  6  7  2  0
  6  8  1  0
  8  9  2  0
  9 10  1  0
  9 11  1  0
 11 12  1  0
 11 13  2  0
 13 14  1  0
 13 15  1  0
 15 16  1  0
 15 17  2  0
 17 18  1  0
 18 19  1  0
 18 20  1  0
 20 21  2  0
 20 22  1  0
 22 23  2  0
 23 24  1  0
 23 25  1  0
 25 26  1  0
 25 27  2  0
 27 28  1  0
 27 29  1  0
 29 30  1  0
 29 31  2  0
 31 32  1  0
  4 33  1  0
 33 34  1  0
 34 35  1  0
 34  2  2  0
 17  8  1  0
 31 22  1  0
M  CHG  1   3  -1
M  END
>  <UniqueID>  (67) 
65

>  <SMILES>  (67) 
O=C(Nc1ccccc1C(=O)/N=c1\[n-]ccs1)c1ccccc1Br

>  <Energy>  (67) 
87.11122250211751

>  <Genealogy>  (67) 
O=C(Nc1ccccc1C(=O)N=c1[n-]ccs1)c1ccccc1Br (protonated)
O=C(Nc1ccccc1C(=O)/N=c1\[n-]ccs1)c1ccccc1Br (cis-trans isomerization)
O=C(Nc1ccccc1C(=O)/N=c1\[n-]ccs1)c1ccccc1Br (3D coordinates assigned)
O=C(Nc1ccccc1C(=O)/N=c1\[n-]ccs1)c1ccccc1Br (optimized conformer: 87.11122250211751 kcal/mol)

>  <smiles>  (67) 
O=C(Nc1ccccc1C(=O)N=c1[nH]ccs1)c1ccccc1Br

>  <score_type>  (67) 
oracle

>  <origin>  (67) 
adg

>  <m_score__min__energy>  (67) 
-9.1999999999999993

>  <m_primary>  (67) 
energy

$$$$
67:0
     RDKit          3D

 62 66  0  0  0  0  0  0  0  0999 V2000
   61.1800   33.8120   46.7740 C   0  0  0  0  0  0  0  0  0  0  0  0
   60.0090   34.7040   46.8730 N   0  0  0  0  0  0  0  0  0  0  0  0
   59.6540   35.2990   45.5660 C   0  0  0  0  0  0  0  0  0  0  0  0
   59.1600   34.2370   44.5710 C   0  0  0  0  0  0  0  0  0  0  0  0
   58.3190   33.2460   45.2480 N   0  0  0  0  0  0  0  0  0  0  0  0
   57.8490   32.1130   44.5070 C   0  0  0  0  0  0  0  0  0  0  0  0
   57.5110   32.2670   43.1560 C   0  0  0  0  0  0  0  0  0  0  0  0
   57.0430   31.1770   42.4200 C   0  0  0  0  0  0  0  0  0  0  0  0
   56.9030   29.9300   43.0300 C   0  0  0  0  0  0  0  0  0  0  0  0
   57.2380   29.7670   44.3760 C   0  0  0  0  0  0  0  0  0  0  0  0
   57.7270   30.8560   45.1240 C   0  0  0  0  0  0  0  0  0  0  0  0
   58.1610   30.6970   46.4860 N   0  0  0  0  0  0  0  0  0  0  0  0
   59.5150   30.4400   46.8630 C   0  0  0  0  0  0  0  0  0  0  0  0
   60.4250   31.1970   46.4300 O   0  0  0  0  0  0  0  0  0  0  0  0
   59.8430   29.3100   47.7610 C   0  0  0  0  0  0  0  0  0  0  0  0
   60.1820   28.0500   47.2300 C   0  0  0  0  0  0  0  0  0  0  0  0
   60.4630   26.9770   48.0810 C   0  0  0  0  0  0  0  0  0  0  0  0
   60.3890   27.1420   49.4670 C   0  0  0  0  0  0  0  0  0  0  0  0
   60.0390   28.3870   50.0110 C   0  0  0  0  0  0  0  0  0  0  0  0
   59.9880   28.6030   51.4280 N   0  0  0  0  0  0  0  0  0  0  0  0
   59.1000   29.4920   52.1120 C   0  0  0  0  0  0  0  0  0  0  0  0
   59.3960   30.7150   52.1790 O   0  0  0  0  0  0  0  0  0  0  0  0
   57.8950   28.9920   52.7140 N   0  0  0  0  0  0  0  0  0  0  0  0
   56.5770   29.5470   52.5830 C   0  0  0  0  0  0  0  0  0  0  0  0
   56.4530   30.8970   52.2230 C   0  0  0  0  0  0  0  0  0  0  0  0
   55.1880   31.4760   52.0690 C   0  0  0  0  0  0  0  0  0  0  0  0
   54.0220   30.7180   52.2890 C   0  0  0  0  0  0  0  0  0  0  0  0
   52.6900   31.3380   52.0970 C   0  0  0  0  0  0  0  0  0  0  0  0
   51.6670   31.4220   53.0290 C   0  0  0  0  0  0  0  0  0  0  0  0
   50.6480   32.0610   52.3580 C   0  0  0  0  0  0  0  0  0  0  0  0
   51.0450   32.3410   51.0990 N   0  0  0  0  0  0  0  0  0  0  0  0
   52.2850   31.9000   50.9390 N   0  0  0  0  0  0  0  0  0  0  0  0
   54.1510   29.3730   52.6920 C   0  0  0  0  0  0  0  0  0  0  0  0
   55.4160   28.7950   52.8480 C   0  0  0  0  0  0  0  0  0  0  0  0
   59.7940   29.4710   49.1580 C   0  0  0  0  0  0  0  0  0  0  0  0
   57.7670   33.5300   46.5750 C   0  0  0  0  0  0  0  0  0  0  0  0
   58.8610   34.0380   47.5410 C   0  0  0  0  0  0  0  0  0  0  0  0
   61.5264   33.5481   47.7841 H   0  0  0  0  0  0  0  0  0  0  0  0
   60.8991   32.8969   46.2320 H   0  0  0  0  0  0  0  0  0  0  0  0
   61.9876   34.3259   46.2320 H   0  0  0  0  0  0  0  0  0  0  0  0
   58.8577   36.0426   45.7177 H   0  0  0  0  0  0  0  0  0  0  0  0
   60.5569   35.7668   45.1466 H   0  0  0  0  0  0  0  0  0  0  0  0
   58.5743   34.7279   43.7798 H   0  0  0  0  0  0  0  0  0  0  0  0
   60.0318   33.7249   44.1377 H   0  0  0  0  0  0  0  0  0  0  0  0
   57.6148   33.2501   42.6736 H   0  0  0  0  0  0  0  0  0  0  0  0
   56.7844   31.3014   41.3581 H   0  0  0  0  0  0  0  0  0  0  0  0
   56.5282   29.0739   42.4498 H   0  0  0  0  0  0  0  0  0  0  0  0
   57.1195   28.7836   44.8544 H   0  0  0  0  0  0  0  0  0  0  0  0
   60.2258   27.9096   46.1399 H   0  0  0  0  0  0  0  0  0  0  0  0
   60.7430   26.0006   47.6588 H   0  0  0  0  0  0  0  0  0  0  0  0
   60.6057   26.2937   50.1329 H   0  0  0  0  0  0  0  0  0  0  0  0
   57.3556   31.5045   52.0607 H   0  0  0  0  0  0  0  0  0  0  0  0
   55.1041   32.5323   51.7736 H   0  0  0  0  0  0  0  0  0  0  0  0
   51.6688   31.0606   54.0679 H   0  0  0  0  0  0  0  0  0  0  0  0
   49.6631   32.3053   52.7826 H   0  0  0  0  0  0  0  0  0  0  0  0
   53.2497   28.7729   52.8854 H   0  0  0  0  0  0  0  0  0  0  0  0
   55.5038   27.7496   53.1788 H   0  0  0  0  0  0  0  0  0  0  0  0
   59.5610   30.4578   49.5846 H   0  0  0  0  0  0  0  0  0  0  0  0
   56.9863   34.2993   46.4813 H   0  0  0  0  0  0  0  0  0  0  0  0
   57.3482   32.5985   46.9836 H   0  0  0  0  0  0  0  0  0  0  0  0
   58.4009   34.7582   48.2335 H   0  0  0  0  0  0  0  0  0  0  0  0
   59.2659   33.1513   48.0507 H   0  0  0  0  0  0  0  0  0  0  0  0
  1  2  1  0
  2  3  1  0
  3  4  1  0
  4  5  1  0
  5  6  1  0
  6  7  2  0
  7  8  1  0
  8  9  2  0
  9 10  1  0
 10 11  2  0
 11 12  1  0
 12 13  1  0
 13 14  2  0
 13 15  1  0
 15 16  2  0
 16 17  1  0
 17 18  2  0
 18 19  1  0
 19 20  1  0
 20 21  1  0
 21 22  2  0
 21 23  1  0
 23 24  1  0
 24 25  2  0
 25 26  1  0
 26 27  2  0
 27 28  1  0
 28 29  1  0
 29 30  2  0
 30 31  1  0
 31 32  1  0
 27 33  1  0
 33 34  2  0
 19 35  2  0
  5 36  1  0
 36 37  1  0
 37  2  1  0
 11  6  1  0
 35 15  1  0
 34 24  1  0
 32 28  2  0
  1 38  1  0
  1 39  1  0
  1 40  1  0
  3 41  1  0
  3 42  1  0
  4 43  1  0
  4 44  1  0
  7 45  1  0
  8 46  1  0
  9 47  1  0
 10 48  1  0
 16 49  1  0
 17 50  1  0
 18 51  1  0
 25 52  1  0
 26 53  1  0
 29 54  1  0
 30 55  1  0
 33 56  1  0
 34 57  1  0
 35 58  1  0
 36 59  1  0
 36 60  1  0
 37 61  1  0
 37 62  1  0
M  CHG  4  12  -1  20  -1  23  -1  31  -1
M  END
>  <UniqueID>  (68) 
66

>  <SMILES>  (68) 
CN1CCN(c2ccccc2[N-]C(=O)c2cccc([N-]C(=O)[N-]c3ccc(-c4cc[n-]n4)cc3)c2)CC1

>  <Energy>  (68) 
127.33653720659076

>  <Genealogy>  (68) 
CN1CCN(c2ccccc2[N-]C(=O)c2cccc([N-]C(=O)[N-]c3ccc(-c4cc[n-]n4)cc3)c2)CC1 (protonated)
CN1CCN(c2ccccc2[N-]C(=O)c2cccc([N-]C(=O)[N-]c3ccc(-c4cc[n-]n4)cc3)c2)CC1 (3D coordinates assigned)
CN1CCN(c2ccccc2[N-]C(=O)c2cccc([N-]C(=O)[N-]c3ccc(-c4cc[n-]n4)cc3)c2)CC1 (nonaromatic ring conformer: 127.33653720659076 kcal/mol)

>  <smiles>  (68) 
CN1CCN(c2ccccc2NC(=O)c2cccc(NC(=O)Nc3ccc(-c4cc[nH]n4)cc3)c2)CC1

>  <score_type>  (68) 
oracle

>  <origin>  (68) 
adg

>  <m_score__min__energy>  (68) 
-15.33

>  <m_primary>  (68) 
energy

$$$$
68:0
     RDKit          3D

 37 39  0  0  0  0  0  0  0  0999 V2000
   57.8460   21.4720   45.0170 C   0  0  0  0  0  0  0  0  0  0  0  0
   57.3070   22.3210   46.1240 C   0  0  0  0  0  0  0  0  0  0  0  0
   57.1390   21.8090   47.2640 O   0  0  0  0  0  0  0  0  0  0  0  0
   56.9680   23.7420   45.9120 C   0  0  0  0  0  0  0  0  0  0  0  0
   57.8150   24.7100   45.3890 C   0  0  0  0  0  0  0  0  0  0  0  0
   57.1840   25.9040   45.3500 N   0  0  0  0  0  0  0  0  0  0  0  0
   57.7800   27.1800   44.9500 C   0  0  0  0  0  0  0  0  0  0  0  0
   57.8530   28.1480   46.1380 C   0  0  0  0  0  0  0  0  0  0  0  0
   57.7780   29.5870   45.6860 C   0  0  0  0  0  0  0  0  0  0  0  0
   58.7810   30.4910   46.0680 C   0  0  0  0  0  0  0  0  0  0  0  0
   58.6840   31.8410   45.7130 C   0  0  0  0  0  0  0  0  0  0  0  0
   59.6670   32.7670   46.0920 C   0  0  0  0  0  0  0  0  0  0  0  0
   59.5400   34.1100   45.7240 C   0  0  0  0  0  0  0  0  0  0  0  0
   58.4350   34.5340   44.9800 C   0  0  0  0  0  0  0  0  0  0  0  0
   57.4480   33.6190   44.6000 C   0  0  0  0  0  0  0  0  0  0  0  0
   57.5660   32.2730   44.9650 C   0  0  0  0  0  0  0  0  0  0  0  0
   56.6050   31.3810   44.6070 N   0  0  0  0  0  0  0  0  0  0  0  0
   56.6770   30.0670   44.9470 C   0  0  0  0  0  0  0  0  0  0  0  0
   55.7490   29.2900   44.6010 O   0  0  0  0  0  0  0  0  0  0  0  0
   55.9480   25.7120   45.8530 C   0  0  0  0  0  0  0  0  0  0  0  0
   54.9980   26.7150   46.0070 O   0  0  0  0  0  0  0  0  0  0  0  0
   55.7790   24.3930   46.2060 C   0  0  0  0  0  0  0  0  0  0  0  0
   54.6350   23.8290   46.7630 O   0  0  0  0  0  0  0  0  0  0  0  0
   58.3896   20.6158   45.4430 H   0  0  0  0  0  0  0  0  0  0  0  0
   57.0142   21.1065   44.3969 H   0  0  0  0  0  0  0  0  0  0  0  0
   58.5307   22.0693   44.3969 H   0  0  0  0  0  0  0  0  0  0  0  0
   58.8478   24.5310   45.0555 H   0  0  0  0  0  0  0  0  0  0  0  0
   58.7964   26.9991   44.5702 H   0  0  0  0  0  0  0  0  0  0  0  0
   57.1515   27.6310   44.1680 H   0  0  0  0  0  0  0  0  0  0  0  0
   57.0131   27.9429   46.8181 H   0  0  0  0  0  0  0  0  0  0  0  0
   58.8160   27.9964   46.6475 H   0  0  0  0  0  0  0  0  0  0  0  0
   59.6460   30.1373   46.6482 H   0  0  0  0  0  0  0  0  0  0  0  0
   60.5372   32.4369   46.6783 H   0  0  0  0  0  0  0  0  0  0  0  0
   60.3120   34.8352   46.0209 H   0  0  0  0  0  0  0  0  0  0  0  0
   58.3415   35.5916   44.6923 H   0  0  0  0  0  0  0  0  0  0  0  0
   56.5799   33.9568   44.0149 H   0  0  0  0  0  0  0  0  0  0  0  0
   53.8850   24.4130   47.1130 H   0  0  0  0  0  0  0  0  0  0  0  0
  1  2  1  0
  2  3  2  0
  2  4  1  0
  4  5  2  0
  5  6  1  0
  6  7  1  0
  7  8  1  0
  8  9  1  0
  9 10  2  0
 10 11  1  0
 11 12  2  0
 12 13  1  0
 13 14  2  0
 14 15  1  0
 15 16  2  0
 16 17  1  0
 17 18  1  0
 18 19  2  0
  6 20  1  0
 20 21  1  0
 20 22  2  0
 22 23  1  0
 22  4  1  0
 18  9  1  0
 16 11  1  0
  1 24  1  0
  1 25  1  0
  1 26  1  0
  5 27  1  0
  7 28  1  0
  7 29  1  0
  8 30  1  0
  8 31  1  0
 10 32  1  0
 12 33  1  0
 13 34  1  0
 14 35  1  0
 15 36  1  0
 23 37  1  0
M  CHG  2  17  -1  21  -1
M  END
>  <UniqueID>  (69) 
67

>  <SMILES>  (69) 
CC(=O)c1cn(CCc2cc3ccccc3[n-]c2=O)c([O-])c1O

>  <Energy>  (69) 
65.76396508821976

>  <Genealogy>  (69) 
CC(=O)c1cn(CCc2cc3ccccc3[n-]c2=O)c([O-])c1O (protonated)
CC(=O)c1cn(CCc2cc3ccccc3[n-]c2=O)c([O-])c1O (3D coordinates assigned)
CC(=O)c1cn(CCc2cc3ccccc3[n-]c2=O)c([O-])c1O (optimized conformer: 65.76396508821976 kcal/mol)

>  <smiles>  (69) 
CC(=O)c1cn(CCc2cc3ccccc3[nH]c2=O)c(O)c1O

>  <score_type>  (69) 
oracle

>  <origin>  (69) 
adg

>  <m_score__min__energy>  (69) 
-13.76

>  <m_primary>  (69) 
energy

$$$$
69:0
     RDKit          3D

 51 55  0  0  0  0  0  0  0  0999 V2000
   57.3350   27.0380   46.9880 O   0  0  0  0  0  0  0  0  0  0  0  0
   57.6900   28.0260   46.2940 C   0  0  0  0  0  0  0  0  0  0  0  0
   57.1070   28.1950   44.9940 N   0  0  0  0  0  0  0  0  0  0  0  0
   57.7940   28.0830   43.7060 C   0  0  0  0  0  0  0  0  0  0  0  0
   58.1020   26.6200   43.3670 C   0  0  0  0  0  0  0  0  0  0  0  0
   57.4040   25.6960   44.2620 N   0  0  0  0  0  0  0  0  0  0  0  0
   57.4140   24.2600   44.1320 C   0  0  0  0  0  0  0  0  0  0  0  0
   58.1790   23.4340   44.9810 C   0  0  0  0  0  0  0  0  0  0  0  0
   58.1930   22.0490   44.7930 C   0  0  0  0  0  0  0  0  0  0  0  0
   57.4390   21.4700   43.7690 C   0  0  0  0  0  0  0  0  0  0  0  0
   56.6600   22.2760   42.9370 C   0  0  0  0  0  0  0  0  0  0  0  0
   56.6450   23.6610   43.1200 C   0  0  0  0  0  0  0  0  0  0  0  0
   58.6870   28.9670   46.8490 C   0  0  0  0  0  0  0  0  0  0  0  0
   59.8040   28.4940   47.5490 C   0  0  0  0  0  0  0  0  0  0  0  0
   60.7660   29.3840   48.0230 C   0  0  0  0  0  0  0  0  0  0  0  0
   60.6090   30.7600   47.8390 C   0  0  0  0  0  0  0  0  0  0  0  0
   61.5970   31.6030   48.2670 N   0  0  0  0  0  0  0  0  0  0  0  0
   61.5150   32.9510   48.1080 C   0  0  0  0  0  0  0  0  0  0  0  0
   62.4480   33.6970   48.5050 O   0  0  0  0  0  0  0  0  0  0  0  0
   60.3810   33.4760   47.5050 C   0  0  0  0  0  0  0  0  0  0  0  0
   60.0220   34.7740   47.2380 C   0  0  0  0  0  0  0  0  0  0  0  0
   58.7980   34.7590   46.6730 N   0  0  0  0  0  0  0  0  0  0  0  0
   58.3810   33.5010   46.5750 N   0  0  0  0  0  0  0  0  0  0  0  0
   57.0540   33.1910   46.0400 C   0  0  0  0  0  0  0  0  0  0  0  0
   57.1590   32.3830   44.7820 C   0  0  0  0  0  0  0  0  0  0  0  0
   58.0160   32.6330   43.7290 C   0  0  0  0  0  0  0  0  0  0  0  0
   57.7460   31.6600   42.7920 C   0  0  0  0  0  0  0  0  0  0  0  0
   56.7370   30.8830   43.3260 C   0  0  0  0  0  0  0  0  0  0  0  0
   56.4060   31.3430   44.5100 O   0  0  0  0  0  0  0  0  0  0  0  0
   59.3490   32.6810   47.0710 C   0  0  0  0  0  0  0  0  0  0  0  0
   59.4370   31.2690   47.2010 C   0  0  0  0  0  0  0  0  0  0  0  0
   58.4920   30.3510   46.7040 C   0  0  0  0  0  0  0  0  0  0  0  0
   57.1523   28.5061   42.9191 H   0  0  0  0  0  0  0  0  0  0  0  0
   58.7444   28.6333   43.7693 H   0  0  0  0  0  0  0  0  0  0  0  0
   57.7864   26.4202   42.3324 H   0  0  0  0  0  0  0  0  0  0  0  0
   59.1838   26.4615   43.4880 H   0  0  0  0  0  0  0  0  0  0  0  0
   56.9270   26.1150   45.0930 H   0  0  0  0  0  0  0  0  0  0  0  0
   58.7676   23.8818   45.7952 H   0  0  0  0  0  0  0  0  0  0  0  0
   58.7999   21.4125   45.4537 H   0  0  0  0  0  0  0  0  0  0  0  0
   57.4592   20.3805   43.6187 H   0  0  0  0  0  0  0  0  0  0  0  0
   56.0578   21.8205   42.1371 H   0  0  0  0  0  0  0  0  0  0  0  0
   56.0243   24.2895   42.4645 H   0  0  0  0  0  0  0  0  0  0  0  0
   59.9226   27.4148   47.7255 H   0  0  0  0  0  0  0  0  0  0  0  0
   61.6548   29.0005   48.5455 H   0  0  0  0  0  0  0  0  0  0  0  0
   60.6266   35.6686   47.4481 H   0  0  0  0  0  0  0  0  0  0  0  0
   56.4884   32.6181   46.7896 H   0  0  0  0  0  0  0  0  0  0  0  0
   56.5393   34.1353   45.8089 H   0  0  0  0  0  0  0  0  0  0  0  0
   58.7592   33.4405   43.6539 H   0  0  0  0  0  0  0  0  0  0  0  0
   58.2353   31.5285   41.8156 H   0  0  0  0  0  0  0  0  0  0  0  0
   56.2803   30.0115   42.8342 H   0  0  0  0  0  0  0  0  0  0  0  0
   57.5897   30.7220   46.1958 H   0  0  0  0  0  0  0  0  0  0  0  0
  1  2  2  0
  2  3  1  0
  3  4  1  0
  4  5  1  0
  5  6  1  0
  6  7  1  0
  7  8  2  0
  8  9  1  0
  9 10  2  0
 10 11  1  0
 11 12  2  0
  2 13  1  0
 13 14  2  0
 14 15  1  0
 15 16  2  0
 16 17  1  0
 17 18  1  0
 18 19  2  0
 18 20  1  0
 20 21  1  0
 21 22  2  0
 22 23  1  0
 23 24  1  0
 24 25  1  0
 25 26  2  0
 26 27  1  0
 27 28  2  0
 28 29  1  0
 23 30  1  0
 30 31  1  0
 31 32  2  0
 12  7  1  0
 32 13  1  0
 31 16  1  0
 30 20  2  0
 29 25  1  0
  4 33  1  0
  4 34  1  0
  5 35  1  0
  5 36  1  0
  6 37  1  0
  8 38  1  0
  9 39  1  0
 10 40  1  0
 11 41  1  0
 12 42  1  0
 14 43  1  0
 15 44  1  0
 21 45  1  0
 24 46  1  0
 24 47  1  0
 26 48  1  0
 27 49  1  0
 28 50  1  0
 32 51  1  0
M  CHG  2   3  -1  17  -1
M  END
>  <UniqueID>  (70) 
68

>  <SMILES>  (70) 
O=C([N-]CCNc1ccccc1)c1ccc2[n-]c(=O)c3cnn(Cc4ccco4)c3c2c1

>  <Energy>  (70) 
125.36958410100893

>  <Genealogy>  (70) 
O=C([N-]CCNc1ccccc1)c1ccc2[n-]c(=O)c3cnn(Cc4ccco4)c3c2c1 (protonated)
O=C([N-]CCNc1ccccc1)c1ccc2[n-]c(=O)c3cnn(Cc4ccco4)c3c2c1 (3D coordinates assigned)
O=C([N-]CCNc1ccccc1)c1ccc2[n-]c(=O)c3cnn(Cc4ccco4)c3c2c1 (optimized conformer: 125.36958410100893 kcal/mol)

>  <smiles>  (70) 
O=C(NCCNc1ccccc1)c1ccc2[nH]c(=O)c3cnn(Cc4ccco4)c3c2c1

>  <score_type>  (70) 
oracle

>  <origin>  (70) 
adg

>  <m_score__min__energy>  (70) 
-11.720000000000001

>  <m_primary>  (70) 
energy

$$$$
70:0
     RDKit          3D

 40 43  0  0  0  0  0  0  0  0999 V2000
   55.1918   30.6834   43.8095 H   0  0  0  0  0  0  0  0  0  0  0  0
   55.9190   30.1580   44.4460 C   0  0  0  0  0  0  0  0  0  0  0  0
   57.0260   30.8050   44.8890 N   0  0  0  0  0  0  0  0  0  0  0  0
   57.9250   30.1590   45.6770 C   0  0  0  0  0  0  0  0  0  0  0  0
   59.0930   30.8430   46.1500 N   0  0  0  0  0  0  0  0  0  0  0  0
   59.2150   32.3010   46.2070 C   0  0  0  0  0  0  0  0  0  0  0  0
   59.1237   32.7453   45.2049 H   0  0  0  0  0  0  0  0  0  0  0  0
   58.4301   32.7794   46.8113 H   0  0  0  0  0  0  0  0  0  0  0  0
   60.5790   32.4980   46.7560 C   0  0  0  0  0  0  0  0  0  0  0  0
   61.2300   33.7040   47.0240 C   0  0  0  0  0  0  0  0  0  0  0  0
   60.7340   34.6664   46.8297 H   0  0  0  0  0  0  0  0  0  0  0  0
   62.5320   33.6600   47.5470 C   0  0  0  0  0  0  0  0  0  0  0  0
   63.0655   34.5966   47.7667 H   0  0  0  0  0  0  0  0  0  0  0  0
   63.1590   32.4220   47.7920 C   0  0  0  0  0  0  0  0  0  0  0  0
   64.1796   32.3958   48.2015 H   0  0  0  0  0  0  0  0  0  0  0  0
   62.4850   31.2220   47.5150 C   0  0  0  0  0  0  0  0  0  0  0  0
   62.9660   30.2509   47.7036 H   0  0  0  0  0  0  0  0  0  0  0  0
   61.1910   31.2880   46.9950 C   0  0  0  0  0  0  0  0  0  0  0  0
   60.2970   30.1620   46.6300 C   0  0  0  0  0  0  0  0  0  0  0  0
   60.7436   29.5426   45.8382 H   0  0  0  0  0  0  0  0  0  0  0  0
   60.1027   29.4731   47.4653 H   0  0  0  0  0  0  0  0  0  0  0  0
   57.7090   28.8610   46.0160 N   0  0  0  0  0  0  0  0  0  0  0  0
   56.6090   28.2050   45.5680 C   0  0  0  0  0  0  0  0  0  0  0  0
   56.4170   26.9700   45.9300 N   0  0  0  0  0  0  0  0  0  0  0  0
   57.2960   25.8550   45.7030 C   0  0  0  0  0  0  0  0  0  0  0  0
   58.6120   25.8310   46.1990 C   0  0  0  0  0  0  0  0  0  0  0  0
   59.0008   26.6905   46.7648 H   0  0  0  0  0  0  0  0  0  0  0  0
   59.4260   24.7190   45.9750 C   0  0  0  0  0  0  0  0  0  0  0  0
   60.4603   24.7123   46.3493 H   0  0  0  0  0  0  0  0  0  0  0  0
   58.9310   23.6150   45.2770 C   0  0  0  0  0  0  0  0  0  0  0  0
   59.5845   22.7502   45.0898 H   0  0  0  0  0  0  0  0  0  0  0  0
   57.6050   23.6000   44.8120 C   0  0  0  0  0  0  0  0  0  0  0  0
   57.0900   22.4160   44.0830 C   0  0  0  0  0  0  0  0  0  0  0  0
   56.0320   22.5120   43.4030 O   0  0  0  0  0  0  0  0  0  0  0  0
   57.7750   21.1600   44.1170 N   0  0  0  0  0  0  0  0  0  0  0  0
   58.7290   21.0650   44.5260 H   0  0  0  0  0  0  0  0  0  0  0  0
   57.3590   20.3280   43.6430 H   0  0  0  0  0  0  0  0  0  0  0  0
   56.7940   24.7310   45.0320 C   0  0  0  0  0  0  0  0  0  0  0  0
   55.7543   24.7321   44.6729 H   0  0  0  0  0  0  0  0  0  0  0  0
   55.7100   28.8620   44.7890 N   0  0  0  0  0  0  0  0  0  0  0  0
  1  2  1  0
  2  3  2  0
  3  4  1  0
  4  5  1  0
  5  6  1  0
  6  7  1  0
  6  8  1  0
  6  9  1  0
  9 10  2  0
 10 11  1  0
 10 12  1  0
 12 13  1  0
 12 14  2  0
 14 15  1  0
 14 16  1  0
 16 17  1  0
 16 18  2  0
 18 19  1  0
 19 20  1  0
 19 21  1  0
  4 22  2  0
 22 23  1  0
 23 24  2  0
 24 25  1  0
 25 26  2  0
 26 27  1  0
 26 28  1  0
 28 29  1  0
 28 30  2  0
 30 31  1  0
 30 32  1  0
 32 33  1  0
 33 34  2  0
 33 35  1  0
 35 36  1  0
 35 37  1  0
 32 38  2  0
 38 39  1  0
 23 40  1  0
 40  2  1  0
 19  5  1  0
 38 25  1  0
 18  9  1  0
M  CHG  1  40  -1
M  END
>  <UniqueID>  (71) 
69

>  <SMILES>  (71) 
NC(=O)c1cccc(/N=c2/nc(N3Cc4ccccc4C3)nc[n-]2)c1

>  <Energy>  (71) 
62.313465283000035

>  <Genealogy>  (71) 
NC(=O)c1cccc(N=c2nc(N3Cc4ccccc4C3)nc[n-]2)c1 (protonated)
NC(=O)c1cccc(/N=c2/nc(N3Cc4ccccc4C3)nc[n-]2)c1 (cis-trans isomerization)
NC(=O)c1cccc(/N=c2/nc(N3Cc4ccccc4C3)nc[n-]2)c1 (3D coordinates assigned)
NC(=O)c1cccc(/N=c2/nc(N3Cc4ccccc4C3)nc[n-]2)c1 (nonaromatic ring conformer: 62.313465283000035 kcal/mol)

>  <smiles>  (71) 
NC(=O)c1cccc(N=c2nc(N3Cc4ccccc4C3)nc[nH]2)c1

>  <score_type>  (71) 
oracle

>  <origin>  (71) 
adg

>  <m_score__min__energy>  (71) 
-10

>  <m_primary>  (71) 
energy

$$$$
71:0
     RDKit          3D

 50 52  0  0  1  0  0  0  0  0999 V2000
   60.7540   29.6440   45.6600 O   0  0  0  0  0  0  0  0  0  0  0  0
   60.2640   30.2030   46.7050 C   0  0  0  0  0  0  0  0  0  0  0  0
   60.0490   31.4970   46.6410 N   0  0  0  0  0  0  0  0  0  0  0  0
   59.5480   32.2890   47.6000 C   0  0  0  0  0  0  0  0  0  0  0  0
   59.3810   33.5470   47.4380 N   0  0  0  0  0  0  0  0  0  0  0  0
   58.2730   34.1140   46.7100 C   0  0  0  0  0  0  0  0  0  0  0  0
   58.6140   34.2390   45.2340 C   0  0  0  0  0  0  0  0  0  0  0  0
   58.0930   33.0610   44.4950 C   0  0  0  0  0  0  0  0  0  0  0  0
   57.4160   32.1130   45.2700 C   0  0  0  0  0  0  0  0  0  0  0  0
   56.8990   30.9920   44.6640 C   0  0  0  0  0  0  0  0  0  0  0  0
   57.0540   30.8190   43.3040 C   0  0  0  0  0  0  0  0  0  0  0  0
   56.3560   29.3510   42.6210 Cl  0  0  0  0  0  0  0  0  0  0  0  0
   57.7200   31.7450   42.5200 C   0  0  0  0  0  0  0  0  0  0  0  0
   58.2470   32.8850   43.1370 C   0  0  0  0  0  0  0  0  0  0  0  0
   59.1610   31.4670   49.0610 S   0  0  0  0  0  0  0  0  0  0  0  0
   59.5030   29.7790   48.9790 C   0  0  0  0  0  0  0  0  0  0  0  0
   60.0290   29.3600   47.7620 C   0  0  0  0  0  0  0  0  0  0  0  0
   60.3280   27.8840   47.6830 C   0  0  0  0  0  0  0  0  0  0  0  0
   59.3190   27.1430   46.8950 C   0  0  0  0  0  0  0  0  0  0  0  0
   59.6680   25.9200   46.3670 C   0  0  0  0  0  0  0  0  0  0  0  0
   58.8120   25.1770   45.6250 C   0  0  0  0  0  0  0  0  0  0  0  0
   57.5000   25.6070   45.3380 C   0  0  0  0  0  0  0  0  0  0  0  0
   56.6830   24.6700   44.6300 C   0  0  0  0  0  0  0  0  0  0  0  0
   57.0340   23.8600   43.6720 C   0  0  0  0  0  0  0  0  0  0  0  0
   57.1940   22.4350   43.7570 C   0  0  0  0  0  0  0  0  0  0  0  0
   58.1520   21.6980   44.3780 O   0  0  0  0  0  0  0  0  0  0  0  0
   56.2730   21.7260   43.1390 N   0  0  0  0  0  0  0  0  0  0  0  0
   56.2120   20.3600   43.3460 O   0  0  0  0  0  0  0  0  0  0  0  0
   57.1600   26.8120   45.8640 C   0  0  0  0  0  0  0  0  0  0  0  0
   58.0460   27.5900   46.6350 C   0  0  0  0  0  0  0  0  0  0  0  0
   60.2880   32.0000   45.7310 H   0  0  0  0  0  0  0  0  0  0  0  0
   57.3936   33.4632   46.8245 H   0  0  0  0  0  0  0  0  0  0  0  0
   58.0585   35.1153   47.1116 H   0  0  0  0  0  0  0  0  0  0  0  0
   58.1572   35.1546   44.8301 H   0  0  0  0  0  0  0  0  0  0  0  0
   59.7067   34.2866   45.1168 H   0  0  0  0  0  0  0  0  0  0  0  0
   57.2985   32.2629   46.3534 H   0  0  0  0  0  0  0  0  0  0  0  0
   56.3649   30.2375   45.2602 H   0  0  0  0  0  0  0  0  0  0  0  0
   57.8324   31.5884   41.4370 H   0  0  0  0  0  0  0  0  0  0  0  0
   58.7824   33.6380   42.5401 H   0  0  0  0  0  0  0  0  0  0  0  0
   59.3205   29.0918   49.8183 H   0  0  0  0  0  0  0  0  0  0  0  0
   61.3127   27.7483   47.2119 H   0  0  0  0  0  0  0  0  0  0  0  0
   60.3113   27.4843   48.7077 H   0  0  0  0  0  0  0  0  0  0  0  0
   60.6799   25.5317   46.5548 H   0  0  0  0  0  0  0  0  0  0  0  0
   59.1515   24.2066   45.2336 H   0  0  0  0  0  0  0  0  0  0  0  0
   55.6262   24.6283   44.9324 H   0  0  0  0  0  0  0  0  0  0  0  0
   57.2292   24.3172   42.6908 H   0  0  0  0  0  0  0  0  0  0  0  0
   58.2190   20.6980   44.2390 H   0  0  0  0  0  0  0  0  0  0  0  0
   57.1170   19.9390   43.5940 H   0  0  0  0  0  0  0  0  0  0  0  0
   56.1466   27.1982   45.6796 H   0  0  0  0  0  0  0  0  0  0  0  0
   57.7165   28.5617   47.0315 H   0  0  0  0  0  0  0  0  0  0  0  0
  1  2  2  0
  2  3  1  0
  3  4  1  0
  4  5  2  0
  5  6  1  0
  6  7  1  0
  7  8  1  0
  8  9  2  0
  9 10  1  0
 10 11  2  0
 11 12  1  0
 11 13  1  0
 13 14  2  0
  4 15  1  0
 15 16  1  0
 16 17  2  0
 17 18  1  0
 18 19  1  0
 19 20  2  0
 20 21  1  0
 21 22  2  0
 22 23  1  0
 23 24  2  0
 24 25  1  0
 25 26  1  0
 25 27  2  0
 27 28  1  0
 22 29  1  0
 29 30  2  0
 17  2  1  0
 30 19  1  0
 14  8  1  0
  3 31  1  0
  6 32  1  0
  6 33  1  0
  7 34  1  0
  7 35  1  0
  9 36  1  0
 10 37  1  0
 13 38  1  0
 14 39  1  0
 16 40  1  0
 18 41  1  0
 18 42  1  0
 20 43  1  0
 21 44  1  0
 23 45  1  0
 24 46  1  0
 26 47  1  0
 28 48  1  0
 29 49  1  0
 30 50  1  0
M  END
>  <smiles>  (72) 
O=c1[nH]c(=NCCc2ccc(Cl)cc2)scc1Cc1ccc(C=CC(O)=NO)cc1

>  <score_type>  (72) 
oracle

>  <origin>  (72) 
adg

>  <m_score__min__energy>  (72) 
-9.8599999999999994

>  <m_primary>  (72) 
energy

$$$$
72:0
     RDKit          3D

 52 54  0  0  0  0  0  0  0  0999 V2000
   56.2680   20.1170   44.0500 C   0  0  0  0  0  0  0  0  0  0  0  0
   55.9880   21.4270   43.5650 O   0  0  0  0  0  0  0  0  0  0  0  0
   56.6250   22.5920   44.0160 C   0  0  0  0  0  0  0  0  0  0  0  0
   56.6520   23.7050   43.1700 C   0  0  0  0  0  0  0  0  0  0  0  0
   57.2720   24.8910   43.5740 C   0  0  0  0  0  0  0  0  0  0  0  0
   57.8720   24.9860   44.8410 C   0  0  0  0  0  0  0  0  0  0  0  0
   58.5270   26.2480   45.2600 C   0  0  0  0  0  0  0  0  0  0  0  0
   58.6090   26.5250   46.4880 O   0  0  0  0  0  0  0  0  0  0  0  0
   59.0870   27.1500   44.2910 N   0  0  0  0  0  0  0  0  0  0  0  0
   59.5410   28.4930   44.6450 C   0  0  0  0  0  0  0  0  0  0  0  0
   58.3910   29.4610   44.5880 C   0  0  0  0  0  0  0  0  0  0  0  0
   57.1940   29.0900   43.9620 C   0  0  0  0  0  0  0  0  0  0  0  0
   56.1270   29.9860   43.9380 C   0  0  0  0  0  0  0  0  0  0  0  0
   56.2490   31.2070   44.5200 N   0  0  0  0  0  0  0  0  0  0  0  0
   57.3910   31.6060   45.1410 C   0  0  0  0  0  0  0  0  0  0  0  0
   57.4250   32.7980   45.6700 N   0  0  0  0  0  0  0  0  0  0  0  0
   57.9090   33.1720   47.0000 C   0  0  0  0  0  0  0  0  0  0  0  0
   59.4140   33.0370   47.1010 C   0  0  0  0  0  0  0  0  0  0  0  0
   60.2080   33.9100   46.3300 C   0  0  0  0  0  0  0  0  0  0  0  0
   61.5990   33.8520   46.3860 C   0  0  0  0  0  0  0  0  0  0  0  0
   62.2260   32.9180   47.2050 C   0  0  0  0  0  0  0  0  0  0  0  0
   61.4620   32.0290   47.9600 C   0  0  0  0  0  0  0  0  0  0  0  0
   60.0580   32.0590   47.9110 C   0  0  0  0  0  0  0  0  0  0  0  0
   59.1970   30.8660   48.9060 S   0  0  0  0  0  0  0  0  0  0  0  0
   60.3620   29.9860   49.9210 C   0  0  0  0  0  0  0  0  0  0  0  0
   58.1520   31.5040   49.7770 O   0  0  0  0  0  0  0  0  0  0  0  0
   58.5080   29.8830   48.0020 O   0  0  0  0  0  0  0  0  0  0  0  0
   58.4880   30.7220   45.1920 C   0  0  0  0  0  0  0  0  0  0  0  0
   57.8570   23.8620   45.6860 C   0  0  0  0  0  0  0  0  0  0  0  0
   57.2380   22.6770   45.2800 C   0  0  0  0  0  0  0  0  0  0  0  0
   56.2663   20.1251   45.1500 H   0  0  0  0  0  0  0  0  0  0  0  0
   55.4987   19.4195   43.6872 H   0  0  0  0  0  0  0  0  0  0  0  0
   57.2553   19.7950   43.6872 H   0  0  0  0  0  0  0  0  0  0  0  0
   56.1811   23.6468   42.1776 H   0  0  0  0  0  0  0  0  0  0  0  0
   57.2903   25.7562   42.8950 H   0  0  0  0  0  0  0  0  0  0  0  0
   59.2280   26.8320   43.3060 H   0  0  0  0  0  0  0  0  0  0  0  0
   59.9550   28.4799   45.6640 H   0  0  0  0  0  0  0  0  0  0  0  0
   60.3141   28.8110   43.9301 H   0  0  0  0  0  0  0  0  0  0  0  0
   57.0971   28.0996   43.4933 H   0  0  0  0  0  0  0  0  0  0  0  0
   55.1841   29.7038   43.4467 H   0  0  0  0  0  0  0  0  0  0  0  0
   57.6295   34.2167   47.2014 H   0  0  0  0  0  0  0  0  0  0  0  0
   57.4515   32.4953   47.7367 H   0  0  0  0  0  0  0  0  0  0  0  0
   59.7223   34.6479   45.6745 H   0  0  0  0  0  0  0  0  0  0  0  0
   62.2024   34.5456   45.7819 H   0  0  0  0  0  0  0  0  0  0  0  0
   63.3242   32.8810   47.2568 H   0  0  0  0  0  0  0  0  0  0  0  0
   61.9660   31.2930   48.6037 H   0  0  0  0  0  0  0  0  0  0  0  0
   60.1299   30.1614   50.9818 H   0  0  0  0  0  0  0  0  0  0  0  0
   60.2971   28.9095   49.7045 H   0  0  0  0  0  0  0  0  0  0  0  0
   61.3798   30.3428   49.7045 H   0  0  0  0  0  0  0  0  0  0  0  0
   59.4152   31.0204   45.7032 H   0  0  0  0  0  0  0  0  0  0  0  0
   58.3364   23.9162   46.6745 H   0  0  0  0  0  0  0  0  0  0  0  0
   57.2298   21.8060   45.9518 H   0  0  0  0  0  0  0  0  0  0  0  0
  1  2  1  0
  2  3  1  0
  3  4  2  0
  4  5  1  0
  5  6  2  0
  6  7  1  0
  7  8  2  0
  7  9  1  0
  9 10  1  0
 10 11  1  0
 11 12  1  0
 12 13  2  0
 13 14  1  0
 14 15  1  0
 15 16  2  3
 16 17  1  0
 17 18  1  0
 18 19  2  0
 19 20  1  0
 20 21  2  0
 21 22  1  0
 22 23  2  0
 23 24  1  0
 24 25  1  0
 24 26  2  0
 24 27  2  0
 15 28  1  0
  6 29  1  0
 29 30  2  0
 30  3  1  0
 28 11  2  0
 23 18  1  0
  1 31  1  0
  1 32  1  0
  1 33  1  0
  4 34  1  0
  5 35  1  0
  9 36  1  0
 10 37  1  0
 10 38  1  0
 12 39  1  0
 13 40  1  0
 17 41  1  0
 17 42  1  0
 19 43  1  0
 20 44  1  0
 21 45  1  0
 22 46  1  0
 25 47  1  0
 25 48  1  0
 25 49  1  0
 28 50  1  0
 29 51  1  0
 30 52  1  0
M  CHG  1  14  -1
M  END
>  <UniqueID>  (73) 
70

>  <SMILES>  (73) 
COc1ccc(C(=O)NCc2cc[n-]c(=NCc3ccccc3S(C)(=O)=O)c2)cc1

>  <Energy>  (73) 
56.43519905968158

>  <Genealogy>  (73) 
COc1ccc(C(=O)NCc2cc[n-]c(=NCc3ccccc3S(C)(=O)=O)c2)cc1 (protonated)
COc1ccc(C(=O)NCc2cc[n-]c(=NCc3ccccc3S(C)(=O)=O)c2)cc1 (3D coordinates assigned)
COc1ccc(C(=O)NCc2cc[n-]c(=NCc3ccccc3S(C)(=O)=O)c2)cc1 (optimized conformer: 56.43519905968158 kcal/mol)

>  <smiles>  (73) 
COc1ccc(C(=O)NCc2cc[nH]c(=NCc3ccccc3S(C)(=O)=O)c2)cc1

>  <score_type>  (73) 
oracle

>  <origin>  (73) 
adg

>  <m_score__min__energy>  (73) 
-11.31

>  <m_primary>  (73) 
energy

$$$$
73:0
     RDKit          3D

 35 38  0  0  0  0  0  0  0  0999 V2000
   53.7430   24.0140   45.6990 C   0  0  0  0  0  0  0  0  0  0  0  0
   55.0060   24.7930   45.5650 C   0  0  0  0  0  0  0  0  0  0  0  0
   56.1960   24.3460   45.0400 C   0  0  0  0  0  0  0  0  0  0  0  0
   57.1040   25.3380   45.1190 N   0  0  0  0  0  0  0  0  0  0  0  0
   56.4160   26.3470   45.6950 C   0  0  0  0  0  0  0  0  0  0  0  0
   57.0190   27.6750   46.0180 C   0  0  0  0  0  0  0  0  0  0  0  0
   56.4530   28.9400   44.8310 S   0  0  0  0  0  0  0  0  0  0  0  0
   57.5490   30.2160   45.4490 C   0  0  0  0  0  0  0  0  0  0  0  0
   58.6620   29.9480   46.1830 N   0  0  0  0  0  0  0  0  0  0  0  0
   59.1130   31.1930   46.4090 C   0  0  0  0  0  0  0  0  0  0  0  0
   60.2200   31.5180   47.1180 N   0  0  0  0  0  0  0  0  0  0  0  0
   60.5580   32.8370   47.2690 C   0  0  0  0  0  0  0  0  0  0  0  0
   61.7710   33.1870   48.0520 C   0  0  0  0  0  0  0  0  0  0  0  0
   63.0400   32.7940   47.5930 C   0  0  0  0  0  0  0  0  0  0  0  0
   64.1800   33.1290   48.3270 C   0  0  0  0  0  0  0  0  0  0  0  0
   64.0640   33.8420   49.4770 N   0  0  0  0  0  0  0  0  0  0  0  0
   62.8550   34.2470   49.9450 C   0  0  0  0  0  0  0  0  0  0  0  0
   61.6890   33.9320   49.2440 C   0  0  0  0  0  0  0  0  0  0  0  0
   59.7310   33.8400   46.6950 C   0  0  0  0  0  0  0  0  0  0  0  0
   58.5950   33.4500   45.9720 C   0  0  0  0  0  0  0  0  0  0  0  0
   57.8320   34.3060   45.4490 O   0  0  0  0  0  0  0  0  0  0  0  0
   58.3390   32.1270   45.8580 N   0  0  0  0  0  0  0  0  0  0  0  0
   57.3360   31.5380   45.2400 N   0  0  0  0  0  0  0  0  0  0  0  0
   55.1700   26.0290   45.9650 O   0  0  0  0  0  0  0  0  0  0  0  0
   53.5116   23.8713   46.7649 H   0  0  0  0  0  0  0  0  0  0  0  0
   52.9210   24.5622   45.2155 H   0  0  0  0  0  0  0  0  0  0  0  0
   53.8640   23.0334   45.2155 H   0  0  0  0  0  0  0  0  0  0  0  0
   56.3766   23.3438   44.6242 H   0  0  0  0  0  0  0  0  0  0  0  0
   56.7184   27.9716   47.0337 H   0  0  0  0  0  0  0  0  0  0  0  0
   58.1141   27.5930   45.9551 H   0  0  0  0  0  0  0  0  0  0  0  0
   63.1351   32.2236   46.6573 H   0  0  0  0  0  0  0  0  0  0  0  0
   65.1731   32.8149   47.9732 H   0  0  0  0  0  0  0  0  0  0  0  0
   62.7941   34.8249   50.8790 H   0  0  0  0  0  0  0  0  0  0  0  0
   60.7107   34.2644   49.6214 H   0  0  0  0  0  0  0  0  0  0  0  0
   59.9782   34.9050   46.8160 H   0  0  0  0  0  0  0  0  0  0  0  0
  1  2  1  0
  2  3  2  0
  3  4  1  0
  4  5  2  0
  5  6  1  0
  6  7  1  0
  7  8  1  0
  8  9  2  0
  9 10  1  0
 10 11  2  0
 11 12  1  0
 12 13  1  0
 13 14  2  0
 14 15  1  0
 15 16  2  0
 16 17  1  0
 17 18  2  0
 12 19  2  0
 19 20  1  0
 20 21  2  0
 20 22  1  0
 22 23  1  0
  5 24  1  0
 24  2  1  0
 23  8  1  0
 22 10  1  0
 18 13  1  0
  1 25  1  0
  1 26  1  0
  1 27  1  0
  3 28  1  0
  6 29  1  0
  6 30  1  0
 14 31  1  0
 15 32  1  0
 17 33  1  0
 18 34  1  0
 19 35  1  0
M  CHG  1  23  -1
M  END
>  <UniqueID>  (74) 
71

>  <SMILES>  (74) 
Cc1cnc(CSc2nc3nc(-c4ccncc4)cc(=O)n3[n-]2)o1

>  <Energy>  (74) 
107.6360235337313

>  <Genealogy>  (74) 
Cc1cnc(CSc2nc3nc(-c4ccncc4)cc(=O)n3[n-]2)o1 (protonated)
Cc1cnc(CSc2nc3nc(-c4ccncc4)cc(=O)n3[n-]2)o1 (3D coordinates assigned)
Cc1cnc(CSc2nc3nc(-c4ccncc4)cc(=O)n3[n-]2)o1 (optimized conformer: 107.6360235337313 kcal/mol)

>  <smiles>  (74) 
Cc1cnc(CSc2nc3nc(-c4ccncc4)cc(=O)n3[nH]2)o1

>  <score_type>  (74) 
oracle

>  <origin>  (74) 
adg

>  <m_score__min__energy>  (74) 
-9.0099999999999998

>  <m_primary>  (74) 
energy

$$$$
74:0
     RDKit          3D

 54 56  0  0  0  0  0  0  0  0999 V2000
   59.3810   25.5070   46.0290 C   0  0  0  0  0  0  0  0  0  0  0  0
   60.2040   26.0090   47.0710 O   0  0  0  0  0  0  0  0  0  0  0  0
   59.9150   27.1510   47.8420 C   0  0  0  0  0  0  0  0  0  0  0  0
   58.8510   27.9760   47.4330 C   0  0  0  0  0  0  0  0  0  0  0  0
   58.5220   29.1300   48.1610 C   0  0  0  0  0  0  0  0  0  0  0  0
   59.2470   29.4680   49.3260 C   0  0  0  0  0  0  0  0  0  0  0  0
   58.9640   30.6680   50.0700 N   0  0  0  0  0  0  0  0  0  0  0  0
   57.9990   30.7540   51.1340 C   0  0  0  0  0  0  0  0  0  0  0  0
   57.4660   29.7130   51.6110 O   0  0  0  0  0  0  0  0  0  0  0  0
   57.6640   32.0850   51.7240 C   0  0  0  0  0  0  0  0  0  0  0  0
   58.5280   33.1050   51.1550 N   0  0  0  0  0  0  0  0  0  0  0  0
   59.7550   33.5100   51.7750 C   0  0  0  0  0  0  0  0  0  0  0  0
   59.7520   33.8870   52.9830 O   0  0  0  0  0  0  0  0  0  0  0  0
   61.0210   33.4890   51.0060 C   0  0  0  0  0  0  0  0  0  0  0  0
   62.2470   33.7440   51.6520 C   0  0  0  0  0  0  0  0  0  0  0  0
   63.4440   33.7020   50.9310 C   0  0  0  0  0  0  0  0  0  0  0  0
   63.4360   33.4010   49.5630 C   0  0  0  0  0  0  0  0  0  0  0  0
   62.2260   33.1420   48.9020 C   0  0  0  0  0  0  0  0  0  0  0  0
   62.2180   32.7360   47.1840 S   0  0  0  0  0  0  0  0  0  0  0  0
   63.5010   32.0220   46.8290 O   0  0  0  0  0  0  0  0  0  0  0  0
   62.1340   33.9870   46.3510 O   0  0  0  0  0  0  0  0  0  0  0  0
   60.9070   31.6420   46.8440 N   0  0  0  0  0  0  0  0  0  0  0  0
   59.6010   31.9500   46.3310 C   0  0  0  0  0  0  0  0  0  0  0  0
   59.0000   33.2180   46.4740 C   0  0  0  0  0  0  0  0  0  0  0  0
   57.7400   33.4650   45.9110 C   0  0  0  0  0  0  0  0  0  0  0  0
   57.0630   32.4510   45.2230 C   0  0  0  0  0  0  0  0  0  0  0  0
   57.6370   31.1800   45.0990 C   0  0  0  0  0  0  0  0  0  0  0  0
   56.7660   29.8950   44.2470 S   0  0  0  0  0  0  0  0  0  0  0  0
   55.4710   29.3160   45.2410 N   0  0  0  0  0  0  0  0  0  0  0  0
   57.6950   28.7550   43.9390 O   0  0  0  0  0  0  0  0  0  0  0  0
   56.2120   30.4250   42.9520 O   0  0  0  0  0  0  0  0  0  0  0  0
   58.9050   30.9340   45.6540 C   0  0  0  0  0  0  0  0  0  0  0  0
   61.0220   33.1930   49.6230 C   0  0  0  0  0  0  0  0  0  0  0  0
   60.3240   28.6500   49.7270 C   0  0  0  0  0  0  0  0  0  0  0  0
   60.6570   27.4990   48.9970 C   0  0  0  0  0  0  0  0  0  0  0  0
   58.5185   24.9809   46.4641 H   0  0  0  0  0  0  0  0  0  0  0  0
   59.0257   26.3423   45.4077 H   0  0  0  0  0  0  0  0  0  0  0  0
   59.9611   24.8088   45.4077 H   0  0  0  0  0  0  0  0  0  0  0  0
   58.2721   27.7143   46.5350 H   0  0  0  0  0  0  0  0  0  0  0  0
   57.6965   29.7739   47.8234 H   0  0  0  0  0  0  0  0  0  0  0  0
   59.5510   31.5180   49.8700 H   0  0  0  0  0  0  0  0  0  0  0  0
   56.6147   32.3295   51.5022 H   0  0  0  0  0  0  0  0  0  0  0  0
   57.8128   32.0482   52.8133 H   0  0  0  0  0  0  0  0  0  0  0  0
   62.2623   33.9768   52.7270 H   0  0  0  0  0  0  0  0  0  0  0  0
   64.3971   33.9064   51.4407 H   0  0  0  0  0  0  0  0  0  0  0  0
   64.3830   33.3676   49.0043 H   0  0  0  0  0  0  0  0  0  0  0  0
   59.5202   34.0136   47.0276 H   0  0  0  0  0  0  0  0  0  0  0  0
   57.2814   34.4599   46.0103 H   0  0  0  0  0  0  0  0  0  0  0  0
   56.0773   32.6534   44.7786 H   0  0  0  0  0  0  0  0  0  0  0  0
   54.5930   29.3700   44.6680 H   0  0  0  0  0  0  0  0  0  0  0  0
   59.3571   29.9359   45.5573 H   0  0  0  0  0  0  0  0  0  0  0  0
   60.0699   33.0008   49.1068 H   0  0  0  0  0  0  0  0  0  0  0  0
   60.9081   28.9169   50.6201 H   0  0  0  0  0  0  0  0  0  0  0  0
   61.4957   26.8659   49.3223 H   0  0  0  0  0  0  0  0  0  0  0  0
  1  2  1  0
  2  3  1  0
  3  4  2  0
  4  5  1  0
  5  6  2  0
  6  7  1  0
  7  8  1  0
  8  9  2  0
  8 10  1  0
 10 11  1  0
 11 12  1  0
 12 13  2  0
 12 14  1  0
 14 15  2  0
 15 16  1  0
 16 17  2  0
 17 18  1  0
 18 19  1  0
 19 20  2  0
 19 21  2  0
 19 22  1  0
 22 23  1  0
 23 24  2  0
 24 25  1  0
 25 26  2  0
 26 27  1  0
 27 28  1  0
 28 29  1  0
 28 30  2  0
 28 31  2  0
 27 32  2  0
 18 33  2  0
  6 34  1  0
 34 35  2  0
 35  3  1  0
 33 14  1  0
 32 23  1  0
  1 36  1  0
  1 37  1  0
  1 38  1  0
  4 39  1  0
  5 40  1  0
  7 41  1  0
 10 42  1  0
 10 43  1  0
 15 44  1  0
 16 45  1  0
 17 46  1  0
 24 47  1  0
 25 48  1  0
 26 49  1  0
 29 50  1  0
 32 51  1  0
 33 52  1  0
 34 53  1  0
 35 54  1  0
M  CHG  3  11  -1  22  -1  29  -1
M  END
>  <UniqueID>  (75) 
72

>  <SMILES>  (75) 
COc1ccc(NC(=O)C[N-]C(=O)c2cccc(S(=O)(=O)[N-]c3cccc(S([NH-])(=O)=O)c3)c2)cc1

>  <Energy>  (75) 
56.655200749574945

>  <Genealogy>  (75) 
COc1ccc(NC(=O)C[N-]C(=O)c2cccc(S(=O)(=O)[N-]c3cccc(S([NH-])(=O)=O)c3)c2)cc1 (protonated)
COc1ccc(NC(=O)C[N-]C(=O)c2cccc(S(=O)(=O)[N-]c3cccc(S([NH-])(=O)=O)c3)c2)cc1 (3D coordinates assigned)
COc1ccc(NC(=O)C[N-]C(=O)c2cccc(S(=O)(=O)[N-]c3cccc(S([NH-])(=O)=O)c3)c2)cc1 (optimized conformer: 56.655200749574945 kcal/mol)

>  <smiles>  (75) 
COc1ccc(NC(=O)CNC(=O)c2cccc(S(=O)(=O)Nc3cccc(S(N)(=O)=O)c3)c2)cc1

>  <score_type>  (75) 
oracle

>  <origin>  (75) 
adg

>  <m_score__min__energy>  (75) 
-15.199999999999999

>  <m_primary>  (75) 
energy

$$$$
75:0
     RDKit          3D

 54 57  0  0  0  0  0  0  0  0999 V2000
   59.3240   35.3880   45.1530 O   0  0  0  0  0  0  0  0  0  0  0  0
   59.1840   34.4060   45.9290 C   0  0  0  0  0  0  0  0  0  0  0  0
   59.6700   34.5130   47.2730 N   0  0  0  0  0  0  0  0  0  0  0  0
   61.0160   34.2260   47.6790 C   0  0  0  0  0  0  0  0  0  0  0  0
   61.9830   33.8090   46.7500 C   0  0  0  0  0  0  0  0  0  0  0  0
   63.2830   33.5160   47.1710 C   0  0  0  0  0  0  0  0  0  0  0  0
   63.6380   33.6540   48.5250 C   0  0  0  0  0  0  0  0  0  0  0  0
   64.9310   33.3700   48.9910 O   0  0  0  0  0  0  0  0  0  0  0  0
   65.2580   32.3590   49.9070 C   0  0  0  0  0  0  0  0  0  0  0  0
   64.2430   31.5090   50.3590 C   0  0  0  0  0  0  0  0  0  0  0  0
   64.5300   30.4810   51.2630 C   0  0  0  0  0  0  0  0  0  0  0  0
   65.8360   30.3050   51.7280 C   0  0  0  0  0  0  0  0  0  0  0  0
   66.8510   31.1660   51.3030 C   0  0  0  0  0  0  0  0  0  0  0  0
   66.5670   32.2020   50.4080 C   0  0  0  0  0  0  0  0  0  0  0  0
   67.5540   33.0640   50.0590 F   0  0  0  0  0  0  0  0  0  0  0  0
   62.6610   34.0400   49.4510 C   0  0  0  0  0  0  0  0  0  0  0  0
   61.3560   34.3160   49.0330 C   0  0  0  0  0  0  0  0  0  0  0  0
   58.5730   33.1550   45.4240 C   0  0  0  0  0  0  0  0  0  0  0  0
   58.3670   32.0670   46.2890 C   0  0  0  0  0  0  0  0  0  0  0  0
   57.7670   30.8940   45.8180 C   0  0  0  0  0  0  0  0  0  0  0  0
   57.3470   30.8010   44.4840 C   0  0  0  0  0  0  0  0  0  0  0  0
   56.5280   29.3510   43.9040 S   0  0  0  0  0  0  0  0  0  0  0  0
   55.3820   29.7490   43.0150 O   0  0  0  0  0  0  0  0  0  0  0  0
   57.4860   28.5260   43.0920 O   0  0  0  0  0  0  0  0  0  0  0  0
   55.9040   28.4090   45.2260 N   0  0  0  0  0  0  0  0  0  0  0  0
   56.9720   27.6230   45.8460 C   0  0  0  0  0  0  0  0  0  0  0  0
   56.5150   26.1710   46.0100 C   0  0  2  0  0  0  0  0  0  0  0  0
   57.0290   25.2640   44.9060 C   0  0  0  0  0  0  0  0  0  0  0  0
   56.0000   24.1740   44.8900 C   0  0  0  0  0  0  0  0  0  0  0  0
   54.7610   24.8470   45.4620 C   0  0  0  0  0  0  0  0  0  0  0  0
   55.1090   26.1030   46.0030 O   0  0  0  0  0  0  0  0  0  0  0  0
   57.5500   31.8850   43.6200 C   0  0  0  0  0  0  0  0  0  0  0  0
   58.1610   33.0530   44.0840 C   0  0  0  0  0  0  0  0  0  0  0  0
   61.7163   33.7126   45.6872 H   0  0  0  0  0  0  0  0  0  0  0  0
   64.0318   33.1760   46.4404 H   0  0  0  0  0  0  0  0  0  0  0  0
   63.2124   31.6500   50.0011 H   0  0  0  0  0  0  0  0  0  0  0  0
   63.7282   29.8115   51.6077 H   0  0  0  0  0  0  0  0  0  0  0  0
   66.0649   29.4885   52.4287 H   0  0  0  0  0  0  0  0  0  0  0  0
   67.8774   31.0283   51.6739 H   0  0  0  0  0  0  0  0  0  0  0  0
   62.9226   34.1267   50.5159 H   0  0  0  0  0  0  0  0  0  0  0  0
   60.5936   34.6050   49.7714 H   0  0  0  0  0  0  0  0  0  0  0  0
   58.6789   32.1378   47.3415 H   0  0  0  0  0  0  0  0  0  0  0  0
   57.6243   30.0410   46.4977 H   0  0  0  0  0  0  0  0  0  0  0  0
   57.8672   27.6547   45.2076 H   0  0  0  0  0  0  0  0  0  0  0  0
   57.2081   28.0446   46.8342 H   0  0  0  0  0  0  0  0  0  0  0  0
   56.9284   25.8251   46.9689 H   0  0  0  0  0  0  0  0  0  0  0  0
   57.0670   25.7913   43.9414 H   0  0  0  0  0  0  0  0  0  0  0  0
   58.0544   24.9021   45.0722 H   0  0  0  0  0  0  0  0  0  0  0  0
   55.8175   23.8206   43.8644 H   0  0  0  0  0  0  0  0  0  0  0  0
   56.3076   23.2859   45.4615 H   0  0  0  0  0  0  0  0  0  0  0  0
   54.0185   24.9863   44.6625 H   0  0  0  0  0  0  0  0  0  0  0  0
   54.3358   24.2140   46.2548 H   0  0  0  0  0  0  0  0  0  0  0  0
   57.2267   31.8164   42.5708 H   0  0  0  0  0  0  0  0  0  0  0  0
   58.3204   33.8971   43.3969 H   0  0  0  0  0  0  0  0  0  0  0  0
  1  2  2  0
  2  3  1  0
  3  4  1  0
  4  5  2  0
  5  6  1  0
  6  7  2  0
  7  8  1  0
  8  9  1  0
  9 10  2  0
 10 11  1  0
 11 12  2  0
 12 13  1  0
 13 14  2  0
 14 15  1  0
  7 16  1  0
 16 17  2  0
  2 18  1  0
 18 19  2  0
 19 20  1  0
 20 21  2  0
 21 22  1  0
 22 23  2  0
 22 24  2  0
 22 25  1  0
 25 26  1  0
 26 27  1  0
 27 28  1  0
 28 29  1  0
 29 30  1  0
 30 31  1  0
 21 32  1  0
 32 33  2  0
 17  4  1  0
 33 18  1  0
 14  9  1  0
 31 27  1  0
  5 34  1  0
  6 35  1  0
 10 36  1  0
 11 37  1  0
 12 38  1  0
 13 39  1  0
 16 40  1  0
 17 41  1  0
 19 42  1  0
 20 43  1  0
 26 44  1  0
 26 45  1  0
 27 46  1  1
 28 47  1  0
 28 48  1  0
 29 49  1  0
 29 50  1  0
 30 51  1  0
 30 52  1  0
 32 53  1  0
 33 54  1  0
M  CHG  2   3  -1  25  -1
M  END
>  <UniqueID>  (76) 
73

>  <SMILES>  (76) 
O=C([N-]c1ccc(Oc2ccccc2F)cc1)c1ccc(S(=O)(=O)[N-]C[C@@H]2CCCO2)cc1

>  <Energy>  (76) 
67.1696901771303

>  <Genealogy>  (76) 
O=C([N-]c1ccc(Oc2ccccc2F)cc1)c1ccc(S(=O)(=O)[N-]CC2CCCO2)cc1 (protonated)
O=C([N-]c1ccc(Oc2ccccc2F)cc1)c1ccc(S(=O)(=O)[N-]C[C@@H]2CCCO2)cc1 (chirality)
O=C([N-]c1ccc(Oc2ccccc2F)cc1)c1ccc(S(=O)(=O)[N-]C[C@@H]2CCCO2)cc1 (3D coordinates assigned)
O=C([N-]c1ccc(Oc2ccccc2F)cc1)c1ccc(S(=O)(=O)[N-]C[C@@H]2CCCO2)cc1 (nonaromatic ring conformer: 67.1696901771303 kcal/mol)

>  <smiles>  (76) 
O=C(Nc1ccc(Oc2ccccc2F)cc1)c1ccc(S(=O)(=O)NCC2CCCO2)cc1

>  <score_type>  (76) 
oracle

>  <origin>  (76) 
adg

>  <m_score__min__energy>  (76) 
-12.970000000000001

>  <m_primary>  (76) 
energy

$$$$
76:0
     RDKit          3D

 51 53  0  0  0  0  0  0  0  0999 V2000
   57.0250   33.1560   45.1930 C   0  0  0  0  0  0  0  0  0  0  0  0
   57.3920   31.8710   45.6790 O   0  0  0  0  0  0  0  0  0  0  0  0
   57.3970   30.6970   44.9070 C   0  0  0  0  0  0  0  0  0  0  0  0
   56.5950   30.5580   43.7560 C   0  0  0  0  0  0  0  0  0  0  0  0
   56.6440   29.3840   43.0000 C   0  0  0  0  0  0  0  0  0  0  0  0
   57.4890   28.3400   43.3800 C   0  0  0  0  0  0  0  0  0  0  0  0
   58.2840   28.4640   44.5190 C   0  0  0  0  0  0  0  0  0  0  0  0
   58.2400   29.6350   45.2920 C   0  0  0  0  0  0  0  0  0  0  0  0
   59.0590   29.7490   46.4660 N   0  0  0  0  0  0  0  0  0  0  0  0
   58.7020   29.0290   47.6930 C   0  0  0  0  0  0  0  0  0  0  0  0
   58.8450   29.9610   48.9060 C   0  0  0  0  0  0  0  0  0  0  0  0
   60.0630   30.8100   48.8600 N   0  0  0  0  0  0  0  0  0  0  0  0
   60.6960   31.0290   50.1820 C   0  0  0  0  0  0  0  0  0  0  0  0
   60.4780   32.4350   50.7780 C   0  0  0  0  0  0  0  0  0  0  0  0
   60.5270   33.4530   49.7780 O   0  0  0  0  0  0  0  0  0  0  0  0
   61.5010   33.5800   48.7700 C   0  0  0  0  0  0  0  0  0  0  0  0
   62.8790   33.4690   49.0470 C   0  0  0  0  0  0  0  0  0  0  0  0
   63.8180   33.5470   48.0170 C   0  0  0  0  0  0  0  0  0  0  0  0
   63.3990   33.7360   46.7010 C   0  0  0  0  0  0  0  0  0  0  0  0
   62.0390   33.8490   46.4100 C   0  0  0  0  0  0  0  0  0  0  0  0
   61.0800   33.7880   47.4360 C   0  0  0  0  0  0  0  0  0  0  0  0
   59.6440   33.8920   47.0820 C   0  0  0  0  0  0  0  0  0  0  0  0
   58.6520   33.1200   47.7650 N   0  0  0  0  0  0  0  0  0  0  0  0
   59.2830   34.6960   46.1810 O   0  0  0  0  0  0  0  0  0  0  0  0
   61.0120   30.5050   47.7710 C   0  0  0  0  0  0  0  0  0  0  0  0
   60.2920   30.5430   46.4210 C   0  0  0  0  0  0  0  0  0  0  0  0
   56.8330   33.8282   46.0423 H   0  0  0  0  0  0  0  0  0  0  0  0
   57.8427   33.5636   44.5804 H   0  0  0  0  0  0  0  0  0  0  0  0
   56.1154   33.0703   44.5804 H   0  0  0  0  0  0  0  0  0  0  0  0
   55.9275   31.3776   43.4516 H   0  0  0  0  0  0  0  0  0  0  0  0
   56.0152   29.2822   42.1032 H   0  0  0  0  0  0  0  0  0  0  0  0
   57.5279   27.4186   42.7805 H   0  0  0  0  0  0  0  0  0  0  0  0
   58.9496   27.6392   44.8135 H   0  0  0  0  0  0  0  0  0  0  0  0
   57.6612   28.6802   47.6216 H   0  0  0  0  0  0  0  0  0  0  0  0
   59.3749   28.1677   47.8165 H   0  0  0  0  0  0  0  0  0  0  0  0
   57.9638   30.6181   48.9461 H   0  0  0  0  0  0  0  0  0  0  0  0
   58.9294   29.3218   49.7972 H   0  0  0  0  0  0  0  0  0  0  0  0
   60.2831   30.2912   50.8857 H   0  0  0  0  0  0  0  0  0  0  0  0
   61.7799   30.9223   50.0281 H   0  0  0  0  0  0  0  0  0  0  0  0
   59.4932   32.4647   51.2671 H   0  0  0  0  0  0  0  0  0  0  0  0
   61.2861   32.6276   51.4990 H   0  0  0  0  0  0  0  0  0  0  0  0
   63.2169   33.3197   50.0831 H   0  0  0  0  0  0  0  0  0  0  0  0
   64.8907   33.4591   48.2443 H   0  0  0  0  0  0  0  0  0  0  0  0
   64.1411   33.7961   45.8913 H   0  0  0  0  0  0  0  0  0  0  0  0
   61.7143   33.9871   45.3681 H   0  0  0  0  0  0  0  0  0  0  0  0
   57.6550   33.1640   47.4590 H   0  0  0  0  0  0  0  0  0  0  0  0
   58.8840   32.5820   48.6280 H   0  0  0  0  0  0  0  0  0  0  0  0
   61.8206   31.2508   47.7734 H   0  0  0  0  0  0  0  0  0  0  0  0
   61.4300   29.4998   47.9283 H   0  0  0  0  0  0  0  0  0  0  0  0
   60.0410   31.5854   46.1753 H   0  0  0  0  0  0  0  0  0  0  0  0
   60.9571   30.1186   45.6545 H   0  0  0  0  0  0  0  0  0  0  0  0
  1  2  1  0
  2  3  1  0
  3  4  2  0
  4  5  1  0
  5  6  2  0
  6  7  1  0
  7  8  2  0
  8  9  1  0
  9 10  1  0
 10 11  1  0
 11 12  1  0
 12 13  1  0
 13 14  1  0
 14 15  1  0
 15 16  1  0
 16 17  2  0
 17 18  1  0
 18 19  2  0
 19 20  1  0
 20 21  2  0
 21 22  1  0
 22 23  1  0
 22 24  2  0
 12 25  1  0
 25 26  1  0
  8  3  1  0
 26  9  1  0
 21 16  1  0
  1 27  1  0
  1 28  1  0
  1 29  1  0
  4 30  1  0
  5 31  1  0
  6 32  1  0
  7 33  1  0
 10 34  1  0
 10 35  1  0
 11 36  1  0
 11 37  1  0
 13 38  1  0
 13 39  1  0
 14 40  1  0
 14 41  1  0
 17 42  1  0
 18 43  1  0
 19 44  1  0
 20 45  1  0
 23 46  1  0
 23 47  1  0
 25 48  1  0
 25 49  1  0
 26 50  1  0
 26 51  1  0
M  END
>  <UniqueID>  (77) 
74

>  <SMILES>  (77) 
COc1ccccc1N1CCN(CCOc2ccccc2C(N)=O)CC1

>  <Energy>  (77) 
67.9838822559441

>  <Genealogy>  (77) 
COc1ccccc1N1CCN(CCOc2ccccc2C(N)=O)CC1 (3D coordinates assigned)
COc1ccccc1N1CCN(CCOc2ccccc2C(N)=O)CC1 (nonaromatic ring conformer: 67.9838822559441 kcal/mol)

>  <smiles>  (77) 
COc1ccccc1N1CCN(CCOc2ccccc2C(N)=O)CC1

>  <score_type>  (77) 
oracle

>  <origin>  (77) 
adg

>  <m_score__min__energy>  (77) 
-8.1400000000000006

>  <m_primary>  (77) 
energy

$$$$
77:0
     RDKit          3D

 32 33  0  0  0  0  0  0  0  0999 V2000
   57.6060   32.3160   50.3900 N   0  0  0  0  0  0  0  0  0  0  0  0
   58.6430   30.9350   50.4670 S   0  0  0  0  0  0  0  0  0  0  0  0
   59.7250   31.1780   51.4810 O   0  0  0  0  0  0  0  0  0  0  0  0
   57.8500   29.7290   50.8870 O   0  0  0  0  0  0  0  0  0  0  0  0
   59.3580   30.6510   48.8840 C   0  0  0  0  0  0  0  0  0  0  0  0
   60.7470   30.7160   48.7140 C   0  0  0  0  0  0  0  0  0  0  0  0
   61.3100   30.5230   47.4510 C   0  0  0  0  0  0  0  0  0  0  0  0
   60.4880   30.2600   46.3510 C   0  0  0  0  0  0  0  0  0  0  0  0
   59.1000   30.1750   46.5070 C   0  0  0  0  0  0  0  0  0  0  0  0
   58.2920   29.9230   45.3480 N   0  0  0  0  0  0  0  0  0  0  0  0
   57.3340   30.8160   44.7650 C   0  0  0  0  0  0  0  0  0  0  0  0
   56.1170   30.4980   44.6890 O   0  0  0  0  0  0  0  0  0  0  0  0
   57.8020   32.1010   44.1610 C   0  0  0  0  0  0  0  0  0  0  0  0
   57.0600   33.5270   45.0280 S   0  0  0  0  0  0  0  0  0  0  0  0
   58.4200   33.7320   46.1780 C   0  0  0  0  0  0  0  0  0  0  0  0
   59.7070   34.0130   45.7160 C   0  0  0  0  0  0  0  0  0  0  0  0
   60.7420   34.1660   46.6360 C   0  0  0  0  0  0  0  0  0  0  0  0
   60.4640   34.0270   47.9960 C   0  0  0  0  0  0  0  0  0  0  0  0
   61.7360   34.2110   49.1880 Cl  0  0  0  0  0  0  0  0  0  0  0  0
   59.1970   33.7470   48.3960 N   0  0  0  0  0  0  0  0  0  0  0  0
   58.2050   33.6020   47.5150 N   0  0  0  0  0  0  0  0  0  0  0  0
   58.5350   30.3950   47.7780 C   0  0  0  0  0  0  0  0  0  0  0  0
   57.7040   32.7180   49.4310 H   0  0  0  0  0  0  0  0  0  0  0  0
   56.6250   31.9670   50.4720 H   0  0  0  0  0  0  0  0  0  0  0  0
   61.3962   30.9197   49.5783 H   0  0  0  0  0  0  0  0  0  0  0  0
   62.4009   30.5779   47.3213 H   0  0  0  0  0  0  0  0  0  0  0  0
   60.9355   30.1189   45.3561 H   0  0  0  0  0  0  0  0  0  0  0  0
   58.8976   32.1598   44.2404 H   0  0  0  0  0  0  0  0  0  0  0  0
   57.4948   32.1290   43.1051 H   0  0  0  0  0  0  0  0  0  0  0  0
   59.9017   34.1125   44.6379 H   0  0  0  0  0  0  0  0  0  0  0  0
   61.7629   34.3930   46.2952 H   0  0  0  0  0  0  0  0  0  0  0  0
   57.4426   30.3659   47.9038 H   0  0  0  0  0  0  0  0  0  0  0  0
  1  2  1  0
  2  3  2  0
  2  4  2  0
  2  5  1  0
  5  6  2  0
  6  7  1  0
  7  8  2  0
  8  9  1  0
  9 10  1  0
 10 11  1  0
 11 12  2  0
 11 13  1  0
 13 14  1  0
 14 15  1  0
 15 16  2  0
 16 17  1  0
 17 18  2  0
 18 19  1  0
 18 20  1  0
 20 21  2  0
  9 22  2  0
 22  5  1  0
 21 15  1  0
  1 23  1  0
  1 24  1  0
  6 25  1  0
  7 26  1  0
  8 27  1  0
 13 28  1  0
 13 29  1  0
 16 30  1  0
 17 31  1  0
 22 32  1  0
M  CHG  1  10  -1
M  END
>  <UniqueID>  (78) 
75

>  <SMILES>  (78) 
NS(=O)(=O)c1cccc([N-]C(=O)CSc2ccc(Cl)nn2)c1

>  <Energy>  (78) 
30.585663490227088

>  <Genealogy>  (78) 
NS(=O)(=O)c1cccc([N-]C(=O)CSc2ccc(Cl)nn2)c1 (protonated)
NS(=O)(=O)c1cccc([N-]C(=O)CSc2ccc(Cl)nn2)c1 (3D coordinates assigned)
NS(=O)(=O)c1cccc([N-]C(=O)CSc2ccc(Cl)nn2)c1 (optimized conformer: 30.585663490227088 kcal/mol)

>  <smiles>  (78) 
NS(=O)(=O)c1cccc(NC(=O)CSc2ccc(Cl)nn2)c1

>  <score_type>  (78) 
oracle

>  <origin>  (78) 
adg

>  <m_score__min__energy>  (78) 
-10.99

>  <m_primary>  (78) 
energy

$$$$
78:0
     RDKit          3D

 62 66  0  0  0  0  0  0  0  0999 V2000
   63.6040   32.7080   47.0760 C   0  0  0  0  0  0  0  0  0  0  0  0
   62.9410   33.5090   48.0490 O   0  0  0  0  0  0  0  0  0  0  0  0
   61.6530   33.2500   48.5390 C   0  0  0  0  0  0  0  0  0  0  0  0
   60.6670   34.2680   48.6560 C   0  0  0  0  0  0  0  0  0  0  0  0
   59.3850   33.9710   49.1510 C   0  0  0  0  0  0  0  0  0  0  0  0
   59.1130   32.6550   49.5160 C   0  0  0  0  0  0  0  0  0  0  0  0
   57.9640   32.1710   50.0180 N   0  0  0  0  0  0  0  0  0  0  0  0
   58.1760   30.8530   50.2320 C   0  0  0  0  0  0  0  0  0  0  0  0
   59.4680   30.5020   49.8560 C   0  0  0  0  0  0  0  0  0  0  0  0
   60.0930   29.1410   49.9820 C   0  0  0  0  0  0  0  0  0  0  0  0
   60.7760   28.6940   48.6810 C   0  0  0  0  0  0  0  0  0  0  0  0
   59.8900   27.8170   47.8170 C   0  0  0  0  0  0  0  0  0  0  0  0
   59.6050   26.6960   48.2190 O   0  0  0  0  0  0  0  0  0  0  0  0
   59.2970   28.2920   46.5750 N   0  0  1  0  0  0  0  0  0  0  0  0
   60.0470   29.4480   46.0270 C   0  0  0  0  0  0  0  0  0  0  0  0
   59.1280   30.5740   45.6060 C   0  0  0  0  0  0  0  0  0  0  0  0
   59.1160   31.7810   46.3240 C   0  0  0  0  0  0  0  0  0  0  0  0
   58.2470   32.8130   45.9570 C   0  0  0  0  0  0  0  0  0  0  0  0
   57.3820   32.6490   44.8730 C   0  0  0  0  0  0  0  0  0  0  0  0
   57.3850   31.4510   44.1520 C   0  0  0  0  0  0  0  0  0  0  0  0
   58.2520   30.4140   44.5140 C   0  0  0  0  0  0  0  0  0  0  0  0
   58.2400   29.2590   43.8010 F   0  0  0  0  0  0  0  0  0  0  0  0
   59.1850   27.2180   45.5570 C   0  0  0  0  0  0  0  0  0  0  0  0
   57.8260   26.5360   45.5500 C   0  0  0  0  0  0  0  0  0  0  0  0
   57.7350   25.1400   45.4020 C   0  0  0  0  0  0  0  0  0  0  0  0
   56.4890   24.5050   45.4240 C   0  0  0  0  0  0  0  0  0  0  0  0
   56.3760   23.1170   45.2610 C   0  0  0  0  0  0  0  0  0  0  0  0
   55.1160   22.5100   45.2960 C   0  0  0  0  0  0  0  0  0  0  0  0
   53.9680   23.2850   45.4880 C   0  0  0  0  0  0  0  0  0  0  0  0
   54.0720   24.6700   45.6490 C   0  0  0  0  0  0  0  0  0  0  0  0
   55.3300   25.2840   45.6210 C   0  0  0  0  0  0  0  0  0  0  0  0
   55.4370   26.6260   45.7960 N   0  0  0  0  0  0  0  0  0  0  0  0
   56.6380   27.2640   45.7770 C   0  0  0  0  0  0  0  0  0  0  0  0
   56.6690   28.5090   45.9660 O   0  0  0  0  0  0  0  0  0  0  0  0
   60.0570   31.6680   49.4040 C   0  0  0  0  0  0  0  0  0  0  0  0
   61.3400   31.9310   48.9220 C   0  0  0  0  0  0  0  0  0  0  0  0
   64.2265   31.9559   47.5827 H   0  0  0  0  0  0  0  0  0  0  0  0
   62.8569   32.2020   46.4468 H   0  0  0  0  0  0  0  0  0  0  0  0
   64.2407   33.3474   46.4468 H   0  0  0  0  0  0  0  0  0  0  0  0
   60.9097   35.2982   48.3562 H   0  0  0  0  0  0  0  0  0  0  0  0
   58.6195   34.7550   49.2471 H   0  0  0  0  0  0  0  0  0  0  0  0
   57.0860   32.7040   50.2140 H   0  0  0  0  0  0  0  0  0  0  0  0
   57.4315   30.1566   50.6452 H   0  0  0  0  0  0  0  0  0  0  0  0
   60.8442   29.1691   50.7850 H   0  0  0  0  0  0  0  0  0  0  0  0
   59.2925   28.4212   50.2079 H   0  0  0  0  0  0  0  0  0  0  0  0
   61.0519   29.5893   48.1045 H   0  0  0  0  0  0  0  0  0  0  0  0
   61.6570   28.0975   48.9603 H   0  0  0  0  0  0  0  0  0  0  0  0
   58.3280   28.6340   46.7780 H   0  0  0  0  0  0  0  0  0  0  0  0
   60.7360   29.8220   46.7987 H   0  0  0  0  0  0  0  0  0  0  0  0
   60.5940   29.1057   45.1361 H   0  0  0  0  0  0  0  0  0  0  0  0
   59.7940   31.9152   47.1798 H   0  0  0  0  0  0  0  0  0  0  0  0
   58.2447   33.7560   46.5233 H   0  0  0  0  0  0  0  0  0  0  0  0
   56.6986   33.4619   44.5865 H   0  0  0  0  0  0  0  0  0  0  0  0
   56.7038   31.3233   43.2978 H   0  0  0  0  0  0  0  0  0  0  0  0
   59.3600   27.6582   44.5642 H   0  0  0  0  0  0  0  0  0  0  0  0
   59.9331   26.4516   45.8080 H   0  0  0  0  0  0  0  0  0  0  0  0
   58.6498   24.5439   45.2681 H   0  0  0  0  0  0  0  0  0  0  0  0
   57.2773   22.5058   45.1057 H   0  0  0  0  0  0  0  0  0  0  0  0
   55.0282   21.4205   45.1722 H   0  0  0  0  0  0  0  0  0  0  0  0
   52.9794   22.8032   45.5125 H   0  0  0  0  0  0  0  0  0  0  0  0
   53.1665   25.2766   45.7975 H   0  0  0  0  0  0  0  0  0  0  0  0
   62.0881   31.1284   48.8431 H   0  0  0  0  0  0  0  0  0  0  0  0
  1  2  1  0
  2  3  1  0
  3  4  2  0
  4  5  1  0
  5  6  2  0
  6  7  1  0
  7  8  1  0
  8  9  2  0
  9 10  1  0
 10 11  1  0
 11 12  1  0
 12 13  2  0
 12 14  1  0
 14 15  1  0
 15 16  1  0
 16 17  2  0
 17 18  1  0
 18 19  2  0
 19 20  1  0
 20 21  2  0
 21 22  1  0
 14 23  1  0
 23 24  1  0
 24 25  2  0
 25 26  1  0
 26 27  2  0
 27 28  1  0
 28 29  2  0
 29 30  1  0
 30 31  2  0
 31 32  1  0
 32 33  1  0
 33 34  2  0
  9 35  1  0
 35 36  2  0
 36  3  1  0
 35  6  1  0
 21 16  1  0
 33 24  1  0
 31 26  1  0
  1 37  1  0
  1 38  1  0
  1 39  1  0
  4 40  1  0
  5 41  1  0
  7 42  1  0
  8 43  1  0
 10 44  1  0
 10 45  1  0
 11 46  1  0
 11 47  1  0
 14 48  1  1
 15 49  1  0
 15 50  1  0
 17 51  1  0
 18 52  1  0
 19 53  1  0
 20 54  1  0
 23 55  1  0
 23 56  1  0
 25 57  1  0
 27 58  1  0
 28 59  1  0
 29 60  1  0
 30 61  1  0
 36 62  1  0
M  CHG  2  14   1  32  -1
M  END
>  <UniqueID>  (79) 
76

>  <SMILES>  (79) 
COc1ccc2[nH]cc(CCC(=O)[N@@H+](Cc3ccccc3F)Cc3cc4ccccc4[n-]c3=O)c2c1

>  <Energy>  (79) 
101.21512796539955

>  <Genealogy>  (79) 
COc1ccc2[nH]cc(CCC(=O)[NH+](Cc3ccccc3F)Cc3cc4ccccc4[n-]c3=O)c2c1 (protonated)
COc1ccc2[nH]cc(CCC(=O)[N@@H+](Cc3ccccc3F)Cc3cc4ccccc4[n-]c3=O)c2c1 (chirality)
COc1ccc2[nH]cc(CCC(=O)[N@@H+](Cc3ccccc3F)Cc3cc4ccccc4[n-]c3=O)c2c1 (3D coordinates assigned)
COc1ccc2[nH]cc(CCC(=O)[N@@H+](Cc3ccccc3F)Cc3cc4ccccc4[n-]c3=O)c2c1 (optimized conformer: 101.21512796539955 kcal/mol)

>  <smiles>  (79) 
COc1ccc2[nH]cc(CCC(=O)N(Cc3ccccc3F)Cc3cc4ccccc4[nH]c3=O)c2c1

>  <score_type>  (79) 
oracle

>  <origin>  (79) 
adg

>  <m_score__min__energy>  (79) 
-10.18

>  <m_primary>  (79) 
energy

$$$$
79:0
     RDKit          3D

 48 50  0  0  0  0  0  0  0  0999 V2000
   55.1380   29.3390   44.8300 N   0  0  0  0  0  0  0  0  0  0  0  0
   56.7330   29.9720   44.6110 S   0  0  0  0  0  0  0  0  0  0  0  0
   57.2350   29.5560   43.2570 O   0  0  0  0  0  0  0  0  0  0  0  0
   56.6910   31.4730   44.6910 O   0  0  0  0  0  0  0  0  0  0  0  0
   57.8050   29.3510   45.8620 C   0  0  0  0  0  0  0  0  0  0  0  0
   57.9690   27.9700   46.0320 C   0  0  0  0  0  0  0  0  0  0  0  0
   58.8280   27.4770   47.0170 C   0  0  0  0  0  0  0  0  0  0  0  0
   59.5430   28.3650   47.8430 C   0  0  0  0  0  0  0  0  0  0  0  0
   60.4420   27.9050   48.8610 N   0  0  0  0  0  0  0  0  0  0  0  0
   60.6050   28.6050   50.4400 S   0  0  0  0  0  0  0  0  0  0  0  0
   59.3330   29.3190   50.7960 O   0  0  0  0  0  0  0  0  0  0  0  0
   60.8410   27.5120   51.4450 O   0  0  0  0  0  0  0  0  0  0  0  0
   61.9290   29.7650   50.4410 C   0  0  0  0  0  0  0  0  0  0  0  0
   63.0200   29.5650   51.2950 C   0  0  0  0  0  0  0  0  0  0  0  0
   64.0650   30.4920   51.3250 C   0  0  0  0  0  0  0  0  0  0  0  0
   64.0260   31.6230   50.5060 C   0  0  0  0  0  0  0  0  0  0  0  0
   62.9340   31.8360   49.6460 C   0  0  0  0  0  0  0  0  0  0  0  0
   62.8450   32.9870   48.7940 N   0  0  0  0  0  0  0  0  0  0  0  0
   62.2500   32.9840   47.1640 S   0  0  0  0  0  0  0  0  0  0  0  0
   63.3370   33.5090   46.2690 O   0  0  0  0  0  0  0  0  0  0  0  0
   61.9090   31.5780   46.7590 O   0  0  0  0  0  0  0  0  0  0  0  0
   60.8360   34.0340   47.0640 C   0  0  0  0  0  0  0  0  0  0  0  0
   59.6210   33.7150   47.5280 C   0  0  0  0  0  0  0  0  0  0  0  0
   59.3350   33.3080   48.9160 C   0  0  0  0  0  0  0  0  0  0  0  0
   60.1160   33.8290   49.9600 C   0  0  0  0  0  0  0  0  0  0  0  0
   59.8910   33.4190   51.2790 C   0  0  0  0  0  0  0  0  0  0  0  0
   58.9030   32.4700   51.5600 C   0  0  0  0  0  0  0  0  0  0  0  0
   58.1410   31.9270   50.5200 C   0  0  0  0  0  0  0  0  0  0  0  0
   58.3610   32.3370   49.2020 C   0  0  0  0  0  0  0  0  0  0  0  0
   61.8910   30.8990   49.6170 C   0  0  0  0  0  0  0  0  0  0  0  0
   59.3760   29.7450   47.6700 C   0  0  0  0  0  0  0  0  0  0  0  0
   58.5160   30.2370   46.6820 C   0  0  0  0  0  0  0  0  0  0  0  0
   55.1870   28.6520   45.6160 H   0  0  0  0  0  0  0  0  0  0  0  0
   57.4183   27.2702   45.3863 H   0  0  0  0  0  0  0  0  0  0  0  0
   58.9462   26.3912   47.1477 H   0  0  0  0  0  0  0  0  0  0  0  0
   63.0546   28.6770   51.9432 H   0  0  0  0  0  0  0  0  0  0  0  0
   64.9216   30.3306   51.9960 H   0  0  0  0  0  0  0  0  0  0  0  0
   64.8519   32.3491   50.5339 H   0  0  0  0  0  0  0  0  0  0  0  0
   60.9608   35.0178   46.5881 H   0  0  0  0  0  0  0  0  0  0  0  0
   58.7769   33.7598   46.8241 H   0  0  0  0  0  0  0  0  0  0  0  0
   60.9068   34.5614   49.7406 H   0  0  0  0  0  0  0  0  0  0  0  0
   60.4924   33.8439   52.0962 H   0  0  0  0  0  0  0  0  0  0  0  0
   58.7252   32.1509   52.5976 H   0  0  0  0  0  0  0  0  0  0  0  0
   57.3676   31.1763   50.7398 H   0  0  0  0  0  0  0  0  0  0  0  0
   57.7691   31.8976   48.3855 H   0  0  0  0  0  0  0  0  0  0  0  0
   61.0362   31.0548   48.9424 H   0  0  0  0  0  0  0  0  0  0  0  0
   59.9247   30.4467   48.3153 H   0  0  0  0  0  0  0  0  0  0  0  0
   58.3978   31.3225   46.5487 H   0  0  0  0  0  0  0  0  0  0  0  0
  1  2  1  0
  2  3  2  0
  2  4  2  0
  2  5  1  0
  5  6  2  0
  6  7  1  0
  7  8  2  0
  8  9  1  0
  9 10  1  0
 10 11  2  0
 10 12  2  0
 10 13  1  0
 13 14  2  0
 14 15  1  0
 15 16  2  0
 16 17  1  0
 17 18  1  0
 18 19  1  0
 19 20  2  0
 19 21  2  0
 19 22  1  0
 22 23  2  3
 23 24  1  0
 24 25  2  0
 25 26  1  0
 26 27  2  0
 27 28  1  0
 28 29  2  0
 17 30  2  0
  8 31  1  0
 31 32  2  0
 32  5  1  0
 30 13  1  0
 29 24  1  0
  1 33  1  0
  6 34  1  0
  7 35  1  0
 14 36  1  0
 15 37  1  0
 16 38  1  0
 22 39  1  0
 23 40  1  0
 25 41  1  0
 26 42  1  0
 27 43  1  0
 28 44  1  0
 29 45  1  0
 30 46  1  0
 31 47  1  0
 32 48  1  0
M  CHG  3   1  -1   9  -1  18  -1
M  END
>  <UniqueID>  (80) 
77

>  <SMILES>  (80) 
[NH-]S(=O)(=O)c1ccc([N-]S(=O)(=O)c2cccc([N-]S(=O)(=O)C=Cc3ccccc3)c2)cc1

>  <Energy>  (80) 
63.7726374872807

>  <Genealogy>  (80) 
[NH-]S(=O)(=O)c1ccc([N-]S(=O)(=O)c2cccc([N-]S(=O)(=O)C=Cc3ccccc3)c2)cc1 (protonated)
[NH-]S(=O)(=O)c1ccc([N-]S(=O)(=O)c2cccc([N-]S(=O)(=O)C=Cc3ccccc3)c2)cc1 (3D coordinates assigned)
[NH-]S(=O)(=O)c1ccc([N-]S(=O)(=O)c2cccc([N-]S(=O)(=O)C=Cc3ccccc3)c2)cc1 (optimized conformer: 63.7726374872807 kcal/mol)

>  <smiles>  (80) 
NS(=O)(=O)c1ccc(NS(=O)(=O)c2cccc(NS(=O)(=O)C=Cc3ccccc3)c2)cc1

>  <score_type>  (80) 
oracle

>  <origin>  (80) 
adg

>  <m_score__min__energy>  (80) 
-14.119999999999999

>  <m_primary>  (80) 
energy

$$$$
80:0
     RDKit          3D

 48 51  0  0  0  0  0  0  0  0999 V2000
   59.2020   35.2920   44.9770 C   0  0  0  0  0  0  0  0  0  0  0  0
   58.0270   34.4170   44.8750 N   0  0  0  0  0  0  0  0  0  0  0  0
   56.7230   35.0160   44.5600 C   0  0  0  0  0  0  0  0  0  0  0  0
   58.1510   32.9860   45.0840 C   0  0  0  0  0  0  0  0  0  0  0  0
   59.1000   32.4660   45.9870 C   0  0  0  0  0  0  0  0  0  0  0  0
   59.2190   31.0870   46.1900 C   0  0  0  0  0  0  0  0  0  0  0  0
   58.3930   30.1880   45.4940 C   0  0  0  0  0  0  0  0  0  0  0  0
   58.5040   28.7210   45.6950 C   0  0  0  0  0  0  0  0  0  0  0  0
   59.6310   28.0130   46.0730 C   0  0  0  0  0  0  0  0  0  0  0  0
   59.2980   26.7140   46.1540 N   0  0  0  0  0  0  0  0  0  0  0  0
   60.1880   25.6300   46.5630 C   0  0  0  0  0  0  0  0  0  0  0  0
   57.9930   26.6510   45.8040 C   0  0  0  0  0  0  0  0  0  0  0  0
   57.1850   25.4150   45.7610 C   0  0  0  0  0  0  0  0  0  0  0  0
   57.8360   24.1810   45.6990 C   0  0  0  0  0  0  0  0  0  0  0  0
   57.1060   22.9930   45.6490 C   0  0  0  0  0  0  0  0  0  0  0  0
   55.6960   23.0090   45.6550 C   0  0  0  0  0  0  0  0  0  0  0  0
   54.9220   21.8140   45.5820 C   0  0  0  0  0  0  0  0  0  0  0  0
   55.5160   20.4760   45.3450 C   0  0  0  0  0  0  0  0  0  0  0  0
   55.8880   20.1180   44.1960 O   0  0  0  0  0  0  0  0  0  0  0  0
   53.5220   21.8910   45.7160 C   0  0  0  0  0  0  0  0  0  0  0  0
   52.7410   20.7410   45.6750 O   0  0  0  0  0  0  0  0  0  0  0  0
   52.8910   23.1240   45.8700 C   0  0  0  0  0  0  0  0  0  0  0  0
   53.6340   24.3010   45.8920 C   0  0  0  0  0  0  0  0  0  0  0  0
   55.0340   24.2620   45.7890 C   0  0  0  0  0  0  0  0  0  0  0  0
   55.7830   25.4570   45.8410 C   0  0  0  0  0  0  0  0  0  0  0  0
   55.1380   26.6810   46.0050 O   0  0  0  0  0  0  0  0  0  0  0  0
   57.4710   27.8660   45.5330 N   0  0  0  0  0  0  0  0  0  0  0  0
   57.4460   30.7010   44.5930 C   0  0  0  0  0  0  0  0  0  0  0  0
   57.3260   32.0780   44.3900 C   0  0  0  0  0  0  0  0  0  0  0  0
   59.4376   35.4674   46.0371 H   0  0  0  0  0  0  0  0  0  0  0  0
   60.0607   34.8116   44.4852 H   0  0  0  0  0  0  0  0  0  0  0  0
   58.9878   36.2523   44.4852 H   0  0  0  0  0  0  0  0  0  0  0  0
   56.1955   35.2583   45.4944 H   0  0  0  0  0  0  0  0  0  0  0  0
   56.8735   35.9352   43.9749 H   0  0  0  0  0  0  0  0  0  0  0  0
   56.1237   34.3029   43.9749 H   0  0  0  0  0  0  0  0  0  0  0  0
   59.7563   33.1541   46.5399 H   0  0  0  0  0  0  0  0  0  0  0  0
   59.9657   30.7030   46.9006 H   0  0  0  0  0  0  0  0  0  0  0  0
   60.6254   28.4390   46.2723 H   0  0  0  0  0  0  0  0  0  0  0  0
   60.2271   25.5823   47.6613 H   0  0  0  0  0  0  0  0  0  0  0  0
   59.8093   24.6758   46.1678 H   0  0  0  0  0  0  0  0  0  0  0  0
   61.1976   25.8157   46.1678 H   0  0  0  0  0  0  0  0  0  0  0  0
   58.9354   24.1453   45.6895 H   0  0  0  0  0  0  0  0  0  0  0  0
   57.6375   22.0310   45.6043 H   0  0  0  0  0  0  0  0  0  0  0  0
   55.6342   19.7818   46.1901 H   0  0  0  0  0  0  0  0  0  0  0  0
   51.7969   23.1675   45.9750 H   0  0  0  0  0  0  0  0  0  0  0  0
   53.1207   25.2688   45.9908 H   0  0  0  0  0  0  0  0  0  0  0  0
   56.7912   30.0108   44.0408 H   0  0  0  0  0  0  0  0  0  0  0  0
   56.5778   32.4586   43.6792 H   0  0  0  0  0  0  0  0  0  0  0  0
  1  2  1  0
  2  3  1  0
  2  4  1  0
  4  5  2  0
  5  6  1  0
  6  7  2  0
  7  8  1  0
  8  9  2  0
  9 10  1  0
 10 11  1  0
 10 12  1  0
 12 13  1  0
 13 14  2  0
 14 15  1  0
 15 16  2  0
 16 17  1  0
 17 18  1  0
 18 19  2  0
 17 20  2  0
 20 21  1  0
 20 22  1  0
 22 23  2  0
 23 24  1  0
 24 25  2  0
 25 26  1  0
 12 27  2  0
  7 28  1  0
 28 29  2  0
 29  4  1  0
 27  8  1  0
 25 13  1  0
 24 16  1  0
  1 30  1  0
  1 31  1  0
  1 32  1  0
  3 33  1  0
  3 34  1  0
  3 35  1  0
  5 36  1  0
  6 37  1  0
  9 38  1  0
 11 39  1  0
 11 40  1  0
 11 41  1  0
 14 42  1  0
 15 43  1  0
 18 44  1  0
 22 45  1  0
 23 46  1  0
 28 47  1  0
 29 48  1  0
M  CHG  2  21  -1  26  -1
M  END
>  <UniqueID>  (81) 
78

>  <SMILES>  (81) 
CN(C)c1ccc(-c2cn(C)c(-c3ccc4c(C=O)c([O-])ccc4c3[O-])n2)cc1

>  <Energy>  (81) 
102.77209176818965

>  <Genealogy>  (81) 
CN(C)c1ccc(-c2cn(C)c(-c3ccc4c(C=O)c([O-])ccc4c3[O-])n2)cc1 (protonated)
CN(C)c1ccc(-c2cn(C)c(-c3ccc4c(C=O)c([O-])ccc4c3[O-])n2)cc1 (3D coordinates assigned)
CN(C)c1ccc(-c2cn(C)c(-c3ccc4c(C=O)c([O-])ccc4c3[O-])n2)cc1 (optimized conformer: 102.77209176818965 kcal/mol)

>  <smiles>  (81) 
CN(C)c1ccc(-c2cn(C)c(-c3ccc4c(C=O)c(O)ccc4c3O)n2)cc1

>  <score_type>  (81) 
oracle

>  <origin>  (81) 
adg

>  <m_score__min__energy>  (81) 
-12.619999999999999

>  <m_primary>  (81) 
energy

$$$$
81:0
     RDKit          3D

 40 42  0  0  0  0  0  0  0  0999 V2000
   60.6750   27.3230   49.6860 O   0  0  0  0  0  0  0  0  0  0  0  0
   60.4860   27.7750   48.5250 C   0  0  0  0  0  0  0  0  0  0  0  0
   60.0460   26.8730   47.5010 N   0  0  0  0  0  0  0  0  0  0  0  0
   58.6940   26.7260   47.0440 C   0  0  0  0  0  0  0  0  0  0  0  0
   57.9790   25.5330   47.2400 C   0  0  0  0  0  0  0  0  0  0  0  0
   56.6720   25.4120   46.7620 C   0  0  0  0  0  0  0  0  0  0  0  0
   56.0650   26.4820   46.0950 C   0  0  0  0  0  0  0  0  0  0  0  0
   54.7600   26.3510   45.6340 O   0  0  0  0  0  0  0  0  0  0  0  0
   56.7650   27.6820   45.9060 C   0  0  0  0  0  0  0  0  0  0  0  0
   56.1170   28.7780   45.2450 N   0  0  0  0  0  0  0  0  0  0  0  0
   56.6300   29.4880   44.1080 C   0  0  0  0  0  0  0  0  0  0  0  0
   56.5370   28.9560   42.9710 O   0  0  0  0  0  0  0  0  0  0  0  0
   57.2250   30.8400   44.2330 C   0  0  0  0  0  0  0  0  0  0  0  0
   57.5880   31.5570   43.0830 C   0  0  0  0  0  0  0  0  0  0  0  0
   58.1740   32.8200   43.1960 C   0  0  0  0  0  0  0  0  0  0  0  0
   58.3970   33.3830   44.4550 C   0  0  0  0  0  0  0  0  0  0  0  0
   58.0210   32.6910   45.6200 C   0  0  0  0  0  0  0  0  0  0  0  0
   58.2370   33.2690   46.9200 N   0  0  0  0  0  0  0  0  0  0  0  0
   58.4840   34.4870   47.0430 O   0  0  0  0  0  0  0  0  0  0  0  0
   58.1790   32.4880   48.0510 O   0  0  0  0  0  0  0  0  0  0  0  0
   57.4270   31.4220   45.4980 C   0  0  0  0  0  0  0  0  0  0  0  0
   58.0940   27.7830   46.3520 C   0  0  0  0  0  0  0  0  0  0  0  0
   60.7730   29.2000   48.2410 C   0  0  0  0  0  0  0  0  0  0  0  0
   61.1770   30.0740   49.2680 C   0  0  0  0  0  0  0  0  0  0  0  0
   61.4330   31.4200   48.9900 C   0  0  0  0  0  0  0  0  0  0  0  0
   61.2850   31.9090   47.6890 C   0  0  0  0  0  0  0  0  0  0  0  0
   61.6380   33.7470   47.3140 Br  0  0  0  0  0  0  0  0  0  0  0  0
   60.8720   31.0520   46.6650 C   0  0  0  0  0  0  0  0  0  0  0  0
   60.6110   29.7060   46.9390 C   0  0  0  0  0  0  0  0  0  0  0  0
   58.4492   24.6922   47.7710 H   0  0  0  0  0  0  0  0  0  0  0  0
   56.1184   24.4731   46.9103 H   0  0  0  0  0  0  0  0  0  0  0  0
   57.4104   31.1227   42.0881 H   0  0  0  0  0  0  0  0  0  0  0  0
   58.4611   33.3736   42.2899 H   0  0  0  0  0  0  0  0  0  0  0  0
   58.8694   34.3732   44.5354 H   0  0  0  0  0  0  0  0  0  0  0  0
   57.1166   30.8780   46.4023 H   0  0  0  0  0  0  0  0  0  0  0  0
   58.6671   28.7011   46.1552 H   0  0  0  0  0  0  0  0  0  0  0  0
   61.2918   29.6959   50.2946 H   0  0  0  0  0  0  0  0  0  0  0  0
   61.7517   32.0959   49.7972 H   0  0  0  0  0  0  0  0  0  0  0  0
   60.7521   31.4372   45.6417 H   0  0  0  0  0  0  0  0  0  0  0  0
   60.2768   29.0386   46.1310 H   0  0  0  0  0  0  0  0  0  0  0  0
  1  2  2  0
  2  3  1  0
  3  4  1  0
  4  5  2  0
  5  6  1  0
  6  7  2  0
  7  8  1  0
  7  9  1  0
  9 10  1  0
 10 11  1  0
 11 12  2  0
 11 13  1  0
 13 14  2  0
 14 15  1  0
 15 16  2  0
 16 17  1  0
 17 18  1  0
 18 19  2  0
 18 20  1  0
 17 21  2  0
  9 22  2  0
  2 23  1  0
 23 24  2  0
 24 25  1  0
 25 26  2  0
 26 27  1  0
 26 28  1  0
 28 29  2  0
 22  4  1  0
 29 23  1  0
 21 13  1  0
  5 30  1  0
  6 31  1  0
 14 32  1  0
 15 33  1  0
 16 34  1  0
 21 35  1  0
 22 36  1  0
 24 37  1  0
 25 38  1  0
 28 39  1  0
 29 40  1  0
M  CHG  5   3  -1   8  -1  10  -1  18   1  20  -1
M  END
>  <UniqueID>  (82) 
79

>  <SMILES>  (82) 
O=C([N-]c1ccc([O-])c([N-]C(=O)c2cccc([N+](=O)[O-])c2)c1)c1ccc(Br)cc1

>  <Energy>  (82) 
56.52170704344717

>  <Genealogy>  (82) 
O=C([N-]c1ccc([O-])c([N-]C(=O)c2cccc([N+](=O)[O-])c2)c1)c1ccc(Br)cc1 (protonated)
O=C([N-]c1ccc([O-])c([N-]C(=O)c2cccc([N+](=O)[O-])c2)c1)c1ccc(Br)cc1 (3D coordinates assigned)
O=C([N-]c1ccc([O-])c([N-]C(=O)c2cccc([N+](=O)[O-])c2)c1)c1ccc(Br)cc1 (optimized conformer: 56.52170704344717 kcal/mol)

>  <smiles>  (82) 
O=C(Nc1ccc(O)c(NC(=O)c2cccc([N+](=O)[O-])c2)c1)c1ccc(Br)cc1

>  <score_type>  (82) 
oracle

>  <origin>  (82) 
adg

>  <m_score__min__energy>  (82) 
-15.52

>  <m_primary>  (82) 
energy

$$$$
82:0
     RDKit          3D

 35 37  0  0  0  0  0  0  0  0999 V2000
   59.2470   33.1620   51.7930 O   0  0  0  0  0  0  0  0  0  0  0  0
   60.0850   33.2190   50.8530 C   0  0  0  0  0  0  0  0  0  0  0  0
   61.4690   32.9710   51.1490 N   0  0  0  0  0  0  0  0  0  0  0  0
   62.4240   32.8700   50.2720 C   0  0  0  0  0  0  0  0  0  0  0  0
   62.3840   32.0620   49.1890 N   0  0  0  0  0  0  0  0  0  0  0  0
   63.5100   32.1800   48.4370 C   0  0  0  0  0  0  0  0  0  0  0  0
   64.4440   33.0940   48.9150 C   0  0  0  0  0  0  0  0  0  0  0  0
   63.8360   33.7750   50.3290 S   0  0  0  0  0  0  0  0  0  0  0  0
   59.6100   33.4960   49.4790 C   0  0  0  0  0  0  0  0  0  0  0  0
   60.2050   34.5140   48.7160 C   0  0  0  0  0  0  0  0  0  0  0  0
   59.7950   34.7420   47.3990 C   0  0  0  0  0  0  0  0  0  0  0  0
   58.7770   33.9630   46.8350 C   0  0  0  0  0  0  0  0  0  0  0  0
   58.3310   34.1630   45.1430 S   0  0  0  0  0  0  0  0  0  0  0  0
   59.1740   35.2240   44.4930 O   0  0  0  0  0  0  0  0  0  0  0  0
   56.8850   34.5620   45.0640 O   0  0  0  0  0  0  0  0  0  0  0  0
   58.5580   32.6640   44.3000 N   0  0  0  0  0  0  0  0  0  0  0  0
   57.8190   31.4590   44.5510 C   0  0  0  0  0  0  0  0  0  0  0  0
   56.6480   31.2240   43.8190 C   0  0  0  0  0  0  0  0  0  0  0  0
   55.8830   30.0780   44.0550 C   0  0  0  0  0  0  0  0  0  0  0  0
   56.2860   29.1540   45.0240 C   0  0  0  0  0  0  0  0  0  0  0  0
   55.5230   28.0180   45.2630 O   0  0  0  0  0  0  0  0  0  0  0  0
   57.4610   29.3720   45.7490 C   0  0  0  0  0  0  0  0  0  0  0  0
   58.2290   30.5170   45.5140 C   0  0  0  0  0  0  0  0  0  0  0  0
   58.1460   32.9820   47.6090 C   0  0  0  0  0  0  0  0  0  0  0  0
   58.5570   32.7510   48.9230 C   0  0  0  0  0  0  0  0  0  0  0  0
   63.6710   31.5963   47.5187 H   0  0  0  0  0  0  0  0  0  0  0  0
   65.4121   33.3305   48.4494 H   0  0  0  0  0  0  0  0  0  0  0  0
   60.9982   35.1355   49.1572 H   0  0  0  0  0  0  0  0  0  0  0  0
   60.2729   35.5347   46.8047 H   0  0  0  0  0  0  0  0  0  0  0  0
   56.3282   31.9461   43.0533 H   0  0  0  0  0  0  0  0  0  0  0  0
   54.9631   29.9030   43.4778 H   0  0  0  0  0  0  0  0  0  0  0  0
   57.7823   28.6415   46.5060 H   0  0  0  0  0  0  0  0  0  0  0  0
   59.1558   30.6821   46.0830 H   0  0  0  0  0  0  0  0  0  0  0  0
   57.3233   32.3910   47.1803 H   0  0  0  0  0  0  0  0  0  0  0  0
   58.0534   31.9813   49.5263 H   0  0  0  0  0  0  0  0  0  0  0  0
  1  2  2  0
  2  3  1  0
  3  4  2  3
  4  5  1  0
  5  6  1  0
  6  7  2  0
  7  8  1  0
  2  9  1  0
  9 10  2  0
 10 11  1  0
 11 12  2  0
 12 13  1  0
 13 14  2  0
 13 15  2  0
 13 16  1  0
 16 17  1  0
 17 18  2  0
 18 19  1  0
 19 20  2  0
 20 21  1  0
 20 22  1  0
 22 23  2  0
 12 24  1  0
 24 25  2  0
  8  4  1  0
 25  9  1  0
 23 17  1  0
  6 26  1  0
  7 27  1  0
 10 28  1  0
 11 29  1  0
 18 30  1  0
 19 31  1  0
 22 32  1  0
 23 33  1  0
 24 34  1  0
 25 35  1  0
M  CHG  3   5  -1  16  -1  21  -1
M  END
>  <UniqueID>  (83) 
80

>  <SMILES>  (83) 
O=C(N=c1[n-]ccs1)c1ccc(S(=O)(=O)[N-]c2ccc([O-])cc2)cc1

>  <Energy>  (83) 
77.48962655698571

>  <Genealogy>  (83) 
O=C(N=c1[n-]ccs1)c1ccc(S(=O)(=O)[N-]c2ccc([O-])cc2)cc1 (protonated)
O=C(N=c1[n-]ccs1)c1ccc(S(=O)(=O)[N-]c2ccc([O-])cc2)cc1 (3D coordinates assigned)
O=C(N=c1[n-]ccs1)c1ccc(S(=O)(=O)[N-]c2ccc([O-])cc2)cc1 (optimized conformer: 77.48962655698571 kcal/mol)

>  <smiles>  (83) 
O=C(N=c1[nH]ccs1)c1ccc(S(=O)(=O)Nc2ccc(O)cc2)cc1

>  <score_type>  (83) 
oracle

>  <origin>  (83) 
adg

>  <m_score__min__energy>  (83) 
-13.449999999999999

>  <m_primary>  (83) 
energy

$$$$
83:0
     RDKit          3D

 36 39  0  0  0  0  0  0  0  0999 V2000
   56.2910   21.6190   43.3000 N   0  0  0  0  0  0  0  0  0  0  0  0
   56.5730   22.7740   43.7880 C   0  0  0  0  0  0  0  0  0  0  0  0
   56.4410   23.0640   45.0820 N   0  0  0  0  0  0  0  0  0  0  0  0
   56.7360   24.2820   45.6160 C   0  0  0  0  0  0  0  0  0  0  0  0
   56.5800   24.4500   46.8210 N   0  0  0  0  0  0  0  0  0  0  0  0
   57.1930   25.2210   44.7000 C   0  0  0  0  0  0  0  0  0  0  0  0
   57.5200   26.4780   45.1140 C   0  0  0  0  0  0  0  0  0  0  0  0
   57.3950   26.9850   46.7620 Cl  0  0  0  0  0  0  0  0  0  0  0  0
   57.9690   27.3810   44.1800 C   0  0  0  0  0  0  0  0  0  0  0  0
   58.3310   28.7260   44.5600 N   0  0  0  0  0  0  0  0  0  0  0  0
   59.6300   29.0820   45.0390 C   0  0  0  0  0  0  0  0  0  0  0  0
   59.6610   30.0400   46.1920 C   0  0  0  0  0  0  0  0  0  0  0  0
   59.0790   31.3470   45.9150 C   0  0  0  0  0  0  0  0  0  0  0  0
   59.6570   32.5100   46.4250 C   0  0  0  0  0  0  0  0  0  0  0  0
   59.1320   33.7610   46.1830 C   0  0  0  0  0  0  0  0  0  0  0  0
   57.9860   33.8560   45.4000 C   0  0  0  0  0  0  0  0  0  0  0  0
   57.4070   32.6970   44.8900 C   0  0  0  0  0  0  0  0  0  0  0  0
   57.9450   31.4550   45.1430 C   0  0  0  0  0  0  0  0  0  0  0  0
   57.1190   30.0270   44.4360 S   0  0  0  0  0  0  0  0  0  0  0  0
   58.1100   27.0910   42.8380 C   0  0  0  0  0  0  0  0  0  0  0  0
   57.7780   25.8400   42.4570 N   0  0  0  0  0  0  0  0  0  0  0  0
   57.3360   24.9370   43.3540 C   0  0  0  0  0  0  0  0  0  0  0  0
   57.0180   23.7090   42.9350 N   0  0  0  0  0  0  0  0  0  0  0  0
   56.9380   20.8130   43.2870 H   0  0  0  0  0  0  0  0  0  0  0  0
   56.0920   22.3080   45.7100 H   0  0  0  0  0  0  0  0  0  0  0  0
   56.5280   24.2110   47.7430 H   0  0  0  0  0  0  0  0  0  0  0  0
   60.1383   28.1586   45.3538 H   0  0  0  0  0  0  0  0  0  0  0  0
   60.1233   29.6026   44.2050 H   0  0  0  0  0  0  0  0  0  0  0  0
   59.1062   29.5883   47.0275 H   0  0  0  0  0  0  0  0  0  0  0  0
   60.7225   30.2154   46.4211 H   0  0  0  0  0  0  0  0  0  0  0  0
   60.5637   32.4254   47.0420 H   0  0  0  0  0  0  0  0  0  0  0  0
   59.6072   34.6619   46.5985 H   0  0  0  0  0  0  0  0  0  0  0  0
   57.5409   34.8388   45.1856 H   0  0  0  0  0  0  0  0  0  0  0  0
   56.5005   32.7752   44.2718 H   0  0  0  0  0  0  0  0  0  0  0  0
   58.4733   27.8392   42.1181 H   0  0  0  0  0  0  0  0  0  0  0  0
   57.1240   23.4930   41.9270 H   0  0  0  0  0  0  0  0  0  0  0  0
  1  2  2  3
  2  3  1  0
  3  4  1  0
  4  5  2  3
  4  6  1  0
  6  7  2  0
  7  8  1  0
  7  9  1  0
  9 10  1  0
 10 11  1  0
 11 12  1  0
 12 13  1  0
 13 14  2  0
 14 15  1  0
 15 16  2  0
 16 17  1  0
 17 18  2  0
 18 19  1  0
  9 20  2  0
 20 21  1  0
 21 22  2  0
 22 23  1  0
 23  2  1  0
 22  6  1  0
 19 10  1  0
 18 13  1  0
  1 24  1  0
  3 25  1  0
  5 26  1  0
 11 27  1  0
 11 28  1  0
 12 29  1  0
 12 30  1  0
 14 31  1  0
 15 32  1  0
 16 33  1  0
 17 34  1  0
 20 35  1  0
 23 36  1  0
M  END
>  <smiles>  (84) 
N=c1[nH]c(=N)c2c(Cl)c(N3CCc4ccccc4S3)cnc2[nH]1

>  <score_type>  (84) 
oracle

>  <origin>  (84) 
adg

>  <m_score__min__energy>  (84) 
-7.9400000000000004

>  <m_primary>  (84) 
energy

$$$$
84:0
     RDKit          3D

 66 71  0  0  0  0  0  0  0  0999 V2000
   55.1590   29.0280   44.8810 O   0  0  0  0  0  0  0  0  0  0  0  0
   56.0730   29.6080   44.2360 C   0  0  0  0  0  0  0  0  0  0  0  0
   55.9280   29.7500   42.8610 O   0  0  0  0  0  0  0  0  0  0  0  0
   57.2780   30.1270   44.9400 C   0  0  0  0  0  0  0  0  0  0  0  0
   58.2640   29.2280   45.3790 C   0  0  0  0  0  0  0  0  0  0  0  0
   59.4070   29.6590   45.9950 N   0  0  0  0  0  0  0  0  0  0  0  0
   60.3980   28.6420   46.4010 C   0  0  0  0  0  0  0  0  0  0  0  0
   59.7980   27.2710   46.7030 C   0  0  0  0  0  0  0  0  0  0  0  0
   60.2720   28.1490   47.8420 C   0  0  0  0  0  0  0  0  0  0  0  0
   59.5690   30.9930   46.3060 C   0  0  0  0  0  0  0  0  0  0  0  0
   60.6780   31.4510   47.0510 C   0  0  0  0  0  0  0  0  0  0  0  0
   60.8630   32.8130   47.3080 C   0  0  0  0  0  0  0  0  0  0  0  0
   62.0550   33.2580   47.9690 N   0  0  0  0  0  0  0  0  0  0  0  0
   63.2510   32.4060   47.8930 C   0  0  0  0  0  0  0  0  0  0  0  0
   63.9820   32.3720   49.2410 C   0  0  0  0  0  0  0  0  0  0  0  0
   63.0030   32.4690   50.3320 N   0  0  0  0  0  0  0  0  0  0  0  0
   62.7560   31.3620   51.2150 C   0  0  0  0  0  0  0  0  0  0  0  0
   62.3740   31.5860   52.3960 O   0  0  0  0  0  0  0  0  0  0  0  0
   62.8490   30.0110   50.7310 N   0  0  0  0  0  0  0  0  0  0  0  0
   62.7620   28.8510   51.5740 C   0  0  0  0  0  0  0  0  0  0  0  0
   63.9100   28.2780   52.1500 C   0  0  0  0  0  0  0  0  0  0  0  0
   63.8020   27.1350   52.9480 C   0  0  0  0  0  0  0  0  0  0  0  0
   62.5570   26.5380   53.1700 C   0  0  0  0  0  0  0  0  0  0  0  0
   62.4900   25.4060   53.9960 O   0  0  0  0  0  0  0  0  0  0  0  0
   62.2600   24.0910   53.5650 C   0  0  0  0  0  0  0  0  0  0  0  0
   62.8420   23.0370   54.2800 C   0  0  0  0  0  0  0  0  0  0  0  0
   62.6410   21.7130   53.8770 C   0  0  0  0  0  0  0  0  0  0  0  0
   61.8700   21.4360   52.7450 C   0  0  0  0  0  0  0  0  0  0  0  0
   61.3050   22.4830   52.0100 C   0  0  0  0  0  0  0  0  0  0  0  0
   61.5030   23.8070   52.4110 C   0  0  0  0  0  0  0  0  0  0  0  0
   61.4070   27.1120   52.5990 C   0  0  0  0  0  0  0  0  0  0  0  0
   61.5150   28.2480   51.7920 C   0  0  0  0  0  0  0  0  0  0  0  0
   62.1290   33.6500   50.3970 C   0  0  0  0  0  0  0  0  0  0  0  0
   61.9710   34.2920   49.0090 C   0  0  0  0  0  0  0  0  0  0  0  0
   59.9310   33.7430   46.8420 C   0  0  0  0  0  0  0  0  0  0  0  0
   60.1140   35.0670   47.0710 F   0  0  0  0  0  0  0  0  0  0  0  0
   58.8030   33.3110   46.1440 C   0  0  0  0  0  0  0  0  0  0  0  0
   58.6060   31.9420   45.8730 C   0  0  0  0  0  0  0  0  0  0  0  0
   57.4670   31.5000   45.1790 C   0  0  0  0  0  0  0  0  0  0  0  0
   56.6100   32.3370   44.7800 O   0  0  0  0  0  0  0  0  0  0  0  0
   58.1132   28.1495   45.2235 H   0  0  0  0  0  0  0  0  0  0  0  0
   61.2212   29.0240   45.7793 H   0  0  0  0  0  0  0  0  0  0  0  0
   58.7219   27.0978   46.5544 H   0  0  0  0  0  0  0  0  0  0  0  0
   60.0101   26.2423   46.3763 H   0  0  0  0  0  0  0  0  0  0  0  0
   59.5399   28.6130   48.5193 H   0  0  0  0  0  0  0  0  0  0  0  0
   60.9699   28.0208   48.6826 H   0  0  0  0  0  0  0  0  0  0  0  0
   61.4085   30.7241   47.4356 H   0  0  0  0  0  0  0  0  0  0  0  0
   62.9490   31.3839   47.6206 H   0  0  0  0  0  0  0  0  0  0  0  0
   63.9309   32.8195   47.1335 H   0  0  0  0  0  0  0  0  0  0  0  0
   64.5398   31.4283   49.3318 H   0  0  0  0  0  0  0  0  0  0  0  0
   64.6816   33.2188   49.3000 H   0  0  0  0  0  0  0  0  0  0  0  0
   62.8180   29.8640   49.6960 H   0  0  0  0  0  0  0  0  0  0  0  0
   64.8966   28.7308   51.9720 H   0  0  0  0  0  0  0  0  0  0  0  0
   64.7039   26.7017   53.4050 H   0  0  0  0  0  0  0  0  0  0  0  0
   63.4608   23.2517   55.1637 H   0  0  0  0  0  0  0  0  0  0  0  0
   63.0900   20.8893   54.4514 H   0  0  0  0  0  0  0  0  0  0  0  0
   61.7074   20.3941   52.4319 H   0  0  0  0  0  0  0  0  0  0  0  0
   60.7040   22.2641   51.1151 H   0  0  0  0  0  0  0  0  0  0  0  0
   61.0670   24.6292   51.8245 H   0  0  0  0  0  0  0  0  0  0  0  0
   60.4196   26.6655   52.7881 H   0  0  0  0  0  0  0  0  0  0  0  0
   60.6145   28.6724   51.3241 H   0  0  0  0  0  0  0  0  0  0  0  0
   61.1392   33.3457   50.7679 H   0  0  0  0  0  0  0  0  0  0  0  0
   62.5834   34.3869   51.0756 H   0  0  0  0  0  0  0  0  0  0  0  0
   60.9936   34.7929   48.9476 H   0  0  0  0  0  0  0  0  0  0  0  0
   62.7749   35.0270   48.8556 H   0  0  0  0  0  0  0  0  0  0  0  0
   58.0599   34.0462   45.8017 H   0  0  0  0  0  0  0  0  0  0  0  0
  1  2  2  0
  2  3  1  0
  2  4  1  0
  4  5  2  0
  5  6  1  0
  6  7  1  0
  7  8  1  0
  8  9  1  0
  6 10  1  0
 10 11  2  0
 11 12  1  0
 12 13  1  0
 13 14  1  0
 14 15  1  0
 15 16  1  0
 16 17  1  0
 17 18  2  0
 17 19  1  0
 19 20  1  0
 20 21  2  0
 21 22  1  0
 22 23  2  0
 23 24  1  0
 24 25  1  0
 25 26  2  0
 26 27  1  0
 27 28  2  0
 28 29  1  0
 29 30  2  0
 23 31  1  0
 31 32  2  0
 16 33  1  0
 33 34  1  0
 12 35  2  0
 35 36  1  0
 35 37  1  0
 37 38  2  0
 38 39  1  0
 39 40  2  0
 39  4  1  0
  9  7  1  0
 38 10  1  0
 34 13  1  0
 32 20  1  0
 30 25  1  0
  5 41  1  0
  7 42  1  0
  8 43  1  0
  8 44  1  0
  9 45  1  0
  9 46  1  0
 11 47  1  0
 14 48  1  0
 14 49  1  0
 15 50  1  0
 15 51  1  0
 19 52  1  0
 21 53  1  0
 22 54  1  0
 26 55  1  0
 27 56  1  0
 28 57  1  0
 29 58  1  0
 30 59  1  0
 31 60  1  0
 32 61  1  0
 33 62  1  0
 33 63  1  0
 34 64  1  0
 34 65  1  0
 37 66  1  0
M  CHG  1   3  -1
M  END
>  <UniqueID>  (85) 
81

>  <SMILES>  (85) 
O=C([O-])c1cn(C2CC2)c2cc(N3CCN(C(=O)Nc4ccc(Oc5ccccc5)cc4)CC3)c(F)cc2c1=O

>  <Energy>  (85) 
368.0501622143897

>  <Genealogy>  (85) 
O=C([O-])c1cn(C2CC2)c2cc(N3CCN(C(=O)Nc4ccc(Oc5ccccc5)cc4)CC3)c(F)cc2c1=O (protonated)
O=C([O-])c1cn(C2CC2)c2cc(N3CCN(C(=O)Nc4ccc(Oc5ccccc5)cc4)CC3)c(F)cc2c1=O (3D coordinates assigned)
O=C([O-])c1cn(C2CC2)c2cc(N3CCN(C(=O)Nc4ccc(Oc5ccccc5)cc4)CC3)c(F)cc2c1=O (nonaromatic ring conformer: 368.0501622143897 kcal/mol)

>  <smiles>  (85) 
O=C(O)c1cn(C2CC2)c2cc(N3CCN(C(=O)Nc4ccc(Oc5ccccc5)cc4)CC3)c(F)cc2c1=O

>  <score_type>  (85) 
oracle

>  <origin>  (85) 
adg

>  <m_score__min__energy>  (85) 
-11.23

>  <m_primary>  (85) 
energy

$$$$
85:0
     RDKit          3D

 68 70  0  0  0  0  0  0  0  0999 V2000
   58.8135   29.3930   50.6053 H   0  0  0  0  0  0  0  0  0  0  0  0
   58.9700   30.4770   50.7080 C   0  0  0  0  0  0  0  0  0  0  0  0
   60.1650   31.0500   50.2640 C   0  0  0  0  0  0  0  0  0  0  0  0
   60.9430   30.4161   49.8136 H   0  0  0  0  0  0  0  0  0  0  0  0
   60.3750   32.4300   50.3910 C   0  0  0  0  0  0  0  0  0  0  0  0
   61.6590   33.0290   49.9550 C   0  0  0  0  0  0  0  0  0  0  0  0
   61.7960   33.4020   48.6410 C   0  0  0  0  0  0  0  0  0  0  0  0
   60.6360   33.2790   47.7230 C   0  0  0  0  0  0  0  0  0  0  0  0
   59.7690   34.3640   47.5320 C   0  0  0  0  0  0  0  0  0  0  0  0
   59.9673   35.3203   48.0382 H   0  0  0  0  0  0  0  0  0  0  0  0
   58.6530   34.2340   46.7000 C   0  0  0  0  0  0  0  0  0  0  0  0
   57.9782   35.0900   46.5518 H   0  0  0  0  0  0  0  0  0  0  0  0
   58.3890   33.0150   46.0520 C   0  0  0  0  0  0  0  0  0  0  0  0
   57.1930   32.8740   45.1520 C   0  0  0  0  0  0  0  0  0  0  0  0
   56.5516   32.0635   45.5286 H   0  0  0  0  0  0  0  0  0  0  0  0
   56.6420   33.8260   45.1454 H   0  0  0  0  0  0  0  0  0  0  0  0
   57.6270   32.5470   43.7190 C   0  0  0  0  0  0  0  0  0  0  0  0
   57.2659   33.3376   43.0448 H   0  0  0  0  0  0  0  0  0  0  0  0
   58.7250   32.4875   43.6908 H   0  0  0  0  0  0  0  0  0  0  0  0
   57.0550   31.2030   43.2650 C   0  0  0  0  0  0  0  0  0  0  0  0
   56.0326   31.0910   43.6551 H   0  0  0  0  0  0  0  0  0  0  0  0
   57.0388   31.1685   42.1657 H   0  0  0  0  0  0  0  0  0  0  0  0
   57.8900   30.1110   43.7700 N   0  0  0  0  0  0  0  0  0  0  0  0
   58.0790   29.4520   42.9810 H   0  0  0  0  0  0  0  0  0  0  0  0
   57.0270   29.2120   44.9820 S   0  0  0  0  0  0  0  0  0  0  0  0
   55.5460   29.3910   44.7910 O   0  0  0  0  0  0  0  0  0  0  0  0
   57.4100   29.7320   46.3390 O   0  0  0  0  0  0  0  0  0  0  0  0
   57.4300   27.4790   44.8960 C   0  0  0  0  0  0  0  0  0  0  0  0
   57.5243   27.0735   45.9142 H   0  0  0  0  0  0  0  0  0  0  0  0
   56.6325   26.9432   44.3604 H   0  0  0  0  0  0  0  0  0  0  0  0
   58.3821   27.3501   44.3604 H   0  0  0  0  0  0  0  0  0  0  0  0
   59.2760   31.9400   46.2220 C   0  0  0  0  0  0  0  0  0  0  0  0
   59.0922   30.9907   45.6976 H   0  0  0  0  0  0  0  0  0  0  0  0
   60.3910   32.0700   47.0540 C   0  0  0  0  0  0  0  0  0  0  0  0
   61.0790   31.2218   47.1850 H   0  0  0  0  0  0  0  0  0  0  0  0
   63.0590   33.9360   48.0010 C   0  0  0  0  0  0  0  0  0  0  0  0
   63.7624   34.2342   48.7924 H   0  0  0  0  0  0  0  0  0  0  0  0
   62.7899   34.7973   47.3719 H   0  0  0  0  0  0  0  0  0  0  0  0
   63.7250   32.8840   47.1150 C   0  0  0  0  0  0  0  0  0  0  0  0
   64.2064   32.1235   47.7474 H   0  0  0  0  0  0  0  0  0  0  0  0
   62.9651   32.4052   46.4799 H   0  0  0  0  0  0  0  0  0  0  0  0
   64.4828   33.3660   46.4799 H   0  0  0  0  0  0  0  0  0  0  0  0
   62.6600   33.2200   51.0960 C   0  0  0  0  0  0  0  0  0  0  0  0
   61.9214   32.9541   51.8665 H   0  0  0  0  0  0  0  0  0  0  0  0
   63.4010   34.5500   51.1610 C   0  0  0  0  0  0  0  0  0  0  0  0
   63.2776   35.1797   50.2675 H   0  0  0  0  0  0  0  0  0  0  0  0
   63.1494   35.2967   51.9286 H   0  0  0  0  0  0  0  0  0  0  0  0
   64.7270   33.7900   51.2150 C   0  0  0  0  0  0  0  0  0  0  0  0
   65.4108   34.0228   50.3854 H   0  0  0  0  0  0  0  0  0  0  0  0
   65.4174   33.9397   52.0582 H   0  0  0  0  0  0  0  0  0  0  0  0
   63.9830   32.4640   51.0550 C   0  0  0  0  0  0  0  0  0  0  0  0
   64.1790   31.9484   50.1033 H   0  0  0  0  0  0  0  0  0  0  0  0
   64.1732   31.6263   51.7420 H   0  0  0  0  0  0  0  0  0  0  0  0
   59.3730   33.2350   50.9470 C   0  0  0  0  0  0  0  0  0  0  0  0
   59.5248   34.3214   51.0285 H   0  0  0  0  0  0  0  0  0  0  0  0
   58.1800   32.6620   51.3990 C   0  0  0  0  0  0  0  0  0  0  0  0
   57.4033   33.2994   51.8468 H   0  0  0  0  0  0  0  0  0  0  0  0
   57.9660   31.2750   51.2850 C   0  0  0  0  0  0  0  0  0  0  0  0
   56.7080   30.6650   51.7760 C   0  0  0  0  0  0  0  0  0  0  0  0
   56.6540   29.4260   52.0020 O   0  0  0  0  0  0  0  0  0  0  0  0
   55.5510   31.4790   51.9970 N   0  0  0  0  0  0  0  0  0  0  0  0
   53.9400   30.8490   51.9530 S   0  0  0  0  0  0  0  0  0  0  0  0
   53.8440   29.7810   50.9020 O   0  0  0  0  0  0  0  0  0  0  0  0
   52.9900   31.9620   51.6100 O   0  0  0  0  0  0  0  0  0  0  0  0
   53.5020   30.1830   53.5430 C   0  0  0  0  0  0  0  0  0  0  0  0
   53.9211   30.8203   54.3356 H   0  0  0  0  0  0  0  0  0  0  0  0
   52.4066   30.1519   53.6384 H   0  0  0  0  0  0  0  0  0  0  0  0
   53.9074   29.1649   53.6384 H   0  0  0  0  0  0  0  0  0  0  0  0
  1  2  1  0
  2  3  2  0
  3  4  1  0
  3  5  1  0
  5  6  1  0
  6  7  2  0
  7  8  1  0
  8  9  2  0
  9 10  1  0
  9 11  1  0
 11 12  1  0
 11 13  2  0
 13 14  1  0
 14 15  1  0
 14 16  1  0
 14 17  1  0
 17 18  1  0
 17 19  1  0
 17 20  1  0
 20 21  1  0
 20 22  1  0
 20 23  1  0
 23 24  1  0
 23 25  1  0
 25 26  2  0
 25 27  2  0
 25 28  1  0
 28 29  1  0
 28 30  1  0
 28 31  1  0
 13 32  1  0
 32 33  1  0
 32 34  2  0
 34 35  1  0
  7 36  1  0
 36 37  1  0
 36 38  1  0
 36 39  1  0
 39 40  1  0
 39 41  1  0
 39 42  1  0
  6 43  1  0
 43 44  1  0
 43 45  1  0
 45 46  1  0
 45 47  1  0
 45 48  1  0
 48 49  1  0
 48 50  1  0
 48 51  1  0
 51 52  1  0
 51 53  1  0
  5 54  2  0
 54 55  1  0
 54 56  1  0
 56 57  1  0
 56 58  2  0
 58 59  1  0
 59 60  2  0
 59 61  1  0
 61 62  1  0
 62 63  2  0
 62 64  2  0
 62 65  1  0
 65 66  1  0
 65 67  1  0
 65 68  1  0
 58  2  1  0
 34  8  1  0
 51 43  1  0
M  CHG  1  61  -1
M  END
>  <UniqueID>  (86) 
82

>  <SMILES>  (86) 
CC/C(=C(/c1ccc(C(=O)[N-]S(C)(=O)=O)cc1)C1CCC1)c1ccc(CCCNS(C)(=O)=O)cc1

>  <Energy>  (86) 
135.96980415788985

>  <Genealogy>  (86) 
CCC(=C(c1ccc(C(=O)[N-]S(C)(=O)=O)cc1)C1CCC1)c1ccc(CCCNS(C)(=O)=O)cc1 (protonated)
CC/C(=C(/c1ccc(C(=O)[N-]S(C)(=O)=O)cc1)C1CCC1)c1ccc(CCCNS(C)(=O)=O)cc1 (cis-trans isomerization)
CC/C(=C(/c1ccc(C(=O)[N-]S(C)(=O)=O)cc1)C1CCC1)c1ccc(CCCNS(C)(=O)=O)cc1 (3D coordinates assigned)
CC/C(=C(/c1ccc(C(=O)[N-]S(C)(=O)=O)cc1)C1CCC1)c1ccc(CCCNS(C)(=O)=O)cc1 (nonaromatic ring conformer: 135.96980415788985 kcal/mol)

>  <smiles>  (86) 
CCC(=C(c1ccc(C(=O)NS(C)(=O)=O)cc1)C1CCC1)c1ccc(CCCNS(C)(=O)=O)cc1

>  <score_type>  (86) 
oracle

>  <origin>  (86) 
adg

>  <m_score__min__energy>  (86) 
-13.550000000000001

>  <m_primary>  (86) 
energy

$$$$
86:0
     RDKit          3D

 42 44  0  0  0  0  0  0  0  0999 V2000
   55.4830   30.3160   44.5100 O   0  0  0  0  0  0  0  0  0  0  0  0
   56.5710   29.7940   44.8710 C   0  0  0  0  0  0  0  0  0  0  0  0
   57.0170   28.5080   44.2520 C   0  0  0  0  0  0  0  0  0  0  0  0
   57.4730   27.5530   45.3240 C   0  0  0  0  0  0  0  0  0  0  0  0
   58.8360   27.4820   45.6580 C   0  0  0  0  0  0  0  0  0  0  0  0
   59.2820   26.5780   46.6250 C   0  0  0  0  0  0  0  0  0  0  0  0
   60.6310   26.5200   46.9530 O   0  0  0  0  0  0  0  0  0  0  0  0
   58.3720   25.7280   47.2600 C   0  0  0  0  0  0  0  0  0  0  0  0
   57.0140   25.7740   46.9290 C   0  0  0  0  0  0  0  0  0  0  0  0
   56.1310   24.9090   47.5740 O   0  0  0  0  0  0  0  0  0  0  0  0
   56.5620   26.6840   45.9570 C   0  0  0  0  0  0  0  0  0  0  0  0
   55.2120   26.7210   45.6220 O   0  0  0  0  0  0  0  0  0  0  0  0
   57.3900   30.4170   45.8670 N   0  0  0  0  0  0  0  0  0  0  0  0
   57.9160   31.7540   45.8270 C   0  0  0  0  0  0  0  0  0  0  0  0
   57.3340   32.7390   45.0070 C   0  0  0  0  0  0  0  0  0  0  0  0
   57.8290   34.0440   45.0080 C   0  0  0  0  0  0  0  0  0  0  0  0
   58.8970   34.3860   45.8360 C   0  0  0  0  0  0  0  0  0  0  0  0
   59.4690   33.4270   46.6730 C   0  0  0  0  0  0  0  0  0  0  0  0
   58.9890   32.1050   46.6770 C   0  0  0  0  0  0  0  0  0  0  0  0
   59.6070   31.0950   47.6140 C   0  0  0  0  0  0  0  0  0  0  0  0
   61.0030   31.5120   47.9990 C   0  0  0  0  0  0  0  0  0  0  0  0
   61.2460   32.1460   49.2300 C   0  0  0  0  0  0  0  0  0  0  0  0
   62.5400   32.5490   49.5710 C   0  0  0  0  0  0  0  0  0  0  0  0
   63.6000   32.3240   48.6880 C   0  0  0  0  0  0  0  0  0  0  0  0
   63.3670   31.6950   47.4630 C   0  0  0  0  0  0  0  0  0  0  0  0
   62.0740   31.2910   47.1180 C   0  0  0  0  0  0  0  0  0  0  0  0
   56.1791   28.0604   43.6974 H   0  0  0  0  0  0  0  0  0  0  0  0
   57.8532   28.7077   43.5658 H   0  0  0  0  0  0  0  0  0  0  0  0
   59.5568   28.1429   45.1545 H   0  0  0  0  0  0  0  0  0  0  0  0
   58.7257   25.0196   48.0236 H   0  0  0  0  0  0  0  0  0  0  0  0
   55.1500   24.8590   47.3270 H   0  0  0  0  0  0  0  0  0  0  0  0
   56.4829   32.4784   44.3607 H   0  0  0  0  0  0  0  0  0  0  0  0
   57.3757   34.8038   44.3544 H   0  0  0  0  0  0  0  0  0  0  0  0
   59.2896   35.4136   45.8296 H   0  0  0  0  0  0  0  0  0  0  0  0
   60.3018   33.7072   47.3348 H   0  0  0  0  0  0  0  0  0  0  0  0
   58.9896   31.0186   48.5212 H   0  0  0  0  0  0  0  0  0  0  0  0
   59.6561   30.1219   47.1035 H   0  0  0  0  0  0  0  0  0  0  0  0
   60.4145   32.3256   49.9274 H   0  0  0  0  0  0  0  0  0  0  0  0
   62.7246   33.0440   50.5358 H   0  0  0  0  0  0  0  0  0  0  0  0
   64.6177   32.6424   48.9580 H   0  0  0  0  0  0  0  0  0  0  0  0
   64.2017   31.5173   46.7690 H   0  0  0  0  0  0  0  0  0  0  0  0
   61.8945   30.7974   46.1515 H   0  0  0  0  0  0  0  0  0  0  0  0
  1  2  2  0
  2  3  1  0
  3  4  1  0
  4  5  2  0
  5  6  1  0
  6  7  1  0
  6  8  2  0
  8  9  1  0
  9 10  1  0
  9 11  2  0
 11 12  1  0
  2 13  1  0
 13 14  1  0
 14 15  2  0
 15 16  1  0
 16 17  2  0
 17 18  1  0
 18 19  2  0
 19 20  1  0
 20 21  1  0
 21 22  2  0
 22 23  1  0
 23 24  2  0
 24 25  1  0
 25 26  2  0
 11  4  1  0
 19 14  1  0
 26 21  1  0
  3 27  1  0
  3 28  1  0
  5 29  1  0
  8 30  1  0
 10 31  1  0
 15 32  1  0
 16 33  1  0
 17 34  1  0
 18 35  1  0
 20 36  1  0
 20 37  1  0
 22 38  1  0
 23 39  1  0
 24 40  1  0
 25 41  1  0
 26 42  1  0
M  CHG  3   7  -1  12  -1  13  -1
M  END
>  <UniqueID>  (87) 
83

>  <SMILES>  (87) 
O=C(Cc1cc([O-])cc(O)c1[O-])[N-]c1ccccc1Cc1ccccc1

>  <Energy>  (87) 
45.475418595727845

>  <Genealogy>  (87) 
O=C(Cc1cc([O-])cc(O)c1[O-])[N-]c1ccccc1Cc1ccccc1 (protonated)
O=C(Cc1cc([O-])cc(O)c1[O-])[N-]c1ccccc1Cc1ccccc1 (3D coordinates assigned)
O=C(Cc1cc([O-])cc(O)c1[O-])[N-]c1ccccc1Cc1ccccc1 (optimized conformer: 45.475418595727845 kcal/mol)

>  <smiles>  (87) 
O=C(Cc1cc(O)cc(O)c1O)Nc1ccccc1Cc1ccccc1

>  <score_type>  (87) 
oracle

>  <origin>  (87) 
adg

>  <m_score__min__energy>  (87) 
-15.18

>  <m_primary>  (87) 
energy

$$$$
87:0
     RDKit          3D

 63 66  0  0  0  0  0  0  0  0999 V2000
   64.3640   32.7880   49.3360 C   0  0  0  0  0  0  0  0  0  0  0  0
   63.5740   33.8450   48.8000 O   0  0  0  0  0  0  0  0  0  0  0  0
   62.2530   33.6970   48.3540 C   0  0  0  0  0  0  0  0  0  0  0  0
   62.0140   32.8900   47.2340 C   0  0  0  0  0  0  0  0  0  0  0  0
   60.7170   32.7230   46.7440 C   0  0  0  0  0  0  0  0  0  0  0  0
   59.6380   33.3580   47.3710 C   0  0  0  0  0  0  0  0  0  0  0  0
   58.0190   33.2220   46.6940 S   0  0  0  0  0  0  0  0  0  0  0  0
   56.9900   33.4450   47.7670 O   0  0  0  0  0  0  0  0  0  0  0  0
   57.8310   34.2670   45.6290 O   0  0  0  0  0  0  0  0  0  0  0  0
   57.8000   31.6540   45.9970 N   0  0  0  0  0  0  0  0  0  0  0  0
   57.5360   31.5020   44.6020 C   0  0  0  0  0  0  0  0  0  0  0  0
   58.0760   32.4250   43.6970 C   0  0  0  0  0  0  0  0  0  0  0  0
   57.8150   32.3030   42.3310 C   0  0  0  0  0  0  0  0  0  0  0  0
   57.0120   31.2610   41.8630 C   0  0  0  0  0  0  0  0  0  0  0  0
   56.4760   30.3330   42.7590 C   0  0  0  0  0  0  0  0  0  0  0  0
   56.7490   30.4330   44.1380 C   0  0  0  0  0  0  0  0  0  0  0  0
   56.2580   29.5030   45.0700 O   0  0  0  0  0  0  0  0  0  0  0  0
   56.9550   28.3480   45.5380 C   0  0  0  0  0  0  0  0  0  0  0  0
   58.2970   28.7360   46.0970 C   0  0  0  0  0  0  0  0  0  0  0  0
   59.3820   28.9320   45.2310 C   0  0  0  0  0  0  0  0  0  0  0  0
   60.6340   29.2880   45.7390 C   0  0  0  0  0  0  0  0  0  0  0  0
   60.8150   29.4410   47.1150 C   0  0  0  0  0  0  0  0  0  0  0  0
   59.7430   29.2330   47.9990 C   0  0  0  0  0  0  0  0  0  0  0  0
   59.9460   29.3840   49.4560 C   0  0  0  0  0  0  0  0  0  0  0  0
   60.3600   28.3930   50.1190 O   0  0  0  0  0  0  0  0  0  0  0  0
   59.6520   30.6230   50.1360 N   0  0  0  0  0  0  0  0  0  0  0  0
   58.5350   31.4700   49.6960 C   0  0  0  0  0  0  0  0  0  0  0  0
   57.9310   32.2390   50.8840 C   0  0  0  0  0  0  0  0  0  0  0  0
   57.9110   31.4230   52.1170 N   0  0  0  0  0  0  0  0  0  0  0  0
   56.9630   30.3000   52.0160 C   0  0  0  0  0  0  0  0  0  0  0  0
   59.2630   30.9710   52.5450 C   0  0  0  0  0  0  0  0  0  0  0  0
   60.3010   30.9470   51.4080 C   0  0  0  0  0  0  0  0  0  0  0  0
   58.4790   28.9060   47.4800 C   0  0  0  0  0  0  0  0  0  0  0  0
   59.8690   34.1630   48.4950 C   0  0  0  0  0  0  0  0  0  0  0  0
   61.1660   34.3310   48.9880 C   0  0  0  0  0  0  0  0  0  0  0  0
   64.3337   32.8285   50.4348 H   0  0  0  0  0  0  0  0  0  0  0  0
   63.9648   31.8219   48.9936 H   0  0  0  0  0  0  0  0  0  0  0  0
   65.4036   32.8973   48.9936 H   0  0  0  0  0  0  0  0  0  0  0  0
   62.8546   32.3839   46.7367 H   0  0  0  0  0  0  0  0  0  0  0  0
   60.5423   32.0898   45.8616 H   0  0  0  0  0  0  0  0  0  0  0  0
   58.7072   33.2479   44.0636 H   0  0  0  0  0  0  0  0  0  0  0  0
   58.2423   33.0283   41.6229 H   0  0  0  0  0  0  0  0  0  0  0  0
   56.8012   31.1707   40.7872 H   0  0  0  0  0  0  0  0  0  0  0  0
   55.8369   29.5192   42.3859 H   0  0  0  0  0  0  0  0  0  0  0  0
   56.3614   27.8608   46.3256 H   0  0  0  0  0  0  0  0  0  0  0  0
   57.1056   27.6565   44.6959 H   0  0  0  0  0  0  0  0  0  0  0  0
   59.2470   28.8049   44.1467 H   0  0  0  0  0  0  0  0  0  0  0  0
   61.4791   29.4481   45.0533 H   0  0  0  0  0  0  0  0  0  0  0  0
   61.8018   29.7258   47.5089 H   0  0  0  0  0  0  0  0  0  0  0  0
   58.9008   32.1899   48.9490 H   0  0  0  0  0  0  0  0  0  0  0  0
   57.7562   30.8275   49.2595 H   0  0  0  0  0  0  0  0  0  0  0  0
   58.5319   33.1423   51.0652 H   0  0  0  0  0  0  0  0  0  0  0  0
   56.8925   32.4976   50.6298 H   0  0  0  0  0  0  0  0  0  0  0  0
   56.6812   29.9661   53.0255 H   0  0  0  0  0  0  0  0  0  0  0  0
   56.0637   30.6270   51.4735 H   0  0  0  0  0  0  0  0  0  0  0  0
   57.4363   29.4683   51.4735 H   0  0  0  0  0  0  0  0  0  0  0  0
   59.6240   31.6525   53.3294 H   0  0  0  0  0  0  0  0  0  0  0  0
   59.1559   29.9360   52.9018 H   0  0  0  0  0  0  0  0  0  0  0  0
   60.7781   31.9352   51.3309 H   0  0  0  0  0  0  0  0  0  0  0  0
   61.0579   30.1802   51.6298 H   0  0  0  0  0  0  0  0  0  0  0  0
   57.6248   28.7820   48.1619 H   0  0  0  0  0  0  0  0  0  0  0  0
   59.0254   34.6649   48.9915 H   0  0  0  0  0  0  0  0  0  0  0  0
   61.3387   34.9601   49.8737 H   0  0  0  0  0  0  0  0  0  0  0  0
  1  2  1  0
  2  3  1  0
  3  4  2  0
  4  5  1  0
  5  6  2  0
  6  7  1  0
  7  8  2  0
  7  9  2  0
  7 10  1  0
 10 11  1  0
 11 12  2  0
 12 13  1  0
 13 14  2  0
 14 15  1  0
 15 16  2  0
 16 17  1  0
 17 18  1  0
 18 19  1  0
 19 20  2  0
 20 21  1  0
 21 22  2  0
 22 23  1  0
 23 24  1  0
 24 25  2  0
 24 26  1  0
 26 27  1  0
 27 28  1  0
 28 29  1  0
 29 30  1  0
 29 31  1  0
 31 32  1  0
 23 33  2  0
  6 34  1  0
 34 35  2  0
 35  3  1  0
 16 11  1  0
 33 19  1  0
 32 26  1  0
  1 36  1  0
  1 37  1  0
  1 38  1  0
  4 39  1  0
  5 40  1  0
 12 41  1  0
 13 42  1  0
 14 43  1  0
 15 44  1  0
 18 45  1  0
 18 46  1  0
 20 47  1  0
 21 48  1  0
 22 49  1  0
 27 50  1  0
 27 51  1  0
 28 52  1  0
 28 53  1  0
 30 54  1  0
 30 55  1  0
 30 56  1  0
 31 57  1  0
 31 58  1  0
 32 59  1  0
 32 60  1  0
 33 61  1  0
 34 62  1  0
 35 63  1  0
M  CHG  1  10  -1
M  END
>  <UniqueID>  (88) 
84

>  <SMILES>  (88) 
COc1ccc(S(=O)(=O)[N-]c2ccccc2OCc2cccc(C(=O)N3CCN(C)CC3)c2)cc1

>  <Energy>  (88) 
84.47183112391322

>  <Genealogy>  (88) 
COc1ccc(S(=O)(=O)[N-]c2ccccc2OCc2cccc(C(=O)N3CCN(C)CC3)c2)cc1 (protonated)
COc1ccc(S(=O)(=O)[N-]c2ccccc2OCc2cccc(C(=O)N3CCN(C)CC3)c2)cc1 (3D coordinates assigned)
COc1ccc(S(=O)(=O)[N-]c2ccccc2OCc2cccc(C(=O)N3CCN(C)CC3)c2)cc1 (nonaromatic ring conformer: 84.47183112391322 kcal/mol)

>  <smiles>  (88) 
COc1ccc(S(=O)(=O)Nc2ccccc2OCc2cccc(C(=O)N3CCN(C)CC3)c2)cc1

>  <score_type>  (88) 
oracle

>  <origin>  (88) 
adg

>  <m_score__min__energy>  (88) 
-11.1

>  <m_primary>  (88) 
energy

$$$$
88:0
     RDKit          3D

 40 42  0  0  0  0  0  0  0  0999 V2000
   57.6150   32.8980   44.9910 O   0  0  0  0  0  0  0  0  0  0  0  0
   58.0720   32.0680   45.8210 C   0  0  0  0  0  0  0  0  0  0  0  0
   58.2120   32.4670   47.1900 N   0  0  0  0  0  0  0  0  0  0  0  0
   59.0510   33.5650   47.6650 C   0  0  0  0  0  0  0  0  0  0  0  0
   60.5090   33.2440   47.4630 C   0  0  0  0  0  0  0  0  0  0  0  0
   61.3290   34.1200   46.7310 C   0  0  0  0  0  0  0  0  0  0  0  0
   62.6890   33.8410   46.5680 C   0  0  0  0  0  0  0  0  0  0  0  0
   63.2400   32.6860   47.1300 C   0  0  0  0  0  0  0  0  0  0  0  0
   62.4300   31.8070   47.8540 C   0  0  0  0  0  0  0  0  0  0  0  0
   61.0690   32.0790   48.0150 C   0  0  0  0  0  0  0  0  0  0  0  0
   58.4720   30.7270   45.3620 C   0  0  0  0  0  0  0  0  0  0  0  0
   59.7220   30.3280   45.3030 O   0  0  0  0  0  0  0  0  0  0  0  0
   59.7960   29.1130   44.8490 N   0  0  0  0  0  0  0  0  0  0  0  0
   58.5490   28.6770   44.5980 C   0  0  0  0  0  0  0  0  0  0  0  0
   58.2470   27.3200   44.0320 C   0  0  0  0  0  0  0  0  0  0  0  0
   58.6450   26.0030   45.2350 S   0  0  0  0  0  0  0  0  0  0  0  0
   57.0170   25.2460   45.1920 C   0  0  0  0  0  0  0  0  0  0  0  0
   56.7520   24.1840   44.3210 C   0  0  0  0  0  0  0  0  0  0  0  0
   55.4790   23.6110   44.2930 C   0  0  0  0  0  0  0  0  0  0  0  0
   54.4880   24.1050   45.1440 C   0  0  0  0  0  0  0  0  0  0  0  0
   54.7670   25.1330   45.9900 N   0  0  0  0  0  0  0  0  0  0  0  0
   56.0000   25.7060   46.0350 C   0  0  0  0  0  0  0  0  0  0  0  0
   57.6530   29.6930   44.9110 C   0  0  0  0  0  0  0  0  0  0  0  0
   56.1760   29.6480   44.8650 C   0  0  0  0  0  0  0  0  0  0  0  0
   55.5580   28.6000   45.1860 O   0  0  0  0  0  0  0  0  0  0  0  0
   55.4460   30.7530   44.4480 O   0  0  0  0  0  0  0  0  0  0  0  0
   58.8012   34.4788   47.1059 H   0  0  0  0  0  0  0  0  0  0  0  0
   58.8661   33.7135   48.7391 H   0  0  0  0  0  0  0  0  0  0  0  0
   60.8988   35.0287   46.2846 H   0  0  0  0  0  0  0  0  0  0  0  0
   63.3266   34.5316   45.9965 H   0  0  0  0  0  0  0  0  0  0  0  0
   64.3108   32.4690   47.0025 H   0  0  0  0  0  0  0  0  0  0  0  0
   62.8647   30.8993   48.2980 H   0  0  0  0  0  0  0  0  0  0  0  0
   60.4331   31.3784   48.5761 H   0  0  0  0  0  0  0  0  0  0  0  0
   60.6860   28.5850   44.7060 H   0  0  0  0  0  0  0  0  0  0  0  0
   57.1776   27.2655   43.7801 H   0  0  0  0  0  0  0  0  0  0  0  0
   58.8635   27.1708   43.1333 H   0  0  0  0  0  0  0  0  0  0  0  0
   57.5439   23.8015   43.6603 H   0  0  0  0  0  0  0  0  0  0  0  0
   55.2590   22.7791   43.6077 H   0  0  0  0  0  0  0  0  0  0  0  0
   53.4810   23.6625   45.1302 H   0  0  0  0  0  0  0  0  0  0  0  0
   56.1973   26.5315   46.7347 H   0  0  0  0  0  0  0  0  0  0  0  0
  1  2  2  0
  2  3  1  0
  3  4  1  0
  4  5  1  0
  5  6  2  0
  6  7  1  0
  7  8  2  0
  8  9  1  0
  9 10  2  0
  2 11  1  0
 11 12  1  0
 12 13  1  0
 13 14  2  0
 14 15  1  0
 15 16  1  0
 16 17  1  0
 17 18  2  0
 18 19  1  0
 19 20  2  0
 20 21  1  0
 21 22  2  0
 14 23  1  0
 23 24  1  0
 24 25  2  0
 24 26  1  0
 10  5  1  0
 23 11  2  0
 22 17  1  0
  4 27  1  0
  4 28  1  0
  6 29  1  0
  7 30  1  0
  8 31  1  0
  9 32  1  0
 10 33  1  0
 13 34  1  0
 15 35  1  0
 15 36  1  0
 18 37  1  0
 19 38  1  0
 20 39  1  0
 22 40  1  0
M  CHG  3   3  -1  13   1  26  -1
M  END
>  <UniqueID>  (89) 
85

>  <SMILES>  (89) 
O=C([N-]Cc1ccccc1)c1o[nH+]c(CSc2cccnc2)c1C(=O)[O-]

>  <Energy>  (89) 
71.53987081440822

>  <Genealogy>  (89) 
O=C([N-]Cc1ccccc1)c1o[nH+]c(CSc2cccnc2)c1C(=O)[O-] (protonated)
O=C([N-]Cc1ccccc1)c1o[nH+]c(CSc2cccnc2)c1C(=O)[O-] (3D coordinates assigned)
O=C([N-]Cc1ccccc1)c1o[nH+]c(CSc2cccnc2)c1C(=O)[O-] (optimized conformer: 71.53987081440822 kcal/mol)

>  <smiles>  (89) 
O=C(NCc1ccccc1)c1onc(CSc2cccnc2)c1C(=O)O

>  <score_type>  (89) 
oracle

>  <origin>  (89) 
adg

>  <m_score__min__energy>  (89) 
-10.529999999999999

>  <m_primary>  (89) 
energy

$$$$
89:0
     RDKit          3D

 54 56  0  0  1  0  0  0  0  0999 V2000
   55.5730   29.7200   43.5690 C   0  0  0  0  0  0  0  0  0  0  0  0
   56.5790   29.9960   42.7870 C   0  0  0  0  0  0  0  0  0  0  0  0
   57.0300   31.3060   42.3130 C   0  0  0  0  0  0  0  0  0  0  0  0
   58.0160   31.9560   43.1420 N   0  0  0  0  0  0  0  0  0  0  0  0
   57.6320   32.3090   44.4720 C   0  0  0  0  0  0  0  0  0  0  0  0
   56.4700   32.0630   44.9230 O   0  0  0  0  0  0  0  0  0  0  0  0
   58.5540   32.9760   45.3880 C   0  0  0  0  0  0  0  0  0  0  0  0
   58.7820   34.3330   45.1350 C   0  0  0  0  0  0  0  0  0  0  0  0
   59.6330   35.0570   45.9400 C   0  0  0  0  0  0  0  0  0  0  0  0
   60.2760   34.4390   47.0150 C   0  0  0  0  0  0  0  0  0  0  0  0
   60.0160   33.0970   47.2200 C   0  0  0  0  0  0  0  0  0  0  0  0
   59.1760   32.3450   46.4410 C   0  0  0  0  0  0  0  0  0  0  0  0
   58.9240   30.9080   46.7060 C   0  0  0  0  0  0  0  0  0  0  0  0
   58.7710   30.6540   47.9600 O   0  0  0  0  0  0  0  0  0  0  0  0
   58.8570   29.9370   45.7080 N   0  0  0  0  0  0  0  0  0  0  0  0
   58.6280   28.5530   45.8400 C   0  0  0  0  0  0  0  0  0  0  0  0
   59.6860   27.6600   45.8020 C   0  0  0  0  0  0  0  0  0  0  0  0
   59.5210   26.2920   45.8880 C   0  0  0  0  0  0  0  0  0  0  0  0
   58.2400   25.8140   46.0170 C   0  0  0  0  0  0  0  0  0  0  0  0
   58.0050   24.0570   46.0840 S   0  0  0  0  0  0  0  0  0  0  0  0
   59.2470   23.4080   45.5850 O   0  0  0  0  0  0  0  0  0  0  0  0
   57.7650   23.7330   47.5160 O   0  0  0  0  0  0  0  0  0  0  0  0
   56.7080   23.6600   45.0380 N   0  0  0  0  0  0  0  0  0  0  0  0
   55.4970   23.4380   45.3810 C   0  0  0  0  0  0  0  0  0  0  0  0
   54.4840   23.6380   44.4760 C   0  0  0  0  0  0  0  0  0  0  0  0
   53.1990   23.3760   44.8880 C   0  0  0  0  0  0  0  0  0  0  0  0
   52.1620   23.5720   43.9890 O   0  0  0  0  0  0  0  0  0  0  0  0
   51.0540   24.3890   44.3530 C   0  0  0  0  0  0  0  0  0  0  0  0
   52.9540   22.9320   46.1570 N   0  0  0  0  0  0  0  0  0  0  0  0
   53.9920   22.7430   47.0340 C   0  0  0  0  0  0  0  0  0  0  0  0
   55.2730   23.0030   46.6310 N   0  0  0  0  0  0  0  0  0  0  0  0
   57.1900   26.6750   46.0580 C   0  0  0  0  0  0  0  0  0  0  0  0
   57.3380   28.0500   45.9730 C   0  0  0  0  0  0  0  0  0  0  0  0
   55.3569   28.6759   43.8394 H   0  0  0  0  0  0  0  0  0  0  0  0
   54.9403   30.5312   43.9584 H   0  0  0  0  0  0  0  0  0  0  0  0
   57.1649   29.1329   42.4380 H   0  0  0  0  0  0  0  0  0  0  0  0
   57.4628   31.1740   41.3104 H   0  0  0  0  0  0  0  0  0  0  0  0
   56.1432   31.9567   42.3283 H   0  0  0  0  0  0  0  0  0  0  0  0
   58.9810   32.1630   42.7900 H   0  0  0  0  0  0  0  0  0  0  0  0
   58.2790   34.8240   44.2889 H   0  0  0  0  0  0  0  0  0  0  0  0
   59.8067   36.1239   45.7361 H   0  0  0  0  0  0  0  0  0  0  0  0
   60.9605   34.9969   47.6709 H   0  0  0  0  0  0  0  0  0  0  0  0
   60.5163   32.5999   48.0641 H   0  0  0  0  0  0  0  0  0  0  0  0
   58.9970   30.2710   44.7050 H   0  0  0  0  0  0  0  0  0  0  0  0
   60.7056   28.0595   45.6984 H   0  0  0  0  0  0  0  0  0  0  0  0
   60.3836   25.6102   45.8544 H   0  0  0  0  0  0  0  0  0  0  0  0
   54.6934   23.9954   43.4570 H   0  0  0  0  0  0  0  0  0  0  0  0
   50.9821   24.4420   45.4494 H   0  0  0  0  0  0  0  0  0  0  0  0
   51.1950   25.4009   43.9454 H   0  0  0  0  0  0  0  0  0  0  0  0
   50.1290   23.9552   43.9454 H   0  0  0  0  0  0  0  0  0  0  0  0
   53.7952   22.3845   48.0552 H   0  0  0  0  0  0  0  0  0  0  0  0
   56.0900   22.8690   47.2720 H   0  0  0  0  0  0  0  0  0  0  0  0
   56.1761   26.2617   46.1635 H   0  0  0  0  0  0  0  0  0  0  0  0
   56.4664   28.7200   46.0094 H   0  0  0  0  0  0  0  0  0  0  0  0
  1  2  2  0
  2  3  1  0
  3  4  1  0
  4  5  1  0
  5  6  2  0
  5  7  1  0
  7  8  2  0
  8  9  1  0
  9 10  2  0
 10 11  1  0
 11 12  2  0
 12 13  1  0
 13 14  2  0
 13 15  1  0
 15 16  1  0
 16 17  2  0
 17 18  1  0
 18 19  2  0
 19 20  1  0
 20 21  2  0
 20 22  2  0
 20 23  1  0
 23 24  2  0
 24 25  1  0
 25 26  2  0
 26 27  1  0
 27 28  1  0
 26 29  1  0
 29 30  2  0
 30 31  1  0
 19 32  1  0
 32 33  2  0
 12  7  1  0
 33 16  1  0
 31 24  1  0
  1 34  1  0
  1 35  1  0
  2 36  1  0
  3 37  1  0
  3 38  1  0
  4 39  1  0
  8 40  1  0
  9 41  1  0
 10 42  1  0
 11 43  1  0
 15 44  1  0
 17 45  1  0
 18 46  1  0
 25 47  1  0
 28 48  1  0
 28 49  1  0
 28 50  1  0
 30 51  1  0
 31 52  1  0
 32 53  1  0
 33 54  1  0
M  END
>  <smiles>  (90) 
C=CCNC(=O)c1ccccc1C(=O)Nc1ccc(S(=O)(=O)N=c2cc(OC)nc[nH]2)cc1

>  <score_type>  (90) 
oracle

>  <origin>  (90) 
adg

>  <m_score__min__energy>  (90) 
-9.0999999999999996

>  <m_primary>  (90) 
energy

$$$$
90:0
     RDKit          3D

 51 56  0  0  0  0  0  0  0  0999 V2000
   55.5160   29.0960   44.5850 N   0  0  0  0  0  0  0  0  0  0  0  0
   56.5870   28.5280   45.3460 C   0  0  0  0  0  0  0  0  0  0  0  0
   57.8140   29.2030   45.4330 C   0  0  0  0  0  0  0  0  0  0  0  0
   58.8840   28.6600   46.1740 C   0  0  0  0  0  0  0  0  0  0  0  0
   60.2270   29.3580   46.3110 C   0  0  0  0  0  0  0  0  0  0  0  0
   60.1990   30.6870   47.0600 C   0  0  0  0  0  0  0  0  0  0  0  0
   60.8750   30.8660   48.3150 C   0  0  0  0  0  0  0  0  0  0  0  0
   61.3090   32.1320   48.6400 N   0  0  0  0  0  0  0  0  0  0  0  0
   60.8370   33.2360   47.9950 C   0  0  0  0  0  0  0  0  0  0  0  0
   59.9720   33.1220   46.9090 C   0  0  0  0  0  0  0  0  0  0  0  0
   59.4620   34.2760   46.2750 C   0  0  0  0  0  0  0  0  0  0  0  0
   59.7380   35.5460   46.7760 O   0  0  0  0  0  0  0  0  0  0  0  0
   58.6710   34.1570   45.1300 C   0  0  0  0  0  0  0  0  0  0  0  0
   58.1630   35.3010   44.5160 O   0  0  0  0  0  0  0  0  0  0  0  0
   58.3990   32.8930   44.6030 C   0  0  0  0  0  0  0  0  0  0  0  0
   58.9030   31.7490   45.2200 C   0  0  0  0  0  0  0  0  0  0  0  0
   59.6850   31.8380   46.3960 C   0  0  0  0  0  0  0  0  0  0  0  0
   62.4480   32.3120   49.5550 C   0  0  0  0  0  0  0  0  0  0  0  0
   62.2970   31.4670   50.8050 C   0  0  0  0  0  0  0  0  0  0  0  0
   61.9550   30.0500   50.4610 C   0  0  0  0  0  0  0  0  0  0  0  0
   62.2640   29.0490   51.4080 C   0  0  0  0  0  0  0  0  0  0  0  0
   61.7170   27.7900   51.2300 C   0  0  0  0  0  0  0  0  0  0  0  0
   60.8780   27.5180   50.2090 C   0  0  0  0  0  0  0  0  0  0  0  0
   60.5400   28.4720   49.2560 C   0  0  0  0  0  0  0  0  0  0  0  0
   61.1510   29.7560   49.3130 C   0  0  0  0  0  0  0  0  0  0  0  0
   60.4320   26.2150   50.3120 O   0  0  0  0  0  0  0  0  0  0  0  0
   61.0430   25.6280   51.4680 C   0  0  0  0  0  0  0  0  0  0  0  0
   61.8530   26.6700   52.0290 O   0  0  0  0  0  0  0  0  0  0  0  0
   58.6960   27.4390   46.8400 C   0  0  0  0  0  0  0  0  0  0  0  0
   57.4760   26.7640   46.7550 C   0  0  0  0  0  0  0  0  0  0  0  0
   56.4230   27.3010   46.0110 C   0  0  0  0  0  0  0  0  0  0  0  0
   55.2160   26.6130   45.9390 O   0  0  0  0  0  0  0  0  0  0  0  0
   55.6220   30.0150   44.0990 H   0  0  0  0  0  0  0  0  0  0  0  0
   54.6010   28.5990   44.4990 H   0  0  0  0  0  0  0  0  0  0  0  0
   57.9427   30.1662   44.9176 H   0  0  0  0  0  0  0  0  0  0  0  0
   60.9087   28.6807   46.8464 H   0  0  0  0  0  0  0  0  0  0  0  0
   60.5528   29.5933   45.2870 H   0  0  0  0  0  0  0  0  0  0  0  0
   61.1446   34.2348   48.3381 H   0  0  0  0  0  0  0  0  0  0  0  0
   58.5770   36.2130   44.6680 H   0  0  0  0  0  0  0  0  0  0  0  0
   57.7837   32.7993   43.6960 H   0  0  0  0  0  0  0  0  0  0  0  0
   58.6894   30.7612   44.7857 H   0  0  0  0  0  0  0  0  0  0  0  0
   63.3728   32.0200   49.0359 H   0  0  0  0  0  0  0  0  0  0  0  0
   62.4845   33.3694   49.8561 H   0  0  0  0  0  0  0  0  0  0  0  0
   63.2436   31.4821   51.3652 H   0  0  0  0  0  0  0  0  0  0  0  0
   61.4810   31.8853   51.4125 H   0  0  0  0  0  0  0  0  0  0  0  0
   62.9212   29.2639   52.2635 H   0  0  0  0  0  0  0  0  0  0  0  0
   59.8095   28.2374   48.4678 H   0  0  0  0  0  0  0  0  0  0  0  0
   60.2769   25.3039   52.1877 H   0  0  0  0  0  0  0  0  0  0  0  0
   61.6345   24.7358   51.2147 H   0  0  0  0  0  0  0  0  0  0  0  0
   59.5164   27.0099   47.4340 H   0  0  0  0  0  0  0  0  0  0  0  0
   57.3439   25.8046   47.2767 H   0  0  0  0  0  0  0  0  0  0  0  0
  1  2  1  0
  2  3  2  0
  3  4  1  0
  4  5  1  0
  5  6  1  0
  6  7  2  0
  7  8  1  0
  8  9  2  0
  9 10  1  0
 10 11  2  0
 11 12  1  0
 11 13  1  0
 13 14  1  0
 13 15  2  0
 15 16  1  0
 16 17  2  0
  8 18  1  0
 18 19  1  0
 19 20  1  0
 20 21  2  0
 21 22  1  0
 22 23  2  0
 23 24  1  0
 24 25  2  0
 23 26  1  0
 26 27  1  0
 27 28  1  0
  4 29  2  0
 29 30  1  0
 30 31  2  0
 31 32  1  0
 31  2  1  0
 17  6  1  0
 25 20  1  0
 25  7  1  0
 17 10  1  0
 28 22  1  0
  1 33  1  0
  1 34  1  0
  3 35  1  0
  5 36  1  0
  5 37  1  0
  9 38  1  0
 14 39  1  0
 15 40  1  0
 16 41  1  0
 18 42  1  0
 18 43  1  0
 19 44  1  0
 19 45  1  0
 21 46  1  0
 24 47  1  0
 27 48  1  0
 27 49  1  0
 29 50  1  0
 30 51  1  0
M  CHG  3   8   1  12  -1  32  -1
M  END
>  <UniqueID>  (91) 
86

>  <SMILES>  (91) 
Nc1cc(Cc2c3[n+](cc4c([O-])c(O)ccc24)CCc2cc4c(cc2-3)OCO4)ccc1[O-]

>  <Energy>  (91) 
119.678755882574

>  <Genealogy>  (91) 
Nc1cc(Cc2c3[n+](cc4c([O-])c(O)ccc24)CCc2cc4c(cc2-3)OCO4)ccc1[O-] (protonated)
Nc1cc(Cc2c3[n+](cc4c([O-])c(O)ccc24)CCc2cc4c(cc2-3)OCO4)ccc1[O-] (3D coordinates assigned)
Nc1cc(Cc2c3[n+](cc4c([O-])c(O)ccc24)CCc2cc4c(cc2-3)OCO4)ccc1[O-] (nonaromatic ring conformer: 119.678755882574 kcal/mol)

>  <smiles>  (91) 
Nc1cc(Cc2c3[n+](cc4c(O)c(O)ccc24)CCc2cc4c(cc2-3)OCO4)ccc1O

>  <score_type>  (91) 
oracle

>  <origin>  (91) 
adg

>  <m_score__min__energy>  (91) 
-10.720000000000001

>  <m_primary>  (91) 
energy

$$$$
91:0
     RDKit          3D

 40 41  0  0  0  0  0  0  0  0999 V2000
   55.2840   23.3500   43.7480 C   0  0  0  0  0  0  0  0  0  0  0  0
   54.4670   23.7690   44.8760 N   0  0  0  0  0  0  0  0  0  0  0  0
   54.7730   24.9200   45.6670 C   0  0  0  0  0  0  0  0  0  0  0  0
   54.0260   25.9350   45.6210 O   0  0  0  0  0  0  0  0  0  0  0  0
   55.9370   24.9160   46.4450 O   0  0  0  0  0  0  0  0  0  0  0  0
   57.0210   25.7900   46.2860 C   0  0  0  0  0  0  0  0  0  0  0  0
   58.2760   25.3890   46.7590 C   0  0  0  0  0  0  0  0  0  0  0  0
   59.3790   26.2380   46.6480 C   0  0  0  0  0  0  0  0  0  0  0  0
   59.2370   27.4990   46.0630 C   0  0  0  0  0  0  0  0  0  0  0  0
   57.9920   27.9190   45.5770 C   0  0  0  0  0  0  0  0  0  0  0  0
   57.8630   29.2360   45.0140 N   0  0  0  0  0  0  0  0  0  0  0  0
   56.6140   29.9210   44.8480 C   0  0  0  0  0  0  0  0  0  0  0  0
   55.5250   29.2960   44.9550 O   0  0  0  0  0  0  0  0  0  0  0  0
   56.6220   31.3010   44.4640 N   0  0  0  0  0  0  0  0  0  0  0  0
   57.4370   32.3380   45.0300 C   0  0  0  0  0  0  0  0  0  0  0  0
   57.8180   33.4730   44.2920 C   0  0  0  0  0  0  0  0  0  0  0  0
   58.5760   34.4800   44.8930 C   0  0  0  0  0  0  0  0  0  0  0  0
   58.9590   34.3680   46.2320 C   0  0  0  0  0  0  0  0  0  0  0  0
   58.5870   33.2410   46.9800 C   0  0  0  0  0  0  0  0  0  0  0  0
   58.9760   33.1440   48.4010 C   0  0  0  0  0  0  0  0  0  0  0  0
   58.5060   32.2090   49.1000 O   0  0  0  0  0  0  0  0  0  0  0  0
   59.8480   34.0990   49.0210 N   0  0  0  0  0  0  0  0  0  0  0  0
   61.2860   34.1710   48.8000 C   0  0  0  0  0  0  0  0  0  0  0  0
   57.8040   32.2430   46.3800 C   0  0  0  0  0  0  0  0  0  0  0  0
   56.8780   27.0680   45.7130 C   0  0  0  0  0  0  0  0  0  0  0  0
   56.2056   22.8773   44.1183 H   0  0  0  0  0  0  0  0  0  0  0  0
   54.7223   22.6287   43.1363 H   0  0  0  0  0  0  0  0  0  0  0  0
   55.5420   24.2271   43.1363 H   0  0  0  0  0  0  0  0  0  0  0  0
   58.3941   24.3979   47.2214 H   0  0  0  0  0  0  0  0  0  0  0  0
   60.3614   25.9136   47.0217 H   0  0  0  0  0  0  0  0  0  0  0  0
   60.1081   28.1660   45.9836 H   0  0  0  0  0  0  0  0  0  0  0  0
   58.7190   29.6970   44.6310 H   0  0  0  0  0  0  0  0  0  0  0  0
   57.5179   33.5677   43.2380 H   0  0  0  0  0  0  0  0  0  0  0  0
   58.8726   35.3645   44.3102 H   0  0  0  0  0  0  0  0  0  0  0  0
   59.5538   35.1657   46.7009 H   0  0  0  0  0  0  0  0  0  0  0  0
   61.8051   34.1970   49.7695 H   0  0  0  0  0  0  0  0  0  0  0  0
   61.6143   33.2882   48.2318 H   0  0  0  0  0  0  0  0  0  0  0  0
   61.5245   35.0822   48.2318 H   0  0  0  0  0  0  0  0  0  0  0  0
   57.4750   31.3779   46.9744 H   0  0  0  0  0  0  0  0  0  0  0  0
   55.8888   27.4044   45.3689 H   0  0  0  0  0  0  0  0  0  0  0  0
  1  2  1  0
  2  3  1  0
  3  4  2  0
  3  5  1  0
  5  6  1  0
  6  7  2  0
  7  8  1  0
  8  9  2  0
  9 10  1  0
 10 11  1  0
 11 12  1  0
 12 13  2  0
 12 14  1  0
 14 15  1  0
 15 16  2  0
 16 17  1  0
 17 18  2  0
 18 19  1  0
 19 20  1  0
 20 21  2  0
 20 22  1  0
 22 23  1  0
 19 24  2  0
 10 25  2  0
 25  6  1  0
 24 15  1  0
  1 26  1  0
  1 27  1  0
  1 28  1  0
  7 29  1  0
  8 30  1  0
  9 31  1  0
 11 32  1  0
 16 33  1  0
 17 34  1  0
 18 35  1  0
 23 36  1  0
 23 37  1  0
 23 38  1  0
 24 39  1  0
 25 40  1  0
M  CHG  3   2  -1  14  -1  22  -1
M  END
>  <UniqueID>  (92) 
87

>  <SMILES>  (92) 
C[N-]C(=O)Oc1cccc(NC(=O)[N-]c2cccc(C(=O)[N-]C)c2)c1

>  <Energy>  (92) 
51.89876746073202

>  <Genealogy>  (92) 
C[N-]C(=O)Oc1cccc(NC(=O)[N-]c2cccc(C(=O)[N-]C)c2)c1 (protonated)
C[N-]C(=O)Oc1cccc(NC(=O)[N-]c2cccc(C(=O)[N-]C)c2)c1 (3D coordinates assigned)
C[N-]C(=O)Oc1cccc(NC(=O)[N-]c2cccc(C(=O)[N-]C)c2)c1 (optimized conformer: 51.89876746073202 kcal/mol)

>  <smiles>  (92) 
CNC(=O)Oc1cccc(NC(=O)Nc2cccc(C(=O)NC)c2)c1

>  <score_type>  (92) 
oracle

>  <origin>  (92) 
adg

>  <m_score__min__energy>  (92) 
-12.51

>  <m_primary>  (92) 
energy

$$$$
92:0
     RDKit          3D

 37 38  0  0  0  0  0  0  0  0999 V2000
   54.7420   25.9540   45.2450 H   0  0  0  0  0  0  0  0  0  0  0  0
   55.4590   26.1210   45.9880 N   0  0  0  0  0  0  0  0  0  0  0  0
   56.2580   27.1410   45.9660 C   0  0  0  0  0  0  0  0  0  0  0  0
   55.9080   28.2460   45.2550 N   0  0  0  0  0  0  0  0  0  0  0  0
   56.7070   29.3460   45.1960 C   0  0  0  0  0  0  0  0  0  0  0  0
   56.3110   30.4620   44.4560 C   0  0  0  0  0  0  0  0  0  0  0  0
   55.3497   30.4540   43.9214 H   0  0  0  0  0  0  0  0  0  0  0  0
   57.1350   31.5890   44.3940 C   0  0  0  0  0  0  0  0  0  0  0  0
   56.8129   32.4652   43.8122 H   0  0  0  0  0  0  0  0  0  0  0  0
   58.3660   31.6180   45.0630 C   0  0  0  0  0  0  0  0  0  0  0  0
   59.1420   32.7840   44.9480 O   0  0  0  0  0  0  0  0  0  0  0  0
   58.6670   34.1330   44.9150 C   0  0  0  0  0  0  0  0  0  0  0  0
   58.7323   34.5123   43.8845 H   0  0  0  0  0  0  0  0  0  0  0  0
   57.6243   34.1461   45.2651 H   0  0  0  0  0  0  0  0  0  0  0  0
   59.5040   35.0340   45.8360 C   0  0  0  0  0  0  0  0  0  0  0  0
   60.4124   35.3340   45.2929 H   0  0  0  0  0  0  0  0  0  0  0  0
   58.8675   35.8896   46.1057 H   0  0  0  0  0  0  0  0  0  0  0  0
   59.9310   34.3610   47.1620 C   0  0  0  0  0  0  0  0  0  0  0  0
   60.5011   35.0901   47.7564 H   0  0  0  0  0  0  0  0  0  0  0  0
   59.0132   34.0374   47.6748 H   0  0  0  0  0  0  0  0  0  0  0  0
   60.7720   33.1560   46.9610 N   0  0  0  0  0  0  0  0  0  0  0  0
   60.4570   32.6530   46.0970 H   0  0  0  0  0  0  0  0  0  0  0  0
   62.1980   33.5010   46.8140 C   0  0  0  0  0  0  0  0  0  0  0  0
   62.6531   33.6111   47.8094 H   0  0  0  0  0  0  0  0  0  0  0  0
   62.7136   32.7017   46.2615 H   0  0  0  0  0  0  0  0  0  0  0  0
   62.2912   34.4476   46.2615 H   0  0  0  0  0  0  0  0  0  0  0  0
   60.6040   32.2350   48.0990 C   0  0  0  0  0  0  0  0  0  0  0  0
   60.7059   32.7937   49.0410 H   0  0  0  0  0  0  0  0  0  0  0  0
   59.6068   31.7731   48.0527 H   0  0  0  0  0  0  0  0  0  0  0  0
   61.3739   31.4507   48.0527 H   0  0  0  0  0  0  0  0  0  0  0  0
   58.7600   30.4970   45.8230 C   0  0  0  0  0  0  0  0  0  0  0  0
   59.7151   30.5132   46.3684 H   0  0  0  0  0  0  0  0  0  0  0  0
   57.9390   29.3620   45.8860 C   0  0  0  0  0  0  0  0  0  0  0  0
   58.3150   28.2320   46.6240 C   0  0  0  0  0  0  0  0  0  0  0  0
   59.2703   28.2226   47.1692 H   0  0  0  0  0  0  0  0  0  0  0  0
   57.4740   27.1170   46.6660 C   0  0  0  0  0  0  0  0  0  0  0  0
   57.7631   26.2267   47.2437 H   0  0  0  0  0  0  0  0  0  0  0  0
  1  2  1  0
  2  3  2  0
  3  4  1  0
  4  5  1  0
  5  6  2  0
  6  7  1  0
  6  8  1  0
  8  9  1  0
  8 10  2  0
 10 11  1  0
 11 12  1  0
 12 13  1  0
 12 14  1  0
 12 15  1  0
 15 16  1  0
 15 17  1  0
 15 18  1  0
 18 19  1  0
 18 20  1  0
 18 21  1  0
 21 22  1  0
 21 23  1  0
 23 24  1  0
 23 25  1  0
 23 26  1  0
 21 27  1  0
 27 28  1  0
 27 29  1  0
 27 30  1  0
 10 31  1  0
 31 32  1  0
 31 33  2  0
 33 34  1  0
 34 35  1  0
 34 36  2  0
 36 37  1  0
 36  3  1  0
 33  5  1  0
M  CHG  2   4  -1  21   1
M  END
>  <UniqueID>  (93) 
88

>  <SMILES>  (93) 
[H]/N=c1\ccc2cc(OCCC[NH+](C)C)ccc2[n-]1

>  <Energy>  (93) 
43.422792506057704

>  <Genealogy>  (93) 
C[NH+](C)CCCOc1ccc2[n-]c(=N)ccc2c1 (protonated)
[H]/N=c1\ccc2cc(OCCC[NH+](C)C)ccc2[n-]1 (cis-trans isomerization)
[H]/N=c1\ccc2cc(OCCC[NH+](C)C)ccc2[n-]1 (3D coordinates assigned)
[H]/N=c1\ccc2cc(OCCC[NH+](C)C)ccc2[n-]1 (optimized conformer: 43.422792506057704 kcal/mol)

>  <smiles>  (93) 
CN(C)CCCOc1ccc2[nH]c(=N)ccc2c1

>  <score_type>  (93) 
oracle

>  <origin>  (93) 
adg

>  <m_score__min__energy>  (93) 
-6.9400000000000004

>  <m_primary>  (93) 
energy

$$$$
93:0
     RDKit          3D

 43 46  0  0  0  0  0  0  0  0999 V2000
   59.7825   26.5002   44.5195 H   0  0  0  0  0  0  0  0  0  0  0  0
   59.4320   27.4710   44.9000 C   0  0  0  0  0  0  0  0  0  0  0  0
   60.1380   28.1170   45.9180 C   0  0  0  0  0  0  0  0  0  0  0  0
   61.0311   27.6440   46.3523 H   0  0  0  0  0  0  0  0  0  0  0  0
   59.7090   29.3700   46.3880 C   0  0  0  0  0  0  0  0  0  0  0  0
   60.3910   30.0240   47.4660 N   0  0  0  0  0  0  0  0  0  0  0  0
   59.9900   30.9780   48.2730 C   0  0  0  0  0  0  0  0  0  0  0  0
   59.9820   32.3000   47.7650 C   0  0  0  0  0  0  0  0  0  0  0  0
   60.5430   32.6230   46.5090 C   0  0  0  0  0  0  0  0  0  0  0  0
   61.0373   31.8403   45.9148 H   0  0  0  0  0  0  0  0  0  0  0  0
   60.4750   33.9300   46.0150 C   0  0  0  0  0  0  0  0  0  0  0  0
   60.9226   34.1717   45.0397 H   0  0  0  0  0  0  0  0  0  0  0  0
   59.8410   34.9280   46.7560 C   0  0  0  0  0  0  0  0  0  0  0  0
   59.7899   35.9546   46.3643 H   0  0  0  0  0  0  0  0  0  0  0  0
   59.2720   34.6250   47.9930 C   0  0  0  0  0  0  0  0  0  0  0  0
   58.7672   35.4127   48.5716 H   0  0  0  0  0  0  0  0  0  0  0  0
   59.3410   33.3220   48.5010 C   0  0  0  0  0  0  0  0  0  0  0  0
   58.7750   33.0450   49.7000 N   0  0  0  0  0  0  0  0  0  0  0  0
   58.8440   31.8180   50.2710 C   0  0  0  0  0  0  0  0  0  0  0  0
   58.2930   31.6360   51.5520 C   0  0  0  0  0  0  0  0  0  0  0  0
   57.5940   32.7010   52.1430 O   0  0  0  0  0  0  0  0  0  0  0  0
   58.2040   33.8830   52.6510 C   0  0  0  0  0  0  0  0  0  0  0  0
   58.1914   33.8586   53.7507 H   0  0  0  0  0  0  0  0  0  0  0  0
   59.2441   33.9399   52.2974 H   0  0  0  0  0  0  0  0  0  0  0  0
   57.6478   34.7637   52.2974 H   0  0  0  0  0  0  0  0  0  0  0  0
   58.4690   30.4080   52.2090 C   0  0  0  0  0  0  0  0  0  0  0  0
   58.0084   30.2418   53.1940 H   0  0  0  0  0  0  0  0  0  0  0  0
   59.2250   29.4000   51.6170 C   0  0  0  0  0  0  0  0  0  0  0  0
   59.3977   28.4576   52.1575 H   0  0  0  0  0  0  0  0  0  0  0  0
   59.7650   29.5770   50.3430 C   0  0  0  0  0  0  0  0  0  0  0  0
   60.3953   28.7883   49.9063 H   0  0  0  0  0  0  0  0  0  0  0  0
   59.5130   30.7560   49.6060 C   0  0  0  0  0  0  0  0  0  0  0  0
   58.5350   29.9350   45.8760 C   0  0  0  0  0  0  0  0  0  0  0  0
   58.1706   30.8940   46.2730 H   0  0  0  0  0  0  0  0  0  0  0  0
   57.8210   29.2840   44.8590 C   0  0  0  0  0  0  0  0  0  0  0  0
   56.3720   30.0240   44.1860 S   0  0  0  0  0  0  0  0  0  0  0  0
   55.1480   29.3570   44.7490 O   0  0  0  0  0  0  0  0  0  0  0  0
   56.3320   31.4840   44.5440 O   0  0  0  0  0  0  0  0  0  0  0  0
   56.3780   29.8530   42.4650 N   0  0  0  0  0  0  0  0  0  0  0  0
   55.6350   29.1590   42.2260 H   0  0  0  0  0  0  0  0  0  0  0  0
   57.2920   29.4180   42.2060 H   0  0  0  0  0  0  0  0  0  0  0  0
   58.2810   28.0560   44.3640 C   0  0  0  0  0  0  0  0  0  0  0  0
   57.7356   27.5519   43.5526 H   0  0  0  0  0  0  0  0  0  0  0  0
  1  2  1  0
  2  3  2  0
  3  4  1  0
  3  5  1  0
  5  6  1  0
  6  7  2  0
  7  8  1  0
  8  9  2  0
  9 10  1  0
  9 11  1  0
 11 12  1  0
 11 13  2  0
 13 14  1  0
 13 15  1  0
 15 16  1  0
 15 17  2  0
 17 18  1  0
 18 19  1  0
 19 20  2  0
 20 21  1  0
 21 22  1  0
 22 23  1  0
 22 24  1  0
 22 25  1  0
 20 26  1  0
 26 27  1  0
 26 28  2  0
 28 29  1  0
 28 30  1  0
 30 31  1  0
 30 32  2  0
  5 33  2  0
 33 34  1  0
 33 35  1  0
 35 36  1  0
 36 37  2  0
 36 38  2  0
 36 39  1  0
 39 40  1  0
 39 41  1  0
 35 42  2  0
 42 43  1  0
 42  2  1  0
 32  7  1  0
 17  8  1  0
 32 19  1  0
M  CHG  1  18  -1
M  END
>  <UniqueID>  (94) 
89

>  <SMILES>  (94) 
COc1cccc2/c(=N\c3cccc(S(N)(=O)=O)c3)c3ccccc3[n-]c12

>  <Energy>  (94) 
74.21372849593655

>  <Genealogy>  (94) 
COc1cccc2c(=Nc3cccc(S(N)(=O)=O)c3)c3ccccc3[n-]c12 (protonated)
COc1cccc2/c(=N\c3cccc(S(N)(=O)=O)c3)c3ccccc3[n-]c12 (cis-trans isomerization)
COc1cccc2/c(=N\c3cccc(S(N)(=O)=O)c3)c3ccccc3[n-]c12 (3D coordinates assigned)
COc1cccc2/c(=N\c3cccc(S(N)(=O)=O)c3)c3ccccc3[n-]c12 (optimized conformer: 74.21372849593655 kcal/mol)

>  <smiles>  (94) 
COc1cccc2c(=Nc3cccc(S(N)(=O)=O)c3)c3ccccc3[nH]c12

>  <score_type>  (94) 
oracle

>  <origin>  (94) 
adg

>  <m_score__min__energy>  (94) 
-10.74

>  <m_primary>  (94) 
energy

$$$$
94:0
     RDKit          3D

 30 31  0  0  0  0  0  0  0  0999 V2000
   59.2310   33.4750   51.7270 C   0  0  0  0  0  0  0  0  0  0  0  0
   58.4910   32.7400   50.7600 O   0  0  0  0  0  0  0  0  0  0  0  0
   59.0990   32.0760   49.6900 C   0  0  0  0  0  0  0  0  0  0  0  0
   58.5350   31.0820   49.1590 O   0  0  0  0  0  0  0  0  0  0  0  0
   60.4050   32.5520   49.1990 C   0  0  0  0  0  0  0  0  0  0  0  0
   61.8790   31.8620   49.7380 S   0  0  0  0  0  0  0  0  0  0  0  0
   63.0570   32.7170   48.8990 C   0  0  0  0  0  0  0  0  0  0  0  0
   64.4700   32.5280   49.0040 S   0  0  0  0  0  0  0  0  0  0  0  0
   62.2780   33.8450   47.9310 S   0  0  0  0  0  0  0  0  0  0  0  0
   60.6200   33.5890   48.2680 C   0  0  0  0  0  0  0  0  0  0  0  0
   59.3410   34.5810   47.4860 S   0  0  0  0  0  0  0  0  0  0  0  0
   59.7650   34.0820   45.7790 C   0  0  0  0  0  0  0  0  0  0  0  0
   58.8780   32.9660   45.3010 C   0  0  0  0  0  0  0  0  0  0  0  0
   58.2470   33.0530   44.0520 C   0  0  0  0  0  0  0  0  0  0  0  0
   57.3930   32.0350   43.6180 C   0  0  0  0  0  0  0  0  0  0  0  0
   57.1530   30.9100   44.4290 C   0  0  0  0  0  0  0  0  0  0  0  0
   56.2710   29.8620   43.9900 N   0  0  0  0  0  0  0  0  0  0  0  0
   56.3730   29.3840   42.8410 O   0  0  0  0  0  0  0  0  0  0  0  0
   55.3000   29.3680   44.8300 O   0  0  0  0  0  0  0  0  0  0  0  0
   57.7890   30.8280   45.6810 C   0  0  0  0  0  0  0  0  0  0  0  0
   58.6430   31.8450   46.1130 C   0  0  0  0  0  0  0  0  0  0  0  0
   58.9215   33.1676   52.7368 H   0  0  0  0  0  0  0  0  0  0  0  0
   60.3048   33.2757   51.5960 H   0  0  0  0  0  0  0  0  0  0  0  0
   59.0390   34.5502   51.5960 H   0  0  0  0  0  0  0  0  0  0  0  0
   59.6430   34.9478   45.1116 H   0  0  0  0  0  0  0  0  0  0  0  0
   60.8062   33.7272   45.7689 H   0  0  0  0  0  0  0  0  0  0  0  0
   58.4251   33.9279   43.4095 H   0  0  0  0  0  0  0  0  0  0  0  0
   56.9049   32.1137   42.6354 H   0  0  0  0  0  0  0  0  0  0  0  0
   57.6120   29.9546   46.3258 H   0  0  0  0  0  0  0  0  0  0  0  0
   59.1340   31.7674   47.0943 H   0  0  0  0  0  0  0  0  0  0  0  0
  1  2  1  0
  2  3  1  0
  3  4  2  0
  3  5  1  0
  5  6  1  0
  6  7  1  0
  7  8  2  0
  7  9  1  0
  9 10  1  0
 10 11  1  0
 11 12  1  0
 12 13  1  0
 13 14  2  0
 14 15  1  0
 15 16  2  0
 16 17  1  0
 17 18  2  0
 17 19  1  0
 16 20  1  0
 20 21  2  0
 10  5  2  0
 21 13  1  0
  1 22  1  0
  1 23  1  0
  1 24  1  0
 12 25  1  0
 12 26  1  0
 14 27  1  0
 15 28  1  0
 20 29  1  0
 21 30  1  0
M  CHG  2  17   1  19  -1
M  END
>  <UniqueID>  (95) 
90

>  <SMILES>  (95) 
COC(=O)c1sc(=S)sc1SCc1ccc([N+](=O)[O-])cc1

>  <Energy>  (95) 
50.19416412899313

>  <Genealogy>  (95) 
COC(=O)c1sc(=S)sc1SCc1ccc([N+](=O)[O-])cc1 (3D coordinates assigned)
COC(=O)c1sc(=S)sc1SCc1ccc([N+](=O)[O-])cc1 (optimized conformer: 50.19416412899313 kcal/mol)

>  <smiles>  (95) 
COC(=O)c1sc(=S)sc1SCc1ccc([N+](=O)[O-])cc1

>  <score_type>  (95) 
oracle

>  <origin>  (95) 
adg

>  <m_score__min__energy>  (95) 
-7.46

>  <m_primary>  (95) 
energy

$$$$
95:0
     RDKit          3D

 37 39  0  0  1  0  0  0  0  0999 V2000
   56.9320   24.0420   47.5650 C   0  0  0  0  0  0  0  0  0  0  0  0
   56.8620   23.7720   46.1100 C   0  0  0  0  0  0  0  0  0  0  0  0
   57.0610   22.4750   45.6530 C   0  0  0  0  0  0  0  0  0  0  0  0
   57.0080   22.1310   44.3180 C   0  0  0  0  0  0  0  0  0  0  0  0
   56.7400   23.1550   43.4300 C   0  0  0  0  0  0  0  0  0  0  0  0
   56.5410   24.4390   43.8830 C   0  0  0  0  0  0  0  0  0  0  0  0
   56.5940   24.7890   45.2230 C   0  0  0  0  0  0  0  0  0  0  0  0
   56.3620   26.1690   45.6320 C   0  0  0  0  0  0  0  0  0  0  0  0
   55.1730   26.4830   45.9820 O   0  0  0  0  0  0  0  0  0  0  0  0
   57.3880   27.1540   45.6570 N   0  0  0  0  0  0  0  0  0  0  0  0
   57.1330   28.3260   45.2510 C   0  0  0  0  0  0  0  0  0  0  0  0
   56.0470   29.0280   45.0440 N   0  0  0  0  0  0  0  0  0  0  0  0
   56.1550   30.2320   44.6150 N   0  0  0  0  0  0  0  0  0  0  0  0
   57.1770   30.8430   44.3590 C   0  0  0  0  0  0  0  0  0  0  0  0
   57.6940   32.1260   43.8200 C   0  0  0  0  0  0  0  0  0  0  0  0
   58.1610   32.9810   44.9180 C   0  0  0  0  0  0  0  0  0  0  0  0
   58.9680   34.0630   44.5680 C   0  0  0  0  0  0  0  0  0  0  0  0
   59.4460   34.9800   45.4650 C   0  0  0  0  0  0  0  0  0  0  0  0
   59.1000   34.8190   46.8110 C   0  0  0  0  0  0  0  0  0  0  0  0
   58.2960   33.7500   47.2070 C   0  0  0  0  0  0  0  0  0  0  0  0
   57.8320   32.8360   46.2420 C   0  0  0  0  0  0  0  0  0  0  0  0
   58.4620   29.5070   44.7840 S   0  0  0  0  0  0  0  0  0  0  0  0
   56.6937   23.1229   48.1204 H   0  0  0  0  0  0  0  0  0  0  0  0
   57.9465   24.3764   47.8275 H   0  0  0  0  0  0  0  0  0  0  0  0
   56.2077   24.8272   47.8275 H   0  0  0  0  0  0  0  0  0  0  0  0
   57.2706   21.6857   46.3900 H   0  0  0  0  0  0  0  0  0  0  0  0
   57.1703   21.0973   43.9789 H   0  0  0  0  0  0  0  0  0  0  0  0
   56.6853   22.9421   42.3522 H   0  0  0  0  0  0  0  0  0  0  0  0
   56.3293   25.2267   43.1450 H   0  0  0  0  0  0  0  0  0  0  0  0
   55.0740   28.5980   45.2450 H   0  0  0  0  0  0  0  0  0  0  0  0
   58.5309   31.9226   43.1357 H   0  0  0  0  0  0  0  0  0  0  0  0
   56.8865   32.6417   43.2796 H   0  0  0  0  0  0  0  0  0  0  0  0
   59.2364   34.1870   43.5085 H   0  0  0  0  0  0  0  0  0  0  0  0
   60.0815   35.8163   45.1381 H   0  0  0  0  0  0  0  0  0  0  0  0
   59.4633   35.5381   47.5599 H   0  0  0  0  0  0  0  0  0  0  0  0
   58.0265   33.6221   48.2658 H   0  0  0  0  0  0  0  0  0  0  0  0
   57.1968   31.9938   46.5539 H   0  0  0  0  0  0  0  0  0  0  0  0
  1  2  1  0
  2  3  2  0
  3  4  1  0
  4  5  2  0
  5  6  1  0
  6  7  2  0
  7  8  1  0
  8  9  2  0
  8 10  1  0
 10 11  2  0
 11 12  1  0
 12 13  1  0
 13 14  2  0
 14 15  1  0
 15 16  1  0
 16 17  2  0
 17 18  1  0
 18 19  2  0
 19 20  1  0
 20 21  2  0
 14 22  1  0
  7  2  1  0
 22 11  1  0
 21 16  1  0
  1 23  1  0
  1 24  1  0
  1 25  1  0
  3 26  1  0
  4 27  1  0
  5 28  1  0
  6 29  1  0
 12 30  1  0
 15 31  1  0
 15 32  1  0
 17 33  1  0
 18 34  1  0
 19 35  1  0
 20 36  1  0
 21 37  1  0
M  END
>  <smiles>  (96) 
Cc1ccccc1C(=O)N=c1[nH]nc(Cc2ccccc2)s1

>  <score_type>  (96) 
oracle

>  <origin>  (96) 
adg

>  <m_score__min__energy>  (96) 
-9.4600000000000009

>  <m_primary>  (96) 
energy

$$$$
