0:0
     RDKit          3D

 29 30  0  0  0  0  0  0  0  0999 V2000
   54.7500   26.3390   45.9430 N   0  0  0  0  0  0  0  0  0  0  0  0
   55.4840   25.1230   46.0550 C   0  0  0  0  0  0  0  0  0  0  0  0
   55.0010   24.1570   46.7030 O   0  0  0  0  0  0  0  0  0  0  0  0
   56.8080   24.9810   45.3710 C   0  0  0  0  0  0  0  0  0  0  0  0
   57.8020   25.8630   45.9880 N   0  0  0  0  0  0  0  0  0  0  0  0
   58.4490   25.5970   47.1410 C   0  0  0  0  0  0  0  0  0  0  0  0
   59.3020   26.6320   47.4580 C   0  0  0  0  0  0  0  0  0  0  0  0
   59.1670   27.5750   46.4600 C   0  0  0  0  0  0  0  0  0  0  0  0
   58.2320   27.0790   45.5650 C   0  0  0  0  0  0  0  0  0  0  0  0
   57.7620   27.7970   44.3540 C   0  0  0  0  0  0  0  0  0  0  0  0
   57.5330   27.1610   43.2920 O   0  0  0  0  0  0  0  0  0  0  0  0
   57.5620   29.2620   44.3670 C   0  0  0  0  0  0  0  0  0  0  0  0
   58.6670   30.1040   44.1570 C   0  0  0  0  0  0  0  0  0  0  0  0
   58.5050   31.4910   44.1110 C   0  0  0  0  0  0  0  0  0  0  0  0
   57.2370   32.0510   44.2670 C   0  0  0  0  0  0  0  0  0  0  0  0
   56.1300   31.2280   44.4780 C   0  0  0  0  0  0  0  0  0  0  0  0
   56.2800   29.8370   44.5390 C   0  0  0  0  0  0  0  0  0  0  0  0
   55.1460   29.0630   44.7960 O   0  0  0  0  0  0  0  0  0  0  0  0
   55.2300   27.2630   46.0130 H   0  0  0  0  0  0  0  0  0  0  0  0
   57.1483   23.9383   45.4540 H   0  0  0  0  0  0  0  0  0  0  0  0
   56.6934   25.2596   44.3131 H   0  0  0  0  0  0  0  0  0  0  0  0
   58.3152   24.6853   47.7418 H   0  0  0  0  0  0  0  0  0  0  0  0
   59.9620   26.6942   48.3358 H   0  0  0  0  0  0  0  0  0  0  0  0
   59.6988   28.5352   46.3884 H   0  0  0  0  0  0  0  0  0  0  0  0
   59.6683   29.6674   44.0277 H   0  0  0  0  0  0  0  0  0  0  0  0
   59.3776   32.1415   43.9517 H   0  0  0  0  0  0  0  0  0  0  0  0
   57.1095   33.1427   44.2236 H   0  0  0  0  0  0  0  0  0  0  0  0
   55.1321   31.6752   44.5973 H   0  0  0  0  0  0  0  0  0  0  0  0
   55.1770   28.0590   44.9150 H   0  0  0  0  0  0  0  0  0  0  0  0
  1  2  1  0
  2  3  2  0
  2  4  1  0
  4  5  1  0
  5  6  1  0
  6  7  2  0
  7  8  1  0
  8  9  2  0
  9 10  1  0
 10 11  2  0
 10 12  1  0
 12 13  2  0
 13 14  1  0
 14 15  2  0
 15 16  1  0
 16 17  2  0
 17 18  1  0
  9  5  1  0
 17 12  1  0
  1 19  1  0
  4 20  1  0
  4 21  1  0
  6 22  1  0
  7 23  1  0
  8 24  1  0
 13 25  1  0
 14 26  1  0
 15 27  1  0
 16 28  1  0
 18 29  1  0
M  CHG  1   1  -1
M  END
>  <UniqueID>  (1) 
1

>  <SMILES>  (1) 
[NH-]C(=O)Cn1cccc1C(=O)c1ccccc1O

>  <Energy>  (1) 
61.358368709601216

>  <Genealogy>  (1) 
[NH-]C(=O)Cn1cccc1C(=O)c1ccccc1O (protonated)
[NH-]C(=O)Cn1cccc1C(=O)c1ccccc1O (3D coordinates assigned)
[NH-]C(=O)Cn1cccc1C(=O)c1ccccc1O (optimized conformer: 61.358368709601216 kcal/mol)

>  <smiles>  (1) 
NC(=O)Cn1cccc1C(=O)c1ccccc1O

>  <score_type>  (1) 
oracle

>  <origin>  (1) 
adg

>  <m_score__min__energy>  (1) 
-10.19

>  <m_primary>  (1) 
energy

$$$$
1:0
     RDKit          3D

 69 73  0  0  0  0  0  0  0  0999 V2000
   59.6750   35.3231   45.5535 H   0  0  0  0  0  0  0  0  0  0  0  0
   58.9400   34.8640   44.8760 C   0  0  0  0  0  0  0  0  0  0  0  0
   58.4811   35.4625   44.0753 H   0  0  0  0  0  0  0  0  0  0  0  0
   58.6040   33.5770   45.0260 C   0  0  0  0  0  0  0  0  0  0  0  0
   59.0590   32.6820   46.0060 C   0  0  0  0  0  0  0  0  0  0  0  0
   59.9190   32.9850   47.0060 C   0  0  0  0  0  0  0  0  0  0  0  0
   60.3774   33.9845   46.9778 H   0  0  0  0  0  0  0  0  0  0  0  0
   60.3060   32.1060   48.1360 C   0  0  0  0  0  0  0  0  0  0  0  0
   61.2170   31.0530   47.9740 C   0  0  0  0  0  0  0  0  0  0  0  0
   61.8510   30.8340   46.7570 O   0  0  0  0  0  0  0  0  0  0  0  0
   61.4570   30.2050   49.0010 N   0  0  0  0  0  0  0  0  0  0  0  0
   60.7810   30.2930   50.1730 C   0  0  0  0  0  0  0  0  0  0  0  0
   61.0460   29.4700   51.0900 O   0  0  0  0  0  0  0  0  0  0  0  0
   59.8030   31.2440   50.3390 N   0  0  0  0  0  0  0  0  0  0  0  0
   58.9270   31.2190   51.5290 C   0  0  0  0  0  0  0  0  0  0  0  0
   59.5276   31.4756   52.4141 H   0  0  0  0  0  0  0  0  0  0  0  0
   58.1183   31.9460   51.3630 H   0  0  0  0  0  0  0  0  0  0  0  0
   58.2780   29.8440   51.7560 C   0  0  0  0  0  0  0  0  0  0  0  0
   58.3295   29.2732   50.8171 H   0  0  0  0  0  0  0  0  0  0  0  0
   58.8309   29.3502   52.5687 H   0  0  0  0  0  0  0  0  0  0  0  0
   56.8350   29.9350   52.1840 C   0  0  0  0  0  0  0  0  0  0  0  0
   56.2970   29.0050   53.0880 C   0  0  0  0  0  0  0  0  0  0  0  0
   56.9363   28.2106   53.5007 H   0  0  0  0  0  0  0  0  0  0  0  0
   54.9520   29.0830   53.4670 C   0  0  0  0  0  0  0  0  0  0  0  0
   54.5435   28.3647   54.1931 H   0  0  0  0  0  0  0  0  0  0  0  0
   54.1280   30.0710   52.9250 C   0  0  0  0  0  0  0  0  0  0  0  0
   53.0720   30.1332   53.2268 H   0  0  0  0  0  0  0  0  0  0  0  0
   54.6450   30.9810   51.9990 C   0  0  0  0  0  0  0  0  0  0  0  0
   53.9931   31.7524   51.5632 H   0  0  0  0  0  0  0  0  0  0  0  0
   55.9920   30.9110   51.6260 C   0  0  0  0  0  0  0  0  0  0  0  0
   56.3934   31.6245   50.8913 H   0  0  0  0  0  0  0  0  0  0  0  0
   59.5840   32.1650   49.3430 C   0  0  0  0  0  0  0  0  0  0  0  0
   58.7120   33.0680   49.4970 O   0  0  0  0  0  0  0  0  0  0  0  0
   58.4090   31.4700   45.7330 C   0  0  0  0  0  0  0  0  0  0  0  0
   58.6640   30.1310   46.3040 C   0  0  0  0  0  0  0  0  0  0  0  0
   57.7700   29.6070   47.0240 O   0  0  0  0  0  0  0  0  0  0  0  0
   59.8430   29.3800   45.9130 N   0  0  0  0  0  0  0  0  0  0  0  0
   60.6710   30.0130   46.0110 H   0  0  0  0  0  0  0  0  0  0  0  0
   59.7910   28.9750   44.5030 C   0  0  0  0  0  0  0  0  0  0  0  0
   59.6505   29.8730   43.8835 H   0  0  0  0  0  0  0  0  0  0  0  0
   60.7363   28.4639   44.2681 H   0  0  0  0  0  0  0  0  0  0  0  0
   58.6490   27.9950   44.2130 C   0  0  0  0  0  0  0  0  0  0  0  0
   57.7210   28.5740   44.0967 H   0  0  0  0  0  0  0  0  0  0  0  0
   58.9319   27.4467   43.3023 H   0  0  0  0  0  0  0  0  0  0  0  0
   58.4300   26.9790   45.2630 N   0  0  0  0  0  0  0  0  0  0  0  0
   57.4230   25.9420   45.0360 C   0  0  0  0  0  0  0  0  0  0  0  0
   56.3480   25.7480   45.9380 C   0  0  0  0  0  0  0  0  0  0  0  0
   56.2657   26.3911   46.8266 H   0  0  0  0  0  0  0  0  0  0  0  0
   55.3900   24.7540   45.7190 C   0  0  0  0  0  0  0  0  0  0  0  0
   54.5576   24.6288   46.4271 H   0  0  0  0  0  0  0  0  0  0  0  0
   55.4870   23.9190   44.6030 C   0  0  0  0  0  0  0  0  0  0  0  0
   54.5630   22.9490   44.3980 F   0  0  0  0  0  0  0  0  0  0  0  0
   56.5240   24.0990   43.6920 C   0  0  0  0  0  0  0  0  0  0  0  0
   56.5905   23.4528   42.8043 H   0  0  0  0  0  0  0  0  0  0  0  0
   57.4820   25.0970   43.8990 C   0  0  0  0  0  0  0  0  0  0  0  0
   58.2937   25.2283   43.1683 H   0  0  0  0  0  0  0  0  0  0  0  0
   59.0960   27.0530   46.5830 C   0  0  0  0  0  0  0  0  0  0  0  0
   58.3162   27.1753   47.3491 H   0  0  0  0  0  0  0  0  0  0  0  0
   59.6738   26.1221   46.6812 H   0  0  0  0  0  0  0  0  0  0  0  0
   60.1120   28.2000   46.7530 C   0  0  0  0  0  0  0  0  0  0  0  0
   60.0998   28.5173   47.8062 H   0  0  0  0  0  0  0  0  0  0  0  0
   61.0882   27.8046   46.4359 H   0  0  0  0  0  0  0  0  0  0  0  0
   57.5690   31.7070   44.6520 C   0  0  0  0  0  0  0  0  0  0  0  0
   56.7220   30.7010   43.9390 C   0  0  0  0  0  0  0  0  0  0  0  0
   56.1960   30.0763   44.6760 H   0  0  0  0  0  0  0  0  0  0  0  0
   55.9865   31.2219   43.3084 H   0  0  0  0  0  0  0  0  0  0  0  0
   57.3606   30.0650   43.3084 H   0  0  0  0  0  0  0  0  0  0  0  0
   57.7100   32.9740   44.2210 N   0  0  0  0  0  0  0  0  0  0  0  0
   57.2210   33.4050   43.4040 H   0  0  0  0  0  0  0  0  0  0  0  0
  1  2  1  0
  2  3  1  0
  2  4  2  0
  4  5  1  0
  5  6  2  0
  6  7  1  0
  6  8  1  0
  8  9  2  0
  9 10  1  0
  9 11  1  0
 11 12  1  0
 12 13  2  0
 12 14  1  0
 14 15  1  0
 15 16  1  0
 15 17  1  0
 15 18  1  0
 18 19  1  0
 18 20  1  0
 18 21  1  0
 21 22  2  0
 22 23  1  0
 22 24  1  0
 24 25  1  0
 24 26  2  0
 26 27  1  0
 26 28  1  0
 28 29  1  0
 28 30  2  0
 30 31  1  0
 14 32  1  0
 32 33  2  0
  5 34  1  0
 34 35  1  0
 35 36  2  0
 35 37  1  0
 37 38  1  0
 37 39  1  0
 39 40  1  0
 39 41  1  0
 39 42  1  0
 42 43  1  0
 42 44  1  0
 42 45  1  0
 45 46  1  0
 46 47  2  0
 47 48  1  0
 47 49  1  0
 49 50  1  0
 49 51  2  0
 51 52  1  0
 51 53  1  0
 53 54  1  0
 53 55  2  0
 55 56  1  0
 45 57  1  0
 57 58  1  0
 57 59  1  0
 57 60  1  0
 60 61  1  0
 60 62  1  0
 34 63  2  0
 63 64  1  0
 64 65  1  0
 64 66  1  0
 64 67  1  0
 63 68  1  0
 68 69  1  0
 68  4  1  0
 32  8  1  0
 60 37  1  0
 30 21  1  0
 55 46  1  0
M  CHG  3  10  -1  11  -1  37   1
M  END
>  <UniqueID>  (2) 
2

>  <SMILES>  (2) 
C=c1[nH]c(C)c(C(=O)[NH+]2CCN(c3ccc(F)cc3)CC2)/c1=C\c1c([O-])[n-]c(=O)n(CCc2ccccc2)c1=O

>  <Energy>  (2) 
132.77691610707896

>  <Genealogy>  (2) 
C=c1[nH]c(C)c(C(=O)[NH+]2CCN(c3ccc(F)cc3)CC2)c1=Cc1c([O-])[n-]c(=O)n(CCc2ccccc2)c1=O (protonated)
C=c1[nH]c(C)c(C(=O)[NH+]2CCN(c3ccc(F)cc3)CC2)/c1=C\c1c([O-])[n-]c(=O)n(CCc2ccccc2)c1=O (cis-trans isomerization)
C=c1[nH]c(C)c(C(=O)[NH+]2CCN(c3ccc(F)cc3)CC2)/c1=C\c1c([O-])[n-]c(=O)n(CCc2ccccc2)c1=O (3D coordinates assigned)
C=c1[nH]c(C)c(C(=O)[NH+]2CCN(c3ccc(F)cc3)CC2)/c1=C\c1c([O-])[n-]c(=O)n(CCc2ccccc2)c1=O (nonaromatic ring conformer: 132.77691610707896 kcal/mol)

>  <smiles>  (2) 
C=c1[nH]c(C)c(C(=O)N2CCN(c3ccc(F)cc3)CC2)c1=Cc1c(O)[nH]c(=O)n(CCc2ccccc2)c1=O

>  <score_type>  (2) 
oracle

>  <origin>  (2) 
adg

>  <m_score__min__energy>  (2) 
-13.23

>  <m_primary>  (2) 
energy

$$$$
2:0
     RDKit          3D

 50 52  0  0  0  0  0  0  0  0999 V2000
   59.2530   35.3370   44.9840 C   0  0  0  0  0  0  0  0  0  0  0  0
   59.3610   34.2730   46.0020 N   0  0  0  0  0  0  0  0  0  0  0  0
   59.4390   34.8540   47.3510 C   0  0  0  0  0  0  0  0  0  0  0  0
   59.7890   33.7490   48.3480 C   0  0  0  0  0  0  0  0  0  0  0  0
   58.9380   32.5740   48.1400 N   0  0  0  0  0  0  0  0  0  0  0  0
   59.0630   31.4560   49.0360 C   0  0  0  0  0  0  0  0  0  0  0  0
   59.6840   30.2790   48.5950 C   0  0  0  0  0  0  0  0  0  0  0  0
   59.7990   29.1680   49.4480 C   0  0  0  0  0  0  0  0  0  0  0  0
   60.4840   27.9180   48.9780 C   0  0  0  0  0  0  0  0  0  0  0  0
   59.5850   27.1770   48.1010 N   0  0  0  0  0  0  0  0  0  0  0  0
   59.6390   27.2310   46.6720 C   0  0  0  0  0  0  0  0  0  0  0  0
   60.4510   26.4870   46.0610 O   0  0  0  0  0  0  0  0  0  0  0  0
   58.7670   28.1380   45.9000 C   0  0  0  0  0  0  0  0  0  0  0  0
   59.2770   29.3800   45.4930 C   0  0  0  0  0  0  0  0  0  0  0  0
   58.4780   30.2760   44.7800 C   0  0  0  0  0  0  0  0  0  0  0  0
   57.1580   29.9450   44.4760 C   0  0  0  0  0  0  0  0  0  0  0  0
   56.6350   28.7130   44.8750 C   0  0  0  0  0  0  0  0  0  0  0  0
   57.4310   27.7960   45.5820 C   0  0  0  0  0  0  0  0  0  0  0  0
   56.7390   26.2320   46.0460 S   0  0  0  0  0  0  0  0  0  0  0  0
   55.0120   26.3200   45.9780 N   0  0  0  0  0  0  0  0  0  0  0  0
   57.2130   25.1570   45.1070 O   0  0  0  0  0  0  0  0  0  0  0  0
   57.1750   25.8770   47.4400 O   0  0  0  0  0  0  0  0  0  0  0  0
   59.3200   29.2570   50.7610 C   0  0  0  0  0  0  0  0  0  0  0  0
   58.7130   30.4300   51.2100 C   0  0  0  0  0  0  0  0  0  0  0  0
   58.5820   31.5330   50.3550 C   0  0  0  0  0  0  0  0  0  0  0  0
   57.9930   32.7080   50.8150 O   0  0  0  0  0  0  0  0  0  0  0  0
   57.8270   32.6280   47.1850 C   0  0  0  0  0  0  0  0  0  0  0  0
   58.2570   33.2910   45.8560 C   0  0  0  0  0  0  0  0  0  0  0  0
   59.1540   36.3126   45.4824 H   0  0  0  0  0  0  0  0  0  0  0  0
   60.1558   35.3362   44.3556 H   0  0  0  0  0  0  0  0  0  0  0  0
   58.3687   35.1548   44.3556 H   0  0  0  0  0  0  0  0  0  0  0  0
   60.2169   35.6314   47.3736 H   0  0  0  0  0  0  0  0  0  0  0  0
   58.4717   35.3042   47.6188 H   0  0  0  0  0  0  0  0  0  0  0  0
   60.8419   33.4607   48.2124 H   0  0  0  0  0  0  0  0  0  0  0  0
   59.6250   34.1280   49.3675 H   0  0  0  0  0  0  0  0  0  0  0  0
   60.0849   30.2246   47.5721 H   0  0  0  0  0  0  0  0  0  0  0  0
   61.3979   28.1847   48.4269 H   0  0  0  0  0  0  0  0  0  0  0  0
   60.7499   27.2951   49.8448 H   0  0  0  0  0  0  0  0  0  0  0  0
   60.3149   29.6501   45.7376 H   0  0  0  0  0  0  0  0  0  0  0  0
   58.8901   31.2437   44.4579 H   0  0  0  0  0  0  0  0  0  0  0  0
   56.5276   30.6554   43.9210 H   0  0  0  0  0  0  0  0  0  0  0  0
   55.5923   28.4587   44.6340 H   0  0  0  0  0  0  0  0  0  0  0  0
   54.7220   27.0790   46.6340 H   0  0  0  0  0  0  0  0  0  0  0  0
   59.4228   28.3985   51.4410 H   0  0  0  0  0  0  0  0  0  0  0  0
   58.3349   30.4897   52.2412 H   0  0  0  0  0  0  0  0  0  0  0  0
   56.9860   32.8250   50.8290 H   0  0  0  0  0  0  0  0  0  0  0  0
   57.4821   31.6040   46.9789 H   0  0  0  0  0  0  0  0  0  0  0  0
   57.0196   33.2303   47.6270 H   0  0  0  0  0  0  0  0  0  0  0  0
   58.5859   32.5005   45.1654 H   0  0  0  0  0  0  0  0  0  0  0  0
   57.3848   33.8455   45.4795 H   0  0  0  0  0  0  0  0  0  0  0  0
  1  2  1  0
  2  3  1  0
  3  4  1  0
  4  5  1  0
  5  6  1  0
  6  7  2  0
  7  8  1  0
  8  9  1  0
  9 10  1  0
 10 11  1  0
 11 12  2  0
 11 13  1  0
 13 14  2  0
 14 15  1  0
 15 16  2  0
 16 17  1  0
 17 18  2  0
 18 19  1  0
 19 20  1  0
 19 21  2  0
 19 22  2  0
  8 23  2  0
 23 24  1  0
 24 25  2  0
 25 26  1  0
  5 27  1  0
 27 28  1  0
 28  2  1  0
 25  6  1  0
 18 13  1  0
  1 29  1  0
  1 30  1  0
  1 31  1  0
  3 32  1  0
  3 33  1  0
  4 34  1  0
  4 35  1  0
  7 36  1  0
  9 37  1  0
  9 38  1  0
 14 39  1  0
 15 40  1  0
 16 41  1  0
 17 42  1  0
 20 43  1  0
 23 44  1  0
 24 45  1  0
 26 46  1  0
 27 47  1  0
 27 48  1  0
 28 49  1  0
 28 50  1  0
M  CHG  2  10  -1  20  -1
M  END
>  <UniqueID>  (3) 
3

>  <SMILES>  (3) 
CN1CCN(c2cc(C[N-]C(=O)c3ccccc3S([NH-])(=O)=O)ccc2O)CC1

>  <Energy>  (3) 
65.98004309441097

>  <Genealogy>  (3) 
CN1CCN(c2cc(C[N-]C(=O)c3ccccc3S([NH-])(=O)=O)ccc2O)CC1 (protonated)
CN1CCN(c2cc(C[N-]C(=O)c3ccccc3S([NH-])(=O)=O)ccc2O)CC1 (3D coordinates assigned)
CN1CCN(c2cc(C[N-]C(=O)c3ccccc3S([NH-])(=O)=O)ccc2O)CC1 (nonaromatic ring conformer: 65.98004309441097 kcal/mol)

>  <smiles>  (3) 
CN1CCN(c2cc(CNC(=O)c3ccccc3S(N)(=O)=O)ccc2O)CC1

>  <score_type>  (3) 
oracle

>  <origin>  (3) 
adg

>  <m_score__min__energy>  (3) 
-12.83

>  <m_primary>  (3) 
energy

$$$$
3:0
     RDKit          3D

 32 33  0  0  0  0  0  0  0  0999 V2000
   59.5910   34.4310   45.0640 C   0  0  0  0  0  0  0  0  0  0  0  0
   58.6560   33.2860   44.8120 C   0  0  0  0  0  0  0  0  0  0  0  0
   58.2240   32.4830   45.8750 C   0  0  0  0  0  0  0  0  0  0  0  0
   57.4020   31.3810   45.6360 C   0  0  0  0  0  0  0  0  0  0  0  0
   57.0160   31.0520   44.3280 C   0  0  0  0  0  0  0  0  0  0  0  0
   56.2150   29.8320   44.1250 C   0  0  0  0  0  0  0  0  0  0  0  0
   55.7000   29.6180   42.9960 O   0  0  0  0  0  0  0  0  0  0  0  0
   55.9720   28.9030   45.1900 N   0  0  0  0  0  0  0  0  0  0  0  0
   56.9910   28.0900   45.8490 C   0  0  0  0  0  0  0  0  0  0  0  0
   56.4890   26.6980   46.1000 C   0  0  0  0  0  0  0  0  0  0  0  0
   57.2620   25.7710   46.8120 C   0  0  0  0  0  0  0  0  0  0  0  0
   56.7320   24.5030   47.0490 C   0  0  0  0  0  0  0  0  0  0  0  0
   57.3920   23.6510   47.6990 O   0  0  0  0  0  0  0  0  0  0  0  0
   55.4950   24.1870   46.5830 N   0  0  0  0  0  0  0  0  0  0  0  0
   54.7630   25.0930   45.8840 C   0  0  0  0  0  0  0  0  0  0  0  0
   53.2790   24.6900   45.3350 S   0  0  0  0  0  0  0  0  0  0  0  0
   55.2580   26.3360   45.6480 N   0  0  0  0  0  0  0  0  0  0  0  0
   57.4220   31.8720   43.2500 C   0  0  0  0  0  0  0  0  0  0  0  0
   57.0230   31.5810   41.8270 C   0  0  0  0  0  0  0  0  0  0  0  0
   58.2630   32.9690   43.5030 C   0  0  0  0  0  0  0  0  0  0  0  0
   59.7094   34.5760   46.1480 H   0  0  0  0  0  0  0  0  0  0  0  0
   60.5704   34.2104   44.6144 H   0  0  0  0  0  0  0  0  0  0  0  0
   59.1791   35.3465   44.6144 H   0  0  0  0  0  0  0  0  0  0  0  0
   58.5341   32.7221   46.9030 H   0  0  0  0  0  0  0  0  0  0  0  0
   57.0543   30.7660   46.4791 H   0  0  0  0  0  0  0  0  0  0  0  0
   57.8826   28.0405   45.2066 H   0  0  0  0  0  0  0  0  0  0  0  0
   57.2378   28.5532   46.8157 H   0  0  0  0  0  0  0  0  0  0  0  0
   58.2651   26.0377   47.1761 H   0  0  0  0  0  0  0  0  0  0  0  0
   56.1343   30.9328   41.8206 H   0  0  0  0  0  0  0  0  0  0  0  0
   56.7924   32.5245   41.3106 H   0  0  0  0  0  0  0  0  0  0  0  0
   57.8509   31.0732   41.3106 H   0  0  0  0  0  0  0  0  0  0  0  0
   58.6175   33.5866   42.6646 H   0  0  0  0  0  0  0  0  0  0  0  0
  1  2  1  0
  2  3  2  0
  3  4  1  0
  4  5  2  0
  5  6  1  0
  6  7  2  0
  6  8  1  0
  8  9  1  0
  9 10  1  0
 10 11  2  0
 11 12  1  0
 12 13  2  0
 12 14  1  0
 14 15  1  0
 15 16  2  0
 15 17  1  0
  5 18  1  0
 18 19  1  0
 18 20  2  0
 20  2  1  0
 17 10  1  0
  1 21  1  0
  1 22  1  0
  1 23  1  0
  3 24  1  0
  4 25  1  0
  9 26  1  0
  9 27  1  0
 11 28  1  0
 19 29  1  0
 19 30  1  0
 19 31  1  0
 20 32  1  0
M  CHG  3   8  -1  14  -1  17  -1
M  END
>  <UniqueID>  (4) 
4

>  <SMILES>  (4) 
Cc1ccc(C(=O)[N-]Cc2cc(=O)[n-]c(=S)[n-]2)c(C)c1

>  <Energy>  (4) 
35.63762124453293

>  <Genealogy>  (4) 
Cc1ccc(C(=O)[N-]Cc2cc(=O)[n-]c(=S)[n-]2)c(C)c1 (protonated)
Cc1ccc(C(=O)[N-]Cc2cc(=O)[n-]c(=S)[n-]2)c(C)c1 (3D coordinates assigned)
Cc1ccc(C(=O)[N-]Cc2cc(=O)[n-]c(=S)[n-]2)c(C)c1 (optimized conformer: 35.63762124453293 kcal/mol)

>  <smiles>  (4) 
Cc1ccc(C(=O)NCc2cc(=O)[nH]c(=S)[nH]2)c(C)c1

>  <score_type>  (4) 
oracle

>  <origin>  (4) 
adg

>  <m_score__min__energy>  (4) 
-12.58

>  <m_primary>  (4) 
energy

$$$$
4:0
     RDKit          3D

 55 57  0  0  0  0  0  0  0  0999 V2000
   50.3750   30.3230   53.4640 C   0  0  0  0  0  0  0  0  0  0  0  0
   51.8270   30.3990   53.0720 C   0  0  0  0  0  0  0  0  0  0  0  0
   52.7480   29.5620   53.7210 C   0  0  0  0  0  0  0  0  0  0  0  0
   54.0950   29.5730   53.3650 C   0  0  0  0  0  0  0  0  0  0  0  0
   54.5610   30.4300   52.3570 C   0  0  0  0  0  0  0  0  0  0  0  0
   55.9970   30.4210   51.9850 C   0  0  0  0  0  0  0  0  0  0  0  0
   56.6370   29.3350   52.0230 O   0  0  0  0  0  0  0  0  0  0  0  0
   56.6740   31.6300   51.6020 N   0  0  0  0  0  0  0  0  0  0  0  0
   58.0490   31.6330   51.1050 C   0  0  0  0  0  0  0  0  0  0  0  0
   58.6860   32.9870   51.2830 C   0  0  0  0  0  0  0  0  0  0  0  0
   58.0590   33.8880   51.9010 O   0  0  0  0  0  0  0  0  0  0  0  0
   59.9060   33.3350   50.6160 N   0  0  0  0  0  0  0  0  0  0  0  0
   60.1350   33.3090   49.2020 C   0  0  0  0  0  0  0  0  0  0  0  0
   61.4260   33.4490   48.6680 C   0  0  0  0  0  0  0  0  0  0  0  0
   61.6160   33.4670   47.2840 C   0  0  0  0  0  0  0  0  0  0  0  0
   60.5190   33.3650   46.4240 C   0  0  0  0  0  0  0  0  0  0  0  0
   59.2240   33.2500   46.9480 C   0  0  0  0  0  0  0  0  0  0  0  0
   57.8240   33.1570   45.8810 S   0  0  0  0  0  0  0  0  0  0  0  0
   58.1510   33.8700   44.5990 O   0  0  0  0  0  0  0  0  0  0  0  0
   56.6410   33.8310   46.5200 O   0  0  0  0  0  0  0  0  0  0  0  0
   57.4500   31.4840   45.5470 N   0  0  0  0  0  0  0  0  0  0  0  0
   57.0480   31.3340   44.1320 C   0  0  0  0  0  0  0  0  0  0  0  0
   57.0420   29.8590   43.6700 C   0  0  0  0  0  0  0  0  0  0  0  0
   57.0320   28.8960   44.8590 C   0  0  0  0  0  0  0  0  0  0  0  0
   58.2340   29.1510   45.7850 C   0  0  0  0  0  0  0  0  0  0  0  0
   58.6160   30.6410   45.8580 C   0  0  0  0  0  0  0  0  0  0  0  0
   59.0370   33.2380   48.3370 C   0  0  0  0  0  0  0  0  0  0  0  0
   53.6450   31.2710   51.7050 C   0  0  0  0  0  0  0  0  0  0  0  0
   52.2840   31.2830   52.0630 C   0  0  0  0  0  0  0  0  0  0  0  0
   51.3880   32.1870   51.3890 N   0  0  0  0  0  0  0  0  0  0  0  0
   51.3940   32.2640   50.1430 O   0  0  0  0  0  0  0  0  0  0  0  0
   50.6420   33.0960   52.1030 O   0  0  0  0  0  0  0  0  0  0  0  0
   50.2911   30.3186   54.5608 H   0  0  0  0  0  0  0  0  0  0  0  0
   49.8397   31.1944   53.0588 H   0  0  0  0  0  0  0  0  0  0  0  0
   49.9336   29.4005   53.0588 H   0  0  0  0  0  0  0  0  0  0  0  0
   52.4023   28.8895   54.5200 H   0  0  0  0  0  0  0  0  0  0  0  0
   54.7998   28.9032   53.8794 H   0  0  0  0  0  0  0  0  0  0  0  0
   56.1990   32.5530   51.7210 H   0  0  0  0  0  0  0  0  0  0  0  0
   58.6336   30.8849   51.6604 H   0  0  0  0  0  0  0  0  0  0  0  0
   58.0337   31.3919   50.0319 H   0  0  0  0  0  0  0  0  0  0  0  0
   62.2905   33.5448   49.3414 H   0  0  0  0  0  0  0  0  0  0  0  0
   62.6309   33.5616   46.8704 H   0  0  0  0  0  0  0  0  0  0  0  0
   60.6720   33.3750   45.3347 H   0  0  0  0  0  0  0  0  0  0  0  0
   56.0359   31.7465   44.0075 H   0  0  0  0  0  0  0  0  0  0  0  0
   57.7838   31.8731   43.5172 H   0  0  0  0  0  0  0  0  0  0  0  0
   56.1454   29.6802   43.0584 H   0  0  0  0  0  0  0  0  0  0  0  0
   57.9575   29.6772   43.0879 H   0  0  0  0  0  0  0  0  0  0  0  0
   56.1021   29.0381   45.4292 H   0  0  0  0  0  0  0  0  0  0  0  0
   57.0962   27.8665   44.4768 H   0  0  0  0  0  0  0  0  0  0  0  0
   57.9803   28.8018   46.7968 H   0  0  0  0  0  0  0  0  0  0  0  0
   59.0953   28.6048   45.3730 H   0  0  0  0  0  0  0  0  0  0  0  0
   58.9725   30.8748   46.8720 H   0  0  0  0  0  0  0  0  0  0  0  0
   59.4093   30.8430   45.1233 H   0  0  0  0  0  0  0  0  0  0  0  0
   58.0197   33.1723   48.7504 H   0  0  0  0  0  0  0  0  0  0  0  0
   53.9975   31.9324   50.8999 H   0  0  0  0  0  0  0  0  0  0  0  0
  1  2  1  0
  2  3  2  0
  3  4  1  0
  4  5  2  0
  5  6  1  0
  6  7  2  0
  6  8  1  0
  8  9  1  0
  9 10  1  0
 10 11  2  0
 10 12  1  0
 12 13  1  0
 13 14  2  0
 14 15  1  0
 15 16  2  0
 16 17  1  0
 17 18  1  0
 18 19  2  0
 18 20  2  0
 18 21  1  0
 21 22  1  0
 22 23  1  0
 23 24  1  0
 24 25  1  0
 25 26  1  0
 17 27  2  0
  5 28  1  0
 28 29  2  0
 29 30  1  0
 30 31  2  0
 30 32  1  0
 29  2  1  0
 27 13  1  0
 26 21  1  0
  1 33  1  0
  1 34  1  0
  1 35  1  0
  3 36  1  0
  4 37  1  0
  8 38  1  0
  9 39  1  0
  9 40  1  0
 14 41  1  0
 15 42  1  0
 16 43  1  0
 22 44  1  0
 22 45  1  0
 23 46  1  0
 23 47  1  0
 24 48  1  0
 24 49  1  0
 25 50  1  0
 25 51  1  0
 26 52  1  0
 26 53  1  0
 27 54  1  0
 28 55  1  0
M  CHG  3  12  -1  30   1  32  -1
M  END
>  <UniqueID>  (5) 
5

>  <SMILES>  (5) 
Cc1ccc(C(=O)NCC(=O)[N-]c2cccc(S(=O)(=O)N3CCCCC3)c2)cc1[N+](=O)[O-]

>  <Energy>  (5) 
69.78822187055933

>  <Genealogy>  (5) 
Cc1ccc(C(=O)NCC(=O)[N-]c2cccc(S(=O)(=O)N3CCCCC3)c2)cc1[N+](=O)[O-] (protonated)
Cc1ccc(C(=O)NCC(=O)[N-]c2cccc(S(=O)(=O)N3CCCCC3)c2)cc1[N+](=O)[O-] (3D coordinates assigned)
Cc1ccc(C(=O)NCC(=O)[N-]c2cccc(S(=O)(=O)N3CCCCC3)c2)cc1[N+](=O)[O-] (nonaromatic ring conformer: 69.78822187055933 kcal/mol)

>  <smiles>  (5) 
Cc1ccc(C(=O)NCC(=O)Nc2cccc(S(=O)(=O)N3CCCCC3)c2)cc1[N+](=O)[O-]

>  <score_type>  (5) 
oracle

>  <origin>  (5) 
adg

>  <m_score__min__energy>  (5) 
-12.380000000000001

>  <m_primary>  (5) 
energy

$$$$
5:0
     RDKit          3D

 36 37  0  0  0  0  0  0  0  0999 V2000
   57.3070   33.4650   46.2830 C   0  0  0  0  0  0  0  0  0  0  0  0
   58.0100   33.2060   45.1710 C   0  0  0  0  0  0  0  0  0  0  0  0
   59.0470   34.1930   44.7040 C   0  0  0  0  0  0  0  0  0  0  0  0
   57.7550   31.9380   44.3980 C   0  0  0  0  0  0  0  0  0  0  0  0
   56.8530   31.0790   45.1520 N   0  0  0  0  0  0  0  0  0  0  0  0
   56.6220   29.7090   44.8130 C   0  0  0  0  0  0  0  0  0  0  0  0
   55.4480   29.2590   44.7410 O   0  0  0  0  0  0  0  0  0  0  0  0
   57.7860   28.7980   44.5920 C   0  0  0  0  0  0  0  0  0  0  0  0
   57.4060   27.4230   44.9080 N   0  0  0  0  0  0  0  0  0  0  0  0
   56.7060   27.0090   45.9840 C   0  0  0  0  0  0  0  0  0  0  0  0
   56.4860   25.6530   45.8460 C   0  0  0  0  0  0  0  0  0  0  0  0
   55.8200   24.8430   46.7620 O   0  0  0  0  0  0  0  0  0  0  0  0
   57.0310   25.2170   44.6900 N   0  0  0  0  0  0  0  0  0  0  0  0
   57.0170   23.8790   44.1580 C   0  0  0  0  0  0  0  0  0  0  0  0
   58.0480   22.9760   44.4580 C   0  0  0  0  0  0  0  0  0  0  0  0
   58.0200   21.6810   43.9360 C   0  0  0  0  0  0  0  0  0  0  0  0
   56.9600   21.2980   43.1140 C   0  0  0  0  0  0  0  0  0  0  0  0
   55.9680   22.1810   42.8270 N   0  0  0  0  0  0  0  0  0  0  0  0
   55.9710   23.4480   43.3260 C   0  0  0  0  0  0  0  0  0  0  0  0
   57.5760   26.3250   44.1400 C   0  0  0  0  0  0  0  0  0  0  0  0
   58.1500   26.3440   43.0170 O   0  0  0  0  0  0  0  0  0  0  0  0
   56.5473   32.7503   46.6323 H   0  0  0  0  0  0  0  0  0  0  0  0
   57.4900   34.3922   46.8459 H   0  0  0  0  0  0  0  0  0  0  0  0
   59.5325   34.6551   45.5762 H   0  0  0  0  0  0  0  0  0  0  0  0
   59.8022   33.6719   44.0973 H   0  0  0  0  0  0  0  0  0  0  0  0
   58.5638   34.9730   44.0973 H   0  0  0  0  0  0  0  0  0  0  0  0
   57.2990   32.1860   43.4282 H   0  0  0  0  0  0  0  0  0  0  0  0
   58.7074   31.4127   44.2337 H   0  0  0  0  0  0  0  0  0  0  0  0
   58.1012   28.8570   43.5398 H   0  0  0  0  0  0  0  0  0  0  0  0
   58.6160   29.1045   45.2455 H   0  0  0  0  0  0  0  0  0  0  0  0
   56.3706   27.6387   46.8212 H   0  0  0  0  0  0  0  0  0  0  0  0
   55.5040   25.2150   47.6500 H   0  0  0  0  0  0  0  0  0  0  0  0
   58.8802   23.2887   45.1058 H   0  0  0  0  0  0  0  0  0  0  0  0
   58.8258   20.9700   44.1707 H   0  0  0  0  0  0  0  0  0  0  0  0
   56.9272   20.2803   42.6978 H   0  0  0  0  0  0  0  0  0  0  0  0
   55.1506   24.1369   43.0763 H   0  0  0  0  0  0  0  0  0  0  0  0
  1  2  2  0
  2  3  1  0
  2  4  1  0
  4  5  1  0
  5  6  1  0
  6  7  2  0
  6  8  1  0
  8  9  1  0
  9 10  1  0
 10 11  2  0
 11 12  1  0
 11 13  1  0
 13 14  1  0
 14 15  2  0
 15 16  1  0
 16 17  2  0
 17 18  1  0
 18 19  2  0
 13 20  1  0
 20 21  2  0
 20  9  1  0
 19 14  1  0
  1 22  1  0
  1 23  1  0
  3 24  1  0
  3 25  1  0
  3 26  1  0
  4 27  1  0
  4 28  1  0
  8 29  1  0
  8 30  1  0
 10 31  1  0
 12 32  1  0
 15 33  1  0
 16 34  1  0
 17 35  1  0
 19 36  1  0
M  CHG  1   5  -1
M  END
>  <UniqueID>  (6) 
6

>  <SMILES>  (6) 
C=C(C)C[N-]C(=O)Cn1cc(O)n(-c2cccnc2)c1=O

>  <Energy>  (6) 
66.68311122466604

>  <Genealogy>  (6) 
C=C(C)C[N-]C(=O)Cn1cc(O)n(-c2cccnc2)c1=O (protonated)
C=C(C)C[N-]C(=O)Cn1cc(O)n(-c2cccnc2)c1=O (3D coordinates assigned)
C=C(C)C[N-]C(=O)Cn1cc(O)n(-c2cccnc2)c1=O (optimized conformer: 66.68311122466604 kcal/mol)

>  <smiles>  (6) 
C=C(C)CNC(=O)Cn1cc(O)n(-c2cccnc2)c1=O

>  <score_type>  (6) 
oracle

>  <origin>  (6) 
adg

>  <m_score__min__energy>  (6) 
-8.9299999999999997

>  <m_primary>  (6) 
energy

$$$$
6:0
     RDKit          3D

 48 51  0  0  0  0  0  0  0  0999 V2000
   58.5580   25.2350   45.3070 C   0  0  0  0  0  0  0  0  0  0  0  0
   57.2980   25.6340   45.4980 C   0  0  0  0  0  0  0  0  0  0  0  0
   56.2580   24.8180   45.2460 N   0  0  0  0  0  0  0  0  0  0  0  0
   55.1910   25.5150   45.6790 C   0  0  0  0  0  0  0  0  0  0  0  0
   54.0160   25.0640   45.6260 O   0  0  0  0  0  0  0  0  0  0  0  0
   55.4820   26.7270   46.1850 N   0  0  0  0  0  0  0  0  0  0  0  0
   56.8190   26.8260   46.0590 C   0  0  0  0  0  0  0  0  0  0  0  0
   57.4710   27.9370   46.4500 C   0  0  0  0  0  0  0  0  0  0  0  0
   57.2650   29.2950   45.9230 C   0  0  0  0  0  0  0  0  0  0  0  0
   56.2270   29.7120   45.1030 C   0  0  0  0  0  0  0  0  0  0  0  0
   55.1490   28.9190   44.7290 O   0  0  0  0  0  0  0  0  0  0  0  0
   56.3740   30.9950   44.6980 N   0  0  0  0  0  0  0  0  0  0  0  0
   57.5400   31.3810   45.2520 C   0  0  0  0  0  0  0  0  0  0  0  0
   58.1430   32.6300   45.1300 C   0  0  0  0  0  0  0  0  0  0  0  0
   59.3720   32.8380   45.7820 C   0  0  0  0  0  0  0  0  0  0  0  0
   59.9830   31.7950   46.5190 C   0  0  0  0  0  0  0  0  0  0  0  0
   61.4930   32.0900   47.3730 S   0  0  0  0  0  0  0  0  0  0  0  0
   62.0100   33.4550   47.0150 O   0  0  0  0  0  0  0  0  0  0  0  0
   62.5190   31.0690   46.9640 O   0  0  0  0  0  0  0  0  0  0  0  0
   61.2070   32.0220   49.0890 N   0  0  0  0  0  0  0  0  0  0  0  0
   60.4000   33.1600   49.5320 C   0  0  0  0  0  0  0  0  0  0  0  0
   58.9120   32.8960   49.2340 C   0  0  0  0  0  0  0  0  0  0  0  0
   58.2570   31.9500   50.1640 N   0  0  0  0  0  0  0  0  0  0  0  0
   58.0040   32.5130   51.5000 C   0  0  0  0  0  0  0  0  0  0  0  0
   57.1520   31.5240   52.3240 C   0  0  0  0  0  0  0  0  0  0  0  0
   56.9310   30.3040   51.6370 O   0  0  0  0  0  0  0  0  0  0  0  0
   58.1690   29.7320   51.2570 C   0  0  0  0  0  0  0  0  0  0  0  0
   58.9210   30.6370   50.2590 C   0  0  0  0  0  0  0  0  0  0  0  0
   59.3550   30.5350   46.6100 C   0  0  0  0  0  0  0  0  0  0  0  0
   58.1220   30.3730   45.9810 C   0  0  0  0  0  0  0  0  0  0  0  0
   59.3906   25.9214   45.5206 H   0  0  0  0  0  0  0  0  0  0  0  0
   58.7633   24.2200   44.9361 H   0  0  0  0  0  0  0  0  0  0  0  0
   58.2294   27.8182   47.2379 H   0  0  0  0  0  0  0  0  0  0  0  0
   57.6721   33.4308   44.5409 H   0  0  0  0  0  0  0  0  0  0  0  0
   59.8630   33.8203   45.7186 H   0  0  0  0  0  0  0  0  0  0  0  0
   60.5352   33.3036   50.6142 H   0  0  0  0  0  0  0  0  0  0  0  0
   60.7221   34.0635   48.9936 H   0  0  0  0  0  0  0  0  0  0  0  0
   58.3760   33.8552   49.2861 H   0  0  0  0  0  0  0  0  0  0  0  0
   58.8707   32.4328   48.2371 H   0  0  0  0  0  0  0  0  0  0  0  0
   58.9620   32.6862   52.0120 H   0  0  0  0  0  0  0  0  0  0  0  0
   57.4637   33.4659   51.3993 H   0  0  0  0  0  0  0  0  0  0  0  0
   57.6736   31.3090   53.2683 H   0  0  0  0  0  0  0  0  0  0  0  0
   56.1727   31.9916   52.5040 H   0  0  0  0  0  0  0  0  0  0  0  0
   58.7904   29.5938   52.1541 H   0  0  0  0  0  0  0  0  0  0  0  0
   57.9705   28.7664   50.7690 H   0  0  0  0  0  0  0  0  0  0  0  0
   59.9561   30.7771   50.6039 H   0  0  0  0  0  0  0  0  0  0  0  0
   58.9174   30.1598   49.2679 H   0  0  0  0  0  0  0  0  0  0  0  0
   59.8240   29.7061   47.1604 H   0  0  0  0  0  0  0  0  0  0  0  0
  1  2  2  0
  2  3  1  0
  3  4  1  0
  4  5  2  0
  4  6  1  0
  6  7  1  0
  7  8  2  3
  8  9  1  0
  9 10  2  0
 10 11  1  0
 10 12  1  0
 12 13  1  0
 13 14  2  0
 14 15  1  0
 15 16  2  0
 16 17  1  0
 17 18  2  0
 17 19  2  0
 17 20  1  0
 20 21  1  0
 21 22  1  0
 22 23  1  0
 23 24  1  0
 24 25  1  0
 25 26  1  0
 26 27  1  0
 27 28  1  0
 16 29  1  0
 29 30  2  0
  7  2  1  0
 30  9  1  0
 30 13  1  0
 28 23  1  0
  1 31  1  0
  1 32  1  0
  8 33  1  0
 14 34  1  0
 15 35  1  0
 21 36  1  0
 21 37  1  0
 22 38  1  0
 22 39  1  0
 24 40  1  0
 24 41  1  0
 25 42  1  0
 25 43  1  0
 27 44  1  0
 27 45  1  0
 28 46  1  0
 28 47  1  0
 29 48  1  0
M  CHG  5   3  -1   6  -1  11  -1  12  -1  20  -1
M  END
>  <UniqueID>  (7) 
7

>  <SMILES>  (7) 
C=c1[n-]c(=O)[n-]c1=Cc1c([O-])[n-]c2ccc(S(=O)(=O)[N-]CCN3CCOCC3)cc12

>  <Energy>  (7) 
131.91648602158088

>  <Genealogy>  (7) 
C=c1[n-]c(=O)[n-]c1=Cc1c([O-])[n-]c2ccc(S(=O)(=O)[N-]CCN3CCOCC3)cc12 (protonated)
C=c1[n-]c(=O)[n-]c1=Cc1c([O-])[n-]c2ccc(S(=O)(=O)[N-]CCN3CCOCC3)cc12 (3D coordinates assigned)
C=c1[n-]c(=O)[n-]c1=Cc1c([O-])[n-]c2ccc(S(=O)(=O)[N-]CCN3CCOCC3)cc12 (nonaromatic ring conformer: 131.91648602158088 kcal/mol)

>  <smiles>  (7) 
C=c1[nH]c(=O)[nH]c1=Cc1c(O)[nH]c2ccc(S(=O)(=O)NCCN3CCOCC3)cc12

>  <score_type>  (7) 
oracle

>  <origin>  (7) 
adg

>  <m_score__min__energy>  (7) 
-17.489999999999998

>  <m_primary>  (7) 
energy

$$$$
7:0
     RDKit          3D

 78 82  0  0  0  0  0  0  0  0999 V2000
   58.4050   32.3300   50.5880 C   0  0  0  0  0  0  0  0  0  0  0  0
   58.8000   32.0030   49.2580 O   0  0  0  0  0  0  0  0  0  0  0  0
   58.8920   32.9260   48.2040 C   0  0  0  0  0  0  0  0  0  0  0  0
   57.9760   32.9210   47.1300 C   0  0  0  0  0  0  0  0  0  0  0  0
   58.0860   33.8620   46.1030 C   0  0  0  0  0  0  0  0  0  0  0  0
   59.1020   34.8170   46.1320 C   0  0  0  0  0  0  0  0  0  0  0  0
   60.0160   34.8330   47.1880 C   0  0  0  0  0  0  0  0  0  0  0  0
   59.9290   33.8840   48.2200 C   0  0  0  0  0  0  0  0  0  0  0  0
   60.9120   33.9460   49.3570 C   0  0  0  0  0  0  0  0  0  0  0  0
   62.2350   34.2630   48.8430 N   0  0  0  0  0  0  0  0  0  0  0  0
   62.9270   33.4150   47.9240 C   0  0  0  0  0  0  0  0  0  0  0  0
   62.9620   33.7050   46.6960 O   0  0  0  0  0  0  0  0  0  0  0  0
   63.5890   32.1630   48.4180 C   0  0  0  0  0  0  0  0  0  0  0  0
   62.5810   31.2350   48.9680 N   0  0  0  0  0  0  0  0  0  0  0  0
   62.5750   31.0690   50.3270 C   0  0  0  0  0  0  0  0  0  0  0  0
   61.6230   30.2680   50.9640 C   0  0  0  0  0  0  0  0  0  0  0  0
   61.6160   30.1830   52.4430 C   0  0  0  0  0  0  0  0  0  0  0  0
   60.7180   30.7830   53.0920 O   0  0  0  0  0  0  0  0  0  0  0  0
   62.6210   29.4540   53.1600 N   0  0  0  0  0  0  0  0  0  0  0  0
   63.8750   29.0170   52.6130 C   0  0  0  0  0  0  0  0  0  0  0  0
   64.2030   27.6540   52.5250 C   0  0  0  0  0  0  0  0  0  0  0  0
   65.4350   27.2580   52.0030 C   0  0  0  0  0  0  0  0  0  0  0  0
   66.3670   28.2180   51.5660 C   0  0  0  0  0  0  0  0  0  0  0  0
   67.6150   27.8560   51.0320 O   0  0  0  0  0  0  0  0  0  0  0  0
   67.8100   26.8290   50.0640 C   0  0  0  0  0  0  0  0  0  0  0  0
   66.0520   29.5830   51.6670 C   0  0  0  0  0  0  0  0  0  0  0  0
   67.0010   30.5190   51.2250 O   0  0  0  0  0  0  0  0  0  0  0  0
   66.6850   31.7310   50.5470 C   0  0  0  0  0  0  0  0  0  0  0  0
   64.8090   29.9750   52.2010 C   0  0  0  0  0  0  0  0  0  0  0  0
   60.6750   29.5890   50.1880 C   0  0  0  0  0  0  0  0  0  0  0  0
   59.8390   28.8240   50.7450 O   0  0  0  0  0  0  0  0  0  0  0  0
   60.6630   29.7590   48.7940 C   0  0  0  0  0  0  0  0  0  0  0  0
   59.6920   29.1150   48.0020 C   0  0  0  0  0  0  0  0  0  0  0  0
   59.6560   29.3080   46.6190 C   0  0  0  0  0  0  0  0  0  0  0  0
   58.4110   28.5420   45.6360 S   0  0  0  0  0  0  0  0  0  0  0  0
   57.0830   28.6260   46.3360 O   0  0  0  0  0  0  0  0  0  0  0  0
   58.7660   27.0900   45.4700 O   0  0  0  0  0  0  0  0  0  0  0  0
   58.3280   29.3050   44.0620 N   0  0  0  0  0  0  0  0  0  0  0  0
   58.3100   30.7760   44.1650 C   0  0  0  0  0  0  0  0  0  0  0  0
   56.9430   31.3150   44.6530 C   0  0  0  0  0  0  0  0  0  0  0  0
   55.8850   30.3800   44.5180 O   0  0  0  0  0  0  0  0  0  0  0  0
   55.9740   29.7150   43.2780 C   0  0  0  0  0  0  0  0  0  0  0  0
   57.2010   28.7850   43.2560 C   0  0  0  0  0  0  0  0  0  0  0  0
   60.5850   30.1560   46.0170 C   0  0  0  0  0  0  0  0  0  0  0  0
   61.5570   30.8000   46.7820 C   0  0  0  0  0  0  0  0  0  0  0  0
   61.6270   30.6100   48.1850 C   0  0  0  0  0  0  0  0  0  0  0  0
   59.0488   31.7970   51.3032 H   0  0  0  0  0  0  0  0  0  0  0  0
   58.5034   33.4145   50.7436 H   0  0  0  0  0  0  0  0  0  0  0  0
   57.3580   32.0308   50.7436 H   0  0  0  0  0  0  0  0  0  0  0  0
   57.1709   32.1720   47.1014 H   0  0  0  0  0  0  0  0  0  0  0  0
   57.3690   33.8495   45.2689 H   0  0  0  0  0  0  0  0  0  0  0  0
   59.1835   35.5578   45.3230 H   0  0  0  0  0  0  0  0  0  0  0  0
   60.8097   35.5942   47.2117 H   0  0  0  0  0  0  0  0  0  0  0  0
   60.5997   34.7246   50.0685 H   0  0  0  0  0  0  0  0  0  0  0  0
   60.9424   32.9715   49.8664 H   0  0  0  0  0  0  0  0  0  0  0  0
   64.1137   31.6759   47.5829 H   0  0  0  0  0  0  0  0  0  0  0  0
   64.3053   32.4250   49.2106 H   0  0  0  0  0  0  0  0  0  0  0  0
   63.3386   31.5788   50.9328 H   0  0  0  0  0  0  0  0  0  0  0  0
   63.4851   26.8950   52.8693 H   0  0  0  0  0  0  0  0  0  0  0  0
   65.6796   26.1879   51.9325 H   0  0  0  0  0  0  0  0  0  0  0  0
   67.9916   25.8724   50.5758 H   0  0  0  0  0  0  0  0  0  0  0  0
   66.9121   26.7433   49.4344 H   0  0  0  0  0  0  0  0  0  0  0  0
   68.6768   27.0784   49.4344 H   0  0  0  0  0  0  0  0  0  0  0  0
   66.4791   32.5207   51.2845 H   0  0  0  0  0  0  0  0  0  0  0  0
   67.5350   32.0308   49.9164 H   0  0  0  0  0  0  0  0  0  0  0  0
   65.7968   31.5776   49.9164 H   0  0  0  0  0  0  0  0  0  0  0  0
   64.5697   31.0445   52.2953 H   0  0  0  0  0  0  0  0  0  0  0  0
   58.9539   28.4527   48.4781 H   0  0  0  0  0  0  0  0  0  0  0  0
   59.0882   31.0902   44.8761 H   0  0  0  0  0  0  0  0  0  0  0  0
   58.4938   31.1856   43.1608 H   0  0  0  0  0  0  0  0  0  0  0  0
   57.0347   31.5860   45.7152 H   0  0  0  0  0  0  0  0  0  0  0  0
   56.6925   32.1803   44.0217 H   0  0  0  0  0  0  0  0  0  0  0  0
   55.0636   29.1181   43.1204 H   0  0  0  0  0  0  0  0  0  0  0  0
   56.0780   30.4629   42.4781 H   0  0  0  0  0  0  0  0  0  0  0  0
   56.9058   27.8038   43.6562 H   0  0  0  0  0  0  0  0  0  0  0  0
   57.5442   28.7134   42.2134 H   0  0  0  0  0  0  0  0  0  0  0  0
   60.5508   30.3183   44.9296 H   0  0  0  0  0  0  0  0  0  0  0  0
   62.2807   31.4658   46.2890 H   0  0  0  0  0  0  0  0  0  0  0  0
  1  2  1  0
  2  3  1  0
  3  4  2  0
  4  5  1  0
  5  6  2  0
  6  7  1  0
  7  8  2  0
  8  9  1  0
  9 10  1  0
 10 11  1  0
 11 12  2  0
 11 13  1  0
 13 14  1  0
 14 15  1  0
 15 16  2  0
 16 17  1  0
 17 18  2  0
 17 19  1  0
 19 20  1  0
 20 21  2  0
 21 22  1  0
 22 23  2  0
 23 24  1  0
 24 25  1  0
 23 26  1  0
 26 27  1  0
 27 28  1  0
 26 29  2  0
 16 30  1  0
 30 31  2  0
 30 32  1  0
 32 33  2  0
 33 34  1  0
 34 35  1  0
 35 36  2  0
 35 37  2  0
 35 38  1  0
 38 39  1  0
 39 40  1  0
 40 41  1  0
 41 42  1  0
 42 43  1  0
 34 44  2  0
 44 45  1  0
 45 46  2  0
  8  3  1  0
 46 14  1  0
 29 20  1  0
 46 32  1  0
 43 38  1  0
  1 47  1  0
  1 48  1  0
  1 49  1  0
  4 50  1  0
  5 51  1  0
  6 52  1  0
  7 53  1  0
  9 54  1  0
  9 55  1  0
 13 56  1  0
 13 57  1  0
 15 58  1  0
 21 59  1  0
 22 60  1  0
 25 61  1  0
 25 62  1  0
 25 63  1  0
 28 64  1  0
 28 65  1  0
 28 66  1  0
 29 67  1  0
 33 68  1  0
 39 69  1  0
 39 70  1  0
 40 71  1  0
 40 72  1  0
 42 73  1  0
 42 74  1  0
 43 75  1  0
 43 76  1  0
 44 77  1  0
 45 78  1  0
M  CHG  2  10  -1  19  -1
M  END
>  <UniqueID>  (8) 
8

>  <SMILES>  (8) 
COc1ccccc1C[N-]C(=O)Cn1cc(C(=O)[N-]c2ccc(OC)c(OC)c2)c(=O)c2cc(S(=O)(=O)N3CCOCC3)ccc21

>  <Energy>  (8) 
106.86815612156518

>  <Genealogy>  (8) 
COc1ccccc1C[N-]C(=O)Cn1cc(C(=O)[N-]c2ccc(OC)c(OC)c2)c(=O)c2cc(S(=O)(=O)N3CCOCC3)ccc21 (protonated)
COc1ccccc1C[N-]C(=O)Cn1cc(C(=O)[N-]c2ccc(OC)c(OC)c2)c(=O)c2cc(S(=O)(=O)N3CCOCC3)ccc21 (3D coordinates assigned)
COc1ccccc1C[N-]C(=O)Cn1cc(C(=O)[N-]c2ccc(OC)c(OC)c2)c(=O)c2cc(S(=O)(=O)N3CCOCC3)ccc21 (nonaromatic ring conformer: 106.86815612156518 kcal/mol)

>  <smiles>  (8) 
COc1ccccc1CNC(=O)Cn1cc(C(=O)Nc2ccc(OC)c(OC)c2)c(=O)c2cc(S(=O)(=O)N3CCOCC3)ccc21

>  <score_type>  (8) 
oracle

>  <origin>  (8) 
adg

>  <m_score__min__energy>  (8) 
-12.630000000000001

>  <m_primary>  (8) 
energy

$$$$
8:0
     RDKit          3D

 47 49  0  0  0  0  0  0  0  0999 V2000
   54.1150   26.7450   46.3710 H   0  0  0  0  0  0  0  0  0  0  0  0
   54.3090   25.9290   45.7480 N   0  0  0  0  0  0  0  0  0  0  0  0
   55.9970   25.5820   45.8820 S   0  0  0  0  0  0  0  0  0  0  0  0
   56.2810   25.0050   47.2400 O   0  0  0  0  0  0  0  0  0  0  0  0
   56.3860   24.5730   44.8380 O   0  0  0  0  0  0  0  0  0  0  0  0
   56.9210   27.0630   45.6540 C   0  0  0  0  0  0  0  0  0  0  0  0
   56.2750   28.2430   45.2650 C   0  0  0  0  0  0  0  0  0  0  0  0
   55.1886   28.2419   45.0927 H   0  0  0  0  0  0  0  0  0  0  0  0
   57.0060   29.4220   45.0950 C   0  0  0  0  0  0  0  0  0  0  0  0
   56.4965   30.3402   44.7673 H   0  0  0  0  0  0  0  0  0  0  0  0
   58.3890   29.4390   45.3410 C   0  0  0  0  0  0  0  0  0  0  0  0
   59.1710   30.6230   45.1200 N   0  0  0  0  0  0  0  0  0  0  0  0
   58.9500   31.8220   45.5860 C   0  0  0  0  0  0  0  0  0  0  0  0
   58.3370   32.8360   44.8250 C   0  0  0  0  0  0  0  0  0  0  0  0
   58.0298   32.6402   43.7871 H   0  0  0  0  0  0  0  0  0  0  0  0
   58.1220   34.0900   45.3960 C   0  0  0  0  0  0  0  0  0  0  0  0
   57.6533   34.8891   44.8029 H   0  0  0  0  0  0  0  0  0  0  0  0
   58.4890   34.3280   46.6810 N   0  0  0  0  0  0  0  0  0  0  0  0
   59.0690   33.3710   47.4570 C   0  0  0  0  0  0  0  0  0  0  0  0
   59.4380   33.6850   48.8560 C   0  0  0  0  0  0  0  0  0  0  0  0
   60.3410   34.5340   49.0890 O   0  0  0  0  0  0  0  0  0  0  0  0
   58.7710   33.0330   49.9500 N   0  0  0  0  0  0  0  0  0  0  0  0
   57.9530   32.4200   49.7400 H   0  0  0  0  0  0  0  0  0  0  0  0
   59.1850   33.2270   51.3470 C   0  0  2  0  0  0  0  0  0  0  0  0
   59.8654   34.0903   51.3897 H   0  0  0  0  0  0  0  0  0  0  0  0
   59.9430   31.9880   51.8550 C   0  0  0  0  0  0  0  0  0  0  0  0
   60.7940   31.7928   51.1859 H   0  0  0  0  0  0  0  0  0  0  0  0
   60.2835   32.1938   52.8805 H   0  0  0  0  0  0  0  0  0  0  0  0
   59.0430   30.7390   51.8930 C   0  0  0  0  0  0  0  0  0  0  0  0
   59.0069   30.3073   50.8819 H   0  0  0  0  0  0  0  0  0  0  0  0
   59.4824   30.0512   52.6305 H   0  0  0  0  0  0  0  0  0  0  0  0
   57.5900   31.0250   52.3540 C   0  0  2  0  0  0  0  0  0  0  0  0
   57.3101   30.2168   53.0457 H   0  0  0  0  0  0  0  0  0  0  0  0
   56.7150   31.0350   51.2540 O   0  0  0  0  0  0  0  0  0  0  0  0
   56.2680   31.9200   51.2510 H   0  0  0  0  0  0  0  0  0  0  0  0
   57.4760   32.3620   53.1010 C   0  0  0  0  0  0  0  0  0  0  0  0
   56.4218   32.5287   53.3673 H   0  0  0  0  0  0  0  0  0  0  0  0
   58.1138   32.3011   53.9951 H   0  0  0  0  0  0  0  0  0  0  0  0
   57.9670   33.5540   52.2550 C   0  0  0  0  0  0  0  0  0  0  0  0
   57.1377   33.8878   51.6140 H   0  0  0  0  0  0  0  0  0  0  0  0
   58.2964   34.3305   52.9611 H   0  0  0  0  0  0  0  0  0  0  0  0
   59.3000   32.0950   46.9150 C   0  0  0  0  0  0  0  0  0  0  0  0
   59.7563   31.3094   47.5351 H   0  0  0  0  0  0  0  0  0  0  0  0
   59.0370   28.2510   45.7030 C   0  0  0  0  0  0  0  0  0  0  0  0
   60.1265   28.2460   45.8542 H   0  0  0  0  0  0  0  0  0  0  0  0
   58.3060   27.0720   45.8730 C   0  0  0  0  0  0  0  0  0  0  0  0
   58.8187   26.1483   46.1795 H   0  0  0  0  0  0  0  0  0  0  0  0
  1  2  1  0
  2  3  1  0
  3  4  2  0
  3  5  2  0
  3  6  1  0
  6  7  2  0
  7  8  1  0
  7  9  1  0
  9 10  1  0
  9 11  2  0
 11 12  1  0
 12 13  2  0
 13 14  1  0
 14 15  1  0
 14 16  2  0
 16 17  1  0
 16 18  1  0
 18 19  1  0
 19 20  1  0
 20 21  2  0
 20 22  1  0
 22 23  1  0
 22 24  1  0
 24 25  1  6
 24 26  1  0
 26 27  1  0
 26 28  1  0
 26 29  1  0
 29 30  1  0
 29 31  1  0
 29 32  1  0
 32 33  1  1
 32 34  1  0
 34 35  1  0
 32 36  1  0
 36 37  1  0
 36 38  1  0
 36 39  1  0
 39 40  1  0
 39 41  1  0
 19 42  2  0
 42 43  1  0
 11 44  1  0
 44 45  1  0
 44 46  2  0
 46 47  1  0
 46  6  1  0
 42 13  1  0
 39 24  1  0
M  CHG  2   2  -1  18  -1
M  END
>  <UniqueID>  (9) 
9

>  <SMILES>  (9) 
[NH-]S(=O)(=O)c1ccc(/N=c2\cc[n-]c(C(=O)NC3CCC(O)CC3)c2)cc1

>  <Energy>  (9) 
61.145557400036715

>  <Genealogy>  (9) 
[NH-]S(=O)(=O)c1ccc(N=c2cc[n-]c(C(=O)NC3CCC(O)CC3)c2)cc1 (protonated)
[NH-]S(=O)(=O)c1ccc(/N=c2\cc[n-]c(C(=O)NC3CCC(O)CC3)c2)cc1 (cis-trans isomerization)
[NH-]S(=O)(=O)c1ccc(/N=c2\cc[n-]c(C(=O)NC3CCC(O)CC3)c2)cc1 (3D coordinates assigned)
[NH-]S(=O)(=O)c1ccc(/N=c2\cc[n-]c(C(=O)NC3CCC(O)CC3)c2)cc1 (nonaromatic ring conformer: 61.145557400036715 kcal/mol)

>  <smiles>  (9) 
NS(=O)(=O)c1ccc(N=c2cc[nH]c(C(=O)NC3CCC(O)CC3)c2)cc1

>  <score_type>  (9) 
oracle

>  <origin>  (9) 
adg

>  <m_score__min__energy>  (9) 
-11.279999999999999

>  <m_primary>  (9) 
energy

$$$$
9:0
     RDKit          3D

 56 58  0  0  0  0  0  0  0  0999 V2000
   59.8200   31.7790   50.1860 C   0  0  0  0  0  0  0  0  0  0  0  0
   59.3160   31.1080   48.9860 N   0  0  0  0  0  0  0  0  0  0  0  0
   58.8900   29.7270   49.0550 C   0  0  0  0  0  0  0  0  0  0  0  0
   58.1440   29.3530   50.0050 O   0  0  0  0  0  0  0  0  0  0  0  0
   59.3170   28.7290   48.0030 C   0  0  0  0  0  0  0  0  0  0  0  0
   58.1400   28.0980   47.2500 C   0  0  0  0  0  0  0  0  0  0  0  0
   58.5260   26.7840   46.7270 N   0  0  0  0  0  0  0  0  0  0  0  0
   57.1810   25.6760   46.7540 S   0  0  0  0  0  0  0  0  0  0  0  0
   55.9250   26.4190   46.3850 O   0  0  0  0  0  0  0  0  0  0  0  0
   57.0090   25.1200   48.1400 O   0  0  0  0  0  0  0  0  0  0  0  0
   57.4280   24.3550   45.6090 C   0  0  0  0  0  0  0  0  0  0  0  0
   58.6070   23.5940   45.6460 C   0  0  0  0  0  0  0  0  0  0  0  0
   58.8160   22.5710   44.7150 C   0  0  0  0  0  0  0  0  0  0  0  0
   57.8430   22.2940   43.7510 C   0  0  0  0  0  0  0  0  0  0  0  0
   56.6650   23.0470   43.7100 C   0  0  0  0  0  0  0  0  0  0  0  0
   56.4600   24.0810   44.6310 C   0  0  0  0  0  0  0  0  0  0  0  0
   59.0310   31.9050   47.8240 C   0  0  0  0  0  0  0  0  0  0  0  0
   59.3890   33.2610   47.8000 C   0  0  0  0  0  0  0  0  0  0  0  0
   59.1160   34.0380   46.6700 C   0  0  0  0  0  0  0  0  0  0  0  0
   58.4920   33.4670   45.5590 C   0  0  0  0  0  0  0  0  0  0  0  0
   58.1460   32.1070   45.5680 C   0  0  0  0  0  0  0  0  0  0  0  0
   57.3490   31.3750   44.1760 S   0  0  0  0  0  0  0  0  0  0  0  0
   57.4230   32.3050   42.9950 O   0  0  0  0  0  0  0  0  0  0  0  0
   55.9040   31.1430   44.5210 O   0  0  0  0  0  0  0  0  0  0  0  0
   58.1140   29.8570   43.7750 N   0  0  0  0  0  0  0  0  0  0  0  0
   57.1430   28.7480   43.8700 C   0  0  0  0  0  0  0  0  0  0  0  0
   57.8560   27.3810   43.9380 C   0  0  0  0  0  0  0  0  0  0  0  0
   59.1720   27.4770   43.4320 O   0  0  0  0  0  0  0  0  0  0  0  0
   59.9630   28.2890   44.2870 C   0  0  0  0  0  0  0  0  0  0  0  0
   59.2650   29.6180   44.6620 C   0  0  0  0  0  0  0  0  0  0  0  0
   58.4270   31.3290   46.6990 C   0  0  0  0  0  0  0  0  0  0  0  0
   59.4358   31.2675   51.0808 H   0  0  0  0  0  0  0  0  0  0  0  0
   60.9195   31.7474   50.1893 H   0  0  0  0  0  0  0  0  0  0  0  0
   59.4833   32.8262   50.1893 H   0  0  0  0  0  0  0  0  0  0  0  0
   59.9612   29.2437   47.2749 H   0  0  0  0  0  0  0  0  0  0  0  0
   59.8446   27.9152   48.5221 H   0  0  0  0  0  0  0  0  0  0  0  0
   57.2888   27.9810   47.9369 H   0  0  0  0  0  0  0  0  0  0  0  0
   57.8559   28.7511   46.4117 H   0  0  0  0  0  0  0  0  0  0  0  0
   59.3699   23.8030   46.4104 H   0  0  0  0  0  0  0  0  0  0  0  0
   59.7463   21.9846   44.7418 H   0  0  0  0  0  0  0  0  0  0  0  0
   58.0035   21.4838   43.0245 H   0  0  0  0  0  0  0  0  0  0  0  0
   55.8983   22.8263   42.9527 H   0  0  0  0  0  0  0  0  0  0  0  0
   55.5383   24.6798   44.5879 H   0  0  0  0  0  0  0  0  0  0  0  0
   59.8851   33.7137   48.6712 H   0  0  0  0  0  0  0  0  0  0  0  0
   59.3937   35.1023   46.6562 H   0  0  0  0  0  0  0  0  0  0  0  0
   58.2713   34.0840   44.6755 H   0  0  0  0  0  0  0  0  0  0  0  0
   58.4570   29.9280   42.7890 H   0  0  0  0  0  0  0  0  0  0  0  0
   56.5356   28.8806   44.7775 H   0  0  0  0  0  0  0  0  0  0  0  0
   56.5093   28.7641   42.9710 H   0  0  0  0  0  0  0  0  0  0  0  0
   57.8955   27.0463   44.9851 H   0  0  0  0  0  0  0  0  0  0  0  0
   57.2945   26.6591   43.3268 H   0  0  0  0  0  0  0  0  0  0  0  0
   60.1721   27.7286   45.2102 H   0  0  0  0  0  0  0  0  0  0  0  0
   60.8870   28.5402   43.7455 H   0  0  0  0  0  0  0  0  0  0  0  0
   58.9156   29.5634   45.7036 H   0  0  0  0  0  0  0  0  0  0  0  0
   59.9824   30.4441   44.5488 H   0  0  0  0  0  0  0  0  0  0  0  0
   58.1716   30.2591   46.7035 H   0  0  0  0  0  0  0  0  0  0  0  0
  1  2  1  0
  2  3  1  0
  3  4  2  0
  3  5  1  0
  5  6  1  0
  6  7  1  0
  7  8  1  0
  8  9  2  0
  8 10  2  0
  8 11  1  0
 11 12  2  0
 12 13  1  0
 13 14  2  0
 14 15  1  0
 15 16  2  0
  2 17  1  0
 17 18  2  0
 18 19  1  0
 19 20  2  0
 20 21  1  0
 21 22  1  0
 22 23  2  0
 22 24  2  0
 22 25  1  0
 25 26  1  0
 26 27  1  0
 27 28  1  0
 28 29  1  0
 29 30  1  0
 21 31  2  0
 16 11  1  0
 31 17  1  0
 30 25  1  0
  1 32  1  0
  1 33  1  0
  1 34  1  0
  5 35  1  0
  5 36  1  0
  6 37  1  0
  6 38  1  0
 12 39  1  0
 13 40  1  0
 14 41  1  0
 15 42  1  0
 16 43  1  0
 18 44  1  0
 19 45  1  0
 20 46  1  0
 25 47  1  0
 26 48  1  0
 26 49  1  0
 27 50  1  0
 27 51  1  0
 29 52  1  0
 29 53  1  0
 30 54  1  0
 30 55  1  0
 31 56  1  0
M  CHG  2   7  -1  25   1
M  END
>  <UniqueID>  (10) 
10

>  <SMILES>  (10) 
CN(C(=O)CC[N-]S(=O)(=O)c1ccccc1)c1cccc(S(=O)(=O)[NH+]2CCOCC2)c1

>  <Energy>  (10) 
64.06538615567348

>  <Genealogy>  (10) 
CN(C(=O)CC[N-]S(=O)(=O)c1ccccc1)c1cccc(S(=O)(=O)[NH+]2CCOCC2)c1 (protonated)
CN(C(=O)CC[N-]S(=O)(=O)c1ccccc1)c1cccc(S(=O)(=O)[NH+]2CCOCC2)c1 (3D coordinates assigned)
CN(C(=O)CC[N-]S(=O)(=O)c1ccccc1)c1cccc(S(=O)(=O)[NH+]2CCOCC2)c1 (nonaromatic ring conformer: 64.06538615567348 kcal/mol)

>  <smiles>  (10) 
CN(C(=O)CCNS(=O)(=O)c1ccccc1)c1cccc(S(=O)(=O)N2CCOCC2)c1

>  <score_type>  (10) 
oracle

>  <origin>  (10) 
adg

>  <m_score__min__energy>  (10) 
-9.9000000000000004

>  <m_primary>  (10) 
energy

$$$$
10:0
     RDKit          3D

 33 34  0  0  0  0  0  0  0  0999 V2000
   57.8340   27.1080   45.8350 C   0  0  0  0  0  0  0  0  0  0  0  0
   57.4530   28.4840   46.3710 C   0  0  0  0  0  0  0  0  0  0  0  0
   57.4530   29.4810   45.2830 N   0  0  0  0  0  0  0  0  0  0  0  0
   56.3000   29.6970   44.5690 C   0  0  0  0  0  0  0  0  0  0  0  0
   55.1450   28.9680   44.8380 O   0  0  0  0  0  0  0  0  0  0  0  0
   56.2620   30.6580   43.5590 C   0  0  0  0  0  0  0  0  0  0  0  0
   57.4050   31.4070   43.3070 C   0  0  0  0  0  0  0  0  0  0  0  0
   57.4040   32.2840   42.4060 O   0  0  0  0  0  0  0  0  0  0  0  0
   58.5240   31.1890   44.0370 N   0  0  0  0  0  0  0  0  0  0  0  0
   58.5670   30.2440   45.0120 C   0  0  0  0  0  0  0  0  0  0  0  0
   60.1140   30.0510   45.9160 S   0  0  0  0  0  0  0  0  0  0  0  0
   59.6450   31.1800   47.2760 C   0  0  0  0  0  0  0  0  0  0  0  0
   59.8070   32.6160   46.8690 C   0  0  0  0  0  0  0  0  0  0  0  0
   58.8310   33.4970   46.4420 C   0  0  0  0  0  0  0  0  0  0  0  0
   57.3760   33.2040   46.2650 C   0  0  0  0  0  0  0  0  0  0  0  0
   59.4010   34.6740   46.1180 N   0  0  0  0  0  0  0  0  0  0  0  0
   60.6790   34.5540   46.3440 O   0  0  0  0  0  0  0  0  0  0  0  0
   60.9730   33.3530   46.7880 C   0  0  0  0  0  0  0  0  0  0  0  0
   62.3530   32.9010   47.1380 C   0  0  0  0  0  0  0  0  0  0  0  0
   58.0229   26.4259   46.6771 H   0  0  0  0  0  0  0  0  0  0  0  0
   57.0114   26.7131   45.2207 H   0  0  0  0  0  0  0  0  0  0  0  0
   58.7425   27.1925   45.2207 H   0  0  0  0  0  0  0  0  0  0  0  0
   56.4482   28.4337   46.8158 H   0  0  0  0  0  0  0  0  0  0  0  0
   58.1893   28.7862   47.1303 H   0  0  0  0  0  0  0  0  0  0  0  0
   55.3451   30.8199   42.9733 H   0  0  0  0  0  0  0  0  0  0  0  0
   58.5939   30.9998   47.5458 H   0  0  0  0  0  0  0  0  0  0  0  0
   60.3044   30.9845   48.1344 H   0  0  0  0  0  0  0  0  0  0  0  0
   56.8987   33.1079   47.2514 H   0  0  0  0  0  0  0  0  0  0  0  0
   56.9020   34.0247   45.7067 H   0  0  0  0  0  0  0  0  0  0  0  0
   57.2566   32.2638   45.7067 H   0  0  0  0  0  0  0  0  0  0  0  0
   62.4608   32.8657   48.2321 H   0  0  0  0  0  0  0  0  0  0  0  0
   62.5277   31.8987   46.7198 H   0  0  0  0  0  0  0  0  0  0  0  0
   63.0868   33.6058   46.7198 H   0  0  0  0  0  0  0  0  0  0  0  0
  1  2  1  0
  2  3  1  0
  3  4  1  0
  4  5  1  0
  4  6  2  0
  6  7  1  0
  7  8  2  0
  7  9  1  0
  9 10  2  0
 10 11  1  0
 11 12  1  0
 12 13  1  0
 13 14  1  0
 14 15  1  0
 14 16  2  0
 16 17  1  0
 17 18  1  0
 18 19  1  0
 10  3  1  0
 18 13  2  0
  1 20  1  0
  1 21  1  0
  1 22  1  0
  2 23  1  0
  2 24  1  0
  6 25  1  0
 12 26  1  0
 12 27  1  0
 15 28  1  0
 15 29  1  0
 15 30  1  0
 19 31  1  0
 19 32  1  0
 19 33  1  0
M  CHG  1   5  -1
M  END
>  <UniqueID>  (11) 
11

>  <SMILES>  (11) 
CCn1c([O-])cc(=O)nc1SCc1c(C)noc1C

>  <Energy>  (11) 
56.67924779508117

>  <Genealogy>  (11) 
CCn1c([O-])cc(=O)nc1SCc1c(C)noc1C (protonated)
CCn1c([O-])cc(=O)nc1SCc1c(C)noc1C (3D coordinates assigned)
CCn1c([O-])cc(=O)nc1SCc1c(C)noc1C (optimized conformer: 56.67924779508117 kcal/mol)

>  <smiles>  (11) 
CCn1c(O)cc(=O)nc1SCc1c(C)noc1C

>  <score_type>  (11) 
oracle

>  <origin>  (11) 
adg

>  <m_score__min__energy>  (11) 
-10.02

>  <m_primary>  (11) 
energy

$$$$
11:0
     RDKit          3D

 69 73  0  0  0  0  0  0  0  0999 V2000
   54.9750   29.3420   44.4120 O   0  0  0  0  0  0  0  0  0  0  0  0
   56.1940   29.5660   44.6450 C   0  0  0  0  0  0  0  0  0  0  0  0
   56.8970   28.6910   45.5360 N   0  0  0  0  0  0  0  0  0  0  0  0
   58.2300   28.1490   45.2810 C   0  0  0  0  0  0  0  0  0  0  0  0
   59.2340   28.8300   46.1590 C   0  0  0  0  0  0  0  0  0  0  0  0
   60.1140   29.7870   45.6450 C   0  0  0  0  0  0  0  0  0  0  0  0
   60.9800   30.4140   46.4810 N   0  0  0  0  0  0  0  0  0  0  0  0
   61.0300   30.1380   47.8140 C   0  0  0  0  0  0  0  0  0  0  0  0
   61.9930   30.8970   48.6480 C   0  0  0  0  0  0  0  0  0  0  0  0
   61.8560   30.9710   49.8990 O   0  0  0  0  0  0  0  0  0  0  0  0
   63.0820   31.5740   48.0130 N   0  0  0  0  0  0  0  0  0  0  0  0
   63.1310   33.0190   47.8080 C   0  0  0  0  0  0  0  0  0  0  0  0
   61.7420   33.5740   47.6520 C   0  0  0  0  0  0  0  0  0  0  0  0
   60.9650   33.8570   48.7900 C   0  0  0  0  0  0  0  0  0  0  0  0
   59.6710   34.3730   48.6510 C   0  0  0  0  0  0  0  0  0  0  0  0
   59.1410   34.6000   47.3790 C   0  0  0  0  0  0  0  0  0  0  0  0
   59.9010   34.3080   46.2420 C   0  0  0  0  0  0  0  0  0  0  0  0
   61.1970   33.7950   46.3750 C   0  0  0  0  0  0  0  0  0  0  0  0
   60.1480   29.1580   48.3290 C   0  0  0  0  0  0  0  0  0  0  0  0
   60.1360   28.7540   49.7420 C   0  0  0  0  0  0  0  0  0  0  0  0
   60.7160   27.6780   50.0560 O   0  0  0  0  0  0  0  0  0  0  0  0
   59.4800   29.5430   50.7580 N   0  0  0  0  0  0  0  0  0  0  0  0
   58.7850   30.8000   50.4360 C   0  0  0  0  0  0  0  0  0  0  0  0
   57.4280   30.8510   51.1490 C   0  0  0  0  0  0  0  0  0  0  0  0
   57.5350   30.4280   52.5540 N   0  0  0  0  0  0  0  0  0  0  0  0
   56.4210   30.6290   53.4410 C   0  0  0  0  0  0  0  0  0  0  0  0
   56.6120   31.1800   54.5590 O   0  0  0  0  0  0  0  0  0  0  0  0
   55.0570   30.1900   53.0740 C   0  0  0  0  0  0  0  0  0  0  0  0
   54.3230   30.8740   52.0880 C   0  0  0  0  0  0  0  0  0  0  0  0
   53.0420   30.4400   51.7300 C   0  0  0  0  0  0  0  0  0  0  0  0
   52.4900   29.3100   52.3360 C   0  0  0  0  0  0  0  0  0  0  0  0
   53.2170   28.6120   53.3050 C   0  0  0  0  0  0  0  0  0  0  0  0
   54.4970   29.0440   53.6680 C   0  0  0  0  0  0  0  0  0  0  0  0
   58.8380   30.0490   53.1100 C   0  0  0  0  0  0  0  0  0  0  0  0
   59.5570   29.0910   52.1550 C   0  0  0  0  0  0  0  0  0  0  0  0
   59.2770   28.5430   47.4860 N   0  0  0  0  0  0  0  0  0  0  0  0
   56.8630   30.7060   43.9770 C   0  0  0  0  0  0  0  0  0  0  0  0
   57.5020   31.6980   44.7400 C   0  0  0  0  0  0  0  0  0  0  0  0
   58.1180   32.7750   44.0970 C   0  0  0  0  0  0  0  0  0  0  0  0
   58.1100   32.8540   42.7400 N   0  0  0  0  0  0  0  0  0  0  0  0
   57.4920   31.9150   41.9760 C   0  0  0  0  0  0  0  0  0  0  0  0
   56.8470   30.8310   42.5790 C   0  0  0  0  0  0  0  0  0  0  0  0
   58.2318   27.0698   45.4940 H   0  0  0  0  0  0  0  0  0  0  0  0
   58.4951   28.3206   44.2273 H   0  0  0  0  0  0  0  0  0  0  0  0
   60.1046   30.0297   44.5722 H   0  0  0  0  0  0  0  0  0  0  0  0
   63.6149   33.4919   48.6753 H   0  0  0  0  0  0  0  0  0  0  0  0
   63.7044   33.2303   46.8933 H   0  0  0  0  0  0  0  0  0  0  0  0
   61.3759   33.6721   49.7935 H   0  0  0  0  0  0  0  0  0  0  0  0
   59.0711   34.5999   49.5447 H   0  0  0  0  0  0  0  0  0  0  0  0
   58.1254   35.0086   47.2714 H   0  0  0  0  0  0  0  0  0  0  0  0
   59.4797   34.4817   45.2409 H   0  0  0  0  0  0  0  0  0  0  0  0
   61.7903   33.5643   45.4779 H   0  0  0  0  0  0  0  0  0  0  0  0
   59.4006   31.6503   50.7646 H   0  0  0  0  0  0  0  0  0  0  0  0
   58.6224   30.8527   49.3494 H   0  0  0  0  0  0  0  0  0  0  0  0
   57.0462   31.8821   51.1153 H   0  0  0  0  0  0  0  0  0  0  0  0
   56.7441   30.1602   50.6342 H   0  0  0  0  0  0  0  0  0  0  0  0
   54.7589   31.7556   51.5953 H   0  0  0  0  0  0  0  0  0  0  0  0
   52.4686   30.9903   50.9695 H   0  0  0  0  0  0  0  0  0  0  0  0
   51.4837   28.9690   52.0513 H   0  0  0  0  0  0  0  0  0  0  0  0
   52.7818   27.7218   53.7827 H   0  0  0  0  0  0  0  0  0  0  0  0
   55.0693   28.4843   54.4225 H   0  0  0  0  0  0  0  0  0  0  0  0
   59.4508   30.9517   53.2500 H   0  0  0  0  0  0  0  0  0  0  0  0
   58.6857   29.5476   54.0772 H   0  0  0  0  0  0  0  0  0  0  0  0
   60.6150   29.0247   52.4487 H   0  0  0  0  0  0  0  0  0  0  0  0
   59.0625   28.1107   52.2221 H   0  0  0  0  0  0  0  0  0  0  0  0
   57.5172   31.6272   45.8376 H   0  0  0  0  0  0  0  0  0  0  0  0
   58.6101   33.5600   44.6899 H   0  0  0  0  0  0  0  0  0  0  0  0
   57.4993   32.0082   40.8800 H   0  0  0  0  0  0  0  0  0  0  0  0
   56.3304   30.0811   41.9620 H   0  0  0  0  0  0  0  0  0  0  0  0
  1  2  2  0
  2  3  1  0
  3  4  1  0
  4  5  1  0
  5  6  2  0
  6  7  1  0
  7  8  2  0
  8  9  1  0
  9 10  2  0
  9 11  1  0
 11 12  1  0
 12 13  1  0
 13 14  2  0
 14 15  1  0
 15 16  2  0
 16 17  1  0
 17 18  2  0
  8 19  1  0
 19 20  1  0
 20 21  2  0
 20 22  1  0
 22 23  1  0
 23 24  1  0
 24 25  1  0
 25 26  1  0
 26 27  2  0
 26 28  1  0
 28 29  2  0
 29 30  1  0
 30 31  2  0
 31 32  1  0
 32 33  2  0
 25 34  1  0
 34 35  1  0
 19 36  2  0
  2 37  1  0
 37 38  2  0
 38 39  1  0
 39 40  2  0
 40 41  1  0
 41 42  2  0
 36  5  1  0
 42 37  1  0
 18 13  1  0
 35 22  1  0
 33 28  1  0
  4 43  1  0
  4 44  1  0
  6 45  1  0
 12 46  1  0
 12 47  1  0
 14 48  1  0
 15 49  1  0
 16 50  1  0
 17 51  1  0
 18 52  1  0
 23 53  1  0
 23 54  1  0
 24 55  1  0
 24 56  1  0
 29 57  1  0
 30 58  1  0
 31 59  1  0
 32 60  1  0
 33 61  1  0
 34 62  1  0
 34 63  1  0
 35 64  1  0
 35 65  1  0
 38 66  1  0
 39 67  1  0
 41 68  1  0
 42 69  1  0
M  CHG  2   3  -1  11  -1
M  END
>  <UniqueID>  (12) 
12

>  <SMILES>  (12) 
O=C([N-]Cc1cnc(C(=O)[N-]Cc2ccccc2)c(C(=O)N2CCN(C(=O)c3ccccc3)CC2)n1)c1ccncc1

>  <Energy>  (12) 
94.32605078775764

>  <Genealogy>  (12) 
O=C([N-]Cc1cnc(C(=O)[N-]Cc2ccccc2)c(C(=O)N2CCN(C(=O)c3ccccc3)CC2)n1)c1ccncc1 (protonated)
O=C([N-]Cc1cnc(C(=O)[N-]Cc2ccccc2)c(C(=O)N2CCN(C(=O)c3ccccc3)CC2)n1)c1ccncc1 (3D coordinates assigned)
O=C([N-]Cc1cnc(C(=O)[N-]Cc2ccccc2)c(C(=O)N2CCN(C(=O)c3ccccc3)CC2)n1)c1ccncc1 (nonaromatic ring conformer: 94.32605078775764 kcal/mol)

>  <smiles>  (12) 
O=C(NCc1cnc(C(=O)NCc2ccccc2)c(C(=O)N2CCN(C(=O)c3ccccc3)CC2)n1)c1ccncc1

>  <score_type>  (12) 
oracle

>  <origin>  (12) 
adg

>  <m_score__min__energy>  (12) 
-12.789999999999999

>  <m_primary>  (12) 
energy

$$$$
12:0
     RDKit          3D

 59 62  0  0  0  0  0  0  0  0999 V2000
   58.5090   30.8200   47.5960 C   0  0  0  0  0  0  0  0  0  0  0  0
   58.4380   31.8050   46.4450 C   0  0  0  0  0  0  0  0  0  0  0  0
   57.7760   31.4580   45.2350 C   0  0  0  0  0  0  0  0  0  0  0  0
   57.0330   29.8680   44.9630 S   0  0  0  0  0  0  0  0  0  0  0  0
   55.5500   30.0060   44.7620 O   0  0  0  0  0  0  0  0  0  0  0  0
   57.6140   29.2680   43.7130 O   0  0  0  0  0  0  0  0  0  0  0  0
   57.3380   28.7820   46.2810 N   0  0  0  0  0  0  0  0  0  0  0  0
   57.8360   27.4500   46.1160 C   0  0  0  0  0  0  0  0  0  0  0  0
   56.9550   26.3970   45.8280 C   0  0  0  0  0  0  0  0  0  0  0  0
   57.4450   25.1130   45.5870 C   0  0  0  0  0  0  0  0  0  0  0  0
   58.8160   24.8650   45.6480 C   0  0  0  0  0  0  0  0  0  0  0  0
   59.7080   25.8960   45.9720 C   0  0  0  0  0  0  0  0  0  0  0  0
   61.0770   25.6360   46.0470 O   0  0  0  0  0  0  0  0  0  0  0  0
   59.2190   27.1920   46.2310 C   0  0  0  0  0  0  0  0  0  0  0  0
   60.1590   28.2880   46.5530 C   0  0  0  0  0  0  0  0  0  0  0  0
   60.6910   28.9330   45.6080 O   0  0  0  0  0  0  0  0  0  0  0  0
   60.4740   28.6280   47.9130 N   0  0  0  0  0  0  0  0  0  0  0  0
   60.3400   27.7120   49.0340 C   0  0  0  0  0  0  0  0  0  0  0  0
   60.7260   28.5170   50.2650 C   0  0  0  0  0  0  0  0  0  0  0  0
   61.5130   29.7190   49.7460 C   0  0  0  0  0  0  0  0  0  0  0  0
   61.1110   29.8810   48.2860 C   0  0  0  0  0  0  0  0  0  0  0  0
   57.7360   32.3820   44.1810 C   0  0  0  0  0  0  0  0  0  0  0  0
   58.3170   33.6380   44.3090 C   0  0  0  0  0  0  0  0  0  0  0  0
   58.9480   34.0040   45.4950 C   0  0  0  0  0  0  0  0  0  0  0  0
   59.6350   35.6230   45.6080 Cl  0  0  0  0  0  0  0  0  0  0  0  0
   59.0060   33.1020   46.5740 C   0  0  0  0  0  0  0  0  0  0  0  0
   59.6620   33.5310   47.8280 C   0  0  0  0  0  0  0  0  0  0  0  0
   58.9320   33.8610   48.8020 O   0  0  0  0  0  0  0  0  0  0  0  0
   61.1000   33.5650   47.9530 N   0  0  0  0  0  0  0  0  0  0  0  0
   61.9630   33.1280   46.8470 C   0  0  0  0  0  0  0  0  0  0  0  0
   63.3110   32.6440   47.3870 C   0  0  0  0  0  0  0  0  0  0  0  0
   63.8880   33.6220   48.2300 O   0  0  0  0  0  0  0  0  0  0  0  0
   63.0940   33.7710   49.3910 C   0  0  0  0  0  0  0  0  0  0  0  0
   61.7130   34.3390   49.0410 C   0  0  0  0  0  0  0  0  0  0  0  0
   58.4696   31.3669   48.5496 H   0  0  0  0  0  0  0  0  0  0  0  0
   57.6586   30.1248   47.5366 H   0  0  0  0  0  0  0  0  0  0  0  0
   59.4503   30.2539   47.5366 H   0  0  0  0  0  0  0  0  0  0  0  0
   55.8717   26.5846   45.7920 H   0  0  0  0  0  0  0  0  0  0  0  0
   56.7490   24.2953   45.3486 H   0  0  0  0  0  0  0  0  0  0  0  0
   59.1991   23.8549   45.4407 H   0  0  0  0  0  0  0  0  0  0  0  0
   61.7650   26.3490   45.8370 H   0  0  0  0  0  0  0  0  0  0  0  0
   59.3026   27.3557   49.1174 H   0  0  0  0  0  0  0  0  0  0  0  0
   60.9756   26.8225   48.9123 H   0  0  0  0  0  0  0  0  0  0  0  0
   59.8260   28.8512   50.8019 H   0  0  0  0  0  0  0  0  0  0  0  0
   61.3203   27.9179   50.9706 H   0  0  0  0  0  0  0  0  0  0  0  0
   61.2529   30.6224   50.3172 H   0  0  0  0  0  0  0  0  0  0  0  0
   62.5975   29.5687   49.8524 H   0  0  0  0  0  0  0  0  0  0  0  0
   60.4066   30.7182   48.1726 H   0  0  0  0  0  0  0  0  0  0  0  0
   61.9791   30.1015   47.6475 H   0  0  0  0  0  0  0  0  0  0  0  0
   57.2376   32.1088   43.2392 H   0  0  0  0  0  0  0  0  0  0  0  0
   58.2781   34.3469   43.4687 H   0  0  0  0  0  0  0  0  0  0  0  0
   61.4719   32.3056   46.3062 H   0  0  0  0  0  0  0  0  0  0  0  0
   62.1325   33.9763   46.1676 H   0  0  0  0  0  0  0  0  0  0  0  0
   63.1597   31.7168   47.9593 H   0  0  0  0  0  0  0  0  0  0  0  0
   63.9882   32.4610   46.5397 H   0  0  0  0  0  0  0  0  0  0  0  0
   62.9685   32.7887   49.8699 H   0  0  0  0  0  0  0  0  0  0  0  0
   63.5985   34.4701   50.0742 H   0  0  0  0  0  0  0  0  0  0  0  0
   61.0658   34.2906   49.9291 H   0  0  0  0  0  0  0  0  0  0  0  0
   61.8296   35.3827   48.7138 H   0  0  0  0  0  0  0  0  0  0  0  0
  1  2  1  0
  2  3  2  0
  3  4  1  0
  4  5  2  0
  4  6  2  0
  4  7  1  0
  7  8  1  0
  8  9  2  0
  9 10  1  0
 10 11  2  0
 11 12  1  0
 12 13  1  0
 12 14  2  0
 14 15  1  0
 15 16  2  0
 15 17  1  0
 17 18  1  0
 18 19  1  0
 19 20  1  0
 20 21  1  0
  3 22  1  0
 22 23  2  0
 23 24  1  0
 24 25  1  0
 24 26  2  0
 26 27  1  0
 27 28  2  0
 27 29  1  0
 29 30  1  0
 30 31  1  0
 31 32  1  0
 32 33  1  0
 33 34  1  0
 26  2  1  0
 34 29  1  0
 14  8  1  0
 21 17  1  0
  1 35  1  0
  1 36  1  0
  1 37  1  0
  9 38  1  0
 10 39  1  0
 11 40  1  0
 13 41  1  0
 18 42  1  0
 18 43  1  0
 19 44  1  0
 19 45  1  0
 20 46  1  0
 20 47  1  0
 21 48  1  0
 21 49  1  0
 22 50  1  0
 23 51  1  0
 30 52  1  0
 30 53  1  0
 31 54  1  0
 31 55  1  0
 33 56  1  0
 33 57  1  0
 34 58  1  0
 34 59  1  0
M  CHG  1   7  -1
M  END
>  <UniqueID>  (13) 
13

>  <SMILES>  (13) 
Cc1c(S(=O)(=O)[N-]c2cccc(O)c2C(=O)N2CCCC2)ccc(Cl)c1C(=O)N1CCOCC1

>  <Energy>  (13) 
87.74078241049536

>  <Genealogy>  (13) 
Cc1c(S(=O)(=O)[N-]c2cccc(O)c2C(=O)N2CCCC2)ccc(Cl)c1C(=O)N1CCOCC1 (protonated)
Cc1c(S(=O)(=O)[N-]c2cccc(O)c2C(=O)N2CCCC2)ccc(Cl)c1C(=O)N1CCOCC1 (3D coordinates assigned)
Cc1c(S(=O)(=O)[N-]c2cccc(O)c2C(=O)N2CCCC2)ccc(Cl)c1C(=O)N1CCOCC1 (nonaromatic ring conformer: 87.74078241049536 kcal/mol)

>  <smiles>  (13) 
Cc1c(S(=O)(=O)Nc2cccc(O)c2C(=O)N2CCCC2)ccc(Cl)c1C(=O)N1CCOCC1

>  <score_type>  (13) 
oracle

>  <origin>  (13) 
adg

>  <m_score__min__energy>  (13) 
-11.26

>  <m_primary>  (13) 
energy

$$$$
13:0
     RDKit          3D

 49 51  0  0  0  0  0  0  0  0999 V2000
   57.6960   28.2170   43.2850 C   0  0  0  0  0  0  0  0  0  0  0  0
   57.9710   29.2940   44.0440 C   0  0  0  0  0  0  0  0  0  0  0  0
   58.0580   30.5050   43.4120 N   0  0  0  0  0  0  0  0  0  0  0  0
   58.1000   31.6800   44.0880 C   0  0  0  0  0  0  0  0  0  0  0  0
   58.0450   31.6950   45.4830 C   0  0  0  0  0  0  0  0  0  0  0  0
   58.0670   32.9760   46.2240 C   0  0  0  0  0  0  0  0  0  0  0  0
   57.0100   33.6610   46.3060 O   0  0  0  0  0  0  0  0  0  0  0  0
   59.2700   33.4520   46.8530 N   0  0  0  0  0  0  0  0  0  0  0  0
   60.5100   33.5090   46.0710 C   0  0  0  0  0  0  0  0  0  0  0  0
   61.6320   34.1790   46.8660 C   0  0  0  0  0  0  0  0  0  0  0  0
   61.6550   33.6090   48.2300 N   0  0  0  0  0  0  0  0  0  0  0  0
   62.9080   33.9530   48.9710 C   0  0  0  0  0  0  0  0  0  0  0  0
   62.7800   33.6330   50.4770 C   0  0  0  0  0  0  0  0  0  0  0  0
   64.1230   33.1680   48.4250 C   0  0  0  0  0  0  0  0  0  0  0  0
   60.4360   34.0270   48.9810 C   0  0  0  0  0  0  0  0  0  0  0  0
   59.1740   34.2080   48.1050 C   0  0  0  0  0  0  0  0  0  0  0  0
   58.0310   30.4760   46.1650 C   0  0  0  0  0  0  0  0  0  0  0  0
   58.0600   29.2480   45.4750 C   0  0  0  0  0  0  0  0  0  0  0  0
   58.1970   28.1260   46.2300 C   0  0  0  0  0  0  0  0  0  0  0  0
   57.2830   26.9610   46.2590 C   0  0  0  0  0  0  0  0  0  0  0  0
   55.9660   27.0900   45.7930 C   0  0  0  0  0  0  0  0  0  0  0  0
   55.5200   28.2920   45.2550 O   0  0  0  0  0  0  0  0  0  0  0  0
   55.1160   26.0320   45.8550 N   0  0  0  0  0  0  0  0  0  0  0  0
   55.5130   24.8430   46.3790 C   0  0  0  0  0  0  0  0  0  0  0  0
   54.7110   23.8740   46.4200 O   0  0  0  0  0  0  0  0  0  0  0  0
   56.7720   24.7020   46.8670 N   0  0  0  0  0  0  0  0  0  0  0  0
   57.6590   25.7310   46.8310 C   0  0  0  0  0  0  0  0  0  0  0  0
   58.8080   25.5710   47.3230 O   0  0  0  0  0  0  0  0  0  0  0  0
   57.6164   27.2229   43.7491 H   0  0  0  0  0  0  0  0  0  0  0  0
   57.5509   28.3309   42.2006 H   0  0  0  0  0  0  0  0  0  0  0  0
   58.0430   30.5610   42.3670 H   0  0  0  0  0  0  0  0  0  0  0  0
   58.1779   32.6270   43.5338 H   0  0  0  0  0  0  0  0  0  0  0  0
   60.8169   32.4857   45.8090 H   0  0  0  0  0  0  0  0  0  0  0  0
   60.3235   34.1011   45.1629 H   0  0  0  0  0  0  0  0  0  0  0  0
   62.5970   33.9938   46.3716 H   0  0  0  0  0  0  0  0  0  0  0  0
   61.4577   35.2639   46.9170 H   0  0  0  0  0  0  0  0  0  0  0  0
   63.0619   35.0326   48.8267 H   0  0  0  0  0  0  0  0  0  0  0  0
   63.1251   34.4957   51.0658 H   0  0  0  0  0  0  0  0  0  0  0  0
   61.7280   33.4213   50.7187 H   0  0  0  0  0  0  0  0  0  0  0  0
   63.3958   32.7542   50.7187 H   0  0  0  0  0  0  0  0  0  0  0  0
   64.7187   32.7831   49.2658 H   0  0  0  0  0  0  0  0  0  0  0  0
   63.7699   32.3268   47.8104 H   0  0  0  0  0  0  0  0  0  0  0  0
   64.7447   33.8356   47.8104 H   0  0  0  0  0  0  0  0  0  0  0  0
   60.2204   33.2606   49.7401 H   0  0  0  0  0  0  0  0  0  0  0  0
   60.6590   35.0124   49.4161 H   0  0  0  0  0  0  0  0  0  0  0  0
   58.2964   33.8564   48.6673 H   0  0  0  0  0  0  0  0  0  0  0  0
   59.0805   35.2751   47.8548 H   0  0  0  0  0  0  0  0  0  0  0  0
   57.9966   30.4748   47.2645 H   0  0  0  0  0  0  0  0  0  0  0  0
   59.0777   28.0784   46.8873 H   0  0  0  0  0  0  0  0  0  0  0  0
  1  2  2  0
  2  3  1  0
  3  4  2  0
  4  5  1  0
  5  6  1  0
  6  7  2  0
  6  8  1  0
  8  9  1  0
  9 10  1  0
 10 11  1  0
 11 12  1  0
 12 13  1  0
 12 14  1  0
 11 15  1  0
 15 16  1  0
  5 17  2  0
 17 18  1  0
 18 19  2  3
 19 20  1  0
 20 21  2  0
 21 22  1  0
 21 23  1  0
 23 24  1  0
 24 25  2  0
 24 26  1  0
 26 27  1  0
 27 28  2  0
 18  2  1  0
 27 20  1  0
 16  8  1  0
  1 29  1  0
  1 30  1  0
  3 31  1  0
  4 32  1  0
  9 33  1  0
  9 34  1  0
 10 35  1  0
 10 36  1  0
 12 37  1  0
 13 38  1  0
 13 39  1  0
 13 40  1  0
 14 41  1  0
 14 42  1  0
 14 43  1  0
 15 44  1  0
 15 45  1  0
 16 46  1  0
 16 47  1  0
 17 48  1  0
 19 49  1  0
M  CHG  4   3   1  22  -1  23  -1  26  -1
M  END
>  <UniqueID>  (14) 
14

>  <SMILES>  (14) 
C=c1[nH+]cc(C(=O)N2CCN(C(C)C)CC2)cc1=Cc1c([O-])[n-]c(=O)[n-]c1=O

>  <Energy>  (14) 
88.02453507211115

>  <Genealogy>  (14) 
C=c1[nH+]cc(C(=O)N2CCN(C(C)C)CC2)cc1=Cc1c([O-])[n-]c(=O)[n-]c1=O (protonated)
C=c1[nH+]cc(C(=O)N2CCN(C(C)C)CC2)cc1=Cc1c([O-])[n-]c(=O)[n-]c1=O (3D coordinates assigned)
C=c1[nH+]cc(C(=O)N2CCN(C(C)C)CC2)cc1=Cc1c([O-])[n-]c(=O)[n-]c1=O (nonaromatic ring conformer: 88.02453507211115 kcal/mol)

>  <smiles>  (14) 
C=c1ncc(C(=O)N2CCN(C(C)C)CC2)cc1=Cc1c(O)[nH]c(=O)[nH]c1=O

>  <score_type>  (14) 
oracle

>  <origin>  (14) 
adg

>  <m_score__min__energy>  (14) 
-14.970000000000001

>  <m_primary>  (14) 
energy

$$$$
14:0
     RDKit          3D

 58 61  0  0  0  0  0  0  0  0999 V2000
   59.0480   34.4140   45.9160 C   0  0  0  0  0  0  0  0  0  0  0  0
   58.4570   33.1230   45.4300 C   0  0  0  0  0  0  0  0  0  0  0  0
   58.2820   32.0570   46.3250 C   0  0  0  0  0  0  0  0  0  0  0  0
   57.7440   30.8450   45.8820 C   0  0  0  0  0  0  0  0  0  0  0  0
   57.3930   30.6800   44.5350 C   0  0  0  0  0  0  0  0  0  0  0  0
   56.7300   29.1480   43.9770 S   0  0  0  0  0  0  0  0  0  0  0  0
   57.8410   28.2920   43.4370 O   0  0  0  0  0  0  0  0  0  0  0  0
   55.7420   29.3900   42.8700 O   0  0  0  0  0  0  0  0  0  0  0  0
   55.9470   28.3030   45.2680 N   0  0  0  0  0  0  0  0  0  0  0  0
   56.3830   27.0110   45.6890 C   0  0  0  0  0  0  0  0  0  0  0  0
   55.4360   26.0320   46.0000 C   0  0  0  0  0  0  0  0  0  0  0  0
   55.8460   24.7740   46.4430 C   0  0  0  0  0  0  0  0  0  0  0  0
   57.2070   24.4710   46.5640 C   0  0  0  0  0  0  0  0  0  0  0  0
   57.5610   23.1840   46.9730 O   0  0  0  0  0  0  0  0  0  0  0  0
   58.1740   25.4540   46.2420 C   0  0  0  0  0  0  0  0  0  0  0  0
   59.6220   25.1950   46.3780 C   0  0  0  0  0  0  0  0  0  0  0  0
   60.0860   24.0850   46.0080 O   0  0  0  0  0  0  0  0  0  0  0  0
   60.5060   26.1320   47.0110 N   0  0  0  0  0  0  0  0  0  0  0  0
   60.5830   27.5470   46.7800 C   0  0  0  0  0  0  0  0  0  0  0  0
   60.6820   28.0880   45.4850 C   0  0  0  0  0  0  0  0  0  0  0  0
   60.7790   29.4680   45.3070 C   0  0  0  0  0  0  0  0  0  0  0  0
   60.8060   30.3190   46.4140 C   0  0  0  0  0  0  0  0  0  0  0  0
   60.7420   29.7960   47.7130 C   0  0  0  0  0  0  0  0  0  0  0  0
   60.8600   30.8970   49.0970 S   0  0  0  0  0  0  0  0  0  0  0  0
   61.3600   30.1190   50.2830 O   0  0  0  0  0  0  0  0  0  0  0  0
   59.4840   31.4120   49.4160 O   0  0  0  0  0  0  0  0  0  0  0  0
   61.9520   32.2480   48.8680 N   0  0  0  0  0  0  0  0  0  0  0  0
   63.2570   31.8480   48.3250 C   0  0  0  0  0  0  0  0  0  0  0  0
   63.5320   32.6930   47.0910 C   0  0  0  0  0  0  0  0  0  0  0  0
   62.5230   33.8170   47.1420 C   0  0  0  0  0  0  0  0  0  0  0  0
   61.3900   33.2860   47.9980 C   0  0  0  0  0  0  0  0  0  0  0  0
   60.6410   28.4050   47.8860 C   0  0  0  0  0  0  0  0  0  0  0  0
   57.7470   26.7150   45.7920 C   0  0  0  0  0  0  0  0  0  0  0  0
   57.5840   31.7370   43.6360 C   0  0  0  0  0  0  0  0  0  0  0  0
   58.1070   32.9540   44.0800 C   0  0  0  0  0  0  0  0  0  0  0  0
   59.0526   34.4240   47.0159 H   0  0  0  0  0  0  0  0  0  0  0  0
   60.0789   34.5083   45.5441 H   0  0  0  0  0  0  0  0  0  0  0  0
   58.4457   35.2560   45.5441 H   0  0  0  0  0  0  0  0  0  0  0  0
   58.5694   32.1753   47.3802 H   0  0  0  0  0  0  0  0  0  0  0  0
   57.5957   30.0185   46.5926 H   0  0  0  0  0  0  0  0  0  0  0  0
   54.3637   26.2537   45.8953 H   0  0  0  0  0  0  0  0  0  0  0  0
   55.0932   24.0140   46.6993 H   0  0  0  0  0  0  0  0  0  0  0  0
   58.5180   22.8970   47.1290 H   0  0  0  0  0  0  0  0  0  0  0  0
   60.6829   27.4208   44.6105 H   0  0  0  0  0  0  0  0  0  0  0  0
   60.8344   29.8873   44.2916 H   0  0  0  0  0  0  0  0  0  0  0  0
   60.8779   31.4066   46.2657 H   0  0  0  0  0  0  0  0  0  0  0  0
   64.0420   32.0183   49.0765 H   0  0  0  0  0  0  0  0  0  0  0  0
   63.2504   30.7798   48.0627 H   0  0  0  0  0  0  0  0  0  0  0  0
   64.5561   33.0935   47.1191 H   0  0  0  0  0  0  0  0  0  0  0  0
   63.4442   32.1058   46.1650 H   0  0  0  0  0  0  0  0  0  0  0  0
   62.9658   34.7141   47.5993 H   0  0  0  0  0  0  0  0  0  0  0  0
   62.1809   34.1120   46.1390 H   0  0  0  0  0  0  0  0  0  0  0  0
   60.9651   34.0980   48.6064 H   0  0  0  0  0  0  0  0  0  0  0  0
   60.5861   32.8750   47.3697 H   0  0  0  0  0  0  0  0  0  0  0  0
   60.6071   27.9848   48.9020 H   0  0  0  0  0  0  0  0  0  0  0  0
   58.4919   27.4766   45.5181 H   0  0  0  0  0  0  0  0  0  0  0  0
   57.3210   31.6083   42.5757 H   0  0  0  0  0  0  0  0  0  0  0  0
   58.2452   33.7828   43.3701 H   0  0  0  0  0  0  0  0  0  0  0  0
  1  2  1  0
  2  3  2  0
  3  4  1  0
  4  5  2  0
  5  6  1  0
  6  7  2  0
  6  8  2  0
  6  9  1  0
  9 10  1  0
 10 11  2  0
 11 12  1  0
 12 13  2  0
 13 14  1  0
 13 15  1  0
 15 16  1  0
 16 17  2  0
 16 18  1  0
 18 19  1  0
 19 20  2  0
 20 21  1  0
 21 22  2  0
 22 23  1  0
 23 24  1  0
 24 25  2  0
 24 26  2  0
 24 27  1  0
 27 28  1  0
 28 29  1  0
 29 30  1  0
 30 31  1  0
 23 32  2  0
 15 33  2  0
  5 34  1  0
 34 35  2  0
 35  2  1  0
 33 10  1  0
 32 19  1  0
 31 27  1  0
  1 36  1  0
  1 37  1  0
  1 38  1  0
  3 39  1  0
  4 40  1  0
 11 41  1  0
 12 42  1  0
 14 43  1  0
 20 44  1  0
 21 45  1  0
 22 46  1  0
 28 47  1  0
 28 48  1  0
 29 49  1  0
 29 50  1  0
 30 51  1  0
 30 52  1  0
 31 53  1  0
 31 54  1  0
 32 55  1  0
 33 56  1  0
 34 57  1  0
 35 58  1  0
M  CHG  2   9  -1  18  -1
M  END
>  <UniqueID>  (15) 
15

>  <SMILES>  (15) 
Cc1ccc(S(=O)(=O)[N-]c2ccc(O)c(C(=O)[N-]c3cccc(S(=O)(=O)N4CCCC4)c3)c2)cc1

>  <Energy>  (15) 
78.84180216477421

>  <Genealogy>  (15) 
Cc1ccc(S(=O)(=O)[N-]c2ccc(O)c(C(=O)[N-]c3cccc(S(=O)(=O)N4CCCC4)c3)c2)cc1 (protonated)
Cc1ccc(S(=O)(=O)[N-]c2ccc(O)c(C(=O)[N-]c3cccc(S(=O)(=O)N4CCCC4)c3)c2)cc1 (3D coordinates assigned)
Cc1ccc(S(=O)(=O)[N-]c2ccc(O)c(C(=O)[N-]c3cccc(S(=O)(=O)N4CCCC4)c3)c2)cc1 (nonaromatic ring conformer: 78.84180216477421 kcal/mol)

>  <smiles>  (15) 
Cc1ccc(S(=O)(=O)Nc2ccc(O)c(C(=O)Nc3cccc(S(=O)(=O)N4CCCC4)c3)c2)cc1

>  <score_type>  (15) 
oracle

>  <origin>  (15) 
adg

>  <m_score__min__energy>  (15) 
-13.49

>  <m_primary>  (15) 
energy

$$$$
15:0
     RDKit          3D

 71 74  0  0  0  0  0  0  0  0999 V2000
   61.3110   30.2190   48.9700 C   0  0  0  0  0  0  0  0  0  0  0  0
   61.0630   30.8910   50.3250 C   0  0  0  0  0  0  0  0  0  0  0  0
   60.0670   30.0540   51.1380 C   0  0  0  0  0  0  0  0  0  0  0  0
   62.3980   31.0720   51.0790 C   0  0  0  0  0  0  0  0  0  0  0  0
   63.4550   31.7500   50.2470 C   0  0  0  0  0  0  0  0  0  0  0  0
   64.6250   31.2790   50.2270 O   0  0  0  0  0  0  0  0  0  0  0  0
   63.1220   32.8530   49.3880 N   0  0  0  0  0  0  0  0  0  0  0  0
   63.6990   32.9040   48.0410 C   0  0  0  0  0  0  0  0  0  0  0  0
   62.8130   33.7450   47.1070 C   0  0  0  0  0  0  0  0  0  0  0  0
   61.3910   33.6170   47.4970 N   0  0  0  0  0  0  0  0  0  0  0  0
   60.4930   34.1700   46.5000 C   0  0  0  0  0  0  0  0  0  0  0  0
   60.6860   35.3430   46.0680 O   0  0  0  0  0  0  0  0  0  0  0  0
   59.3390   33.4230   45.9710 C   0  0  0  0  0  0  0  0  0  0  0  0
   58.1610   34.0860   45.6100 C   0  0  0  0  0  0  0  0  0  0  0  0
   57.0670   33.3650   45.1280 C   0  0  0  0  0  0  0  0  0  0  0  0
   57.1270   31.9730   45.0410 C   0  0  0  0  0  0  0  0  0  0  0  0
   56.0570   31.2830   44.5660 N   0  0  0  0  0  0  0  0  0  0  0  0
   56.0600   29.9280   44.4800 C   0  0  0  0  0  0  0  0  0  0  0  0
   55.0620   29.3330   44.0010 O   0  0  0  0  0  0  0  0  0  0  0  0
   57.1640   29.1980   44.9250 C   0  0  0  0  0  0  0  0  0  0  0  0
   58.2700   29.8670   45.4640 C   0  0  0  0  0  0  0  0  0  0  0  0
   59.3910   29.1080   45.9450 N   0  0  0  0  0  0  0  0  0  0  0  0
   59.3000   27.7140   46.4070 C   0  0  0  0  0  0  0  0  0  0  0  0
   59.1970   26.7240   45.2320 C   0  0  0  0  0  0  0  0  0  0  0  0
   59.0450   25.2820   45.7520 C   0  0  0  0  0  0  0  0  0  0  0  0
   58.0240   25.1340   46.8240 N   0  0  0  0  0  0  0  0  0  0  0  0
   56.9560   23.7870   46.5120 S   0  0  0  0  0  0  0  0  0  0  0  0
   57.4200   22.9010   45.0320 C   0  0  0  0  0  0  0  0  0  0  0  0
   55.5480   24.2940   46.3490 O   0  0  0  0  0  0  0  0  0  0  0  0
   56.9990   22.8450   47.6810 O   0  0  0  0  0  0  0  0  0  0  0  0
   57.2310   26.3480   47.0830 C   0  0  0  0  0  0  0  0  0  0  0  0
   58.1490   27.5260   47.4260 C   0  0  0  0  0  0  0  0  0  0  0  0
   58.2800   31.2800   45.4750 C   0  0  0  0  0  0  0  0  0  0  0  0
   59.3880   32.0210   45.9250 C   0  0  0  0  0  0  0  0  0  0  0  0
   61.1260   34.2240   48.8190 C   0  0  0  0  0  0  0  0  0  0  0  0
   62.2510   33.9440   49.8400 C   0  0  0  0  0  0  0  0  0  0  0  0
   61.6878   29.1981   49.1305 H   0  0  0  0  0  0  0  0  0  0  0  0
   60.3690   30.1774   48.4035 H   0  0  0  0  0  0  0  0  0  0  0  0
   62.0542   30.7993   48.4035 H   0  0  0  0  0  0  0  0  0  0  0  0
   60.6283   31.8896   50.1703 H   0  0  0  0  0  0  0  0  0  0  0  0
   60.2497   30.2075   52.2118 H   0  0  0  0  0  0  0  0  0  0  0  0
   59.0407   30.3647   50.8926 H   0  0  0  0  0  0  0  0  0  0  0  0
   60.1964   28.9896   50.8926 H   0  0  0  0  0  0  0  0  0  0  0  0
   62.2142   31.6807   51.9766 H   0  0  0  0  0  0  0  0  0  0  0  0
   62.7716   30.0691   51.3333 H   0  0  0  0  0  0  0  0  0  0  0  0
   64.7007   33.3554   48.0932 H   0  0  0  0  0  0  0  0  0  0  0  0
   63.7645   31.8806   47.6431 H   0  0  0  0  0  0  0  0  0  0  0  0
   63.1143   34.8008   47.1741 H   0  0  0  0  0  0  0  0  0  0  0  0
   62.9356   33.3836   46.0753 H   0  0  0  0  0  0  0  0  0  0  0  0
   61.1790   32.5930   47.5630 H   0  0  0  0  0  0  0  0  0  0  0  0
   58.0966   35.1799   45.7064 H   0  0  0  0  0  0  0  0  0  0  0  0
   56.1552   33.8952   44.8159 H   0  0  0  0  0  0  0  0  0  0  0  0
   57.1650   28.1004   44.8524 H   0  0  0  0  0  0  0  0  0  0  0  0
   60.2970   29.6100   46.0960 H   0  0  0  0  0  0  0  0  0  0  0  0
   60.2386   27.4843   46.9327 H   0  0  0  0  0  0  0  0  0  0  0  0
   58.3215   26.9813   44.6178 H   0  0  0  0  0  0  0  0  0  0  0  0
   60.1155   26.7898   44.6303 H   0  0  0  0  0  0  0  0  0  0  0  0
   58.7575   24.6377   44.9081 H   0  0  0  0  0  0  0  0  0  0  0  0
   60.0127   24.9960   46.1900 H   0  0  0  0  0  0  0  0  0  0  0  0
   57.9139   21.9579   45.3089 H   0  0  0  0  0  0  0  0  0  0  0  0
   56.5203   22.6831   44.4379 H   0  0  0  0  0  0  0  0  0  0  0  0
   58.1116   23.5164   44.4379 H   0  0  0  0  0  0  0  0  0  0  0  0
   56.6445   26.5954   46.1859 H   0  0  0  0  0  0  0  0  0  0  0  0
   56.5606   26.1599   47.9346 H   0  0  0  0  0  0  0  0  0  0  0  0
   57.5459   28.4457   47.4469 H   0  0  0  0  0  0  0  0  0  0  0  0
   58.6067   27.3123   48.4031 H   0  0  0  0  0  0  0  0  0  0  0  0
   60.3011   31.4969   46.2437 H   0  0  0  0  0  0  0  0  0  0  0  0
   61.0279   35.3124   48.6932 H   0  0  0  0  0  0  0  0  0  0  0  0
   60.2018   33.7748   49.2115 H   0  0  0  0  0  0  0  0  0  0  0  0
   62.8544   34.8549   49.9671 H   0  0  0  0  0  0  0  0  0  0  0  0
   61.7888   33.6471   50.7930 H   0  0  0  0  0  0  0  0  0  0  0  0
  1  2  1  0
  2  3  1  0
  2  4  1  0
  4  5  1  0
  5  6  2  0
  5  7  1  0
  7  8  1  0
  8  9  1  0
  9 10  1  0
 10 11  1  0
 11 12  2  0
 11 13  1  0
 13 14  2  0
 14 15  1  0
 15 16  2  0
 16 17  1  0
 17 18  1  0
 18 19  2  0
 18 20  1  0
 20 21  2  0
 21 22  1  0
 22 23  1  0
 23 24  1  0
 24 25  1  0
 25 26  1  0
 26 27  1  0
 27 28  1  0
 27 29  2  0
 27 30  2  0
 26 31  1  0
 31 32  1  0
 21 33  1  0
 33 34  2  0
 10 35  1  0
 35 36  1  0
 36  7  1  0
 34 13  1  0
 33 16  1  0
 32 23  1  0
  1 37  1  0
  1 38  1  0
  1 39  1  0
  2 40  1  0
  3 41  1  0
  3 42  1  0
  3 43  1  0
  4 44  1  0
  4 45  1  0
  8 46  1  0
  8 47  1  0
  9 48  1  0
  9 49  1  0
 10 50  1  0
 14 51  1  0
 15 52  1  0
 20 53  1  0
 22 54  1  0
 23 55  1  0
 24 56  1  0
 24 57  1  0
 25 58  1  0
 25 59  1  0
 28 60  1  0
 28 61  1  0
 28 62  1  0
 31 63  1  0
 31 64  1  0
 32 65  1  0
 32 66  1  0
 34 67  1  0
 35 68  1  0
 35 69  1  0
 36 70  1  0
 36 71  1  0
M  CHG  2  10   1  17  -1
M  END
>  <UniqueID>  (16) 
16

>  <SMILES>  (16) 
CC(C)CC(=O)N1CC[NH+](C(=O)c2ccc3[n-]c(=O)cc(NC4CCN(S(C)(=O)=O)CC4)c3c2)CC1

>  <Energy>  (16) 
99.45977569801634

>  <Genealogy>  (16) 
CC(C)CC(=O)N1CC[NH+](C(=O)c2ccc3[n-]c(=O)cc(NC4CCN(S(C)(=O)=O)CC4)c3c2)CC1 (protonated)
CC(C)CC(=O)N1CC[NH+](C(=O)c2ccc3[n-]c(=O)cc(NC4CCN(S(C)(=O)=O)CC4)c3c2)CC1 (3D coordinates assigned)
CC(C)CC(=O)N1CC[NH+](C(=O)c2ccc3[n-]c(=O)cc(NC4CCN(S(C)(=O)=O)CC4)c3c2)CC1 (nonaromatic ring conformer: 99.45977569801634 kcal/mol)

>  <smiles>  (16) 
CC(C)CC(=O)N1CCN(C(=O)c2ccc3[nH]c(=O)cc(NC4CCN(S(C)(=O)=O)CC4)c3c2)CC1

>  <score_type>  (16) 
oracle

>  <origin>  (16) 
adg

>  <m_score__min__energy>  (16) 
-10.119999999999999

>  <m_primary>  (16) 
energy

$$$$
16:0
     RDKit          3D

 57 60  0  0  1  0  0  0  0  0999 V2000
   60.9280   33.9600   51.0380 O   0  0  0  0  0  0  0  0  0  0  0  0
   60.4090   33.8440   49.7220 C   0  0  0  0  0  0  0  0  0  0  0  0
   61.5960   34.0640   48.8160 C   0  0  2  0  0  0  0  0  0  0  0  0
   61.3750   33.8100   47.3790 C   0  0  0  0  0  0  0  0  0  0  0  0
   61.8550   32.3160   47.1230 C   0  0  2  0  0  0  0  0  0  0  0  0
   60.8330   31.7210   47.8650 N   0  0  0  0  0  0  0  0  0  0  0  0
   60.2660   30.6030   47.7400 C   0  0  0  0  0  0  0  0  0  0  0  0
   60.7400   29.4890   48.3300 N   0  0  0  0  0  0  0  0  0  0  0  0
   60.0960   28.2900   48.2140 C   0  0  0  0  0  0  0  0  0  0  0  0
   60.5520   27.2460   48.7750 N   0  0  0  0  0  0  0  0  0  0  0  0
   60.7790   27.0490   50.1810 C   0  0  0  0  0  0  0  0  0  0  0  0
   61.0600   28.3360   50.8840 C   0  0  0  0  0  0  0  0  0  0  0  0
   62.3280   28.7380   51.2360 C   0  0  0  0  0  0  0  0  0  0  0  0
   62.5920   29.9300   51.8880 C   0  0  0  0  0  0  0  0  0  0  0  0
   61.5480   30.7700   52.2120 C   0  0  0  0  0  0  0  0  0  0  0  0
   61.7980   31.9800   52.8720 O   0  0  0  0  0  0  0  0  0  0  0  0
   60.2680   30.4050   51.8780 C   0  0  0  0  0  0  0  0  0  0  0  0
   60.0300   29.2170   51.2310 C   0  0  0  0  0  0  0  0  0  0  0  0
   58.9660   28.1920   47.5040 N   0  0  0  0  0  0  0  0  0  0  0  0
   58.4990   29.2940   46.9190 C   0  0  0  0  0  0  0  0  0  0  0  0
   59.1280   30.5360   47.0130 C   0  0  0  0  0  0  0  0  0  0  0  0
   58.5250   31.6110   46.2510 C   0  0  0  0  0  0  0  0  0  0  0  0
   58.4310   31.4120   44.8440 C   0  0  0  0  0  0  0  0  0  0  0  0
   57.9610   32.4500   44.0480 C   0  0  0  0  0  0  0  0  0  0  0  0
   57.5890   33.6520   44.5890 C   0  0  0  0  0  0  0  0  0  0  0  0
   57.6840   33.8400   45.9620 C   0  0  0  0  0  0  0  0  0  0  0  0
   58.1450   32.8360   46.7930 C   0  0  0  0  0  0  0  0  0  0  0  0
   63.1550   32.4990   47.8800 C   0  0  1  0  0  0  0  0  0  0  0  0
   64.1110   33.2100   47.2100 O   0  0  0  0  0  0  0  0  0  0  0  0
   62.7890   33.2490   49.1390 C   0  0  2  0  0  0  0  0  0  0  0  0
   62.5740   32.3860   50.2170 O   0  0  0  0  0  0  0  0  0  0  0  0
   60.9620   33.0440   51.4390 H   0  0  0  0  0  0  0  0  0  0  0  0
   59.9800   32.8439   49.5619 H   0  0  0  0  0  0  0  0  0  0  0  0
   59.6018   34.5662   49.5299 H   0  0  0  0  0  0  0  0  0  0  0  0
   61.7568   35.1352   49.0075 H   0  0  0  0  0  0  0  0  0  0  0  0
   60.3088   33.9174   47.1308 H   0  0  0  0  0  0  0  0  0  0  0  0
   61.9277   34.5253   46.7523 H   0  0  0  0  0  0  0  0  0  0  0  0
   61.9973   31.8037   46.1600 H   0  0  0  0  0  0  0  0  0  0  0  0
   61.6050   29.4690   48.8970 H   0  0  0  0  0  0  0  0  0  0  0  0
   59.8838   26.5891   50.6250 H   0  0  0  0  0  0  0  0  0  0  0  0
   61.6577   26.3976   50.2970 H   0  0  0  0  0  0  0  0  0  0  0  0
   63.1734   28.0797   50.9870 H   0  0  0  0  0  0  0  0  0  0  0  0
   63.6256   30.2046   52.1454 H   0  0  0  0  0  0  0  0  0  0  0  0
   62.1630   32.7550   52.3410 H   0  0  0  0  0  0  0  0  0  0  0  0
   59.4273   31.0680   52.1300 H   0  0  0  0  0  0  0  0  0  0  0  0
   58.9938   28.9490   50.9769 H   0  0  0  0  0  0  0  0  0  0  0  0
   58.4740   27.3020   47.4100 H   0  0  0  0  0  0  0  0  0  0  0  0
   57.5712   29.2212   46.3326 H   0  0  0  0  0  0  0  0  0  0  0  0
   58.7256   30.4523   44.3944 H   0  0  0  0  0  0  0  0  0  0  0  0
   57.8862   32.3030   42.9604 H   0  0  0  0  0  0  0  0  0  0  0  0
   57.2185   34.4610   43.9422 H   0  0  0  0  0  0  0  0  0  0  0  0
   57.3868   34.8060   46.3962 H   0  0  0  0  0  0  0  0  0  0  0  0
   58.2114   33.0042   47.8780 H   0  0  0  0  0  0  0  0  0  0  0  0
   63.5986   31.5073   48.0529 H   0  0  0  0  0  0  0  0  0  0  0  0
   64.8630   32.6850   46.8620 H   0  0  0  0  0  0  0  0  0  0  0  0
   63.6158   33.8986   49.4621 H   0  0  0  0  0  0  0  0  0  0  0  0
   62.7500   32.8080   51.0940 H   0  0  0  0  0  0  0  0  0  0  0  0
  1  2  1  0
  2  3  1  0
  3  4  1  0
  4  5  1  0
  5  6  1  0
  6  7  2  0
  7  8  1  0
  8  9  1  0
  9 10  2  0
 10 11  1  0
 11 12  1  0
 12 13  2  0
 13 14  1  0
 14 15  2  0
 15 16  1  0
 15 17  1  0
 17 18  2  0
  9 19  1  0
 19 20  1  0
 20 21  2  0
 21 22  1  0
 22 23  2  0
 23 24  1  0
 24 25  2  0
 25 26  1  0
 26 27  2  0
  5 28  1  0
 28 29  1  0
 28 30  1  0
 30 31  1  0
 30  3  1  0
 21  7  1  0
 27 22  1  0
 18 12  1  0
  1 32  1  0
  2 33  1  0
  2 34  1  0
  3 35  1  6
  4 36  1  0
  4 37  1  0
  5 38  1  6
  8 39  1  0
 11 40  1  0
 11 41  1  0
 13 42  1  0
 14 43  1  0
 16 44  1  0
 17 45  1  0
 18 46  1  0
 19 47  1  0
 20 48  1  0
 23 49  1  0
 24 50  1  0
 25 51  1  0
 26 52  1  0
 27 53  1  0
 28 54  1  1
 29 55  1  0
 30 56  1  1
 31 57  1  0
M  END
>  <smiles>  (17) 
OCC1CC(N=c2[nH]c(=NCc3ccc(O)cc3)[nH]cc2-c2ccccc2)C(O)C1O

>  <score_type>  (17) 
oracle

>  <origin>  (17) 
adg

>  <m_score__min__energy>  (17) 
-9.2599999999999998

>  <m_primary>  (17) 
energy

$$$$
17:0
     RDKit          3D

 50 53  0  0  0  0  0  0  0  0999 V2000
   58.9239   31.4907   48.4693 H   0  0  0  0  0  0  0  0  0  0  0  0
   58.7610   30.6120   47.8280 C   0  0  0  0  0  0  0  0  0  0  0  0
   58.7661   29.6030   48.2660 H   0  0  0  0  0  0  0  0  0  0  0  0
   58.5560   30.7710   46.5110 C   0  0  0  0  0  0  0  0  0  0  0  0
   58.3350   29.7480   45.5730 C   0  0  0  0  0  0  0  0  0  0  0  0
   58.4780   28.4120   45.6700 C   0  0  0  0  0  0  0  0  0  0  0  0
   59.4776   27.9984   45.4706 H   0  0  0  0  0  0  0  0  0  0  0  0
   57.4120   27.4560   46.0200 C   0  0  0  0  0  0  0  0  0  0  0  0
   57.6150   26.2710   46.6240 N   0  0  0  0  0  0  0  0  0  0  0  0
   56.3900   25.7000   46.6080 C   0  0  0  0  0  0  0  0  0  0  0  0
   56.1630   24.5670   47.1060 O   0  0  0  0  0  0  0  0  0  0  0  0
   55.4310   26.4350   46.0060 N   0  0  0  0  0  0  0  0  0  0  0  0
   56.0990   27.5370   45.6270 C   0  0  0  0  0  0  0  0  0  0  0  0
   55.5220   28.5910   44.9320 O   0  0  0  0  0  0  0  0  0  0  0  0
   57.9460   30.3700   44.4020 C   0  0  0  0  0  0  0  0  0  0  0  0
   57.6440   29.8763   43.4666 H   0  0  0  0  0  0  0  0  0  0  0  0
   58.0090   31.7280   44.6310 C   0  0  0  0  0  0  0  0  0  0  0  0
   57.7450   32.7700   43.5850 C   0  0  0  0  0  0  0  0  0  0  0  0
   57.5028   33.7258   44.0726 H   0  0  0  0  0  0  0  0  0  0  0  0
   58.6399   32.8948   42.9577 H   0  0  0  0  0  0  0  0  0  0  0  0
   56.8986   32.4536   42.9577 H   0  0  0  0  0  0  0  0  0  0  0  0
   58.3830   31.9810   45.9080 N   0  0  0  0  0  0  0  0  0  0  0  0
   58.5940   33.3220   46.4800 C   0  0  0  0  0  0  0  0  0  0  0  0
   58.6651   34.0565   45.6642 H   0  0  0  0  0  0  0  0  0  0  0  0
   57.7462   33.5661   47.1370 H   0  0  0  0  0  0  0  0  0  0  0  0
   59.8640   33.3560   47.2900 C   0  0  0  0  0  0  0  0  0  0  0  0
   59.8490   33.8060   48.6190 C   0  0  0  0  0  0  0  0  0  0  0  0
   58.9008   34.1222   49.0782 H   0  0  0  0  0  0  0  0  0  0  0  0
   61.0310   33.8550   49.3630 C   0  0  0  0  0  0  0  0  0  0  0  0
   61.0076   34.2148   50.4022 H   0  0  0  0  0  0  0  0  0  0  0  0
   62.2490   33.4480   48.7930 C   0  0  0  0  0  0  0  0  0  0  0  0
   63.4710   33.5130   49.5540 N   0  0  0  0  0  0  0  0  0  0  0  0
   63.5140   34.1740   50.8630 C   0  0  0  0  0  0  0  0  0  0  0  0
   64.1065   35.0973   50.7826 H   0  0  0  0  0  0  0  0  0  0  0  0
   62.4858   34.4080   51.1763 H   0  0  0  0  0  0  0  0  0  0  0  0
   64.1570   33.2490   51.9170 C   0  0  0  0  0  0  0  0  0  0  0  0
   64.6913   33.8744   52.6474 H   0  0  0  0  0  0  0  0  0  0  0  0
   63.3415   32.6699   52.3749 H   0  0  0  0  0  0  0  0  0  0  0  0
   65.1120   32.2740   51.3520 N   0  0  0  0  0  0  0  0  0  0  0  0
   64.5990   31.3870   51.1310 H   0  0  0  0  0  0  0  0  0  0  0  0
   65.7530   32.7580   50.1230 C   0  0  0  0  0  0  0  0  0  0  0  0
   66.2420   33.7224   50.3251 H   0  0  0  0  0  0  0  0  0  0  0  0
   66.4972   32.0178   49.7940 H   0  0  0  0  0  0  0  0  0  0  0  0
   64.7100   32.9430   49.0110 C   0  0  0  0  0  0  0  0  0  0  0  0
   65.1146   33.6211   48.2452 H   0  0  0  0  0  0  0  0  0  0  0  0
   64.4847   31.9611   48.5693 H   0  0  0  0  0  0  0  0  0  0  0  0
   62.2630   33.0030   47.4600 C   0  0  0  0  0  0  0  0  0  0  0  0
   63.2113   32.6903   46.9985 H   0  0  0  0  0  0  0  0  0  0  0  0
   61.0810   32.9550   46.7170 C   0  0  0  0  0  0  0  0  0  0  0  0
   61.1041   32.6006   45.6759 H   0  0  0  0  0  0  0  0  0  0  0  0
  1  2  1  0
  2  3  1  0
  2  4  2  0
  4  5  1  0
  5  6  2  0
  6  7  1  0
  6  8  1  0
  8  9  1  0
  9 10  1  0
 10 11  2  0
 10 12  1  0
 12 13  1  0
 13 14  1  0
  5 15  1  0
 15 16  1  0
 15 17  2  0
 17 18  1  0
 18 19  1  0
 18 20  1  0
 18 21  1  0
 17 22  1  0
 22 23  1  0
 23 24  1  0
 23 25  1  0
 23 26  1  0
 26 27  2  0
 27 28  1  0
 27 29  1  0
 29 30  1  0
 29 31  2  0
 31 32  1  0
 32 33  1  0
 33 34  1  0
 33 35  1  0
 33 36  1  0
 36 37  1  0
 36 38  1  0
 36 39  1  0
 39 40  1  0
 39 41  1  0
 41 42  1  0
 41 43  1  0
 41 44  1  0
 44 45  1  0
 44 46  1  0
 31 47  1  0
 47 48  1  0
 47 49  2  0
 49 50  1  0
 22  4  1  0
 49 26  1  0
 13  8  2  0
 44 32  1  0
M  CHG  3   9  -1  12  -1  14  -1
M  END
>  <UniqueID>  (18) 
17

>  <SMILES>  (18) 
C=c1/c(=C\c2[n-]c(=O)[n-]c2[O-])cc(C)n1Cc1ccc(N2CCNCC2)cc1

>  <Energy>  (18) 
129.7631251256937

>  <Genealogy>  (18) 
C=c1c(=Cc2[n-]c(=O)[n-]c2[O-])cc(C)n1Cc1ccc(N2CCNCC2)cc1 (protonated)
C=c1/c(=C\c2[n-]c(=O)[n-]c2[O-])cc(C)n1Cc1ccc(N2CCNCC2)cc1 (cis-trans isomerization)
C=c1/c(=C\c2[n-]c(=O)[n-]c2[O-])cc(C)n1Cc1ccc(N2CCNCC2)cc1 (3D coordinates assigned)
C=c1/c(=C\c2[n-]c(=O)[n-]c2[O-])cc(C)n1Cc1ccc(N2CCNCC2)cc1 (nonaromatic ring conformer: 129.7631251256937 kcal/mol)

>  <smiles>  (18) 
C=c1c(=Cc2[nH]c(=O)[nH]c2O)cc(C)n1Cc1ccc(N2CCNCC2)cc1

>  <score_type>  (18) 
oracle

>  <origin>  (18) 
adg

>  <m_score__min__energy>  (18) 
-16.699999999999999

>  <m_primary>  (18) 
energy

$$$$
18:0
     RDKit          3D

 39 41  0  0  0  0  0  0  0  0999 V2000
   54.9200   26.3380   45.9810 N   0  0  0  0  0  0  0  0  0  0  0  0
   56.2560   25.2580   46.1580 S   0  0  0  0  0  0  0  0  0  0  0  0
   56.0540   24.4020   47.3770 O   0  0  0  0  0  0  0  0  0  0  0  0
   56.3410   24.3650   44.9510 O   0  0  0  0  0  0  0  0  0  0  0  0
   57.7450   26.1850   46.3170 C   0  0  0  0  0  0  0  0  0  0  0  0
   58.9870   25.5490   46.1880 C   0  0  0  0  0  0  0  0  0  0  0  0
   60.1670   26.2800   46.3310 C   0  0  0  0  0  0  0  0  0  0  0  0
   60.1170   27.6480   46.6080 C   0  0  0  0  0  0  0  0  0  0  0  0
   58.8790   28.3020   46.7490 C   0  0  0  0  0  0  0  0  0  0  0  0
   58.8240   29.7550   47.0490 C   0  0  0  0  0  0  0  0  0  0  0  0
   59.4640   30.2910   48.1780 C   0  0  0  0  0  0  0  0  0  0  0  0
   59.3990   31.6230   48.4300 N   0  0  0  0  0  0  0  0  0  0  0  0
   58.7230   32.4660   47.6030 C   0  0  0  0  0  0  0  0  0  0  0  0
   58.6690   33.7420   47.8470 N   0  0  0  0  0  0  0  0  0  0  0  0
   59.6760   34.4950   48.5950 C   0  0  0  0  0  0  0  0  0  0  0  0
   61.0650   34.0890   48.1720 C   0  0  0  0  0  0  0  0  0  0  0  0
   62.0680   33.9000   49.1410 C   0  0  0  0  0  0  0  0  0  0  0  0
   63.3520   33.5050   48.7580 C   0  0  0  0  0  0  0  0  0  0  0  0
   63.6480   33.2930   47.4100 C   0  0  0  0  0  0  0  0  0  0  0  0
   62.6600   33.4760   46.4400 C   0  0  0  0  0  0  0  0  0  0  0  0
   61.3660   33.8710   46.8140 C   0  0  0  0  0  0  0  0  0  0  0  0
   60.3820   34.0460   45.8410 O   0  0  0  0  0  0  0  0  0  0  0  0
   58.0970   31.9710   46.5060 N   0  0  0  0  0  0  0  0  0  0  0  0
   58.1300   30.6450   46.2140 C   0  0  0  0  0  0  0  0  0  0  0  0
   57.6950   27.5560   46.6040 C   0  0  0  0  0  0  0  0  0  0  0  0
   55.1760   27.0190   45.2310 H   0  0  0  0  0  0  0  0  0  0  0  0
   59.0319   24.4710   45.9735 H   0  0  0  0  0  0  0  0  0  0  0  0
   61.1396   25.7772   46.2252 H   0  0  0  0  0  0  0  0  0  0  0  0
   61.0515   28.2180   46.7167 H   0  0  0  0  0  0  0  0  0  0  0  0
   60.0192   29.6299   48.8597 H   0  0  0  0  0  0  0  0  0  0  0  0
   59.5396   35.5696   48.4039 H   0  0  0  0  0  0  0  0  0  0  0  0
   59.5550   34.2807   49.6671 H   0  0  0  0  0  0  0  0  0  0  0  0
   61.8399   34.0640   50.2045 H   0  0  0  0  0  0  0  0  0  0  0  0
   64.1318   33.3606   49.5202 H   0  0  0  0  0  0  0  0  0  0  0  0
   64.6600   32.9816   47.1118 H   0  0  0  0  0  0  0  0  0  0  0  0
   62.8968   33.3099   45.3787 H   0  0  0  0  0  0  0  0  0  0  0  0
   59.5050   33.5400   45.8760 H   0  0  0  0  0  0  0  0  0  0  0  0
   57.6114   30.2672   45.3205 H   0  0  0  0  0  0  0  0  0  0  0  0
   56.7205   28.0536   46.7170 H   0  0  0  0  0  0  0  0  0  0  0  0
  1  2  1  0
  2  3  2  0
  2  4  2  0
  2  5  1  0
  5  6  2  0
  6  7  1  0
  7  8  2  0
  8  9  1  0
  9 10  1  0
 10 11  1  0
 11 12  2  0
 12 13  1  0
 13 14  2  3
 14 15  1  0
 15 16  1  0
 16 17  2  0
 17 18  1  0
 18 19  2  0
 19 20  1  0
 20 21  2  0
 21 22  1  0
 13 23  1  0
 23 24  1  0
  9 25  2  0
 25  5  1  0
 24 10  2  0
 21 16  1  0
  1 26  1  0
  6 27  1  0
  7 28  1  0
  8 29  1  0
 11 30  1  0
 15 31  1  0
 15 32  1  0
 17 33  1  0
 18 34  1  0
 19 35  1  0
 20 36  1  0
 22 37  1  0
 24 38  1  0
 25 39  1  0
M  CHG  2   1  -1  23  -1
M  END
>  <UniqueID>  (19) 
18

>  <SMILES>  (19) 
[NH-]S(=O)(=O)c1cccc(-c2cnc(=NCc3ccccc3O)[n-]c2)c1

>  <Energy>  (19) 
46.99653182400186

>  <Genealogy>  (19) 
[NH-]S(=O)(=O)c1cccc(-c2cnc(=NCc3ccccc3O)[n-]c2)c1 (protonated)
[NH-]S(=O)(=O)c1cccc(-c2cnc(=NCc3ccccc3O)[n-]c2)c1 (3D coordinates assigned)
[NH-]S(=O)(=O)c1cccc(-c2cnc(=NCc3ccccc3O)[n-]c2)c1 (optimized conformer: 46.99653182400186 kcal/mol)

>  <smiles>  (19) 
NS(=O)(=O)c1cccc(-c2cnc(=NCc3ccccc3O)[nH]c2)c1

>  <score_type>  (19) 
oracle

>  <origin>  (19) 
adg

>  <m_score__min__energy>  (19) 
-11.43

>  <m_primary>  (19) 
energy

$$$$
19:0
     RDKit          3D

 25 26  0  0  0  0  0  0  0  0999 V2000
   55.5060   30.4860   44.0410 C   0  0  0  0  0  0  0  0  0  0  0  0
   56.3940   29.6350   44.5490 C   0  0  0  0  0  0  0  0  0  0  0  0
   56.0640   28.5300   45.2460 N   0  0  0  0  0  0  0  0  0  0  0  0
   57.1890   27.9130   45.5970 N   0  0  0  0  0  0  0  0  0  0  0  0
   57.1930   26.7180   46.3980 C   0  0  0  0  0  0  0  0  0  0  0  0
   57.6220   26.7560   47.5830 O   0  0  0  0  0  0  0  0  0  0  0  0
   56.6410   25.4490   45.8670 C   0  0  0  0  0  0  0  0  0  0  0  0
   55.2500   25.2980   45.6830 C   0  0  0  0  0  0  0  0  0  0  0  0
   54.3750   26.3380   45.9750 O   0  0  0  0  0  0  0  0  0  0  0  0
   54.7340   24.0980   45.1830 C   0  0  0  0  0  0  0  0  0  0  0  0
   55.5880   23.0410   44.8630 C   0  0  0  0  0  0  0  0  0  0  0  0
   56.9650   23.1770   45.0500 C   0  0  0  0  0  0  0  0  0  0  0  0
   57.4940   24.3680   45.5560 C   0  0  0  0  0  0  0  0  0  0  0  0
   58.8660   24.4580   45.7680 O   0  0  0  0  0  0  0  0  0  0  0  0
   58.2530   28.6170   45.1280 C   0  0  0  0  0  0  0  0  0  0  0  0
   59.5430   28.2820   45.2460 C   0  0  0  0  0  0  0  0  0  0  0  0
   57.7670   29.7210   44.4590 C   0  0  0  0  0  0  0  0  0  0  0  0
   58.4370   30.6150   43.8750 O   0  0  0  0  0  0  0  0  0  0  0  0
   55.8482   31.3693   43.4819 H   0  0  0  0  0  0  0  0  0  0  0  0
   54.4298   30.3061   44.1802 H   0  0  0  0  0  0  0  0  0  0  0  0
   53.6489   23.9864   45.0411 H   0  0  0  0  0  0  0  0  0  0  0  0
   55.1766   22.1021   44.4640 H   0  0  0  0  0  0  0  0  0  0  0  0
   57.6367   22.3431   44.7980 H   0  0  0  0  0  0  0  0  0  0  0  0
   60.3215   28.9343   44.8236 H   0  0  0  0  0  0  0  0  0  0  0  0
   59.8250   27.3543   45.7654 H   0  0  0  0  0  0  0  0  0  0  0  0
  1  2  2  0
  2  3  1  0
  3  4  1  0
  4  5  1  0
  5  6  2  0
  5  7  1  0
  7  8  2  0
  8  9  1  0
  8 10  1  0
 10 11  2  0
 11 12  1  0
 12 13  2  0
 13 14  1  0
  4 15  1  0
 15 16  2  0
 15 17  1  0
 17 18  2  0
 17  2  1  0
 13  7  1  0
  1 19  1  0
  1 20  1  0
 10 21  1  0
 11 22  1  0
 12 23  1  0
 16 24  1  0
 16 25  1  0
M  CHG  3   3  -1   9  -1  14  -1
M  END
>  <UniqueID>  (20) 
19

>  <SMILES>  (20) 
C=c1[n-]n(C(=O)c2c([O-])cccc2[O-])c(=C)c1=O

>  <Energy>  (20) 
69.27641692960073

>  <Genealogy>  (20) 
C=c1[n-]n(C(=O)c2c([O-])cccc2[O-])c(=C)c1=O (protonated)
C=c1[n-]n(C(=O)c2c([O-])cccc2[O-])c(=C)c1=O (3D coordinates assigned)
C=c1[n-]n(C(=O)c2c([O-])cccc2[O-])c(=C)c1=O (optimized conformer: 69.27641692960073 kcal/mol)

>  <smiles>  (20) 
C=c1[nH]n(C(=O)c2c(O)cccc2O)c(=C)c1=O

>  <score_type>  (20) 
oracle

>  <origin>  (20) 
adg

>  <m_score__min__energy>  (20) 
-12.800000000000001

>  <m_primary>  (20) 
energy

$$$$
20:0
     RDKit          3D

 53 56  0  0  0  0  0  0  0  0999 V2000
   52.2760   29.8470   54.0340 C   0  0  0  0  0  0  0  0  0  0  0  0
   53.5880   29.8550   53.7640 C   0  0  0  0  0  0  0  0  0  0  0  0
   54.3710   29.0340   54.5180 N   0  0  0  0  0  0  0  0  0  0  0  0
   55.6730   28.7890   54.2350 C   0  0  0  0  0  0  0  0  0  0  0  0
   56.2570   29.3390   53.0910 C   0  0  0  0  0  0  0  0  0  0  0  0
   57.6660   29.0380   52.7520 C   0  0  0  0  0  0  0  0  0  0  0  0
   58.1690   27.9470   53.1400 O   0  0  0  0  0  0  0  0  0  0  0  0
   58.4790   29.9610   52.0020 N   0  0  0  0  0  0  0  0  0  0  0  0
   57.8990   30.7810   50.9310 C   0  0  0  0  0  0  0  0  0  0  0  0
   58.8190   30.7800   49.7060 C   0  0  0  0  0  0  0  0  0  0  0  0
   60.2110   31.0910   50.0710 N   0  0  0  0  0  0  0  0  0  0  0  0
   61.1560   31.4920   49.0560 C   0  0  0  0  0  0  0  0  0  0  0  0
   62.1770   32.1580   49.3830 O   0  0  0  0  0  0  0  0  0  0  0  0
   60.9140   31.1950   47.5960 C   0  0  0  0  0  0  0  0  0  0  0  0
   59.8510   32.0940   47.0180 C   0  0  0  0  0  0  0  0  0  0  0  0
   58.8970   31.5830   46.1210 C   0  0  0  0  0  0  0  0  0  0  0  0
   57.8940   32.4130   45.6110 C   0  0  0  0  0  0  0  0  0  0  0  0
   57.8300   33.7590   45.9980 C   0  0  0  0  0  0  0  0  0  0  0  0
   56.8350   34.5940   45.4960 O   0  0  0  0  0  0  0  0  0  0  0  0
   58.7700   34.2680   46.9000 C   0  0  0  0  0  0  0  0  0  0  0  0
   59.7740   33.4400   47.4120 C   0  0  0  0  0  0  0  0  0  0  0  0
   60.6010   31.1500   51.4880 C   0  0  0  0  0  0  0  0  0  0  0  0
   59.9210   30.0270   52.2810 C   0  0  0  0  0  0  0  0  0  0  0  0
   55.5010   30.2260   52.3150 C   0  0  0  0  0  0  0  0  0  0  0  0
   54.1780   30.5650   52.6690 C   0  0  0  0  0  0  0  0  0  0  0  0
   53.5830   31.5560   51.9560 C   0  0  0  0  0  0  0  0  0  0  0  0
   52.4880   31.3970   50.9830 C   0  0  0  0  0  0  0  0  0  0  0  0
   52.5110   30.5020   49.9810 N   0  0  0  0  0  0  0  0  0  0  0  0
   51.3840   30.7760   49.2880 C   0  0  0  0  0  0  0  0  0  0  0  0
   51.0410   30.1260   48.2660 O   0  0  0  0  0  0  0  0  0  0  0  0
   50.6590   31.8070   49.7700 N   0  0  0  0  0  0  0  0  0  0  0  0
   51.3780   32.1990   50.8350 C   0  0  0  0  0  0  0  0  0  0  0  0
   51.0410   33.2870   51.6330 O   0  0  0  0  0  0  0  0  0  0  0  0
   51.5922   30.4887   53.4590 H   0  0  0  0  0  0  0  0  0  0  0  0
   51.8824   29.1987   54.8308 H   0  0  0  0  0  0  0  0  0  0  0  0
   56.2713   28.1561   54.9069 H   0  0  0  0  0  0  0  0  0  0  0  0
   56.9184   30.3698   50.6492 H   0  0  0  0  0  0  0  0  0  0  0  0
   57.7838   31.8136   51.2922 H   0  0  0  0  0  0  0  0  0  0  0  0
   58.7870   29.7856   49.2368 H   0  0  0  0  0  0  0  0  0  0  0  0
   58.4652   31.5552   49.0104 H   0  0  0  0  0  0  0  0  0  0  0  0
   61.8512   31.3466   47.0403 H   0  0  0  0  0  0  0  0  0  0  0  0
   60.5705   30.1537   47.5080 H   0  0  0  0  0  0  0  0  0  0  0  0
   58.9397   30.5261   45.8191 H   0  0  0  0  0  0  0  0  0  0  0  0
   57.1537   32.0091   44.9047 H   0  0  0  0  0  0  0  0  0  0  0  0
   55.9220   34.6520   45.9310 H   0  0  0  0  0  0  0  0  0  0  0  0
   58.7194   35.3229   47.2076 H   0  0  0  0  0  0  0  0  0  0  0  0
   60.5064   33.8445   48.1262 H   0  0  0  0  0  0  0  0  0  0  0  0
   61.6925   31.0394   51.5677 H   0  0  0  0  0  0  0  0  0  0  0  0
   60.2860   32.1188   51.9030 H   0  0  0  0  0  0  0  0  0  0  0  0
   60.3817   29.0668   52.0059 H   0  0  0  0  0  0  0  0  0  0  0  0
   60.0539   30.2349   53.3530 H   0  0  0  0  0  0  0  0  0  0  0  0
   55.9473   30.6672   51.4116 H   0  0  0  0  0  0  0  0  0  0  0  0
   53.9552   32.5779   52.1211 H   0  0  0  0  0  0  0  0  0  0  0  0
  1  2  2  0
  2  3  1  0
  3  4  2  0
  4  5  1  0
  5  6  1  0
  6  7  2  0
  6  8  1  0
  8  9  1  0
  9 10  1  0
 10 11  1  0
 11 12  1  0
 12 13  2  0
 12 14  1  0
 14 15  1  0
 15 16  2  0
 16 17  1  0
 17 18  2  0
 18 19  1  0
 18 20  1  0
 20 21  2  0
 11 22  1  0
 22 23  1  0
  5 24  2  0
 24 25  1  0
 25 26  2  3
 26 27  1  0
 27 28  1  0
 28 29  1  0
 29 30  2  0
 29 31  1  0
 31 32  1  0
 32 33  1  0
 25  2  1  0
 32 27  2  0
 23  8  1  0
 21 15  1  0
  1 34  1  0
  1 35  1  0
  4 36  1  0
  9 37  1  0
  9 38  1  0
 10 39  1  0
 10 40  1  0
 14 41  1  0
 14 42  1  0
 16 43  1  0
 17 44  1  0
 19 45  1  0
 20 46  1  0
 21 47  1  0
 22 48  1  0
 22 49  1  0
 23 50  1  0
 23 51  1  0
 24 52  1  0
 26 53  1  0
M  CHG  3  28  -1  31  -1  33  -1
M  END
>  <UniqueID>  (21) 
20

>  <SMILES>  (21) 
C=c1ncc(C(=O)N2CCN(C(=O)Cc3ccc(O)cc3)CC2)cc1=Cc1[n-]c(=O)[n-]c1[O-]

>  <Energy>  (21) 
110.99022523653379

>  <Genealogy>  (21) 
C=c1ncc(C(=O)N2CCN(C(=O)Cc3ccc(O)cc3)CC2)cc1=Cc1[n-]c(=O)[n-]c1[O-] (protonated)
C=c1ncc(C(=O)N2CCN(C(=O)Cc3ccc(O)cc3)CC2)cc1=Cc1[n-]c(=O)[n-]c1[O-] (3D coordinates assigned)
C=c1ncc(C(=O)N2CCN(C(=O)Cc3ccc(O)cc3)CC2)cc1=Cc1[n-]c(=O)[n-]c1[O-] (nonaromatic ring conformer: 110.99022523653379 kcal/mol)

>  <smiles>  (21) 
C=c1ncc(C(=O)N2CCN(C(=O)Cc3ccc(O)cc3)CC2)cc1=Cc1[nH]c(=O)[nH]c1O

>  <score_type>  (21) 
oracle

>  <origin>  (21) 
adg

>  <m_score__min__energy>  (21) 
-18.73

>  <m_primary>  (21) 
energy

$$$$
21:0
     RDKit          3D

 57 60  0  0  0  0  0  0  0  0999 V2000
   55.6900   22.9280   45.1790 N   0  0  0  0  0  0  0  0  0  0  0  0
   56.1340   24.1450   45.2160 C   0  0  0  0  0  0  0  0  0  0  0  0
   57.2360   24.5330   44.4410 C   0  0  0  0  0  0  0  0  0  0  0  0
   57.6850   25.8540   44.5010 C   0  0  0  0  0  0  0  0  0  0  0  0
   57.0360   26.7830   45.3290 C   0  0  0  0  0  0  0  0  0  0  0  0
   57.5020   28.1890   45.4070 C   0  0  0  0  0  0  0  0  0  0  0  0
   58.8260   28.4700   45.7820 C   0  0  0  0  0  0  0  0  0  0  0  0
   59.2790   29.7890   45.8580 C   0  0  0  0  0  0  0  0  0  0  0  0
   58.4180   30.8510   45.5500 C   0  0  0  0  0  0  0  0  0  0  0  0
   58.8930   32.2470   45.6670 C   0  0  0  0  0  0  0  0  0  0  0  0
   58.3410   33.2090   44.8040 C   0  0  0  0  0  0  0  0  0  0  0  0
   58.7590   34.5380   44.8590 C   0  0  0  0  0  0  0  0  0  0  0  0
   59.7300   34.9270   45.7810 C   0  0  0  0  0  0  0  0  0  0  0  0
   60.2810   33.9880   46.6550 C   0  0  0  0  0  0  0  0  0  0  0  0
   59.8780   32.6410   46.6110 C   0  0  0  0  0  0  0  0  0  0  0  0
   60.4460   31.6930   47.6420 C   0  0  0  0  0  0  0  0  0  0  0  0
   59.2540   31.3790   48.9360 S   0  0  1  0  0  0  0  0  0  0  0  0
   58.1220   32.3660   48.8410 O   0  0  0  0  0  0  0  0  0  0  0  0
   58.6440   29.8220   48.7630 O   0  0  0  0  0  0  0  0  0  0  0  0
   59.9450   31.5000   50.3270 N   0  0  0  0  0  0  0  0  0  0  0  0
   60.1170   33.0120   51.1310 S   0  0  0  0  0  0  0  0  0  0  0  0
   59.6450   34.1270   50.2400 O   0  0  0  0  0  0  0  0  0  0  0  0
   61.5660   33.2290   51.4640 O   0  0  0  0  0  0  0  0  0  0  0  0
   59.1770   33.0370   52.5980 N   0  0  2  0  0  0  0  0  0  0  0  0
   58.7480   31.7060   53.0440 C   0  0  0  0  0  0  0  0  0  0  0  0
   57.2700   32.0520   52.8860 C   0  0  2  0  0  0  0  0  0  0  0  0
   56.5210   31.2180   51.8370 C   0  0  0  0  0  0  0  0  0  0  0  0
   57.4140   30.3740   51.1630 O   0  0  0  0  0  0  0  0  0  0  0  0
   57.7710   33.4020   52.3830 C   0  0  0  0  0  0  0  0  0  0  0  0
   57.0860   30.5800   45.2050 C   0  0  0  0  0  0  0  0  0  0  0  0
   56.6300   29.2600   45.1250 C   0  0  0  0  0  0  0  0  0  0  0  0
   55.3300   29.0330   44.8120 F   0  0  0  0  0  0  0  0  0  0  0  0
   55.9410   26.3470   46.0930 C   0  0  0  0  0  0  0  0  0  0  0  0
   55.5200   25.0560   46.0160 N   0  0  0  0  0  0  0  0  0  0  0  0
   54.9600   22.5770   45.8400 H   0  0  0  0  0  0  0  0  0  0  0  0
   57.7423   23.8036   43.7917 H   0  0  0  0  0  0  0  0  0  0  0  0
   58.5497   26.1673   43.8976 H   0  0  0  0  0  0  0  0  0  0  0  0
   59.5126   27.6436   46.0180 H   0  0  0  0  0  0  0  0  0  0  0  0
   60.3162   29.9952   46.1610 H   0  0  0  0  0  0  0  0  0  0  0  0
   57.5710   32.9103   44.0774 H   0  0  0  0  0  0  0  0  0  0  0  0
   58.3224   35.2802   44.1745 H   0  0  0  0  0  0  0  0  0  0  0  0
   60.0623   35.9749   45.8198 H   0  0  0  0  0  0  0  0  0  0  0  0
   61.0389   34.3051   47.3864 H   0  0  0  0  0  0  0  0  0  0  0  0
   60.7074   30.7427   47.1535 H   0  0  0  0  0  0  0  0  0  0  0  0
   61.3406   32.1512   48.0889 H   0  0  0  0  0  0  0  0  0  0  0  0
   58.6580   29.4370   49.6780 H   0  0  0  0  0  0  0  0  0  0  0  0
   59.6240   33.5950   53.3640 H   0  0  0  0  0  0  0  0  0  0  0  0
   59.0814   30.8931   52.3822 H   0  0  0  0  0  0  0  0  0  0  0  0
   59.1062   31.3273   54.0127 H   0  0  0  0  0  0  0  0  0  0  0  0
   56.5422   31.9484   53.7042 H   0  0  0  0  0  0  0  0  0  0  0  0
   55.7530   30.6096   52.3371 H   0  0  0  0  0  0  0  0  0  0  0  0
   56.0487   31.8952   51.1101 H   0  0  0  0  0  0  0  0  0  0  0  0
   57.8440   30.9210   50.4550 H   0  0  0  0  0  0  0  0  0  0  0  0
   57.5246   33.5961   51.3287 H   0  0  0  0  0  0  0  0  0  0  0  0
   57.3822   34.3209   52.8460 H   0  0  0  0  0  0  0  0  0  0  0  0
   56.3956   31.4105   44.9960 H   0  0  0  0  0  0  0  0  0  0  0  0
   55.4212   27.0533   46.7570 H   0  0  0  0  0  0  0  0  0  0  0  0
  1  2  2  3
  2  3  1  0
  3  4  2  0
  4  5  1  0
  5  6  1  0
  6  7  2  0
  7  8  1  0
  8  9  2  0
  9 10  1  0
 10 11  2  0
 11 12  1  0
 12 13  2  0
 13 14  1  0
 14 15  2  0
 15 16  1  0
 16 17  1  0
 17 18  2  0
 17 19  1  6
 17 20  2  0
 20 21  1  0
 21 22  2  0
 21 23  2  0
 21 24  1  0
 24 25  1  0
 25 26  1  0
 26 27  1  0
 27 28  1  0
 26 29  1  0
  9 30  1  0
 30 31  2  0
 31 32  1  0
  5 33  2  0
 33 34  1  0
 34  2  1  0
 31  6  1  0
 15 10  1  0
 29 24  1  0
  1 35  1  0
  3 36  1  0
  4 37  1  0
  7 38  1  0
  8 39  1  0
 11 40  1  0
 12 41  1  0
 13 42  1  0
 14 43  1  0
 16 44  1  0
 16 45  1  0
 19 46  1  0
 24 47  1  1
 25 48  1  0
 25 49  1  0
 26 50  1  1
 27 51  1  0
 27 52  1  0
 28 53  1  0
 29 54  1  0
 29 55  1  0
 30 56  1  0
 33 57  1  0
M  CHG  2  24   1  34  -1
M  END
>  <UniqueID>  (22) 
21

>  <SMILES>  (22) 
N=c1ccc(-c2ccc(-c3ccccc3C[S@@](=O)(O)=NS(=O)(=O)[NH+]3CC(CO)C3)cc2F)c[n-]1

>  <Energy>  (22) 
139.91733886184372

>  <Genealogy>  (22) 
N=c1ccc(-c2ccc(-c3ccccc3CS(=O)(O)=NS(=O)(=O)[NH+]3CC(CO)C3)cc2F)c[n-]1 (protonated)
N=c1ccc(-c2ccc(-c3ccccc3C[S@@](=O)(O)=NS(=O)(=O)[NH+]3CC(CO)C3)cc2F)c[n-]1 (chirality)
N=c1ccc(-c2ccc(-c3ccccc3C[S@@](=O)(O)=NS(=O)(=O)[NH+]3CC(CO)C3)cc2F)c[n-]1 (3D coordinates assigned)
N=c1ccc(-c2ccc(-c3ccccc3C[S@@](=O)(O)=NS(=O)(=O)[NH+]3CC(CO)C3)cc2F)c[n-]1 (nonaromatic ring conformer: 139.91733886184372 kcal/mol)

>  <smiles>  (22) 
N=c1ccc(-c2ccc(-c3ccccc3CS(=O)(O)=NS(=O)(=O)N3CC(CO)C3)cc2F)c[nH]1

>  <score_type>  (22) 
oracle

>  <origin>  (22) 
adg

>  <m_score__min__energy>  (22) 
-9.4499999999999993

>  <m_primary>  (22) 
energy

$$$$
22:0
     RDKit          3D

 43 45  0  0  0  0  0  0  0  0999 V2000
   66.1770   32.7200   49.8170 C   0  0  0  0  0  0  0  0  0  0  0  0
   64.7330   33.1020   50.0430 C   0  0  0  0  0  0  0  0  0  0  0  0
   63.8710   33.1300   48.9340 C   0  0  0  0  0  0  0  0  0  0  0  0
   62.5300   33.4920   49.0950 C   0  0  0  0  0  0  0  0  0  0  0  0
   61.6160   33.5120   47.9860 N   0  0  0  0  0  0  0  0  0  0  0  0
   60.3060   32.9160   48.0130 C   0  0  0  0  0  0  0  0  0  0  0  0
   59.9060   32.3050   49.0400 O   0  0  0  0  0  0  0  0  0  0  0  0
   59.4060   33.0120   46.8430 C   0  0  0  0  0  0  0  0  0  0  0  0
   59.3020   31.9220   45.9620 C   0  0  0  0  0  0  0  0  0  0  0  0
   58.4540   31.9790   44.8450 C   0  0  0  0  0  0  0  0  0  0  0  0
   58.3710   30.8140   43.8960 C   0  0  0  0  0  0  0  0  0  0  0  0
   57.6120   29.6740   44.5290 C   0  0  0  0  0  0  0  0  0  0  0  0
   58.2860   28.5100   44.9210 C   0  0  0  0  0  0  0  0  0  0  0  0
   57.5970   27.4700   45.4590 N   0  0  0  0  0  0  0  0  0  0  0  0
   56.2510   27.5340   45.6200 C   0  0  0  0  0  0  0  0  0  0  0  0
   55.6310   26.5610   46.1220 O   0  0  0  0  0  0  0  0  0  0  0  0
   55.5720   28.6470   45.2380 N   0  0  0  0  0  0  0  0  0  0  0  0
   56.2170   29.7110   44.6950 C   0  0  0  0  0  0  0  0  0  0  0  0
   55.5520   30.7230   44.3460 O   0  0  0  0  0  0  0  0  0  0  0  0
   57.7250   33.1510   44.5950 C   0  0  0  0  0  0  0  0  0  0  0  0
   57.8360   34.2460   45.4550 C   0  0  0  0  0  0  0  0  0  0  0  0
   58.6740   34.1840   46.5720 C   0  0  0  0  0  0  0  0  0  0  0  0
   58.8080   35.2890   47.3480 F   0  0  0  0  0  0  0  0  0  0  0  0
   62.0590   33.7790   50.3750 C   0  0  0  0  0  0  0  0  0  0  0  0
   62.9270   33.7360   51.4690 C   0  0  0  0  0  0  0  0  0  0  0  0
   62.4730   34.0290   52.6090 O   0  0  0  0  0  0  0  0  0  0  0  0
   64.2470   33.3830   51.3020 N   0  0  0  0  0  0  0  0  0  0  0  0
   65.1510   33.3490   52.4680 C   0  0  0  0  0  0  0  0  0  0  0  0
   66.6775   32.5876   50.7876 H   0  0  0  0  0  0  0  0  0  0  0  0
   66.2228   31.7788   49.2494 H   0  0  0  0  0  0  0  0  0  0  0  0
   66.6822   33.5154   49.2494 H   0  0  0  0  0  0  0  0  0  0  0  0
   64.2520   32.8664   47.9363 H   0  0  0  0  0  0  0  0  0  0  0  0
   61.9530   33.9460   47.0970 H   0  0  0  0  0  0  0  0  0  0  0  0
   59.8924   31.0131   46.1501 H   0  0  0  0  0  0  0  0  0  0  0  0
   57.8525   31.1298   42.9787 H   0  0  0  0  0  0  0  0  0  0  0  0
   59.3897   30.4753   43.6563 H   0  0  0  0  0  0  0  0  0  0  0  0
   59.3761   28.4379   44.7928 H   0  0  0  0  0  0  0  0  0  0  0  0
   57.0632   33.2080   43.7182 H   0  0  0  0  0  0  0  0  0  0  0  0
   57.2611   35.1616   45.2522 H   0  0  0  0  0  0  0  0  0  0  0  0
   61.0009   34.0401   50.5243 H   0  0  0  0  0  0  0  0  0  0  0  0
   64.5568   33.3713   53.3934 H   0  0  0  0  0  0  0  0  0  0  0  0
   65.7513   32.4276   52.4398 H   0  0  0  0  0  0  0  0  0  0  0  0
   65.8188   34.2227   52.4398 H   0  0  0  0  0  0  0  0  0  0  0  0
  1  2  1  0
  2  3  2  0
  3  4  1  0
  4  5  1  0
  5  6  1  0
  6  7  2  0
  6  8  1  0
  8  9  2  0
  9 10  1  0
 10 11  1  0
 11 12  1  0
 12 13  2  0
 13 14  1  0
 14 15  1  0
 15 16  2  0
 15 17  1  0
 17 18  1  0
 18 19  2  0
 10 20  2  0
 20 21  1  0
 21 22  2  0
 22 23  1  0
  4 24  2  0
 24 25  1  0
 25 26  2  0
 25 27  1  0
 27 28  1  0
 27  2  1  0
 22  8  1  0
 18 12  1  0
  1 29  1  0
  1 30  1  0
  1 31  1  0
  3 32  1  0
  5 33  1  0
  9 34  1  0
 11 35  1  0
 11 36  1  0
 13 37  1  0
 20 38  1  0
 21 39  1  0
 24 40  1  0
 28 41  1  0
 28 42  1  0
 28 43  1  0
M  CHG  2  14  -1  17  -1
M  END
>  <UniqueID>  (23) 
22

>  <SMILES>  (23) 
Cc1cc(NC(=O)c2cc(Cc3c[n-]c(=O)[n-]c3=O)ccc2F)cc(=O)n1C

>  <Energy>  (23) 
59.44872210672065

>  <Genealogy>  (23) 
Cc1cc(NC(=O)c2cc(Cc3c[n-]c(=O)[n-]c3=O)ccc2F)cc(=O)n1C (protonated)
Cc1cc(NC(=O)c2cc(Cc3c[n-]c(=O)[n-]c3=O)ccc2F)cc(=O)n1C (3D coordinates assigned)
Cc1cc(NC(=O)c2cc(Cc3c[n-]c(=O)[n-]c3=O)ccc2F)cc(=O)n1C (optimized conformer: 59.44872210672065 kcal/mol)

>  <smiles>  (23) 
Cc1cc(NC(=O)c2cc(Cc3c[nH]c(=O)[nH]c3=O)ccc2F)cc(=O)n1C

>  <score_type>  (23) 
oracle

>  <origin>  (23) 
adg

>  <m_score__min__energy>  (23) 
-13.15

>  <m_primary>  (23) 
energy

$$$$
23:0
     RDKit          3D

 65 69  0  0  0  0  0  0  0  0999 V2000
   60.7670   28.1320   49.7330 C   0  0  0  0  0  0  0  0  0  0  0  0
   59.8070   29.1790   50.1970 C   0  0  0  0  0  0  0  0  0  0  0  0
   59.2820   29.2050   51.4410 N   0  0  0  0  0  0  0  0  0  0  0  0
   58.4920   30.2660   51.5210 N   0  0  0  0  0  0  0  0  0  0  0  0
   57.8080   30.6800   52.7440 C   0  0  0  0  0  0  0  0  0  0  0  0
   56.3530   30.3080   52.6620 C   0  0  0  0  0  0  0  0  0  0  0  0
   55.9010   29.0800   53.1740 C   0  0  0  0  0  0  0  0  0  0  0  0
   54.5590   28.7110   53.0390 C   0  0  0  0  0  0  0  0  0  0  0  0
   53.6640   29.5580   52.3830 C   0  0  0  0  0  0  0  0  0  0  0  0
   54.1080   30.7770   51.8630 C   0  0  0  0  0  0  0  0  0  0  0  0
   55.4470   31.1520   51.9990 C   0  0  0  0  0  0  0  0  0  0  0  0
   58.5200   30.9280   50.3500 C   0  0  0  0  0  0  0  0  0  0  0  0
   57.8740   31.9850   50.1170 O   0  0  0  0  0  0  0  0  0  0  0  0
   59.3530   30.2720   49.4660 C   0  0  0  0  0  0  0  0  0  0  0  0
   59.6980   30.6510   48.0790 C   0  0  0  0  0  0  0  0  0  0  0  0
   59.0650   30.1250   47.1270 O   0  0  0  0  0  0  0  0  0  0  0  0
   60.8030   31.6000   47.7930 C   0  0  0  0  0  0  0  0  0  0  0  0
   62.0650   31.0760   47.4540 C   0  0  0  0  0  0  0  0  0  0  0  0
   63.1570   31.9200   47.2480 C   0  0  0  0  0  0  0  0  0  0  0  0
   63.0090   33.2990   47.3870 C   0  0  0  0  0  0  0  0  0  0  0  0
   61.7650   33.8400   47.7160 C   0  0  0  0  0  0  0  0  0  0  0  0
   60.6470   33.0070   47.8900 C   0  0  0  0  0  0  0  0  0  0  0  0
   59.3590   33.6420   48.2390 C   0  0  0  0  0  0  0  0  0  0  0  0
   59.2650   34.2630   49.3320 O   0  0  0  0  0  0  0  0  0  0  0  0
   58.2090   33.5690   47.3840 N   0  0  0  0  0  0  0  0  0  0  0  0
   58.1620   33.1280   46.0190 C   0  0  0  0  0  0  0  0  0  0  0  0
   58.6630   33.9090   44.9640 C   0  0  0  0  0  0  0  0  0  0  0  0
   58.6020   33.4370   43.6510 C   0  0  0  0  0  0  0  0  0  0  0  0
   58.0160   32.1990   43.3770 C   0  0  0  0  0  0  0  0  0  0  0  0
   57.4670   31.4340   44.4140 C   0  0  0  0  0  0  0  0  0  0  0  0
   56.6890   29.8830   44.0700 S   0  0  0  0  0  0  0  0  0  0  0  0
   56.2770   29.8540   42.6240 O   0  0  0  0  0  0  0  0  0  0  0  0
   55.4480   29.7570   44.9080 O   0  0  0  0  0  0  0  0  0  0  0  0
   57.7340   28.5190   44.3900 N   0  0  0  0  0  0  0  0  0  0  0  0
   59.1370   28.9160   44.4820 C   0  0  0  0  0  0  0  0  0  0  0  0
   59.8190   27.8580   45.3270 C   0  0  0  0  0  0  0  0  0  0  0  0
   58.7220   27.3130   46.2240 C   0  0  0  0  0  0  0  0  0  0  0  0
   57.4160   27.8630   45.6610 C   0  0  0  0  0  0  0  0  0  0  0  0
   57.5470   31.9030   45.7330 C   0  0  0  0  0  0  0  0  0  0  0  0
   61.2202   27.6378   50.6050 H   0  0  0  0  0  0  0  0  0  0  0  0
   60.2317   27.3868   49.1262 H   0  0  0  0  0  0  0  0  0  0  0  0
   61.5557   28.6008   49.1262 H   0  0  0  0  0  0  0  0  0  0  0  0
   58.2661   30.1759   53.6077 H   0  0  0  0  0  0  0  0  0  0  0  0
   57.8992   31.7699   52.8612 H   0  0  0  0  0  0  0  0  0  0  0  0
   56.6058   28.4061   53.6831 H   0  0  0  0  0  0  0  0  0  0  0  0
   54.2084   27.7528   53.4499 H   0  0  0  0  0  0  0  0  0  0  0  0
   52.6090   29.2659   52.2753 H   0  0  0  0  0  0  0  0  0  0  0  0
   53.4016   31.4427   51.3455 H   0  0  0  0  0  0  0  0  0  0  0  0
   55.7926   32.1110   51.5856 H   0  0  0  0  0  0  0  0  0  0  0  0
   62.1917   29.9883   47.3503 H   0  0  0  0  0  0  0  0  0  0  0  0
   64.1352   31.4968   46.9758 H   0  0  0  0  0  0  0  0  0  0  0  0
   63.8739   33.9620   47.2372 H   0  0  0  0  0  0  0  0  0  0  0  0
   61.6591   34.9278   47.8401 H   0  0  0  0  0  0  0  0  0  0  0  0
   59.1044   34.8947   45.1727 H   0  0  0  0  0  0  0  0  0  0  0  0
   59.0164   34.0415   42.8307 H   0  0  0  0  0  0  0  0  0  0  0  0
   57.9856   31.8236   42.3435 H   0  0  0  0  0  0  0  0  0  0  0  0
   59.5894   28.9544   43.4800 H   0  0  0  0  0  0  0  0  0  0  0  0
   59.2432   29.9161   44.9276 H   0  0  0  0  0  0  0  0  0  0  0  0
   60.2318   27.0608   44.6913 H   0  0  0  0  0  0  0  0  0  0  0  0
   60.6625   28.2662   45.9031 H   0  0  0  0  0  0  0  0  0  0  0  0
   58.7173   26.2133   46.1989 H   0  0  0  0  0  0  0  0  0  0  0  0
   58.8694   27.6117   47.2723 H   0  0  0  0  0  0  0  0  0  0  0  0
   56.7027   27.0425   45.4935 H   0  0  0  0  0  0  0  0  0  0  0  0
   56.9570   28.5744   46.3633 H   0  0  0  0  0  0  0  0  0  0  0  0
   57.1224   31.3027   46.5511 H   0  0  0  0  0  0  0  0  0  0  0  0
  1  2  1  0
  2  3  1  0
  3  4  1  0
  4  5  1  0
  5  6  1  0
  6  7  2  0
  7  8  1  0
  8  9  2  0
  9 10  1  0
 10 11  2  0
  4 12  1  0
 12 13  2  0
 12 14  1  0
 14 15  1  0
 15 16  2  0
 15 17  1  0
 17 18  2  0
 18 19  1  0
 19 20  2  0
 20 21  1  0
 21 22  2  0
 22 23  1  0
 23 24  2  0
 23 25  1  0
 25 26  1  0
 26 27  2  0
 27 28  1  0
 28 29  2  0
 29 30  1  0
 30 31  1  0
 31 32  2  0
 31 33  2  0
 31 34  1  0
 34 35  1  0
 35 36  1  0
 36 37  1  0
 37 38  1  0
 30 39  2  0
 14  2  2  0
 22 17  1  0
 39 26  1  0
 11  6  1  0
 38 34  1  0
  1 40  1  0
  1 41  1  0
  1 42  1  0
  5 43  1  0
  5 44  1  0
  7 45  1  0
  8 46  1  0
  9 47  1  0
 10 48  1  0
 11 49  1  0
 18 50  1  0
 19 51  1  0
 20 52  1  0
 21 53  1  0
 27 54  1  0
 28 55  1  0
 29 56  1  0
 35 57  1  0
 35 58  1  0
 36 59  1  0
 36 60  1  0
 37 61  1  0
 37 62  1  0
 38 63  1  0
 38 64  1  0
 39 65  1  0
M  CHG  2   3  -1  25  -1
M  END
>  <UniqueID>  (24) 
23

>  <SMILES>  (24) 
Cc1[n-]n(Cc2ccccc2)c(=O)c1C(=O)c1ccccc1C(=O)[N-]c1cccc(S(=O)(=O)N2CCCC2)c1

>  <Energy>  (24) 
119.5328248006852

>  <Genealogy>  (24) 
Cc1[n-]n(Cc2ccccc2)c(=O)c1C(=O)c1ccccc1C(=O)[N-]c1cccc(S(=O)(=O)N2CCCC2)c1 (protonated)
Cc1[n-]n(Cc2ccccc2)c(=O)c1C(=O)c1ccccc1C(=O)[N-]c1cccc(S(=O)(=O)N2CCCC2)c1 (3D coordinates assigned)
Cc1[n-]n(Cc2ccccc2)c(=O)c1C(=O)c1ccccc1C(=O)[N-]c1cccc(S(=O)(=O)N2CCCC2)c1 (nonaromatic ring conformer: 119.5328248006852 kcal/mol)

>  <smiles>  (24) 
Cc1[nH]n(Cc2ccccc2)c(=O)c1C(=O)c1ccccc1C(=O)Nc1cccc(S(=O)(=O)N2CCCC2)c1

>  <score_type>  (24) 
oracle

>  <origin>  (24) 
adg

>  <m_score__min__energy>  (24) 
-13.039999999999999

>  <m_primary>  (24) 
energy

$$$$
24:0
     RDKit          3D

 46 48  0  0  0  0  0  0  0  0999 V2000
   58.9168   29.5750   44.8693 H   0  0  0  0  0  0  0  0  0  0  0  0
   57.9200   29.1170   44.7880 C   0  0  0  0  0  0  0  0  0  0  0  0
   56.8790   29.7570   45.2250 N   0  0  0  0  0  0  0  0  0  0  0  0
   56.5390   31.0310   44.7980 O   0  0  0  0  0  0  0  0  0  0  0  0
   57.3310   32.1690   45.0220 C   0  0  0  0  0  0  0  0  0  0  0  0
   58.0930   32.7590   43.9950 C   0  0  0  0  0  0  0  0  0  0  0  0
   58.0784   32.3261   42.9839 H   0  0  0  0  0  0  0  0  0  0  0  0
   58.8680   33.8930   44.2560 C   0  0  0  0  0  0  0  0  0  0  0  0
   59.4505   34.3587   43.4474 H   0  0  0  0  0  0  0  0  0  0  0  0
   58.9030   34.4350   45.5430 C   0  0  0  0  0  0  0  0  0  0  0  0
   59.5091   35.3301   45.7465 H   0  0  0  0  0  0  0  0  0  0  0  0
   58.1680   33.8400   46.5720 C   0  0  0  0  0  0  0  0  0  0  0  0
   58.2018   34.2630   47.5869 H   0  0  0  0  0  0  0  0  0  0  0  0
   57.3900   32.7080   46.3130 C   0  0  0  0  0  0  0  0  0  0  0  0
   56.8206   32.2377   47.1283 H   0  0  0  0  0  0  0  0  0  0  0  0
   57.7760   27.7840   44.1850 C   0  0  0  0  0  0  0  0  0  0  0  0
   57.3710   26.5970   44.7920 C   0  0  0  0  0  0  0  0  0  0  0  0
   56.8750   26.4290   46.1800 C   0  0  0  0  0  0  0  0  0  0  0  0
   55.7140   25.9850   46.3870 O   0  0  0  0  0  0  0  0  0  0  0  0
   57.6960   26.8110   47.2890 N   0  0  0  0  0  0  0  0  0  0  0  0
   59.0410   26.2990   47.5250 C   0  0  0  0  0  0  0  0  0  0  0  0
   59.2639   26.3534   48.6008 H   0  0  0  0  0  0  0  0  0  0  0  0
   59.0876   25.2567   47.1764 H   0  0  0  0  0  0  0  0  0  0  0  0
   60.0790   27.1210   46.7550 C   0  0  0  0  0  0  0  0  0  0  0  0
   61.0729   26.6772   46.9139 H   0  0  0  0  0  0  0  0  0  0  0  0
   59.8032   27.1063   45.6902 H   0  0  0  0  0  0  0  0  0  0  0  0
   60.1090   28.5600   47.2100 C   0  0  0  0  0  0  0  0  0  0  0  0
   59.5730   28.9090   48.4610 C   0  0  0  0  0  0  0  0  0  0  0  0
   59.1756   28.1260   49.1235 H   0  0  0  0  0  0  0  0  0  0  0  0
   59.5420   30.2450   48.8680 C   0  0  0  0  0  0  0  0  0  0  0  0
   59.1239   30.5106   49.8502 H   0  0  0  0  0  0  0  0  0  0  0  0
   60.0420   31.2450   48.0280 C   0  0  0  0  0  0  0  0  0  0  0  0
   60.0177   32.2966   48.3499 H   0  0  0  0  0  0  0  0  0  0  0  0
   60.5720   30.9090   46.7810 C   0  0  0  0  0  0  0  0  0  0  0  0
   60.9635   31.6975   46.1215 H   0  0  0  0  0  0  0  0  0  0  0  0
   60.6070   29.5730   46.3670 C   0  0  0  0  0  0  0  0  0  0  0  0
   61.1050   29.2740   45.1410 F   0  0  0  0  0  0  0  0  0  0  0  0
   57.3950   25.6220   43.8490 N   0  0  0  0  0  0  0  0  0  0  0  0
   57.0000   24.2240   44.0050 C   0  0  0  0  0  0  0  0  0  0  0  0
   56.9310   23.9797   45.0753 H   0  0  0  0  0  0  0  0  0  0  0  0
   56.0215   24.0641   43.5286 H   0  0  0  0  0  0  0  0  0  0  0  0
   57.7501   23.5757   43.5286 H   0  0  0  0  0  0  0  0  0  0  0  0
   57.7910   26.1430   42.6980 N   0  0  0  0  0  0  0  0  0  0  0  0
   57.8870   25.6150   41.8010 H   0  0  0  0  0  0  0  0  0  0  0  0
   58.0270   27.4560   42.8650 C   0  0  0  0  0  0  0  0  0  0  0  0
   58.3633   28.1526   42.0829 H   0  0  0  0  0  0  0  0  0  0  0  0
  1  2  1  0
  2  3  2  0
  3  4  1  0
  4  5  1  0
  5  6  2  0
  6  7  1  0
  6  8  1  0
  8  9  1  0
  8 10  2  0
 10 11  1  0
 10 12  1  0
 12 13  1  0
 12 14  2  0
 14 15  1  0
  2 16  1  0
 16 17  2  0
 17 18  1  0
 18 19  2  0
 18 20  1  0
 20 21  1  0
 21 22  1  0
 21 23  1  0
 21 24  1  0
 24 25  1  0
 24 26  1  0
 24 27  1  0
 27 28  2  0
 28 29  1  0
 28 30  1  0
 30 31  1  0
 30 32  2  0
 32 33  1  0
 32 34  1  0
 34 35  1  0
 34 36  2  0
 36 37  1  0
 17 38  1  0
 38 39  1  0
 39 40  1  0
 39 41  1  0
 39 42  1  0
 38 43  1  0
 43 44  1  0
 43 45  2  0
 45 46  1  0
 14  5  1  0
 45 16  1  0
 36 27  1  0
M  CHG  2  20  -1  43   1
M  END
>  <UniqueID>  (25) 
24

>  <SMILES>  (25) 
Cn1[nH+]cc(/C=N/Oc2ccccc2)c1C(=O)[N-]CCc1ccccc1F

>  <Energy>  (25) 
81.73450235541256

>  <Genealogy>  (25) 
Cn1[nH+]cc(C=NOc2ccccc2)c1C(=O)[N-]CCc1ccccc1F (protonated)
Cn1[nH+]cc(/C=N/Oc2ccccc2)c1C(=O)[N-]CCc1ccccc1F (cis-trans isomerization)
Cn1[nH+]cc(/C=N/Oc2ccccc2)c1C(=O)[N-]CCc1ccccc1F (3D coordinates assigned)
Cn1[nH+]cc(/C=N/Oc2ccccc2)c1C(=O)[N-]CCc1ccccc1F (optimized conformer: 81.73450235541256 kcal/mol)

>  <smiles>  (25) 
Cn1ncc(C=NOc2ccccc2)c1C(=O)NCCc1ccccc1F

>  <score_type>  (25) 
oracle

>  <origin>  (25) 
adg

>  <m_score__min__energy>  (25) 
-8.6099999999999994

>  <m_primary>  (25) 
energy

$$$$
25:0
     RDKit          3D

 58 60  0  0  0  0  0  0  0  0999 V2000
   55.5780   29.5120   44.9460 O   0  0  0  0  0  0  0  0  0  0  0  0
   56.8110   29.5430   45.1930 C   0  0  0  0  0  0  0  0  0  0  0  0
   57.4080   28.5030   46.1040 C   0  0  0  0  0  0  0  0  0  0  0  0
   58.4040   27.6140   45.3510 C   0  0  0  0  0  0  0  0  0  0  0  0
   57.6870   26.4800   44.6180 C   0  0  0  0  0  0  0  0  0  0  0  0
   57.2310   25.4760   45.5760 N   0  0  0  0  0  0  0  0  0  0  0  0
   55.9420   25.5270   46.2040 C   0  0  0  0  0  0  0  0  0  0  0  0
   55.1710   26.5040   45.9960 O   0  0  0  0  0  0  0  0  0  0  0  0
   55.5470   24.4700   47.0860 N   0  0  0  0  0  0  0  0  0  0  0  0
   55.0360   23.1800   46.6300 C   0  0  0  0  0  0  0  0  0  0  0  0
   55.7310   22.7690   45.3630 C   0  0  0  0  0  0  0  0  0  0  0  0
   56.7840   21.8420   45.4080 C   0  0  0  0  0  0  0  0  0  0  0  0
   57.4030   21.4210   44.2280 C   0  0  0  0  0  0  0  0  0  0  0  0
   56.9710   21.9170   42.9960 C   0  0  0  0  0  0  0  0  0  0  0  0
   55.9220   22.8400   42.9420 C   0  0  0  0  0  0  0  0  0  0  0  0
   55.2990   23.2610   44.1200 C   0  0  0  0  0  0  0  0  0  0  0  0
   57.5990   30.5980   44.6280 N   0  0  0  0  0  0  0  0  0  0  0  0
   57.9360   31.8510   45.2490 C   0  0  0  0  0  0  0  0  0  0  0  0
   57.1970   33.0130   44.9530 C   0  0  0  0  0  0  0  0  0  0  0  0
   57.4740   34.2150   45.6040 C   0  0  0  0  0  0  0  0  0  0  0  0
   58.4700   34.2710   46.5780 C   0  0  0  0  0  0  0  0  0  0  0  0
   59.1910   33.1210   46.9060 C   0  0  0  0  0  0  0  0  0  0  0  0
   58.9360   31.9000   46.2520 C   0  0  0  0  0  0  0  0  0  0  0  0
   59.7280   30.7020   46.6270 C   0  0  0  0  0  0  0  0  0  0  0  0
   60.3250   30.0270   45.7450 O   0  0  0  0  0  0  0  0  0  0  0  0
   59.8270   30.3130   48.0010 N   0  0  0  0  0  0  0  0  0  0  0  0
   61.0850   30.3160   48.7390 C   0  0  0  0  0  0  0  0  0  0  0  0
   61.8530   31.5670   48.4170 C   0  0  0  0  0  0  0  0  0  0  0  0
   62.8510   31.5580   47.4270 C   0  0  0  0  0  0  0  0  0  0  0  0
   63.5770   32.7200   47.1460 C   0  0  0  0  0  0  0  0  0  0  0  0
   63.3200   33.8950   47.8600 C   0  0  0  0  0  0  0  0  0  0  0  0
   62.3440   33.9050   48.8640 C   0  0  0  0  0  0  0  0  0  0  0  0
   61.6120   32.7460   49.1420 C   0  0  0  0  0  0  0  0  0  0  0  0
   57.9303   29.0070   46.9305 H   0  0  0  0  0  0  0  0  0  0  0  0
   56.5958   27.8686   46.4886 H   0  0  0  0  0  0  0  0  0  0  0  0
   58.9494   28.2268   44.6182 H   0  0  0  0  0  0  0  0  0  0  0  0
   59.0989   27.1730   46.0809 H   0  0  0  0  0  0  0  0  0  0  0  0
   56.8203   26.8869   44.0764 H   0  0  0  0  0  0  0  0  0  0  0  0
   58.3841   26.0113   43.9078 H   0  0  0  0  0  0  0  0  0  0  0  0
   57.8230   24.6260   45.7250 H   0  0  0  0  0  0  0  0  0  0  0  0
   55.2164   22.4220   47.4064 H   0  0  0  0  0  0  0  0  0  0  0  0
   53.9567   23.2678   46.4368 H   0  0  0  0  0  0  0  0  0  0  0  0
   57.1234   21.4452   46.3762 H   0  0  0  0  0  0  0  0  0  0  0  0
   58.2312   20.6983   44.2696 H   0  0  0  0  0  0  0  0  0  0  0  0
   57.4562   21.5814   42.0676 H   0  0  0  0  0  0  0  0  0  0  0  0
   55.5869   23.2350   41.9716 H   0  0  0  0  0  0  0  0  0  0  0  0
   54.4677   23.9799   44.0738 H   0  0  0  0  0  0  0  0  0  0  0  0
   56.3944   32.9721   44.2019 H   0  0  0  0  0  0  0  0  0  0  0  0
   56.9052   35.1211   45.3483 H   0  0  0  0  0  0  0  0  0  0  0  0
   58.6878   35.2210   47.0880 H   0  0  0  0  0  0  0  0  0  0  0  0
   59.9670   33.1693   47.6841 H   0  0  0  0  0  0  0  0  0  0  0  0
   60.8766   30.2815   49.8185 H   0  0  0  0  0  0  0  0  0  0  0  0
   61.6802   29.4367   48.4516 H   0  0  0  0  0  0  0  0  0  0  0  0
   63.0619   30.6328   46.8707 H   0  0  0  0  0  0  0  0  0  0  0  0
   64.3501   32.7098   46.3635 H   0  0  0  0  0  0  0  0  0  0  0  0
   63.8847   34.8113   47.6328 H   0  0  0  0  0  0  0  0  0  0  0  0
   62.1527   34.8256   49.4349 H   0  0  0  0  0  0  0  0  0  0  0  0
   60.8453   32.7577   49.9307 H   0  0  0  0  0  0  0  0  0  0  0  0
  1  2  2  0
  2  3  1  0
  3  4  1  0
  4  5  1  0
  5  6  1  0
  6  7  1  0
  7  8  2  0
  7  9  1  0
  9 10  1  0
 10 11  1  0
 11 12  2  0
 12 13  1  0
 13 14  2  0
 14 15  1  0
 15 16  2  0
  2 17  1  0
 17 18  1  0
 18 19  2  0
 19 20  1  0
 20 21  2  0
 21 22  1  0
 22 23  2  0
 23 24  1  0
 24 25  2  0
 24 26  1  0
 26 27  1  0
 27 28  1  0
 28 29  2  0
 29 30  1  0
 30 31  2  0
 31 32  1  0
 32 33  2  0
 16 11  1  0
 23 18  1  0
 33 28  1  0
  3 34  1  0
  3 35  1  0
  4 36  1  0
  4 37  1  0
  5 38  1  0
  5 39  1  0
  6 40  1  0
 10 41  1  0
 10 42  1  0
 12 43  1  0
 13 44  1  0
 14 45  1  0
 15 46  1  0
 16 47  1  0
 19 48  1  0
 20 49  1  0
 21 50  1  0
 22 51  1  0
 27 52  1  0
 27 53  1  0
 29 54  1  0
 30 55  1  0
 31 56  1  0
 32 57  1  0
 33 58  1  0
M  CHG  3   9  -1  17  -1  26  -1
M  END
>  <UniqueID>  (26) 
25

>  <SMILES>  (26) 
O=C(CCCNC(=O)[N-]Cc1ccccc1)[N-]c1ccccc1C(=O)[N-]Cc1ccccc1

>  <Energy>  (26) 
57.28552318907602

>  <Genealogy>  (26) 
O=C(CCCNC(=O)[N-]Cc1ccccc1)[N-]c1ccccc1C(=O)[N-]Cc1ccccc1 (protonated)
O=C(CCCNC(=O)[N-]Cc1ccccc1)[N-]c1ccccc1C(=O)[N-]Cc1ccccc1 (3D coordinates assigned)
O=C(CCCNC(=O)[N-]Cc1ccccc1)[N-]c1ccccc1C(=O)[N-]Cc1ccccc1 (optimized conformer: 57.28552318907602 kcal/mol)

>  <smiles>  (26) 
O=C(CCCNC(=O)NCc1ccccc1)Nc1ccccc1C(=O)NCc1ccccc1

>  <score_type>  (26) 
oracle

>  <origin>  (26) 
adg

>  <m_score__min__energy>  (26) 
-15.16

>  <m_primary>  (26) 
energy

$$$$
26:0
     RDKit          3D

 56 59  0  0  0  0  0  0  0  0999 V2000
   54.4400   30.2170   55.0290 C   0  0  0  0  0  0  0  0  0  0  0  0
   54.9220   30.3830   53.7860 C   0  0  0  0  0  0  0  0  0  0  0  0
   54.1830   30.7770   52.6630 C   0  0  0  0  0  0  0  0  0  0  0  0
   52.8710   31.0810   52.6120 C   0  0  0  0  0  0  0  0  0  0  0  0
   52.0970   31.1810   51.3620 C   0  0  0  0  0  0  0  0  0  0  0  0
   52.1850   30.2820   50.3660 N   0  0  0  0  0  0  0  0  0  0  0  0
   51.3920   30.8000   49.4040 C   0  0  0  0  0  0  0  0  0  0  0  0
   51.2050   30.2260   48.2990 O   0  0  0  0  0  0  0  0  0  0  0  0
   50.8260   31.9860   49.7130 N   0  0  0  0  0  0  0  0  0  0  0  0
   51.2910   32.2210   50.9500 C   0  0  0  0  0  0  0  0  0  0  0  0
   51.0220   33.3820   51.6640 O   0  0  0  0  0  0  0  0  0  0  0  0
   55.0850   30.8620   51.6140 C   0  0  0  0  0  0  0  0  0  0  0  0
   56.3150   30.4960   52.1190 C   0  0  0  0  0  0  0  0  0  0  0  0
   57.5570   30.4900   51.3270 C   0  0  0  0  0  0  0  0  0  0  0  0
   57.8270   29.4720   50.6340 O   0  0  0  0  0  0  0  0  0  0  0  0
   58.4810   31.5950   51.3760 N   0  0  0  0  0  0  0  0  0  0  0  0
   59.3510   31.8860   50.2300 C   0  0  0  0  0  0  0  0  0  0  0  0
   60.7890   32.0990   50.7100 C   0  0  0  0  0  0  0  0  0  0  0  0
   60.8490   33.0610   51.8230 N   0  0  0  0  0  0  0  0  0  0  0  0
   62.1190   33.6480   52.1850 C   0  0  0  0  0  0  0  0  0  0  0  0
   62.4460   33.8680   53.5340 C   0  0  0  0  0  0  0  0  0  0  0  0
   63.6760   34.4310   53.8850 C   0  0  0  0  0  0  0  0  0  0  0  0
   64.6060   34.7800   52.9000 C   0  0  0  0  0  0  0  0  0  0  0  0
   65.8260   35.3420   53.3040 O   0  0  0  0  0  0  0  0  0  0  0  0
   66.7770   35.9200   52.4170 C   0  0  0  0  0  0  0  0  0  0  0  0
   64.2870   34.5580   51.5480 C   0  0  0  0  0  0  0  0  0  0  0  0
   63.0570   33.9960   51.1960 C   0  0  0  0  0  0  0  0  0  0  0  0
   59.6070   33.5400   52.4490 C   0  0  0  0  0  0  0  0  0  0  0  0
   58.5980   32.3960   52.6050 C   0  0  0  0  0  0  0  0  0  0  0  0
   56.2240   30.2010   53.4390 N   0  0  0  0  0  0  0  0  0  0  0  0
   57.3550   29.9350   54.3440 C   0  0  0  0  0  0  0  0  0  0  0  0
   57.9280   28.5460   54.0850 C   0  0  0  0  0  0  0  0  0  0  0  0
   55.1114   29.9034   55.8419 H   0  0  0  0  0  0  0  0  0  0  0  0
   53.3739   30.3947   55.2338 H   0  0  0  0  0  0  0  0  0  0  0  0
   52.3461   31.2657   53.5609 H   0  0  0  0  0  0  0  0  0  0  0  0
   54.8629   31.1630   50.5795 H   0  0  0  0  0  0  0  0  0  0  0  0
   59.3225   31.0410   49.5263 H   0  0  0  0  0  0  0  0  0  0  0  0
   58.9971   32.7988   49.7285 H   0  0  0  0  0  0  0  0  0  0  0  0
   61.1997   31.1359   51.0474 H   0  0  0  0  0  0  0  0  0  0  0  0
   61.3764   32.5030   49.8723 H   0  0  0  0  0  0  0  0  0  0  0  0
   61.7274   33.5946   54.3206 H   0  0  0  0  0  0  0  0  0  0  0  0
   63.9150   34.6012   54.9452 H   0  0  0  0  0  0  0  0  0  0  0  0
   67.5744   36.4046   52.9995 H   0  0  0  0  0  0  0  0  0  0  0  0
   67.2123   35.1336   51.7830 H   0  0  0  0  0  0  0  0  0  0  0  0
   66.2794   36.6686   51.7830 H   0  0  0  0  0  0  0  0  0  0  0  0
   65.0096   34.8282   50.7638 H   0  0  0  0  0  0  0  0  0  0  0  0
   62.8200   33.8241   50.1357 H   0  0  0  0  0  0  0  0  0  0  0  0
   59.8397   33.9531   53.4416 H   0  0  0  0  0  0  0  0  0  0  0  0
   59.1644   34.3145   51.8054 H   0  0  0  0  0  0  0  0  0  0  0  0
   58.9266   31.7416   53.4258 H   0  0  0  0  0  0  0  0  0  0  0  0
   57.6133   32.8372   52.8190 H   0  0  0  0  0  0  0  0  0  0  0  0
   58.1391   30.6878   54.1751 H   0  0  0  0  0  0  0  0  0  0  0  0
   56.9995   29.9860   55.3837 H   0  0  0  0  0  0  0  0  0  0  0  0
   58.1330   28.0491   55.0447 H   0  0  0  0  0  0  0  0  0  0  0  0
   57.2019   27.9509   53.5117 H   0  0  0  0  0  0  0  0  0  0  0  0
   58.8625   28.6359   53.5117 H   0  0  0  0  0  0  0  0  0  0  0  0
  1  2  2  0
  2  3  1  0
  3  4  2  3
  4  5  1  0
  5  6  1  0
  6  7  1  0
  7  8  2  0
  7  9  1  0
  9 10  1  0
 10 11  1  0
  3 12  1  0
 12 13  2  0
 13 14  1  0
 14 15  2  0
 14 16  1  0
 16 17  1  0
 17 18  1  0
 18 19  1  0
 19 20  1  0
 20 21  2  0
 21 22  1  0
 22 23  2  0
 23 24  1  0
 24 25  1  0
 23 26  1  0
 26 27  2  0
 19 28  1  0
 28 29  1  0
 13 30  1  0
 30 31  1  0
 31 32  1  0
 30  2  1  0
 10  5  2  0
 29 16  1  0
 27 20  1  0
  1 33  1  0
  1 34  1  0
  4 35  1  0
 12 36  1  0
 17 37  1  0
 17 38  1  0
 18 39  1  0
 18 40  1  0
 21 41  1  0
 22 42  1  0
 25 43  1  0
 25 44  1  0
 25 45  1  0
 26 46  1  0
 27 47  1  0
 28 48  1  0
 28 49  1  0
 29 50  1  0
 29 51  1  0
 31 52  1  0
 31 53  1  0
 32 54  1  0
 32 55  1  0
 32 56  1  0
M  CHG  3   6  -1   9  -1  11  -1
M  END
>  <UniqueID>  (27) 
26

>  <SMILES>  (27) 
C=c1c(=Cc2[n-]c(=O)[n-]c2[O-])cc(C(=O)N2CCN(c3ccc(OC)cc3)CC2)n1CC

>  <Energy>  (27) 
130.93224750413663

>  <Genealogy>  (27) 
C=c1c(=Cc2[n-]c(=O)[n-]c2[O-])cc(C(=O)N2CCN(c3ccc(OC)cc3)CC2)n1CC (protonated)
C=c1c(=Cc2[n-]c(=O)[n-]c2[O-])cc(C(=O)N2CCN(c3ccc(OC)cc3)CC2)n1CC (3D coordinates assigned)
C=c1c(=Cc2[n-]c(=O)[n-]c2[O-])cc(C(=O)N2CCN(c3ccc(OC)cc3)CC2)n1CC (nonaromatic ring conformer: 130.93224750413663 kcal/mol)

>  <smiles>  (27) 
C=c1c(=Cc2[nH]c(=O)[nH]c2O)cc(C(=O)N2CCN(c3ccc(OC)cc3)CC2)n1CC

>  <score_type>  (27) 
oracle

>  <origin>  (27) 
adg

>  <m_score__min__energy>  (27) 
-16.140000000000001

>  <m_primary>  (27) 
energy

$$$$
27:0
     RDKit          3D

 43 44  0  0  0  0  0  0  0  0999 V2000
   60.0440   26.8120   47.0470 C   0  0  0  0  0  0  0  0  0  0  0  0
   59.2300   27.7970   46.2230 C   0  0  0  0  0  0  0  0  0  0  0  0
   58.0120   27.3680   45.6230 C   0  0  0  0  0  0  0  0  0  0  0  0
   57.5200   25.9240   45.7080 C   0  0  0  0  0  0  0  0  0  0  0  0
   56.1690   25.8050   46.3450 C   0  0  0  0  0  0  0  0  0  0  0  0
   55.9410   24.8860   47.1750 O   0  0  0  0  0  0  0  0  0  0  0  0
   55.1520   26.6900   46.0030 O   0  0  0  0  0  0  0  0  0  0  0  0
   57.1910   28.3320   45.0210 C   0  0  0  0  0  0  0  0  0  0  0  0
   57.5990   29.6600   44.9250 C   0  0  0  0  0  0  0  0  0  0  0  0
   56.5470   30.8490   44.1470 S   0  0  0  0  0  0  0  0  0  0  0  0
   57.0500   31.0800   42.4570 C   0  0  0  0  0  0  0  0  0  0  0  0
   55.1180   30.3760   44.1670 O   0  0  0  0  0  0  0  0  0  0  0  0
   56.6350   32.1550   44.8850 O   0  0  0  0  0  0  0  0  0  0  0  0
   58.8530   30.0260   45.4290 C   0  0  0  0  0  0  0  0  0  0  0  0
   59.2250   31.2290   45.3220 O   0  0  0  0  0  0  0  0  0  0  0  0
   59.6680   29.0990   46.0380 N   0  0  0  0  0  0  0  0  0  0  0  0
   61.0090   29.5320   46.4970 C   0  0  0  0  0  0  0  0  0  0  0  0
   60.9670   30.1950   47.8480 C   0  0  0  0  0  0  0  0  0  0  0  0
   60.7430   29.5230   48.8940 O   0  0  0  0  0  0  0  0  0  0  0  0
   61.2260   31.5980   47.9230 N   0  0  0  0  0  0  0  0  0  0  0  0
   60.3790   32.6480   47.4280 C   0  0  0  0  0  0  0  0  0  0  0  0
   60.8430   33.6020   46.5050 C   0  0  0  0  0  0  0  0  0  0  0  0
   59.9750   34.5730   45.9930 C   0  0  0  0  0  0  0  0  0  0  0  0
   58.6330   34.5830   46.3780 C   0  0  0  0  0  0  0  0  0  0  0  0
   58.1570   33.6260   47.2760 C   0  0  0  0  0  0  0  0  0  0  0  0
   59.0230   32.6560   47.8000 C   0  0  0  0  0  0  0  0  0  0  0  0
   58.5420   31.6910   48.6860 O   0  0  0  0  0  0  0  0  0  0  0  0
   59.8823   27.0077   48.1173 H   0  0  0  0  0  0  0  0  0  0  0  0
   59.7270   25.7857   46.8099 H   0  0  0  0  0  0  0  0  0  0  0  0
   61.1116   26.9300   46.8099 H   0  0  0  0  0  0  0  0  0  0  0  0
   57.4656   25.5112   44.6898 H   0  0  0  0  0  0  0  0  0  0  0  0
   58.2317   25.3692   46.3371 H   0  0  0  0  0  0  0  0  0  0  0  0
   56.2111   28.0352   44.6190 H   0  0  0  0  0  0  0  0  0  0  0  0
   58.0494   31.5389   42.4313 H   0  0  0  0  0  0  0  0  0  0  0  0
   57.0807   30.1058   41.9471 H   0  0  0  0  0  0  0  0  0  0  0  0
   56.3311   31.7382   41.9471 H   0  0  0  0  0  0  0  0  0  0  0  0
   61.6637   28.6501   46.5565 H   0  0  0  0  0  0  0  0  0  0  0  0
   61.3893   30.2684   45.7738 H   0  0  0  0  0  0  0  0  0  0  0  0
   61.8948   33.5849   46.1834 H   0  0  0  0  0  0  0  0  0  0  0  0
   60.3501   35.3286   45.2870 H   0  0  0  0  0  0  0  0  0  0  0  0
   57.9506   35.3451   45.9736 H   0  0  0  0  0  0  0  0  0  0  0  0
   57.0981   33.6330   47.5737 H   0  0  0  0  0  0  0  0  0  0  0  0
   59.1420   30.9620   49.0510 H   0  0  0  0  0  0  0  0  0  0  0  0
  1  2  1  0
  2  3  2  0
  3  4  1  0
  4  5  1  0
  5  6  2  0
  5  7  1  0
  3  8  1  0
  8  9  2  0
  9 10  1  0
 10 11  1  0
 10 12  2  0
 10 13  2  0
  9 14  1  0
 14 15  2  0
 14 16  1  0
 16 17  1  0
 17 18  1  0
 18 19  2  0
 18 20  1  0
 20 21  1  0
 21 22  2  0
 22 23  1  0
 23 24  2  0
 24 25  1  0
 25 26  2  0
 26 27  1  0
 16  2  1  0
 26 21  1  0
  1 28  1  0
  1 29  1  0
  1 30  1  0
  4 31  1  0
  4 32  1  0
  8 33  1  0
 11 34  1  0
 11 35  1  0
 11 36  1  0
 17 37  1  0
 17 38  1  0
 22 39  1  0
 23 40  1  0
 24 41  1  0
 25 42  1  0
 27 43  1  0
M  CHG  2   7  -1  20  -1
M  END
>  <UniqueID>  (28) 
27

>  <SMILES>  (28) 
Cc1c(CC(=O)[O-])cc(S(C)(=O)=O)c(=O)n1CC(=O)[N-]c1ccccc1O

>  <Energy>  (28) 
56.0259048912886

>  <Genealogy>  (28) 
Cc1c(CC(=O)[O-])cc(S(C)(=O)=O)c(=O)n1CC(=O)[N-]c1ccccc1O (protonated)
Cc1c(CC(=O)[O-])cc(S(C)(=O)=O)c(=O)n1CC(=O)[N-]c1ccccc1O (3D coordinates assigned)
Cc1c(CC(=O)[O-])cc(S(C)(=O)=O)c(=O)n1CC(=O)[N-]c1ccccc1O (optimized conformer: 56.0259048912886 kcal/mol)

>  <smiles>  (28) 
Cc1c(CC(=O)O)cc(S(C)(=O)=O)c(=O)n1CC(=O)Nc1ccccc1O

>  <score_type>  (28) 
oracle

>  <origin>  (28) 
adg

>  <m_score__min__energy>  (28) 
-11.699999999999999

>  <m_primary>  (28) 
energy

$$$$
28:0
     RDKit          3D

 51 54  0  0  0  0  0  0  0  0999 V2000
   51.0130   23.3280   45.4870 C   0  0  0  0  0  0  0  0  0  0  0  0
   52.3480   23.3490   45.4340 C   0  0  0  0  0  0  0  0  0  0  0  0
   53.0780   23.7340   44.1780 C   0  0  0  0  0  0  0  0  0  0  0  0
   54.5210   23.6320   44.3790 N   0  0  0  0  0  0  0  0  0  0  0  0
   55.2880   22.7320   43.7710 N   0  0  0  0  0  0  0  0  0  0  0  0
   56.5350   22.9040   44.2510 C   0  0  0  0  0  0  0  0  0  0  0  0
   57.6690   22.1690   43.9230 C   0  0  0  0  0  0  0  0  0  0  0  0
   58.8720   22.4950   44.5730 C   0  0  0  0  0  0  0  0  0  0  0  0
   58.9160   23.5360   45.5270 C   0  0  0  0  0  0  0  0  0  0  0  0
   57.7530   24.2740   45.8520 C   0  0  0  0  0  0  0  0  0  0  0  0
   57.7810   25.3950   46.8280 C   0  0  0  0  0  0  0  0  0  0  0  0
   57.8420   25.1110   48.0560 O   0  0  0  0  0  0  0  0  0  0  0  0
   57.7080   26.7910   46.4350 N   0  0  0  0  0  0  0  0  0  0  0  0
   57.3320   26.9200   45.0000 C   0  0  0  0  0  0  0  0  0  0  0  0
   57.9490   28.1540   44.3150 C   0  0  0  0  0  0  0  0  0  0  0  0
   58.0480   29.2690   45.2620 N   0  0  0  0  0  0  0  0  0  0  0  0
   57.3320   30.4960   45.0210 C   0  0  0  0  0  0  0  0  0  0  0  0
   56.2100   30.4560   44.4440 O   0  0  0  0  0  0  0  0  0  0  0  0
   57.8740   31.8030   45.4520 C   0  0  0  0  0  0  0  0  0  0  0  0
   58.1740   32.0440   46.8040 C   0  0  0  0  0  0  0  0  0  0  0  0
   58.6970   33.2770   47.2020 C   0  0  0  0  0  0  0  0  0  0  0  0
   58.9350   34.2760   46.2550 C   0  0  0  0  0  0  0  0  0  0  0  0
   58.6570   34.0400   44.9060 C   0  0  0  0  0  0  0  0  0  0  0  0
   58.1340   32.8070   44.5040 C   0  0  0  0  0  0  0  0  0  0  0  0
   58.7130   29.0470   46.5550 C   0  0  0  0  0  0  0  0  0  0  0  0
   58.9260   27.5480   46.8060 C   0  0  0  0  0  0  0  0  0  0  0  0
   56.5740   23.9190   45.1780 C   0  0  0  0  0  0  0  0  0  0  0  0
   55.2680   24.3530   45.2440 C   0  0  0  0  0  0  0  0  0  0  0  0
   54.8130   25.2530   46.0010 O   0  0  0  0  0  0  0  0  0  0  0  0
   50.5040   23.0423   46.4194 H   0  0  0  0  0  0  0  0  0  0  0  0
   50.4230   23.5964   44.5983 H   0  0  0  0  0  0  0  0  0  0  0  0
   52.9258   23.0783   46.3300 H   0  0  0  0  0  0  0  0  0  0  0  0
   52.7767   23.0604   43.3622 H   0  0  0  0  0  0  0  0  0  0  0  0
   52.8250   24.7733   43.9214 H   0  0  0  0  0  0  0  0  0  0  0  0
   57.6261   21.3594   43.1796 H   0  0  0  0  0  0  0  0  0  0  0  0
   59.7882   21.9340   44.3365 H   0  0  0  0  0  0  0  0  0  0  0  0
   59.8674   23.7763   46.0241 H   0  0  0  0  0  0  0  0  0  0  0  0
   56.9280   27.2100   46.9980 H   0  0  0  0  0  0  0  0  0  0  0  0
   57.6721   26.0193   44.4680 H   0  0  0  0  0  0  0  0  0  0  0  0
   56.2391   27.0385   44.9598 H   0  0  0  0  0  0  0  0  0  0  0  0
   58.9544   27.8999   43.9481 H   0  0  0  0  0  0  0  0  0  0  0  0
   57.3049   28.4552   43.4757 H   0  0  0  0  0  0  0  0  0  0  0  0
   57.9961   31.2578   47.5525 H   0  0  0  0  0  0  0  0  0  0  0  0
   58.9217   33.4614   48.2629 H   0  0  0  0  0  0  0  0  0  0  0  0
   59.3411   35.2482   46.5711 H   0  0  0  0  0  0  0  0  0  0  0  0
   58.8497   34.8248   44.1597 H   0  0  0  0  0  0  0  0  0  0  0  0
   57.9250   32.6221   43.4400 H   0  0  0  0  0  0  0  0  0  0  0  0
   59.6889   29.5545   46.5508 H   0  0  0  0  0  0  0  0  0  0  0  0
   58.0752   29.4520   47.3545 H   0  0  0  0  0  0  0  0  0  0  0  0
   59.7728   27.1944   46.1995 H   0  0  0  0  0  0  0  0  0  0  0  0
   59.1375   27.3885   47.8736 H   0  0  0  0  0  0  0  0  0  0  0  0
  1  2  2  0
  2  3  1  0
  3  4  1  0
  4  5  1  0
  5  6  1  0
  6  7  2  0
  7  8  1  0
  8  9  2  0
  9 10  1  0
 10 11  1  0
 11 12  2  0
 11 13  1  0
 13 14  1  0
 14 15  1  0
 15 16  1  0
 16 17  1  0
 17 18  2  0
 17 19  1  0
 19 20  2  0
 20 21  1  0
 21 22  2  0
 22 23  1  0
 23 24  2  0
 16 25  1  0
 25 26  1  0
 10 27  2  0
 27 28  1  0
 28 29  2  0
 28  4  1  0
 27  6  1  0
 26 13  1  0
 24 19  1  0
  1 30  1  0
  1 31  1  0
  2 32  1  0
  3 33  1  0
  3 34  1  0
  7 35  1  0
  8 36  1  0
  9 37  1  0
 13 38  1  0
 14 39  1  0
 14 40  1  0
 15 41  1  0
 15 42  1  0
 20 43  1  0
 21 44  1  0
 22 45  1  0
 23 46  1  0
 24 47  1  0
 25 48  1  0
 25 49  1  0
 26 50  1  0
 26 51  1  0
M  CHG  2   5  -1  13   1
M  END
>  <UniqueID>  (29) 
28

>  <SMILES>  (29) 
C=CCn1[n-]c2cccc(C(=O)[NH+]3CCN(C(=O)c4ccccc4)CC3)c2c1=O

>  <Energy>  (29) 
111.96390805546808

>  <Genealogy>  (29) 
C=CCn1[n-]c2cccc(C(=O)[NH+]3CCN(C(=O)c4ccccc4)CC3)c2c1=O (protonated)
C=CCn1[n-]c2cccc(C(=O)[NH+]3CCN(C(=O)c4ccccc4)CC3)c2c1=O (3D coordinates assigned)
C=CCn1[n-]c2cccc(C(=O)[NH+]3CCN(C(=O)c4ccccc4)CC3)c2c1=O (nonaromatic ring conformer: 111.96390805546808 kcal/mol)

>  <smiles>  (29) 
C=CCn1[nH]c2cccc(C(=O)N3CCN(C(=O)c4ccccc4)CC3)c2c1=O

>  <score_type>  (29) 
oracle

>  <origin>  (29) 
adg

>  <m_score__min__energy>  (29) 
-8.6999999999999993

>  <m_primary>  (29) 
energy

$$$$
29:0
     RDKit          3D

 55 57  0  0  0  0  0  0  0  0999 V2000
   59.6630   28.4050   45.2010 C   0  0  0  0  0  0  0  0  0  0  0  0
   59.1620   28.7910   46.3820 C   0  0  0  0  0  0  0  0  0  0  0  0
   58.0750   29.8410   46.4180 C   0  0  0  0  0  0  0  0  0  0  0  0
   57.7030   30.2690   45.0200 C   0  0  0  0  0  0  0  0  0  0  0  0
   58.4790   31.2350   44.3560 C   0  0  0  0  0  0  0  0  0  0  0  0
   58.1320   31.6620   43.0710 C   0  0  0  0  0  0  0  0  0  0  0  0
   57.0060   31.1320   42.4390 C   0  0  0  0  0  0  0  0  0  0  0  0
   56.2250   30.1720   43.0890 C   0  0  0  0  0  0  0  0  0  0  0  0
   56.5660   29.7410   44.3750 C   0  0  0  0  0  0  0  0  0  0  0  0
   55.7940   28.8040   44.9810 F   0  0  0  0  0  0  0  0  0  0  0  0
   59.7010   28.2350   47.6490 C   0  0  0  0  0  0  0  0  0  0  0  0
   60.7430   27.5240   47.6210 O   0  0  0  0  0  0  0  0  0  0  0  0
   59.0370   28.5080   48.8970 N   0  0  0  0  0  0  0  0  0  0  0  0
   59.0110   29.6390   49.5410 C   0  0  0  0  0  0  0  0  0  0  0  0
   59.8900   30.6600   49.1620 C   0  0  0  0  0  0  0  0  0  0  0  0
   59.8800   31.8940   49.8410 C   0  0  0  0  0  0  0  0  0  0  0  0
   60.8330   32.9680   49.4310 C   0  0  0  0  0  0  0  0  0  0  0  0
   61.0700   33.9050   50.2470 O   0  0  0  0  0  0  0  0  0  0  0  0
   61.4570   32.9880   48.1190 N   0  0  2  0  0  0  0  0  0  0  0  0
   62.9200   32.8240   48.2130 C   0  0  0  0  0  0  0  0  0  0  0  0
   61.0780   34.1980   47.3480 C   0  0  0  0  0  0  0  0  0  0  0  0
   59.6980   34.1230   46.7240 C   0  0  0  0  0  0  0  0  0  0  0  0
   59.4650   34.6650   45.4490 C   0  0  0  0  0  0  0  0  0  0  0  0
   58.1930   34.5930   44.8730 C   0  0  0  0  0  0  0  0  0  0  0  0
   57.1440   33.9860   45.5670 C   0  0  0  0  0  0  0  0  0  0  0  0
   57.3630   33.4520   46.8400 C   0  0  0  0  0  0  0  0  0  0  0  0
   58.6350   33.5220   47.4190 C   0  0  0  0  0  0  0  0  0  0  0  0
   58.9730   32.0640   50.9030 C   0  0  0  0  0  0  0  0  0  0  0  0
   58.1040   31.0220   51.2530 C   0  0  0  0  0  0  0  0  0  0  0  0
   57.1450   31.1870   52.3890 C   0  0  0  0  0  0  0  0  0  0  0  0
   58.1480   29.8470   50.5720 N   0  0  0  0  0  0  0  0  0  0  0  0
   60.4542   27.6418   45.1622 H   0  0  0  0  0  0  0  0  0  0  0  0
   59.2832   28.8513   44.2701 H   0  0  0  0  0  0  0  0  0  0  0  0
   57.1872   29.4252   46.9170 H   0  0  0  0  0  0  0  0  0  0  0  0
   58.4466   30.7170   46.9698 H   0  0  0  0  0  0  0  0  0  0  0  0
   59.3656   31.6579   44.8512 H   0  0  0  0  0  0  0  0  0  0  0  0
   58.7466   32.4161   42.5576 H   0  0  0  0  0  0  0  0  0  0  0  0
   56.7329   31.4701   41.4285 H   0  0  0  0  0  0  0  0  0  0  0  0
   55.3395   29.7543   42.5875 H   0  0  0  0  0  0  0  0  0  0  0  0
   60.5916   30.4981   48.3304 H   0  0  0  0  0  0  0  0  0  0  0  0
   61.1260   32.1540   47.5810 H   0  0  0  0  0  0  0  0  0  0  0  0
   63.2180   32.7906   49.2713 H   0  0  0  0  0  0  0  0  0  0  0  0
   63.2164   31.8870   47.7189 H   0  0  0  0  0  0  0  0  0  0  0  0
   63.4165   33.6721   47.7189 H   0  0  0  0  0  0  0  0  0  0  0  0
   61.1044   35.0633   48.0267 H   0  0  0  0  0  0  0  0  0  0  0  0
   61.7975   34.2873   46.5208 H   0  0  0  0  0  0  0  0  0  0  0  0
   60.2873   35.1484   44.9012 H   0  0  0  0  0  0  0  0  0  0  0  0
   58.0183   35.0149   43.8722 H   0  0  0  0  0  0  0  0  0  0  0  0
   56.1445   33.9281   45.1113 H   0  0  0  0  0  0  0  0  0  0  0  0
   56.5353   32.9766   47.3868 H   0  0  0  0  0  0  0  0  0  0  0  0
   58.8034   33.1047   48.4227 H   0  0  0  0  0  0  0  0  0  0  0  0
   58.9461   33.0135   51.4577 H   0  0  0  0  0  0  0  0  0  0  0  0
   57.6861   31.0939   53.3421 H   0  0  0  0  0  0  0  0  0  0  0  0
   56.6741   32.1794   52.3301 H   0  0  0  0  0  0  0  0  0  0  0  0
   56.3695   30.4091   52.3301 H   0  0  0  0  0  0  0  0  0  0  0  0
  1  2  2  0
  2  3  1  0
  3  4  1  0
  4  5  2  0
  5  6  1  0
  6  7  2  0
  7  8  1  0
  8  9  2  0
  9 10  1  0
  2 11  1  0
 11 12  2  0
 11 13  1  0
 13 14  2  3
 14 15  1  0
 15 16  2  0
 16 17  1  0
 17 18  2  0
 17 19  1  0
 19 20  1  0
 19 21  1  0
 21 22  1  0
 22 23  2  0
 23 24  1  0
 24 25  2  0
 25 26  1  0
 26 27  2  0
 16 28  1  0
 28 29  2  0
 29 30  1  0
 29 31  1  0
  9  4  1  0
 31 14  1  0
 27 22  1  0
  1 32  1  0
  1 33  1  0
  3 34  1  0
  3 35  1  0
  5 36  1  0
  6 37  1  0
  7 38  1  0
  8 39  1  0
 15 40  1  0
 19 41  1  6
 20 42  1  0
 20 43  1  0
 20 44  1  0
 21 45  1  0
 21 46  1  0
 23 47  1  0
 24 48  1  0
 25 49  1  0
 26 50  1  0
 27 51  1  0
 28 52  1  0
 30 53  1  0
 30 54  1  0
 30 55  1  0
M  CHG  2  19   1  31  -1
M  END
>  <UniqueID>  (30) 
29

>  <SMILES>  (30) 
C=C(Cc1ccccc1F)C(=O)N=c1cc(C(=O)[N@H+](C)Cc2ccccc2)cc(C)[n-]1

>  <Energy>  (30) 
64.67223980691813

>  <Genealogy>  (30) 
C=C(Cc1ccccc1F)C(=O)N=c1cc(C(=O)[NH+](C)Cc2ccccc2)cc(C)[n-]1 (protonated)
C=C(Cc1ccccc1F)C(=O)N=c1cc(C(=O)[N@H+](C)Cc2ccccc2)cc(C)[n-]1 (chirality)
C=C(Cc1ccccc1F)C(=O)N=c1cc(C(=O)[N@H+](C)Cc2ccccc2)cc(C)[n-]1 (3D coordinates assigned)
C=C(Cc1ccccc1F)C(=O)N=c1cc(C(=O)[N@H+](C)Cc2ccccc2)cc(C)[n-]1 (optimized conformer: 64.67223980691813 kcal/mol)

>  <smiles>  (30) 
C=C(Cc1ccccc1F)C(=O)N=c1cc(C(=O)N(C)Cc2ccccc2)cc(C)[nH]1

>  <score_type>  (30) 
oracle

>  <origin>  (30) 
adg

>  <m_score__min__energy>  (30) 
-9.3200000000000003

>  <m_primary>  (30) 
energy

$$$$
30:0
     RDKit          3D

 50 53  0  0  0  0  0  0  0  0999 V2000
   60.3130   34.9570   46.6990 C   0  0  0  0  0  0  0  0  0  0  0  0
   60.1920   33.9340   47.8340 C   0  0  1  0  0  0  0  0  0  0  0  0
   59.5500   32.7030   47.3580 N   0  0  0  0  0  0  0  0  0  0  0  0
   59.6550   31.4660   48.0840 C   0  0  0  0  0  0  0  0  0  0  0  0
   60.0480   31.4800   49.2830 O   0  0  0  0  0  0  0  0  0  0  0  0
   59.3100   30.1760   47.4430 C   0  0  0  0  0  0  0  0  0  0  0  0
   60.1100   29.0370   47.6380 C   0  0  0  0  0  0  0  0  0  0  0  0
   59.7630   27.8200   47.0470 C   0  0  0  0  0  0  0  0  0  0  0  0
   58.6150   27.7240   46.2590 C   0  0  0  0  0  0  0  0  0  0  0  0
   57.7960   28.8480   46.0590 C   0  0  0  0  0  0  0  0  0  0  0  0
   56.6010   28.7940   45.2690 N   0  0  0  0  0  0  0  0  0  0  0  0
   56.2790   29.7410   43.8500 S   0  0  0  0  0  0  0  0  0  0  0  0
   54.7980   29.9660   43.7400 O   0  0  0  0  0  0  0  0  0  0  0  0
   56.7360   29.0040   42.6210 O   0  0  0  0  0  0  0  0  0  0  0  0
   57.0780   31.2980   43.9630 C   0  0  0  0  0  0  0  0  0  0  0  0
   58.0110   31.7900   43.0650 C   0  0  0  0  0  0  0  0  0  0  0  0
   58.4920   33.0580   43.4190 C   0  0  0  0  0  0  0  0  0  0  0  0
   57.9430   33.5570   44.5960 C   0  0  0  0  0  0  0  0  0  0  0  0
   56.8530   32.4260   45.1930 S   0  0  0  0  0  0  0  0  0  0  0  0
   58.1460   30.0650   46.6600 C   0  0  0  0  0  0  0  0  0  0  0  0
   61.5600   33.6230   48.4070 C   0  0  0  0  0  0  0  0  0  0  0  0
   62.5350   33.0040   47.6100 C   0  0  0  0  0  0  0  0  0  0  0  0
   63.8010   32.7200   48.1300 C   0  0  0  0  0  0  0  0  0  0  0  0
   64.1170   33.0430   49.4650 C   0  0  0  0  0  0  0  0  0  0  0  0
   65.4240   32.7730   50.0150 N   0  0  0  0  0  0  0  0  0  0  0  0
   65.8950   31.5900   50.4680 C   0  0  0  0  0  0  0  0  0  0  0  0
   67.1890   31.7710   50.9050 C   0  0  0  0  0  0  0  0  0  0  0  0
   67.4510   33.1080   50.6880 C   0  0  0  0  0  0  0  0  0  0  0  0
   66.3660   33.6960   50.1490 N   0  0  0  0  0  0  0  0  0  0  0  0
   63.1330   33.6540   50.2620 C   0  0  0  0  0  0  0  0  0  0  0  0
   61.8680   33.9370   49.7410 C   0  0  0  0  0  0  0  0  0  0  0  0
   60.4321   35.9644   47.1245 H   0  0  0  0  0  0  0  0  0  0  0  0
   61.1888   34.7149   46.0790 H   0  0  0  0  0  0  0  0  0  0  0  0
   59.4049   34.9259   46.0790 H   0  0  0  0  0  0  0  0  0  0  0  0
   59.5643   34.3683   48.6260 H   0  0  0  0  0  0  0  0  0  0  0  0
   58.9890   32.7280   46.4770 H   0  0  0  0  0  0  0  0  0  0  0  0
   61.0149   29.1044   48.2598 H   0  0  0  0  0  0  0  0  0  0  0  0
   60.3965   26.9344   47.2031 H   0  0  0  0  0  0  0  0  0  0  0  0
   58.3502   26.7638   45.7923 H   0  0  0  0  0  0  0  0  0  0  0  0
   58.3396   31.2433   42.1688 H   0  0  0  0  0  0  0  0  0  0  0  0
   59.2345   33.6075   42.8218 H   0  0  0  0  0  0  0  0  0  0  0  0
   58.1818   34.5267   45.0572 H   0  0  0  0  0  0  0  0  0  0  0  0
   57.5020   30.9453   46.5176 H   0  0  0  0  0  0  0  0  0  0  0  0
   62.3012   32.7402   46.5680 H   0  0  0  0  0  0  0  0  0  0  0  0
   64.5574   32.2401   47.4916 H   0  0  0  0  0  0  0  0  0  0  0  0
   65.3384   30.6414   50.4850 H   0  0  0  0  0  0  0  0  0  0  0  0
   67.8646   31.0157   51.3328 H   0  0  0  0  0  0  0  0  0  0  0  0
   68.3993   33.6152   50.9194 H   0  0  0  0  0  0  0  0  0  0  0  0
   63.3615   33.9119   51.3066 H   0  0  0  0  0  0  0  0  0  0  0  0
   61.1075   34.4093   50.3802 H   0  0  0  0  0  0  0  0  0  0  0  0
  1  2  1  0
  2  3  1  0
  3  4  1  0
  4  5  2  0
  4  6  1  0
  6  7  2  0
  7  8  1  0
  8  9  2  0
  9 10  1  0
 10 11  1  0
 11 12  1  0
 12 13  2  0
 12 14  2  0
 12 15  1  0
 15 16  2  0
 16 17  1  0
 17 18  2  0
 18 19  1  0
 10 20  2  0
  2 21  1  0
 21 22  2  0
 22 23  1  0
 23 24  2  0
 24 25  1  0
 25 26  1  0
 26 27  2  0
 27 28  1  0
 28 29  2  0
 24 30  1  0
 30 31  2  0
 20  6  1  0
 31 21  1  0
 19 15  1  0
 29 25  1  0
  1 32  1  0
  1 33  1  0
  1 34  1  0
  2 35  1  1
  3 36  1  0
  7 37  1  0
  8 38  1  0
  9 39  1  0
 16 40  1  0
 17 41  1  0
 18 42  1  0
 20 43  1  0
 22 44  1  0
 23 45  1  0
 26 46  1  0
 27 47  1  0
 28 48  1  0
 30 49  1  0
 31 50  1  0
M  CHG  1  11  -1
M  END
>  <UniqueID>  (31) 
30

>  <SMILES>  (31) 
C[C@@H](NC(=O)c1cccc([N-]S(=O)(=O)c2cccs2)c1)c1ccc(-n2cccn2)cc1

>  <Energy>  (31) 
114.9925718091936

>  <Genealogy>  (31) 
CC(NC(=O)c1cccc([N-]S(=O)(=O)c2cccs2)c1)c1ccc(-n2cccn2)cc1 (protonated)
C[C@@H](NC(=O)c1cccc([N-]S(=O)(=O)c2cccs2)c1)c1ccc(-n2cccn2)cc1 (chirality)
C[C@@H](NC(=O)c1cccc([N-]S(=O)(=O)c2cccs2)c1)c1ccc(-n2cccn2)cc1 (3D coordinates assigned)
C[C@@H](NC(=O)c1cccc([N-]S(=O)(=O)c2cccs2)c1)c1ccc(-n2cccn2)cc1 (optimized conformer: 114.9925718091936 kcal/mol)

>  <smiles>  (31) 
CC(NC(=O)c1cccc(NS(=O)(=O)c2cccs2)c1)c1ccc(-n2cccn2)cc1

>  <score_type>  (31) 
oracle

>  <origin>  (31) 
adg

>  <m_score__min__energy>  (31) 
-11.07

>  <m_primary>  (31) 
energy

$$$$
31:0
     RDKit          3D

 57 61  0  0  0  0  0  0  0  0999 V2000
   58.7730   31.3790   49.2510 O   0  0  0  0  0  0  0  0  0  0  0  0
   58.8920   32.5010   48.6860 C   0  0  0  0  0  0  0  0  0  0  0  0
   59.3780   33.6240   49.4360 N   0  0  0  0  0  0  0  0  0  0  0  0
   60.0190   33.4770   50.7100 C   0  0  0  0  0  0  0  0  0  0  0  0
   61.3730   33.6330   51.0210 C   0  0  0  0  0  0  0  0  0  0  0  0
   62.4460   34.0920   50.1120 C   0  0  0  0  0  0  0  0  0  0  0  0
   63.0680   35.1520   50.3910 O   0  0  0  0  0  0  0  0  0  0  0  0
   62.8060   33.3580   48.9250 N   0  0  0  0  0  0  0  0  0  0  0  0
   63.7930   33.8490   47.9790 C   0  0  0  0  0  0  0  0  0  0  0  0
   63.6620   32.9660   46.7460 C   0  0  0  0  0  0  0  0  0  0  0  0
   62.8860   31.7320   47.1950 C   0  0  0  0  0  0  0  0  0  0  0  0
   62.1700   32.1290   48.4800 C   0  0  0  0  0  0  0  0  0  0  0  0
   61.5610   33.3570   52.3010 O   0  0  0  0  0  0  0  0  0  0  0  0
   60.3980   33.0490   52.8270 C   0  0  0  0  0  0  0  0  0  0  0  0
   60.1300   32.6890   54.1460 C   0  0  0  0  0  0  0  0  0  0  0  0
   58.7990   32.3900   54.4890 C   0  0  0  0  0  0  0  0  0  0  0  0
   57.7760   32.4560   53.5140 C   0  0  0  0  0  0  0  0  0  0  0  0
   58.0770   32.8210   52.1890 C   0  0  0  0  0  0  0  0  0  0  0  0
   59.4050   33.1180   51.8860 C   0  0  0  0  0  0  0  0  0  0  0  0
   58.4990   32.6460   47.2630 C   0  0  0  0  0  0  0  0  0  0  0  0
   58.5390   33.9010   46.6260 C   0  0  0  0  0  0  0  0  0  0  0  0
   58.1830   34.0220   45.2810 C   0  0  0  0  0  0  0  0  0  0  0  0
   57.7850   32.8980   44.5540 C   0  0  0  0  0  0  0  0  0  0  0  0
   57.7410   31.6430   45.1720 C   0  0  0  0  0  0  0  0  0  0  0  0
   57.2670   30.2110   44.2600 S   0  0  0  0  0  0  0  0  0  0  0  0
   58.4870   29.4510   43.8180 O   0  0  0  0  0  0  0  0  0  0  0  0
   56.5140   30.6460   43.0350 O   0  0  0  0  0  0  0  0  0  0  0  0
   56.2440   29.1720   45.2130 N   0  0  0  0  0  0  0  0  0  0  0  0
   57.0240   28.1620   45.9290 C   0  0  0  0  0  0  0  0  0  0  0  0
   56.4590   26.7920   45.7140 C   0  0  0  0  0  0  0  0  0  0  0  0
   57.1490   25.7010   45.2270 C   0  0  0  0  0  0  0  0  0  0  0  0
   56.2400   24.6660   45.2130 C   0  0  0  0  0  0  0  0  0  0  0  0
   55.0550   25.1890   45.6920 C   0  0  0  0  0  0  0  0  0  0  0  0
   55.2190   26.4590   45.9830 O   0  0  0  0  0  0  0  0  0  0  0  0
   58.1040   31.5190   46.5200 C   0  0  0  0  0  0  0  0  0  0  0  0
   59.0740   34.5830   49.1540 H   0  0  0  0  0  0  0  0  0  0  0  0
   63.5879   34.8987   47.7218 H   0  0  0  0  0  0  0  0  0  0  0  0
   64.8093   33.8104   48.3981 H   0  0  0  0  0  0  0  0  0  0  0  0
   63.1133   33.4953   45.9531 H   0  0  0  0  0  0  0  0  0  0  0  0
   64.6466   32.6965   46.3362 H   0  0  0  0  0  0  0  0  0  0  0  0
   62.1561   31.4390   46.4259 H   0  0  0  0  0  0  0  0  0  0  0  0
   63.5541   30.8730   47.3556 H   0  0  0  0  0  0  0  0  0  0  0  0
   61.1009   32.2998   48.2856 H   0  0  0  0  0  0  0  0  0  0  0  0
   62.2388   31.3389   49.2422 H   0  0  0  0  0  0  0  0  0  0  0  0
   60.9338   32.6401   54.8954 H   0  0  0  0  0  0  0  0  0  0  0  0
   58.5520   32.1031   55.5218 H   0  0  0  0  0  0  0  0  0  0  0  0
   56.7386   32.2204   53.7937 H   0  0  0  0  0  0  0  0  0  0  0  0
   57.2925   32.8703   51.4195 H   0  0  0  0  0  0  0  0  0  0  0  0
   58.8524   34.7913   47.1909 H   0  0  0  0  0  0  0  0  0  0  0  0
   58.2162   35.0068   44.7922 H   0  0  0  0  0  0  0  0  0  0  0  0
   57.5059   32.9991   43.4948 H   0  0  0  0  0  0  0  0  0  0  0  0
   58.0615   28.1841   45.5641 H   0  0  0  0  0  0  0  0  0  0  0  0
   56.9874   28.3901   47.0045 H   0  0  0  0  0  0  0  0  0  0  0  0
   58.2033   25.6652   44.9154 H   0  0  0  0  0  0  0  0  0  0  0  0
   56.4215   23.6315   44.8862 H   0  0  0  0  0  0  0  0  0  0  0  0
   54.1168   24.6274   45.8116 H   0  0  0  0  0  0  0  0  0  0  0  0
   58.0797   30.5304   47.0017 H   0  0  0  0  0  0  0  0  0  0  0  0
  1  2  2  0
  2  3  1  0
  3  4  1  0
  4  5  2  0
  5  6  1  0
  6  7  2  0
  6  8  1  0
  8  9  1  0
  9 10  1  0
 10 11  1  0
 11 12  1  0
  5 13  1  0
 13 14  1  0
 14 15  2  0
 15 16  1  0
 16 17  2  0
 17 18  1  0
 18 19  2  0
  2 20  1  0
 20 21  2  0
 21 22  1  0
 22 23  2  0
 23 24  1  0
 24 25  1  0
 25 26  2  0
 25 27  2  0
 25 28  1  0
 28 29  1  0
 29 30  1  0
 30 31  2  0
 31 32  1  0
 32 33  2  0
 33 34  1  0
 24 35  2  0
 19  4  1  0
 35 20  1  0
 12  8  1  0
 19 14  1  0
 34 30  1  0
  3 36  1  0
  9 37  1  0
  9 38  1  0
 10 39  1  0
 10 40  1  0
 11 41  1  0
 11 42  1  0
 12 43  1  0
 12 44  1  0
 15 45  1  0
 16 46  1  0
 17 47  1  0
 18 48  1  0
 21 49  1  0
 22 50  1  0
 23 51  1  0
 29 52  1  0
 29 53  1  0
 31 54  1  0
 32 55  1  0
 33 56  1  0
 35 57  1  0
M  CHG  1  28  -1
M  END
>  <UniqueID>  (32) 
31

>  <SMILES>  (32) 
O=C(Nc1c(C(=O)N2CCCC2)oc2ccccc12)c1cccc(S(=O)(=O)[N-]Cc2ccco2)c1

>  <Energy>  (32) 
128.4669889508366

>  <Genealogy>  (32) 
O=C(Nc1c(C(=O)N2CCCC2)oc2ccccc12)c1cccc(S(=O)(=O)[N-]Cc2ccco2)c1 (protonated)
O=C(Nc1c(C(=O)N2CCCC2)oc2ccccc12)c1cccc(S(=O)(=O)[N-]Cc2ccco2)c1 (3D coordinates assigned)
O=C(Nc1c(C(=O)N2CCCC2)oc2ccccc12)c1cccc(S(=O)(=O)[N-]Cc2ccco2)c1 (nonaromatic ring conformer: 128.4669889508366 kcal/mol)

>  <smiles>  (32) 
O=C(Nc1c(C(=O)N2CCCC2)oc2ccccc12)c1cccc(S(=O)(=O)NCc2ccco2)c1

>  <score_type>  (32) 
oracle

>  <origin>  (32) 
adg

>  <m_score__min__energy>  (32) 
-11.539999999999999

>  <m_primary>  (32) 
energy

$$$$
32:0
     RDKit          3D

 49 52  0  0  0  0  0  0  0  0999 V2000
   57.0360   31.9730   53.2580 O   0  0  0  0  0  0  0  0  0  0  0  0
   56.9410   31.0940   52.3580 C   0  0  0  0  0  0  0  0  0  0  0  0
   57.1540   31.4680   50.9260 C   0  0  0  0  0  0  0  0  0  0  0  0
   58.3740   32.3260   50.7810 C   0  0  0  0  0  0  0  0  0  0  0  0
   58.6760   33.1420   51.6940 O   0  0  0  0  0  0  0  0  0  0  0  0
   59.2070   32.2170   49.6250 N   0  0  0  0  0  0  0  0  0  0  0  0
   59.2100   31.3590   48.4480 C   0  0  0  0  0  0  0  0  0  0  0  0
   58.5370   30.3790   48.0360 O   0  0  0  0  0  0  0  0  0  0  0  0
   60.3280   32.1350   47.9640 C   0  0  0  0  0  0  0  0  0  0  0  0
   59.9890   32.9280   46.7730 N   0  0  0  0  0  0  0  0  0  0  0  0
   60.7590   34.0180   46.3050 C   0  0  0  0  0  0  0  0  0  0  0  0
   61.9410   34.2530   46.6760 O   0  0  0  0  0  0  0  0  0  0  0  0
   60.0770   34.8130   45.4160 O   0  0  0  0  0  0  0  0  0  0  0  0
   58.7580   34.3100   45.2350 C   0  0  0  0  0  0  0  0  0  0  0  0
   58.6590   33.0680   46.1660 C   0  0  1  0  0  0  0  0  0  0  0  0
   58.2750   31.8170   45.4050 C   0  0  0  0  0  0  0  0  0  0  0  0
   57.0250   31.7210   44.7640 C   0  0  0  0  0  0  0  0  0  0  0  0
   56.6910   30.5750   44.0380 C   0  0  0  0  0  0  0  0  0  0  0  0
   57.5970   29.5160   43.9450 C   0  0  0  0  0  0  0  0  0  0  0  0
   58.8400   29.6010   44.5780 C   0  0  0  0  0  0  0  0  0  0  0  0
   59.1780   30.7440   45.3080 C   0  0  0  0  0  0  0  0  0  0  0  0
   60.3760   32.9480   49.1560 C   0  0  0  0  0  0  0  0  0  0  0  0
   61.0920   33.8870   49.5920 O   0  0  0  0  0  0  0  0  0  0  0  0
   56.6170   29.7440   52.6970 N   0  0  0  0  0  0  0  0  0  0  0  0
   55.1550   29.3190   53.5190 S   0  0  0  0  0  0  0  0  0  0  0  0
   54.8210   27.8820   53.2290 O   0  0  0  0  0  0  0  0  0  0  0  0
   55.3580   29.4820   55.0000 O   0  0  0  0  0  0  0  0  0  0  0  0
   53.8380   30.3410   52.9500 C   0  0  0  0  0  0  0  0  0  0  0  0
   53.8190   30.8230   51.6320 C   0  0  0  0  0  0  0  0  0  0  0  0
   52.7570   31.6180   51.1900 C   0  0  0  0  0  0  0  0  0  0  0  0
   51.7080   31.9340   52.0620 C   0  0  0  0  0  0  0  0  0  0  0  0
   50.6520   32.7220   51.6210 O   0  0  0  0  0  0  0  0  0  0  0  0
   51.7230   31.4560   53.3770 C   0  0  0  0  0  0  0  0  0  0  0  0
   52.7860   30.6600   53.8200 C   0  0  0  0  0  0  0  0  0  0  0  0
   57.2822   30.5533   50.3287 H   0  0  0  0  0  0  0  0  0  0  0  0
   56.2788   32.0333   50.5731 H   0  0  0  0  0  0  0  0  0  0  0  0
   61.2356   31.6069   47.6362 H   0  0  0  0  0  0  0  0  0  0  0  0
   58.0142   35.0674   45.5232 H   0  0  0  0  0  0  0  0  0  0  0  0
   58.5592   34.0511   44.1846 H   0  0  0  0  0  0  0  0  0  0  0  0
   57.8721   33.2035   46.9226 H   0  0  0  0  0  0  0  0  0  0  0  0
   56.3081   32.5522   44.8352 H   0  0  0  0  0  0  0  0  0  0  0  0
   55.7131   30.5066   43.5389 H   0  0  0  0  0  0  0  0  0  0  0  0
   57.3319   28.6145   43.3731 H   0  0  0  0  0  0  0  0  0  0  0  0
   59.5534   28.7672   44.5016 H   0  0  0  0  0  0  0  0  0  0  0  0
   60.1554   30.8042   45.8091 H   0  0  0  0  0  0  0  0  0  0  0  0
   54.6415   30.5748   50.9451 H   0  0  0  0  0  0  0  0  0  0  0  0
   52.7456   31.9953   50.1568 H   0  0  0  0  0  0  0  0  0  0  0  0
   50.8997   31.7056   54.0625 H   0  0  0  0  0  0  0  0  0  0  0  0
   52.7958   30.2838   54.8536 H   0  0  0  0  0  0  0  0  0  0  0  0
  1  2  2  0
  2  3  1  0
  3  4  1  0
  4  5  2  0
  4  6  1  0
  6  7  1  0
  7  8  2  0
  7  9  1  0
  9 10  1  0
 10 11  1  0
 11 12  2  0
 11 13  1  0
 13 14  1  0
 14 15  1  0
 15 16  1  0
 16 17  2  0
 17 18  1  0
 18 19  2  0
 19 20  1  0
 20 21  2  0
  9 22  1  0
 22 23  2  0
  2 24  1  0
 24 25  1  0
 25 26  2  0
 25 27  2  0
 25 28  1  0
 28 29  2  0
 29 30  1  0
 30 31  2  0
 31 32  1  0
 31 33  1  0
 33 34  2  0
 22  6  1  0
 34 28  1  0
 15 10  1  0
 21 16  1  0
  3 35  1  0
  3 36  1  0
  9 37  1  0
 14 38  1  0
 14 39  1  0
 15 40  1  1
 17 41  1  0
 18 42  1  0
 19 43  1  0
 20 44  1  0
 21 45  1  0
 29 46  1  0
 30 47  1  0
 33 48  1  0
 34 49  1  0
M  CHG  2  24  -1  32  -1
M  END
>  <UniqueID>  (33) 
32

>  <SMILES>  (33) 
O=C(CC(=O)N1C(=O)C(N2C(=O)OC[C@H]2c2ccccc2)C1=O)[N-]S(=O)(=O)c1ccc([O-])cc1

>  <Energy>  (33) 
74.09195753862372

>  <Genealogy>  (33) 
O=C(CC(=O)N1C(=O)C(N2C(=O)OCC2c2ccccc2)C1=O)[N-]S(=O)(=O)c1ccc([O-])cc1 (protonated)
O=C(CC(=O)N1C(=O)C(N2C(=O)OC[C@H]2c2ccccc2)C1=O)[N-]S(=O)(=O)c1ccc([O-])cc1 (chirality)
O=C(CC(=O)N1C(=O)C(N2C(=O)OC[C@H]2c2ccccc2)C1=O)[N-]S(=O)(=O)c1ccc([O-])cc1 (3D coordinates assigned)
O=C(CC(=O)N1C(=O)C(N2C(=O)OC[C@H]2c2ccccc2)C1=O)[N-]S(=O)(=O)c1ccc([O-])cc1 (nonaromatic ring conformer: 74.09195753862372 kcal/mol)

>  <smiles>  (33) 
O=C(CC(=O)N1C(=O)C(N2C(=O)OCC2c2ccccc2)C1=O)NS(=O)(=O)c1ccc(O)cc1

>  <score_type>  (33) 
oracle

>  <origin>  (33) 
adg

>  <m_score__min__energy>  (33) 
-14.24

>  <m_primary>  (33) 
energy

$$$$
33:0
     RDKit          3D

 36 38  0  0  1  0  0  0  0  0999 V2000
   57.7750   32.5080   44.3170 C   0  0  0  0  0  0  0  0  0  0  0  0
   57.7540   31.4750   43.4800 C   0  0  0  0  0  0  0  0  0  0  0  0
   56.6050   30.5230   43.4760 C   0  0  0  0  0  0  0  0  0  0  0  0
   56.4510   30.0920   44.8610 N   0  0  0  0  0  0  0  0  0  0  0  0
   57.2710   29.2500   45.3900 C   0  0  0  0  0  0  0  0  0  0  0  0
   58.1960   29.6400   46.3770 C   0  0  0  0  0  0  0  0  0  0  0  0
   59.0310   28.6920   46.8900 C   0  0  0  0  0  0  0  0  0  0  0  0
   59.9360   29.0220   47.8410 C   0  0  0  0  0  0  0  0  0  0  0  0
   60.0620   30.1530   48.2910 N   0  0  0  0  0  0  0  0  0  0  0  0
   60.6490   31.2980   47.8560 C   0  0  0  0  0  0  0  0  0  0  0  0
   62.0640   31.3590   47.8090 C   0  0  0  0  0  0  0  0  0  0  0  0
   62.6890   32.4650   47.2780 C   0  0  0  0  0  0  0  0  0  0  0  0
   61.9720   33.5290   46.7850 C   0  0  0  0  0  0  0  0  0  0  0  0
   60.6100   33.4710   46.8310 C   0  0  0  0  0  0  0  0  0  0  0  0
   59.6360   34.9690   46.1370 Br  0  0  0  0  0  0  0  0  0  0  0  0
   59.9130   32.3980   47.3470 C   0  0  0  0  0  0  0  0  0  0  0  0
   60.7450   28.0330   48.3160 N   0  0  0  0  0  0  0  0  0  0  0  0
   60.6830   26.7660   47.8870 C   0  0  0  0  0  0  0  0  0  0  0  0
   59.7940   26.4160   46.9460 N   0  0  0  0  0  0  0  0  0  0  0  0
   58.9920   27.3880   46.4720 C   0  0  0  0  0  0  0  0  0  0  0  0
   58.0840   27.0250   45.5080 C   0  0  0  0  0  0  0  0  0  0  0  0
   57.2810   27.9760   45.0270 N   0  0  0  0  0  0  0  0  0  0  0  0
   58.6273   33.2034   44.3111 H   0  0  0  0  0  0  0  0  0  0  0  0
   56.9401   32.6671   45.0153 H   0  0  0  0  0  0  0  0  0  0  0  0
   58.5916   31.3208   42.7839 H   0  0  0  0  0  0  0  0  0  0  0  0
   55.6911   31.0250   43.1258 H   0  0  0  0  0  0  0  0  0  0  0  0
   56.7822   29.6725   42.8013 H   0  0  0  0  0  0  0  0  0  0  0  0
   58.2439   30.6823   46.7252 H   0  0  0  0  0  0  0  0  0  0  0  0
   62.6634   30.5222   48.1970 H   0  0  0  0  0  0  0  0  0  0  0  0
   63.7881   32.4978   47.2476 H   0  0  0  0  0  0  0  0  0  0  0  0
   62.4843   34.4064   46.3634 H   0  0  0  0  0  0  0  0  0  0  0  0
   58.8131   32.3958   47.3632 H   0  0  0  0  0  0  0  0  0  0  0  0
   61.4610   28.2360   49.0520 H   0  0  0  0  0  0  0  0  0  0  0  0
   61.3630   26.0105   48.3075 H   0  0  0  0  0  0  0  0  0  0  0  0
   58.0209   25.9883   45.1456 H   0  0  0  0  0  0  0  0  0  0  0  0
   56.5960   27.6900   44.2970 H   0  0  0  0  0  0  0  0  0  0  0  0
  1  2  2  0
  2  3  1  0
  3  4  1  0
  4  5  2  0
  5  6  1  0
  6  7  2  0
  7  8  1  0
  8  9  2  0
  9 10  1  0
 10 11  2  0
 11 12  1  0
 12 13  2  0
 13 14  1  0
 14 15  1  0
 14 16  2  0
  8 17  1  0
 17 18  1  0
 18 19  2  0
 19 20  1  0
 20 21  2  0
 21 22  1  0
 22  5  1  0
 20  7  1  0
 16 10  1  0
  1 23  1  0
  1 24  1  0
  2 25  1  0
  3 26  1  0
  3 27  1  0
  6 28  1  0
 11 29  1  0
 12 30  1  0
 13 31  1  0
 16 32  1  0
 17 33  1  0
 18 34  1  0
 21 35  1  0
 22 36  1  0
M  END
>  <smiles>  (34) 
C=CCN=c1cc2c(=Nc3cccc(Br)c3)[nH]cnc2c[nH]1

>  <score_type>  (34) 
oracle

>  <origin>  (34) 
adg

>  <m_score__min__energy>  (34) 
-7.6699999999999999

>  <m_primary>  (34) 
energy

$$$$
34:0
     RDKit          3D

 52 55  0  0  0  0  0  0  0  0999 V2000
   54.5231   22.1819   45.7665 H   0  0  0  0  0  0  0  0  0  0  0  0
   55.1830   23.0420   45.5800 C   0  0  0  0  0  0  0  0  0  0  0  0
   56.4570   22.8410   45.0480 C   0  0  0  0  0  0  0  0  0  0  0  0
   56.8044   21.8215   44.8244 H   0  0  0  0  0  0  0  0  0  0  0  0
   57.2920   23.9330   44.7990 C   0  0  0  0  0  0  0  0  0  0  0  0
   58.3009   23.7672   44.3932 H   0  0  0  0  0  0  0  0  0  0  0  0
   56.8530   25.2420   45.0630 C   0  0  0  0  0  0  0  0  0  0  0  0
   57.7650   26.4120   44.7700 C   0  0  0  0  0  0  0  0  0  0  0  0
   57.1804   27.1969   44.2679 H   0  0  0  0  0  0  0  0  0  0  0  0
   58.5833   26.0445   44.1333 H   0  0  0  0  0  0  0  0  0  0  0  0
   58.3880   26.9980   46.0260 C   0  0  0  0  0  0  0  0  0  0  0  0
   58.7120   26.1240   47.0710 C   0  0  0  0  0  0  0  0  0  0  0  0
   58.5420   25.0433   46.9559 H   0  0  0  0  0  0  0  0  0  0  0  0
   59.2470   26.6190   48.2510 C   0  0  0  0  0  0  0  0  0  0  0  0
   59.4631   25.9333   49.0835 H   0  0  0  0  0  0  0  0  0  0  0  0
   59.5050   27.9430   48.3840 N   0  0  0  0  0  0  0  0  0  0  0  0
   59.9410   28.2690   49.2770 H   0  0  0  0  0  0  0  0  0  0  0  0
   59.2720   28.8410   47.3840 C   0  0  0  0  0  0  0  0  0  0  0  0
   59.6880   30.0670   47.5810 N   0  0  0  0  0  0  0  0  0  0  0  0
   61.0020   30.5350   47.9000 C   0  0  0  0  0  0  0  0  0  0  0  0
   61.6130   30.0540   48.8900 O   0  0  0  0  0  0  0  0  0  0  0  0
   61.6660   31.4770   47.0540 N   0  0  0  0  0  0  0  0  0  0  0  0
   61.3370   33.1790   47.0770 S   0  0  0  0  0  0  0  0  0  0  0  0
   61.4620   33.6840   48.4860 O   0  0  0  0  0  0  0  0  0  0  0  0
   62.3510   33.9010   46.2340 O   0  0  0  0  0  0  0  0  0  0  0  0
   59.7080   33.4990   46.4840 C   0  0  0  0  0  0  0  0  0  0  0  0
   59.5180   34.0840   45.2230 C   0  0  0  0  0  0  0  0  0  0  0  0
   60.3891   34.3756   44.6179 H   0  0  0  0  0  0  0  0  0  0  0  0
   58.2270   34.2980   44.7320 C   0  0  0  0  0  0  0  0  0  0  0  0
   58.0844   34.7463   43.7377 H   0  0  0  0  0  0  0  0  0  0  0  0
   57.1180   33.9430   45.5030 C   0  0  0  0  0  0  0  0  0  0  0  0
   56.1024   34.1090   45.1144 H   0  0  0  0  0  0  0  0  0  0  0  0
   57.2980   33.3770   46.7680 C   0  0  0  0  0  0  0  0  0  0  0  0
   56.4233   33.1062   47.3776 H   0  0  0  0  0  0  0  0  0  0  0  0
   58.5890   33.1540   47.2610 C   0  0  0  0  0  0  0  0  0  0  0  0
   58.7440   32.5770   48.4780 F   0  0  0  0  0  0  0  0  0  0  0  0
   58.6460   28.3870   46.1780 C   0  0  0  0  0  0  0  0  0  0  0  0
   58.1240   29.3300   45.1620 C   0  0  0  0  0  0  0  0  0  0  0  0
   58.9590   30.2930   44.5810 C   0  0  0  0  0  0  0  0  0  0  0  0
   60.0106   30.3672   44.8951 H   0  0  0  0  0  0  0  0  0  0  0  0
   58.4620   31.1600   43.6040 C   0  0  0  0  0  0  0  0  0  0  0  0
   59.1184   31.9232   43.1605 H   0  0  0  0  0  0  0  0  0  0  0  0
   57.1290   31.0570   43.1900 C   0  0  0  0  0  0  0  0  0  0  0  0
   56.6500   31.8920   42.2360 F   0  0  0  0  0  0  0  0  0  0  0  0
   56.2950   30.0860   43.7520 C   0  0  0  0  0  0  0  0  0  0  0  0
   55.2490   30.0019   43.4222 H   0  0  0  0  0  0  0  0  0  0  0  0
   56.7900   29.2220   44.7330 C   0  0  0  0  0  0  0  0  0  0  0  0
   56.1336   28.4554   45.1705 H   0  0  0  0  0  0  0  0  0  0  0  0
   55.5740   25.4340   45.6280 C   0  0  0  0  0  0  0  0  0  0  0  0
   55.1210   26.7080   45.9510 O   0  0  0  0  0  0  0  0  0  0  0  0
   54.7450   24.3350   45.8760 C   0  0  0  0  0  0  0  0  0  0  0  0
   53.7443   24.4895   46.3058 H   0  0  0  0  0  0  0  0  0  0  0  0
  1  2  1  0
  2  3  2  0
  3  4  1  0
  3  5  1  0
  5  6  1  0
  5  7  2  0
  7  8  1  0
  8  9  1  0
  8 10  1  0
  8 11  1  0
 11 12  1  0
 12 13  1  0
 12 14  2  0
 14 15  1  0
 14 16  1  0
 16 17  1  0
 16 18  1  0
 18 19  2  0
 19 20  1  0
 20 21  2  0
 20 22  1  0
 22 23  1  0
 23 24  2  0
 23 25  2  0
 23 26  1  0
 26 27  2  0
 27 28  1  0
 27 29  1  0
 29 30  1  0
 29 31  2  0
 31 32  1  0
 31 33  1  0
 33 34  1  0
 33 35  2  0
 35 36  1  0
 18 37  1  0
 37 38  1  0
 38 39  2  0
 39 40  1  0
 39 41  1  0
 41 42  1  0
 41 43  2  0
 43 44  1  0
 43 45  1  0
 45 46  1  0
 45 47  2  0
 47 48  1  0
  7 49  1  0
 49 50  1  0
 49 51  2  0
 51 52  1  0
 51  2  1  0
 37 11  2  0
 47 38  1  0
 35 26  1  0
M  CHG  2  22  -1  50  -1
M  END
>  <UniqueID>  (35) 
33

>  <SMILES>  (35) 
O=C(/N=c1/[nH]ccc(Cc2ccccc2[O-])c1-c1ccc(F)cc1)[N-]S(=O)(=O)c1ccccc1F

>  <Energy>  (35) 
79.48491633600113

>  <Genealogy>  (35) 
O=C(N=c1[nH]ccc(Cc2ccccc2[O-])c1-c1ccc(F)cc1)[N-]S(=O)(=O)c1ccccc1F (protonated)
O=C(/N=c1/[nH]ccc(Cc2ccccc2[O-])c1-c1ccc(F)cc1)[N-]S(=O)(=O)c1ccccc1F (cis-trans isomerization)
O=C(/N=c1/[nH]ccc(Cc2ccccc2[O-])c1-c1ccc(F)cc1)[N-]S(=O)(=O)c1ccccc1F (3D coordinates assigned)
O=C(/N=c1/[nH]ccc(Cc2ccccc2[O-])c1-c1ccc(F)cc1)[N-]S(=O)(=O)c1ccccc1F (optimized conformer: 79.48491633600113 kcal/mol)

>  <smiles>  (35) 
O=C(N=c1[nH]ccc(Cc2ccccc2O)c1-c1ccc(F)cc1)NS(=O)(=O)c1ccccc1F

>  <score_type>  (35) 
oracle

>  <origin>  (35) 
adg

>  <m_score__min__energy>  (35) 
-13.93

>  <m_primary>  (35) 
energy

$$$$
35:0
     RDKit          3D

 54 56  0  0  0  0  0  0  0  0999 V2000
   60.9670   30.1570   48.2150 C   0  0  0  0  0  0  0  0  0  0  0  0
   60.3910   31.4220   48.8500 C   0  0  0  0  0  0  0  0  0  0  0  0
   60.9790   32.6290   48.2200 N   0  0  0  0  0  0  0  0  0  0  0  0
   62.1750   32.2810   47.4180 C   0  0  0  0  0  0  0  0  0  0  0  0
   63.1390   33.4640   47.3550 C   0  0  0  0  0  0  0  0  0  0  0  0
   59.9740   33.3760   47.4190 C   0  0  0  0  0  0  0  0  0  0  0  0
   60.0140   32.9090   45.9600 C   0  0  0  0  0  0  0  0  0  0  0  0
   59.2820   31.6560   45.7820 N   0  0  0  0  0  0  0  0  0  0  0  0
   58.0390   31.5890   45.0640 C   0  0  0  0  0  0  0  0  0  0  0  0
   57.6390   32.5910   44.4100 O   0  0  0  0  0  0  0  0  0  0  0  0
   57.2050   30.3700   45.0770 C   0  0  0  0  0  0  0  0  0  0  0  0
   55.9390   30.2260   44.5090 C   0  0  0  0  0  0  0  0  0  0  0  0
   55.4590   28.9810   44.7470 N   0  0  0  0  0  0  0  0  0  0  0  0
   56.3820   28.3450   45.4480 N   0  0  0  0  0  0  0  0  0  0  0  0
   56.3240   27.0730   45.9130 C   0  0  0  0  0  0  0  0  0  0  0  0
   55.3030   26.3640   45.6960 O   0  0  0  0  0  0  0  0  0  0  0  0
   57.4300   26.5680   46.6390 C   0  0  0  0  0  0  0  0  0  0  0  0
   57.4290   25.1240   47.1070 C   0  0  0  0  0  0  0  0  0  0  0  0
   57.5310   24.1810   45.9340 C   0  0  0  0  0  0  0  0  0  0  0  0
   58.7480   23.5440   45.6340 C   0  0  0  0  0  0  0  0  0  0  0  0
   58.8300   22.6440   44.5670 C   0  0  0  0  0  0  0  0  0  0  0  0
   57.6990   22.3720   43.7920 C   0  0  0  0  0  0  0  0  0  0  0  0
   56.4860   23.0020   44.0810 C   0  0  0  0  0  0  0  0  0  0  0  0
   55.3880   22.7320   43.3300 F   0  0  0  0  0  0  0  0  0  0  0  0
   56.4010   23.9040   45.1460 C   0  0  0  0  0  0  0  0  0  0  0  0
   58.5300   27.4510   46.8740 C   0  0  0  0  0  0  0  0  0  0  0  0
   59.7250   27.0450   47.6890 C   0  0  0  0  0  0  0  0  0  0  0  0
   58.5020   28.7220   46.3740 N   0  0  0  0  0  0  0  0  0  0  0  0
   57.4320   29.1400   45.6610 C   0  0  0  0  0  0  0  0  0  0  0  0
   61.2838   29.4613   49.0060 H   0  0  0  0  0  0  0  0  0  0  0  0
   60.1985   29.6774   47.5910 H   0  0  0  0  0  0  0  0  0  0  0  0
   61.8333   30.4218   47.5910 H   0  0  0  0  0  0  0  0  0  0  0  0
   59.3001   31.4342   48.7090 H   0  0  0  0  0  0  0  0  0  0  0  0
   60.6329   31.4252   49.9231 H   0  0  0  0  0  0  0  0  0  0  0  0
   62.6844   31.4231   47.8811 H   0  0  0  0  0  0  0  0  0  0  0  0
   61.8567   32.0264   46.3963 H   0  0  0  0  0  0  0  0  0  0  0  0
   63.3974   33.7812   48.3761 H   0  0  0  0  0  0  0  0  0  0  0  0
   64.0532   33.1641   46.8218 H   0  0  0  0  0  0  0  0  0  0  0  0
   62.6607   34.2988   46.8218 H   0  0  0  0  0  0  0  0  0  0  0  0
   58.9709   33.1943   47.8322 H   0  0  0  0  0  0  0  0  0  0  0  0
   60.2057   34.4505   47.4605 H   0  0  0  0  0  0  0  0  0  0  0  0
   59.5596   33.6827   45.3237 H   0  0  0  0  0  0  0  0  0  0  0  0
   61.0639   32.7402   45.6786 H   0  0  0  0  0  0  0  0  0  0  0  0
   59.7380   30.7800   46.1230 H   0  0  0  0  0  0  0  0  0  0  0  0
   55.4073   31.0094   43.9491 H   0  0  0  0  0  0  0  0  0  0  0  0
   58.2866   24.9612   47.7763 H   0  0  0  0  0  0  0  0  0  0  0  0
   56.4862   24.9259   47.6379 H   0  0  0  0  0  0  0  0  0  0  0  0
   59.6403   23.7547   46.2418 H   0  0  0  0  0  0  0  0  0  0  0  0
   59.7854   22.1496   44.3373 H   0  0  0  0  0  0  0  0  0  0  0  0
   57.7640   21.6618   42.9545 H   0  0  0  0  0  0  0  0  0  0  0  0
   55.4444   24.3995   45.3682 H   0  0  0  0  0  0  0  0  0  0  0  0
   59.4840   27.1269   48.7591 H   0  0  0  0  0  0  0  0  0  0  0  0
   59.9941   26.0050   47.4523 H   0  0  0  0  0  0  0  0  0  0  0  0
   60.5719   27.7058   47.4523 H   0  0  0  0  0  0  0  0  0  0  0  0
  1  2  1  0
  2  3  1  0
  3  4  1  0
  4  5  1  0
  3  6  1  0
  6  7  1  0
  7  8  1  0
  8  9  1  0
  9 10  2  0
  9 11  1  0
 11 12  2  0
 12 13  1  0
 13 14  1  0
 14 15  1  0
 15 16  2  0
 15 17  1  0
 17 18  1  0
 18 19  1  0
 19 20  2  0
 20 21  1  0
 21 22  2  0
 22 23  1  0
 23 24  1  0
 23 25  2  0
 17 26  2  0
 26 27  1  0
 26 28  1  0
 28 29  2  0
 29 11  1  0
 29 14  1  0
 25 19  1  0
  1 30  1  0
  1 31  1  0
  1 32  1  0
  2 33  1  0
  2 34  1  0
  4 35  1  0
  4 36  1  0
  5 37  1  0
  5 38  1  0
  5 39  1  0
  6 40  1  0
  6 41  1  0
  7 42  1  0
  7 43  1  0
  8 44  1  0
 12 45  1  0
 18 46  1  0
 18 47  1  0
 20 48  1  0
 21 49  1  0
 22 50  1  0
 25 51  1  0
 27 52  1  0
 27 53  1  0
 27 54  1  0
M  CHG  1  13  -1
M  END
>  <UniqueID>  (36) 
34

>  <SMILES>  (36) 
CCN(CC)CCNC(=O)c1c[n-]n2c(=O)c(Cc3cccc(F)c3)c(C)nc12

>  <Energy>  (36) 
89.63224208409078

>  <Genealogy>  (36) 
CCN(CC)CCNC(=O)c1c[n-]n2c(=O)c(Cc3cccc(F)c3)c(C)nc12 (protonated)
CCN(CC)CCNC(=O)c1c[n-]n2c(=O)c(Cc3cccc(F)c3)c(C)nc12 (3D coordinates assigned)
CCN(CC)CCNC(=O)c1c[n-]n2c(=O)c(Cc3cccc(F)c3)c(C)nc12 (optimized conformer: 89.63224208409078 kcal/mol)

>  <smiles>  (36) 
CCN(CC)CCNC(=O)c1c[nH]n2c(=O)c(Cc3cccc(F)c3)c(C)nc12

>  <score_type>  (36) 
oracle

>  <origin>  (36) 
adg

>  <m_score__min__energy>  (36) 
-10.9

>  <m_primary>  (36) 
energy

$$$$
36:0
     RDKit          3D

 53 56  0  0  0  0  0  0  0  0999 V2000
   55.5670   26.3570   46.3800 N   0  0  0  0  0  0  0  0  0  0  0  0
   56.8470   27.1510   45.5330 S   0  0  0  0  0  0  0  0  0  0  0  0
   57.3850   26.2380   44.4660 O   0  0  0  0  0  0  0  0  0  0  0  0
   56.3160   28.3970   44.8790 O   0  0  0  0  0  0  0  0  0  0  0  0
   58.1300   27.5700   46.6630 C   0  0  0  0  0  0  0  0  0  0  0  0
   58.4600   28.9120   46.8910 C   0  0  0  0  0  0  0  0  0  0  0  0
   59.4720   29.2450   47.7970 C   0  0  0  0  0  0  0  0  0  0  0  0
   60.1690   28.2330   48.4870 C   0  0  0  0  0  0  0  0  0  0  0  0
   61.1970   28.5070   49.4020 O   0  0  0  0  0  0  0  0  0  0  0  0
   61.1020   28.3780   50.8220 C   0  0  0  0  0  0  0  0  0  0  0  0
   59.9160   29.1810   51.3750 C   0  0  0  0  0  0  0  0  0  0  0  0
   59.6550   30.3870   50.5590 N   0  0  0  0  0  0  0  0  0  0  0  0
   60.8450   31.2690   50.5000 C   0  0  0  0  0  0  0  0  0  0  0  0
   60.5130   32.6420   49.8810 C   0  0  0  0  0  0  0  0  0  0  0  0
   59.2090   32.5840   49.2000 N   0  0  0  0  0  0  0  0  0  0  0  0
   58.9390   33.7520   48.3310 C   0  0  0  0  0  0  0  0  0  0  0  0
   58.6230   33.3940   46.8870 C   0  0  0  0  0  0  0  0  0  0  0  0
   57.8540   32.2370   46.6220 C   0  0  0  0  0  0  0  0  0  0  0  0
   57.5770   31.9140   45.2990 C   0  0  0  0  0  0  0  0  0  0  0  0
   58.0090   32.6790   44.2680 C   0  0  0  0  0  0  0  0  0  0  0  0
   58.7510   33.8360   44.4710 C   0  0  0  0  0  0  0  0  0  0  0  0
   59.0590   34.2060   45.7940 C   0  0  0  0  0  0  0  0  0  0  0  0
   59.9670   35.6950   46.0360 Cl  0  0  0  0  0  0  0  0  0  0  0  0
   57.5880   32.1260   43.0750 O   0  0  0  0  0  0  0  0  0  0  0  0
   56.8450   30.9360   43.3770 C   0  0  0  0  0  0  0  0  0  0  0  0
   56.8610   30.8390   44.8080 O   0  0  0  0  0  0  0  0  0  0  0  0
   58.1240   32.3020   50.1600 C   0  0  0  0  0  0  0  0  0  0  0  0
   58.4930   31.1270   51.0900 C   0  0  0  0  0  0  0  0  0  0  0  0
   59.8210   26.8950   48.2650 C   0  0  0  0  0  0  0  0  0  0  0  0
   58.8100   26.5630   47.3600 C   0  0  0  0  0  0  0  0  0  0  0  0
   54.7700   27.0290   46.4260 H   0  0  0  0  0  0  0  0  0  0  0  0
   57.9210   29.7073   46.3553 H   0  0  0  0  0  0  0  0  0  0  0  0
   59.7250   30.3012   47.9718 H   0  0  0  0  0  0  0  0  0  0  0  0
   60.9669   27.3167   51.0775 H   0  0  0  0  0  0  0  0  0  0  0  0
   62.0270   28.7703   51.2698 H   0  0  0  0  0  0  0  0  0  0  0  0
   59.0190   28.5443   51.3701 H   0  0  0  0  0  0  0  0  0  0  0  0
   60.1611   29.5012   52.3984 H   0  0  0  0  0  0  0  0  0  0  0  0
   61.2254   31.4217   51.5208 H   0  0  0  0  0  0  0  0  0  0  0  0
   61.5992   30.7819   49.8645 H   0  0  0  0  0  0  0  0  0  0  0  0
   60.4754   33.4009   50.6764 H   0  0  0  0  0  0  0  0  0  0  0  0
   61.2912   32.9068   49.1500 H   0  0  0  0  0  0  0  0  0  0  0  0
   58.0805   34.3001   48.7465 H   0  0  0  0  0  0  0  0  0  0  0  0
   59.8601   34.3531   48.3137 H   0  0  0  0  0  0  0  0  0  0  0  0
   57.4836   31.6072   47.4443 H   0  0  0  0  0  0  0  0  0  0  0  0
   59.0888   34.4466   43.6207 H   0  0  0  0  0  0  0  0  0  0  0  0
   55.8125   31.0210   43.0072 H   0  0  0  0  0  0  0  0  0  0  0  0
   57.2797   30.0460   42.8985 H   0  0  0  0  0  0  0  0  0  0  0  0
   57.9426   33.1991   50.7701 H   0  0  0  0  0  0  0  0  0  0  0  0
   57.2210   32.0283   49.5945 H   0  0  0  0  0  0  0  0  0  0  0  0
   58.7399   31.5196   52.0875 H   0  0  0  0  0  0  0  0  0  0  0  0
   57.6349   30.4415   51.1517 H   0  0  0  0  0  0  0  0  0  0  0  0
   60.3489   26.0976   48.8085 H   0  0  0  0  0  0  0  0  0  0  0  0
   58.5471   25.5078   47.1942 H   0  0  0  0  0  0  0  0  0  0  0  0
  1  2  1  0
  2  3  2  0
  2  4  2  0
  2  5  1  0
  5  6  2  0
  6  7  1  0
  7  8  2  0
  8  9  1  0
  9 10  1  0
 10 11  1  0
 11 12  1  0
 12 13  1  0
 13 14  1  0
 14 15  1  0
 15 16  1  0
 16 17  1  0
 17 18  2  0
 18 19  1  0
 19 20  2  0
 20 21  1  0
 21 22  2  0
 22 23  1  0
 20 24  1  0
 24 25  1  0
 25 26  1  0
 15 27  1  0
 27 28  1  0
  8 29  1  0
 29 30  2  0
 30  5  1  0
 28 12  1  0
 22 17  1  0
 26 19  1  0
  1 31  1  0
  6 32  1  0
  7 33  1  0
 10 34  1  0
 10 35  1  0
 11 36  1  0
 11 37  1  0
 13 38  1  0
 13 39  1  0
 14 40  1  0
 14 41  1  0
 16 42  1  0
 16 43  1  0
 18 44  1  0
 21 45  1  0
 25 46  1  0
 25 47  1  0
 27 48  1  0
 27 49  1  0
 28 50  1  0
 28 51  1  0
 29 52  1  0
 30 53  1  0
M  CHG  1   1  -1
M  END
>  <UniqueID>  (37) 
35

>  <SMILES>  (37) 
[NH-]S(=O)(=O)c1ccc(OCCN2CCN(Cc3cc4c(cc3Cl)OCO4)CC2)cc1

>  <Energy>  (37) 
95.25191497281564

>  <Genealogy>  (37) 
[NH-]S(=O)(=O)c1ccc(OCCN2CCN(Cc3cc4c(cc3Cl)OCO4)CC2)cc1 (protonated)
[NH-]S(=O)(=O)c1ccc(OCCN2CCN(Cc3cc4c(cc3Cl)OCO4)CC2)cc1 (3D coordinates assigned)
[NH-]S(=O)(=O)c1ccc(OCCN2CCN(Cc3cc4c(cc3Cl)OCO4)CC2)cc1 (nonaromatic ring conformer: 95.25191497281564 kcal/mol)

>  <smiles>  (37) 
NS(=O)(=O)c1ccc(OCCN2CCN(Cc3cc4c(cc3Cl)OCO4)CC2)cc1

>  <score_type>  (37) 
oracle

>  <origin>  (37) 
adg

>  <m_score__min__energy>  (37) 
-11.27

>  <m_primary>  (37) 
energy

$$$$
37:0
     RDKit          3D

 51 54  0  0  0  0  0  0  0  0999 V2000
   56.7540   31.5608   45.8215 H   0  0  0  0  0  0  0  0  0  0  0  0
   57.8480   31.4530   45.7820 C   0  0  0  0  0  0  0  0  0  0  0  0
   58.5690   32.5980   45.7760 C   0  0  0  0  0  0  0  0  0  0  0  0
   59.4470   32.8980   46.9420 C   0  0  0  0  0  0  0  0  0  0  0  0
   59.8430   31.9590   47.6890 O   0  0  0  0  0  0  0  0  0  0  0  0
   59.8490   34.2990   47.2310 C   0  0  0  0  0  0  0  0  0  0  0  0
   60.5440   34.5860   48.3520 C   0  0  0  0  0  0  0  0  0  0  0  0
   60.1174   35.3265   49.0446 H   0  0  0  0  0  0  0  0  0  0  0  0
   61.8380   33.9730   48.7110 C   0  0  0  0  0  0  0  0  0  0  0  0
   62.1930   33.7970   50.0570 C   0  0  0  0  0  0  0  0  0  0  0  0
   61.4908   34.0908   50.8511 H   0  0  0  0  0  0  0  0  0  0  0  0
   63.4350   33.2500   50.3940 C   0  0  0  0  0  0  0  0  0  0  0  0
   63.6997   33.1004   51.4512 H   0  0  0  0  0  0  0  0  0  0  0  0
   64.3480   32.8900   49.3840 C   0  0  0  0  0  0  0  0  0  0  0  0
   65.6040   32.3320   49.6680 O   0  0  0  0  0  0  0  0  0  0  0  0
   66.5880   32.9490   50.4920 C   0  0  0  0  0  0  0  0  0  0  0  0
   66.3329   32.7891   51.5500 H   0  0  0  0  0  0  0  0  0  0  0  0
   67.5727   32.5063   50.2812 H   0  0  0  0  0  0  0  0  0  0  0  0
   66.6184   34.0282   50.2812 H   0  0  0  0  0  0  0  0  0  0  0  0
   64.0000   33.0950   48.0430 C   0  0  0  0  0  0  0  0  0  0  0  0
   64.7098   32.8230   47.2479 H   0  0  0  0  0  0  0  0  0  0  0  0
   62.7590   33.6420   47.7060 C   0  0  0  0  0  0  0  0  0  0  0  0
   62.4470   33.8350   46.3990 F   0  0  0  0  0  0  0  0  0  0  0  0
   59.3170   35.3730   46.3100 C   0  0  0  0  0  0  0  0  0  0  0  0
   59.9556   36.2656   46.3838 H   0  0  0  0  0  0  0  0  0  0  0  0
   58.2881   35.6259   46.6055 H   0  0  0  0  0  0  0  0  0  0  0  0
   59.3160   34.8690   44.8680 C   0  0  0  0  0  0  0  0  0  0  0  0
   60.3420   34.5881   44.5881 H   0  0  0  0  0  0  0  0  0  0  0  0
   58.9378   35.6763   44.2235 H   0  0  0  0  0  0  0  0  0  0  0  0
   58.4010   33.6490   44.6920 C   0  0  0  0  0  0  0  0  0  0  0  0
   58.6247   33.1845   43.7203 H   0  0  0  0  0  0  0  0  0  0  0  0
   57.3648   34.0127   44.7548 H   0  0  0  0  0  0  0  0  0  0  0  0
   58.3760   30.0700   45.7410 C   0  0  0  0  0  0  0  0  0  0  0  0
   59.7390   29.4480   46.5010 S   0  0  0  0  0  0  0  0  0  0  0  0
   59.5340   27.8480   46.0270 C   0  0  0  0  0  0  0  0  0  0  0  0
   60.4730   26.9210   46.2330 C   0  0  0  0  0  0  0  0  0  0  0  0
   60.3025   25.8838   45.9086 H   0  0  0  0  0  0  0  0  0  0  0  0
   61.4170   27.1946   46.7270 H   0  0  0  0  0  0  0  0  0  0  0  0
   58.3300   27.7540   45.2920 C   0  0  0  0  0  0  0  0  0  0  0  0
   57.7490   26.6460   44.7870 C   0  0  0  0  0  0  0  0  0  0  0  0
   57.7598   26.5288   43.6933 H   0  0  0  0  0  0  0  0  0  0  0  0
   57.1020   25.5800   45.5690 C   0  0  0  0  0  0  0  0  0  0  0  0
   55.8550   25.6380   46.1490 C   0  0  0  0  0  0  0  0  0  0  0  0
   54.9360   26.6690   45.9920 O   0  0  0  0  0  0  0  0  0  0  0  0
   55.6360   24.5500   46.9110 N   0  0  0  0  0  0  0  0  0  0  0  0
   56.7910   23.8610   46.7870 C   0  0  0  0  0  0  0  0  0  0  0  0
   57.0010   22.7640   47.3700 O   0  0  0  0  0  0  0  0  0  0  0  0
   57.7050   24.4560   45.9950 N   0  0  0  0  0  0  0  0  0  0  0  0
   58.6790   24.1340   45.7910 H   0  0  0  0  0  0  0  0  0  0  0  0
   57.7150   29.0130   45.1240 C   0  0  0  0  0  0  0  0  0  0  0  0
   56.7862   29.1478   44.5504 H   0  0  0  0  0  0  0  0  0  0  0  0
  1  2  1  0
  2  3  2  3
  3  4  1  0
  4  5  2  0
  4  6  1  0
  6  7  2  0
  7  8  1  0
  7  9  1  0
  9 10  2  0
 10 11  1  0
 10 12  1  0
 12 13  1  0
 12 14  2  0
 14 15  1  0
 15 16  1  0
 16 17  1  0
 16 18  1  0
 16 19  1  0
 14 20  1  0
 20 21  1  0
 20 22  2  0
 22 23  1  0
  6 24  1  0
 24 25  1  0
 24 26  1  0
 24 27  1  0
 27 28  1  0
 27 29  1  0
 27 30  1  0
 30 31  1  0
 30 32  1  0
  2 33  1  0
 33 34  1  0
 34 35  1  0
 35 36  2  0
 36 37  1  0
 36 38  1  0
 35 39  1  0
 39 40  2  3
 40 41  1  0
 40 42  1  0
 42 43  2  0
 43 44  1  0
 43 45  1  0
 45 46  1  0
 46 47  2  0
 46 48  1  0
 48 49  1  0
 39 50  1  0
 50 51  1  0
 30  3  1  0
 50 33  2  0
 22  9  1  0
 48 42  1  0
M  CHG  2  44  -1  45  -1
M  END
>  <UniqueID>  (38) 
36

>  <SMILES>  (38) 
C=c1sc(C=C2CCC/C(=C\c3ccc(OC)cc3F)C2=O)cc1=Cc1[nH]c(=O)[n-]c1[O-]

>  <Energy>  (38) 
139.5561816069062

>  <Genealogy>  (38) 
C=c1sc(C=C2CCCC(=Cc3ccc(OC)cc3F)C2=O)cc1=Cc1[nH]c(=O)[n-]c1[O-] (protonated)
C=c1sc(C=C2CCC/C(=C\c3ccc(OC)cc3F)C2=O)cc1=Cc1[nH]c(=O)[n-]c1[O-] (cis-trans isomerization)
C=c1sc(C=C2CCC/C(=C\c3ccc(OC)cc3F)C2=O)cc1=Cc1[nH]c(=O)[n-]c1[O-] (3D coordinates assigned)
C=c1sc(C=C2CCC/C(=C\c3ccc(OC)cc3F)C2=O)cc1=Cc1[nH]c(=O)[n-]c1[O-] (nonaromatic ring conformer: 139.5561816069062 kcal/mol)

>  <smiles>  (38) 
C=c1sc(C=C2CCCC(=Cc3ccc(OC)cc3F)C2=O)cc1=Cc1[nH]c(=O)[nH]c1O

>  <score_type>  (38) 
oracle

>  <origin>  (38) 
adg

>  <m_score__min__energy>  (38) 
-16.149999999999999

>  <m_primary>  (38) 
energy

$$$$
38:0
     RDKit          3D

 50 53  0  0  0  0  0  0  0  0999 V2000
   57.5736   20.5731   42.7142 H   0  0  0  0  0  0  0  0  0  0  0  0
   57.5520   21.4590   43.3660 C   0  0  0  0  0  0  0  0  0  0  0  0
   58.6730   21.7900   44.1310 C   0  0  0  0  0  0  0  0  0  0  0  0
   59.5712   21.1562   44.0927 H   0  0  0  0  0  0  0  0  0  0  0  0
   58.6540   22.9260   44.9450 C   0  0  0  0  0  0  0  0  0  0  0  0
   59.7440   23.2490   45.6830 F   0  0  0  0  0  0  0  0  0  0  0  0
   57.5070   23.7250   45.0050 C   0  0  0  0  0  0  0  0  0  0  0  0
   57.5004   24.6267   45.6350 H   0  0  0  0  0  0  0  0  0  0  0  0
   56.3660   23.3820   44.2660 C   0  0  0  0  0  0  0  0  0  0  0  0
   55.1870   24.1930   44.3860 N   0  0  0  0  0  0  0  0  0  0  0  0
   54.6800   24.7580   45.6050 C   0  0  0  0  0  0  0  0  0  0  0  0
   53.4450   24.6920   45.8400 O   0  0  0  0  0  0  0  0  0  0  0  0
   55.5400   25.3900   46.5670 N   0  0  0  0  0  0  0  0  0  0  0  0
   56.3590   26.3640   46.3070 C   0  0  0  0  0  0  0  0  0  0  0  0
   56.0180   27.4790   45.6240 N   0  0  0  0  0  0  0  0  0  0  0  0
   57.0780   28.3140   45.4610 C   0  0  0  0  0  0  0  0  0  0  0  0
   56.9660   29.5680   44.6430 C   0  0  0  0  0  0  0  0  0  0  0  0
   57.7092   30.1450   45.2129 H   0  0  0  0  0  0  0  0  0  0  0  0
   55.5780   29.8430   44.0890 C   0  0  0  0  0  0  0  0  0  0  0  0
   54.7399   29.1813   44.3531 H   0  0  0  0  0  0  0  0  0  0  0  0
   54.8975   30.7073   44.0921 H   0  0  0  0  0  0  0  0  0  0  0  0
   56.6740   29.3460   43.1660 C   0  0  0  0  0  0  0  0  0  0  0  0
   56.6309   28.3240   42.7615 H   0  0  0  0  0  0  0  0  0  0  0  0
   57.1174   29.7003   42.2237 H   0  0  0  0  0  0  0  0  0  0  0  0
   58.2740   27.8520   46.0190 C   0  0  0  0  0  0  0  0  0  0  0  0
   59.6330   28.4630   45.8570 C   0  0  0  0  0  0  0  0  0  0  0  0
   59.8639   28.5604   44.7859 H   0  0  0  0  0  0  0  0  0  0  0  0
   60.3806   27.8175   46.3411 H   0  0  0  0  0  0  0  0  0  0  0  0
   59.6620   29.8180   46.4970 C   0  0  0  0  0  0  0  0  0  0  0  0
   59.7680   29.9030   47.7510 O   0  0  0  0  0  0  0  0  0  0  0  0
   59.4840   30.9950   45.6930 N   0  0  0  0  0  0  0  0  0  0  0  0
   59.2390   30.8590   44.6870 H   0  0  0  0  0  0  0  0  0  0  0  0
   59.4110   32.3310   46.2220 C   0  0  0  0  0  0  0  0  0  0  0  0
   58.4620   33.2220   45.7030 C   0  0  0  0  0  0  0  0  0  0  0  0
   57.7808   32.8915   44.9050 H   0  0  0  0  0  0  0  0  0  0  0  0
   58.3760   34.5250   46.1920 C   0  0  0  0  0  0  0  0  0  0  0  0
   57.6162   35.2125   45.7919 H   0  0  0  0  0  0  0  0  0  0  0  0
   59.2530   34.9590   47.1890 C   0  0  0  0  0  0  0  0  0  0  0  0
   59.1751   35.9860   47.5753 H   0  0  0  0  0  0  0  0  0  0  0  0
   60.2300   34.0970   47.7000 C   0  0  0  0  0  0  0  0  0  0  0  0
   61.0990   34.5870   48.6860 O   0  0  0  0  0  0  0  0  0  0  0  0
   62.3620   34.0120   49.0030 C   0  0  0  0  0  0  0  0  0  0  0  0
   62.4771   33.9596   50.0957 H   0  0  0  0  0  0  0  0  0  0  0  0
   62.4203   32.9986   48.5791 H   0  0  0  0  0  0  0  0  0  0  0  0
   63.1646   34.6335   48.5791 H   0  0  0  0  0  0  0  0  0  0  0  0
   60.3100   32.7790   47.2080 C   0  0  0  0  0  0  0  0  0  0  0  0
   61.0797   32.0961   47.5969 H   0  0  0  0  0  0  0  0  0  0  0  0
   57.9790   26.3590   46.7440 S   0  0  0  0  0  0  0  0  0  0  0  0
   56.4020   22.2530   43.4280 C   0  0  0  0  0  0  0  0  0  0  0  0
   55.5231   21.9936   42.8195 H   0  0  0  0  0  0  0  0  0  0  0  0
  1  2  1  0
  2  3  2  0
  3  4  1  0
  3  5  1  0
  5  6  1  0
  5  7  2  0
  7  8  1  0
  7  9  1  0
  9 10  1  0
 10 11  1  0
 11 12  2  0
 11 13  1  0
 13 14  2  0
 14 15  1  0
 15 16  1  0
 16 17  1  0
 17 18  1  0
 17 19  1  0
 19 20  1  0
 19 21  1  0
 19 22  1  0
 22 23  1  0
 22 24  1  0
 16 25  2  0
 25 26  1  0
 26 27  1  0
 26 28  1  0
 26 29  1  0
 29 30  2  0
 29 31  1  0
 31 32  1  0
 31 33  1  0
 33 34  2  0
 34 35  1  0
 34 36  1  0
 36 37  1  0
 36 38  2  0
 38 39  1  0
 38 40  1  0
 40 41  1  0
 41 42  1  0
 42 43  1  0
 42 44  1  0
 42 45  1  0
 40 46  2  0
 46 47  1  0
 25 48  1  0
  9 49  2  0
 49 50  1  0
 49  2  1  0
 48 14  1  0
 22 17  1  0
 46 33  1  0
M  CHG  2  10  -1  15  -1
M  END
>  <UniqueID>  (39) 
37

>  <SMILES>  (39) 
COc1cccc(NC(=O)Cc2s/c(=N/C(=O)[N-]c3cccc(F)c3)[n-]c2C2CC2)c1

>  <Energy>  (39) 
351.6954258675899

>  <Genealogy>  (39) 
COc1cccc(NC(=O)Cc2sc(=NC(=O)[N-]c3cccc(F)c3)[n-]c2C2CC2)c1 (protonated)
COc1cccc(NC(=O)Cc2s/c(=N/C(=O)[N-]c3cccc(F)c3)[n-]c2C2CC2)c1 (cis-trans isomerization)
COc1cccc(NC(=O)Cc2s/c(=N/C(=O)[N-]c3cccc(F)c3)[n-]c2C2CC2)c1 (3D coordinates assigned)
COc1cccc(NC(=O)Cc2s/c(=N/C(=O)[N-]c3cccc(F)c3)[n-]c2C2CC2)c1 (nonaromatic ring conformer: 351.6954258675899 kcal/mol)

>  <smiles>  (39) 
COc1cccc(NC(=O)Cc2sc(=NC(=O)Nc3cccc(F)c3)[nH]c2C2CC2)c1

>  <score_type>  (39) 
oracle

>  <origin>  (39) 
adg

>  <m_score__min__energy>  (39) 
-11.199999999999999

>  <m_primary>  (39) 
energy

$$$$
39:0
     RDKit          3D

 48 50  0  0  0  0  0  0  0  0999 V2000
   59.8690   35.5400   46.1100 O   0  0  0  0  0  0  0  0  0  0  0  0
   59.4660   34.4010   45.7490 C   0  0  0  0  0  0  0  0  0  0  0  0
   58.2580   34.2920   44.8740 C   0  0  0  0  0  0  0  0  0  0  0  0
   58.2760   32.9990   44.1970 N   0  0  0  0  0  0  0  0  0  0  0  0
   57.5830   31.7840   45.2260 S   0  0  0  0  0  0  0  0  0  0  0  0
   57.6450   32.2520   46.6520 O   0  0  0  0  0  0  0  0  0  0  0  0
   56.1420   31.5720   44.8560 O   0  0  0  0  0  0  0  0  0  0  0  0
   58.4730   30.2700   45.0790 C   0  0  0  0  0  0  0  0  0  0  0  0
   57.9470   29.2230   44.3070 C   0  0  0  0  0  0  0  0  0  0  0  0
   58.6390   28.0110   44.2030 C   0  0  0  0  0  0  0  0  0  0  0  0
   59.8560   27.8390   44.8720 C   0  0  0  0  0  0  0  0  0  0  0  0
   60.3800   28.8780   45.6470 C   0  0  0  0  0  0  0  0  0  0  0  0
   59.6910   30.0910   45.7530 C   0  0  0  0  0  0  0  0  0  0  0  0
   60.1580   33.2160   46.1640 N   0  0  0  0  0  0  0  0  0  0  0  0
   61.3820   33.2370   46.9160 C   0  0  0  0  0  0  0  0  0  0  0  0
   62.5270   33.8600   46.3890 C   0  0  0  0  0  0  0  0  0  0  0  0
   63.7380   33.8190   47.0840 C   0  0  0  0  0  0  0  0  0  0  0  0
   63.8220   33.1450   48.3040 C   0  0  0  0  0  0  0  0  0  0  0  0
   62.6940   32.5150   48.8340 C   0  0  0  0  0  0  0  0  0  0  0  0
   61.4680   32.5570   48.1520 C   0  0  0  0  0  0  0  0  0  0  0  0
   60.3070   31.9440   48.7410 N   0  0  0  0  0  0  0  0  0  0  0  0
   59.1500   32.7690   49.1170 C   0  0  0  0  0  0  0  0  0  0  0  0
   58.6060   32.3070   50.4720 C   0  0  0  0  0  0  0  0  0  0  0  0
   58.2870   30.7950   50.5080 C   0  0  0  0  0  0  0  0  0  0  0  0
   58.8850   30.0030   49.3310 C   0  0  0  0  0  0  0  0  0  0  0  0
   60.2940   30.4930   48.9720 C   0  0  0  0  0  0  0  0  0  0  0  0
   57.3492   34.3739   45.4883 H   0  0  0  0  0  0  0  0  0  0  0  0
   58.2647   35.1014   44.1291 H   0  0  0  0  0  0  0  0  0  0  0  0
   56.9891   29.3551   43.7826 H   0  0  0  0  0  0  0  0  0  0  0  0
   58.2259   27.1928   43.5948 H   0  0  0  0  0  0  0  0  0  0  0  0
   60.4002   26.8867   44.7882 H   0  0  0  0  0  0  0  0  0  0  0  0
   61.3357   28.7415   46.1743 H   0  0  0  0  0  0  0  0  0  0  0  0
   60.1045   30.9057   46.3656 H   0  0  0  0  0  0  0  0  0  0  0  0
   59.7130   32.2910   45.9720 H   0  0  0  0  0  0  0  0  0  0  0  0
   62.4688   34.3831   45.4231 H   0  0  0  0  0  0  0  0  0  0  0  0
   64.6264   34.3182   46.6698 H   0  0  0  0  0  0  0  0  0  0  0  0
   64.7774   33.1103   48.8480 H   0  0  0  0  0  0  0  0  0  0  0  0
   62.7669   31.9817   49.7933 H   0  0  0  0  0  0  0  0  0  0  0  0
   59.4591   33.8224   49.1869 H   0  0  0  0  0  0  0  0  0  0  0  0
   58.3645   32.6647   48.3540 H   0  0  0  0  0  0  0  0  0  0  0  0
   59.3574   32.5257   51.2450 H   0  0  0  0  0  0  0  0  0  0  0  0
   57.6649   32.8474   50.6516 H   0  0  0  0  0  0  0  0  0  0  0  0
   58.6871   30.3788   51.4443 H   0  0  0  0  0  0  0  0  0  0  0  0
   57.1937   30.6976   50.4357 H   0  0  0  0  0  0  0  0  0  0  0  0
   58.9375   28.9396   49.6075 H   0  0  0  0  0  0  0  0  0  0  0  0
   58.2374   30.1520   48.4544 H   0  0  0  0  0  0  0  0  0  0  0  0
   60.9787   30.2548   49.7993 H   0  0  0  0  0  0  0  0  0  0  0  0
   60.6139   29.9894   48.0479 H   0  0  0  0  0  0  0  0  0  0  0  0
  1  2  2  0
  2  3  1  0
  3  4  1  0
  4  5  1  0
  5  6  2  0
  5  7  2  0
  5  8  1  0
  8  9  2  0
  9 10  1  0
 10 11  2  0
 11 12  1  0
 12 13  2  0
  2 14  1  0
 14 15  1  0
 15 16  2  0
 16 17  1  0
 17 18  2  0
 18 19  1  0
 19 20  2  0
 20 21  1  0
 21 22  1  0
 22 23  1  0
 23 24  1  0
 24 25  1  0
 25 26  1  0
 13  8  1  0
 20 15  1  0
 26 21  1  0
  3 27  1  0
  3 28  1  0
  9 29  1  0
 10 30  1  0
 11 31  1  0
 12 32  1  0
 13 33  1  0
 14 34  1  0
 16 35  1  0
 17 36  1  0
 18 37  1  0
 19 38  1  0
 22 39  1  0
 22 40  1  0
 23 41  1  0
 23 42  1  0
 24 43  1  0
 24 44  1  0
 25 45  1  0
 25 46  1  0
 26 47  1  0
 26 48  1  0
M  CHG  1   4  -1
M  END
>  <UniqueID>  (40) 
38

>  <SMILES>  (40) 
O=C(C[N-]S(=O)(=O)c1ccccc1)Nc1ccccc1N1CCCCC1

>  <Energy>  (40) 
55.02104010545525

>  <Genealogy>  (40) 
O=C(C[N-]S(=O)(=O)c1ccccc1)Nc1ccccc1N1CCCCC1 (protonated)
O=C(C[N-]S(=O)(=O)c1ccccc1)Nc1ccccc1N1CCCCC1 (3D coordinates assigned)
O=C(C[N-]S(=O)(=O)c1ccccc1)Nc1ccccc1N1CCCCC1 (nonaromatic ring conformer: 55.02104010545525 kcal/mol)

>  <smiles>  (40) 
O=C(CNS(=O)(=O)c1ccccc1)Nc1ccccc1N1CCCCC1

>  <score_type>  (40) 
oracle

>  <origin>  (40) 
adg

>  <m_score__min__energy>  (40) 
-9.3300000000000001

>  <m_primary>  (40) 
energy

$$$$
40:0
     RDKit          3D

 24 25  0  0  0  0  0  0  0  0999 V2000
   54.0410   26.3270   46.4300 H   0  0  0  0  0  0  0  0  0  0  0  0
   54.9320   26.3570   45.9490 O   0  0  0  0  0  0  0  0  0  0  0  0
   55.9810   25.5160   46.3100 C   0  0  0  0  0  0  0  0  0  0  0  0
   55.8290   24.4480   47.1110 N   0  0  0  0  0  0  0  0  0  0  0  0
   57.0780   23.9390   47.1690 C   0  0  0  0  0  0  0  0  0  0  0  0
   57.3590   22.9070   47.8320 O   0  0  0  0  0  0  0  0  0  0  0  0
   58.0010   24.6160   46.4530 N   0  0  0  0  0  0  0  0  0  0  0  0
   57.2980   25.6350   45.9230 C   0  0  0  0  0  0  0  0  0  0  0  0
   57.8390   26.6130   44.9590 C   0  0  0  0  0  0  0  0  0  0  0  0
   58.0303   26.2550   43.9366 H   0  0  0  0  0  0  0  0  0  0  0  0
   58.1220   27.9160   45.2210 C   0  0  0  0  0  0  0  0  0  0  0  0
   57.7160   28.8610   44.2530 C   0  0  0  0  0  0  0  0  0  0  0  0
   57.0711   28.5392   43.4220 H   0  0  0  0  0  0  0  0  0  0  0  0
   58.1180   30.1970   44.3310 C   0  0  0  0  0  0  0  0  0  0  0  0
   57.7320   31.1300   43.3040 C   0  0  0  0  0  0  0  0  0  0  0  0
   57.4220   31.8790   42.4790 N   0  0  0  0  0  0  0  0  0  0  0  0
   58.9190   30.6210   45.3900 C   0  0  0  0  0  0  0  0  0  0  0  0
   59.2808   31.6593   45.4234 H   0  0  0  0  0  0  0  0  0  0  0  0
   59.2620   29.7320   46.4060 C   0  0  0  0  0  0  0  0  0  0  0  0
   59.8883   30.0795   47.2409 H   0  0  0  0  0  0  0  0  0  0  0  0
   58.8190   28.3940   46.3810 C   0  0  0  0  0  0  0  0  0  0  0  0
   58.9610   27.6770   47.5100 C   0  0  0  0  0  0  0  0  0  0  0  0
   58.6305   26.6283   47.5408 H   0  0  0  0  0  0  0  0  0  0  0  0
   59.4076   28.1393   48.4026 H   0  0  0  0  0  0  0  0  0  0  0  0
  1  2  1  0
  2  3  1  0
  3  4  1  0
  4  5  1  0
  5  6  2  0
  5  7  1  0
  7  8  1  0
  8  9  1  0
  9 10  1  0
  9 11  2  0
 11 12  1  0
 12 13  1  0
 12 14  2  0
 14 15  1  0
 15 16  3  0
 14 17  1  0
 17 18  1  0
 17 19  2  0
 19 20  1  0
 19 21  1  0
 21 22  2  0
 22 23  1  0
 22 24  1  0
  8  3  2  0
 21 11  1  0
M  CHG  2   4  -1   7  -1
M  END
>  <UniqueID>  (41) 
39

>  <SMILES>  (41) 
C=c1ccc(C#N)c/c1=C/c1[n-]c(=O)[n-]c1O

>  <Energy>  (41) 
72.78632078519144

>  <Genealogy>  (41) 
C=c1ccc(C#N)cc1=Cc1[n-]c(=O)[n-]c1O (protonated)
C=c1ccc(C#N)c/c1=C/c1[n-]c(=O)[n-]c1O (cis-trans isomerization)
C=c1ccc(C#N)c/c1=C/c1[n-]c(=O)[n-]c1O (3D coordinates assigned)
C=c1ccc(C#N)c/c1=C/c1[n-]c(=O)[n-]c1O (optimized conformer: 72.78632078519144 kcal/mol)

>  <smiles>  (41) 
C=c1ccc(C#N)cc1=Cc1[nH]c(=O)[nH]c1O

>  <score_type>  (41) 
oracle

>  <origin>  (41) 
adg

>  <m_score__min__energy>  (41) 
-10.82

>  <m_primary>  (41) 
energy

$$$$
41:0
     RDKit          3D

 67 71  0  0  0  0  0  0  0  0999 V2000
   63.6270   34.2110   47.9300 O   0  0  0  0  0  0  0  0  0  0  0  0
   62.5790   33.7240   48.4300 C   0  0  0  0  0  0  0  0  0  0  0  0
   61.2890   34.1270   47.9550 N   0  0  0  0  0  0  0  0  0  0  0  0
   60.3850   33.3750   47.1350 C   0  0  0  0  0  0  0  0  0  0  0  0
   59.1600   33.9600   46.7950 C   0  0  0  0  0  0  0  0  0  0  0  0
   58.1990   33.2330   46.0880 C   0  0  0  0  0  0  0  0  0  0  0  0
   58.4600   31.9140   45.6830 C   0  0  0  0  0  0  0  0  0  0  0  0
   57.4210   31.1370   44.9610 C   0  0  0  0  0  0  0  0  0  0  0  0
   56.2650   31.6190   44.8340 O   0  0  0  0  0  0  0  0  0  0  0  0
   57.6710   29.8160   44.4650 N   0  0  0  0  0  0  0  0  0  0  0  0
   57.7430   28.6220   45.2580 C   0  0  0  0  0  0  0  0  0  0  0  0
   58.0550   28.7230   46.6180 C   0  0  0  0  0  0  0  0  0  0  0  0
   58.1200   27.5790   47.4150 C   0  0  0  0  0  0  0  0  0  0  0  0
   57.8750   26.3180   46.8560 C   0  0  0  0  0  0  0  0  0  0  0  0
   57.5550   26.1970   45.4920 C   0  0  0  0  0  0  0  0  0  0  0  0
   57.2560   24.8450   44.9000 C   0  0  0  0  0  0  0  0  0  0  0  0
   55.8230   24.4560   45.1250 C   0  0  0  0  0  0  0  0  0  0  0  0
   54.8990   25.3090   45.6240 N   0  0  0  0  0  0  0  0  0  0  0  0
   53.7590   24.5980   45.5930 C   0  0  0  0  0  0  0  0  0  0  0  0
   54.0150   23.3510   45.0760 C   0  0  0  0  0  0  0  0  0  0  0  0
   55.3220   23.2530   44.7730 N   0  0  0  0  0  0  0  0  0  0  0  0
   57.4550   27.3610   44.7090 C   0  0  0  0  0  0  0  0  0  0  0  0
   59.6970   31.3300   46.0080 C   0  0  0  0  0  0  0  0  0  0  0  0
   60.6520   32.0530   46.7310 C   0  0  0  0  0  0  0  0  0  0  0  0
   62.6580   32.8150   49.5370 N   0  0  0  0  0  0  0  0  0  0  0  0
   63.8910   32.0940   49.8800 C   0  0  0  0  0  0  0  0  0  0  0  0
   63.5810   30.8960   50.8040 C   0  0  0  0  0  0  0  0  0  0  0  0
   64.8190   30.4150   51.5800 C   0  0  0  0  0  0  0  0  0  0  0  0
   66.0600   30.8210   50.8870 N   0  0  0  0  0  0  0  0  0  0  0  0
   67.2440   30.1720   51.4850 C   0  0  0  0  0  0  0  0  0  0  0  0
   67.2690   28.7010   51.1490 C   0  0  0  0  0  0  0  0  0  0  0  0
   66.5640   27.7860   51.9510 C   0  0  0  0  0  0  0  0  0  0  0  0
   66.6160   26.4170   51.6740 C   0  0  0  0  0  0  0  0  0  0  0  0
   67.3700   25.9520   50.5940 C   0  0  0  0  0  0  0  0  0  0  0  0
   68.0750   26.8560   49.7910 C   0  0  0  0  0  0  0  0  0  0  0  0
   68.0260   28.2260   50.0660 C   0  0  0  0  0  0  0  0  0  0  0  0
   66.2100   32.2950   50.9160 C   0  0  0  0  0  0  0  0  0  0  0  0
   64.8970   33.0340   50.5560 C   0  0  0  0  0  0  0  0  0  0  0  0
   58.9522   35.0001   47.0866 H   0  0  0  0  0  0  0  0  0  0  0  0
   57.2312   33.6970   45.8469 H   0  0  0  0  0  0  0  0  0  0  0  0
   58.2503   29.7103   47.0621 H   0  0  0  0  0  0  0  0  0  0  0  0
   58.3640   27.6677   48.4839 H   0  0  0  0  0  0  0  0  0  0  0  0
   57.9332   25.4187   47.4867 H   0  0  0  0  0  0  0  0  0  0  0  0
   57.4534   24.8758   43.8183 H   0  0  0  0  0  0  0  0  0  0  0  0
   57.8993   24.1005   45.3918 H   0  0  0  0  0  0  0  0  0  0  0  0
   52.7753   24.9579   45.9288 H   0  0  0  0  0  0  0  0  0  0  0  0
   53.2677   22.5567   44.9323 H   0  0  0  0  0  0  0  0  0  0  0  0
   57.1481   27.2834   43.6555 H   0  0  0  0  0  0  0  0  0  0  0  0
   59.9151   30.2991   45.6921 H   0  0  0  0  0  0  0  0  0  0  0  0
   61.6154   31.5867   46.9848 H   0  0  0  0  0  0  0  0  0  0  0  0
   61.7570   32.5390   49.9900 H   0  0  0  0  0  0  0  0  0  0  0  0
   64.3355   31.7146   48.9481 H   0  0  0  0  0  0  0  0  0  0  0  0
   62.8076   31.1979   51.5256 H   0  0  0  0  0  0  0  0  0  0  0  0
   63.2399   30.0643   50.1700 H   0  0  0  0  0  0  0  0  0  0  0  0
   64.8073   30.8558   52.5877 H   0  0  0  0  0  0  0  0  0  0  0  0
   64.7922   29.3172   51.6435 H   0  0  0  0  0  0  0  0  0  0  0  0
   68.1545   30.6482   51.0922 H   0  0  0  0  0  0  0  0  0  0  0  0
   67.1969   30.2856   52.5781 H   0  0  0  0  0  0  0  0  0  0  0  0
   65.9682   28.1497   52.8012 H   0  0  0  0  0  0  0  0  0  0  0  0
   66.0635   25.7062   52.3061 H   0  0  0  0  0  0  0  0  0  0  0  0
   67.4097   24.8749   50.3745 H   0  0  0  0  0  0  0  0  0  0  0  0
   68.6690   26.4878   48.9416 H   0  0  0  0  0  0  0  0  0  0  0  0
   68.5816   28.9332   49.4326 H   0  0  0  0  0  0  0  0  0  0  0  0
   66.5190   32.5980   51.9273 H   0  0  0  0  0  0  0  0  0  0  0  0
   66.9637   32.5683   50.1629 H   0  0  0  0  0  0  0  0  0  0  0  0
   64.4485   33.4353   51.4768 H   0  0  0  0  0  0  0  0  0  0  0  0
   65.1385   33.8448   49.8530 H   0  0  0  0  0  0  0  0  0  0  0  0
  1  2  2  0
  2  3  1  0
  3  4  1  0
  4  5  2  0
  5  6  1  0
  6  7  2  0
  7  8  1  0
  8  9  2  0
  8 10  1  0
 10 11  1  0
 11 12  2  0
 12 13  1  0
 13 14  2  0
 14 15  1  0
 15 16  1  0
 16 17  1  0
 17 18  2  0
 18 19  1  0
 19 20  2  0
 20 21  1  0
 15 22  2  0
  7 23  1  0
 23 24  2  0
  2 25  1  0
 25 26  1  0
 26 27  1  0
 27 28  1  0
 28 29  1  0
 29 30  1  0
 30 31  1  0
 31 32  2  0
 32 33  1  0
 33 34  2  0
 34 35  1  0
 35 36  2  0
 29 37  1  0
 37 38  1  0
 24  4  1  0
 38 26  1  0
 22 11  1  0
 36 31  1  0
 21 17  1  0
  5 39  1  0
  6 40  1  0
 12 41  1  0
 13 42  1  0
 14 43  1  0
 16 44  1  0
 16 45  1  0
 19 46  1  0
 20 47  1  0
 22 48  1  0
 23 49  1  0
 24 50  1  0
 25 51  1  0
 26 52  1  0
 27 53  1  0
 27 54  1  0
 28 55  1  0
 28 56  1  0
 30 57  1  0
 30 58  1  0
 32 59  1  0
 33 60  1  0
 34 61  1  0
 35 62  1  0
 36 63  1  0
 37 64  1  0
 37 65  1  0
 38 66  1  0
 38 67  1  0
M  CHG  3   3  -1  10  -1  21  -1
M  END
>  <UniqueID>  (42) 
40

>  <SMILES>  (42) 
O=C([N-]c1ccc(C(=O)[N-]c2cccc(Cc3ncc[n-]3)c2)cc1)NC1CCN(Cc2ccccc2)CC1

>  <Energy>  (42) 
110.6142865559755

>  <Genealogy>  (42) 
O=C([N-]c1ccc(C(=O)[N-]c2cccc(Cc3ncc[n-]3)c2)cc1)NC1CCN(Cc2ccccc2)CC1 (protonated)
O=C([N-]c1ccc(C(=O)[N-]c2cccc(Cc3ncc[n-]3)c2)cc1)NC1CCN(Cc2ccccc2)CC1 (3D coordinates assigned)
O=C([N-]c1ccc(C(=O)[N-]c2cccc(Cc3ncc[n-]3)c2)cc1)NC1CCN(Cc2ccccc2)CC1 (nonaromatic ring conformer: 110.6142865559755 kcal/mol)

>  <smiles>  (42) 
O=C(Nc1ccc(C(=O)Nc2cccc(Cc3ncc[nH]3)c2)cc1)NC1CCN(Cc2ccccc2)CC1

>  <score_type>  (42) 
oracle

>  <origin>  (42) 
adg

>  <m_score__min__energy>  (42) 
-13.699999999999999

>  <m_primary>  (42) 
energy

$$$$
42:0
     RDKit          3D

 60 63  0  0  0  0  0  0  0  0999 V2000
   54.6320   29.9580   45.6590 H   0  0  0  0  0  0  0  0  0  0  0  0
   55.1510   29.4290   44.9230 N   0  0  0  0  0  0  0  0  0  0  0  0
   56.1860   28.7030   45.2100 C   0  0  0  0  0  0  0  0  0  0  0  0
   56.0130   27.4030   45.5790 N   0  0  0  0  0  0  0  0  0  0  0  0
   57.0580   26.6050   45.9170 C   0  0  0  0  0  0  0  0  0  0  0  0
   56.8795   25.5582   46.2038 H   0  0  0  0  0  0  0  0  0  0  0  0
   58.3580   27.1110   45.9010 C   0  0  0  0  0  0  0  0  0  0  0  0
   59.2070   26.4695   46.1799 H   0  0  0  0  0  0  0  0  0  0  0  0
   58.5710   28.4380   45.5280 C   0  0  0  0  0  0  0  0  0  0  0  0
   59.5919   28.8475   45.5173 H   0  0  0  0  0  0  0  0  0  0  0  0
   57.4860   29.2530   45.1660 C   0  0  0  0  0  0  0  0  0  0  0  0
   57.7320   30.6590   44.7650 C   0  0  0  0  0  0  0  0  0  0  0  0
   57.7950   30.9870   43.4000 C   0  0  0  0  0  0  0  0  0  0  0  0
   57.6608   30.2009   42.6424 H   0  0  0  0  0  0  0  0  0  0  0  0
   58.0270   32.3050   42.9990 C   0  0  0  0  0  0  0  0  0  0  0  0
   58.1150   32.7020   41.2930 Cl  0  0  0  0  0  0  0  0  0  0  0  0
   58.1990   33.3060   43.9580 C   0  0  0  0  0  0  0  0  0  0  0  0
   58.3947   34.3413   43.6419 H   0  0  0  0  0  0  0  0  0  0  0  0
   58.1230   32.9950   45.3170 C   0  0  0  0  0  0  0  0  0  0  0  0
   58.2658   33.7865   46.0674 H   0  0  0  0  0  0  0  0  0  0  0  0
   57.8650   31.6760   45.7330 C   0  0  0  0  0  0  0  0  0  0  0  0
   57.7670   31.3480   47.0950 O   0  0  0  0  0  0  0  0  0  0  0  0
   58.8010   31.4600   48.0360 C   0  0  0  0  0  0  0  0  0  0  0  0
   59.8980   30.6060   47.9290 C   0  0  0  0  0  0  0  0  0  0  0  0
   59.9371   29.8664   47.1157 H   0  0  0  0  0  0  0  0  0  0  0  0
   60.9460   30.6830   48.8460 C   0  0  0  0  0  0  0  0  0  0  0  0
   61.8114   30.0125   48.7388 H   0  0  0  0  0  0  0  0  0  0  0  0
   60.9110   31.6050   49.9040 C   0  0  0  0  0  0  0  0  0  0  0  0
   62.2790   31.6430   51.0370 S   0  0  0  0  0  0  0  0  0  0  0  0
   61.7570   31.4900   52.4390 O   0  0  0  0  0  0  0  0  0  0  0  0
   63.1760   30.4680   50.7620 O   0  0  0  0  0  0  0  0  0  0  0  0
   63.2190   33.1230   50.9020 N   0  0  0  0  0  0  0  0  0  0  0  0
   63.5360   33.3550   51.8710 H   0  0  0  0  0  0  0  0  0  0  0  0
   64.4340   32.9490   50.0800 C   0  0  0  0  0  0  0  0  0  0  0  0
   65.0607   33.8470   50.1844 H   0  0  0  0  0  0  0  0  0  0  0  0
   64.9509   32.0470   50.4394 H   0  0  0  0  0  0  0  0  0  0  0  0
   64.1180   32.7390   48.5830 C   0  0  0  0  0  0  0  0  0  0  0  0
   64.8640   33.2832   47.9852 H   0  0  0  0  0  0  0  0  0  0  0  0
   64.1502   31.6578   48.3829 H   0  0  0  0  0  0  0  0  0  0  0  0
   62.7680   33.2250   48.2150 N   0  0  0  0  0  0  0  0  0  0  0  0
   62.6280   33.3880   46.7530 C   0  0  0  0  0  0  0  0  0  0  0  0
   63.3785   34.1101   46.3989 H   0  0  0  0  0  0  0  0  0  0  0  0
   62.7784   32.4078   46.2771 H   0  0  0  0  0  0  0  0  0  0  0  0
   61.2350   33.8960   46.3850 C   0  0  0  0  0  0  0  0  0  0  0  0
   60.6660   34.1035   47.3032 H   0  0  0  0  0  0  0  0  0  0  0  0
   61.3257   34.8189   45.7934 H   0  0  0  0  0  0  0  0  0  0  0  0
   60.7103   33.1313   45.7934 H   0  0  0  0  0  0  0  0  0  0  0  0
   62.4700   34.4890   48.9090 C   0  0  0  0  0  0  0  0  0  0  0  0
   63.2664   35.2168   48.6947 H   0  0  0  0  0  0  0  0  0  0  0  0
   61.5024   34.8724   48.5531 H   0  0  0  0  0  0  0  0  0  0  0  0
   62.3880   34.2590   50.4310 C   0  0  0  0  0  0  0  0  0  0  0  0
   62.7267   35.1733   50.9404 H   0  0  0  0  0  0  0  0  0  0  0  0
   61.3416   34.0147   50.6662 H   0  0  0  0  0  0  0  0  0  0  0  0
   59.7840   32.4560   50.0400 C   0  0  0  0  0  0  0  0  0  0  0  0
   59.6760   33.4670   51.1510 C   0  0  0  0  0  0  0  0  0  0  0  0
   59.7310   32.9524   52.1217 H   0  0  0  0  0  0  0  0  0  0  0  0
   60.5021   34.1889   51.0714 H   0  0  0  0  0  0  0  0  0  0  0  0
   58.7160   33.9981   51.0714 H   0  0  0  0  0  0  0  0  0  0  0  0
   58.7410   32.3720   49.1010 C   0  0  0  0  0  0  0  0  0  0  0  0
   57.8656   33.0304   49.2025 H   0  0  0  0  0  0  0  0  0  0  0  0
  1  2  1  0
  2  3  2  0
  3  4  1  0
  4  5  1  0
  5  6  1  0
  5  7  2  0
  7  8  1  0
  7  9  1  0
  9 10  1  0
  9 11  2  0
 11 12  1  0
 12 13  2  0
 13 14  1  0
 13 15  1  0
 15 16  1  0
 15 17  2  0
 17 18  1  0
 17 19  1  0
 19 20  1  0
 19 21  2  0
 21 22  1  0
 22 23  1  0
 23 24  2  0
 24 25  1  0
 24 26  1  0
 26 27  1  0
 26 28  2  0
 28 29  1  0
 29 30  2  0
 29 31  2  0
 29 32  1  0
 32 33  1  0
 32 34  1  0
 34 35  1  0
 34 36  1  0
 34 37  1  0
 37 38  1  0
 37 39  1  0
 37 40  1  0
 40 41  1  0
 41 42  1  0
 41 43  1  0
 41 44  1  0
 44 45  1  0
 44 46  1  0
 44 47  1  0
 40 48  1  0
 48 49  1  0
 48 50  1  0
 48 51  1  0
 51 52  1  0
 51 53  1  0
 28 54  1  0
 54 55  1  0
 55 56  1  0
 55 57  1  0
 55 58  1  0
 54 59  2  0
 59 60  1  0
 11  3  1  0
 21 12  1  0
 59 23  1  0
 51 32  1  0
M  CHG  2   4  -1  32   1
M  END
>  <UniqueID>  (43) 
41

>  <SMILES>  (43) 
[H]/N=c1\[n-]cccc1-c1cc(Cl)ccc1Oc1ccc(S(=O)(=O)[NH+]2CCN(CC)CC2)c(C)c1

>  <Energy>  (43) 
87.58558838739204

>  <Genealogy>  (43) 
CCN1CC[NH+](S(=O)(=O)c2ccc(Oc3ccc(Cl)cc3-c3ccc[n-]c3=N)cc2C)CC1 (protonated)
[H]/N=c1\[n-]cccc1-c1cc(Cl)ccc1Oc1ccc(S(=O)(=O)[NH+]2CCN(CC)CC2)c(C)c1 (cis-trans isomerization)
[H]/N=c1\[n-]cccc1-c1cc(Cl)ccc1Oc1ccc(S(=O)(=O)[NH+]2CCN(CC)CC2)c(C)c1 (3D coordinates assigned)
[H]/N=c1\[n-]cccc1-c1cc(Cl)ccc1Oc1ccc(S(=O)(=O)[NH+]2CCN(CC)CC2)c(C)c1 (nonaromatic ring conformer: 87.58558838739204 kcal/mol)

>  <smiles>  (43) 
CCN1CCN(S(=O)(=O)c2ccc(Oc3ccc(Cl)cc3-c3ccc[nH]c3=N)cc2C)CC1

>  <score_type>  (43) 
oracle

>  <origin>  (43) 
adg

>  <m_score__min__energy>  (43) 
-10.970000000000001

>  <m_primary>  (43) 
energy

$$$$
43:0
     RDKit          3D

 45 47  0  0  0  0  0  0  0  0999 V2000
   58.5690   33.5090   52.4720 C   0  0  0  0  0  0  0  0  0  0  0  0
   58.9430   32.3610   51.7180 O   0  0  0  0  0  0  0  0  0  0  0  0
   58.8460   32.3050   50.3260 C   0  0  0  0  0  0  0  0  0  0  0  0
   57.7130   32.3330   49.7730 O   0  0  0  0  0  0  0  0  0  0  0  0
   60.0560   32.2150   49.4840 C   0  0  0  0  0  0  0  0  0  0  0  0
   61.1870   33.4590   49.3610 S   0  0  0  0  0  0  0  0  0  0  0  0
   62.2080   32.6860   48.2810 C   0  0  0  0  0  0  0  0  0  0  0  0
   63.8140   33.4230   47.5670 Br  0  0  0  0  0  0  0  0  0  0  0  0
   61.6860   31.4360   47.9880 C   0  0  0  0  0  0  0  0  0  0  0  0
   60.4830   31.1600   48.6590 C   0  0  0  0  0  0  0  0  0  0  0  0
   59.6260   29.6380   48.4050 S   0  0  0  0  0  0  0  0  0  0  0  0
   60.5960   28.4920   48.4950 O   0  0  0  0  0  0  0  0  0  0  0  0
   58.5890   29.4530   49.4770 O   0  0  0  0  0  0  0  0  0  0  0  0
   58.8640   29.6420   46.8420 N   0  0  0  0  0  0  0  0  0  0  0  0
   59.6340   30.4700   45.9110 C   0  0  0  0  0  0  0  0  0  0  0  0
   58.9340   31.7920   45.6950 C   0  0  0  0  0  0  0  0  0  0  0  0
   59.5080   32.9680   46.2130 C   0  0  0  0  0  0  0  0  0  0  0  0
   58.8540   34.1950   46.0810 C   0  0  0  0  0  0  0  0  0  0  0  0
   57.6180   34.2640   45.4380 C   0  0  0  0  0  0  0  0  0  0  0  0
   57.0310   33.1070   44.9240 C   0  0  0  0  0  0  0  0  0  0  0  0
   57.6800   31.8680   45.0400 C   0  0  0  0  0  0  0  0  0  0  0  0
   57.0150   30.6660   44.4970 C   0  0  0  0  0  0  0  0  0  0  0  0
   56.8130   30.5910   43.2560 O   0  0  0  0  0  0  0  0  0  0  0  0
   56.5470   29.5990   45.3390 N   0  0  0  0  0  0  0  0  0  0  0  0
   56.7740   28.3240   45.1950 C   0  0  0  0  0  0  0  0  0  0  0  0
   57.9030   27.9060   44.4790 C   0  0  0  0  0  0  0  0  0  0  0  0
   58.1690   26.5400   44.3480 C   0  0  0  0  0  0  0  0  0  0  0  0
   57.3100   25.6060   44.9310 C   0  0  0  0  0  0  0  0  0  0  0  0
   57.6360   23.8880   44.7870 Cl  0  0  0  0  0  0  0  0  0  0  0  0
   56.1940   26.0550   45.6400 C   0  0  0  0  0  0  0  0  0  0  0  0
   55.9570   27.3880   45.7580 N   0  0  0  0  0  0  0  0  0  0  0  0
   58.6428   33.2824   53.5459 H   0  0  0  0  0  0  0  0  0  0  0  0
   59.2416   34.3441   52.2264 H   0  0  0  0  0  0  0  0  0  0  0  0
   57.5336   33.7877   52.2264 H   0  0  0  0  0  0  0  0  0  0  0  0
   62.1672   30.7284   47.2968 H   0  0  0  0  0  0  0  0  0  0  0  0
   57.9230   30.0830   46.9600 H   0  0  0  0  0  0  0  0  0  0  0  0
   60.6355   30.6519   46.3280 H   0  0  0  0  0  0  0  0  0  0  0  0
   59.7206   29.9456   44.9480 H   0  0  0  0  0  0  0  0  0  0  0  0
   60.4798   32.9204   46.7261 H   0  0  0  0  0  0  0  0  0  0  0  0
   59.3145   35.1087   46.4849 H   0  0  0  0  0  0  0  0  0  0  0  0
   57.1053   35.2318   45.3360 H   0  0  0  0  0  0  0  0  0  0  0  0
   56.0528   33.1665   44.4244 H   0  0  0  0  0  0  0  0  0  0  0  0
   58.5755   28.6475   44.0230 H   0  0  0  0  0  0  0  0  0  0  0  0
   59.0527   26.2016   43.7871 H   0  0  0  0  0  0  0  0  0  0  0  0
   55.5074   25.3306   46.1025 H   0  0  0  0  0  0  0  0  0  0  0  0
  1  2  1  0
  2  3  1  0
  3  4  2  0
  3  5  1  0
  5  6  1  0
  6  7  1  0
  7  8  1  0
  7  9  2  0
  9 10  1  0
 10 11  1  0
 11 12  2  0
 11 13  2  0
 11 14  1  0
 14 15  1  0
 15 16  1  0
 16 17  2  0
 17 18  1  0
 18 19  2  0
 19 20  1  0
 20 21  2  0
 21 22  1  0
 22 23  2  0
 22 24  1  0
 24 25  2  3
 25 26  1  0
 26 27  2  0
 27 28  1  0
 28 29  1  0
 28 30  2  0
 30 31  1  0
 10  5  2  0
 21 16  1  0
 31 25  1  0
  1 32  1  0
  1 33  1  0
  1 34  1  0
  9 35  1  0
 14 36  1  0
 15 37  1  0
 15 38  1  0
 17 39  1  0
 18 40  1  0
 19 41  1  0
 20 42  1  0
 26 43  1  0
 27 44  1  0
 30 45  1  0
M  CHG  1  31  -1
M  END
>  <UniqueID>  (44) 
42

>  <SMILES>  (44) 
COC(=O)c1sc(Br)cc1S(=O)(=O)NCc1ccccc1C(=O)N=c1ccc(Cl)c[n-]1

>  <Energy>  (44) 
79.17129062228668

>  <Genealogy>  (44) 
COC(=O)c1sc(Br)cc1S(=O)(=O)NCc1ccccc1C(=O)N=c1ccc(Cl)c[n-]1 (protonated)
COC(=O)c1sc(Br)cc1S(=O)(=O)NCc1ccccc1C(=O)N=c1ccc(Cl)c[n-]1 (3D coordinates assigned)
COC(=O)c1sc(Br)cc1S(=O)(=O)NCc1ccccc1C(=O)N=c1ccc(Cl)c[n-]1 (optimized conformer: 79.17129062228668 kcal/mol)

>  <smiles>  (44) 
COC(=O)c1sc(Br)cc1S(=O)(=O)NCc1ccccc1C(=O)N=c1ccc(Cl)c[nH]1

>  <score_type>  (44) 
oracle

>  <origin>  (44) 
adg

>  <m_score__min__energy>  (44) 
-10.300000000000001

>  <m_primary>  (44) 
energy

$$$$
44:0
     RDKit          3D

 63 67  0  0  0  0  0  0  0  0999 V2000
   56.6450   24.2370   47.2730 C   0  0  0  0  0  0  0  0  0  0  0  0
   56.7010   23.3440   46.2720 C   0  0  0  0  0  0  0  0  0  0  0  0
   55.6400   22.5460   45.8270 C   0  0  0  0  0  0  0  0  0  0  0  0
   54.3960   22.4770   46.3420 C   0  0  0  0  0  0  0  0  0  0  0  0
   53.1870   22.9550   45.6460 C   0  0  0  0  0  0  0  0  0  0  0  0
   52.1590   22.1530   45.3190 N   0  0  0  0  0  0  0  0  0  0  0  0
   51.2550   23.0040   44.7870 C   0  0  0  0  0  0  0  0  0  0  0  0
   50.1420   22.6180   44.3430 O   0  0  0  0  0  0  0  0  0  0  0  0
   51.6330   24.2990   44.7770 N   0  0  0  0  0  0  0  0  0  0  0  0
   52.8530   24.2550   45.3350 C   0  0  0  0  0  0  0  0  0  0  0  0
   53.6200   25.3850   45.5970 O   0  0  0  0  0  0  0  0  0  0  0  0
   56.1340   21.7860   44.7780 C   0  0  0  0  0  0  0  0  0  0  0  0
   57.4560   22.1460   44.6180 C   0  0  0  0  0  0  0  0  0  0  0  0
   58.3740   21.5500   43.5940 C   0  0  0  0  0  0  0  0  0  0  0  0
   57.8100   23.0860   45.5260 N   0  0  0  0  0  0  0  0  0  0  0  0
   59.1430   23.7060   45.6280 C   0  0  0  0  0  0  0  0  0  0  0  0
   59.0370   25.2090   45.6070 C   0  0  0  0  0  0  0  0  0  0  0  0
   58.1900   25.8500   44.6900 C   0  0  0  0  0  0  0  0  0  0  0  0
   58.0900   27.2430   44.6710 C   0  0  0  0  0  0  0  0  0  0  0  0
   58.8360   28.0260   45.5700 C   0  0  0  0  0  0  0  0  0  0  0  0
   58.7270   29.4660   45.5540 N   0  0  0  0  0  0  0  0  0  0  0  0
   57.8820   30.1140   44.5370 C   0  0  0  0  0  0  0  0  0  0  0  0
   57.5650   31.5650   44.9110 C   0  0  0  0  0  0  0  0  0  0  0  0
   58.8630   32.3560   45.1740 C   0  0  0  0  0  0  0  0  0  0  0  0
   58.5480   33.7310   45.6400 N   0  0  0  0  0  0  0  0  0  0  0  0
   59.2810   34.7820   44.9140 C   0  0  0  0  0  0  0  0  0  0  0  0
   60.0150   35.6310   45.9400 C   0  0  0  0  0  0  0  0  0  0  0  0
   59.3060   35.3590   47.2450 C   0  0  0  0  0  0  0  0  0  0  0  0
   58.7330   33.9630   47.0820 C   0  0  0  0  0  0  0  0  0  0  0  0
   59.8700   31.5920   46.0920 C   0  0  0  0  0  0  0  0  0  0  0  0
   59.3180   30.2680   46.6370 C   0  0  0  0  0  0  0  0  0  0  0  0
   59.6770   27.3810   46.4940 C   0  0  0  0  0  0  0  0  0  0  0  0
   59.7760   25.9880   46.5130 C   0  0  0  0  0  0  0  0  0  0  0  0
   57.5403   24.8156   47.5446 H   0  0  0  0  0  0  0  0  0  0  0  0
   55.7039   24.3901   47.8215 H   0  0  0  0  0  0  0  0  0  0  0  0
   54.2754   22.0371   47.3430 H   0  0  0  0  0  0  0  0  0  0  0  0
   55.5798   21.0411   44.1882 H   0  0  0  0  0  0  0  0  0  0  0  0
   59.1928   21.0184   44.1008 H   0  0  0  0  0  0  0  0  0  0  0  0
   57.8124   20.8438   42.9648 H   0  0  0  0  0  0  0  0  0  0  0  0
   58.7905   22.3504   42.9648 H   0  0  0  0  0  0  0  0  0  0  0  0
   59.6162   23.3909   46.5697 H   0  0  0  0  0  0  0  0  0  0  0  0
   59.7488   23.3832   44.7684 H   0  0  0  0  0  0  0  0  0  0  0  0
   57.6003   25.2508   43.9807 H   0  0  0  0  0  0  0  0  0  0  0  0
   57.4220   27.7319   43.9466 H   0  0  0  0  0  0  0  0  0  0  0  0
   58.4104   30.1010   43.5723 H   0  0  0  0  0  0  0  0  0  0  0  0
   56.9341   29.5597   44.4722 H   0  0  0  0  0  0  0  0  0  0  0  0
   57.0144   32.0388   44.0850 H   0  0  0  0  0  0  0  0  0  0  0  0
   56.9563   31.5693   45.8272 H   0  0  0  0  0  0  0  0  0  0  0  0
   59.3979   32.4558   44.2180 H   0  0  0  0  0  0  0  0  0  0  0  0
   60.0030   34.3244   44.2217 H   0  0  0  0  0  0  0  0  0  0  0  0
   58.5850   35.4020   44.3298 H   0  0  0  0  0  0  0  0  0  0  0  0
   61.0721   35.3335   46.0041 H   0  0  0  0  0  0  0  0  0  0  0  0
   60.0058   36.6992   45.6776 H   0  0  0  0  0  0  0  0  0  0  0  0
   60.0136   35.3931   48.0865 H   0  0  0  0  0  0  0  0  0  0  0  0
   58.5297   36.1071   47.4632 H   0  0  0  0  0  0  0  0  0  0  0  0
   59.4296   33.2194   47.4965 H   0  0  0  0  0  0  0  0  0  0  0  0
   57.7765   33.8698   47.6172 H   0  0  0  0  0  0  0  0  0  0  0  0
   60.7781   31.3772   45.5096 H   0  0  0  0  0  0  0  0  0  0  0  0
   60.0732   32.2389   46.9582 H   0  0  0  0  0  0  0  0  0  0  0  0
   60.1369   29.6994   47.1019 H   0  0  0  0  0  0  0  0  0  0  0  0
   58.5374   30.4892   47.3798 H   0  0  0  0  0  0  0  0  0  0  0  0
   60.2622   27.9789   47.2082 H   0  0  0  0  0  0  0  0  0  0  0  0
   60.4372   25.4974   47.2424 H   0  0  0  0  0  0  0  0  0  0  0  0
  1  2  2  0
  2  3  1  0
  3  4  2  3
  4  5  1  0
  5  6  1  0
  6  7  1  0
  7  8  2  0
  7  9  1  0
  9 10  1  0
 10 11  1  0
  3 12  1  0
 12 13  2  0
 13 14  1  0
 13 15  1  0
 15 16  1  0
 16 17  1  0
 17 18  2  0
 18 19  1  0
 19 20  2  0
 20 21  1  0
 21 22  1  0
 22 23  1  0
 23 24  1  0
 24 25  1  0
 25 26  1  0
 26 27  1  0
 27 28  1  0
 28 29  1  0
 24 30  1  0
 30 31  1  0
 20 32  1  0
 32 33  2  0
 15  2  1  0
 33 17  1  0
 10  5  2  0
 31 21  1  0
 29 25  1  0
  1 34  1  0
  1 35  1  0
  4 36  1  0
 12 37  1  0
 14 38  1  0
 14 39  1  0
 14 40  1  0
 16 41  1  0
 16 42  1  0
 18 43  1  0
 19 44  1  0
 22 45  1  0
 22 46  1  0
 23 47  1  0
 23 48  1  0
 24 49  1  0
 26 50  1  0
 26 51  1  0
 27 52  1  0
 27 53  1  0
 28 54  1  0
 28 55  1  0
 29 56  1  0
 29 57  1  0
 30 58  1  0
 30 59  1  0
 31 60  1  0
 31 61  1  0
 32 62  1  0
 33 63  1  0
M  CHG  3   6  -1   9  -1  11  -1
M  END
>  <UniqueID>  (45) 
43

>  <SMILES>  (45) 
C=c1c(=Cc2[n-]c(=O)[n-]c2[O-])cc(C)n1Cc1ccc(N2CCC(N3CCCC3)CC2)cc1

>  <Energy>  (45) 
143.0448930751853

>  <Genealogy>  (45) 
C=c1c(=Cc2[n-]c(=O)[n-]c2[O-])cc(C)n1Cc1ccc(N2CCC(N3CCCC3)CC2)cc1 (protonated)
C=c1c(=Cc2[n-]c(=O)[n-]c2[O-])cc(C)n1Cc1ccc(N2CCC(N3CCCC3)CC2)cc1 (3D coordinates assigned)
C=c1c(=Cc2[n-]c(=O)[n-]c2[O-])cc(C)n1Cc1ccc(N2CCC(N3CCCC3)CC2)cc1 (nonaromatic ring conformer: 143.0448930751853 kcal/mol)

>  <smiles>  (45) 
C=c1c(=Cc2[nH]c(=O)[nH]c2O)cc(C)n1Cc1ccc(N2CCC(N3CCCC3)CC2)cc1

>  <score_type>  (45) 
oracle

>  <origin>  (45) 
adg

>  <m_score__min__energy>  (45) 
-16.530000000000001

>  <m_primary>  (45) 
energy

$$$$
45:0
     RDKit          3D

 39 41  0  0  0  0  0  0  0  0999 V2000
   59.6240   34.8900   49.7170 O   0  0  0  0  0  0  0  0  0  0  0  0
   60.1700   33.7650   49.5630 C   0  0  0  0  0  0  0  0  0  0  0  0
   60.3590   32.8680   50.7550 C   0  0  0  0  0  0  0  0  0  0  0  0
   59.0630   32.5180   51.3410 N   0  0  0  0  0  0  0  0  0  0  0  0
   58.2100   33.3070   52.0200 C   0  0  0  0  0  0  0  0  0  0  0  0
   58.4250   34.6450   52.3400 O   0  0  0  0  0  0  0  0  0  0  0  0
   57.0800   32.5880   52.3350 C   0  0  0  0  0  0  0  0  0  0  0  0
   57.2030   31.3360   51.8430 N   0  0  0  0  0  0  0  0  0  0  0  0
   58.4130   31.3400   51.2450 C   0  0  0  0  0  0  0  0  0  0  0  0
   58.8810   30.3330   50.6480 O   0  0  0  0  0  0  0  0  0  0  0  0
   60.5570   33.3620   48.2420 N   0  0  0  0  0  0  0  0  0  0  0  0
   59.8050   32.5250   47.3530 C   0  0  0  0  0  0  0  0  0  0  0  0
   60.4140   31.3810   46.8230 C   0  0  0  0  0  0  0  0  0  0  0  0
   59.7010   30.5270   45.9750 C   0  0  0  0  0  0  0  0  0  0  0  0
   58.3540   30.7920   45.6730 C   0  0  0  0  0  0  0  0  0  0  0  0
   57.5920   29.9550   44.7890 N   0  0  0  0  0  0  0  0  0  0  0  0
   56.6840   28.9120   45.1670 C   0  0  0  0  0  0  0  0  0  0  0  0
   55.4450   29.0680   44.9900 O   0  0  0  0  0  0  0  0  0  0  0  0
   57.1930   27.6220   45.7070 C   0  0  0  0  0  0  0  0  0  0  0  0
   58.5830   27.4220   45.8260 C   0  0  0  0  0  0  0  0  0  0  0  0
   59.0930   26.2230   46.3310 C   0  0  0  0  0  0  0  0  0  0  0  0
   58.2260   25.2040   46.7240 C   0  0  0  0  0  0  0  0  0  0  0  0
   56.8460   25.3810   46.6120 C   0  0  0  0  0  0  0  0  0  0  0  0
   56.3230   26.5780   46.1060 C   0  0  0  0  0  0  0  0  0  0  0  0
   54.9420   26.7030   46.0030 O   0  0  0  0  0  0  0  0  0  0  0  0
   57.7450   31.9350   46.2060 C   0  0  0  0  0  0  0  0  0  0  0  0
   58.4580   32.7880   47.0540 C   0  0  0  0  0  0  0  0  0  0  0  0
   60.8740   31.9488   50.4389 H   0  0  0  0  0  0  0  0  0  0  0  0
   60.9601   33.3978   51.5087 H   0  0  0  0  0  0  0  0  0  0  0  0
   58.6680   35.3300   51.6350 H   0  0  0  0  0  0  0  0  0  0  0  0
   56.2155   32.9711   52.8971 H   0  0  0  0  0  0  0  0  0  0  0  0
   61.4600   31.1523   47.0751 H   0  0  0  0  0  0  0  0  0  0  0  0
   60.1962   29.6449   45.5429 H   0  0  0  0  0  0  0  0  0  0  0  0
   59.2750   28.2195   45.5176 H   0  0  0  0  0  0  0  0  0  0  0  0
   60.1805   26.0827   46.4187 H   0  0  0  0  0  0  0  0  0  0  0  0
   58.6294   24.2612   47.1220 H   0  0  0  0  0  0  0  0  0  0  0  0
   56.1647   24.5753   46.9231 H   0  0  0  0  0  0  0  0  0  0  0  0
   56.6984   32.1633   45.9558 H   0  0  0  0  0  0  0  0  0  0  0  0
   57.9621   33.6684   47.4887 H   0  0  0  0  0  0  0  0  0  0  0  0
  1  2  2  0
  2  3  1  0
  3  4  1  0
  4  5  1  0
  5  6  1  0
  5  7  2  0
  7  8  1  0
  8  9  1  0
  9 10  2  0
  2 11  1  0
 11 12  1  0
 12 13  2  0
 13 14  1  0
 14 15  2  0
 15 16  1  0
 16 17  1  0
 17 18  2  0
 17 19  1  0
 19 20  2  0
 20 21  1  0
 21 22  2  0
 22 23  1  0
 23 24  2  0
 24 25  1  0
 15 26  1  0
 26 27  2  0
  9  4  1  0
 27 12  1  0
 24 19  1  0
  3 28  1  0
  3 29  1  0
  6 30  1  0
  7 31  1  0
 13 32  1  0
 14 33  1  0
 20 34  1  0
 21 35  1  0
 22 36  1  0
 23 37  1  0
 26 38  1  0
 27 39  1  0
M  CHG  4   8  -1  11  -1  16  -1  25  -1
M  END
>  <UniqueID>  (46) 
44

>  <SMILES>  (46) 
O=C(Cn1c(O)c[n-]c1=O)[N-]c1ccc([N-]C(=O)c2ccccc2[O-])cc1

>  <Energy>  (46) 
83.73645616321886

>  <Genealogy>  (46) 
O=C(Cn1c(O)c[n-]c1=O)[N-]c1ccc([N-]C(=O)c2ccccc2[O-])cc1 (protonated)
O=C(Cn1c(O)c[n-]c1=O)[N-]c1ccc([N-]C(=O)c2ccccc2[O-])cc1 (3D coordinates assigned)
O=C(Cn1c(O)c[n-]c1=O)[N-]c1ccc([N-]C(=O)c2ccccc2[O-])cc1 (optimized conformer: 83.73645616321886 kcal/mol)

>  <smiles>  (46) 
O=C(Cn1c(O)c[nH]c1=O)Nc1ccc(NC(=O)c2ccccc2O)cc1

>  <score_type>  (46) 
oracle

>  <origin>  (46) 
adg

>  <m_score__min__energy>  (46) 
-14.220000000000001

>  <m_primary>  (46) 
energy

$$$$
46:0
     RDKit          3D

 33 35  0  0  0  0  0  0  0  0999 V2000
   55.1350   28.2070   45.7440 H   0  0  0  0  0  0  0  0  0  0  0  0
   55.4460   28.6010   44.8650 O   0  0  0  0  0  0  0  0  0  0  0  0
   56.3360   29.6710   44.8430 C   0  0  0  0  0  0  0  0  0  0  0  0
   55.9550   30.9590   44.8260 N   0  0  0  0  0  0  0  0  0  0  0  0
   57.1330   31.6160   44.8780 C   0  0  0  0  0  0  0  0  0  0  0  0
   57.2080   32.8730   44.8880 O   0  0  0  0  0  0  0  0  0  0  0  0
   58.2240   30.8230   44.9290 N   0  0  0  0  0  0  0  0  0  0  0  0
   57.7100   29.5820   44.8800 C   0  0  0  0  0  0  0  0  0  0  0  0
   58.5290   28.3630   44.9940 C   0  0  0  0  0  0  0  0  0  0  0  0
   59.5774   28.4125   44.6649 H   0  0  0  0  0  0  0  0  0  0  0  0
   58.0730   27.1930   45.4760 C   0  0  0  0  0  0  0  0  0  0  0  0
   58.3500   26.6750   46.7360 C   0  0  0  0  0  0  0  0  0  0  0  0
   59.2090   27.2730   47.8160 C   0  0  0  0  0  0  0  0  0  0  0  0
   60.2489   27.3267   47.4614 H   0  0  0  0  0  0  0  0  0  0  0  0
   59.1423   26.6380   48.7118 H   0  0  0  0  0  0  0  0  0  0  0  0
   58.7300   28.6750   48.1740 C   0  0  0  0  0  0  0  0  0  0  0  0
   58.6935   28.7818   49.2682 H   0  0  0  0  0  0  0  0  0  0  0  0
   59.4253   29.4179   47.7561 H   0  0  0  0  0  0  0  0  0  0  0  0
   57.7255   28.8371   47.7561 H   0  0  0  0  0  0  0  0  0  0  0  0
   57.7420   25.4350   46.8020 C   0  0  0  0  0  0  0  0  0  0  0  0
   57.7552   24.7388   47.6535 H   0  0  0  0  0  0  0  0  0  0  0  0
   57.1110   25.2430   45.5790 C   0  0  0  0  0  0  0  0  0  0  0  0
   56.4040   24.1740   45.1730 C   0  0  0  0  0  0  0  0  0  0  0  0
   56.9700   23.3389   44.7345 H   0  0  0  0  0  0  0  0  0  0  0  0
   54.9350   24.0160   45.2610 C   0  0  0  0  0  0  0  0  0  0  0  0
   54.2440   22.8860   45.0270 N   0  0  0  0  0  0  0  0  0  0  0  0
   52.9630   23.2460   45.2530 C   0  0  0  0  0  0  0  0  0  0  0  0
   52.0010   22.4420   45.1310 O   0  0  0  0  0  0  0  0  0  0  0  0
   52.7930   24.5340   45.6190 N   0  0  0  0  0  0  0  0  0  0  0  0
   54.0500   25.0050   45.6200 C   0  0  0  0  0  0  0  0  0  0  0  0
   54.3810   26.3150   45.9450 O   0  0  0  0  0  0  0  0  0  0  0  0
   57.3200   26.3130   44.7810 N   0  0  0  0  0  0  0  0  0  0  0  0
   57.0030   26.4010   43.7900 H   0  0  0  0  0  0  0  0  0  0  0  0
  1  2  1  0
  2  3  1  0
  3  4  1  0
  4  5  1  0
  5  6  2  0
  5  7  1  0
  7  8  1  0
  8  9  1  0
  9 10  1  0
  9 11  2  3
 11 12  1  0
 12 13  1  0
 13 14  1  0
 13 15  1  0
 13 16  1  0
 16 17  1  0
 16 18  1  0
 16 19  1  0
 12 20  2  0
 20 21  1  0
 20 22  1  0
 22 23  2  0
 23 24  1  0
 23 25  1  0
 25 26  1  0
 26 27  1  0
 27 28  2  0
 27 29  1  0
 29 30  1  0
 30 31  1  0
 22 32  1  0
 32 33  1  0
  8  3  2  0
 32 11  1  0
 30 25  2  0
M  CHG  5   4  -1   7  -1  26  -1  29  -1  31  -1
M  END
>  <UniqueID>  (47) 
45

>  <SMILES>  (47) 
CCc1c/c(=C\c2[n-]c(=O)[n-]c2[O-])[nH]c1=Cc1[n-]c(=O)[n-]c1O

>  <Energy>  (47) 
124.90094362998039

>  <Genealogy>  (47) 
CCc1cc(=Cc2[n-]c(=O)[n-]c2[O-])[nH]c1=Cc1[n-]c(=O)[n-]c1O (protonated)
CCc1c/c(=C\c2[n-]c(=O)[n-]c2[O-])[nH]c1=Cc1[n-]c(=O)[n-]c1O (cis-trans isomerization)
CCc1c/c(=C\c2[n-]c(=O)[n-]c2[O-])[nH]c1=Cc1[n-]c(=O)[n-]c1O (3D coordinates assigned)
CCc1c/c(=C\c2[n-]c(=O)[n-]c2[O-])[nH]c1=Cc1[n-]c(=O)[n-]c1O (optimized conformer: 124.90094362998039 kcal/mol)

>  <smiles>  (47) 
CCc1cc(=Cc2[nH]c(=O)[nH]c2O)[nH]c1=Cc1[nH]c(=O)[nH]c1O

>  <score_type>  (47) 
oracle

>  <origin>  (47) 
adg

>  <m_score__min__energy>  (47) 
-18

>  <m_primary>  (47) 
energy

$$$$
47:0
     RDKit          3D

 62 66  0  0  0  0  0  0  0  0999 V2000
   64.6780   33.0800   49.1660 C   0  0  0  0  0  0  0  0  0  0  0  0
   63.2690   32.9840   48.5650 C   0  0  0  0  0  0  0  0  0  0  0  0
   63.3190   32.6990   47.0600 C   0  0  0  0  0  0  0  0  0  0  0  0
   62.4700   31.9640   49.2570 N   0  0  0  0  0  0  0  0  0  0  0  0
   61.9410   30.8520   48.6880 C   0  0  0  0  0  0  0  0  0  0  0  0
   61.2540   30.0950   49.6360 C   0  0  0  0  0  0  0  0  0  0  0  0
   60.5510   28.8260   49.3770 C   0  0  0  0  0  0  0  0  0  0  0  0
   60.6240   27.9130   50.2420 O   0  0  0  0  0  0  0  0  0  0  0  0
   59.7980   28.5780   48.1270 C   0  0  0  0  0  0  0  0  0  0  0  0
   59.2630   27.3100   47.8540 C   0  0  0  0  0  0  0  0  0  0  0  0
   58.5390   27.1060   46.6840 C   0  0  0  0  0  0  0  0  0  0  0  0
   58.3470   28.1310   45.8150 N   0  0  0  0  0  0  0  0  0  0  0  0
   58.8370   29.3820   46.0340 C   0  0  0  0  0  0  0  0  0  0  0  0
   58.5860   30.2920   45.1330 N   0  0  0  0  0  0  0  0  0  0  0  0
   57.8230   31.5130   45.1950 C   0  0  0  0  0  0  0  0  0  0  0  0
   56.6060   31.5370   44.8660 O   0  0  0  0  0  0  0  0  0  0  0  0
   58.4610   32.7430   45.7270 C   0  0  0  0  0  0  0  0  0  0  0  0
   58.6250   33.8760   44.9090 C   0  0  0  0  0  0  0  0  0  0  0  0
   59.2050   35.0410   45.4230 C   0  0  0  0  0  0  0  0  0  0  0  0
   59.6230   35.0920   46.7540 C   0  0  0  0  0  0  0  0  0  0  0  0
   59.4620   33.9750   47.5900 C   0  0  0  0  0  0  0  0  0  0  0  0
   59.8990   34.0220   49.0030 C   0  0  0  0  0  0  0  0  0  0  0  0
   61.0030   34.5680   49.2880 O   0  0  0  0  0  0  0  0  0  0  0  0
   59.1080   33.4230   50.0510 N   0  0  0  0  0  0  0  0  0  0  0  0
   58.6430   32.0380   49.8830 C   0  0  0  0  0  0  0  0  0  0  0  0
   57.5170   31.7310   50.8730 C   0  0  0  0  0  0  0  0  0  0  0  0
   57.9050   32.0620   52.1930 O   0  0  0  0  0  0  0  0  0  0  0  0
   58.0750   33.4640   52.2950 C   0  0  0  0  0  0  0  0  0  0  0  0
   59.2500   33.9350   51.4220 C   0  0  0  0  0  0  0  0  0  0  0  0
   58.8920   32.8020   47.0670 C   0  0  0  0  0  0  0  0  0  0  0  0
   59.5640   29.6290   47.2210 C   0  0  0  0  0  0  0  0  0  0  0  0
   61.4050   30.7770   50.8330 C   0  0  0  0  0  0  0  0  0  0  0  0
   61.0080   30.5110   52.1420 C   0  0  0  0  0  0  0  0  0  0  0  0
   61.3430   31.4140   53.1080 N   0  0  0  0  0  0  0  0  0  0  0  0
   62.0610   32.5430   52.8120 C   0  0  0  0  0  0  0  0  0  0  0  0
   62.4720   32.7840   51.5310 N   0  0  0  0  0  0  0  0  0  0  0  0
   62.1380   31.8960   50.5610 C   0  0  0  0  0  0  0  0  0  0  0  0
   64.6094   33.0753   50.2639 H   0  0  0  0  0  0  0  0  0  0  0  0
   65.2782   32.2207   48.8324 H   0  0  0  0  0  0  0  0  0  0  0  0
   65.1561   34.0128   48.8324 H   0  0  0  0  0  0  0  0  0  0  0  0
   62.7833   33.9606   48.7075 H   0  0  0  0  0  0  0  0  0  0  0  0
   63.5069   31.6277   46.8957 H   0  0  0  0  0  0  0  0  0  0  0  0
   62.3583   32.9772   46.6020 H   0  0  0  0  0  0  0  0  0  0  0  0
   64.1276   33.2876   46.6020 H   0  0  0  0  0  0  0  0  0  0  0  0
   62.0403   30.5846   47.6256 H   0  0  0  0  0  0  0  0  0  0  0  0
   59.4153   26.4816   48.5615 H   0  0  0  0  0  0  0  0  0  0  0  0
   58.1215   26.1127   46.4626 H   0  0  0  0  0  0  0  0  0  0  0  0
   58.2955   33.8457   43.8599 H   0  0  0  0  0  0  0  0  0  0  0  0
   59.3322   35.9209   44.7752 H   0  0  0  0  0  0  0  0  0  0  0  0
   60.0804   36.0109   47.1496 H   0  0  0  0  0  0  0  0  0  0  0  0
   58.2707   31.9023   48.8568 H   0  0  0  0  0  0  0  0  0  0  0  0
   59.4828   31.3535   50.0733 H   0  0  0  0  0  0  0  0  0  0  0  0
   56.6273   32.3177   50.6007 H   0  0  0  0  0  0  0  0  0  0  0  0
   57.2934   30.6548   50.8304 H   0  0  0  0  0  0  0  0  0  0  0  0
   57.1541   33.9645   51.9612 H   0  0  0  0  0  0  0  0  0  0  0  0
   58.2897   33.7184   53.3434 H   0  0  0  0  0  0  0  0  0  0  0  0
   59.2658   35.0346   51.3983 H   0  0  0  0  0  0  0  0  0  0  0  0
   60.1882   33.5524   51.8502 H   0  0  0  0  0  0  0  0  0  0  0  0
   58.7808   31.9181   47.7123 H   0  0  0  0  0  0  0  0  0  0  0  0
   59.9451   30.6383   47.4355 H   0  0  0  0  0  0  0  0  0  0  0  0
   60.4418   29.6007   52.3888 H   0  0  0  0  0  0  0  0  0  0  0  0
   62.3079   33.2591   53.6096 H   0  0  0  0  0  0  0  0  0  0  0  0
  1  2  1  0
  2  3  1  0
  2  4  1  0
  4  5  1  0
  5  6  2  0
  6  7  1  0
  7  8  2  0
  7  9  1  0
  9 10  1  0
 10 11  2  0
 11 12  1  0
 12 13  1  0
 13 14  2  3
 14 15  1  0
 15 16  2  0
 15 17  1  0
 17 18  2  0
 18 19  1  0
 19 20  2  0
 20 21  1  0
 21 22  1  0
 22 23  2  0
 22 24  1  0
 24 25  1  0
 25 26  1  0
 26 27  1  0
 27 28  1  0
 28 29  1  0
 21 30  2  0
 13 31  1  0
  6 32  1  0
 32 33  2  0
 33 34  1  0
 34 35  2  0
 35 36  1  0
 36 37  2  0
 37  4  1  0
 31  9  2  0
 37 32  1  0
 30 17  1  0
 29 24  1  0
  1 38  1  0
  1 39  1  0
  1 40  1  0
  2 41  1  0
  3 42  1  0
  3 43  1  0
  3 44  1  0
  5 45  1  0
 10 46  1  0
 11 47  1  0
 18 48  1  0
 19 49  1  0
 20 50  1  0
 25 51  1  0
 25 52  1  0
 26 53  1  0
 26 54  1  0
 28 55  1  0
 28 56  1  0
 29 57  1  0
 29 58  1  0
 30 59  1  0
 31 60  1  0
 33 61  1  0
 35 62  1  0
M  CHG  1  12  -1
M  END
>  <UniqueID>  (48) 
46

>  <SMILES>  (48) 
CC(C)n1cc(C(=O)c2cc[n-]c(=NC(=O)c3cccc(C(=O)N4CCOCC4)c3)c2)c2cncnc21

>  <Energy>  (48) 
122.05349633031761

>  <Genealogy>  (48) 
CC(C)n1cc(C(=O)c2cc[n-]c(=NC(=O)c3cccc(C(=O)N4CCOCC4)c3)c2)c2cncnc21 (protonated)
CC(C)n1cc(C(=O)c2cc[n-]c(=NC(=O)c3cccc(C(=O)N4CCOCC4)c3)c2)c2cncnc21 (3D coordinates assigned)
CC(C)n1cc(C(=O)c2cc[n-]c(=NC(=O)c3cccc(C(=O)N4CCOCC4)c3)c2)c2cncnc21 (nonaromatic ring conformer: 122.05349633031761 kcal/mol)

>  <smiles>  (48) 
CC(C)n1cc(C(=O)c2cc[nH]c(=NC(=O)c3cccc(C(=O)N4CCOCC4)c3)c2)c2cncnc21

>  <score_type>  (48) 
oracle

>  <origin>  (48) 
adg

>  <m_score__min__energy>  (48) 
-11.35

>  <m_primary>  (48) 
energy

$$$$
48:0
     RDKit          3D

 48 51  0  0  0  0  0  0  0  0999 V2000
   57.7780   22.6290   47.5680 H   0  0  0  0  0  0  0  0  0  0  0  0
   57.9120   22.9780   46.6270 O   0  0  0  0  0  0  0  0  0  0  0  0
   57.6790   24.3140   46.3070 C   0  0  0  0  0  0  0  0  0  0  0  0
   58.7540   25.1420   45.9760 C   0  0  0  0  0  0  0  0  0  0  0  0
   59.7764   24.7362   45.9697 H   0  0  0  0  0  0  0  0  0  0  0  0
   58.5360   26.4830   45.6530 C   0  0  0  0  0  0  0  0  0  0  0  0
   59.3886   27.1258   45.3885 H   0  0  0  0  0  0  0  0  0  0  0  0
   57.2350   27.0190   45.6630 C   0  0  0  0  0  0  0  0  0  0  0  0
   57.0180   28.4420   45.3050 C   0  0  0  0  0  0  0  0  0  0  0  0
   56.5300   28.7290   44.1800 O   0  0  0  0  0  0  0  0  0  0  0  0
   59.3680   34.5310   48.6710 N   0  0  0  0  0  0  0  0  0  0  0  0
   59.7290   33.6970   49.6020 C   0  0  0  0  0  0  0  0  0  0  0  0
   59.5520   33.9860   50.9210 N   0  0  0  0  0  0  0  0  0  0  0  0
   60.7870   29.6380   47.0420 C   0  0  0  0  0  0  0  0  0  0  0  0
   61.8375   29.5766   46.7216 H   0  0  0  0  0  0  0  0  0  0  0  0
   60.4170   29.8780   48.3580 C   0  0  0  0  0  0  0  0  0  0  0  0
   61.5370   30.1300   49.7290 S   0  0  0  0  0  0  0  0  0  0  0  0
   60.7410   31.6580   50.2030 C   0  0  0  0  0  0  0  0  0  0  0  0
   60.3340   32.5330   49.2510 N   0  0  0  0  0  0  0  0  0  0  0  0
   58.5550   29.5920   46.8110 C   0  0  0  0  0  0  0  0  0  0  0  0
   57.4280   29.5140   46.1670 N   0  0  0  0  0  0  0  0  0  0  0  0
   58.9930   34.2080   47.3210 C   0  0  0  0  0  0  0  0  0  0  0  0
   59.5960   34.8240   46.2100 C   0  0  0  0  0  0  0  0  0  0  0  0
   60.4004   35.5587   46.3619 H   0  0  0  0  0  0  0  0  0  0  0  0
   59.1790   34.5080   44.9130 C   0  0  0  0  0  0  0  0  0  0  0  0
   59.6663   34.9849   44.0498 H   0  0  0  0  0  0  0  0  0  0  0  0
   58.1380   33.5820   44.7070 C   0  0  0  0  0  0  0  0  0  0  0  0
   57.6790   33.2240   43.4290 O   0  0  0  0  0  0  0  0  0  0  0  0
   58.1080   32.0880   42.6790 C   0  0  0  0  0  0  0  0  0  0  0  0
   59.0043   31.6608   43.1523 H   0  0  0  0  0  0  0  0  0  0  0  0
   58.3340   32.4086   41.6513 H   0  0  0  0  0  0  0  0  0  0  0  0
   57.0140   31.0270   42.6310 C   0  0  0  0  0  0  0  0  0  0  0  0
   56.7275   30.7491   43.6560 H   0  0  0  0  0  0  0  0  0  0  0  0
   56.1373   31.4280   42.1012 H   0  0  0  0  0  0  0  0  0  0  0  0
   57.3879   30.1385   42.1012 H   0  0  0  0  0  0  0  0  0  0  0  0
   57.5180   32.9990   45.8180 C   0  0  0  0  0  0  0  0  0  0  0  0
   56.6944   32.2851   45.6698 H   0  0  0  0  0  0  0  0  0  0  0  0
   57.9350   33.3150   47.1140 C   0  0  0  0  0  0  0  0  0  0  0  0
   57.4284   32.8589   47.9773 H   0  0  0  0  0  0  0  0  0  0  0  0
   59.7460   29.4850   46.1810 N   0  0  0  0  0  0  0  0  0  0  0  0
   59.9580   33.1110   51.8740 C   0  0  0  0  0  0  0  0  0  0  0  0
   59.7850   33.3810   53.0910 O   0  0  0  0  0  0  0  0  0  0  0  0
   60.5510   31.9460   51.5160 N   0  0  0  0  0  0  0  0  0  0  0  0
   58.7410   29.9050   48.4630 S   0  0  0  0  0  0  0  0  0  0  0  0
   56.1520   26.1770   45.9910 C   0  0  0  0  0  0  0  0  0  0  0  0
   54.8500   26.6670   46.0190 O   0  0  0  0  0  0  0  0  0  0  0  0
   56.3780   24.8330   46.3110 C   0  0  0  0  0  0  0  0  0  0  0  0
   55.5296   24.1813   46.5669 H   0  0  0  0  0  0  0  0  0  0  0  0
  1  2  1  0
  2  3  1  0
  3  4  2  0
  4  5  1  0
  4  6  1  0
  6  7  1  0
  6  8  2  0
  8  9  1  0
  9 10  2  0
  9 11  1  0
 11 12  2  0
 12 13  1  0
 13 14  1  0
 14 15  1  0
 14 16  2  0
 16 17  1  0
 17 18  1  0
 18 19  2  0
 19 20  1  0
 20 21  2  0
 21 22  1  0
 22 23  2  0
 23 24  1  0
 23 25  1  0
 25 26  1  0
 25 27  2  0
 27 28  1  0
 28 29  1  0
 29 30  1  0
 29 31  1  0
 29 32  1  0
 32 33  1  0
 32 34  1  0
 32 35  1  0
 27 36  1  0
 36 37  1  0
 36 38  2  0
 38 39  1  0
 20 40  1  0
 40 41  1  0
 41 42  2  0
 41 43  1  0
 16 44  1  0
  8 45  1  0
 45 46  1  0
 45 47  2  0
 47 48  1  0
 47  3  1  0
 44 12  1  0
 43 18  1  0
 38 22  1  0
M  CHG  4  13  -1  40  -1  43  -1  46  -1
M  END
>  <UniqueID>  (49) 
47

>  <SMILES>  (49) 
CCOc1ccc(/N=c2/nc(Sc3c[n-]/c(=N/C(=O)c4ccc(O)cc4[O-])s3)[n-]c(=O)[n-]2)cc1

>  <Energy>  (49) 
93.82934489677446

>  <Genealogy>  (49) 
CCOc1ccc(N=c2nc(Sc3c[n-]c(=NC(=O)c4ccc(O)cc4[O-])s3)[n-]c(=O)[n-]2)cc1 (protonated)
CCOc1ccc(/N=c2/nc(Sc3c[n-]/c(=N/C(=O)c4ccc(O)cc4[O-])s3)[n-]c(=O)[n-]2)cc1 (cis-trans isomerization)
CCOc1ccc(/N=c2/nc(Sc3c[n-]/c(=N/C(=O)c4ccc(O)cc4[O-])s3)[n-]c(=O)[n-]2)cc1 (3D coordinates assigned)
CCOc1ccc(/N=c2/nc(Sc3c[n-]/c(=N/C(=O)c4ccc(O)cc4[O-])s3)[n-]c(=O)[n-]2)cc1 (optimized conformer: 93.82934489677446 kcal/mol)

>  <smiles>  (49) 
CCOc1ccc(N=c2nc(Sc3c[nH]c(=NC(=O)c4ccc(O)cc4O)s3)[nH]c(=O)[nH]2)cc1

>  <score_type>  (49) 
oracle

>  <origin>  (49) 
adg

>  <m_score__min__energy>  (49) 
-16.460000000000001

>  <m_primary>  (49) 
energy

$$$$
49:0
     RDKit          3D

 54 56  0  0  0  0  0  0  0  0999 V2000
   60.4660   26.4090   47.0450 C   0  0  0  0  0  0  0  0  0  0  0  0
   60.0070   27.8370   47.0050 C   0  0  0  0  0  0  0  0  0  0  0  0
   60.4450   28.6920   45.9830 C   0  0  0  0  0  0  0  0  0  0  0  0
   60.0470   30.0320   45.9660 C   0  0  0  0  0  0  0  0  0  0  0  0
   59.2120   30.5340   46.9720 C   0  0  0  0  0  0  0  0  0  0  0  0
   58.7650   31.9430   46.9590 C   0  0  0  0  0  0  0  0  0  0  0  0
   58.1400   32.5530   45.8720 C   0  0  0  0  0  0  0  0  0  0  0  0
   57.6900   31.9100   44.6240 C   0  0  0  0  0  0  0  0  0  0  0  0
   58.4700   31.8730   43.6370 O   0  0  0  0  0  0  0  0  0  0  0  0
   56.3930   31.3190   44.5060 N   0  0  0  0  0  0  0  0  0  0  0  0
   56.1020   30.1730   43.6550 C   0  0  0  0  0  0  0  0  0  0  0  0
   56.5970   28.9290   44.3120 C   0  0  0  0  0  0  0  0  0  0  0  0
   57.7690   28.2690   44.0060 C   0  0  0  0  0  0  0  0  0  0  0  0
   57.8050   27.1740   44.8410 C   0  0  0  0  0  0  0  0  0  0  0  0
   56.6510   27.2300   45.5980 C   0  0  0  0  0  0  0  0  0  0  0  0
   55.9500   28.2870   45.2560 O   0  0  0  0  0  0  0  0  0  0  0  0
   58.2280   33.9090   46.0940 C   0  0  0  0  0  0  0  0  0  0  0  0
   57.7910   34.9140   45.2400 O   0  0  0  0  0  0  0  0  0  0  0  0
   58.8860   34.0880   47.2850 C   0  0  0  0  0  0  0  0  0  0  0  0
   59.2560   35.3310   47.7930 O   0  0  0  0  0  0  0  0  0  0  0  0
   59.1960   32.8890   47.8380 N   0  0  0  0  0  0  0  0  0  0  0  0
   60.0080   32.6710   49.0450 C   0  0  0  0  0  0  0  0  0  0  0  0
   61.4960   32.9940   48.8080 C   0  0  0  0  0  0  0  0  0  0  0  0
   62.1240   32.1990   47.6440 C   0  0  0  0  0  0  0  0  0  0  0  0
   63.4870   32.6770   47.3220 N   0  0  0  0  0  0  0  0  0  0  0  0
   64.2160   33.0790   48.5380 C   0  0  0  0  0  0  0  0  0  0  0  0
   63.4080   33.8220   46.4010 C   0  0  0  0  0  0  0  0  0  0  0  0
   58.7950   29.6870   48.0080 C   0  0  0  0  0  0  0  0  0  0  0  0
   59.1940   28.3470   48.0280 C   0  0  0  0  0  0  0  0  0  0  0  0
   60.5697   26.0864   48.0915 H   0  0  0  0  0  0  0  0  0  0  0  0
   59.7273   25.7720   46.5364 H   0  0  0  0  0  0  0  0  0  0  0  0
   61.4375   26.3217   46.5364 H   0  0  0  0  0  0  0  0  0  0  0  0
   61.1045   28.3065   45.1915 H   0  0  0  0  0  0  0  0  0  0  0  0
   60.3913   30.6952   45.1587 H   0  0  0  0  0  0  0  0  0  0  0  0
   55.0157   30.0982   43.4991 H   0  0  0  0  0  0  0  0  0  0  0  0
   56.6033   30.2999   42.6841 H   0  0  0  0  0  0  0  0  0  0  0  0
   58.5177   28.5567   43.2532 H   0  0  0  0  0  0  0  0  0  0  0  0
   58.5938   26.4092   44.8942 H   0  0  0  0  0  0  0  0  0  0  0  0
   56.3629   26.5008   46.3695 H   0  0  0  0  0  0  0  0  0  0  0  0
   58.8970   36.1980   47.4170 H   0  0  0  0  0  0  0  0  0  0  0  0
   59.6283   33.3178   49.8496 H   0  0  0  0  0  0  0  0  0  0  0  0
   59.9311   31.6082   49.3179 H   0  0  0  0  0  0  0  0  0  0  0  0
   61.5875   34.0673   48.5851 H   0  0  0  0  0  0  0  0  0  0  0  0
   62.0372   32.7084   49.7221 H   0  0  0  0  0  0  0  0  0  0  0  0
   62.1768   31.1371   47.9262 H   0  0  0  0  0  0  0  0  0  0  0  0
   61.4934   32.3417   46.7541 H   0  0  0  0  0  0  0  0  0  0  0  0
   63.6480   32.7658   49.4264 H   0  0  0  0  0  0  0  0  0  0  0  0
   65.2058   32.5991   48.5476 H   0  0  0  0  0  0  0  0  0  0  0  0
   64.3384   34.1721   48.5476 H   0  0  0  0  0  0  0  0  0  0  0  0
   63.3436   34.7548   46.9804 H   0  0  0  0  0  0  0  0  0  0  0  0
   64.3067   33.8453   45.7671 H   0  0  0  0  0  0  0  0  0  0  0  0
   62.5146   33.7217   45.7671 H   0  0  0  0  0  0  0  0  0  0  0  0
   58.1508   30.0783   48.8092 H   0  0  0  0  0  0  0  0  0  0  0  0
   58.8692   27.6906   48.8487 H   0  0  0  0  0  0  0  0  0  0  0  0
  1  2  1  0
  2  3  2  0
  3  4  1  0
  4  5  2  0
  5  6  1  0
  6  7  2  0
  7  8  1  0
  8  9  2  0
  8 10  1  0
 10 11  1  0
 11 12  1  0
 12 13  2  0
 13 14  1  0
 14 15  2  0
 15 16  1  0
  7 17  1  0
 17 18  1  0
 17 19  2  0
 19 20  1  0
 19 21  1  0
 21 22  1  0
 22 23  1  0
 23 24  1  0
 24 25  1  0
 25 26  1  0
 25 27  1  0
  5 28  1  0
 28 29  2  0
 29  2  1  0
 21  6  1  0
 16 12  1  0
  1 30  1  0
  1 31  1  0
  1 32  1  0
  3 33  1  0
  4 34  1  0
 11 35  1  0
 11 36  1  0
 13 37  1  0
 14 38  1  0
 15 39  1  0
 20 40  1  0
 22 41  1  0
 22 42  1  0
 23 43  1  0
 23 44  1  0
 24 45  1  0
 24 46  1  0
 26 47  1  0
 26 48  1  0
 26 49  1  0
 27 50  1  0
 27 51  1  0
 27 52  1  0
 28 53  1  0
 29 54  1  0
M  CHG  2  10  -1  18  -1
M  END
>  <UniqueID>  (50) 
48

>  <SMILES>  (50) 
Cc1ccc(-c2c(C(=O)[N-]Cc3ccco3)c([O-])c(O)n2CCCN(C)C)cc1

>  <Energy>  (50) 
118.88268030545349

>  <Genealogy>  (50) 
Cc1ccc(-c2c(C(=O)[N-]Cc3ccco3)c([O-])c(O)n2CCCN(C)C)cc1 (protonated)
Cc1ccc(-c2c(C(=O)[N-]Cc3ccco3)c([O-])c(O)n2CCCN(C)C)cc1 (3D coordinates assigned)
Cc1ccc(-c2c(C(=O)[N-]Cc3ccco3)c([O-])c(O)n2CCCN(C)C)cc1 (optimized conformer: 118.88268030545349 kcal/mol)

>  <smiles>  (50) 
Cc1ccc(-c2c(C(=O)NCc3ccco3)c(O)c(O)n2CCCN(C)C)cc1

>  <score_type>  (50) 
oracle

>  <origin>  (50) 
adg

>  <m_score__min__energy>  (50) 
-11.720000000000001

>  <m_primary>  (50) 
energy

$$$$
50:0
     RDKit          3D

 52 56  0  0  1  0  0  0  0  0999 V2000
   59.6610   34.2670   48.9500 O   0  0  0  0  0  0  0  0  0  0  0  0
   59.6650   33.3080   48.1240 C   0  0  0  0  0  0  0  0  0  0  0  0
   60.4950   32.1950   48.4880 N   0  0  0  0  0  0  0  0  0  0  0  0
   61.7890   32.2630   48.4270 C   0  0  0  0  0  0  0  0  0  0  0  0
   62.6390   32.8350   49.3720 C   0  0  0  0  0  0  0  0  0  0  0  0
   63.9150   32.6500   48.8390 C   0  0  0  0  0  0  0  0  0  0  0  0
   65.2060   33.0880   49.4370 C   0  0  0  0  0  0  0  0  0  0  0  0
   65.8850   32.2420   50.4330 C   0  0  0  0  0  0  0  0  0  0  0  0
   65.0990   33.3570   50.9670 C   0  0  0  0  0  0  0  0  0  0  0  0
   63.7850   32.0040   47.6490 N   0  0  0  0  0  0  0  0  0  0  0  0
   62.5000   31.7810   47.4200 N   0  0  0  0  0  0  0  0  0  0  0  0
   58.8790   33.3480   46.8980 C   0  0  0  0  0  0  0  0  0  0  0  0
   58.0660   34.3920   46.5420 C   0  0  0  0  0  0  0  0  0  0  0  0
   57.3720   34.3600   45.3510 C   0  0  0  0  0  0  0  0  0  0  0  0
   57.4890   33.2670   44.4950 C   0  0  0  0  0  0  0  0  0  0  0  0
   58.2860   32.2230   44.8240 C   0  0  0  0  0  0  0  0  0  0  0  0
   58.5310   31.0080   44.0190 C   0  0  0  0  0  0  0  0  0  0  0  0
   57.8640   29.8180   44.5750 C   0  0  0  0  0  0  0  0  0  0  0  0
   56.5160   29.8770   44.7520 N   0  0  0  0  0  0  0  0  0  0  0  0
   55.8150   28.8560   45.2160 N   0  0  0  0  0  0  0  0  0  0  0  0
   56.4340   27.6960   45.5380 C   0  0  0  0  0  0  0  0  0  0  0  0
   55.7360   26.7580   45.9730 O   0  0  0  0  0  0  0  0  0  0  0  0
   57.7830   27.5330   45.3980 C   0  0  0  0  0  0  0  0  0  0  0  0
   58.4830   28.6410   44.9030 C   0  0  0  0  0  0  0  0  0  0  0  0
   59.9580   28.4530   44.7850 C   0  0  0  0  0  0  0  0  0  0  0  0
   60.3700   27.9090   46.1640 C   0  0  0  0  0  0  0  0  0  0  0  0
   59.8900   26.4820   46.2290 C   0  0  0  0  0  0  0  0  0  0  0  0
   58.4950   26.2780   45.7510 C   0  0  0  0  0  0  0  0  0  0  0  0
   58.9860   32.2760   46.0480 C   0  0  0  0  0  0  0  0  0  0  0  0
   62.3663   33.3208   50.3205 H   0  0  0  0  0  0  0  0  0  0  0  0
   65.5512   33.5938   48.5232 H   0  0  0  0  0  0  0  0  0  0  0  0
   65.5351   31.2114   50.5924 H   0  0  0  0  0  0  0  0  0  0  0  0
   66.9301   31.9253   50.5655 H   0  0  0  0  0  0  0  0  0  0  0  0
   64.1555   33.1660   51.4993 H   0  0  0  0  0  0  0  0  0  0  0  0
   65.2937   34.2109   51.6325 H   0  0  0  0  0  0  0  0  0  0  0  0
   64.5520   31.7210   47.0090 H   0  0  0  0  0  0  0  0  0  0  0  0
   62.1230   31.2920   46.5650 H   0  0  0  0  0  0  0  0  0  0  0  0
   57.9665   35.2603   47.2100 H   0  0  0  0  0  0  0  0  0  0  0  0
   56.7216   35.2031   45.0748 H   0  0  0  0  0  0  0  0  0  0  0  0
   56.9311   33.2521   43.5471 H   0  0  0  0  0  0  0  0  0  0  0  0
   58.1551   31.1788   42.9994 H   0  0  0  0  0  0  0  0  0  0  0  0
   59.6142   30.8167   44.0244 H   0  0  0  0  0  0  0  0  0  0  0  0
   54.7790   28.9440   45.3340 H   0  0  0  0  0  0  0  0  0  0  0  0
   60.1987   27.7308   43.9909 H   0  0  0  0  0  0  0  0  0  0  0  0
   60.4852   29.3810   44.5189 H   0  0  0  0  0  0  0  0  0  0  0  0
   61.4638   27.9462   46.2746 H   0  0  0  0  0  0  0  0  0  0  0  0
   59.9311   28.5108   46.9734 H   0  0  0  0  0  0  0  0  0  0  0  0
   60.5589   25.8659   45.6101 H   0  0  0  0  0  0  0  0  0  0  0  0
   59.9020   26.1958   47.2910 H   0  0  0  0  0  0  0  0  0  0  0  0
   58.5266   25.6364   44.8581 H   0  0  0  0  0  0  0  0  0  0  0  0
   57.9389   25.8224   46.5835 H   0  0  0  0  0  0  0  0  0  0  0  0
   59.6359   31.4341   46.3288 H   0  0  0  0  0  0  0  0  0  0  0  0
  1  2  2  0
  2  3  1  0
  3  4  2  0
  4  5  1  0
  5  6  2  0
  6  7  1  0
  7  8  1  0
  8  9  1  0
  6 10  1  0
 10 11  1  0
  2 12  1  0
 12 13  2  0
 13 14  1  0
 14 15  2  0
 15 16  1  0
 16 17  1  0
 17 18  1  0
 18 19  2  0
 19 20  1  0
 20 21  1  0
 21 22  2  0
 21 23  1  0
 23 24  2  0
 24 25  1  0
 25 26  1  0
 26 27  1  0
 27 28  1  0
 16 29  2  0
 11  4  1  0
 29 12  1  0
  9  7  1  0
 24 18  1  0
 28 23  1  0
  5 30  1  0
  7 31  1  0
  8 32  1  0
  8 33  1  0
  9 34  1  0
  9 35  1  0
 10 36  1  0
 11 37  1  0
 13 38  1  0
 14 39  1  0
 15 40  1  0
 17 41  1  0
 17 42  1  0
 20 43  1  0
 25 44  1  0
 25 45  1  0
 26 46  1  0
 26 47  1  0
 27 48  1  0
 27 49  1  0
 28 50  1  0
 28 51  1  0
 29 52  1  0
M  END
>  <smiles>  (51) 
O=C(N=c1cc(C2CC2)[nH][nH]1)c1cccc(Cc2n[nH]c(=O)c3c2CCCC3)c1

>  <score_type>  (51) 
oracle

>  <origin>  (51) 
adg

>  <m_score__min__energy>  (51) 
-10.6

>  <m_primary>  (51) 
energy

$$$$
51:0
     RDKit          3D

 36 37  0  0  0  0  0  0  0  0999 V2000
   57.9917   30.8452   42.3121 H   0  0  0  0  0  0  0  0  0  0  0  0
   57.6010   31.2460   43.2590 C   0  0  0  0  0  0  0  0  0  0  0  0
   56.9590   30.2910   44.1840 C   0  0  0  0  0  0  0  0  0  0  0  0
   55.7480   30.4630   44.4900 O   0  0  0  0  0  0  0  0  0  0  0  0
   57.7000   29.2170   44.7800 N   0  0  0  0  0  0  0  0  0  0  0  0
   58.7430   29.2360   44.7280 H   0  0  0  0  0  0  0  0  0  0  0  0
   57.0280   28.0830   45.4150 C   0  0  0  0  0  0  0  0  0  0  0  0
   56.2184   28.4585   46.0581 H   0  0  0  0  0  0  0  0  0  0  0  0
   56.6230   27.4298   44.6281 H   0  0  0  0  0  0  0  0  0  0  0  0
   58.0070   27.2730   46.2650 C   0  0  0  0  0  0  0  0  0  0  0  0
   57.9597   27.6264   47.3056 H   0  0  0  0  0  0  0  0  0  0  0  0
   57.7279   26.2104   46.2096 H   0  0  0  0  0  0  0  0  0  0  0  0
   59.7160   27.4650   45.6430 S   0  0  0  0  0  0  0  0  0  0  0  0
   60.0520   28.9220   46.6290 C   0  0  0  0  0  0  0  0  0  0  0  0
   60.2590   30.1210   46.0200 N   0  0  0  0  0  0  0  0  0  0  0  0
   60.5000   31.2520   46.7360 C   0  0  0  0  0  0  0  0  0  0  0  0
   60.6652   32.2070   46.2157 H   0  0  0  0  0  0  0  0  0  0  0  0
   60.5380   31.2020   48.1320 C   0  0  0  0  0  0  0  0  0  0  0  0
   60.7297   32.1142   48.7161 H   0  0  0  0  0  0  0  0  0  0  0  0
   60.3300   29.9820   48.7770 C   0  0  0  0  0  0  0  0  0  0  0  0
   60.3574   29.9274   49.8753 H   0  0  0  0  0  0  0  0  0  0  0  0
   60.0870   28.8310   48.0250 C   0  0  0  0  0  0  0  0  0  0  0  0
   59.9250   27.8641   48.5239 H   0  0  0  0  0  0  0  0  0  0  0  0
   57.7480   32.5640   43.4770 C   0  0  0  0  0  0  0  0  0  0  0  0
   57.5711   33.2386   42.6264 H   0  0  0  0  0  0  0  0  0  0  0  0
   58.1280   33.1830   44.7660 C   0  0  0  0  0  0  0  0  0  0  0  0
   57.4930   32.8270   45.9690 C   0  0  0  0  0  0  0  0  0  0  0  0
   56.6940   32.0710   45.9637 H   0  0  0  0  0  0  0  0  0  0  0  0
   57.8730   33.4300   47.1720 C   0  0  0  0  0  0  0  0  0  0  0  0
   57.3596   33.1616   48.1071 H   0  0  0  0  0  0  0  0  0  0  0  0
   58.9040   34.3730   47.1880 C   0  0  0  0  0  0  0  0  0  0  0  0
   59.2680   34.9620   48.3540 F   0  0  0  0  0  0  0  0  0  0  0  0
   59.5660   34.7040   46.0030 C   0  0  0  0  0  0  0  0  0  0  0  0
   60.3875   35.4354   46.0183 H   0  0  0  0  0  0  0  0  0  0  0  0
   59.1850   34.1060   44.7970 C   0  0  0  0  0  0  0  0  0  0  0  0
   59.7166   34.3605   43.8682 H   0  0  0  0  0  0  0  0  0  0  0  0
  1  2  1  0
  2  3  1  0
  3  4  2  0
  3  5  1  0
  5  6  1  0
  5  7  1  0
  7  8  1  0
  7  9  1  0
  7 10  1  0
 10 11  1  0
 10 12  1  0
 10 13  1  0
 13 14  1  0
 14 15  2  0
 15 16  1  0
 16 17  1  0
 16 18  2  0
 18 19  1  0
 18 20  1  0
 20 21  1  0
 20 22  2  0
 22 23  1  0
  2 24  2  0
 24 25  1  0
 24 26  1  0
 26 27  2  0
 27 28  1  0
 27 29  1  0
 29 30  1  0
 29 31  2  0
 31 32  1  0
 31 33  1  0
 33 34  1  0
 33 35  2  0
 35 36  1  0
 22 14  1  0
 35 26  1  0
M  END
>  <UniqueID>  (52) 
49

>  <SMILES>  (52) 
O=C(/C=C\c1ccc(F)cc1)NCCSc1ccccn1

>  <Energy>  (52) 
35.11348605423033

>  <Genealogy>  (52) 
O=C(/C=C\c1ccc(F)cc1)NCCSc1ccccn1 (cis-trans isomerization)
O=C(/C=C\c1ccc(F)cc1)NCCSc1ccccn1 (3D coordinates assigned)
O=C(/C=C\c1ccc(F)cc1)NCCSc1ccccn1 (optimized conformer: 35.11348605423033 kcal/mol)

>  <smiles>  (52) 
O=C(C=Cc1ccc(F)cc1)NCCSc1ccccn1

>  <score_type>  (52) 
oracle

>  <origin>  (52) 
adg

>  <m_score__min__energy>  (52) 
-6.8099999999999996

>  <m_primary>  (52) 
energy

$$$$
52:0
     RDKit          3D

 50 53  0  0  0  0  0  0  0  0999 V2000
   50.5880   24.1080   44.8420 C   0  0  0  0  0  0  0  0  0  0  0  0
   51.8630   23.4490   44.4200 C   0  0  0  0  0  0  0  0  0  0  0  0
   52.3550   23.7200   43.2930 O   0  0  0  0  0  0  0  0  0  0  0  0
   52.5220   22.4870   45.2520 N   0  0  0  0  0  0  0  0  0  0  0  0
   53.7400   22.7620   46.0030 C   0  0  0  0  0  0  0  0  0  0  0  0
   54.4730   23.9380   45.3570 C   0  0  2  0  0  0  0  0  0  0  0  0
   55.8460   23.6100   44.7840 C   0  0  0  0  0  0  0  0  0  0  0  0
   55.7310   24.3920   46.0900 C   0  0  1  0  0  0  0  0  0  0  0  0
   56.0680   25.8470   45.9520 C   0  0  0  0  0  0  0  0  0  0  0  0
   55.1480   26.7090   46.0030 O   0  0  0  0  0  0  0  0  0  0  0  0
   57.4150   26.2510   45.6970 N   0  0  0  0  0  0  0  0  0  0  0  0
   57.8660   26.7780   44.4100 C   0  0  0  0  0  0  0  0  0  0  0  0
   59.0660   27.6380   44.8370 C   0  0  2  0  0  0  0  0  0  0  0  0
   59.6320   26.7980   45.9660 C   0  0  0  0  0  0  0  0  0  0  0  0
   58.3200   26.7750   46.7200 C   0  0  1  0  0  0  0  0  0  0  0  0
   58.0510   28.2830   46.8600 C   0  0  0  0  0  0  0  0  0  0  0  0
   58.5280   28.7880   45.5700 N   0  0  0  0  0  0  0  0  0  0  0  0
   58.2450   30.0970   45.0340 C   0  0  0  0  0  0  0  0  0  0  0  0
   57.6930   30.2270   43.7490 C   0  0  0  0  0  0  0  0  0  0  0  0
   57.3980   31.4880   43.2310 C   0  0  0  0  0  0  0  0  0  0  0  0
   57.6470   32.6350   43.9840 C   0  0  0  0  0  0  0  0  0  0  0  0
   58.2040   32.5370   45.2720 C   0  0  0  0  0  0  0  0  0  0  0  0
   58.4770   33.7510   46.0900 C   0  0  0  0  0  0  0  0  0  0  0  0
   59.3010   34.8890   45.5670 C   0  0  0  0  0  0  0  0  0  0  0  0
   58.0100   33.8400   47.2550 O   0  0  0  0  0  0  0  0  0  0  0  0
   58.5020   31.2590   45.7860 C   0  0  0  0  0  0  0  0  0  0  0  0
   50.5354   24.1352   45.9404 H   0  0  0  0  0  0  0  0  0  0  0  0
   50.5579   25.1346   44.4479 H   0  0  0  0  0  0  0  0  0  0  0  0
   49.7332   23.5388   44.4479 H   0  0  0  0  0  0  0  0  0  0  0  0
   53.4826   23.0147   47.0422 H   0  0  0  0  0  0  0  0  0  0  0  0
   54.3879   21.8731   45.9956 H   0  0  0  0  0  0  0  0  0  0  0  0
   53.5695   24.4358   44.9750 H   0  0  0  0  0  0  0  0  0  0  0  0
   56.2129   22.5730   44.7943 H   0  0  0  0  0  0  0  0  0  0  0  0
   56.3462   23.7773   43.8187 H   0  0  0  0  0  0  0  0  0  0  0  0
   56.1083   24.2769   47.1168 H   0  0  0  0  0  0  0  0  0  0  0  0
   58.1723   25.9698   43.7295 H   0  0  0  0  0  0  0  0  0  0  0  0
   57.0931   27.3294   43.8545 H   0  0  0  0  0  0  0  0  0  0  0  0
   59.7309   27.9204   44.0074 H   0  0  0  0  0  0  0  0  0  0  0  0
   59.9671   25.8014   45.6428 H   0  0  0  0  0  0  0  0  0  0  0  0
   60.5339   27.1522   46.4866 H   0  0  0  0  0  0  0  0  0  0  0  0
   58.2569   26.2268   47.6716 H   0  0  0  0  0  0  0  0  0  0  0  0
   56.9795   28.4883   47.0001 H   0  0  0  0  0  0  0  0  0  0  0  0
   58.5393   28.7459   47.7302 H   0  0  0  0  0  0  0  0  0  0  0  0
   57.4920   29.3284   43.1472 H   0  0  0  0  0  0  0  0  0  0  0  0
   56.9666   31.5782   42.2231 H   0  0  0  0  0  0  0  0  0  0  0  0
   57.4060   33.6242   43.5675 H   0  0  0  0  0  0  0  0  0  0  0  0
   59.7147   35.4604   46.4110 H   0  0  0  0  0  0  0  0  0  0  0  0
   60.1239   34.4941   44.9531 H   0  0  0  0  0  0  0  0  0  0  0  0
   58.6690   35.5476   44.9531 H   0  0  0  0  0  0  0  0  0  0  0  0
   58.9421   31.1681   46.7900 H   0  0  0  0  0  0  0  0  0  0  0  0
  1  2  1  0
  2  3  2  0
  2  4  1  0
  4  5  1  0
  5  6  1  0
  6  7  1  0
  7  8  1  0
  8  9  1  0
  9 10  2  0
  9 11  1  0
 11 12  1  0
 12 13  1  0
 13 14  1  0
 14 15  1  0
 15 16  1  0
 16 17  1  0
 17 18  1  0
 18 19  2  0
 19 20  1  0
 20 21  2  0
 21 22  1  0
 22 23  1  0
 23 24  1  0
 23 25  2  0
 22 26  2  0
  8  6  1  0
 15 11  1  0
 26 18  1  0
 17 13  1  0
  1 27  1  0
  1 28  1  0
  1 29  1  0
  5 30  1  0
  5 31  1  0
  6 32  1  6
  7 33  1  0
  7 34  1  0
  8 35  1  1
 12 36  1  0
 12 37  1  0
 13 38  1  6
 14 39  1  0
 14 40  1  0
 15 41  1  1
 16 42  1  0
 16 43  1  0
 19 44  1  0
 20 45  1  0
 21 46  1  0
 24 47  1  0
 24 48  1  0
 24 49  1  0
 26 50  1  0
M  CHG  1   4  -1
M  END
>  <UniqueID>  (53) 
50

>  <SMILES>  (53) 
CC(=O)[N-]C[C@@H]1C[C@H]1C(=O)N1CC2CC1CN2c1cccc(C(C)=O)c1

>  <Energy>  (53) 
356.18822743528216

>  <Genealogy>  (53) 
CC(=O)[N-]CC1CC1C(=O)N1CC2CC1CN2c1cccc(C(C)=O)c1 (protonated)
CC(=O)[N-]C[C@@H]1C[C@H]1C(=O)N1CC2CC1CN2c1cccc(C(C)=O)c1 (chirality)
CC(=O)[N-]C[C@@H]1C[C@H]1C(=O)N1CC2CC1CN2c1cccc(C(C)=O)c1 (3D coordinates assigned)
CC(=O)[N-]C[C@@H]1C[C@H]1C(=O)N1CC2CC1CN2c1cccc(C(C)=O)c1 (nonaromatic ring conformer: 356.18822743528216 kcal/mol)

>  <smiles>  (53) 
CC(=O)NCC1CC1C(=O)N1CC2CC1CN2c1cccc(C(C)=O)c1

>  <score_type>  (53) 
oracle

>  <origin>  (53) 
adg

>  <m_score__min__energy>  (53) 
-11.09

>  <m_primary>  (53) 
energy

$$$$
53:0
     RDKit          3D

 40 42  0  0  0  0  0  0  0  0999 V2000
   58.8940   30.2880   47.8100 C   0  0  0  0  0  0  0  0  0  0  0  0
   59.2870   31.7360   47.9560 C   0  0  0  0  0  0  0  0  0  0  0  0
   59.8940   32.1550   49.1440 C   0  0  0  0  0  0  0  0  0  0  0  0
   60.2790   33.4780   49.3040 C   0  0  0  0  0  0  0  0  0  0  0  0
   60.0620   34.3880   48.2750 C   0  0  0  0  0  0  0  0  0  0  0  0
   59.4740   33.9960   47.0990 N   0  0  0  0  0  0  0  0  0  0  0  0
   59.2950   34.9060   46.0860 C   0  0  0  0  0  0  0  0  0  0  0  0
   59.6530   36.1100   46.2190 O   0  0  0  0  0  0  0  0  0  0  0  0
   58.7240   34.5130   44.8790 C   0  0  0  0  0  0  0  0  0  0  0  0
   58.3180   33.1920   44.7200 C   0  0  0  0  0  0  0  0  0  0  0  0
   57.8280   32.7120   43.3800 C   0  0  0  0  0  0  0  0  0  0  0  0
   57.9650   31.2950   43.3180 O   0  0  0  0  0  0  0  0  0  0  0  0
   57.0520   30.4270   43.9230 C   0  0  0  0  0  0  0  0  0  0  0  0
   56.2340   30.8530   44.7830 O   0  0  0  0  0  0  0  0  0  0  0  0
   57.1340   28.9650   43.6340 C   0  0  0  0  0  0  0  0  0  0  0  0
   58.1560   28.3440   44.5460 C   0  0  0  0  0  0  0  0  0  0  0  0
   59.4860   28.7970   44.5340 C   0  0  0  0  0  0  0  0  0  0  0  0
   60.4160   28.2780   45.4400 C   0  0  0  0  0  0  0  0  0  0  0  0
   60.0240   27.3110   46.3700 C   0  0  0  0  0  0  0  0  0  0  0  0
   58.7010   26.8640   46.3970 C   0  0  0  0  0  0  0  0  0  0  0  0
   57.7680   27.3810   45.4930 C   0  0  0  0  0  0  0  0  0  0  0  0
   58.5000   32.3070   45.7380 N   0  0  0  0  0  0  0  0  0  0  0  0
   59.0760   32.6840   46.9200 C   0  0  0  0  0  0  0  0  0  0  0  0
   58.7721   29.8389   48.8067 H   0  0  0  0  0  0  0  0  0  0  0  0
   57.9448   30.2195   47.2584 H   0  0  0  0  0  0  0  0  0  0  0  0
   59.6784   29.7490   47.2584 H   0  0  0  0  0  0  0  0  0  0  0  0
   60.0669   31.4324   49.9551 H   0  0  0  0  0  0  0  0  0  0  0  0
   60.7538   33.8059   50.2405 H   0  0  0  0  0  0  0  0  0  0  0  0
   60.3661   35.4370   48.4058 H   0  0  0  0  0  0  0  0  0  0  0  0
   58.5954   35.2376   44.0614 H   0  0  0  0  0  0  0  0  0  0  0  0
   56.7703   32.9864   43.2539 H   0  0  0  0  0  0  0  0  0  0  0  0
   58.4193   33.1786   42.5784 H   0  0  0  0  0  0  0  0  0  0  0  0
   56.1528   28.4989   43.8074 H   0  0  0  0  0  0  0  0  0  0  0  0
   57.4268   28.8086   42.5853 H   0  0  0  0  0  0  0  0  0  0  0  0
   59.7970   29.5633   43.8087 H   0  0  0  0  0  0  0  0  0  0  0  0
   61.4576   28.6312   45.4208 H   0  0  0  0  0  0  0  0  0  0  0  0
   60.7574   26.9021   47.0806 H   0  0  0  0  0  0  0  0  0  0  0  0
   58.3927   26.1043   47.1304 H   0  0  0  0  0  0  0  0  0  0  0  0
   56.7252   27.0322   45.5232 H   0  0  0  0  0  0  0  0  0  0  0  0
   58.2030   31.3200   45.5790 H   0  0  0  0  0  0  0  0  0  0  0  0
  1  2  1  0
  2  3  2  0
  3  4  1  0
  4  5  2  0
  5  6  1  0
  6  7  1  0
  7  8  2  0
  7  9  1  0
  9 10  2  0
 10 11  1  0
 11 12  1  0
 12 13  1  0
 13 14  2  0
 13 15  1  0
 15 16  1  0
 16 17  2  0
 17 18  1  0
 18 19  2  0
 19 20  1  0
 20 21  2  0
 10 22  1  0
 22 23  2  0
 23  2  1  0
 23  6  1  0
 21 16  1  0
  1 24  1  0
  1 25  1  0
  1 26  1  0
  3 27  1  0
  4 28  1  0
  5 29  1  0
  9 30  1  0
 11 31  1  0
 11 32  1  0
 15 33  1  0
 15 34  1  0
 17 35  1  0
 18 36  1  0
 19 37  1  0
 20 38  1  0
 21 39  1  0
 22 40  1  0
M  CHG  1  22   1
M  END
>  <UniqueID>  (54) 
51

>  <SMILES>  (54) 
Cc1cccn2c(=O)cc(COC(=O)Cc3ccccc3)[nH+]c12

>  <Energy>  (54) 
41.99594606752422

>  <Genealogy>  (54) 
Cc1cccn2c(=O)cc(COC(=O)Cc3ccccc3)[nH+]c12 (protonated)
Cc1cccn2c(=O)cc(COC(=O)Cc3ccccc3)[nH+]c12 (3D coordinates assigned)
Cc1cccn2c(=O)cc(COC(=O)Cc3ccccc3)[nH+]c12 (optimized conformer: 41.99594606752422 kcal/mol)

>  <smiles>  (54) 
Cc1cccn2c(=O)cc(COC(=O)Cc3ccccc3)nc12

>  <score_type>  (54) 
oracle

>  <origin>  (54) 
adg

>  <m_score__min__energy>  (54) 
-5.6900000000000004

>  <m_primary>  (54) 
energy

$$$$
54:0
     RDKit          3D

 45 48  0  0  0  0  0  0  0  0999 V2000
   57.8990   32.7550   42.5020 O   0  0  0  0  0  0  0  0  0  0  0  0
   58.0590   32.7270   43.7540 C   0  0  0  0  0  0  0  0  0  0  0  0
   58.3940   31.4960   44.4210 N   0  0  0  0  0  0  0  0  0  0  0  0
   57.6270   30.4810   44.7150 C   0  0  0  0  0  0  0  0  0  0  0  0
   58.0540   29.3890   45.5010 C   0  0  0  0  0  0  0  0  0  0  0  0
   57.1660   28.3410   45.7620 C   0  0  0  0  0  0  0  0  0  0  0  0
   55.9080   28.3670   45.2520 N   0  0  0  0  0  0  0  0  0  0  0  0
   55.4750   29.3960   44.4780 C   0  0  0  0  0  0  0  0  0  0  0  0
   56.3280   30.4630   44.1910 C   0  0  0  0  0  0  0  0  0  0  0  0
   58.0040   33.9610   44.5070 N   0  0  0  0  0  0  0  0  0  0  0  0
   57.1110   33.8080   45.6880 C   0  0  0  0  0  0  0  0  0  0  0  0
   57.8390   33.2870   46.9380 C   0  0  0  0  0  0  0  0  0  0  0  0
   59.0670   34.0460   47.1840 N   0  0  0  0  0  0  0  0  0  0  0  0
   59.9150   33.6830   48.2840 C   0  0  0  0  0  0  0  0  0  0  0  0
   59.3420   33.4940   49.5500 C   0  0  0  0  0  0  0  0  0  0  0  0
   60.1320   33.1130   50.6360 C   0  0  0  0  0  0  0  0  0  0  0  0
   61.5030   32.9150   50.4720 C   0  0  0  0  0  0  0  0  0  0  0  0
   62.1000   33.1030   49.2170 C   0  0  0  0  0  0  0  0  0  0  0  0
   63.4800   32.9120   49.0540 C   0  0  0  0  0  0  0  0  0  0  0  0
   64.0750   33.1110   47.8070 C   0  0  0  0  0  0  0  0  0  0  0  0
   63.3010   33.5050   46.7150 C   0  0  0  0  0  0  0  0  0  0  0  0
   61.9250   33.7000   46.8600 C   0  0  0  0  0  0  0  0  0  0  0  0
   61.3050   33.4950   48.1080 C   0  0  0  0  0  0  0  0  0  0  0  0
   59.5090   35.0460   46.2130 C   0  0  0  0  0  0  0  0  0  0  0  0
   59.3800   34.4520   44.8080 C   0  0  0  0  0  0  0  0  0  0  0  0
   59.0769   29.3628   45.9048 H   0  0  0  0  0  0  0  0  0  0  0  0
   57.4879   27.4921   46.3830 H   0  0  0  0  0  0  0  0  0  0  0  0
   54.4508   29.3884   44.0769 H   0  0  0  0  0  0  0  0  0  0  0  0
   55.9803   31.2894   43.5536 H   0  0  0  0  0  0  0  0  0  0  0  0
   57.5490   34.6800   43.8930 H   0  0  0  0  0  0  0  0  0  0  0  0
   56.6721   34.7888   45.9231 H   0  0  0  0  0  0  0  0  0  0  0  0
   56.3455   33.0638   45.4231 H   0  0  0  0  0  0  0  0  0  0  0  0
   57.1743   33.3859   47.8089 H   0  0  0  0  0  0  0  0  0  0  0  0
   58.1054   32.2323   46.7746 H   0  0  0  0  0  0  0  0  0  0  0  0
   58.2615   33.6472   49.6883 H   0  0  0  0  0  0  0  0  0  0  0  0
   59.6717   32.9684   51.6246 H   0  0  0  0  0  0  0  0  0  0  0  0
   62.1187   32.6100   51.3310 H   0  0  0  0  0  0  0  0  0  0  0  0
   64.0957   32.6042   49.9120 H   0  0  0  0  0  0  0  0  0  0  0  0
   65.1573   32.9567   47.6849 H   0  0  0  0  0  0  0  0  0  0  0  0
   63.7762   33.6628   45.7356 H   0  0  0  0  0  0  0  0  0  0  0  0
   61.3229   34.0152   45.9951 H   0  0  0  0  0  0  0  0  0  0  0  0
   58.8804   35.9450   46.2945 H   0  0  0  0  0  0  0  0  0  0  0  0
   60.5551   35.3240   46.4092 H   0  0  0  0  0  0  0  0  0  0  0  0
   59.6438   35.2276   44.0739 H   0  0  0  0  0  0  0  0  0  0  0  0
   60.0574   33.5871   44.7529 H   0  0  0  0  0  0  0  0  0  0  0  0
  1  2  2  0
  2  3  1  0
  3  4  2  3
  4  5  1  0
  5  6  2  0
  6  7  1  0
  7  8  1  0
  8  9  2  0
  2 10  1  0
 10 11  1  0
 11 12  1  0
 12 13  1  0
 13 14  1  0
 14 15  2  0
 15 16  1  0
 16 17  2  0
 17 18  1  0
 18 19  2  0
 19 20  1  0
 20 21  2  0
 21 22  1  0
 22 23  2  0
 13 24  1  0
 24 25  1  0
  9  4  1  0
 25 10  1  0
 23 14  1  0
 23 18  1  0
  5 26  1  0
  6 27  1  0
  8 28  1  0
  9 29  1  0
 10 30  1  0
 11 31  1  0
 11 32  1  0
 12 33  1  0
 12 34  1  0
 15 35  1  0
 16 36  1  0
 17 37  1  0
 19 38  1  0
 20 39  1  0
 21 40  1  0
 22 41  1  0
 24 42  1  0
 24 43  1  0
 25 44  1  0
 25 45  1  0
M  CHG  2   7  -1  10   1
M  END
>  <UniqueID>  (55) 
52

>  <SMILES>  (55) 
O=C(N=c1cc[n-]cc1)[NH+]1CCN(c2cccc3ccccc23)CC1

>  <Energy>  (55) 
74.93534480830968

>  <Genealogy>  (55) 
O=C(N=c1cc[n-]cc1)[NH+]1CCN(c2cccc3ccccc23)CC1 (protonated)
O=C(N=c1cc[n-]cc1)[NH+]1CCN(c2cccc3ccccc23)CC1 (3D coordinates assigned)
O=C(N=c1cc[n-]cc1)[NH+]1CCN(c2cccc3ccccc23)CC1 (nonaromatic ring conformer: 74.93534480830968 kcal/mol)

>  <smiles>  (55) 
O=C(N=c1cc[nH]cc1)N1CCN(c2cccc3ccccc23)CC1

>  <score_type>  (55) 
oracle

>  <origin>  (55) 
adg

>  <m_score__min__energy>  (55) 
-9.4199999999999999

>  <m_primary>  (55) 
energy

$$$$
55:0
     RDKit          3D

 51 54  0  0  0  0  0  0  0  0999 V2000
   61.5890   31.2560   46.9830 C   0  0  0  0  0  0  0  0  0  0  0  0
   60.3910   31.7750   47.8090 C   0  0  2  0  0  0  0  0  0  0  0  0
   59.3780   32.4200   46.8310 C   0  0  0  0  0  0  0  0  0  0  0  0
   58.3210   31.6640   46.2650 C   0  0  0  0  0  0  0  0  0  0  0  0
   57.3810   32.2530   45.4020 C   0  0  0  0  0  0  0  0  0  0  0  0
   56.2850   31.5070   44.8490 N   0  0  0  0  0  0  0  0  0  0  0  0
   56.3200   30.1450   44.4090 C   0  0  0  0  0  0  0  0  0  0  0  0
   56.1480   29.8550   43.1950 O   0  0  0  0  0  0  0  0  0  0  0  0
   56.6060   29.1170   45.3610 N   0  0  0  0  0  0  0  0  0  0  0  0
   57.3230   27.8900   45.0310 C   0  0  0  0  0  0  0  0  0  0  0  0
   58.4530   27.6730   45.9870 C   0  0  0  0  0  0  0  0  0  0  0  0
   59.6910   27.1260   45.6700 C   0  0  0  0  0  0  0  0  0  0  0  0
   60.5410   27.0080   46.7750 C   0  0  0  0  0  0  0  0  0  0  0  0
   59.9690   27.4580   47.9610 C   0  0  0  0  0  0  0  0  0  0  0  0
   60.6080   27.4550   49.2850 C   0  0  0  0  0  0  0  0  0  0  0  0
   60.7510   26.2900   49.9750 N   0  0  0  0  0  0  0  0  0  0  0  0
   61.3350   26.2700   51.2010 C   0  0  0  0  0  0  0  0  0  0  0  0
   61.8010   27.4550   51.7690 C   0  0  0  0  0  0  0  0  0  0  0  0
   61.6490   28.6400   51.0500 C   0  0  0  0  0  0  0  0  0  0  0  0
   61.0570   28.6200   49.8280 N   0  0  0  0  0  0  0  0  0  0  0  0
   58.4090   28.0020   47.6360 S   0  0  0  0  0  0  0  0  0  0  0  0
   57.5390   33.5860   45.0230 C   0  0  0  0  0  0  0  0  0  0  0  0
   58.6010   34.3360   45.5200 C   0  0  0  0  0  0  0  0  0  0  0  0
   59.5160   33.7680   46.4110 C   0  0  0  0  0  0  0  0  0  0  0  0
   60.5510   34.5400   46.8270 F   0  0  0  0  0  0  0  0  0  0  0  0
   60.9070   32.8160   48.8760 C   0  0  0  0  0  0  0  0  0  0  0  0
   60.1760   32.8320   50.2360 C   0  0  0  0  0  0  0  0  0  0  0  0
   58.4080   32.4370   50.0710 S   0  0  0  0  0  0  0  0  0  0  0  0
   58.8470   30.7800   49.5660 C   0  0  0  0  0  0  0  0  0  0  0  0
   58.4090   29.7560   50.2290 N   0  0  0  0  0  0  0  0  0  0  0  0
   59.7880   30.6130   48.4960 N   0  0  0  0  0  0  0  0  0  0  0  0
   62.3821   30.9124   47.6634 H   0  0  0  0  0  0  0  0  0  0  0  0
   61.2619   30.4189   46.3488 H   0  0  0  0  0  0  0  0  0  0  0  0
   61.9760   32.0672   46.3488 H   0  0  0  0  0  0  0  0  0  0  0  0
   58.2346   30.5942   46.5062 H   0  0  0  0  0  0  0  0  0  0  0  0
   56.6297   27.0380   45.0900 H   0  0  0  0  0  0  0  0  0  0  0  0
   57.7291   27.9771   44.0124 H   0  0  0  0  0  0  0  0  0  0  0  0
   59.9739   26.8171   44.6529 H   0  0  0  0  0  0  0  0  0  0  0  0
   61.5606   26.5999   46.7124 H   0  0  0  0  0  0  0  0  0  0  0  0
   61.4402   25.3199   51.7453 H   0  0  0  0  0  0  0  0  0  0  0  0
   62.2772   27.4551   52.7606 H   0  0  0  0  0  0  0  0  0  0  0  0
   62.0083   29.5901   51.4722 H   0  0  0  0  0  0  0  0  0  0  0  0
   56.8212   34.0465   44.3283 H   0  0  0  0  0  0  0  0  0  0  0  0
   58.7212   35.3843   45.2090 H   0  0  0  0  0  0  0  0  0  0  0  0
   61.9675   32.5975   49.0697 H   0  0  0  0  0  0  0  0  0  0  0  0
   60.7164   33.8045   48.4326 H   0  0  0  0  0  0  0  0  0  0  0  0
   60.6445   32.0894   50.8987 H   0  0  0  0  0  0  0  0  0  0  0  0
   60.2577   33.8474   50.6512 H   0  0  0  0  0  0  0  0  0  0  0  0
   59.0680   29.0440   50.6150 H   0  0  0  0  0  0  0  0  0  0  0  0
   57.3850   29.6260   50.3910 H   0  0  0  0  0  0  0  0  0  0  0  0
   60.0420   29.6420   48.2040 H   0  0  0  0  0  0  0  0  0  0  0  0
  2  1  1  6
  2  3  1  0
  3  4  2  0
  4  5  1  0
  5  6  1  0
  6  7  1  0
  7  8  2  0
  7  9  1  0
  9 10  1  0
 10 11  1  0
 11 12  2  0
 12 13  1  0
 13 14  2  0
 14 15  1  0
 15 16  2  0
 16 17  1  0
 17 18  2  0
 18 19  1  0
 19 20  2  0
 14 21  1  0
  5 22  2  0
 22 23  1  0
 23 24  2  0
 24 25  1  0
  2 26  1  0
 26 27  1  0
 27 28  1  0
 28 29  1  0
 29 30  2  0
 29 31  1  0
 31  2  1  0
 24  3  1  0
 21 11  1  0
 20 15  1  0
  1 32  1  0
  1 33  1  0
  1 34  1  0
  4 35  1  0
 10 36  1  0
 10 37  1  0
 12 38  1  0
 13 39  1  0
 17 40  1  0
 18 41  1  0
 19 42  1  0
 22 43  1  0
 23 44  1  0
 26 45  1  0
 26 46  1  0
 27 47  1  0
 27 48  1  0
 30 49  1  0
 30 50  1  0
 31 51  1  0
M  CHG  3   6  -1   9  -1  30   1
M  END
>  <UniqueID>  (56) 
53

>  <SMILES>  (56) 
C[C@]1(c2cc([N-]C(=O)[N-]Cc3ccc(-c4ncccn4)s3)ccc2F)CCSC(=[NH2+])N1

>  <Energy>  (56) 
91.49604197676841

>  <Genealogy>  (56) 
CC1(c2cc([N-]C(=O)[N-]Cc3ccc(-c4ncccn4)s3)ccc2F)CCSC(=[NH2+])N1 (protonated)
C[C@]1(c2cc([N-]C(=O)[N-]Cc3ccc(-c4ncccn4)s3)ccc2F)CCSC(=[NH2+])N1 (chirality)
C[C@]1(c2cc([N-]C(=O)[N-]Cc3ccc(-c4ncccn4)s3)ccc2F)CCSC(=[NH2+])N1 (3D coordinates assigned)
C[C@]1(c2cc([N-]C(=O)[N-]Cc3ccc(-c4ncccn4)s3)ccc2F)CCSC(=[NH2+])N1 (nonaromatic ring conformer: 91.49604197676841 kcal/mol)

>  <smiles>  (56) 
CC1(c2cc(NC(=O)NCc3ccc(-c4ncccn4)s3)ccc2F)CCSC(=N)N1

>  <score_type>  (56) 
oracle

>  <origin>  (56) 
adg

>  <m_score__min__energy>  (56) 
-11.960000000000001

>  <m_primary>  (56) 
energy

$$$$
56:0
     RDKit          3D

 58 61  0  0  0  0  0  0  0  0999 V2000
   57.0350   24.3500   43.0460 C   0  0  0  0  0  0  0  0  0  0  0  0
   56.2470   23.1460   43.5740 C   0  0  0  0  0  0  0  0  0  0  0  0
   54.7440   23.3460   43.3290 C   0  0  0  0  0  0  0  0  0  0  0  0
   56.7460   21.8460   42.9080 C   0  0  0  0  0  0  0  0  0  0  0  0
   57.1710   20.8620   43.9280 N   0  0  0  0  0  0  0  0  0  0  0  0
   58.0500   21.4930   44.9390 C   0  0  0  0  0  0  0  0  0  0  0  0
   58.1170   20.6530   46.2220 C   0  0  0  0  0  0  0  0  0  0  0  0
   56.7850   20.5030   46.8650 N   0  0  0  0  0  0  0  0  0  0  0  0
   56.6200   21.4080   48.0200 C   0  0  0  0  0  0  0  0  0  0  0  0
   56.5770   22.8330   47.5610 C   0  0  0  0  0  0  0  0  0  0  0  0
   57.6330   23.7380   47.6500 C   0  0  0  0  0  0  0  0  0  0  0  0
   57.3030   24.9920   47.1260 C   0  0  0  0  0  0  0  0  0  0  0  0
   58.1310   26.1130   47.0840 C   0  0  0  0  0  0  0  0  0  0  0  0
   57.6200   27.3040   46.5240 C   0  0  0  0  0  0  0  0  0  0  0  0
   58.4560   28.5260   46.4580 C   0  0  0  0  0  0  0  0  0  0  0  0
   59.4290   28.7290   47.4560 C   0  0  0  0  0  0  0  0  0  0  0  0
   60.2700   29.8420   47.4140 C   0  0  0  0  0  0  0  0  0  0  0  0
   60.1510   30.7700   46.3810 C   0  0  0  0  0  0  0  0  0  0  0  0
   59.1840   30.5960   45.3920 C   0  0  0  0  0  0  0  0  0  0  0  0
   58.3230   29.4840   45.4160 C   0  0  0  0  0  0  0  0  0  0  0  0
   57.0750   29.3660   44.1600 S   0  0  0  0  0  0  0  0  0  0  0  0
   55.5060   29.2720   44.8870 N   0  0  0  0  0  0  0  0  0  0  0  0
   57.1520   30.5560   43.2450 O   0  0  0  0  0  0  0  0  0  0  0  0
   57.3020   28.1290   43.3360 O   0  0  0  0  0  0  0  0  0  0  0  0
   56.3450   27.3260   46.0240 N   0  0  0  0  0  0  0  0  0  0  0  0
   55.5290   26.2360   46.0640 C   0  0  0  0  0  0  0  0  0  0  0  0
   54.3590   26.3010   45.6030 O   0  0  0  0  0  0  0  0  0  0  0  0
   56.0160   25.0610   46.6270 C   0  0  0  0  0  0  0  0  0  0  0  0
   55.2470   23.5800   46.8260 S   0  0  0  0  0  0  0  0  0  0  0  0
   55.6570   20.6590   45.9180 C   0  0  0  0  0  0  0  0  0  0  0  0
   56.0190   20.1330   44.5220 C   0  0  0  0  0  0  0  0  0  0  0  0
   57.4191   24.9369   43.8933 H   0  0  0  0  0  0  0  0  0  0  0  0
   57.8772   23.9967   42.4329 H   0  0  0  0  0  0  0  0  0  0  0  0
   56.3742   24.9804   42.4329 H   0  0  0  0  0  0  0  0  0  0  0  0
   56.4107   23.0608   44.6584 H   0  0  0  0  0  0  0  0  0  0  0  0
   54.2212   23.4156   44.2943 H   0  0  0  0  0  0  0  0  0  0  0  0
   54.5857   24.2731   42.7586 H   0  0  0  0  0  0  0  0  0  0  0  0
   54.3487   22.4925   42.7586 H   0  0  0  0  0  0  0  0  0  0  0  0
   55.9325   21.4136   42.3069 H   0  0  0  0  0  0  0  0  0  0  0  0
   57.6087   22.0861   42.2691 H   0  0  0  0  0  0  0  0  0  0  0  0
   59.0630   21.5913   44.5217 H   0  0  0  0  0  0  0  0  0  0  0  0
   57.6357   22.4802   45.1916 H   0  0  0  0  0  0  0  0  0  0  0  0
   58.5041   19.6542   45.9717 H   0  0  0  0  0  0  0  0  0  0  0  0
   58.7780   21.1722   46.9315 H   0  0  0  0  0  0  0  0  0  0  0  0
   55.6814   21.1656   48.5399 H   0  0  0  0  0  0  0  0  0  0  0  0
   57.4729   21.2771   48.7022 H   0  0  0  0  0  0  0  0  0  0  0  0
   58.6143   23.4939   48.0830 H   0  0  0  0  0  0  0  0  0  0  0  0
   59.1573   26.0705   47.4776 H   0  0  0  0  0  0  0  0  0  0  0  0
   59.5270   28.0031   48.2766 H   0  0  0  0  0  0  0  0  0  0  0  0
   61.0282   29.9871   48.1977 H   0  0  0  0  0  0  0  0  0  0  0  0
   60.8214   31.6414   46.3460 H   0  0  0  0  0  0  0  0  0  0  0  0
   59.0933   31.3367   44.5838 H   0  0  0  0  0  0  0  0  0  0  0  0
   55.6050   29.5450   45.8910 H   0  0  0  0  0  0  0  0  0  0  0  0
   55.2110   28.2700   44.8730 H   0  0  0  0  0  0  0  0  0  0  0  0
   54.7907   20.0977   46.2981 H   0  0  0  0  0  0  0  0  0  0  0  0
   55.4223   21.7304   45.8335 H   0  0  0  0  0  0  0  0  0  0  0  0
   56.2774   19.0667   44.6013 H   0  0  0  0  0  0  0  0  0  0  0  0
   55.1485   20.2865   43.8672 H   0  0  0  0  0  0  0  0  0  0  0  0
  1  2  1  0
  2  3  1  0
  2  4  1  0
  4  5  1  0
  5  6  1  0
  6  7  1  0
  7  8  1  0
  8  9  1  0
  9 10  1  0
 10 11  2  0
 11 12  1  0
 12 13  1  0
 13 14  2  0
 14 15  1  0
 15 16  2  0
 16 17  1  0
 17 18  2  0
 18 19  1  0
 19 20  2  0
 20 21  1  0
 21 22  1  0
 21 23  2  0
 21 24  2  0
 14 25  1  0
 25 26  1  0
 26 27  2  0
 26 28  1  0
 28 29  1  0
  8 30  1  0
 30 31  1  0
 31  5  1  0
 29 10  1  0
 28 12  2  0
 20 15  1  0
  1 32  1  0
  1 33  1  0
  1 34  1  0
  2 35  1  0
  3 36  1  0
  3 37  1  0
  3 38  1  0
  4 39  1  0
  4 40  1  0
  6 41  1  0
  6 42  1  0
  7 43  1  0
  7 44  1  0
  9 45  1  0
  9 46  1  0
 11 47  1  0
 13 48  1  0
 16 49  1  0
 17 50  1  0
 18 51  1  0
 19 52  1  0
 22 53  1  0
 22 54  1  0
 30 55  1  0
 30 56  1  0
 31 57  1  0
 31 58  1  0
M  CHG  1  25  -1
M  END
>  <UniqueID>  (57) 
54

>  <SMILES>  (57) 
CC(C)CN1CCN(Cc2cc3cc(-c4ccccc4S(N)(=O)=O)[n-]c(=O)c3s2)CC1

>  <Energy>  (57) 
107.12132975174731

>  <Genealogy>  (57) 
CC(C)CN1CCN(Cc2cc3cc(-c4ccccc4S(N)(=O)=O)[n-]c(=O)c3s2)CC1 (protonated)
CC(C)CN1CCN(Cc2cc3cc(-c4ccccc4S(N)(=O)=O)[n-]c(=O)c3s2)CC1 (3D coordinates assigned)
CC(C)CN1CCN(Cc2cc3cc(-c4ccccc4S(N)(=O)=O)[n-]c(=O)c3s2)CC1 (nonaromatic ring conformer: 107.12132975174731 kcal/mol)

>  <smiles>  (57) 
CC(C)CN1CCN(Cc2cc3cc(-c4ccccc4S(N)(=O)=O)[nH]c(=O)c3s2)CC1

>  <score_type>  (57) 
oracle

>  <origin>  (57) 
adg

>  <m_score__min__energy>  (57) 
-10.640000000000001

>  <m_primary>  (57) 
energy

$$$$
57:0
     RDKit          3D

 62 66  0  0  0  0  0  0  0  0999 V2000
   55.1917   29.8413   44.6485 H   0  0  0  0  0  0  0  0  0  0  0  0
   56.1010   29.2630   44.8690 C   0  0  0  0  0  0  0  0  0  0  0  0
   56.1290   27.9740   45.2640 N   0  0  0  0  0  0  0  0  0  0  0  0
   57.4410   27.6940   45.4140 C   0  0  0  0  0  0  0  0  0  0  0  0
   57.8227   26.7111   45.7274 H   0  0  0  0  0  0  0  0  0  0  0  0
   58.2330   28.7500   45.1380 N   0  0  0  0  0  0  0  0  0  0  0  0
   59.6970   28.7510   45.1300 C   0  0  0  0  0  0  0  0  0  0  0  0
   60.0603   27.7181   45.0244 H   0  0  0  0  0  0  0  0  0  0  0  0
   60.0504   29.3621   44.2864 H   0  0  0  0  0  0  0  0  0  0  0  0
   60.2240   29.3340   46.4120 C   0  0  0  0  0  0  0  0  0  0  0  0
   59.9470   28.7070   47.6550 C   0  0  0  0  0  0  0  0  0  0  0  0
   59.3709   27.7702   47.6762 H   0  0  0  0  0  0  0  0  0  0  0  0
   60.4020   29.2720   48.8590 C   0  0  0  0  0  0  0  0  0  0  0  0
   60.1921   28.7908   49.8257 H   0  0  0  0  0  0  0  0  0  0  0  0
   61.1270   30.4600   48.7910 C   0  0  0  0  0  0  0  0  0  0  0  0
   61.4000   31.0680   47.5940 C   0  0  0  0  0  0  0  0  0  0  0  0
   60.9700   30.5310   46.3820 C   0  0  0  0  0  0  0  0  0  0  0  0
   61.2057   31.0266   45.4287 H   0  0  0  0  0  0  0  0  0  0  0  0
   62.1350   32.2030   47.8720 C   0  0  0  0  0  0  0  0  0  0  0  0
   62.7480   33.1260   46.8630 C   0  0  0  0  0  0  0  0  0  0  0  0
   63.2843   33.9335   47.3829 H   0  0  0  0  0  0  0  0  0  0  0  0
   63.4530   32.5641   46.2327 H   0  0  0  0  0  0  0  0  0  0  0  0
   61.9567   33.5579   46.2327 H   0  0  0  0  0  0  0  0  0  0  0  0
   62.2530   32.2330   49.2660 C   0  0  0  0  0  0  0  0  0  0  0  0
   62.9530   33.2480   50.0690 C   0  0  0  0  0  0  0  0  0  0  0  0
   62.3460   34.3010   50.3950 O   0  0  0  0  0  0  0  0  0  0  0  0
   64.3270   33.0940   50.4250 N   0  0  0  0  0  0  0  0  0  0  0  0
   65.3190   33.8540   51.2050 C   0  0  0  0  0  0  0  0  0  0  0  0
   65.4135   34.8972   50.8691 H   0  0  0  0  0  0  0  0  0  0  0  0
   65.1198   33.9794   52.2795 H   0  0  0  0  0  0  0  0  0  0  0  0
   66.4970   33.0190   50.8270 C   0  0  0  0  0  0  0  0  0  0  0  0
   67.2725   33.5308   50.2383 H   0  0  0  0  0  0  0  0  0  0  0  0
   67.1807   32.5560   51.5538 H   0  0  0  0  0  0  0  0  0  0  0  0
   65.4840   32.2620   50.0370 C   0  0  0  0  0  0  0  0  0  0  0  0
   65.6825   32.2892   48.9554 H   0  0  0  0  0  0  0  0  0  0  0  0
   65.4085   31.1809   50.2252 H   0  0  0  0  0  0  0  0  0  0  0  0
   61.6490   31.1540   49.8170 N   0  0  0  0  0  0  0  0  0  0  0  0
   61.5890   30.9160   50.8320 H   0  0  0  0  0  0  0  0  0  0  0  0
   57.3900   29.7420   44.7850 C   0  0  0  0  0  0  0  0  0  0  0  0
   57.7830   31.1310   44.3720 C   0  0  0  0  0  0  0  0  0  0  0  0
   57.2475   31.3983   43.4491 H   0  0  0  0  0  0  0  0  0  0  0  0
   58.8698   31.1556   44.2037 H   0  0  0  0  0  0  0  0  0  0  0  0
   57.4480   32.0950   45.4170 N   0  0  0  0  0  0  0  0  0  0  0  0
   58.1950   33.0950   45.7810 C   0  0  0  0  0  0  0  0  0  0  0  0
   58.5970   34.0240   44.8680 N   0  0  0  0  0  0  0  0  0  0  0  0
   59.3210   35.1180   45.2180 C   0  0  0  0  0  0  0  0  0  0  0  0
   59.6376   35.8371   44.4482 H   0  0  0  0  0  0  0  0  0  0  0  0
   59.6630   35.3300   46.5520 C   0  0  0  0  0  0  0  0  0  0  0  0
   60.2373   36.2216   46.8440 H   0  0  0  0  0  0  0  0  0  0  0  0
   59.2690   34.3990   47.5130 C   0  0  0  0  0  0  0  0  0  0  0  0
   59.5192   34.5650   48.5712 H   0  0  0  0  0  0  0  0  0  0  0  0
   58.5570   33.2550   47.1370 C   0  0  0  0  0  0  0  0  0  0  0  0
   58.1560   32.3290   48.1580 N   0  0  0  0  0  0  0  0  0  0  0  0
   58.6070   32.3450   49.5180 C   0  0  0  0  0  0  0  0  0  0  0  0
   59.2780   33.3180   49.9580 O   0  0  0  0  0  0  0  0  0  0  0  0
   58.1860   31.2540   50.4490 C   0  0  0  0  0  0  0  0  0  0  0  0
   59.0782   30.7164   50.8025 H   0  0  0  0  0  0  0  0  0  0  0  0
   57.5160   30.5677   49.9104 H   0  0  0  0  0  0  0  0  0  0  0  0
   57.4390   31.8290   51.6490 C   0  0  0  0  0  0  0  0  0  0  0  0
   57.9058   31.4697   52.5780 H   0  0  0  0  0  0  0  0  0  0  0  0
   57.4842   32.9276   51.6170 H   0  0  0  0  0  0  0  0  0  0  0  0
   56.3885   31.5042   51.6170 H   0  0  0  0  0  0  0  0  0  0  0  0
  1  2  1  0
  2  3  1  0
  3  4  2  0
  4  5  1  0
  4  6  1  0
  6  7  1  0
  7  8  1  0
  7  9  1  0
  7 10  1  0
 10 11  2  0
 11 12  1  0
 11 13  1  0
 13 14  1  0
 13 15  2  0
 15 16  1  0
 16 17  2  0
 17 18  1  0
 16 19  1  0
 19 20  1  0
 20 21  1  0
 20 22  1  0
 20 23  1  0
 19 24  2  0
 24 25  1  0
 25 26  2  0
 25 27  1  0
 27 28  1  0
 28 29  1  0
 28 30  1  0
 28 31  1  0
 31 32  1  0
 31 33  1  0
 31 34  1  0
 34 35  1  0
 34 36  1  0
 24 37  1  0
 37 38  1  0
  6 39  1  0
 39 40  1  0
 40 41  1  0
 40 42  1  0
 40 43  1  0
 43 44  2  0
 44 45  1  0
 45 46  1  0
 46 47  1  0
 46 48  2  0
 48 49  1  0
 48 50  1  0
 50 51  1  0
 50 52  2  0
 52 53  1  0
 53 54  1  0
 54 55  2  0
 54 56  1  0
 56 57  1  0
 56 58  1  0
 56 59  1  0
 59 60  1  0
 59 61  1  0
 59 62  1  0
 39  2  2  0
 52 44  1  0
 17 10  1  0
 34 27  1  0
 37 15  1  0
M  CHG  2  45  -1  53  -1
M  END
>  <UniqueID>  (58) 
55

>  <SMILES>  (58) 
CCC(=O)[N-]c1ccc[n-]/c1=N\Cc1cncn1Cc1ccc2[nH]c(C(=O)N3CCC3)c(C)c2c1

>  <Energy>  (58) 
174.23568278087288

>  <Genealogy>  (58) 
CCC(=O)[N-]c1ccc[n-]c1=NCc1cncn1Cc1ccc2[nH]c(C(=O)N3CCC3)c(C)c2c1 (protonated)
CCC(=O)[N-]c1ccc[n-]/c1=N\Cc1cncn1Cc1ccc2[nH]c(C(=O)N3CCC3)c(C)c2c1 (cis-trans isomerization)
CCC(=O)[N-]c1ccc[n-]/c1=N\Cc1cncn1Cc1ccc2[nH]c(C(=O)N3CCC3)c(C)c2c1 (3D coordinates assigned)
CCC(=O)[N-]c1ccc[n-]/c1=N\Cc1cncn1Cc1ccc2[nH]c(C(=O)N3CCC3)c(C)c2c1 (nonaromatic ring conformer: 174.23568278087288 kcal/mol)

>  <smiles>  (58) 
CCC(=O)Nc1ccc[nH]c1=NCc1cncn1Cc1ccc2[nH]c(C(=O)N3CCC3)c(C)c2c1

>  <score_type>  (58) 
oracle

>  <origin>  (58) 
adg

>  <m_score__min__energy>  (58) 
-12.970000000000001

>  <m_primary>  (58) 
energy

$$$$
58:0
     RDKit          3D

 66 70  0  0  0  0  0  0  0  0999 V2000
   62.5080   33.8440   46.3690 N   0  0  0  0  0  0  0  0  0  0  0  0
   62.7080   32.7570   47.2720 C   0  0  0  0  0  0  0  0  0  0  0  0
   63.8800   32.4890   47.6580 O   0  0  0  0  0  0  0  0  0  0  0  0
   61.5570   31.9630   47.7630 C   0  0  0  0  0  0  0  0  0  0  0  0
   61.4330   31.6590   49.1320 C   0  0  0  0  0  0  0  0  0  0  0  0
   60.3400   30.9270   49.6000 C   0  0  0  0  0  0  0  0  0  0  0  0
   59.3550   30.4930   48.7120 C   0  0  0  0  0  0  0  0  0  0  0  0
   59.4570   30.7890   47.3430 C   0  0  0  0  0  0  0  0  0  0  0  0
   58.4080   30.3300   46.4070 C   0  0  0  0  0  0  0  0  0  0  0  0
   58.0720   28.9700   46.3660 C   0  0  0  0  0  0  0  0  0  0  0  0
   56.9940   28.5230   45.5880 C   0  0  0  0  0  0  0  0  0  0  0  0
   56.6290   27.0870   45.5560 C   0  0  0  0  0  0  0  0  0  0  0  0
   55.4980   26.7220   45.9850 O   0  0  0  0  0  0  0  0  0  0  0  0
   57.5290   26.1150   45.0010 N   0  0  0  0  0  0  0  0  0  0  0  0
   57.4800   24.7140   45.3140 C   0  0  0  0  0  0  0  0  0  0  0  0
   58.0900   23.7940   44.4460 C   0  0  0  0  0  0  0  0  0  0  0  0
   58.0890   22.4310   44.7470 C   0  0  0  0  0  0  0  0  0  0  0  0
   57.4890   21.9730   45.9220 C   0  0  0  0  0  0  0  0  0  0  0  0
   56.8760   22.8760   46.8020 C   0  0  0  0  0  0  0  0  0  0  0  0
   56.2750   22.3880   48.0600 C   0  0  0  0  0  0  0  0  0  0  0  0
   57.0410   21.9960   48.9750 O   0  0  0  0  0  0  0  0  0  0  0  0
   54.8420   22.3630   48.2620 N   0  0  0  0  0  0  0  0  0  0  0  0
   53.9470   22.2200   47.0940 C   0  0  0  0  0  0  0  0  0  0  0  0
   52.4650   22.2830   47.4710 C   0  0  0  0  0  0  0  0  0  0  0  0
   52.2150   21.6010   48.6730 O   0  0  0  0  0  0  0  0  0  0  0  0
   52.8200   22.3080   49.7310 C   0  0  0  0  0  0  0  0  0  0  0  0
   54.3470   22.2190   49.6410 C   0  0  0  0  0  0  0  0  0  0  0  0
   56.8880   24.2470   46.5020 C   0  0  0  0  0  0  0  0  0  0  0  0
   56.2770   29.4660   44.8400 C   0  0  0  0  0  0  0  0  0  0  0  0
   56.6330   30.7760   44.8630 N   0  0  0  0  0  0  0  0  0  0  0  0
   57.6750   31.2330   45.6100 C   0  0  0  0  0  0  0  0  0  0  0  0
   58.0380   32.6200   45.5200 N   0  0  0  0  0  0  0  0  0  0  0  0
   58.8910   33.1350   44.4640 C   0  0  0  0  0  0  0  0  0  0  0  0
   59.1720   34.5880   44.8280 C   0  0  0  0  0  0  0  0  0  0  0  0
   58.8750   34.6940   46.3290 C   0  0  2  0  0  0  0  0  0  0  0  0
   60.0540   34.5820   47.0900 O   0  0  0  0  0  0  0  0  0  0  0  0
   57.9100   33.5470   46.6360 C   0  0  0  0  0  0  0  0  0  0  0  0
   60.5640   31.5160   46.8730 C   0  0  0  0  0  0  0  0  0  0  0  0
   61.6520   33.8930   45.7740 H   0  0  0  0  0  0  0  0  0  0  0  0
   62.2035   32.0009   49.8387 H   0  0  0  0  0  0  0  0  0  0  0  0
   60.2552   30.6919   50.6712 H   0  0  0  0  0  0  0  0  0  0  0  0
   58.4956   29.9170   49.0856 H   0  0  0  0  0  0  0  0  0  0  0  0
   58.6595   28.2460   46.9497 H   0  0  0  0  0  0  0  0  0  0  0  0
   58.2050   26.4310   44.2660 H   0  0  0  0  0  0  0  0  0  0  0  0
   58.5716   24.1496   43.5232 H   0  0  0  0  0  0  0  0  0  0  0  0
   58.5617   21.7162   44.0574 H   0  0  0  0  0  0  0  0  0  0  0  0
   57.4974   20.8987   46.1582 H   0  0  0  0  0  0  0  0  0  0  0  0
   54.1637   23.0315   46.3837 H   0  0  0  0  0  0  0  0  0  0  0  0
   54.1345   21.2302   46.6524 H   0  0  0  0  0  0  0  0  0  0  0  0
   52.1695   23.3361   47.5883 H   0  0  0  0  0  0  0  0  0  0  0  0
   51.8825   21.8022   46.6713 H   0  0  0  0  0  0  0  0  0  0  0  0
   52.5165   23.3640   49.6793 H   0  0  0  0  0  0  0  0  0  0  0  0
   52.4961   21.8631   50.6834 H   0  0  0  0  0  0  0  0  0  0  0  0
   54.7835   23.0187   50.2573 H   0  0  0  0  0  0  0  0  0  0  0  0
   54.6444   21.2225   49.9995 H   0  0  0  0  0  0  0  0  0  0  0  0
   56.4308   24.9624   47.2014 H   0  0  0  0  0  0  0  0  0  0  0  0
   55.4203   29.1430   44.2303 H   0  0  0  0  0  0  0  0  0  0  0  0
   59.8297   32.5635   44.4171 H   0  0  0  0  0  0  0  0  0  0  0  0
   58.4103   33.0505   43.4782 H   0  0  0  0  0  0  0  0  0  0  0  0
   60.2233   34.8398   44.6245 H   0  0  0  0  0  0  0  0  0  0  0  0
   58.5580   35.2846   44.2383 H   0  0  0  0  0  0  0  0  0  0  0  0
   58.4396   35.6706   46.5871 H   0  0  0  0  0  0  0  0  0  0  0  0
   60.8160   34.4810   46.4550 H   0  0  0  0  0  0  0  0  0  0  0  0
   58.1874   33.0535   47.5792 H   0  0  0  0  0  0  0  0  0  0  0  0
   56.8762   33.9043   46.7526 H   0  0  0  0  0  0  0  0  0  0  0  0
   60.6547   31.7374   45.7993 H   0  0  0  0  0  0  0  0  0  0  0  0
  1  2  1  0
  2  3  2  0
  2  4  1  0
  4  5  2  0
  5  6  1  0
  6  7  2  0
  7  8  1  0
  8  9  1  0
  9 10  2  0
 10 11  1  0
 11 12  1  0
 12 13  2  0
 12 14  1  0
 14 15  1  0
 15 16  2  0
 16 17  1  0
 17 18  2  0
 18 19  1  0
 19 20  1  0
 20 21  2  0
 20 22  1  0
 22 23  1  0
 23 24  1  0
 24 25  1  0
 25 26  1  0
 26 27  1  0
 19 28  2  0
 11 29  2  0
 29 30  1  0
 30 31  2  0
 31 32  1  0
 32 33  1  0
 33 34  1  0
 34 35  1  0
 35 36  1  0
 35 37  1  0
  8 38  2  0
 38  4  1  0
 31  9  1  0
 37 32  1  0
 28 15  1  0
 27 22  1  0
  1 39  1  0
  5 40  1  0
  6 41  1  0
  7 42  1  0
 10 43  1  0
 14 44  1  0
 16 45  1  0
 17 46  1  0
 18 47  1  0
 23 48  1  0
 23 49  1  0
 24 50  1  0
 24 51  1  0
 26 52  1  0
 26 53  1  0
 27 54  1  0
 27 55  1  0
 28 56  1  0
 29 57  1  0
 33 58  1  0
 33 59  1  0
 34 60  1  0
 34 61  1  0
 35 62  1  6
 36 63  1  0
 37 64  1  0
 37 65  1  0
 38 66  1  0
M  CHG  1   1  -1
M  END
>  <UniqueID>  (59) 
56

>  <SMILES>  (59) 
[NH-]C(=O)c1cccc(-c2cc(C(=O)Nc3cccc(C(=O)N4CCOCC4)c3)cnc2N2CC[C@H](O)C2)c1

>  <Energy>  (59) 
96.94032757354438

>  <Genealogy>  (59) 
[NH-]C(=O)c1cccc(-c2cc(C(=O)Nc3cccc(C(=O)N4CCOCC4)c3)cnc2N2CCC(O)C2)c1 (protonated)
[NH-]C(=O)c1cccc(-c2cc(C(=O)Nc3cccc(C(=O)N4CCOCC4)c3)cnc2N2CC[C@H](O)C2)c1 (chirality)
[NH-]C(=O)c1cccc(-c2cc(C(=O)Nc3cccc(C(=O)N4CCOCC4)c3)cnc2N2CC[C@H](O)C2)c1 (3D coordinates assigned)
[NH-]C(=O)c1cccc(-c2cc(C(=O)Nc3cccc(C(=O)N4CCOCC4)c3)cnc2N2CC[C@H](O)C2)c1 (nonaromatic ring conformer: 96.94032757354438 kcal/mol)

>  <smiles>  (59) 
NC(=O)c1cccc(-c2cc(C(=O)Nc3cccc(C(=O)N4CCOCC4)c3)cnc2N2CCC(O)C2)c1

>  <score_type>  (59) 
oracle

>  <origin>  (59) 
adg

>  <m_score__min__energy>  (59) 
-12.49

>  <m_primary>  (59) 
energy

$$$$
59:0
     RDKit          3D

 44 45  0  0  0  0  0  0  0  0999 V2000
   57.8760   34.2080   44.8970 C   0  0  0  0  0  0  0  0  0  0  0  0
   58.8000   34.7030   45.8610 O   0  0  0  0  0  0  0  0  0  0  0  0
   60.1060   34.2540   45.9220 N   0  0  0  0  0  0  0  0  0  0  0  0
   60.5200   33.2690   46.6670 C   0  0  0  0  0  0  0  0  0  0  0  0
   59.5360   32.2280   47.1200 C   0  0  0  0  0  0  0  0  0  0  0  0
   60.1720   30.9010   47.1940 N   0  0  0  0  0  0  0  0  0  0  0  0
   59.3820   29.7240   46.9380 C   0  0  0  0  0  0  0  0  0  0  0  0
   59.3440   28.6720   47.8690 C   0  0  0  0  0  0  0  0  0  0  0  0
   58.5750   27.5330   47.6180 C   0  0  0  0  0  0  0  0  0  0  0  0
   57.8270   27.4330   46.4370 C   0  0  0  0  0  0  0  0  0  0  0  0
   56.8690   25.9920   46.1130 S   0  0  0  0  0  0  0  0  0  0  0  0
   55.2010   26.4230   45.9900 N   0  0  0  0  0  0  0  0  0  0  0  0
   57.3170   25.3610   44.8250 O   0  0  0  0  0  0  0  0  0  0  0  0
   57.0520   24.9990   47.2260 O   0  0  0  0  0  0  0  0  0  0  0  0
   57.8640   28.4790   45.5050 C   0  0  0  0  0  0  0  0  0  0  0  0
   58.6340   29.6180   45.7550 C   0  0  0  0  0  0  0  0  0  0  0  0
   61.5150   30.7580   47.7930 C   0  0  2  0  0  0  0  0  0  0  0  0
   61.4310   30.9590   49.3160 C   0  0  0  0  0  0  0  0  0  0  0  0
   62.5010   31.7390   47.1110 C   0  0  2  0  0  0  0  0  0  0  0  0
   63.8220   31.6920   47.7470 N   0  0  0  0  0  0  0  0  0  0  0  0
   61.9200   33.1310   47.1250 C   0  0  0  0  0  0  0  0  0  0  0  0
   62.5840   34.1210   47.6450 N   0  0  0  0  0  0  0  0  0  0  0  0
   63.4000   33.9700   48.7440 O   0  0  0  0  0  0  0  0  0  0  0  0
   62.9090   34.2480   50.0430 C   0  0  0  0  0  0  0  0  0  0  0  0
   57.0193   33.7490   45.4122 H   0  0  0  0  0  0  0  0  0  0  0  0
   57.5234   35.0380   44.2671 H   0  0  0  0  0  0  0  0  0  0  0  0
   58.3716   33.4546   44.2671 H   0  0  0  0  0  0  0  0  0  0  0  0
   59.1553   32.5010   48.1152 H   0  0  0  0  0  0  0  0  0  0  0  0
   58.7119   32.1830   46.3928 H   0  0  0  0  0  0  0  0  0  0  0  0
   59.9234   28.7458   48.8011 H   0  0  0  0  0  0  0  0  0  0  0  0
   58.5565   26.7119   48.3497 H   0  0  0  0  0  0  0  0  0  0  0  0
   55.1550   27.4670   45.9990 H   0  0  0  0  0  0  0  0  0  0  0  0
   57.2846   28.4031   44.5730 H   0  0  0  0  0  0  0  0  0  0  0  0
   58.6541   30.4364   45.0203 H   0  0  0  0  0  0  0  0  0  0  0  0
   61.9010   29.7421   47.6228 H   0  0  0  0  0  0  0  0  0  0  0  0
   61.8068   30.0597   49.8258 H   0  0  0  0  0  0  0  0  0  0  0  0
   62.0417   31.8268   49.6056 H   0  0  0  0  0  0  0  0  0  0  0  0
   60.3844   31.1342   49.6056 H   0  0  0  0  0  0  0  0  0  0  0  0
   62.6446   31.4337   46.0640 H   0  0  0  0  0  0  0  0  0  0  0  0
   63.6940   31.8140   48.7790 H   0  0  0  0  0  0  0  0  0  0  0  0
   64.3680   32.5270   47.4300 H   0  0  0  0  0  0  0  0  0  0  0  0
   63.6096   33.8513   50.7925 H   0  0  0  0  0  0  0  0  0  0  0  0
   62.8105   35.3359   50.1727 H   0  0  0  0  0  0  0  0  0  0  0  0
   61.9255   33.7727   50.1727 H   0  0  0  0  0  0  0  0  0  0  0  0
  1  2  1  0
  2  3  1  0
  3  4  2  3
  4  5  1  0
  5  6  1  0
  6  7  1  0
  7  8  2  0
  8  9  1  0
  9 10  2  0
 10 11  1  0
 11 12  1  0
 11 13  2  0
 11 14  2  0
 10 15  1  0
 15 16  2  0
  6 17  1  0
 17 18  1  0
 17 19  1  0
 19 20  1  0
 19 21  1  0
 21 22  2  3
 22 23  1  0
 23 24  1  0
 21  4  1  0
 16  7  1  0
  1 25  1  0
  1 26  1  0
  1 27  1  0
  5 28  1  0
  5 29  1  0
  8 30  1  0
  9 31  1  0
 12 32  1  0
 15 33  1  0
 16 34  1  0
 17 35  1  1
 18 36  1  0
 18 37  1  0
 18 38  1  0
 19 39  1  6
 20 40  1  0
 20 41  1  0
 24 42  1  0
 24 43  1  0
 24 44  1  0
M  CHG  1  12  -1
M  END
>  <UniqueID>  (60) 
57

>  <SMILES>  (60) 
CON=C1CN(c2ccc(S([NH-])(=O)=O)cc2)[C@H](C)[C@H](N)C1=NOC

>  <Energy>  (60) 
55.35539668640495

>  <Genealogy>  (60) 
CON=C1CN(c2ccc(S([NH-])(=O)=O)cc2)C(C)C(N)C1=NOC (protonated)
CON=C1CN(c2ccc(S([NH-])(=O)=O)cc2)[C@H](C)[C@H](N)C1=NOC (chirality)
CON=C1CN(c2ccc(S([NH-])(=O)=O)cc2)[C@H](C)[C@H](N)C1=NOC (3D coordinates assigned)
CON=C1CN(c2ccc(S([NH-])(=O)=O)cc2)[C@H](C)[C@H](N)C1=NOC (nonaromatic ring conformer: 55.35539668640495 kcal/mol)

>  <smiles>  (60) 
CON=C1CN(c2ccc(S(N)(=O)=O)cc2)C(C)C(N)C1=NOC

>  <score_type>  (60) 
oracle

>  <origin>  (60) 
adg

>  <m_score__min__energy>  (60) 
-9.7400000000000002

>  <m_primary>  (60) 
energy

$$$$
60:0
     RDKit          3D

 53 56  0  0  0  0  0  0  0  0999 V2000
   57.7140   30.2967   46.8401 H   0  0  0  0  0  0  0  0  0  0  0  0
   57.9540   31.1680   46.2130 C   0  0  0  0  0  0  0  0  0  0  0  0
   58.6640   32.2350   46.7560 C   0  0  0  0  0  0  0  0  0  0  0  0
   58.9905   32.1974   47.8058 H   0  0  0  0  0  0  0  0  0  0  0  0
   58.9650   33.3570   45.9720 C   0  0  0  0  0  0  0  0  0  0  0  0
   59.7490   34.7680   46.6950 S   0  0  0  0  0  0  0  0  0  0  0  0
   58.8850   35.3040   47.8030 O   0  0  0  0  0  0  0  0  0  0  0  0
   59.8900   35.8460   45.6550 O   0  0  0  0  0  0  0  0  0  0  0  0
   61.3270   34.3590   47.3340 N   0  0  0  0  0  0  0  0  0  0  0  0
   61.1980   33.7570   48.6750 C   0  0  0  0  0  0  0  0  0  0  0  0
   60.5460   34.3878   49.2971 H   0  0  0  0  0  0  0  0  0  0  0  0
   60.7616   32.7517   48.5810 H   0  0  0  0  0  0  0  0  0  0  0  0
   62.5860   33.6490   49.3350 C   0  0  0  0  0  0  0  0  0  0  0  0
   62.8057   34.5949   49.8517 H   0  0  0  0  0  0  0  0  0  0  0  0
   62.5579   32.8024   50.0368 H   0  0  0  0  0  0  0  0  0  0  0  0
   63.7050   33.3730   48.3120 C   0  0  0  0  0  0  0  0  0  0  0  0
   64.1493   34.3303   48.0019 H   0  0  0  0  0  0  0  0  0  0  0  0
   64.4566   32.7276   48.7900 H   0  0  0  0  0  0  0  0  0  0  0  0
   63.1710   32.6500   47.0750 C   0  0  0  0  0  0  0  0  0  0  0  0
   63.9941   32.5082   46.3591 H   0  0  0  0  0  0  0  0  0  0  0  0
   62.7589   31.6799   47.3896 H   0  0  0  0  0  0  0  0  0  0  0  0
   62.0460   33.4620   46.3950 C   0  0  0  0  0  0  0  0  0  0  0  0
   62.4898   34.0744   45.5963 H   0  0  0  0  0  0  0  0  0  0  0  0
   61.3128   32.7421   46.0024 H   0  0  0  0  0  0  0  0  0  0  0  0
   58.5960   33.3750   44.6230 C   0  0  0  0  0  0  0  0  0  0  0  0
   58.8559   34.2397   43.9947 H   0  0  0  0  0  0  0  0  0  0  0  0
   57.8990   32.2990   44.0720 C   0  0  0  0  0  0  0  0  0  0  0  0
   57.6270   32.3135   43.0062 H   0  0  0  0  0  0  0  0  0  0  0  0
   57.5410   31.1950   44.8690 C   0  0  0  0  0  0  0  0  0  0  0  0
   56.7100   30.0810   44.3370 C   0  0  0  0  0  0  0  0  0  0  0  0
   55.7100   29.6900   45.0000 O   0  0  0  0  0  0  0  0  0  0  0  0
   57.0110   29.3840   43.0310 C   0  0  0  0  0  0  0  0  0  0  0  0
   56.0705   29.2676   42.4725 H   0  0  0  0  0  0  0  0  0  0  0  0
   57.7399   30.0057   42.4904 H   0  0  0  0  0  0  0  0  0  0  0  0
   57.7660   27.7290   43.2500 S   0  0  0  0  0  0  0  0  0  0  0  0
   58.7110   28.1370   44.7160 C   0  0  0  0  0  0  0  0  0  0  0  0
   58.2340   27.8210   46.2980 S   0  0  0  0  0  0  0  0  0  0  0  0
   59.5470   28.6680   46.9540 C   0  0  0  0  0  0  0  0  0  0  0  0
   59.7860   28.8740   48.2160 N   0  0  0  0  0  0  0  0  0  0  0  0
   60.5090   29.9690   48.7950 C   0  0  0  0  0  0  0  0  0  0  0  0
   61.4980   30.4890   48.2060 O   0  0  0  0  0  0  0  0  0  0  0  0
   60.0490   30.5140   50.1140 C   0  0  0  0  0  0  0  0  0  0  0  0
   61.0321   30.4713   50.6056 H   0  0  0  0  0  0  0  0  0  0  0  0
   58.9200   31.5280   49.9850 C   0  0  0  0  0  0  0  0  0  0  0  0
   58.8914   32.4059   50.6472 H   0  0  0  0  0  0  0  0  0  0  0  0
   58.5096   32.1336   49.1635 H   0  0  0  0  0  0  0  0  0  0  0  0
   58.6340   30.1430   50.5460 C   0  0  0  0  0  0  0  0  0  0  0  0
   58.3994   30.0197   51.6136 H   0  0  0  0  0  0  0  0  0  0  0  0
   57.9322   29.3330   50.2982 H   0  0  0  0  0  0  0  0  0  0  0  0
   60.3330   29.1830   45.9820 N   0  0  0  0  0  0  0  0  0  0  0  0
   61.1860   29.7540   46.1610 H   0  0  0  0  0  0  0  0  0  0  0  0
   59.8730   28.8990   44.7360 C   0  0  0  0  0  0  0  0  0  0  0  0
   60.3772   29.2428   43.8208 H   0  0  0  0  0  0  0  0  0  0  0  0
  1  2  1  0
  2  3  2  0
  3  4  1  0
  3  5  1  0
  5  6  1  0
  6  7  2  0
  6  8  2  0
  6  9  1  0
  9 10  1  0
 10 11  1  0
 10 12  1  0
 10 13  1  0
 13 14  1  0
 13 15  1  0
 13 16  1  0
 16 17  1  0
 16 18  1  0
 16 19  1  0
 19 20  1  0
 19 21  1  0
 19 22  1  0
 22 23  1  0
 22 24  1  0
  5 25  2  0
 25 26  1  0
 25 27  1  0
 27 28  1  0
 27 29  2  0
 29 30  1  0
 30 31  2  0
 30 32  1  0
 32 33  1  0
 32 34  1  0
 32 35  1  0
 35 36  1  0
 36 37  1  0
 37 38  1  0
 38 39  2  0
 39 40  1  0
 40 41  2  0
 40 42  1  0
 42 43  1  0
 42 44  1  0
 44 45  1  0
 44 46  1  0
 44 47  1  0
 47 48  1  0
 47 49  1  0
 38 50  1  0
 50 51  1  0
 50 52  1  0
 52 53  1  0
 29  2  1  0
 52 36  2  0
 22  9  1  0
 47 42  1  0
M  END
>  <UniqueID>  (61) 
58

>  <SMILES>  (61) 
O=C(CSc1c[nH]/c(=N/C(=O)C2CC2)s1)c1ccc(S(=O)(=O)N2CCCCC2)cc1

>  <Energy>  (61) 
352.81526855640743

>  <Genealogy>  (61) 
O=C(CSc1c[nH]/c(=N/C(=O)C2CC2)s1)c1ccc(S(=O)(=O)N2CCCCC2)cc1 (cis-trans isomerization)
O=C(CSc1c[nH]/c(=N/C(=O)C2CC2)s1)c1ccc(S(=O)(=O)N2CCCCC2)cc1 (3D coordinates assigned)
O=C(CSc1c[nH]/c(=N/C(=O)C2CC2)s1)c1ccc(S(=O)(=O)N2CCCCC2)cc1 (nonaromatic ring conformer: 352.81526855640743 kcal/mol)

>  <smiles>  (61) 
O=C(CSc1c[nH]c(=NC(=O)C2CC2)s1)c1ccc(S(=O)(=O)N2CCCCC2)cc1

>  <score_type>  (61) 
oracle

>  <origin>  (61) 
adg

>  <m_score__min__energy>  (61) 
-10.51

>  <m_primary>  (61) 
energy

$$$$
61:0
     RDKit          3D

 66 69  0  0  0  0  0  0  0  0999 V2000
   60.5117   25.8082   47.0047 H   0  0  0  0  0  0  0  0  0  0  0  0
   59.9120   26.6880   47.2810 C   0  0  0  0  0  0  0  0  0  0  0  0
   59.9130   27.0760   48.5660 C   0  0  0  0  0  0  0  0  0  0  0  0
   59.8754   26.2986   49.3433 H   0  0  0  0  0  0  0  0  0  0  0  0
   59.9620   28.4940   48.9960 C   0  0  0  0  0  0  0  0  0  0  0  0
   61.1270   28.9600   49.6260 C   0  0  0  0  0  0  0  0  0  0  0  0
   61.9817   28.2810   49.7616 H   0  0  0  0  0  0  0  0  0  0  0  0
   61.2110   30.2770   50.0820 C   0  0  0  0  0  0  0  0  0  0  0  0
   62.1399   30.6367   50.5486 H   0  0  0  0  0  0  0  0  0  0  0  0
   60.1180   31.1420   49.9480 C   0  0  0  0  0  0  0  0  0  0  0  0
   60.2010   32.4990   50.5130 C   0  0  0  0  0  0  0  0  0  0  0  0
   59.2900   33.3250   50.2370 O   0  0  0  0  0  0  0  0  0  0  0  0
   61.3130   32.9430   51.3040 N   0  0  0  0  0  0  0  0  0  0  0  0
   62.7420   32.7700   51.0410 C   0  0  0  0  0  0  0  0  0  0  0  0
   63.2831   32.8543   51.9950 H   0  0  0  0  0  0  0  0  0  0  0  0
   62.8650   31.7817   50.5738 H   0  0  0  0  0  0  0  0  0  0  0  0
   63.3210   33.8040   50.0620 C   0  0  0  0  0  0  0  0  0  0  0  0
   62.7500   34.7377   50.1721 H   0  0  0  0  0  0  0  0  0  0  0  0
   64.3846   33.9149   50.3196 H   0  0  0  0  0  0  0  0  0  0  0  0
   63.2650   33.3140   48.3350 S   0  0  0  0  0  0  0  0  0  0  0  0
   63.8820   34.3650   47.4550 O   0  0  0  0  0  0  0  0  0  0  0  0
   64.0270   32.0280   48.1610 O   0  0  0  0  0  0  0  0  0  0  0  0
   61.5950   33.0880   47.8790 N   0  0  0  0  0  0  0  0  0  0  0  0
   61.0370   33.0580   48.7640 H   0  0  0  0  0  0  0  0  0  0  0  0
   61.4220   31.8080   47.1570 C   0  0  0  0  0  0  0  0  0  0  0  0
   62.2564   31.6826   46.4513 H   0  0  0  0  0  0  0  0  0  0  0  0
   61.4051   30.9976   47.9006 H   0  0  0  0  0  0  0  0  0  0  0  0
   60.0960   31.7630   46.3730 C   0  0  0  0  0  0  0  0  0  0  0  0
   60.2821   32.0505   45.3277 H   0  0  0  0  0  0  0  0  0  0  0  0
   59.6888   30.7420   46.4151 H   0  0  0  0  0  0  0  0  0  0  0  0
   59.1170   32.6980   46.9700 N   0  0  0  0  0  0  0  0  0  0  0  0
   57.7530   32.4500   46.4160 C   0  0  0  0  0  0  0  0  0  0  0  0
   57.2753   31.8126   47.1746 H   0  0  0  0  0  0  0  0  0  0  0  0
   57.7350   31.7800   45.0320 C   0  0  0  0  0  0  0  0  0  0  0  0
   58.5330   31.0264   44.9598 H   0  0  0  0  0  0  0  0  0  0  0  0
   56.7840   31.2603   44.8436 H   0  0  0  0  0  0  0  0  0  0  0  0
   57.9710   32.8990   44.0340 C   0  0  0  0  0  0  0  0  0  0  0  0
   59.0454   33.0032   43.8225 H   0  0  0  0  0  0  0  0  0  0  0  0
   57.4697   32.6986   43.0756 H   0  0  0  0  0  0  0  0  0  0  0  0
   57.4350   34.1640   44.6930 C   0  0  0  0  0  0  0  0  0  0  0  0
   58.2075   34.9471   44.6945 H   0  0  0  0  0  0  0  0  0  0  0  0
   56.5635   34.5552   44.1476 H   0  0  0  0  0  0  0  0  0  0  0  0
   57.0630   33.7890   46.1260 C   0  0  0  0  0  0  0  0  0  0  0  0
   57.4188   34.5597   46.8256 H   0  0  0  0  0  0  0  0  0  0  0  0
   55.9726   33.7104   46.2475 H   0  0  0  0  0  0  0  0  0  0  0  0
   59.6040   34.0900   46.7890 C   0  0  0  0  0  0  0  0  0  0  0  0
   59.4029   34.4036   45.7540 H   0  0  0  0  0  0  0  0  0  0  0  0
   59.0750   34.7289   47.5115 H   0  0  0  0  0  0  0  0  0  0  0  0
   61.1220   34.2200   47.0630 C   0  0  0  0  0  0  0  0  0  0  0  0
   61.6638   34.2282   46.1057 H   0  0  0  0  0  0  0  0  0  0  0  0
   61.3072   35.1563   47.6099 H   0  0  0  0  0  0  0  0  0  0  0  0
   58.9570   30.6940   49.3040 C   0  0  0  0  0  0  0  0  0  0  0  0
   58.1084   31.3797   49.1634 H   0  0  0  0  0  0  0  0  0  0  0  0
   58.8740   29.3760   48.8390 C   0  0  0  0  0  0  0  0  0  0  0  0
   57.9537   29.0267   48.3480 H   0  0  0  0  0  0  0  0  0  0  0  0
   59.1480   27.3780   46.2110 C   0  0  0  0  0  0  0  0  0  0  0  0
   59.7700   28.1480   45.2060 C   0  0  0  0  0  0  0  0  0  0  0  0
   60.8653   28.2486   45.1933 H   0  0  0  0  0  0  0  0  0  0  0  0
   59.0020   28.7840   44.2260 C   0  0  0  0  0  0  0  0  0  0  0  0
   59.4959   29.3755   43.4410 H   0  0  0  0  0  0  0  0  0  0  0  0
   57.6090   28.6710   44.2400 C   0  0  0  0  0  0  0  0  0  0  0  0
   56.6490   29.4730   43.0100 Cl  0  0  0  0  0  0  0  0  0  0  0  0
   56.9820   27.9250   45.2410 C   0  0  0  0  0  0  0  0  0  0  0  0
   55.8854   27.8394   45.2567 H   0  0  0  0  0  0  0  0  0  0  0  0
   57.7460   27.2870   46.2230 C   0  0  0  0  0  0  0  0  0  0  0  0
   57.2445   26.7082   47.0126 H   0  0  0  0  0  0  0  0  0  0  0  0
  1  2  1  0
  2  3  2  0
  3  4  1  0
  3  5  1  0
  5  6  2  0
  6  7  1  0
  6  8  1  0
  8  9  1  0
  8 10  2  0
 10 11  1  0
 11 12  2  0
 11 13  1  0
 13 14  1  0
 14 15  1  0
 14 16  1  0
 14 17  1  0
 17 18  1  0
 17 19  1  0
 17 20  1  0
 20 21  2  0
 20 22  2  0
 20 23  1  0
 23 24  1  0
 23 25  1  0
 25 26  1  0
 25 27  1  0
 25 28  1  0
 28 29  1  0
 28 30  1  0
 28 31  1  0
 31 32  1  0
 32 33  1  0
 32 34  1  0
 34 35  1  0
 34 36  1  0
 34 37  1  0
 37 38  1  0
 37 39  1  0
 37 40  1  0
 40 41  1  0
 40 42  1  0
 40 43  1  0
 43 44  1  0
 43 45  1  0
 31 46  1  0
 46 47  1  0
 46 48  1  0
 46 49  1  0
 49 50  1  0
 49 51  1  0
 10 52  1  0
 52 53  1  0
 52 54  2  0
 54 55  1  0
  2 56  1  0
 56 57  2  0
 57 58  1  0
 57 59  1  0
 59 60  1  0
 59 61  2  0
 61 62  1  0
 61 63  1  0
 63 64  1  0
 63 65  2  0
 65 66  1  0
 54  5  1  0
 65 56  1  0
 49 23  1  0
 43 32  1  0
M  CHG  2  13  -1  23   1
M  END
>  <UniqueID>  (62) 
59

>  <SMILES>  (62) 
O=C([N-]CCS(=O)(=O)[NH+]1CCN(C2CCCC2)CC1)c1ccc(/C=C/c2ccc(Cl)cc2)cc1

>  <Energy>  (62) 
85.54077271835853

>  <Genealogy>  (62) 
O=C([N-]CCS(=O)(=O)[NH+]1CCN(C2CCCC2)CC1)c1ccc(C=Cc2ccc(Cl)cc2)cc1 (protonated)
O=C([N-]CCS(=O)(=O)[NH+]1CCN(C2CCCC2)CC1)c1ccc(/C=C/c2ccc(Cl)cc2)cc1 (cis-trans isomerization)
O=C([N-]CCS(=O)(=O)[NH+]1CCN(C2CCCC2)CC1)c1ccc(/C=C/c2ccc(Cl)cc2)cc1 (3D coordinates assigned)
O=C([N-]CCS(=O)(=O)[NH+]1CCN(C2CCCC2)CC1)c1ccc(/C=C/c2ccc(Cl)cc2)cc1 (nonaromatic ring conformer: 85.54077271835853 kcal/mol)

>  <smiles>  (62) 
O=C(NCCS(=O)(=O)N1CCN(C2CCCC2)CC1)c1ccc(C=Cc2ccc(Cl)cc2)cc1

>  <score_type>  (62) 
oracle

>  <origin>  (62) 
adg

>  <m_score__min__energy>  (62) 
-9.6400000000000006

>  <m_primary>  (62) 
energy

$$$$
62:0
     RDKit          3D

 40 42  0  0  0  0  0  0  0  0999 V2000
   56.6450   34.6180   44.8690 C   0  0  0  0  0  0  0  0  0  0  0  0
   56.8980   33.6930   45.9230 O   0  0  0  0  0  0  0  0  0  0  0  0
   58.1640   33.4420   46.4780 C   0  0  0  0  0  0  0  0  0  0  0  0
   58.8600   34.4260   47.2060 C   0  0  0  0  0  0  0  0  0  0  0  0
   60.1010   34.1410   47.7780 C   0  0  0  0  0  0  0  0  0  0  0  0
   60.6750   32.8720   47.6320 C   0  0  0  0  0  0  0  0  0  0  0  0
   61.9510   32.5730   48.2350 N   0  0  0  0  0  0  0  0  0  0  0  0
   61.9880   31.8250   49.3770 C   0  0  0  0  0  0  0  0  0  0  0  0
   63.2010   31.5250   49.9890 C   0  0  0  0  0  0  0  0  0  0  0  0
   64.3750   32.0010   49.4100 C   0  0  0  0  0  0  0  0  0  0  0  0
   65.4880   31.7480   49.9430 O   0  0  0  0  0  0  0  0  0  0  0  0
   64.3150   32.7390   48.2710 N   0  0  0  0  0  0  0  0  0  0  0  0
   63.1220   33.0240   47.6780 C   0  0  0  0  0  0  0  0  0  0  0  0
   63.1090   33.6910   46.6070 O   0  0  0  0  0  0  0  0  0  0  0  0
   59.9880   31.8870   46.9080 C   0  0  0  0  0  0  0  0  0  0  0  0
   58.7420   32.1620   46.3200 C   0  0  0  0  0  0  0  0  0  0  0  0
   58.0510   31.1000   45.5500 C   0  0  0  0  0  0  0  0  0  0  0  0
   57.5660   31.3560   44.2560 C   0  0  0  0  0  0  0  0  0  0  0  0
   56.9310   30.3470   43.5280 C   0  0  0  0  0  0  0  0  0  0  0  0
   56.7760   29.0740   44.0800 C   0  0  0  0  0  0  0  0  0  0  0  0
   57.2550   28.8040   45.3690 C   0  0  0  0  0  0  0  0  0  0  0  0
   57.0750   27.1940   46.0600 S   0  0  0  0  0  0  0  0  0  0  0  0
   55.4180   26.7120   45.9740 N   0  0  0  0  0  0  0  0  0  0  0  0
   57.9210   26.2150   45.2950 O   0  0  0  0  0  0  0  0  0  0  0  0
   57.5230   27.2000   47.4940 O   0  0  0  0  0  0  0  0  0  0  0  0
   57.8990   29.8140   46.0960 C   0  0  0  0  0  0  0  0  0  0  0  0
   56.3775   35.5959   45.2957 H   0  0  0  0  0  0  0  0  0  0  0  0
   57.5474   34.7230   44.2488 H   0  0  0  0  0  0  0  0  0  0  0  0
   55.8148   34.2491   44.2488 H   0  0  0  0  0  0  0  0  0  0  0  0
   58.4220   35.4280   47.3250 H   0  0  0  0  0  0  0  0  0  0  0  0
   60.6316   34.9184   48.3473 H   0  0  0  0  0  0  0  0  0  0  0  0
   61.0498   31.4562   49.8172 H   0  0  0  0  0  0  0  0  0  0  0  0
   63.2322   30.9248   50.9103 H   0  0  0  0  0  0  0  0  0  0  0  0
   65.2020   33.0890   47.8380 H   0  0  0  0  0  0  0  0  0  0  0  0
   60.4305   30.8858   46.7990 H   0  0  0  0  0  0  0  0  0  0  0  0
   57.6871   32.3561   43.8142 H   0  0  0  0  0  0  0  0  0  0  0  0
   56.5519   30.5560   42.5168 H   0  0  0  0  0  0  0  0  0  0  0  0
   56.2772   28.2819   43.5023 H   0  0  0  0  0  0  0  0  0  0  0  0
   54.9490   27.0800   46.8310 H   0  0  0  0  0  0  0  0  0  0  0  0
   58.2886   29.5986   47.1019 H   0  0  0  0  0  0  0  0  0  0  0  0
  1  2  1  0
  2  3  1  0
  3  4  2  0
  4  5  1  0
  5  6  2  0
  6  7  1  0
  7  8  1  0
  8  9  2  0
  9 10  1  0
 10 11  2  0
 10 12  1  0
 12 13  1  0
 13 14  2  0
  6 15  1  0
 15 16  2  0
 16 17  1  0
 17 18  2  0
 18 19  1  0
 19 20  2  0
 20 21  1  0
 21 22  1  0
 22 23  1  0
 22 24  2  0
 22 25  2  0
 21 26  2  0
 16  3  1  0
 26 17  1  0
 13  7  1  0
  1 27  1  0
  1 28  1  0
  1 29  1  0
  4 30  1  0
  5 31  1  0
  8 32  1  0
  9 33  1  0
 12 34  1  0
 15 35  1  0
 18 36  1  0
 19 37  1  0
 20 38  1  0
 23 39  1  0
 26 40  1  0
M  CHG  1  23  -1
M  END
>  <UniqueID>  (63) 
60

>  <SMILES>  (63) 
COc1ccc(-n2ccc(=O)[nH]c2=O)cc1-c1cccc(S([NH-])(=O)=O)c1

>  <Energy>  (63) 
57.065854943981606

>  <Genealogy>  (63) 
COc1ccc(-n2ccc(=O)[nH]c2=O)cc1-c1cccc(S([NH-])(=O)=O)c1 (protonated)
COc1ccc(-n2ccc(=O)[nH]c2=O)cc1-c1cccc(S([NH-])(=O)=O)c1 (3D coordinates assigned)
COc1ccc(-n2ccc(=O)[nH]c2=O)cc1-c1cccc(S([NH-])(=O)=O)c1 (optimized conformer: 57.065854943981606 kcal/mol)

>  <smiles>  (63) 
COc1ccc(-n2ccc(=O)[nH]c2=O)cc1-c1cccc(S(N)(=O)=O)c1

>  <score_type>  (63) 
oracle

>  <origin>  (63) 
adg

>  <m_score__min__energy>  (63) 
-11.51

>  <m_primary>  (63) 
energy

$$$$
63:0
     RDKit          3D

 46 48  0  0  0  0  0  0  0  0999 V2000
   59.9730   35.9530   46.7160 O   0  0  0  0  0  0  0  0  0  0  0  0
   59.3070   34.7390   46.9000 C   0  0  0  0  0  0  0  0  0  0  0  0
   58.6360   34.1960   45.7980 C   0  0  0  0  0  0  0  0  0  0  0  0
   57.9360   32.9850   45.9010 C   0  0  0  0  0  0  0  0  0  0  0  0
   57.2120   32.4030   44.7030 C   0  0  0  0  0  0  0  0  0  0  0  0
   57.0580   30.9310   44.7500 N   0  0  0  0  0  0  0  0  0  0  0  0
   56.0150   30.3890   43.8480 C   0  0  0  0  0  0  0  0  0  0  0  0
   56.6190   29.5760   42.6950 C   0  0  0  0  0  0  0  0  0  0  0  0
   57.4260   28.4430   43.1890 N   0  0  0  0  0  0  0  0  0  0  0  0
   58.1040   28.7010   44.4740 C   0  0  0  0  0  0  0  0  0  0  0  0
   58.3420   30.1970   44.7150 C   0  0  0  0  0  0  0  0  0  0  0  0
   57.8760   32.3390   47.1440 C   0  0  0  0  0  0  0  0  0  0  0  0
   58.5440   32.8670   48.2490 C   0  0  0  0  0  0  0  0  0  0  0  0
   59.2790   34.0590   48.1440 C   0  0  0  0  0  0  0  0  0  0  0  0
   59.9580   34.5910   49.3890 C   0  0  0  0  0  0  0  0  0  0  0  0
   61.0400   33.6320   49.9080 C   0  0  0  0  0  0  0  0  0  0  0  0
   62.0110   33.2340   48.8260 C   0  0  0  0  0  0  0  0  0  0  0  0
   62.0000   31.9260   48.3110 C   0  0  0  0  0  0  0  0  0  0  0  0
   62.8740   31.5700   47.2790 C   0  0  0  0  0  0  0  0  0  0  0  0
   63.7590   32.5140   46.7520 C   0  0  0  0  0  0  0  0  0  0  0  0
   63.7720   33.8170   47.2560 C   0  0  0  0  0  0  0  0  0  0  0  0
   62.9020   34.1790   48.2890 C   0  0  0  0  0  0  0  0  0  0  0  0
   59.5260   36.8570   46.7520 H   0  0  0  0  0  0  0  0  0  0  0  0
   58.6581   34.7278   44.8354 H   0  0  0  0  0  0  0  0  0  0  0  0
   56.2102   32.8543   44.6513 H   0  0  0  0  0  0  0  0  0  0  0  0
   57.8250   32.6311   43.8186 H   0  0  0  0  0  0  0  0  0  0  0  0
   55.3458   29.7378   44.4295 H   0  0  0  0  0  0  0  0  0  0  0  0
   55.4658   31.2378   43.4145 H   0  0  0  0  0  0  0  0  0  0  0  0
   55.8033   29.1861   42.0684 H   0  0  0  0  0  0  0  0  0  0  0  0
   57.2784   30.2397   42.1164 H   0  0  0  0  0  0  0  0  0  0  0  0
   58.1510   28.2240   42.4650 H   0  0  0  0  0  0  0  0  0  0  0  0
   57.4798   28.3060   45.2891 H   0  0  0  0  0  0  0  0  0  0  0  0
   59.0850   28.2043   44.4432 H   0  0  0  0  0  0  0  0  0  0  0  0
   58.8605   30.3301   45.6760 H   0  0  0  0  0  0  0  0  0  0  0  0
   58.9549   30.5949   43.8928 H   0  0  0  0  0  0  0  0  0  0  0  0
   57.2979   31.4090   47.2486 H   0  0  0  0  0  0  0  0  0  0  0  0
   58.4944   32.3430   49.2149 H   0  0  0  0  0  0  0  0  0  0  0  0
   60.4246   35.5588   49.1532 H   0  0  0  0  0  0  0  0  0  0  0  0
   59.1942   34.6984   50.1733 H   0  0  0  0  0  0  0  0  0  0  0  0
   61.5951   34.1282   50.7177 H   0  0  0  0  0  0  0  0  0  0  0  0
   60.5405   32.7201   50.2672 H   0  0  0  0  0  0  0  0  0  0  0  0
   61.3023   31.1808   48.7207 H   0  0  0  0  0  0  0  0  0  0  0  0
   62.8647   30.5445   46.8813 H   0  0  0  0  0  0  0  0  0  0  0  0
   64.4455   32.2313   45.9403 H   0  0  0  0  0  0  0  0  0  0  0  0
   64.4682   34.5597   46.8392 H   0  0  0  0  0  0  0  0  0  0  0  0
   62.9150   35.2062   48.6824 H   0  0  0  0  0  0  0  0  0  0  0  0
  1  2  1  0
  2  3  2  0
  3  4  1  0
  4  5  1  0
  5  6  1  0
  6  7  1  0
  7  8  1  0
  8  9  1  0
  9 10  1  0
 10 11  1  0
  4 12  2  0
 12 13  1  0
 13 14  2  0
 14 15  1  0
 15 16  1  0
 16 17  1  0
 17 18  2  0
 18 19  1  0
 19 20  2  0
 20 21  1  0
 21 22  2  0
 14  2  1  0
 22 17  1  0
 11  6  1  0
  1 23  1  0
  3 24  1  0
  5 25  1  0
  5 26  1  0
  7 27  1  0
  7 28  1  0
  8 29  1  0
  8 30  1  0
  9 31  1  0
 10 32  1  0
 10 33  1  0
 11 34  1  0
 11 35  1  0
 12 36  1  0
 13 37  1  0
 15 38  1  0
 15 39  1  0
 16 40  1  0
 16 41  1  0
 18 42  1  0
 19 43  1  0
 20 44  1  0
 21 45  1  0
 22 46  1  0
M  END
>  <UniqueID>  (64) 
61

>  <SMILES>  (64) 
Oc1cc(CN2CCNCC2)ccc1CCc1ccccc1

>  <Energy>  (64) 
58.126067063446726

>  <Genealogy>  (64) 
Oc1cc(CN2CCNCC2)ccc1CCc1ccccc1 (3D coordinates assigned)
Oc1cc(CN2CCNCC2)ccc1CCc1ccccc1 (nonaromatic ring conformer: 58.126067063446726 kcal/mol)

>  <smiles>  (64) 
Oc1cc(CN2CCNCC2)ccc1CCc1ccccc1

>  <score_type>  (64) 
oracle

>  <origin>  (64) 
adg

>  <m_score__min__energy>  (64) 
-8.9700000000000006

>  <m_primary>  (64) 
energy

$$$$
64:0
     RDKit          3D

 39 41  0  0  0  0  0  0  0  0999 V2000
   54.7720   27.0840   46.4090 H   0  0  0  0  0  0  0  0  0  0  0  0
   54.6310   26.1560   45.9500 N   0  0  0  0  0  0  0  0  0  0  0  0
   56.1510   25.3360   45.9970 S   0  0  0  0  0  0  0  0  0  0  0  0
   56.1950   24.4230   47.1900 O   0  0  0  0  0  0  0  0  0  0  0  0
   56.3090   24.5100   44.7510 O   0  0  0  0  0  0  0  0  0  0  0  0
   57.4540   26.5170   46.1030 C   0  0  0  0  0  0  0  0  0  0  0  0
   58.7350   26.1200   46.5040 C   0  0  0  0  0  0  0  0  0  0  0  0
   58.9272   25.0687   46.7645 H   0  0  0  0  0  0  0  0  0  0  0  0
   59.7680   27.0540   46.5740 C   0  0  0  0  0  0  0  0  0  0  0  0
   60.7727   26.7381   46.8914 H   0  0  0  0  0  0  0  0  0  0  0  0
   59.5300   28.3900   46.2420 C   0  0  0  0  0  0  0  0  0  0  0  0
   60.3494   29.1213   46.3034 H   0  0  0  0  0  0  0  0  0  0  0  0
   58.2520   28.8080   45.8300 C   0  0  0  0  0  0  0  0  0  0  0  0
   58.0170   30.2290   45.4750 C   0  0  0  0  0  0  0  0  0  0  0  0
   56.8250   30.7040   45.0460 N   0  0  0  0  0  0  0  0  0  0  0  0
   56.9580   32.0000   44.8130 N   0  0  0  0  0  0  0  0  0  0  0  0
   56.1940   32.5980   44.4310 H   0  0  0  0  0  0  0  0  0  0  0  0
   58.2260   32.3600   45.0930 C   0  0  0  0  0  0  0  0  0  0  0  0
   58.7260   33.5510   44.9390 N   0  0  0  0  0  0  0  0  0  0  0  0
   59.0190   34.4810   45.9900 C   0  0  0  0  0  0  0  0  0  0  0  0
   59.2940   35.6730   45.6890 O   0  0  0  0  0  0  0  0  0  0  0  0
   59.1080   34.0450   47.4260 C   0  0  0  0  0  0  0  0  0  0  0  0
   58.9547   34.9165   48.0794 H   0  0  0  0  0  0  0  0  0  0  0  0
   58.3334   33.2878   47.6172 H   0  0  0  0  0  0  0  0  0  0  0  0
   60.4580   33.4440   47.7100 C   0  0  0  0  0  0  0  0  0  0  0  0
   60.6000   32.4650   48.7080 C   0  0  0  0  0  0  0  0  0  0  0  0
   59.7256   32.1529   49.2979 H   0  0  0  0  0  0  0  0  0  0  0  0
   61.8490   31.8860   48.9540 C   0  0  0  0  0  0  0  0  0  0  0  0
   61.9565   31.1247   49.7406 H   0  0  0  0  0  0  0  0  0  0  0  0
   62.9610   32.2740   48.2010 C   0  0  0  0  0  0  0  0  0  0  0  0
   64.1720   31.7110   48.4400 F   0  0  0  0  0  0  0  0  0  0  0  0
   62.8260   33.2390   47.1980 C   0  0  0  0  0  0  0  0  0  0  0  0
   63.7012   33.5410   46.6041 H   0  0  0  0  0  0  0  0  0  0  0  0
   61.5790   33.8200   46.9500 C   0  0  0  0  0  0  0  0  0  0  0  0
   61.4746   34.5747   46.1566 H   0  0  0  0  0  0  0  0  0  0  0  0
   58.9440   31.2630   45.5070 C   0  0  0  0  0  0  0  0  0  0  0  0
   60.0043   31.2153   45.7959 H   0  0  0  0  0  0  0  0  0  0  0  0
   57.2160   27.8560   45.7610 C   0  0  0  0  0  0  0  0  0  0  0  0
   56.2117   28.1656   45.4361 H   0  0  0  0  0  0  0  0  0  0  0  0
  1  2  1  0
  2  3  1  0
  3  4  2  0
  3  5  2  0
  3  6  1  0
  6  7  2  0
  7  8  1  0
  7  9  1  0
  9 10  1  0
  9 11  2  0
 11 12  1  0
 11 13  1  0
 13 14  1  0
 14 15  1  0
 15 16  1  0
 16 17  1  0
 16 18  1  0
 18 19  2  0
 19 20  1  0
 20 21  2  0
 20 22  1  0
 22 23  1  0
 22 24  1  0
 22 25  1  0
 25 26  2  0
 26 27  1  0
 26 28  1  0
 28 29  1  0
 28 30  2  0
 30 31  1  0
 30 32  1  0
 32 33  1  0
 32 34  2  0
 34 35  1  0
 18 36  1  0
 36 37  1  0
 13 38  2  0
 38 39  1  0
 38  6  1  0
 36 14  2  0
 34 25  1  0
M  CHG  2   2  -1  15  -1
M  END
>  <UniqueID>  (65) 
62

>  <SMILES>  (65) 
[NH-]S(=O)(=O)c1cccc(-c2c/c(=N/C(=O)Cc3ccc(F)cc3)[nH][n-]2)c1

>  <Energy>  (65) 
79.20980141437938

>  <Genealogy>  (65) 
[NH-]S(=O)(=O)c1cccc(-c2cc(=NC(=O)Cc3ccc(F)cc3)[nH][n-]2)c1 (protonated)
[NH-]S(=O)(=O)c1cccc(-c2c/c(=N/C(=O)Cc3ccc(F)cc3)[nH][n-]2)c1 (cis-trans isomerization)
[NH-]S(=O)(=O)c1cccc(-c2c/c(=N/C(=O)Cc3ccc(F)cc3)[nH][n-]2)c1 (3D coordinates assigned)
[NH-]S(=O)(=O)c1cccc(-c2c/c(=N/C(=O)Cc3ccc(F)cc3)[nH][n-]2)c1 (optimized conformer: 79.20980141437938 kcal/mol)

>  <smiles>  (65) 
NS(=O)(=O)c1cccc(-c2cc(=NC(=O)Cc3ccc(F)cc3)[nH][nH]2)c1

>  <score_type>  (65) 
oracle

>  <origin>  (65) 
adg

>  <m_score__min__energy>  (65) 
-13.02

>  <m_primary>  (65) 
energy

$$$$
65:0
     RDKit          3D

 44 46  0  0  0  0  0  0  0  0999 V2000
   56.5960   29.3350   42.6070 N   0  0  0  0  0  0  0  0  0  0  0  0
   56.5710   29.7130   44.2940 S   0  0  0  0  0  0  0  0  0  0  0  0
   55.5240   28.8740   44.9720 O   0  0  0  0  0  0  0  0  0  0  0  0
   56.2460   31.1680   44.4790 O   0  0  0  0  0  0  0  0  0  0  0  0
   58.1400   29.3720   44.9970 C   0  0  0  0  0  0  0  0  0  0  0  0
   58.8100   30.1760   45.9050 C   0  0  0  0  0  0  0  0  0  0  0  0
   60.0630   29.6540   46.2880 C   0  0  0  0  0  0  0  0  0  0  0  0
   60.9980   30.2980   47.2450 C   0  0  0  0  0  0  0  0  0  0  0  0
   60.8540   30.1750   48.6370 C   0  0  0  0  0  0  0  0  0  0  0  0
   61.7700   30.8040   49.4780 C   0  0  0  0  0  0  0  0  0  0  0  0
   62.8160   31.5360   48.9200 C   0  0  0  0  0  0  0  0  0  0  0  0
   64.0170   32.3570   49.9700 S   0  0  0  0  0  0  0  0  0  0  0  0
   63.3520   34.0360   49.6920 C   0  0  0  0  0  0  0  0  0  0  0  0
   61.9510   34.1780   50.2940 C   0  0  0  0  0  0  0  0  0  0  0  0
   60.9450   34.3330   49.2220 N   0  0  0  0  0  0  0  0  0  0  0  0
   61.5490   34.1460   47.8860 C   0  0  0  0  0  0  0  0  0  0  0  0
   60.5630   34.5820   46.7870 C   0  0  0  0  0  0  0  0  0  0  0  0
   59.0970   34.4810   47.2400 C   0  0  0  0  0  0  0  0  0  0  0  0
   58.8960   33.2930   48.1850 C   0  0  0  0  0  0  0  0  0  0  0  0
   59.8230   33.3840   49.4190 C   0  0  0  0  0  0  0  0  0  0  0  0
   62.9150   31.6340   47.5710 N   0  0  0  0  0  0  0  0  0  0  0  0
   62.0380   31.0350   46.7630 N   0  0  0  0  0  0  0  0  0  0  0  0
   60.3560   28.4400   45.6610 C   0  0  0  0  0  0  0  0  0  0  0  0
   59.0780   28.0250   44.6510 S   0  0  0  0  0  0  0  0  0  0  0  0
   56.3340   28.3280   42.5150 H   0  0  0  0  0  0  0  0  0  0  0  0
   57.5870   29.4200   42.2900 H   0  0  0  0  0  0  0  0  0  0  0  0
   58.4059   31.1247   46.2881 H   0  0  0  0  0  0  0  0  0  0  0  0
   60.0255   29.5874   49.0594 H   0  0  0  0  0  0  0  0  0  0  0  0
   61.6684   30.7235   50.5703 H   0  0  0  0  0  0  0  0  0  0  0  0
   64.0219   34.7707   50.1626 H   0  0  0  0  0  0  0  0  0  0  0  0
   63.2873   34.2123   48.6082 H   0  0  0  0  0  0  0  0  0  0  0  0
   61.7169   33.2797   50.8841 H   0  0  0  0  0  0  0  0  0  0  0  0
   61.9272   35.0691   50.9384 H   0  0  0  0  0  0  0  0  0  0  0  0
   62.4641   34.7522   47.8136 H   0  0  0  0  0  0  0  0  0  0  0  0
   61.7897   33.0815   47.7484 H   0  0  0  0  0  0  0  0  0  0  0  0
   60.7772   35.6259   46.5143 H   0  0  0  0  0  0  0  0  0  0  0  0
   60.6962   33.9056   45.9298 H   0  0  0  0  0  0  0  0  0  0  0  0
   58.8171   35.4077   47.7624 H   0  0  0  0  0  0  0  0  0  0  0  0
   58.4648   34.3336   46.3519 H   0  0  0  0  0  0  0  0  0  0  0  0
   57.8498   33.2801   48.5246 H   0  0  0  0  0  0  0  0  0  0  0  0
   59.1425   32.3718   47.6367 H   0  0  0  0  0  0  0  0  0  0  0  0
   59.2281   33.7165   50.2825 H   0  0  0  0  0  0  0  0  0  0  0  0
   60.2562   32.3864   49.5839 H   0  0  0  0  0  0  0  0  0  0  0  0
   61.2741   27.8514   45.8050 H   0  0  0  0  0  0  0  0  0  0  0  0
  1  2  1  0
  2  3  2  0
  2  4  2  0
  2  5  1  0
  5  6  2  0
  6  7  1  0
  7  8  1  0
  8  9  2  0
  9 10  1  0
 10 11  2  0
 11 12  1  0
 12 13  1  0
 13 14  1  0
 14 15  1  0
 15 16  1  0
 16 17  1  0
 17 18  1  0
 18 19  1  0
 19 20  1  0
 11 21  1  0
 21 22  2  0
  7 23  2  0
 23 24  1  0
 24  5  1  0
 22  8  1  0
 20 15  1  0
  1 25  1  0
  1 26  1  0
  6 27  1  0
  9 28  1  0
 10 29  1  0
 13 30  1  0
 13 31  1  0
 14 32  1  0
 14 33  1  0
 16 34  1  0
 16 35  1  0
 17 36  1  0
 17 37  1  0
 18 38  1  0
 18 39  1  0
 19 40  1  0
 19 41  1  0
 20 42  1  0
 20 43  1  0
 23 44  1  0
M  END
>  <UniqueID>  (66) 
63

>  <SMILES>  (66) 
NS(=O)(=O)c1cc(-c2ccc(SCCN3CCCCC3)nn2)cs1

>  <Energy>  (66) 
72.45516413584261

>  <Genealogy>  (66) 
NS(=O)(=O)c1cc(-c2ccc(SCCN3CCCCC3)nn2)cs1 (3D coordinates assigned)
NS(=O)(=O)c1cc(-c2ccc(SCCN3CCCCC3)nn2)cs1 (nonaromatic ring conformer: 72.45516413584261 kcal/mol)

>  <smiles>  (66) 
NS(=O)(=O)c1cc(-c2ccc(SCCN3CCCCC3)nn2)cs1

>  <score_type>  (66) 
oracle

>  <origin>  (66) 
adg

>  <m_score__min__energy>  (66) 
-9.1600000000000001

>  <m_primary>  (66) 
energy

$$$$
66:0
     RDKit          3D

 55 58  0  0  0  0  0  0  0  0999 V2000
   50.4760   31.8310   52.0010 N   0  0  0  0  0  0  0  0  0  0  0  0
   51.8560   31.4430   51.0350 S   0  0  0  0  0  0  0  0  0  0  0  0
   51.4110   30.5860   49.8830 O   0  0  0  0  0  0  0  0  0  0  0  0
   52.4690   32.7100   50.5090 O   0  0  0  0  0  0  0  0  0  0  0  0
   53.0430   30.5770   52.0060 C   0  0  0  0  0  0  0  0  0  0  0  0
   52.6780   29.4060   52.6810 C   0  0  0  0  0  0  0  0  0  0  0  0
   53.6250   28.7020   53.4300 C   0  0  0  0  0  0  0  0  0  0  0  0
   53.1650   27.2260   54.2600 Cl  0  0  0  0  0  0  0  0  0  0  0  0
   54.9410   29.1700   53.5150 C   0  0  0  0  0  0  0  0  0  0  0  0
   55.3140   30.3570   52.8680 C   0  0  0  0  0  0  0  0  0  0  0  0
   56.6800   30.8000   52.9360 N   0  0  0  0  0  0  0  0  0  0  0  0
   57.7330   30.1790   52.1940 C   0  0  0  0  0  0  0  0  0  0  0  0
   57.5250   29.7680   51.0200 O   0  0  0  0  0  0  0  0  0  0  0  0
   59.0110   29.9890   52.8100 N   0  0  0  0  0  0  0  0  0  0  0  0
   60.1400   30.8920   52.6090 C   0  0  0  0  0  0  0  0  0  0  0  0
   59.9940   31.6510   51.3050 C   0  0  0  0  0  0  0  0  0  0  0  0
   60.1610   30.9540   50.0960 C   0  0  0  0  0  0  0  0  0  0  0  0
   60.1930   31.6330   48.8790 C   0  0  0  0  0  0  0  0  0  0  0  0
   60.0890   33.0280   48.8470 C   0  0  0  0  0  0  0  0  0  0  0  0
   60.2100   33.7670   47.5770 C   0  0  0  0  0  0  0  0  0  0  0  0
   61.3350   34.2360   47.2550 O   0  0  0  0  0  0  0  0  0  0  0  0
   59.0940   33.9130   46.6750 N   0  0  0  0  0  0  0  0  0  0  0  0
   57.8160   33.2350   46.8330 C   0  0  0  0  0  0  0  0  0  0  0  0
   57.0060   33.5780   45.5890 C   0  0  0  0  0  0  0  0  0  0  0  0
   58.0030   34.1320   44.5770 C   0  0  0  0  0  0  0  0  0  0  0  0
   59.2210   34.5640   45.3820 C   0  0  0  0  0  0  0  0  0  0  0  0
   59.8560   33.7280   50.0380 C   0  0  0  0  0  0  0  0  0  0  0  0
   59.7720   33.0530   51.2680 C   0  0  0  0  0  0  0  0  0  0  0  0
   59.5810   33.8620   52.5290 C   0  0  0  0  0  0  0  0  0  0  0  0
   58.4910   33.3540   53.4640 C   0  0  0  0  0  0  0  0  0  0  0  0
   58.2520   34.6030   52.6400 C   0  0  0  0  0  0  0  0  0  0  0  0
   54.3580   31.0550   52.1070 C   0  0  0  0  0  0  0  0  0  0  0  0
   50.0710   32.7130   51.6140 H   0  0  0  0  0  0  0  0  0  0  0  0
   51.6428   29.0389   52.6217 H   0  0  0  0  0  0  0  0  0  0  0  0
   55.6868   28.6039   54.0923 H   0  0  0  0  0  0  0  0  0  0  0  0
   56.9320   31.5530   53.6140 H   0  0  0  0  0  0  0  0  0  0  0  0
   60.1811   31.6096   53.4417 H   0  0  0  0  0  0  0  0  0  0  0  0
   61.0651   30.2982   52.5707 H   0  0  0  0  0  0  0  0  0  0  0  0
   60.2678   29.8593   50.1103 H   0  0  0  0  0  0  0  0  0  0  0  0
   60.3004   31.0699   47.9402 H   0  0  0  0  0  0  0  0  0  0  0  0
   57.9658   32.1476   46.9045 H   0  0  0  0  0  0  0  0  0  0  0  0
   57.3006   33.5527   47.7514 H   0  0  0  0  0  0  0  0  0  0  0  0
   56.5179   32.6765   45.1903 H   0  0  0  0  0  0  0  0  0  0  0  0
   56.2129   34.3065   45.8132 H   0  0  0  0  0  0  0  0  0  0  0  0
   58.2813   33.3550   43.8498 H   0  0  0  0  0  0  0  0  0  0  0  0
   57.5764   34.9720   44.0092 H   0  0  0  0  0  0  0  0  0  0  0  0
   60.1454   34.2417   44.8803 H   0  0  0  0  0  0  0  0  0  0  0  0
   59.2712   35.6582   45.4835 H   0  0  0  0  0  0  0  0  0  0  0  0
   59.7371   34.8212   50.0101 H   0  0  0  0  0  0  0  0  0  0  0  0
   60.6398   34.1400   52.6366 H   0  0  0  0  0  0  0  0  0  0  0  0
   57.9505   32.4263   53.2247 H   0  0  0  0  0  0  0  0  0  0  0  0
   58.4392   33.1091   54.5351 H   0  0  0  0  0  0  0  0  0  0  0  0
   57.5388   34.5811   51.8028 H   0  0  0  0  0  0  0  0  0  0  0  0
   57.9559   35.6381   52.8658 H   0  0  0  0  0  0  0  0  0  0  0  0
   54.6438   31.9817   51.5878 H   0  0  0  0  0  0  0  0  0  0  0  0
  1  2  1  0
  2  3  2  0
  2  4  2  0
  2  5  1  0
  5  6  2  0
  6  7  1  0
  7  8  1  0
  7  9  2  0
  9 10  1  0
 10 11  1  0
 11 12  1  0
 12 13  2  0
 12 14  1  0
 14 15  1  0
 15 16  1  0
 16 17  2  0
 17 18  1  0
 18 19  2  0
 19 20  1  0
 20 21  2  0
 20 22  1  0
 22 23  1  0
 23 24  1  0
 24 25  1  0
 25 26  1  0
 19 27  1  0
 27 28  2  0
 28 29  1  0
 29 30  1  0
 30 31  1  0
 10 32  2  0
 32  5  1  0
 28 16  1  0
 31 29  1  0
 26 22  1  0
  1 33  1  0
  6 34  1  0
  9 35  1  0
 11 36  1  0
 15 37  1  0
 15 38  1  0
 17 39  1  0
 18 40  1  0
 23 41  1  0
 23 42  1  0
 24 43  1  0
 24 44  1  0
 25 45  1  0
 25 46  1  0
 26 47  1  0
 26 48  1  0
 27 49  1  0
 29 50  1  0
 30 51  1  0
 30 52  1  0
 31 53  1  0
 31 54  1  0
 32 55  1  0
M  CHG  2   1  -1  14  -1
M  END
>  <UniqueID>  (67) 
64

>  <SMILES>  (67) 
[NH-]S(=O)(=O)c1cc(Cl)cc(NC(=O)[N-]Cc2ccc(C(=O)N3CCCC3)cc2C2CC2)c1

>  <Energy>  (67) 
326.25193312935323

>  <Genealogy>  (67) 
[NH-]S(=O)(=O)c1cc(Cl)cc(NC(=O)[N-]Cc2ccc(C(=O)N3CCCC3)cc2C2CC2)c1 (protonated)
[NH-]S(=O)(=O)c1cc(Cl)cc(NC(=O)[N-]Cc2ccc(C(=O)N3CCCC3)cc2C2CC2)c1 (3D coordinates assigned)
[NH-]S(=O)(=O)c1cc(Cl)cc(NC(=O)[N-]Cc2ccc(C(=O)N3CCCC3)cc2C2CC2)c1 (nonaromatic ring conformer: 326.25193312935323 kcal/mol)

>  <smiles>  (67) 
NS(=O)(=O)c1cc(Cl)cc(NC(=O)NCc2ccc(C(=O)N3CCCC3)cc2C2CC2)c1

>  <score_type>  (67) 
oracle

>  <origin>  (67) 
adg

>  <m_score__min__energy>  (67) 
-13.42

>  <m_primary>  (67) 
energy

$$$$
67:0
     RDKit          3D

 32 33  0  0  0  0  0  0  0  0999 V2000
   56.5590   25.4650   47.1720 O   0  0  0  0  0  0  0  0  0  0  0  0
   56.1490   26.1250   46.1810 C   0  0  0  0  0  0  0  0  0  0  0  0
   54.7880   26.3440   46.0150 O   0  0  0  0  0  0  0  0  0  0  0  0
   57.1160   26.6220   45.1560 C   0  0  0  0  0  0  0  0  0  0  0  0
   57.7320   27.8700   45.6090 N   0  0  0  0  0  0  0  0  0  0  0  0
   57.5460   29.0860   44.8680 C   0  0  0  0  0  0  0  0  0  0  0  0
   58.6520   29.7440   44.3060 C   0  0  0  0  0  0  0  0  0  0  0  0
   58.4750   30.9270   43.5850 C   0  0  0  0  0  0  0  0  0  0  0  0
   57.1950   31.4620   43.4180 C   0  0  0  0  0  0  0  0  0  0  0  0
   56.0880   30.8100   43.9700 C   0  0  0  0  0  0  0  0  0  0  0  0
   56.2580   29.6230   44.6910 C   0  0  0  0  0  0  0  0  0  0  0  0
   55.1460   28.9750   45.2150 O   0  0  0  0  0  0  0  0  0  0  0  0
   58.7640   27.8600   47.0080 S   0  0  0  0  0  0  0  0  0  0  0  0
   57.9770   27.4820   48.2320 O   0  0  0  0  0  0  0  0  0  0  0  0
   59.8570   26.8510   46.7970 O   0  0  0  0  0  0  0  0  0  0  0  0
   59.4420   29.4660   47.2480 C   0  0  0  0  0  0  0  0  0  0  0  0
   58.6240   30.5030   47.7170 C   0  0  0  0  0  0  0  0  0  0  0  0
   59.1520   31.7840   47.9070 C   0  0  0  0  0  0  0  0  0  0  0  0
   60.5010   32.0330   47.6350 C   0  0  0  0  0  0  0  0  0  0  0  0
   61.2220   33.7810   47.8960 Br  0  0  0  0  0  0  0  0  0  0  0  0
   61.3220   30.9980   47.1720 C   0  0  0  0  0  0  0  0  0  0  0  0
   60.7950   29.7180   46.9790 C   0  0  0  0  0  0  0  0  0  0  0  0
   57.8993   25.8660   44.9981 H   0  0  0  0  0  0  0  0  0  0  0  0
   56.5788   26.8068   44.2140 H   0  0  0  0  0  0  0  0  0  0  0  0
   59.6615   29.3262   44.4341 H   0  0  0  0  0  0  0  0  0  0  0  0
   59.3451   31.4386   43.1477 H   0  0  0  0  0  0  0  0  0  0  0  0
   57.0583   32.3956   42.8526 H   0  0  0  0  0  0  0  0  0  0  0  0
   55.0807   31.2315   43.8370 H   0  0  0  0  0  0  0  0  0  0  0  0
   57.5637   30.3087   47.9363 H   0  0  0  0  0  0  0  0  0  0  0  0
   58.5057   32.5964   48.2707 H   0  0  0  0  0  0  0  0  0  0  0  0
   62.3837   31.1924   46.9597 H   0  0  0  0  0  0  0  0  0  0  0  0
   61.4428   28.9067   46.6154 H   0  0  0  0  0  0  0  0  0  0  0  0
  1  2  2  0
  2  3  1  0
  2  4  1  0
  4  5  1  0
  5  6  1  0
  6  7  2  0
  7  8  1  0
  8  9  2  0
  9 10  1  0
 10 11  2  0
 11 12  1  0
  5 13  1  0
 13 14  2  0
 13 15  2  0
 13 16  1  0
 16 17  2  0
 17 18  1  0
 18 19  2  0
 19 20  1  0
 19 21  1  0
 21 22  2  0
 11  6  1  0
 22 16  1  0
  4 23  1  0
  4 24  1  0
  7 25  1  0
  8 26  1  0
  9 27  1  0
 10 28  1  0
 17 29  1  0
 18 30  1  0
 21 31  1  0
 22 32  1  0
M  CHG  2   3  -1  12  -1
M  END
>  <UniqueID>  (68) 
65

>  <SMILES>  (68) 
O=C([O-])CN(c1ccccc1[O-])S(=O)(=O)c1ccc(Br)cc1

>  <Energy>  (68) 
37.33657645019837

>  <Genealogy>  (68) 
O=C([O-])CN(c1ccccc1[O-])S(=O)(=O)c1ccc(Br)cc1 (protonated)
O=C([O-])CN(c1ccccc1[O-])S(=O)(=O)c1ccc(Br)cc1 (3D coordinates assigned)
O=C([O-])CN(c1ccccc1[O-])S(=O)(=O)c1ccc(Br)cc1 (optimized conformer: 37.33657645019837 kcal/mol)

>  <smiles>  (68) 
O=C(O)CN(c1ccccc1O)S(=O)(=O)c1ccc(Br)cc1

>  <score_type>  (68) 
oracle

>  <origin>  (68) 
adg

>  <m_score__min__energy>  (68) 
-13.34

>  <m_primary>  (68) 
energy

$$$$
68:0
     RDKit          3D

 54 57  0  0  0  0  0  0  0  0999 V2000
   60.5770   29.2050   48.1080 O   0  0  0  0  0  0  0  0  0  0  0  0
   59.6540   29.6000   47.3420 C   0  0  0  0  0  0  0  0  0  0  0  0
   59.4450   28.9370   46.0110 C   0  0  0  0  0  0  0  0  0  0  0  0
   58.0050   28.9840   45.5870 C   0  0  0  0  0  0  0  0  0  0  0  0
   57.3910   30.1030   45.1650 N   0  0  0  0  0  0  0  0  0  0  0  0
   56.1210   29.6990   44.9520 C   0  0  0  0  0  0  0  0  0  0  0  0
   55.2220   30.4750   44.5370 O   0  0  0  0  0  0  0  0  0  0  0  0
   55.8900   28.3970   45.2240 N   0  0  0  0  0  0  0  0  0  0  0  0
   57.0890   27.9500   45.6360 C   0  0  0  0  0  0  0  0  0  0  0  0
   57.3460   26.5300   46.0460 C   0  0  0  0  0  0  0  0  0  0  0  0
   55.8030   25.5490   46.0190 S   0  0  0  0  0  0  0  0  0  0  0  0
   56.5100   24.1610   45.1260 C   0  0  0  0  0  0  0  0  0  0  0  0
   55.8950   23.6890   43.9590 C   0  0  0  0  0  0  0  0  0  0  0  0
   56.4460   22.6090   43.2630 C   0  0  0  0  0  0  0  0  0  0  0  0
   57.6180   22.0020   43.7280 C   0  0  0  0  0  0  0  0  0  0  0  0
   58.2390   22.4780   44.8870 C   0  0  0  0  0  0  0  0  0  0  0  0
   57.6870   23.5570   45.5860 C   0  0  0  0  0  0  0  0  0  0  0  0
   58.8670   30.7490   47.6920 N   0  0  0  0  0  0  0  0  0  0  0  0
   58.9220   31.3730   48.9850 C   0  0  0  0  0  0  0  0  0  0  0  0
   58.4960   30.6620   50.1220 C   0  0  0  0  0  0  0  0  0  0  0  0
   58.4830   31.2730   51.3770 C   0  0  0  0  0  0  0  0  0  0  0  0
   58.8890   32.6000   51.5140 C   0  0  0  0  0  0  0  0  0  0  0  0
   59.3070   33.3230   50.3950 C   0  0  0  0  0  0  0  0  0  0  0  0
   59.3210   32.7250   49.1210 C   0  0  0  0  0  0  0  0  0  0  0  0
   59.8340   33.5040   47.9680 C   0  0  0  0  0  0  0  0  0  0  0  0
   59.0170   33.9580   47.1200 O   0  0  0  0  0  0  0  0  0  0  0  0
   61.2470   33.6930   47.7600 N   0  0  0  0  0  0  0  0  0  0  0  0
   61.7510   33.8260   46.3880 C   0  0  0  0  0  0  0  0  0  0  0  0
   63.2790   33.8830   46.3850 C   0  0  0  0  0  0  0  0  0  0  0  0
   63.7820   32.9700   47.3360 O   0  0  0  0  0  0  0  0  0  0  0  0
   63.5580   33.4530   48.6520 C   0  0  0  0  0  0  0  0  0  0  0  0
   62.1380   34.0220   48.8820 C   0  0  0  0  0  0  0  0  0  0  0  0
   60.0560   29.4531   45.2558 H   0  0  0  0  0  0  0  0  0  0  0  0
   59.7410   27.8816   46.1034 H   0  0  0  0  0  0  0  0  0  0  0  0
   58.0700   26.0804   45.3505 H   0  0  0  0  0  0  0  0  0  0  0  0
   57.7437   26.5284   47.0716 H   0  0  0  0  0  0  0  0  0  0  0  0
   54.9768   24.1691   43.5897 H   0  0  0  0  0  0  0  0  0  0  0  0
   55.9584   22.2364   42.3501 H   0  0  0  0  0  0  0  0  0  0  0  0
   58.0506   21.1507   43.1820 H   0  0  0  0  0  0  0  0  0  0  0  0
   59.1627   22.0035   45.2496 H   0  0  0  0  0  0  0  0  0  0  0  0
   58.1774   23.9310   46.4969 H   0  0  0  0  0  0  0  0  0  0  0  0
   58.2790   31.1900   46.9490 H   0  0  0  0  0  0  0  0  0  0  0  0
   58.1705   29.6161   50.0211 H   0  0  0  0  0  0  0  0  0  0  0  0
   58.1518   30.7065   52.2598 H   0  0  0  0  0  0  0  0  0  0  0  0
   58.8800   33.0778   52.5048 H   0  0  0  0  0  0  0  0  0  0  0  0
   59.6281   34.3688   50.5101 H   0  0  0  0  0  0  0  0  0  0  0  0
   61.4193   32.9612   45.7945 H   0  0  0  0  0  0  0  0  0  0  0  0
   61.3582   34.7564   45.9521 H   0  0  0  0  0  0  0  0  0  0  0  0
   63.6546   33.6170   45.3859 H   0  0  0  0  0  0  0  0  0  0  0  0
   63.6101   34.9005   46.6402 H   0  0  0  0  0  0  0  0  0  0  0  0
   63.7159   32.6229   49.3563 H   0  0  0  0  0  0  0  0  0  0  0  0
   64.2621   34.2833   48.8096 H   0  0  0  0  0  0  0  0  0  0  0  0
   61.7246   33.5928   49.8066 H   0  0  0  0  0  0  0  0  0  0  0  0
   62.2094   35.1168   48.9616 H   0  0  0  0  0  0  0  0  0  0  0  0
  1  2  2  0
  2  3  1  0
  3  4  1  0
  4  5  1  0
  5  6  1  0
  6  7  2  0
  6  8  1  0
  8  9  1  0
  9 10  1  0
 10 11  1  0
 11 12  1  0
 12 13  2  0
 13 14  1  0
 14 15  2  0
 15 16  1  0
 16 17  2  0
  2 18  1  0
 18 19  1  0
 19 20  2  0
 20 21  1  0
 21 22  2  0
 22 23  1  0
 23 24  2  0
 24 25  1  0
 25 26  2  0
 25 27  1  0
 27 28  1  0
 28 29  1  0
 29 30  1  0
 30 31  1  0
 31 32  1  0
  9  4  2  0
 17 12  1  0
 24 19  1  0
 32 27  1  0
  3 33  1  0
  3 34  1  0
 10 35  1  0
 10 36  1  0
 13 37  1  0
 14 38  1  0
 15 39  1  0
 16 40  1  0
 17 41  1  0
 18 42  1  0
 20 43  1  0
 21 44  1  0
 22 45  1  0
 23 46  1  0
 28 47  1  0
 28 48  1  0
 29 49  1  0
 29 50  1  0
 31 51  1  0
 31 52  1  0
 32 53  1  0
 32 54  1  0
M  CHG  2   5  -1   8  -1
M  END
>  <UniqueID>  (69) 
66

>  <SMILES>  (69) 
O=C(Cc1[n-]c(=O)[n-]c1CSc1ccccc1)Nc1ccccc1C(=O)N1CCOCC1

>  <Energy>  (69) 
95.21110691850487

>  <Genealogy>  (69) 
O=C(Cc1[n-]c(=O)[n-]c1CSc1ccccc1)Nc1ccccc1C(=O)N1CCOCC1 (protonated)
O=C(Cc1[n-]c(=O)[n-]c1CSc1ccccc1)Nc1ccccc1C(=O)N1CCOCC1 (3D coordinates assigned)
O=C(Cc1[n-]c(=O)[n-]c1CSc1ccccc1)Nc1ccccc1C(=O)N1CCOCC1 (nonaromatic ring conformer: 95.21110691850487 kcal/mol)

>  <smiles>  (69) 
O=C(Cc1[nH]c(=O)[nH]c1CSc1ccccc1)Nc1ccccc1C(=O)N1CCOCC1

>  <score_type>  (69) 
oracle

>  <origin>  (69) 
adg

>  <m_score__min__energy>  (69) 
-12.800000000000001

>  <m_primary>  (69) 
energy

$$$$
69:0
     RDKit          3D

 63 66  0  0  0  0  0  0  0  0999 V2000
   62.2230   34.2270   48.6430 C   0  0  0  0  0  0  0  0  0  0  0  0
   60.4880   33.8360   48.5410 S   0  0  0  0  0  0  0  0  0  0  0  0
   59.6950   34.9720   49.1240 O   0  0  0  0  0  0  0  0  0  0  0  0
   60.2260   32.5900   49.3430 O   0  0  0  0  0  0  0  0  0  0  0  0
   60.0200   33.5690   46.8770 N   0  0  1  0  0  0  0  0  0  0  0  0
   59.6620   32.1400   46.6490 C   0  0  0  0  0  0  0  0  0  0  0  0
   58.1460   31.8900   46.6940 C   0  0  0  0  0  0  0  0  0  0  0  0
   57.3940   32.7400   45.6380 C   0  0  2  0  0  0  0  0  0  0  0  0
   57.0940   31.9450   44.3930 C   0  0  0  0  0  0  0  0  0  0  0  0
   57.4110   32.4040   43.2610 O   0  0  0  0  0  0  0  0  0  0  0  0
   56.4760   30.6580   44.5130 N   0  0  0  0  0  0  0  0  0  0  0  0
   57.1430   29.3860   44.5350 C   0  0  0  0  0  0  0  0  0  0  0  0
   57.4080   28.6600   43.3580 C   0  0  0  0  0  0  0  0  0  0  0  0
   58.0550   27.4220   43.4270 C   0  0  0  0  0  0  0  0  0  0  0  0
   58.4270   26.8920   44.6660 C   0  0  0  0  0  0  0  0  0  0  0  0
   58.1290   27.5840   45.8510 C   0  0  0  0  0  0  0  0  0  0  0  0
   58.5180   27.0180   47.1600 C   0  0  0  0  0  0  0  0  0  0  0  0
   58.0760   25.8810   47.4890 O   0  0  0  0  0  0  0  0  0  0  0  0
   59.4000   27.7260   48.0530 N   0  0  0  0  0  0  0  0  0  0  0  0
   59.2280   29.1710   48.2740 C   0  0  0  0  0  0  0  0  0  0  0  0
   60.5780   29.8180   48.5980 C   0  0  0  0  0  0  0  0  0  0  0  0
   61.2490   29.1210   49.7110 N   0  0  0  0  0  0  0  0  0  0  0  0
   62.2440   29.8200   50.4930 C   0  0  0  0  0  0  0  0  0  0  0  0
   62.7510   31.0630   50.0660 C   0  0  0  0  0  0  0  0  0  0  0  0
   63.7200   31.7320   50.8220 C   0  0  0  0  0  0  0  0  0  0  0  0
   64.1940   31.1680   52.0110 C   0  0  0  0  0  0  0  0  0  0  0  0
   63.7000   29.9370   52.4460 C   0  0  0  0  0  0  0  0  0  0  0  0
   62.7330   29.2610   51.6910 C   0  0  0  0  0  0  0  0  0  0  0  0
   60.8050   27.7780   50.1160 C   0  0  0  0  0  0  0  0  0  0  0  0
   60.3320   26.9620   48.9030 C   0  0  0  0  0  0  0  0  0  0  0  0
   57.4890   28.8320   45.7760 C   0  0  0  0  0  0  0  0  0  0  0  0
   58.1560   34.0330   45.2780 C   0  0  0  0  0  0  0  0  0  0  0  0
   58.9610   34.5320   46.4860 C   0  0  0  0  0  0  0  0  0  0  0  0
   62.5222   34.2944   49.6994 H   0  0  0  0  0  0  0  0  0  0  0  0
   62.8065   33.4378   48.1463 H   0  0  0  0  0  0  0  0  0  0  0  0
   62.4116   35.1902   48.1463 H   0  0  0  0  0  0  0  0  0  0  0  0
   60.8700   33.7760   46.2980 H   0  0  0  0  0  0  0  0  0  0  0  0
   60.1420   31.5291   47.4277 H   0  0  0  0  0  0  0  0  0  0  0  0
   60.0123   31.8679   45.6424 H   0  0  0  0  0  0  0  0  0  0  0  0
   57.7711   32.1510   47.6946 H   0  0  0  0  0  0  0  0  0  0  0  0
   57.9665   30.8279   46.4709 H   0  0  0  0  0  0  0  0  0  0  0  0
   56.4395   33.0313   46.1007 H   0  0  0  0  0  0  0  0  0  0  0  0
   57.1055   29.0675   42.3821 H   0  0  0  0  0  0  0  0  0  0  0  0
   58.2717   26.8640   42.5041 H   0  0  0  0  0  0  0  0  0  0  0  0
   58.9556   25.9285   44.7128 H   0  0  0  0  0  0  0  0  0  0  0  0
   58.8127   29.6312   47.3653 H   0  0  0  0  0  0  0  0  0  0  0  0
   58.5418   29.3269   49.1195 H   0  0  0  0  0  0  0  0  0  0  0  0
   61.2209   29.7729   47.7065 H   0  0  0  0  0  0  0  0  0  0  0  0
   60.4017   30.8621   48.8961 H   0  0  0  0  0  0  0  0  0  0  0  0
   62.3825   31.5110   49.1314 H   0  0  0  0  0  0  0  0  0  0  0  0
   64.1094   32.7026   50.4808 H   0  0  0  0  0  0  0  0  0  0  0  0
   64.9565   31.6948   52.6036 H   0  0  0  0  0  0  0  0  0  0  0  0
   64.0708   29.4970   53.3835 H   0  0  0  0  0  0  0  0  0  0  0  0
   62.3529   28.2878   52.0352 H   0  0  0  0  0  0  0  0  0  0  0  0
   61.6429   27.2527   50.5976 H   0  0  0  0  0  0  0  0  0  0  0  0
   59.9624   27.8848   50.8150 H   0  0  0  0  0  0  0  0  0  0  0  0
   61.2087   26.6777   48.3025 H   0  0  0  0  0  0  0  0  0  0  0  0
   59.8010   26.0741   49.2768 H   0  0  0  0  0  0  0  0  0  0  0  0
   57.2567   29.3808   46.7006 H   0  0  0  0  0  0  0  0  0  0  0  0
   57.4348   34.8074   44.9778 H   0  0  0  0  0  0  0  0  0  0  0  0
   58.8484   33.8210   44.4500 H   0  0  0  0  0  0  0  0  0  0  0  0
   58.2771   34.6739   47.3358 H   0  0  0  0  0  0  0  0  0  0  0  0
   59.4457   35.4792   46.2068 H   0  0  0  0  0  0  0  0  0  0  0  0
  1  2  1  0
  2  3  2  0
  2  4  2  0
  2  5  1  0
  5  6  1  0
  6  7  1  0
  7  8  1  0
  8  9  1  0
  9 10  2  0
  9 11  1  0
 11 12  1  0
 12 13  2  0
 13 14  1  0
 14 15  2  0
 15 16  1  0
 16 17  1  0
 17 18  2  0
 17 19  1  0
 19 20  1  0
 20 21  1  0
 21 22  1  0
 22 23  1  0
 23 24  2  0
 24 25  1  0
 25 26  2  0
 26 27  1  0
 27 28  2  0
 22 29  1  0
 29 30  1  0
 16 31  2  0
  8 32  1  0
 32 33  1  0
 33  5  1  0
 31 12  1  0
 30 19  1  0
 28 23  1  0
  1 34  1  0
  1 35  1  0
  1 36  1  0
  5 37  1  6
  6 38  1  0
  6 39  1  0
  7 40  1  0
  7 41  1  0
  8 42  1  1
 13 43  1  0
 14 44  1  0
 15 45  1  0
 20 46  1  0
 20 47  1  0
 21 48  1  0
 21 49  1  0
 24 50  1  0
 25 51  1  0
 26 52  1  0
 27 53  1  0
 28 54  1  0
 29 55  1  0
 29 56  1  0
 30 57  1  0
 30 58  1  0
 31 59  1  0
 32 60  1  0
 32 61  1  0
 33 62  1  0
 33 63  1  0
M  CHG  2   5   1  11  -1
M  END
>  <UniqueID>  (70) 
67

>  <SMILES>  (70) 
CS(=O)(=O)[NH+]1CCC(C(=O)[N-]c2cccc(C(=O)N3CCN(c4ccccc4)CC3)c2)CC1

>  <Energy>  (70) 
79.40592356760648

>  <Genealogy>  (70) 
CS(=O)(=O)[NH+]1CCC(C(=O)[N-]c2cccc(C(=O)N3CCN(c4ccccc4)CC3)c2)CC1 (protonated)
CS(=O)(=O)[NH+]1CCC(C(=O)[N-]c2cccc(C(=O)N3CCN(c4ccccc4)CC3)c2)CC1 (3D coordinates assigned)
CS(=O)(=O)[NH+]1CCC(C(=O)[N-]c2cccc(C(=O)N3CCN(c4ccccc4)CC3)c2)CC1 (nonaromatic ring conformer: 79.40592356760648 kcal/mol)

>  <smiles>  (70) 
CS(=O)(=O)N1CCC(C(=O)Nc2cccc(C(=O)N3CCN(c4ccccc4)CC3)c2)CC1

>  <score_type>  (70) 
oracle

>  <origin>  (70) 
adg

>  <m_score__min__energy>  (70) 
-9.9000000000000004

>  <m_primary>  (70) 
energy

$$$$
70:0
     RDKit          3D

 30 31  0  0  0  0  0  0  0  0999 V2000
   56.1490   29.9730   44.6310 O   0  0  0  0  0  0  0  0  0  0  0  0
   56.2710   31.2190   44.4910 C   0  0  0  0  0  0  0  0  0  0  0  0
   57.5080   31.8820   44.8020 N   0  0  0  0  0  0  0  0  0  0  0  0
   57.6150   33.3190   44.5150 C   0  0  0  0  0  0  0  0  0  0  0  0
   59.0460   33.8250   44.7180 C   0  0  0  0  0  0  0  0  0  0  0  0
   59.5700   33.3390   45.9990 N   0  0  0  0  0  0  0  0  0  0  0  0
   60.0790   34.2720   46.9680 C   0  0  0  0  0  0  0  0  0  0  0  0
   59.4510   35.3440   47.1830 O   0  0  0  0  0  0  0  0  0  0  0  0
   61.3230   33.9980   47.7210 C   0  0  0  0  0  0  0  0  0  0  0  0
   61.3820   34.2150   49.1090 C   0  0  0  0  0  0  0  0  0  0  0  0
   62.5550   33.9400   49.8180 C   0  0  0  0  0  0  0  0  0  0  0  0
   63.6760   33.4370   49.1520 C   0  0  0  0  0  0  0  0  0  0  0  0
   65.2780   33.0600   50.1230 Br  0  0  0  0  0  0  0  0  0  0  0  0
   63.6210   33.2020   47.7750 C   0  0  0  0  0  0  0  0  0  0  0  0
   62.4500   33.4750   47.0620 C   0  0  0  0  0  0  0  0  0  0  0  0
   59.4090   31.9230   46.3720 C   0  0  0  0  0  0  0  0  0  0  0  0
   58.6750   31.1290   45.2840 C   0  0  0  0  0  0  0  0  0  0  0  0
   55.4177   31.8088   44.1251 H   0  0  0  0  0  0  0  0  0  0  0  0
   57.3167   33.4986   43.4716 H   0  0  0  0  0  0  0  0  0  0  0  0
   56.9550   33.8604   45.2088 H   0  0  0  0  0  0  0  0  0  0  0  0
   59.6827   33.4566   43.9001 H   0  0  0  0  0  0  0  0  0  0  0  0
   59.0443   34.9250   44.7211 H   0  0  0  0  0  0  0  0  0  0  0  0
   60.5003   34.6033   49.6399 H   0  0  0  0  0  0  0  0  0  0  0  0
   62.5958   34.1199   50.9024 H   0  0  0  0  0  0  0  0  0  0  0  0
   64.5014   32.8013   47.2513 H   0  0  0  0  0  0  0  0  0  0  0  0
   62.4098   33.2798   45.9802 H   0  0  0  0  0  0  0  0  0  0  0  0
   60.4038   31.4799   46.5267 H   0  0  0  0  0  0  0  0  0  0  0  0
   58.8093   31.8773   47.2930 H   0  0  0  0  0  0  0  0  0  0  0  0
   59.3608   30.9456   44.4437 H   0  0  0  0  0  0  0  0  0  0  0  0
   58.3337   30.1730   45.7077 H   0  0  0  0  0  0  0  0  0  0  0  0
  1  2  2  0
  2  3  1  0
  3  4  1  0
  4  5  1  0
  5  6  1  0
  6  7  1  0
  7  8  2  0
  7  9  1  0
  9 10  2  0
 10 11  1  0
 11 12  2  0
 12 13  1  0
 12 14  1  0
 14 15  2  0
  6 16  1  0
 16 17  1  0
 17  3  1  0
 15  9  1  0
  2 18  1  0
  4 19  1  0
  4 20  1  0
  5 21  1  0
  5 22  1  0
 10 23  1  0
 11 24  1  0
 14 25  1  0
 15 26  1  0
 16 27  1  0
 16 28  1  0
 17 29  1  0
 17 30  1  0
M  END
>  <UniqueID>  (71) 
68

>  <SMILES>  (71) 
O=CN1CCN(C(=O)c2ccc(Br)cc2)CC1

>  <Energy>  (71) 
34.04606672400083

>  <Genealogy>  (71) 
O=CN1CCN(C(=O)c2ccc(Br)cc2)CC1 (3D coordinates assigned)
O=CN1CCN(C(=O)c2ccc(Br)cc2)CC1 (nonaromatic ring conformer: 34.04606672400083 kcal/mol)

>  <smiles>  (71) 
O=CN1CCN(C(=O)c2ccc(Br)cc2)CC1

>  <score_type>  (71) 
oracle

>  <origin>  (71) 
adg

>  <m_score__min__energy>  (71) 
-6.6900000000000004

>  <m_primary>  (71) 
energy

$$$$
71:0
     RDKit          3D

 60 62  0  0  0  0  0  0  0  0999 V2000
   61.5830   32.1250   50.2340 C   0  0  0  0  0  0  0  0  0  0  0  0
   62.0190   32.0810   48.8400 N   0  0  0  0  0  0  0  0  0  0  0  0
   63.4470   31.9760   48.5510 C   0  0  0  0  0  0  0  0  0  0  0  0
   61.1330   32.5880   47.8270 C   0  0  0  0  0  0  0  0  0  0  0  0
   61.3330   33.8930   47.3660 C   0  0  0  0  0  0  0  0  0  0  0  0
   60.4750   34.4370   46.4240 C   0  0  0  0  0  0  0  0  0  0  0  0
   59.4040   33.6860   45.9450 C   0  0  0  0  0  0  0  0  0  0  0  0
   58.5270   34.2390   45.0020 C   0  0  0  0  0  0  0  0  0  0  0  0
   57.4490   33.4980   44.5220 C   0  0  0  0  0  0  0  0  0  0  0  0
   57.2180   32.2000   44.9950 C   0  0  0  0  0  0  0  0  0  0  0  0
   56.1390   31.4020   44.4900 N   0  0  0  0  0  0  0  0  0  0  0  0
   56.1080   29.9700   44.4130 C   0  0  0  0  0  0  0  0  0  0  0  0
   55.1820   29.3500   44.9960 O   0  0  0  0  0  0  0  0  0  0  0  0
   57.0990   29.2000   43.5820 C   0  0  0  0  0  0  0  0  0  0  0  0
   58.5220   29.4040   44.1160 C   0  0  0  0  0  0  0  0  0  0  0  0
   59.2330   28.0740   44.3970 C   0  0  0  0  0  0  0  0  0  0  0  0
   60.3650   28.2380   45.3790 C   0  0  0  0  0  0  0  0  0  0  0  0
   61.3010   29.0280   45.0880 O   0  0  0  0  0  0  0  0  0  0  0  0
   60.4020   27.5700   46.6490 N   0  0  0  0  0  0  0  0  0  0  0  0
   60.7830   26.1830   46.9080 C   0  0  0  0  0  0  0  0  0  0  0  0
   60.0230   25.2200   45.9900 C   0  0  0  0  0  0  0  0  0  0  0  0
   58.5410   25.4830   45.9950 C   0  0  0  0  0  0  0  0  0  0  0  0
   58.0010   26.4630   46.8460 C   0  0  0  0  0  0  0  0  0  0  0  0
   56.6310   26.7450   46.8140 C   0  0  0  0  0  0  0  0  0  0  0  0
   55.7930   26.0540   45.9340 C   0  0  0  0  0  0  0  0  0  0  0  0
   54.4330   26.3400   45.9020 O   0  0  0  0  0  0  0  0  0  0  0  0
   56.3240   25.0770   45.0860 C   0  0  0  0  0  0  0  0  0  0  0  0
   57.6930   24.7920   45.1140 C   0  0  0  0  0  0  0  0  0  0  0  0
   58.1020   31.6330   45.9210 C   0  0  0  0  0  0  0  0  0  0  0  0
   59.2110   32.3610   46.4180 C   0  0  0  0  0  0  0  0  0  0  0  0
   60.0940   31.8230   47.3400 N   0  0  0  0  0  0  0  0  0  0  0  0
   59.9230   30.4330   47.8090 C   0  0  0  0  0  0  0  0  0  0  0  0
   62.4580   32.0367   50.8948 H   0  0  0  0  0  0  0  0  0  0  0  0
   61.0716   33.0793   50.4283 H   0  0  0  0  0  0  0  0  0  0  0  0
   60.8912   31.2921   50.4283 H   0  0  0  0  0  0  0  0  0  0  0  0
   64.0101   31.9346   49.4950 H   0  0  0  0  0  0  0  0  0  0  0  0
   63.6373   31.0614   47.9702 H   0  0  0  0  0  0  0  0  0  0  0  0
   63.7690   32.8529   47.9702 H   0  0  0  0  0  0  0  0  0  0  0  0
   62.1732   34.4888   47.7521 H   0  0  0  0  0  0  0  0  0  0  0  0
   60.6392   35.4602   46.0550 H   0  0  0  0  0  0  0  0  0  0  0  0
   58.6907   35.2642   44.6386 H   0  0  0  0  0  0  0  0  0  0  0  0
   56.7767   33.9342   43.7685 H   0  0  0  0  0  0  0  0  0  0  0  0
   56.8484   28.1296   43.6195 H   0  0  0  0  0  0  0  0  0  0  0  0
   57.0527   29.5645   42.5452 H   0  0  0  0  0  0  0  0  0  0  0  0
   59.1032   29.9653   43.3696 H   0  0  0  0  0  0  0  0  0  0  0  0
   58.4501   29.9550   45.0653 H   0  0  0  0  0  0  0  0  0  0  0  0
   58.5040   27.3615   44.8104 H   0  0  0  0  0  0  0  0  0  0  0  0
   59.6541   27.7059   43.4498 H   0  0  0  0  0  0  0  0  0  0  0  0
   61.8630   26.0687   46.7330 H   0  0  0  0  0  0  0  0  0  0  0  0
   60.5320   25.9414   47.9514 H   0  0  0  0  0  0  0  0  0  0  0  0
   60.4004   25.3367   44.9634 H   0  0  0  0  0  0  0  0  0  0  0  0
   60.1866   24.1978   46.3619 H   0  0  0  0  0  0  0  0  0  0  0  0
   58.6574   27.0097   47.5390 H   0  0  0  0  0  0  0  0  0  0  0  0
   56.2125   27.5118   47.4825 H   0  0  0  0  0  0  0  0  0  0  0  0
   55.6637   24.5316   44.3956 H   0  0  0  0  0  0  0  0  0  0  0  0
   58.1069   24.0242   44.4438 H   0  0  0  0  0  0  0  0  0  0  0  0
   57.9323   30.6034   46.2690 H   0  0  0  0  0  0  0  0  0  0  0  0
   59.9208   30.4148   48.9088 H   0  0  0  0  0  0  0  0  0  0  0  0
   58.9690   30.0341   47.4337 H   0  0  0  0  0  0  0  0  0  0  0  0
   60.7519   29.8148   47.4337 H   0  0  0  0  0  0  0  0  0  0  0  0
  1  2  1  0
  2  3  1  0
  2  4  1  0
  4  5  2  0
  5  6  1  0
  6  7  2  0
  7  8  1  0
  8  9  2  0
  9 10  1  0
 10 11  1  0
 11 12  1  0
 12 13  2  0
 12 14  1  0
 14 15  1  0
 15 16  1  0
 16 17  1  0
 17 18  2  0
 17 19  1  0
 19 20  1  0
 20 21  1  0
 21 22  1  0
 22 23  2  0
 23 24  1  0
 24 25  2  0
 25 26  1  0
 25 27  1  0
 27 28  2  0
 10 29  2  0
 29 30  1  0
 30 31  2  0
 31 32  1  0
 31  4  1  0
 30  7  1  0
 28 22  1  0
  1 33  1  0
  1 34  1  0
  1 35  1  0
  3 36  1  0
  3 37  1  0
  3 38  1  0
  5 39  1  0
  6 40  1  0
  8 41  1  0
  9 42  1  0
 14 43  1  0
 14 44  1  0
 15 45  1  0
 15 46  1  0
 16 47  1  0
 16 48  1  0
 20 49  1  0
 20 50  1  0
 21 51  1  0
 21 52  1  0
 23 53  1  0
 24 54  1  0
 27 55  1  0
 28 56  1  0
 29 57  1  0
 32 58  1  0
 32 59  1  0
 32 60  1  0
M  CHG  4  11  -1  19  -1  26  -1  31   1
M  END
>  <UniqueID>  (72) 
69

>  <SMILES>  (72) 
CN(C)c1ccc2ccc([N-]C(=O)CCCC(=O)[N-]CCc3ccc([O-])cc3)cc2[n+]1C

>  <Energy>  (72) 
71.38083396452518

>  <Genealogy>  (72) 
CN(C)c1ccc2ccc([N-]C(=O)CCCC(=O)[N-]CCc3ccc([O-])cc3)cc2[n+]1C (protonated)
CN(C)c1ccc2ccc([N-]C(=O)CCCC(=O)[N-]CCc3ccc([O-])cc3)cc2[n+]1C (3D coordinates assigned)
CN(C)c1ccc2ccc([N-]C(=O)CCCC(=O)[N-]CCc3ccc([O-])cc3)cc2[n+]1C (optimized conformer: 71.38083396452518 kcal/mol)

>  <smiles>  (72) 
CN(C)c1ccc2ccc(NC(=O)CCCC(=O)NCCc3ccc(O)cc3)cc2[n+]1C

>  <score_type>  (72) 
oracle

>  <origin>  (72) 
adg

>  <m_score__min__energy>  (72) 
-13.720000000000001

>  <m_primary>  (72) 
energy

$$$$
72:0
     RDKit          3D

 37 39  0  0  0  0  0  0  0  0999 V2000
   59.6670   33.8010   49.8500 C   0  0  0  0  0  0  0  0  0  0  0  0
   60.6260   33.7140   48.9350 C   0  0  0  0  0  0  0  0  0  0  0  0
   61.9710   33.6930   48.9810 N   0  0  0  0  0  0  0  0  0  0  0  0
   62.0230   33.5680   47.6430 C   0  0  0  0  0  0  0  0  0  0  0  0
   63.0090   33.4840   46.7570 C   0  0  0  0  0  0  0  0  0  0  0  0
   60.6710   33.5870   47.5880 N   0  0  0  0  0  0  0  0  0  0  0  0
   59.6920   33.5080   46.5410 C   0  0  0  0  0  0  0  0  0  0  0  0
   59.2570   34.6700   45.8890 C   0  0  0  0  0  0  0  0  0  0  0  0
   58.3000   34.5920   44.8760 C   0  0  0  0  0  0  0  0  0  0  0  0
   57.7730   33.3540   44.5020 C   0  0  0  0  0  0  0  0  0  0  0  0
   58.2030   32.1740   45.1340 C   0  0  0  0  0  0  0  0  0  0  0  0
   57.6250   30.8660   44.7240 C   0  0  0  0  0  0  0  0  0  0  0  0
   56.3830   30.6820   44.8640 O   0  0  0  0  0  0  0  0  0  0  0  0
   58.4500   29.7960   44.1940 N   0  0  0  0  0  0  0  0  0  0  0  0
   59.5350   29.4800   45.1530 C   0  0  0  0  0  0  0  0  0  0  0  0
   60.0410   28.0400   44.9560 C   0  0  0  0  0  0  0  0  0  0  0  0
   59.0420   27.0470   45.1560 O   0  0  0  0  0  0  0  0  0  0  0  0
   57.7190   27.5110   44.9290 C   0  0  0  0  0  0  0  0  0  0  0  0
   57.6320   28.6040   43.8470 C   0  0  0  0  0  0  0  0  0  0  0  0
   59.1590   32.2660   46.1650 C   0  0  0  0  0  0  0  0  0  0  0  0
   58.6110   33.7968   49.5421 H   0  0  0  0  0  0  0  0  0  0  0  0
   59.9289   33.8772   50.9157 H   0  0  0  0  0  0  0  0  0  0  0  0
   62.7790   33.3843   45.6859 H   0  0  0  0  0  0  0  0  0  0  0  0
   64.0556   33.5141   47.0943 H   0  0  0  0  0  0  0  0  0  0  0  0
   59.6715   35.6474   46.1768 H   0  0  0  0  0  0  0  0  0  0  0  0
   57.9600   35.5081   44.3709 H   0  0  0  0  0  0  0  0  0  0  0  0
   57.0152   33.3016   43.7064 H   0  0  0  0  0  0  0  0  0  0  0  0
   58.8910   30.1160   43.3010 H   0  0  0  0  0  0  0  0  0  0  0  0
   60.3693   30.1794   44.9959 H   0  0  0  0  0  0  0  0  0  0  0  0
   59.1395   29.5765   46.1749 H   0  0  0  0  0  0  0  0  0  0  0  0
   60.4239   27.9446   43.9292 H   0  0  0  0  0  0  0  0  0  0  0  0
   60.8194   27.8679   45.7139 H   0  0  0  0  0  0  0  0  0  0  0  0
   57.0995   26.6583   44.6141 H   0  0  0  0  0  0  0  0  0  0  0  0
   57.3648   27.9565   45.8703 H   0  0  0  0  0  0  0  0  0  0  0  0
   57.9934   28.1902   42.8940 H   0  0  0  0  0  0  0  0  0  0  0  0
   56.5821   28.9228   43.7690 H   0  0  0  0  0  0  0  0  0  0  0  0
   59.4913   31.3532   46.6811 H   0  0  0  0  0  0  0  0  0  0  0  0
  1  2  2  0
  2  3  1  0
  3  4  1  0
  4  5  2  0
  4  6  1  0
  6  7  1  0
  7  8  2  0
  8  9  1  0
  9 10  2  0
 10 11  1  0
 11 12  1  0
 12 13  2  0
 12 14  1  0
 14 15  1  0
 15 16  1  0
 16 17  1  0
 17 18  1  0
 18 19  1  0
 11 20  2  0
  6  2  1  0
 20  7  1  0
 19 14  1  0
  1 21  1  0
  1 22  1  0
  5 23  1  0
  5 24  1  0
  8 25  1  0
  9 26  1  0
 10 27  1  0
 14 28  1  0
 15 29  1  0
 15 30  1  0
 16 31  1  0
 16 32  1  0
 18 33  1  0
 18 34  1  0
 19 35  1  0
 19 36  1  0
 20 37  1  0
M  CHG  2   3  -1  14   1
M  END
>  <UniqueID>  (73) 
70

>  <SMILES>  (73) 
C=c1[n-]c(=C)n1-c1cccc(C(=O)[NH+]2CCOCC2)c1

>  <Energy>  (73) 
49.652441690467505

>  <Genealogy>  (73) 
C=c1[n-]c(=C)n1-c1cccc(C(=O)[NH+]2CCOCC2)c1 (protonated)
C=c1[n-]c(=C)n1-c1cccc(C(=O)[NH+]2CCOCC2)c1 (3D coordinates assigned)
C=c1[n-]c(=C)n1-c1cccc(C(=O)[NH+]2CCOCC2)c1 (nonaromatic ring conformer: 49.652441690467505 kcal/mol)

>  <smiles>  (73) 
C=c1[nH]c(=C)n1-c1cccc(C(=O)N2CCOCC2)c1

>  <score_type>  (73) 
oracle

>  <origin>  (73) 
adg

>  <m_score__min__energy>  (73) 
-6.8099999999999996

>  <m_primary>  (73) 
energy

$$$$
73:0
     RDKit          3D

 56 59  0  0  0  0  0  0  0  0999 V2000
   57.3470   26.1090   46.1360 O   0  0  0  0  0  0  0  0  0  0  0  0
   56.4940   26.9950   45.8410 C   0  0  0  0  0  0  0  0  0  0  0  0
   55.1390   26.7000   45.9810 O   0  0  0  0  0  0  0  0  0  0  0  0
   56.9410   28.3250   45.3950 C   0  0  0  0  0  0  0  0  0  0  0  0
   56.0360   29.3380   44.3890 S   0  0  0  0  0  0  0  0  0  0  0  0
   57.1580   30.5720   44.2730 C   0  0  0  0  0  0  0  0  0  0  0  0
   58.2690   30.2150   45.0300 C   0  0  0  0  0  0  0  0  0  0  0  0
   58.1500   28.9720   45.6750 C   0  0  0  0  0  0  0  0  0  0  0  0
   59.3900   28.3740   46.7870 S   0  0  0  0  0  0  0  0  0  0  0  0
   60.4140   27.6090   45.9960 O   0  0  0  0  0  0  0  0  0  0  0  0
   58.7630   27.4650   47.8080 O   0  0  0  0  0  0  0  0  0  0  0  0
   60.1630   29.7050   47.6140 N   0  0  0  0  0  0  0  0  0  0  0  0
   60.9150   29.2020   48.7740 C   0  0  0  0  0  0  0  0  0  0  0  0
   61.4590   30.3850   49.5950 C   0  0  0  0  0  0  0  0  0  0  0  0
   61.7340   31.5850   48.7650 N   0  0  0  0  0  0  0  0  0  0  0  0
   62.6120   32.6070   49.4400 C   0  0  0  0  0  0  0  0  0  0  0  0
   62.0160   34.0410   49.2730 C   0  0  0  0  0  0  0  0  0  0  0  0
   61.6020   34.2870   47.8870 N   0  0  0  0  0  0  0  0  0  0  0  0
   59.8950   34.0390   47.7190 S   0  0  0  0  0  0  0  0  0  0  0  0
   59.6330   33.1250   46.5540 O   0  0  0  0  0  0  0  0  0  0  0  0
   59.2060   35.3520   47.4720 O   0  0  0  0  0  0  0  0  0  0  0  0
   59.2800   33.2870   49.1830 C   0  0  0  0  0  0  0  0  0  0  0  0
   58.7280   31.9970   49.1540 C   0  0  0  0  0  0  0  0  0  0  0  0
   58.2770   31.4000   50.3360 C   0  0  0  0  0  0  0  0  0  0  0  0
   58.3770   32.0830   51.5520 C   0  0  0  0  0  0  0  0  0  0  0  0
   58.9160   33.3730   51.5840 C   0  0  0  0  0  0  0  0  0  0  0  0
   59.0470   34.2290   53.1110 Cl  0  0  0  0  0  0  0  0  0  0  0  0
   59.3660   33.9740   50.4010 C   0  0  0  0  0  0  0  0  0  0  0  0
   62.8570   32.2760   50.9430 C   0  0  0  0  0  0  0  0  0  0  0  0
   64.2680   31.8100   50.9970 C   0  0  0  0  0  0  0  0  0  0  0  0
   64.9000   31.9780   49.8510 C   0  0  0  0  0  0  0  0  0  0  0  0
   64.0340   32.5860   48.8030 C   0  0  0  0  0  0  0  0  0  0  0  0
   62.1680   31.1960   47.4010 C   0  0  0  0  0  0  0  0  0  0  0  0
   61.0460   30.4250   46.6800 C   0  0  0  0  0  0  0  0  0  0  0  0
   57.0386   31.5027   43.6989 H   0  0  0  0  0  0  0  0  0  0  0  0
   59.1629   30.8502   45.1163 H   0  0  0  0  0  0  0  0  0  0  0  0
   60.2496   28.5946   49.4052 H   0  0  0  0  0  0  0  0  0  0  0  0
   61.7561   28.5863   48.4226 H   0  0  0  0  0  0  0  0  0  0  0  0
   60.7167   30.6511   50.3619 H   0  0  0  0  0  0  0  0  0  0  0  0
   62.4124   30.0666   50.0419 H   0  0  0  0  0  0  0  0  0  0  0  0
   61.1415   34.1448   49.9322 H   0  0  0  0  0  0  0  0  0  0  0  0
   62.7924   34.7734   49.5391 H   0  0  0  0  0  0  0  0  0  0  0  0
   58.6499   31.4545   48.2003 H   0  0  0  0  0  0  0  0  0  0  0  0
   57.8423   30.3899   50.3087 H   0  0  0  0  0  0  0  0  0  0  0  0
   58.0324   31.6065   52.4816 H   0  0  0  0  0  0  0  0  0  0  0  0
   59.7885   34.9893   50.4287 H   0  0  0  0  0  0  0  0  0  0  0  0
   62.7195   33.1722   51.5658 H   0  0  0  0  0  0  0  0  0  0  0  0
   62.1529   31.5223   51.3252 H   0  0  0  0  0  0  0  0  0  0  0  0
   64.7334   31.3736   51.8931 H   0  0  0  0  0  0  0  0  0  0  0  0
   65.9515   31.6994   49.6876 H   0  0  0  0  0  0  0  0  0  0  0  0
   64.3690   33.6063   48.5649 H   0  0  0  0  0  0  0  0  0  0  0  0
   64.0619   32.0240   47.8578 H   0  0  0  0  0  0  0  0  0  0  0  0
   62.4126   32.1015   46.8264 H   0  0  0  0  0  0  0  0  0  0  0  0
   63.0531   30.5476   47.4795 H   0  0  0  0  0  0  0  0  0  0  0  0
   60.4410   31.1404   46.1037 H   0  0  0  0  0  0  0  0  0  0  0  0
   61.5212   29.6777   46.0275 H   0  0  0  0  0  0  0  0  0  0  0  0
  1  2  2  0
  2  3  1  0
  2  4  1  0
  4  5  1  0
  5  6  1  0
  6  7  2  0
  7  8  1  0
  8  9  1  0
  9 10  2  0
  9 11  2  0
  9 12  1  0
 12 13  1  0
 13 14  1  0
 14 15  1  0
 15 16  1  0
 16 17  1  0
 17 18  1  0
 18 19  1  0
 19 20  2  0
 19 21  2  0
 19 22  1  0
 22 23  2  0
 23 24  1  0
 24 25  2  0
 25 26  1  0
 26 27  1  0
 26 28  2  0
 16 29  1  0
 29 30  1  0
 30 31  2  0
 31 32  1  0
 15 33  1  0
 33 34  1  0
  8  4  2  0
 34 12  1  0
 32 16  1  0
 28 22  1  0
  6 35  1  0
  7 36  1  0
 13 37  1  0
 13 38  1  0
 14 39  1  0
 14 40  1  0
 17 41  1  0
 17 42  1  0
 23 43  1  0
 24 44  1  0
 25 45  1  0
 28 46  1  0
 29 47  1  0
 29 48  1  0
 30 49  1  0
 31 50  1  0
 32 51  1  0
 32 52  1  0
 33 53  1  0
 33 54  1  0
 34 55  1  0
 34 56  1  0
M  CHG  2   3  -1  18  -1
M  END
>  <UniqueID>  (74) 
71

>  <SMILES>  (74) 
O=C([O-])c1sccc1S(=O)(=O)N1CCN(C2(C[N-]S(=O)(=O)c3cccc(Cl)c3)CC=CC2)CC1

>  <Energy>  (74) 
108.62943944225151

>  <Genealogy>  (74) 
O=C([O-])c1sccc1S(=O)(=O)N1CCN(C2(C[N-]S(=O)(=O)c3cccc(Cl)c3)CC=CC2)CC1 (protonated)
O=C([O-])c1sccc1S(=O)(=O)N1CCN(C2(C[N-]S(=O)(=O)c3cccc(Cl)c3)CC=CC2)CC1 (3D coordinates assigned)
O=C([O-])c1sccc1S(=O)(=O)N1CCN(C2(C[N-]S(=O)(=O)c3cccc(Cl)c3)CC=CC2)CC1 (nonaromatic ring conformer: 108.62943944225151 kcal/mol)

>  <smiles>  (74) 
O=C(O)c1sccc1S(=O)(=O)N1CCN(C2(CNS(=O)(=O)c3cccc(Cl)c3)CC=CC2)CC1

>  <score_type>  (74) 
oracle

>  <origin>  (74) 
adg

>  <m_score__min__energy>  (74) 
-14.33

>  <m_primary>  (74) 
energy

$$$$
74:0
     RDKit          3D

 47 49  0  0  1  0  0  0  0  0999 V2000
   60.6940   27.8250   48.6400 C   0  0  0  0  0  0  0  0  0  0  0  0
   59.9900   28.8080   48.1110 C   0  0  0  0  0  0  0  0  0  0  0  0
   59.3690   28.7750   46.9200 N   0  0  0  0  0  0  0  0  0  0  0  0
   58.7540   29.9210   46.6860 N   0  0  0  0  0  0  0  0  0  0  0  0
   58.9790   30.7240   47.7530 C   0  0  0  0  0  0  0  0  0  0  0  0
   58.5070   31.9590   47.8620 C   0  0  0  0  0  0  0  0  0  0  0  0
   58.6910   32.9540   46.8030 C   0  0  0  0  0  0  0  0  0  0  0  0
   59.5220   34.0340   47.0710 C   0  0  0  0  0  0  0  0  0  0  0  0
   59.7220   35.0000   46.0850 C   0  0  0  0  0  0  0  0  0  0  0  0
   59.1000   34.8790   44.8630 C   0  0  0  0  0  0  0  0  0  0  0  0
   58.2820   33.8030   44.6230 C   0  0  0  0  0  0  0  0  0  0  0  0
   58.0610   32.8180   45.5850 C   0  0  0  0  0  0  0  0  0  0  0  0
   57.2170   31.7220   45.3130 O   0  0  0  0  0  0  0  0  0  0  0  0
   57.0060   31.3790   43.9560 C   0  0  0  0  0  0  0  0  0  0  0  0
   56.3360   30.0360   43.8000 C   0  0  0  0  0  0  0  0  0  0  0  0
   57.3440   28.9490   43.4830 C   0  0  0  0  0  0  0  0  0  0  0  0
   57.8240   28.2890   44.6550 N   0  0  0  0  0  0  0  0  0  0  0  0
   56.8120   27.8810   45.5720 C   0  0  0  0  0  0  0  0  0  0  0  0
   57.0740   26.5250   46.1840 C   0  0  0  0  0  0  0  0  0  0  0  0
   57.2310   25.5290   45.2500 O   0  0  0  0  0  0  0  0  0  0  0  0
   57.7670   25.9460   44.0420 C   0  0  0  0  0  0  0  0  0  0  0  0
   58.6340   27.1530   44.2900 C   0  0  0  0  0  0  0  0  0  0  0  0
   59.7610   30.0540   48.6840 C   0  0  0  0  0  0  0  0  0  0  0  0
   60.1510   30.5050   49.7780 O   0  0  0  0  0  0  0  0  0  0  0  0
   61.1644   27.9541   49.6259 H   0  0  0  0  0  0  0  0  0  0  0  0
   60.8104   26.8766   48.0950 H   0  0  0  0  0  0  0  0  0  0  0  0
   59.3440   27.9780   46.2300 H   0  0  0  0  0  0  0  0  0  0  0  0
   58.1930   30.1470   45.8170 H   0  0  0  0  0  0  0  0  0  0  0  0
   57.9618   32.2440   48.7739 H   0  0  0  0  0  0  0  0  0  0  0  0
   60.0165   34.1265   48.0492 H   0  0  0  0  0  0  0  0  0  0  0  0
   60.3780   35.8602   46.2843 H   0  0  0  0  0  0  0  0  0  0  0  0
   59.2574   35.6395   44.0839 H   0  0  0  0  0  0  0  0  0  0  0  0
   57.7871   33.7154   43.6445 H   0  0  0  0  0  0  0  0  0  0  0  0
   56.3698   32.1472   43.4922 H   0  0  0  0  0  0  0  0  0  0  0  0
   57.9899   31.3219   43.4674 H   0  0  0  0  0  0  0  0  0  0  0  0
   55.8193   29.7827   44.7375 H   0  0  0  0  0  0  0  0  0  0  0  0
   55.6218   30.1000   42.9659 H   0  0  0  0  0  0  0  0  0  0  0  0
   56.8659   28.2043   42.8297 H   0  0  0  0  0  0  0  0  0  0  0  0
   58.2052   29.4251   42.9914 H   0  0  0  0  0  0  0  0  0  0  0  0
   56.7533   28.6241   46.3810 H   0  0  0  0  0  0  0  0  0  0  0  0
   55.8704   27.8083   45.0080 H   0  0  0  0  0  0  0  0  0  0  0  0
   57.9916   26.5856   46.7876 H   0  0  0  0  0  0  0  0  0  0  0  0
   56.1947   26.2662   46.7921 H   0  0  0  0  0  0  0  0  0  0  0  0
   58.3732   25.1377   43.6072 H   0  0  0  0  0  0  0  0  0  0  0  0
   56.9586   26.2024   43.3415 H   0  0  0  0  0  0  0  0  0  0  0  0
   59.3372   26.9322   45.1066 H   0  0  0  0  0  0  0  0  0  0  0  0
   59.1861   27.3904   43.3687 H   0  0  0  0  0  0  0  0  0  0  0  0
  1  2  2  0
  2  3  1  0
  3  4  1  0
  4  5  1  0
  5  6  2  0
  6  7  1  0
  7  8  2  0
  8  9  1  0
  9 10  2  0
 10 11  1  0
 11 12  2  0
 12 13  1  0
 13 14  1  0
 14 15  1  0
 15 16  1  0
 16 17  1  0
 17 18  1  0
 18 19  1  0
 19 20  1  0
 20 21  1  0
 21 22  1  0
  5 23  1  0
 23 24  2  0
 23  2  1  0
 12  7  1  0
 22 17  1  0
  1 25  1  0
  1 26  1  0
  3 27  1  0
  4 28  1  0
  6 29  1  0
  8 30  1  0
  9 31  1  0
 10 32  1  0
 11 33  1  0
 14 34  1  0
 14 35  1  0
 15 36  1  0
 15 37  1  0
 16 38  1  0
 16 39  1  0
 18 40  1  0
 18 41  1  0
 19 42  1  0
 19 43  1  0
 21 44  1  0
 21 45  1  0
 22 46  1  0
 22 47  1  0
M  END
>  <smiles>  (75) 
C=c1[nH][nH]c(=Cc2ccccc2OCCCN2CCOCC2)c1=O

>  <score_type>  (75) 
oracle

>  <origin>  (75) 
adg

>  <m_score__min__energy>  (75) 
-7.2699999999999996

>  <m_primary>  (75) 
energy

$$$$
75:0
     RDKit          3D

 62 64  0  0  0  0  0  0  0  0999 V2000
   58.1680   31.3540   46.3630 H   0  0  0  0  0  0  0  0  0  0  0  0
   57.4970   30.9600   45.7460 O   0  0  0  0  0  0  0  0  0  0  0  0
   57.3930   31.8350   44.6560 C   0  0  0  0  0  0  0  0  0  0  0  0
   56.5059   31.5683   44.0628 H   0  0  0  0  0  0  0  0  0  0  0  0
   58.3032   31.7464   44.0446 H   0  0  0  0  0  0  0  0  0  0  0  0
   57.2610   33.2850   45.1330 C   0  0  0  0  0  0  0  0  0  0  0  0
   56.6308   33.3081   46.0343 H   0  0  0  0  0  0  0  0  0  0  0  0
   56.8087   33.8737   44.3213 H   0  0  0  0  0  0  0  0  0  0  0  0
   58.6290   33.8990   45.4660 C   0  0  0  0  0  0  0  0  0  0  0  0
   58.5025   34.9695   45.6850 H   0  0  0  0  0  0  0  0  0  0  0  0
   59.2996   33.7670   44.6041 H   0  0  0  0  0  0  0  0  0  0  0  0
   59.2210   33.2270   46.6430 N   0  0  0  0  0  0  0  0  0  0  0  0
   60.6820   33.0790   46.5070 C   0  0  0  0  0  0  0  0  0  0  0  0
   61.1530   34.0719   46.5547 H   0  0  0  0  0  0  0  0  0  0  0  0
   60.9041   32.6016   45.5412 H   0  0  0  0  0  0  0  0  0  0  0  0
   61.2420   32.1940   47.6450 C   0  0  0  0  0  0  0  0  0  0  0  0
   62.2515   32.5497   47.8985 H   0  0  0  0  0  0  0  0  0  0  0  0
   61.2461   31.1572   47.2775 H   0  0  0  0  0  0  0  0  0  0  0  0
   60.4120   32.2190   48.8750 N   0  0  0  0  0  0  0  0  0  0  0  0
   59.4280   31.1080   48.9040 C   0  0  0  0  0  0  0  0  0  0  0  0
   59.2130   30.7971   47.8710 H   0  0  0  0  0  0  0  0  0  0  0  0
   58.5201   31.4716   49.4075 H   0  0  0  0  0  0  0  0  0  0  0  0
   59.9530   29.8920   49.6900 C   0  0  0  0  0  0  0  0  0  0  0  0
   61.0528   29.9096   49.6755 H   0  0  0  0  0  0  0  0  0  0  0  0
   59.5590   28.9849   49.2085 H   0  0  0  0  0  0  0  0  0  0  0  0
   59.4780   29.8920   51.1520 C   0  0  0  0  0  0  0  0  0  0  0  0
   59.7852   30.8389   51.6200 H   0  0  0  0  0  0  0  0  0  0  0  0
   59.9350   29.0216   51.6456 H   0  0  0  0  0  0  0  0  0  0  0  0
   57.9560   29.7500   51.2900 C   0  0  0  0  0  0  0  0  0  0  0  0
   57.6338   28.8198   50.7992 H   0  0  0  0  0  0  0  0  0  0  0  0
   57.4745   30.6175   50.8150 H   0  0  0  0  0  0  0  0  0  0  0  0
   57.5500   29.7070   52.7660 C   0  0  0  0  0  0  0  0  0  0  0  0
   57.9447   30.5982   53.2759 H   0  0  0  0  0  0  0  0  0  0  0  0
   57.9628   28.7948   53.2216 H   0  0  0  0  0  0  0  0  0  0  0  0
   56.0860   29.6830   52.8980 N   0  0  0  0  0  0  0  0  0  0  0  0
   55.3590   28.6480   53.3820 C   0  0  0  0  0  0  0  0  0  0  0  0
   55.9260   27.3420   53.8480 C   0  0  0  0  0  0  0  0  0  0  0  0
   55.9363   27.3183   54.9477 H   0  0  0  0  0  0  0  0  0  0  0  0
   55.3052   26.5167   53.4692 H   0  0  0  0  0  0  0  0  0  0  0  0
   56.9529   27.2321   53.4692 H   0  0  0  0  0  0  0  0  0  0  0  0
   54.0190   28.9680   53.4040 C   0  0  0  0  0  0  0  0  0  0  0  0
   53.2010   28.3356   53.7795 H   0  0  0  0  0  0  0  0  0  0  0  0
   53.8980   30.2360   52.8640 C   0  0  0  0  0  0  0  0  0  0  0  0
   52.7030   30.8310   52.6810 C   0  0  0  0  0  0  0  0  0  0  0  0
   52.2395   31.2978   53.5626 H   0  0  0  0  0  0  0  0  0  0  0  0
   51.9590   30.9160   51.4150 C   0  0  0  0  0  0  0  0  0  0  0  0
   52.0650   30.0050   50.4340 N   0  0  0  0  0  0  0  0  0  0  0  0
   51.3750   30.5620   49.4140 C   0  0  0  0  0  0  0  0  0  0  0  0
   51.2400   29.9960   48.2990 O   0  0  0  0  0  0  0  0  0  0  0  0
   50.8630   31.7840   49.6740 N   0  0  0  0  0  0  0  0  0  0  0  0
   51.2570   32.0020   50.9390 C   0  0  0  0  0  0  0  0  0  0  0  0
   51.0200   33.1890   51.6250 O   0  0  0  0  0  0  0  0  0  0  0  0
   55.2050   30.6730   52.5850 C   0  0  0  0  0  0  0  0  0  0  0  0
   55.5800   31.8990   52.1890 C   0  0  0  0  0  0  0  0  0  0  0  0
   56.6421   32.1157   52.0020 H   0  0  0  0  0  0  0  0  0  0  0  0
   54.8253   32.6873   52.0514 H   0  0  0  0  0  0  0  0  0  0  0  0
   59.8100   33.5570   49.0620 C   0  0  0  0  0  0  0  0  0  0  0  0
   60.6170   34.3003   49.1413 H   0  0  0  0  0  0  0  0  0  0  0  0
   59.2005   33.5275   49.9772 H   0  0  0  0  0  0  0  0  0  0  0  0
   58.8850   33.9510   47.8900 C   0  0  0  0  0  0  0  0  0  0  0  0
   58.9832   35.0316   47.7094 H   0  0  0  0  0  0  0  0  0  0  0  0
   57.8551   33.6829   48.1685 H   0  0  0  0  0  0  0  0  0  0  0  0
  1  2  1  0
  2  3  1  0
  3  4  1  0
  3  5  1  0
  3  6  1  0
  6  7  1  0
  6  8  1  0
  6  9  1  0
  9 10  1  0
  9 11  1  0
  9 12  1  0
 12 13  1  0
 13 14  1  0
 13 15  1  0
 13 16  1  0
 16 17  1  0
 16 18  1  0
 16 19  1  0
 19 20  1  0
 20 21  1  0
 20 22  1  0
 20 23  1  0
 23 24  1  0
 23 25  1  0
 23 26  1  0
 26 27  1  0
 26 28  1  0
 26 29  1  0
 29 30  1  0
 29 31  1  0
 29 32  1  0
 32 33  1  0
 32 34  1  0
 32 35  1  0
 35 36  1  0
 36 37  1  0
 37 38  1  0
 37 39  1  0
 37 40  1  0
 36 41  2  0
 41 42  1  0
 41 43  1  0
 43 44  2  0
 44 45  1  0
 44 46  1  0
 46 47  1  0
 47 48  1  0
 48 49  2  0
 48 50  1  0
 50 51  1  0
 51 52  1  0
 43 53  1  0
 53 54  2  0
 54 55  1  0
 54 56  1  0
 19 57  1  0
 57 58  1  0
 57 59  1  0
 57 60  1  0
 60 61  1  0
 60 62  1  0
 60 12  1  0
 53 35  1  0
 51 46  2  0
M  CHG  3  47  -1  50  -1  52  -1
M  END
>  <UniqueID>  (76) 
72

>  <SMILES>  (76) 
C=c1/c(=C\c2[n-]c(=O)[n-]c2[O-])cc(C)n1CCCCCN1CCN(CCCO)CC1

>  <Energy>  (76) 
135.0288959179214

>  <Genealogy>  (76) 
C=c1c(=Cc2[n-]c(=O)[n-]c2[O-])cc(C)n1CCCCCN1CCN(CCCO)CC1 (protonated)
C=c1/c(=C\c2[n-]c(=O)[n-]c2[O-])cc(C)n1CCCCCN1CCN(CCCO)CC1 (cis-trans isomerization)
C=c1/c(=C\c2[n-]c(=O)[n-]c2[O-])cc(C)n1CCCCCN1CCN(CCCO)CC1 (3D coordinates assigned)
C=c1/c(=C\c2[n-]c(=O)[n-]c2[O-])cc(C)n1CCCCCN1CCN(CCCO)CC1 (nonaromatic ring conformer: 135.0288959179214 kcal/mol)

>  <smiles>  (76) 
C=c1c(=Cc2[nH]c(=O)[nH]c2O)cc(C)n1CCCCCN1CCN(CCCO)CC1

>  <score_type>  (76) 
oracle

>  <origin>  (76) 
adg

>  <m_score__min__energy>  (76) 
-16.899999999999999

>  <m_primary>  (76) 
energy

$$$$
76:0
     RDKit          3D

 66 69  0  0  0  0  0  0  0  0999 V2000
   60.1460   28.4480   45.3330 C   0  0  0  0  0  0  0  0  0  0  0  0
   58.8900   27.6700   45.5680 C   0  0  0  0  0  0  0  0  0  0  0  0
   58.7520   26.6110   46.4420 C   0  0  0  0  0  0  0  0  0  0  0  0
   57.4090   26.2750   46.3590 C   0  0  0  0  0  0  0  0  0  0  0  0
   56.7200   25.2050   47.1000 C   0  0  0  0  0  0  0  0  0  0  0  0
   57.3350   24.5560   48.2150 N   0  0  0  0  0  0  0  0  0  0  0  0
   55.5690   24.8460   46.7350 O   0  0  0  0  0  0  0  0  0  0  0  0
   56.7850   27.0960   45.4900 N   0  0  0  0  0  0  0  0  0  0  0  0
   57.6900   27.9340   45.0090 N   0  0  0  0  0  0  0  0  0  0  0  0
   57.3700   29.0040   44.0620 C   0  0  0  0  0  0  0  0  0  0  0  0
   56.2440   29.8660   44.5740 C   0  0  0  0  0  0  0  0  0  0  0  0
   55.1410   29.3350   44.8800 O   0  0  0  0  0  0  0  0  0  0  0  0
   56.3410   31.2960   44.5690 N   0  0  0  0  0  0  0  0  0  0  0  0
   57.4160   32.0590   45.1270 C   0  0  0  0  0  0  0  0  0  0  0  0
   57.6930   33.3300   44.6100 C   0  0  0  0  0  0  0  0  0  0  0  0
   58.7240   34.1040   45.1530 C   0  0  0  0  0  0  0  0  0  0  0  0
   59.4650   33.6280   46.2470 C   0  0  0  0  0  0  0  0  0  0  0  0
   60.6020   34.4390   46.8110 C   0  0  0  0  0  0  0  0  0  0  0  0
   61.9530   33.8460   46.3730 C   0  0  0  0  0  0  0  0  0  0  0  0
   63.0460   34.1710   47.3060 N   0  0  0  0  0  0  0  0  0  0  0  0
   63.7240   32.9860   47.8600 C   0  0  0  0  0  0  0  0  0  0  0  0
   63.2200   32.6420   49.2810 C   0  0  1  0  0  0  0  0  0  0  0  0
   61.9640   31.7810   49.3100 C   0  0  0  0  0  0  0  0  0  0  0  0
   61.8190   30.7510   48.3620 C   0  0  0  0  0  0  0  0  0  0  0  0
   60.6640   29.9640   48.3380 C   0  0  0  0  0  0  0  0  0  0  0  0
   59.6350   30.2030   49.2510 C   0  0  0  0  0  0  0  0  0  0  0  0
   59.7580   31.2290   50.1890 C   0  0  0  0  0  0  0  0  0  0  0  0
   60.9120   32.0190   50.2180 C   0  0  0  0  0  0  0  0  0  0  0  0
   64.3250   32.0110   50.1090 C   0  0  0  0  0  0  0  0  0  0  0  0
   64.0430   30.9090   50.9370 C   0  0  0  0  0  0  0  0  0  0  0  0
   65.0500   30.3260   51.7110 C   0  0  0  0  0  0  0  0  0  0  0  0
   66.3500   30.8370   51.6720 C   0  0  0  0  0  0  0  0  0  0  0  0
   66.6430   31.9360   50.8610 C   0  0  0  0  0  0  0  0  0  0  0  0
   67.9040   32.4320   50.8250 F   0  0  0  0  0  0  0  0  0  0  0  0
   65.6380   32.5250   50.0870 C   0  0  0  0  0  0  0  0  0  0  0  0
   59.1680   32.3640   46.7800 C   0  0  0  0  0  0  0  0  0  0  0  0
   58.1440   31.5890   46.2300 C   0  0  0  0  0  0  0  0  0  0  0  0
   60.5923   28.7245   46.2996 H   0  0  0  0  0  0  0  0  0  0  0  0
   60.8575   27.8323   44.7633 H   0  0  0  0  0  0  0  0  0  0  0  0
   59.9116   29.3593   44.7633 H   0  0  0  0  0  0  0  0  0  0  0  0
   59.5292   26.1410   47.0625 H   0  0  0  0  0  0  0  0  0  0  0  0
   56.8210   23.8090   48.7310 H   0  0  0  0  0  0  0  0  0  0  0  0
   58.3140   24.7740   48.5040 H   0  0  0  0  0  0  0  0  0  0  0  0
   58.2621   29.6301   43.9131 H   0  0  0  0  0  0  0  0  0  0  0  0
   57.0546   28.5464   43.1127 H   0  0  0  0  0  0  0  0  0  0  0  0
   57.0971   33.7221   43.7727 H   0  0  0  0  0  0  0  0  0  0  0  0
   58.9552   35.0891   44.7215 H   0  0  0  0  0  0  0  0  0  0  0  0
   60.5250   35.4738   46.4461 H   0  0  0  0  0  0  0  0  0  0  0  0
   60.5433   34.4201   47.9093 H   0  0  0  0  0  0  0  0  0  0  0  0
   61.8545   32.7520   46.3138 H   0  0  0  0  0  0  0  0  0  0  0  0
   62.2077   34.2850   45.3971 H   0  0  0  0  0  0  0  0  0  0  0  0
   62.6670   34.7440   48.0970 H   0  0  0  0  0  0  0  0  0  0  0  0
   63.5355   32.1274   47.1987 H   0  0  0  0  0  0  0  0  0  0  0  0
   64.7991   33.2091   47.9255 H   0  0  0  0  0  0  0  0  0  0  0  0
   62.9297   33.6032   49.7301 H   0  0  0  0  0  0  0  0  0  0  0  0
   62.6216   30.5636   47.6335 H   0  0  0  0  0  0  0  0  0  0  0  0
   60.5656   29.1553   47.5988 H   0  0  0  0  0  0  0  0  0  0  0  0
   58.7270   29.5824   49.2309 H   0  0  0  0  0  0  0  0  0  0  0  0
   58.9460   31.4168   50.9069 H   0  0  0  0  0  0  0  0  0  0  0  0
   60.9993   32.8315   50.9543 H   0  0  0  0  0  0  0  0  0  0  0  0
   63.0214   30.5029   50.9754 H   0  0  0  0  0  0  0  0  0  0  0  0
   64.8187   29.4628   52.3524 H   0  0  0  0  0  0  0  0  0  0  0  0
   67.1419   30.3743   52.2793 H   0  0  0  0  0  0  0  0  0  0  0  0
   65.8734   33.3952   49.4567 H   0  0  0  0  0  0  0  0  0  0  0  0
   59.7445   31.9816   47.6352 H   0  0  0  0  0  0  0  0  0  0  0  0
   57.9077   30.6061   46.6637 H   0  0  0  0  0  0  0  0  0  0  0  0
  1  2  1  0
  2  3  2  0
  3  4  1  0
  4  5  1  0
  5  6  1  0
  5  7  2  0
  4  8  2  0
  8  9  1  0
  9 10  1  0
 10 11  1  0
 11 12  2  0
 11 13  1  0
 13 14  1  0
 14 15  2  0
 15 16  1  0
 16 17  2  0
 17 18  1  0
 18 19  1  0
 19 20  1  0
 20 21  1  0
 21 22  1  0
 22 23  1  0
 23 24  2  0
 24 25  1  0
 25 26  2  0
 26 27  1  0
 27 28  2  0
 22 29  1  0
 29 30  2  0
 30 31  1  0
 31 32  2  0
 32 33  1  0
 33 34  1  0
 33 35  2  0
 17 36  1  0
 36 37  2  0
  9  2  1  0
 37 14  1  0
 28 23  1  0
 35 29  1  0
  1 38  1  0
  1 39  1  0
  1 40  1  0
  3 41  1  0
  6 42  1  0
  6 43  1  0
 10 44  1  0
 10 45  1  0
 15 46  1  0
 16 47  1  0
 18 48  1  0
 18 49  1  0
 19 50  1  0
 19 51  1  0
 20 52  1  0
 21 53  1  0
 21 54  1  0
 22 55  1  1
 24 56  1  0
 25 57  1  0
 26 58  1  0
 27 59  1  0
 28 60  1  0
 30 61  1  0
 31 62  1  0
 32 63  1  0
 35 64  1  0
 36 65  1  0
 37 66  1  0
M  CHG  1  13  -1
M  END
>  <UniqueID>  (77) 
73

>  <SMILES>  (77) 
Cc1cc(C(N)=O)nn1CC(=O)[N-]c1ccc(CCNC[C@@H](c2ccccc2)c2cccc(F)c2)cc1

>  <Energy>  (77) 
102.8254361400544

>  <Genealogy>  (77) 
Cc1cc(C(N)=O)nn1CC(=O)[N-]c1ccc(CCNCC(c2ccccc2)c2cccc(F)c2)cc1 (protonated)
Cc1cc(C(N)=O)nn1CC(=O)[N-]c1ccc(CCNC[C@@H](c2ccccc2)c2cccc(F)c2)cc1 (chirality)
Cc1cc(C(N)=O)nn1CC(=O)[N-]c1ccc(CCNC[C@@H](c2ccccc2)c2cccc(F)c2)cc1 (3D coordinates assigned)
Cc1cc(C(N)=O)nn1CC(=O)[N-]c1ccc(CCNC[C@@H](c2ccccc2)c2cccc(F)c2)cc1 (optimized conformer: 102.8254361400544 kcal/mol)

>  <smiles>  (77) 
Cc1cc(C(N)=O)nn1CC(=O)Nc1ccc(CCNCC(c2ccccc2)c2cccc(F)c2)cc1

>  <score_type>  (77) 
oracle

>  <origin>  (77) 
adg

>  <m_score__min__energy>  (77) 
-12.279999999999999

>  <m_primary>  (77) 
energy

$$$$
77:0
     RDKit          3D

 42 44  0  0  0  0  0  0  0  0999 V2000
   60.9233   28.2029   46.6477 H   0  0  0  0  0  0  0  0  0  0  0  0
   60.1120   27.6460   46.1560 C   0  0  0  0  0  0  0  0  0  0  0  0
   60.0915   26.5472   46.2038 H   0  0  0  0  0  0  0  0  0  0  0  0
   59.1460   28.3080   45.4970 C   0  0  0  0  0  0  0  0  0  0  0  0
   58.0630   27.7200   44.8320 C   0  0  0  0  0  0  0  0  0  0  0  0
   57.8100   26.4060   44.6800 C   0  0  0  0  0  0  0  0  0  0  0  0
   58.0483   25.9428   43.7112 H   0  0  0  0  0  0  0  0  0  0  0  0
   57.2320   25.5490   45.7350 C   0  0  0  0  0  0  0  0  0  0  0  0
   55.9760   25.6760   46.2830 C   0  0  0  0  0  0  0  0  0  0  0  0
   55.0690   26.6910   46.0030 O   0  0  0  0  0  0  0  0  0  0  0  0
   55.7290   24.6700   47.1420 N   0  0  0  0  0  0  0  0  0  0  0  0
   56.8600   23.9340   47.0730 C   0  0  0  0  0  0  0  0  0  0  0  0
   57.0260   22.8720   47.7280 O   0  0  0  0  0  0  0  0  0  0  0  0
   57.7860   24.4270   46.2270 N   0  0  0  0  0  0  0  0  0  0  0  0
   58.7000   23.9900   45.9730 H   0  0  0  0  0  0  0  0  0  0  0  0
   57.3110   28.7630   44.3200 C   0  0  0  0  0  0  0  0  0  0  0  0
   56.3925   28.6746   43.7213 H   0  0  0  0  0  0  0  0  0  0  0  0
   57.9320   29.9360   44.7030 C   0  0  0  0  0  0  0  0  0  0  0  0
   57.4080   31.2860   44.3740 C   0  0  0  0  0  0  0  0  0  0  0  0
   57.0860   31.5620   43.1900 O   0  0  0  0  0  0  0  0  0  0  0  0
   57.1630   32.2690   45.3920 N   0  0  0  0  0  0  0  0  0  0  0  0
   57.9640   33.2360   45.7400 C   0  0  0  0  0  0  0  0  0  0  0  0
   58.4800   34.0930   44.8130 N   0  0  0  0  0  0  0  0  0  0  0  0
   59.3140   35.1100   45.1560 C   0  0  0  0  0  0  0  0  0  0  0  0
   59.7168   35.7768   44.3794 H   0  0  0  0  0  0  0  0  0  0  0  0
   59.6590   35.3080   46.4930 C   0  0  0  0  0  0  0  0  0  0  0  0
   60.3370   36.1264   46.7769 H   0  0  0  0  0  0  0  0  0  0  0  0
   59.1350   34.4570   47.4660 C   0  0  0  0  0  0  0  0  0  0  0  0
   59.3952   34.6043   48.5246 H   0  0  0  0  0  0  0  0  0  0  0  0
   58.2790   33.4170   47.0940 C   0  0  0  0  0  0  0  0  0  0  0  0
   57.7700   32.5890   48.0410 F   0  0  0  0  0  0  0  0  0  0  0  0
   59.0600   29.6650   45.4110 N   0  0  0  0  0  0  0  0  0  0  0  0
   59.9810   30.6620   45.9870 C   0  0  0  0  0  0  0  0  0  0  0  0
   60.9925   30.4826   45.5938 H   0  0  0  0  0  0  0  0  0  0  0  0
   59.6224   31.6635   45.7071 H   0  0  0  0  0  0  0  0  0  0  0  0
   60.0200   30.5770   47.5210 C   0  0  0  0  0  0  0  0  0  0  0  0
   59.0570   30.9318   47.9168 H   0  0  0  0  0  0  0  0  0  0  0  0
   60.2109   29.5273   47.7886 H   0  0  0  0  0  0  0  0  0  0  0  0
   61.1370   31.4160   48.1340 C   0  0  0  0  0  0  0  0  0  0  0  0
   61.0723   31.3674   49.2310 H   0  0  0  0  0  0  0  0  0  0  0  0
   62.1115   31.0247   47.8065 H   0  0  0  0  0  0  0  0  0  0  0  0
   61.0327   32.4609   47.8065 H   0  0  0  0  0  0  0  0  0  0  0  0
  1  2  1  0
  2  3  1  0
  2  4  2  0
  4  5  1  0
  5  6  2  0
  6  7  1  0
  6  8  1  0
  8  9  2  0
  9 10  1  0
  9 11  1  0
 11 12  1  0
 12 13  2  0
 12 14  1  0
 14 15  1  0
  5 16  1  0
 16 17  1  0
 16 18  2  0
 18 19  1  0
 19 20  2  0
 19 21  1  0
 21 22  2  3
 22 23  1  0
 23 24  1  0
 24 25  1  0
 24 26  2  0
 26 27  1  0
 26 28  1  0
 28 29  1  0
 28 30  2  0
 30 31  1  0
 18 32  1  0
 32 33  1  0
 33 34  1  0
 33 35  1  0
 33 36  1  0
 36 37  1  0
 36 38  1  0
 36 39  1  0
 39 40  1  0
 39 41  1  0
 39 42  1  0
 32  4  1  0
 14  8  1  0
 30 22  1  0
M  CHG  3  10  -1  11  -1  23  -1
M  END
>  <UniqueID>  (78) 
74

>  <SMILES>  (78) 
C=c1/c(=C/c2[nH]c(=O)[n-]c2[O-])cc(C(=O)N=c2[n-]cccc2F)n1CCC

>  <Energy>  (78) 
114.47738733234452

>  <Genealogy>  (78) 
C=c1c(=Cc2[nH]c(=O)[n-]c2[O-])cc(C(=O)N=c2[n-]cccc2F)n1CCC (protonated)
C=c1/c(=C/c2[nH]c(=O)[n-]c2[O-])cc(C(=O)N=c2[n-]cccc2F)n1CCC (cis-trans isomerization)
C=c1/c(=C/c2[nH]c(=O)[n-]c2[O-])cc(C(=O)N=c2[n-]cccc2F)n1CCC (3D coordinates assigned)
C=c1/c(=C/c2[nH]c(=O)[n-]c2[O-])cc(C(=O)N=c2[n-]cccc2F)n1CCC (optimized conformer: 114.47738733234452 kcal/mol)

>  <smiles>  (78) 
C=c1c(=Cc2[nH]c(=O)[nH]c2O)cc(C(=O)N=c2[nH]cccc2F)n1CCC

>  <score_type>  (78) 
oracle

>  <origin>  (78) 
adg

>  <m_score__min__energy>  (78) 
-14.640000000000001

>  <m_primary>  (78) 
energy

$$$$
78:0
     RDKit          3D

 67 70  0  0  0  0  0  0  0  0999 V2000
   50.5540   31.8880   48.7960 C   0  0  0  0  0  0  0  0  0  0  0  0
   51.4360   32.5110   49.7200 O   0  0  0  0  0  0  0  0  0  0  0  0
   51.8310   31.9450   50.9410 C   0  0  0  0  0  0  0  0  0  0  0  0
   52.9320   31.0730   51.0440 C   0  0  0  0  0  0  0  0  0  0  0  0
   53.2970   30.5350   52.2870 C   0  0  0  0  0  0  0  0  0  0  0  0
   54.4130   29.5320   52.3840 C   0  0  0  0  0  0  0  0  0  0  0  0
   55.6630   30.1520   51.9590 N   0  0  0  0  0  0  0  0  0  0  0  0
   56.9450   29.6720   52.3750 C   0  0  0  0  0  0  0  0  0  0  0  0
   57.0860   28.4780   52.7540 O   0  0  0  0  0  0  0  0  0  0  0  0
   58.1290   30.5970   52.3920 C   0  0  0  0  0  0  0  0  0  0  0  0
   59.2130   30.2320   51.3490 C   0  0  0  0  0  0  0  0  0  0  0  0
   58.7470   30.4430   49.8890 C   0  0  0  0  0  0  0  0  0  0  0  0
   58.4880   29.1100   49.1810 C   0  0  0  0  0  0  0  0  0  0  0  0
   59.7060   28.2550   49.1220 N   0  0  0  0  0  0  0  0  0  0  0  0
   60.5310   28.5240   47.9210 C   0  0  0  0  0  0  0  0  0  0  0  0
   59.8250   29.4180   46.9420 C   0  0  0  0  0  0  0  0  0  0  0  0
   58.7140   28.9660   46.2180 C   0  0  0  0  0  0  0  0  0  0  0  0
   58.0630   29.8390   45.3380 C   0  0  0  0  0  0  0  0  0  0  0  0
   57.0550   29.4410   44.6980 O   0  0  0  0  0  0  0  0  0  0  0  0
   58.5330   31.1570   45.1840 C   0  0  0  0  0  0  0  0  0  0  0  0
   57.8330   32.1490   44.2890 C   0  0  0  0  0  0  0  0  0  0  0  0
   56.7800   33.3190   45.2300 S   0  0  0  0  0  0  0  0  0  0  0  0
   58.0250   33.7710   46.4460 C   0  0  0  0  0  0  0  0  0  0  0  0
   57.9880   33.1980   47.7220 C   0  0  0  0  0  0  0  0  0  0  0  0
   58.9730   33.5110   48.6630 C   0  0  0  0  0  0  0  0  0  0  0  0
   59.9910   34.4080   48.3360 C   0  0  0  0  0  0  0  0  0  0  0  0
   60.0220   34.9960   47.0660 C   0  0  0  0  0  0  0  0  0  0  0  0
   59.0360   34.6850   46.1250 C   0  0  0  0  0  0  0  0  0  0  0  0
   59.6530   31.5600   45.9250 C   0  0  0  0  0  0  0  0  0  0  0  0
   60.2610   30.6950   46.7750 N   0  0  0  0  0  0  0  0  0  0  0  0
   60.5520   28.3280   50.3430 C   0  0  0  0  0  0  0  0  0  0  0  0
   59.7860   28.8140   51.5810 C   0  0  0  0  0  0  0  0  0  0  0  0
   52.5510   30.8610   53.4290 C   0  0  0  0  0  0  0  0  0  0  0  0
   51.4560   31.7200   53.3290 C   0  0  0  0  0  0  0  0  0  0  0  0
   51.0960   32.2590   52.0910 C   0  0  0  0  0  0  0  0  0  0  0  0
   49.9990   33.1030   52.0040 O   0  0  0  0  0  0  0  0  0  0  0  0
   49.7757   31.3383   49.3456 H   0  0  0  0  0  0  0  0  0  0  0  0
   50.0836   32.6554   48.1636 H   0  0  0  0  0  0  0  0  0  0  0  0
   51.1200   31.1882   48.1636 H   0  0  0  0  0  0  0  0  0  0  0  0
   53.5091   30.8123   50.1446 H   0  0  0  0  0  0  0  0  0  0  0  0
   54.5089   29.1899   53.4250 H   0  0  0  0  0  0  0  0  0  0  0  0
   54.1908   28.6726   51.7343 H   0  0  0  0  0  0  0  0  0  0  0  0
   55.6070   31.0790   51.4770 H   0  0  0  0  0  0  0  0  0  0  0  0
   57.7761   31.6180   52.1846 H   0  0  0  0  0  0  0  0  0  0  0  0
   58.5934   30.5097   53.3853 H   0  0  0  0  0  0  0  0  0  0  0  0
   60.0374   30.9432   51.5057 H   0  0  0  0  0  0  0  0  0  0  0  0
   57.8178   31.0316   49.8925 H   0  0  0  0  0  0  0  0  0  0  0  0
   59.5449   30.9711   49.3464 H   0  0  0  0  0  0  0  0  0  0  0  0
   57.7010   28.5674   49.7254 H   0  0  0  0  0  0  0  0  0  0  0  0
   58.1823   29.3317   48.1479 H   0  0  0  0  0  0  0  0  0  0  0  0
   61.4668   29.0097   48.2345 H   0  0  0  0  0  0  0  0  0  0  0  0
   60.7287   27.5635   47.4226 H   0  0  0  0  0  0  0  0  0  0  0  0
   58.3559   27.9331   46.3400 H   0  0  0  0  0  0  0  0  0  0  0  0
   58.5916   32.7227   43.7364 H   0  0  0  0  0  0  0  0  0  0  0  0
   57.1798   31.5834   43.6082 H   0  0  0  0  0  0  0  0  0  0  0  0
   57.1808   32.4987   47.9855 H   0  0  0  0  0  0  0  0  0  0  0  0
   58.9458   33.0503   49.6615 H   0  0  0  0  0  0  0  0  0  0  0  0
   60.7680   34.6526   49.0753 H   0  0  0  0  0  0  0  0  0  0  0  0
   60.8235   35.7039   46.8080 H   0  0  0  0  0  0  0  0  0  0  0  0
   59.0544   35.1584   45.1323 H   0  0  0  0  0  0  0  0  0  0  0  0
   60.0410   32.5836   45.8165 H   0  0  0  0  0  0  0  0  0  0  0  0
   60.9527   27.3249   50.5512 H   0  0  0  0  0  0  0  0  0  0  0  0
   61.3500   29.0586   50.1446 H   0  0  0  0  0  0  0  0  0  0  0  0
   58.9584   28.1199   51.7888 H   0  0  0  0  0  0  0  0  0  0  0  0
   60.4793   28.8485   52.4343 H   0  0  0  0  0  0  0  0  0  0  0  0
   52.8297   30.4386   54.4057 H   0  0  0  0  0  0  0  0  0  0  0  0
   50.8743   31.9737   54.2275 H   0  0  0  0  0  0  0  0  0  0  0  0
  1  2  1  0
  2  3  1  0
  3  4  2  0
  4  5  1  0
  5  6  1  0
  6  7  1  0
  7  8  1  0
  8  9  2  0
  8 10  1  0
 10 11  1  0
 11 12  1  0
 12 13  1  0
 13 14  1  0
 14 15  1  0
 15 16  1  0
 16 17  2  0
 17 18  1  0
 18 19  2  0
 18 20  1  0
 20 21  1  0
 21 22  1  0
 22 23  1  0
 23 24  2  0
 24 25  1  0
 25 26  2  0
 26 27  1  0
 27 28  2  0
 20 29  2  0
 29 30  1  0
 14 31  1  0
 31 32  1  0
  5 33  2  0
 33 34  1  0
 34 35  2  0
 35 36  1  0
 35  3  1  0
 32 11  1  0
 30 16  1  0
 28 23  1  0
  1 37  1  0
  1 38  1  0
  1 39  1  0
  4 40  1  0
  6 41  1  0
  6 42  1  0
  7 43  1  0
 10 44  1  0
 10 45  1  0
 11 46  1  0
 12 47  1  0
 12 48  1  0
 13 49  1  0
 13 50  1  0
 15 51  1  0
 15 52  1  0
 17 53  1  0
 21 54  1  0
 21 55  1  0
 24 56  1  0
 25 57  1  0
 26 58  1  0
 27 59  1  0
 28 60  1  0
 29 61  1  0
 31 62  1  0
 31 63  1  0
 32 64  1  0
 32 65  1  0
 33 66  1  0
 34 67  1  0
M  CHG  2  30  -1  36  -1
M  END
>  <UniqueID>  (79) 
75

>  <SMILES>  (79) 
COc1cc(CNC(=O)CC2CCN(Cc3cc(=O)c(CSc4ccccc4)c[n-]3)CC2)ccc1[O-]

>  <Energy>  (79) 
65.34059598395338

>  <Genealogy>  (79) 
COc1cc(CNC(=O)CC2CCN(Cc3cc(=O)c(CSc4ccccc4)c[n-]3)CC2)ccc1[O-] (protonated)
COc1cc(CNC(=O)CC2CCN(Cc3cc(=O)c(CSc4ccccc4)c[n-]3)CC2)ccc1[O-] (3D coordinates assigned)
COc1cc(CNC(=O)CC2CCN(Cc3cc(=O)c(CSc4ccccc4)c[n-]3)CC2)ccc1[O-] (nonaromatic ring conformer: 65.34059598395338 kcal/mol)

>  <smiles>  (79) 
COc1cc(CNC(=O)CC2CCN(Cc3cc(=O)c(CSc4ccccc4)c[nH]3)CC2)ccc1O

>  <score_type>  (79) 
oracle

>  <origin>  (79) 
adg

>  <m_score__min__energy>  (79) 
-14.51

>  <m_primary>  (79) 
energy

$$$$
79:0
     RDKit          3D

 62 66  0  0  0  0  0  0  0  0999 V2000
   57.8882   34.4725   43.9999 H   0  0  0  0  0  0  0  0  0  0  0  0
   57.9140   33.4630   44.4360 C   0  0  0  0  0  0  0  0  0  0  0  0
   57.5000   32.4080   43.7030 N   0  0  0  0  0  0  0  0  0  0  0  0
   57.5180   31.1440   44.1810 C   0  0  0  0  0  0  0  0  0  0  0  0
   57.0830   30.1140   43.3420 C   0  0  0  0  0  0  0  0  0  0  0  0
   56.7293   30.3505   42.3276 H   0  0  0  0  0  0  0  0  0  0  0  0
   57.0930   28.7940   43.7770 C   0  0  0  0  0  0  0  0  0  0  0  0
   56.7337   27.9940   43.1130 H   0  0  0  0  0  0  0  0  0  0  0  0
   57.5590   28.4820   45.0570 C   0  0  0  0  0  0  0  0  0  0  0  0
   57.5670   27.0750   45.5350 C   0  0  0  0  0  0  0  0  0  0  0  0
   57.8280   26.7790   46.8840 C   0  0  0  0  0  0  0  0  0  0  0  0
   57.9838   27.5972   47.6026 H   0  0  0  0  0  0  0  0  0  0  0  0
   57.8910   25.4510   47.3190 C   0  0  0  0  0  0  0  0  0  0  0  0
   58.1520   25.1820   48.6230 F   0  0  0  0  0  0  0  0  0  0  0  0
   57.6990   24.4050   46.4110 C   0  0  0  0  0  0  0  0  0  0  0  0
   57.7770   23.0880   46.8480 O   0  0  0  0  0  0  0  0  0  0  0  0
   57.4290   24.6880   45.0650 C   0  0  0  0  0  0  0  0  0  0  0  0
   57.1970   23.3900   43.9050 Cl  0  0  0  0  0  0  0  0  0  0  0  0
   57.3500   26.0170   44.6350 C   0  0  0  0  0  0  0  0  0  0  0  0
   57.1159   26.2362   43.5828 H   0  0  0  0  0  0  0  0  0  0  0  0
   58.0030   29.5160   45.8990 C   0  0  0  0  0  0  0  0  0  0  0  0
   58.3878   29.2612   46.8975 H   0  0  0  0  0  0  0  0  0  0  0  0
   57.9710   30.8730   45.5040 C   0  0  0  0  0  0  0  0  0  0  0  0
   58.3690   31.9900   46.3280 C   0  0  0  0  0  0  0  0  0  0  0  0
   58.6790   31.9430   47.6050 N   0  0  0  0  0  0  0  0  0  0  0  0
   59.8700   31.8290   48.4520 C   0  0  1  0  0  0  0  0  0  0  0  0
   59.8065   30.9216   49.0706 H   0  0  0  0  0  0  0  0  0  0  0  0
   61.1520   31.5220   47.6360 C   0  0  0  0  0  0  0  0  0  0  0  0
   61.2404   30.4304   47.5326 H   0  0  0  0  0  0  0  0  0  0  0  0
   61.0398   32.0374   46.6707 H   0  0  0  0  0  0  0  0  0  0  0  0
   62.4490   32.0510   48.2660 C   0  0  0  0  0  0  0  0  0  0  0  0
   63.2750   31.3798   47.9884 H   0  0  0  0  0  0  0  0  0  0  0  0
   62.6114   33.0712   47.8882 H   0  0  0  0  0  0  0  0  0  0  0  0
   62.3710   32.1290   49.8080 C   0  0  1  0  0  0  0  0  0  0  0  0
   62.0994   31.1468   50.2221 H   0  0  0  0  0  0  0  0  0  0  0  0
   63.6970   32.4980   50.3890 N   0  0  0  0  0  0  0  0  0  0  0  0
   63.5550   33.1850   51.1690 H   0  0  0  0  0  0  0  0  0  0  0  0
   64.4320   31.3420   50.9240 C   0  0  0  0  0  0  0  0  0  0  0  0
   64.1069   31.1314   51.9535 H   0  0  0  0  0  0  0  0  0  0  0  0
   64.2428   30.4429   50.3192 H   0  0  0  0  0  0  0  0  0  0  0  0
   65.9040   31.7050   50.9070 C   0  0  0  0  0  0  0  0  0  0  0  0
   66.2096   32.1268   51.8759 H   0  0  0  0  0  0  0  0  0  0  0  0
   66.5442   30.8282   50.7298 H   0  0  0  0  0  0  0  0  0  0  0  0
   66.0390   32.7410   49.8080 C   0  0  0  0  0  0  0  0  0  0  0  0
   66.5662   33.6309   50.1823 H   0  0  0  0  0  0  0  0  0  0  0  0
   66.6196   32.3567   48.9564 H   0  0  0  0  0  0  0  0  0  0  0  0
   64.6130   33.0990   49.4020 C   0  0  0  0  0  0  0  0  0  0  0  0
   64.4896   34.1920   49.3945 H   0  0  0  0  0  0  0  0  0  0  0  0
   64.3942   32.7175   48.3937 H   0  0  0  0  0  0  0  0  0  0  0  0
   61.2920   33.1750   50.1810 C   0  0  0  0  0  0  0  0  0  0  0  0
   61.1648   33.1618   51.2735 H   0  0  0  0  0  0  0  0  0  0  0  0
   61.6511   34.1423   49.7996 H   0  0  0  0  0  0  0  0  0  0  0  0
   59.9120   32.9350   49.5330 C   0  0  0  0  0  0  0  0  0  0  0  0
   59.2064   32.6576   50.3300 H   0  0  0  0  0  0  0  0  0  0  0  0
   59.6516   33.8718   49.0186 H   0  0  0  0  0  0  0  0  0  0  0  0
   58.3750   33.2860   45.7430 C   0  0  0  0  0  0  0  0  0  0  0  0
   58.8370   34.4950   46.4780 C   0  0  0  0  0  0  0  0  0  0  0  0
   58.5290   34.6360   47.6930 O   0  0  0  0  0  0  0  0  0  0  0  0
   59.6470   35.5670   45.8150 C   0  0  0  0  0  0  0  0  0  0  0  0
   60.1219   36.1955   46.5828 H   0  0  0  0  0  0  0  0  0  0  0  0
   60.4235   35.1048   45.1877 H   0  0  0  0  0  0  0  0  0  0  0  0
   58.9903   36.1877   45.1877 H   0  0  0  0  0  0  0  0  0  0  0  0
  1  2  1  0
  2  3  1  0
  3  4  1  0
  4  5  2  0
  5  6  1  0
  5  7  1  0
  7  8  1  0
  7  9  2  0
  9 10  1  0
 10 11  2  0
 11 12  1  0
 11 13  1  0
 13 14  1  0
 13 15  2  0
 15 16  1  0
 15 17  1  0
 17 18  1  0
 17 19  2  0
 19 20  1  0
  9 21  1  0
 21 22  1  0
 21 23  2  0
 23 24  1  0
 24 25  2  0
 25 26  1  0
 26 27  1  1
 26 28  1  0
 28 29  1  0
 28 30  1  0
 28 31  1  0
 31 32  1  0
 31 33  1  0
 31 34  1  0
 34 35  1  1
 34 36  1  0
 36 37  1  0
 36 38  1  0
 38 39  1  0
 38 40  1  0
 38 41  1  0
 41 42  1  0
 41 43  1  0
 41 44  1  0
 44 45  1  0
 44 46  1  0
 44 47  1  0
 47 48  1  0
 47 49  1  0
 34 50  1  0
 50 51  1  0
 50 52  1  0
 50 53  1  0
 53 54  1  0
 53 55  1  0
 24 56  1  0
 56 57  1  0
 57 58  2  0
 57 59  1  0
 59 60  1  0
 59 61  1  0
 59 62  1  0
 56  2  2  0
 23  4  1  0
 53 26  1  0
 19 10  1  0
 47 36  1  0
M  CHG  3   3  -1  16  -1  36   1
M  END
>  <UniqueID>  (80) 
76

>  <SMILES>  (80) 
CC(=O)c1c[n-]c2ccc(-c3cc(F)c([O-])c(Cl)c3)cc2/c1=N\C1CCC([NH+]2CCCC2)CC1

>  <Energy>  (80) 
112.52058553021752

>  <Genealogy>  (80) 
CC(=O)c1c[n-]c2ccc(-c3cc(F)c([O-])c(Cl)c3)cc2c1=NC1CCC([NH+]2CCCC2)CC1 (protonated)
CC(=O)c1c[n-]c2ccc(-c3cc(F)c([O-])c(Cl)c3)cc2/c1=N\C1CCC([NH+]2CCCC2)CC1 (cis-trans isomerization)
CC(=O)c1c[n-]c2ccc(-c3cc(F)c([O-])c(Cl)c3)cc2/c1=N\C1CCC([NH+]2CCCC2)CC1 (3D coordinates assigned)
CC(=O)c1c[n-]c2ccc(-c3cc(F)c([O-])c(Cl)c3)cc2/c1=N\C1CCC([NH+]2CCCC2)CC1 (nonaromatic ring conformer: 112.52058553021752 kcal/mol)

>  <smiles>  (80) 
CC(=O)c1c[nH]c2ccc(-c3cc(F)c(O)c(Cl)c3)cc2c1=NC1CCC(N2CCCC2)CC1

>  <score_type>  (80) 
oracle

>  <origin>  (80) 
adg

>  <m_score__min__energy>  (80) 
-12.49

>  <m_primary>  (80) 
energy

$$$$
80:0
     RDKit          3D

 35 37  0  0  0  0  0  0  0  0999 V2000
   58.5090   27.6270   43.6340 C   0  0  0  0  0  0  0  0  0  0  0  0
   58.0600   28.7210   44.2560 C   0  0  0  0  0  0  0  0  0  0  0  0
   57.7330   29.8480   43.5930 N   0  0  0  0  0  0  0  0  0  0  0  0
   57.4450   30.7390   44.5560 C   0  0  0  0  0  0  0  0  0  0  0  0
   57.0650   32.0570   44.2920 O   0  0  0  0  0  0  0  0  0  0  0  0
   56.6860   32.9660   45.3210 C   0  0  0  0  0  0  0  0  0  0  0  0
   57.9060   33.5300   45.9990 C   0  0  0  0  0  0  0  0  0  0  0  0
   58.7070   34.4850   45.3510 C   0  0  0  0  0  0  0  0  0  0  0  0
   59.8550   34.9810   45.9760 C   0  0  0  0  0  0  0  0  0  0  0  0
   60.2130   34.5240   47.2480 C   0  0  0  0  0  0  0  0  0  0  0  0
   59.4230   33.5700   47.8960 C   0  0  0  0  0  0  0  0  0  0  0  0
   58.2740   33.0720   47.2730 C   0  0  0  0  0  0  0  0  0  0  0  0
   57.5660   30.2310   45.7620 O   0  0  0  0  0  0  0  0  0  0  0  0
   57.9280   28.9740   45.6290 C   0  0  0  0  0  0  0  0  0  0  0  0
   58.1030   28.1760   46.6950 C   0  0  0  0  0  0  0  0  0  0  0  0
   57.4490   26.8700   46.9040 C   0  0  0  0  0  0  0  0  0  0  0  0
   56.1930   26.6080   46.3390 C   0  0  0  0  0  0  0  0  0  0  0  0
   55.5230   27.5890   45.6170 O   0  0  0  0  0  0  0  0  0  0  0  0
   55.6170   25.3890   46.5030 N   0  0  0  0  0  0  0  0  0  0  0  0
   56.2450   24.4050   47.1970 C   0  0  0  0  0  0  0  0  0  0  0  0
   55.5270   22.9510   47.3780 S   0  0  0  0  0  0  0  0  0  0  0  0
   57.4740   24.6250   47.7300 N   0  0  0  0  0  0  0  0  0  0  0  0
   58.0920   25.8270   47.5930 C   0  0  0  0  0  0  0  0  0  0  0  0
   59.2410   25.9910   48.0840 O   0  0  0  0  0  0  0  0  0  0  0  0
   58.7640   26.7290   44.2159 H   0  0  0  0  0  0  0  0  0  0  0  0
   58.6237   27.6243   42.5400 H   0  0  0  0  0  0  0  0  0  0  0  0
   57.7360   30.0130   42.5610 H   0  0  0  0  0  0  0  0  0  0  0  0
   56.1030   33.7886   44.8812 H   0  0  0  0  0  0  0  0  0  0  0  0
   56.0802   32.4291   46.0658 H   0  0  0  0  0  0  0  0  0  0  0  0
   58.4301   34.8437   44.3487 H   0  0  0  0  0  0  0  0  0  0  0  0
   60.4772   35.7315   45.4665 H   0  0  0  0  0  0  0  0  0  0  0  0
   61.1164   34.9152   47.7388 H   0  0  0  0  0  0  0  0  0  0  0  0
   59.7052   33.2107   48.8966 H   0  0  0  0  0  0  0  0  0  0  0  0
   57.6566   32.3184   47.7838 H   0  0  0  0  0  0  0  0  0  0  0  0
   58.7919   28.5255   47.4782 H   0  0  0  0  0  0  0  0  0  0  0  0
  1  2  2  0
  2  3  1  0
  3  4  2  0
  4  5  1  0
  5  6  1  0
  6  7  1  0
  7  8  2  0
  8  9  1  0
  9 10  2  0
 10 11  1  0
 11 12  2  0
  4 13  1  0
 13 14  1  0
 14 15  2  3
 15 16  1  0
 16 17  2  0
 17 18  1  0
 17 19  1  0
 19 20  1  0
 20 21  2  0
 20 22  1  0
 22 23  1  0
 23 24  2  0
 14  2  1  0
 23 16  1  0
 12  7  1  0
  1 25  1  0
  1 26  1  0
  3 27  1  0
  6 28  1  0
  6 29  1  0
  8 30  1  0
  9 31  1  0
 10 32  1  0
 11 33  1  0
 12 34  1  0
 15 35  1  0
M  CHG  4   3   1  18  -1  19  -1  22  -1
M  END
>  <UniqueID>  (81) 
77

>  <SMILES>  (81) 
C=c1[nH+]c(OCc2ccccc2)oc1=Cc1c([O-])[n-]c(=S)[n-]c1=O

>  <Energy>  (81) 
81.06735519251897

>  <Genealogy>  (81) 
C=c1[nH+]c(OCc2ccccc2)oc1=Cc1c([O-])[n-]c(=S)[n-]c1=O (protonated)
C=c1[nH+]c(OCc2ccccc2)oc1=Cc1c([O-])[n-]c(=S)[n-]c1=O (3D coordinates assigned)
C=c1[nH+]c(OCc2ccccc2)oc1=Cc1c([O-])[n-]c(=S)[n-]c1=O (optimized conformer: 81.06735519251897 kcal/mol)

>  <smiles>  (81) 
C=c1nc(OCc2ccccc2)oc1=Cc1c(O)[nH]c(=S)[nH]c1=O

>  <score_type>  (81) 
oracle

>  <origin>  (81) 
adg

>  <m_score__min__energy>  (81) 
-14.25

>  <m_primary>  (81) 
energy

$$$$
81:0
     RDKit          3D

 57 59  0  0  0  0  0  0  0  0999 V2000
   57.7300   21.5820   43.8040 C   0  0  0  0  0  0  0  0  0  0  0  0
   56.6340   22.1130   42.8800 C   0  0  0  0  0  0  0  0  0  0  0  0
   56.4940   23.6380   42.9500 C   0  0  0  0  0  0  0  0  0  0  0  0
   56.4300   24.1300   44.3620 C   0  0  0  0  0  0  0  0  0  0  0  0
   57.3410   24.9700   44.8990 N   0  0  0  0  0  0  0  0  0  0  0  0
   57.0710   25.2440   46.2050 C   0  0  0  0  0  0  0  0  0  0  0  0
   57.9080   26.2050   46.9960 C   0  0  0  0  0  0  0  0  0  0  0  0
   58.0650   27.5540   46.3350 C   0  0  0  0  0  0  0  0  0  0  0  0
   58.6070   28.4830   46.9980 O   0  0  0  0  0  0  0  0  0  0  0  0
   57.6170   27.8100   44.9930 N   0  0  0  0  0  0  0  0  0  0  0  0
   57.9190   29.0530   44.2870 C   0  0  0  0  0  0  0  0  0  0  0  0
   57.0170   30.1720   44.7370 C   0  0  0  0  0  0  0  0  0  0  0  0
   55.7850   30.1010   44.4820 O   0  0  0  0  0  0  0  0  0  0  0  0
   57.5390   31.3310   45.4160 N   0  0  0  0  0  0  0  0  0  0  0  0
   58.6590   31.1990   46.3580 C   0  0  0  0  0  0  0  0  0  0  0  0
   58.8920   32.4950   47.1530 C   0  0  0  0  0  0  0  0  0  0  0  0
   58.9780   33.7540   46.2510 C   0  0  0  0  0  0  0  0  0  0  0  0
   60.4320   34.1540   45.8800 C   0  0  0  0  0  0  0  0  0  0  0  0
   61.4500   33.9200   46.9760 C   0  0  0  0  0  0  0  0  0  0  0  0
   62.7310   33.4210   46.6740 C   0  0  0  0  0  0  0  0  0  0  0  0
   63.6500   33.1650   47.6980 C   0  0  0  0  0  0  0  0  0  0  0  0
   63.3060   33.4200   49.0280 C   0  0  0  0  0  0  0  0  0  0  0  0
   62.0470   33.9460   49.3360 C   0  0  0  0  0  0  0  0  0  0  0  0
   61.1280   34.2070   48.3150 C   0  0  0  0  0  0  0  0  0  0  0  0
   58.0440   33.6860   45.0120 C   0  0  0  0  0  0  0  0  0  0  0  0
   56.9340   32.6470   45.1810 C   0  0  0  0  0  0  0  0  0  0  0  0
   55.9350   24.6200   46.7180 C   0  0  0  0  0  0  0  0  0  0  0  0
   55.2640   23.6860   45.4900 S   0  0  0  0  0  0  0  0  0  0  0  0
   57.4287   21.7280   44.8518 H   0  0  0  0  0  0  0  0  0  0  0  0
   57.8833   20.5097   43.6125 H   0  0  0  0  0  0  0  0  0  0  0  0
   58.6665   22.1263   43.6125 H   0  0  0  0  0  0  0  0  0  0  0  0
   56.8763   21.8283   41.8455 H   0  0  0  0  0  0  0  0  0  0  0  0
   55.6797   21.6747   43.2075 H   0  0  0  0  0  0  0  0  0  0  0  0
   57.3608   24.0976   42.4525 H   0  0  0  0  0  0  0  0  0  0  0  0
   55.5548   23.9167   42.4498 H   0  0  0  0  0  0  0  0  0  0  0  0
   57.4350   26.3517   47.9782 H   0  0  0  0  0  0  0  0  0  0  0  0
   58.9134   25.7663   47.0779 H   0  0  0  0  0  0  0  0  0  0  0  0
   57.0310   27.1070   44.4880 H   0  0  0  0  0  0  0  0  0  0  0  0
   58.9639   29.3332   44.4861 H   0  0  0  0  0  0  0  0  0  0  0  0
   57.7578   28.8889   43.2113 H   0  0  0  0  0  0  0  0  0  0  0  0
   58.4375   30.3839   47.0627 H   0  0  0  0  0  0  0  0  0  0  0  0
   59.5694   30.9844   45.7791 H   0  0  0  0  0  0  0  0  0  0  0  0
   58.0595   32.6268   47.8598 H   0  0  0  0  0  0  0  0  0  0  0  0
   59.8581   32.3943   47.6693 H   0  0  0  0  0  0  0  0  0  0  0  0
   58.5946   34.5743   46.8755 H   0  0  0  0  0  0  0  0  0  0  0  0
   60.7349   33.5680   44.9998 H   0  0  0  0  0  0  0  0  0  0  0  0
   60.4188   35.2380   45.6935 H   0  0  0  0  0  0  0  0  0  0  0  0
   63.0113   33.2312   45.6274 H   0  0  0  0  0  0  0  0  0  0  0  0
   64.6446   32.7625   47.4554 H   0  0  0  0  0  0  0  0  0  0  0  0
   64.0251   33.2071   49.8327 H   0  0  0  0  0  0  0  0  0  0  0  0
   61.7796   34.1545   50.3824 H   0  0  0  0  0  0  0  0  0  0  0  0
   60.1468   34.6396   48.5604 H   0  0  0  0  0  0  0  0  0  0  0  0
   57.5844   34.6738   44.8603 H   0  0  0  0  0  0  0  0  0  0  0  0
   58.6538   33.3906   44.1454 H   0  0  0  0  0  0  0  0  0  0  0  0
   56.3016   32.9200   46.0386 H   0  0  0  0  0  0  0  0  0  0  0  0
   56.3165   32.6135   44.2713 H   0  0  0  0  0  0  0  0  0  0  0  0
   55.5468   24.7203   47.7423 H   0  0  0  0  0  0  0  0  0  0  0  0
  1  2  1  0
  2  3  1  0
  3  4  1  0
  4  5  2  0
  5  6  1  0
  6  7  1  0
  7  8  1  0
  8  9  2  0
  8 10  1  0
 10 11  1  0
 11 12  1  0
 12 13  2  0
 12 14  1  0
 14 15  1  0
 15 16  1  0
 16 17  1  0
 17 18  1  0
 18 19  1  0
 19 20  2  0
 20 21  1  0
 21 22  2  0
 22 23  1  0
 23 24  2  0
 17 25  1  0
 25 26  1  0
  6 27  2  0
 27 28  1  0
 28  4  1  0
 26 14  1  0
 24 19  1  0
  1 29  1  0
  1 30  1  0
  1 31  1  0
  2 32  1  0
  2 33  1  0
  3 34  1  0
  3 35  1  0
  7 36  1  0
  7 37  1  0
 10 38  1  0
 11 39  1  0
 11 40  1  0
 15 41  1  0
 15 42  1  0
 16 43  1  0
 16 44  1  0
 17 45  1  0
 18 46  1  0
 18 47  1  0
 20 48  1  0
 21 49  1  0
 22 50  1  0
 23 51  1  0
 24 52  1  0
 25 53  1  0
 25 54  1  0
 26 55  1  0
 26 56  1  0
 27 57  1  0
M  END
>  <UniqueID>  (82) 
78

>  <SMILES>  (82) 
CCCc1nc(CC(=O)NCC(=O)N2CCC(Cc3ccccc3)CC2)cs1

>  <Energy>  (82) 
78.07759011308443

>  <Genealogy>  (82) 
CCCc1nc(CC(=O)NCC(=O)N2CCC(Cc3ccccc3)CC2)cs1 (3D coordinates assigned)
CCCc1nc(CC(=O)NCC(=O)N2CCC(Cc3ccccc3)CC2)cs1 (nonaromatic ring conformer: 78.07759011308443 kcal/mol)

>  <smiles>  (82) 
CCCc1nc(CC(=O)NCC(=O)N2CCC(Cc3ccccc3)CC2)cs1

>  <score_type>  (82) 
oracle

>  <origin>  (82) 
adg

>  <m_score__min__energy>  (82) 
-9.0600000000000005

>  <m_primary>  (82) 
energy

$$$$
82:0
     RDKit          3D

 46 49  0  0  0  0  0  0  0  0999 V2000
   54.6000   24.8840   45.9920 O   0  0  0  0  0  0  0  0  0  0  0  0
   55.8240   24.8570   45.6850 C   0  0  0  0  0  0  0  0  0  0  0  0
   56.3410   23.7170   44.8920 C   0  0  0  0  0  0  0  0  0  0  0  0
   55.7650   23.3660   43.6570 C   0  0  0  0  0  0  0  0  0  0  0  0
   56.2760   22.2950   42.9150 C   0  0  0  0  0  0  0  0  0  0  0  0
   57.3710   21.5720   43.3920 C   0  0  0  0  0  0  0  0  0  0  0  0
   57.9620   21.9210   44.6100 C   0  0  0  0  0  0  0  0  0  0  0  0
   57.4550   22.9910   45.3540 C   0  0  0  0  0  0  0  0  0  0  0  0
   56.6810   25.9770   46.1120 C   0  0  0  0  0  0  0  0  0  0  0  0
   56.5810   27.2140   45.5820 N   0  0  0  0  0  0  0  0  0  0  0  0
   57.5470   27.9180   46.2030 C   0  0  0  0  0  0  0  0  0  0  0  0
   57.8170   29.3530   45.9410 C   0  0  0  0  0  0  0  0  0  0  0  0
   57.3810   29.9780   44.7580 C   0  0  0  0  0  0  0  0  0  0  0  0
   57.6490   31.3300   44.5290 C   0  0  0  0  0  0  0  0  0  0  0  0
   58.3610   32.0810   45.4730 C   0  0  0  0  0  0  0  0  0  0  0  0
   58.7170   33.7850   45.1710 S   0  0  0  0  0  0  0  0  0  0  0  0
   59.2320   33.9420   43.7660 O   0  0  0  0  0  0  0  0  0  0  0  0
   57.4480   34.5830   45.2930 O   0  0  0  0  0  0  0  0  0  0  0  0
   59.9000   34.4070   46.2980 N   0  0  0  0  0  0  0  0  0  0  0  0
   61.0560   33.4960   46.3870 C   0  0  0  0  0  0  0  0  0  0  0  0
   61.8340   33.7340   47.6910 C   0  0  0  0  0  0  0  0  0  0  0  0
   61.0660   33.5230   48.8710 O   0  0  0  0  0  0  0  0  0  0  0  0
   59.6660   33.6550   48.6750 C   0  0  0  0  0  0  0  0  0  0  0  0
   59.2960   34.7090   47.6150 C   0  0  0  0  0  0  0  0  0  0  0  0
   58.7890   31.4680   46.6570 C   0  0  0  0  0  0  0  0  0  0  0  0
   58.5230   30.1160   46.8880 C   0  0  0  0  0  0  0  0  0  0  0  0
   58.2100   27.0880   47.0850 C   0  0  0  0  0  0  0  0  0  0  0  0
   57.6690   25.8600   47.0250 N   0  0  0  0  0  0  0  0  0  0  0  0
   54.9073   23.9372   43.2722 H   0  0  0  0  0  0  0  0  0  0  0  0
   55.8142   22.0224   41.9545 H   0  0  0  0  0  0  0  0  0  0  0  0
   57.7687   20.7278   42.8095 H   0  0  0  0  0  0  0  0  0  0  0  0
   58.8269   21.3532   44.9835 H   0  0  0  0  0  0  0  0  0  0  0  0
   57.9300   23.2673   46.3069 H   0  0  0  0  0  0  0  0  0  0  0  0
   56.8246   29.3974   44.0074 H   0  0  0  0  0  0  0  0  0  0  0  0
   57.2988   31.8075   43.6020 H   0  0  0  0  0  0  0  0  0  0  0  0
   60.6990   32.4558   46.3639 H   0  0  0  0  0  0  0  0  0  0  0  0
   61.7249   33.6881   45.5352 H   0  0  0  0  0  0  0  0  0  0  0  0
   62.6938   33.0481   47.7108 H   0  0  0  0  0  0  0  0  0  0  0  0
   62.1355   34.7919   47.6928 H   0  0  0  0  0  0  0  0  0  0  0  0
   59.2650   32.6820   48.3547 H   0  0  0  0  0  0  0  0  0  0  0  0
   59.2333   33.9876   49.6300 H   0  0  0  0  0  0  0  0  0  0  0  0
   58.2017   34.7344   47.5063 H   0  0  0  0  0  0  0  0  0  0  0  0
   59.6851   35.6810   47.9523 H   0  0  0  0  0  0  0  0  0  0  0  0
   59.3375   32.0540   47.4092 H   0  0  0  0  0  0  0  0  0  0  0  0
   58.8691   29.6440   47.8194 H   0  0  0  0  0  0  0  0  0  0  0  0
   59.0475   27.3850   47.7333 H   0  0  0  0  0  0  0  0  0  0  0  0
  1  2  2  0
  2  3  1  0
  3  4  2  0
  4  5  1  0
  5  6  2  0
  6  7  1  0
  7  8  2  0
  2  9  1  0
  9 10  2  0
 10 11  1  0
 11 12  1  0
 12 13  2  0
 13 14  1  0
 14 15  2  0
 15 16  1  0
 16 17  2  0
 16 18  2  0
 16 19  1  0
 19 20  1  0
 20 21  1  0
 21 22  1  0
 22 23  1  0
 23 24  1  0
 15 25  1  0
 25 26  2  0
 11 27  2  0
 27 28  1  0
  8  3  1  0
 28  9  1  0
 26 12  1  0
 24 19  1  0
  4 29  1  0
  5 30  1  0
  6 31  1  0
  7 32  1  0
  8 33  1  0
 13 34  1  0
 14 35  1  0
 20 36  1  0
 20 37  1  0
 21 38  1  0
 21 39  1  0
 23 40  1  0
 23 41  1  0
 24 42  1  0
 24 43  1  0
 25 44  1  0
 26 45  1  0
 27 46  1  0
M  CHG  1  28  -1
M  END
>  <UniqueID>  (83) 
79

>  <SMILES>  (83) 
O=C(c1ccccc1)c1nc(-c2ccc(S(=O)(=O)N3CCOCC3)cc2)c[n-]1

>  <Energy>  (83) 
93.89320734638122

>  <Genealogy>  (83) 
O=C(c1ccccc1)c1nc(-c2ccc(S(=O)(=O)N3CCOCC3)cc2)c[n-]1 (protonated)
O=C(c1ccccc1)c1nc(-c2ccc(S(=O)(=O)N3CCOCC3)cc2)c[n-]1 (3D coordinates assigned)
O=C(c1ccccc1)c1nc(-c2ccc(S(=O)(=O)N3CCOCC3)cc2)c[n-]1 (nonaromatic ring conformer: 93.89320734638122 kcal/mol)

>  <smiles>  (83) 
O=C(c1ccccc1)c1nc(-c2ccc(S(=O)(=O)N3CCOCC3)cc2)c[nH]1

>  <score_type>  (83) 
oracle

>  <origin>  (83) 
adg

>  <m_score__min__energy>  (83) 
-10.949999999999999

>  <m_primary>  (83) 
energy

$$$$
83:0
     RDKit          3D

 31 32  0  0  0  0  0  0  0  0999 V2000
   55.8940   31.9670   52.7260 O   0  0  0  0  0  0  0  0  0  0  0  0
   56.2960   31.0810   51.9210 C   0  0  0  0  0  0  0  0  0  0  0  0
   55.4930   29.9690   51.6400 O   0  0  0  0  0  0  0  0  0  0  0  0
   54.9410   29.1230   52.6480 C   0  0  0  0  0  0  0  0  0  0  0  0
   53.7080   29.7660   53.2900 C   0  0  0  0  0  0  0  0  0  0  0  0
   52.8630   30.4680   52.2580 C   0  0  0  0  0  0  0  0  0  0  0  0
   52.7280   29.9280   50.9690 C   0  0  0  0  0  0  0  0  0  0  0  0
   51.9080   30.5530   50.0250 C   0  0  0  0  0  0  0  0  0  0  0  0
   51.2070   31.7160   50.3640 C   0  0  0  0  0  0  0  0  0  0  0  0
   50.3910   32.3310   49.4220 O   0  0  0  0  0  0  0  0  0  0  0  0
   51.3280   32.2540   51.6510 C   0  0  0  0  0  0  0  0  0  0  0  0
   50.6280   33.4040   51.9960 O   0  0  0  0  0  0  0  0  0  0  0  0
   52.1510   31.6310   52.5950 C   0  0  0  0  0  0  0  0  0  0  0  0
   57.6220   31.2080   51.2780 C   0  0  0  0  0  0  0  0  0  0  0  0
   58.2550   30.0910   50.7050 C   0  0  0  0  0  0  0  0  0  0  0  0
   59.5030   30.2220   50.0880 C   0  0  0  0  0  0  0  0  0  0  0  0
   60.1210   29.1120   49.5260 O   0  0  0  0  0  0  0  0  0  0  0  0
   60.1310   31.4700   50.0370 C   0  0  0  0  0  0  0  0  0  0  0  0
   59.5100   32.5880   50.5990 C   0  0  0  0  0  0  0  0  0  0  0  0
   60.1320   33.8290   50.5430 O   0  0  0  0  0  0  0  0  0  0  0  0
   58.2610   32.4600   51.2190 C   0  0  0  0  0  0  0  0  0  0  0  0
   54.6511   28.1641   52.1936 H   0  0  0  0  0  0  0  0  0  0  0  0
   55.7005   28.9660   53.4281 H   0  0  0  0  0  0  0  0  0  0  0  0
   53.1062   28.9834   53.7752 H   0  0  0  0  0  0  0  0  0  0  0  0
   54.0454   30.5079   54.0288 H   0  0  0  0  0  0  0  0  0  0  0  0
   53.2699   29.0091   50.7008 H   0  0  0  0  0  0  0  0  0  0  0  0
   51.8135   30.1300   49.0140 H   0  0  0  0  0  0  0  0  0  0  0  0
   52.2411   32.0540   53.6064 H   0  0  0  0  0  0  0  0  0  0  0  0
   57.7650   29.1069   50.7423 H   0  0  0  0  0  0  0  0  0  0  0  0
   61.1142   31.5716   49.5543 H   0  0  0  0  0  0  0  0  0  0  0  0
   57.7770   33.3428   51.6622 H   0  0  0  0  0  0  0  0  0  0  0  0
  1  2  2  0
  2  3  1  0
  3  4  1  0
  4  5  1  0
  5  6  1  0
  6  7  2  0
  7  8  1  0
  8  9  2  0
  9 10  1  0
  9 11  1  0
 11 12  1  0
 11 13  2  0
  2 14  1  0
 14 15  2  0
 15 16  1  0
 16 17  1  0
 16 18  2  0
 18 19  1  0
 19 20  1  0
 19 21  2  0
 13  6  1  0
 21 14  1  0
  4 22  1  0
  4 23  1  0
  5 24  1  0
  5 25  1  0
  7 26  1  0
  8 27  1  0
 13 28  1  0
 15 29  1  0
 18 30  1  0
 21 31  1  0
M  CHG  4  10  -1  12  -1  17  -1  20  -1
M  END
>  <UniqueID>  (84) 
80

>  <SMILES>  (84) 
O=C(OCCc1ccc([O-])c([O-])c1)c1cc([O-])cc([O-])c1

>  <Energy>  (84) 
28.04471652076968

>  <Genealogy>  (84) 
O=C(OCCc1ccc([O-])c([O-])c1)c1cc([O-])cc([O-])c1 (protonated)
O=C(OCCc1ccc([O-])c([O-])c1)c1cc([O-])cc([O-])c1 (3D coordinates assigned)
O=C(OCCc1ccc([O-])c([O-])c1)c1cc([O-])cc([O-])c1 (optimized conformer: 28.04471652076968 kcal/mol)

>  <smiles>  (84) 
O=C(OCCc1ccc(O)c(O)c1)c1cc(O)cc(O)c1

>  <score_type>  (84) 
oracle

>  <origin>  (84) 
adg

>  <m_score__min__energy>  (84) 
-16.440000000000001

>  <m_primary>  (84) 
energy

$$$$
84:0
     RDKit          3D

 43 45  0  0  0  0  0  0  0  0999 V2000
   52.0930   23.3850   44.4900 O   0  0  0  0  0  0  0  0  0  0  0  0
   53.2550   23.6100   44.9160 C   0  0  0  0  0  0  0  0  0  0  0  0
   54.1460   22.5930   45.0290 N   0  0  0  0  0  0  0  0  0  0  0  0
   55.4050   22.8170   45.4860 C   0  0  0  0  0  0  0  0  0  0  0  0
   55.8040   24.1080   45.8490 C   0  0  0  0  0  0  0  0  0  0  0  0
   57.4460   24.3710   46.4520 S   0  0  0  0  0  0  0  0  0  0  0  0
   58.1410   23.0580   46.6860 O   0  0  0  0  0  0  0  0  0  0  0  0
   57.3580   25.1030   47.7630 O   0  0  0  0  0  0  0  0  0  0  0  0
   58.3510   25.3280   45.3020 N   0  0  0  0  0  0  0  0  0  0  0  0
   57.4590   25.7470   44.1950 C   0  0  0  0  0  0  0  0  0  0  0  0
   58.0330   26.9600   43.4470 C   0  0  0  0  0  0  0  0  0  0  0  0
   58.2180   28.1350   44.3310 N   0  0  0  0  0  0  0  0  0  0  0  0
   56.9570   29.3180   44.0790 S   0  0  0  0  0  0  0  0  0  0  0  0
   56.5640   29.3470   42.6280 O   0  0  0  0  0  0  0  0  0  0  0  0
   55.7480   28.9600   44.8980 O   0  0  0  0  0  0  0  0  0  0  0  0
   57.5290   30.9060   44.5840 C   0  0  0  0  0  0  0  0  0  0  0  0
   58.1390   31.0570   45.8340 C   0  0  0  0  0  0  0  0  0  0  0  0
   58.6110   32.3080   46.2430 C   0  0  0  0  0  0  0  0  0  0  0  0
   58.4850   33.4270   45.4010 C   0  0  0  0  0  0  0  0  0  0  0  0
   58.9730   34.7140   45.8230 N   0  0  0  0  0  0  0  0  0  0  0  0
   59.0900   34.9860   47.0360 O   0  0  0  0  0  0  0  0  0  0  0  0
   59.3150   35.6710   44.8930 O   0  0  0  0  0  0  0  0  0  0  0  0
   57.8750   33.2680   44.1440 C   0  0  0  0  0  0  0  0  0  0  0  0
   57.4010   32.0160   43.7390 C   0  0  0  0  0  0  0  0  0  0  0  0
   58.3020   27.7940   45.7650 C   0  0  0  0  0  0  0  0  0  0  0  0
   59.0380   26.4630   45.9730 C   0  0  0  0  0  0  0  0  0  0  0  0
   54.8620   25.1440   45.7300 C   0  0  0  0  0  0  0  0  0  0  0  0
   55.1540   26.3250   46.0520 O   0  0  0  0  0  0  0  0  0  0  0  0
   53.6150   24.8720   45.2650 N   0  0  0  0  0  0  0  0  0  0  0  0
   56.1139   21.9802   45.5711 H   0  0  0  0  0  0  0  0  0  0  0  0
   59.0850   24.6980   44.9020 H   0  0  0  0  0  0  0  0  0  0  0  0
   57.3461   24.9109   43.4892 H   0  0  0  0  0  0  0  0  0  0  0  0
   56.4850   26.0297   44.6208 H   0  0  0  0  0  0  0  0  0  0  0  0
   59.0081   26.6824   43.0201 H   0  0  0  0  0  0  0  0  0  0  0  0
   57.3142   27.2407   42.6631 H   0  0  0  0  0  0  0  0  0  0  0  0
   58.2478   30.1871   46.4984 H   0  0  0  0  0  0  0  0  0  0  0  0
   59.0840   32.4175   47.2300 H   0  0  0  0  0  0  0  0  0  0  0  0
   57.7699   34.1344   43.4745 H   0  0  0  0  0  0  0  0  0  0  0  0
   56.9260   31.9025   42.7534 H   0  0  0  0  0  0  0  0  0  0  0  0
   58.8453   28.5916   46.2930 H   0  0  0  0  0  0  0  0  0  0  0  0
   57.2808   27.6949   46.1615 H   0  0  0  0  0  0  0  0  0  0  0  0
   60.0549   26.5532   45.5633 H   0  0  0  0  0  0  0  0  0  0  0  0
   59.0572   26.2540   47.0528 H   0  0  0  0  0  0  0  0  0  0  0  0
  1  2  2  0
  2  3  1  0
  3  4  1  0
  4  5  2  0
  5  6  1  0
  6  7  2  0
  6  8  2  0
  6  9  1  0
  9 10  1  0
 10 11  1  0
 11 12  1  0
 12 13  1  0
 13 14  2  0
 13 15  2  0
 13 16  1  0
 16 17  2  0
 17 18  1  0
 18 19  2  0
 19 20  1  0
 20 21  2  0
 20 22  1  0
 19 23  1  0
 23 24  2  0
 12 25  1  0
 25 26  1  0
  5 27  1  0
 27 28  2  0
 27 29  1  0
 29  2  1  0
 26  9  1  0
 24 16  1  0
  4 30  1  0
  9 31  1  0
 10 32  1  0
 10 33  1  0
 11 34  1  0
 11 35  1  0
 17 36  1  0
 18 37  1  0
 23 38  1  0
 24 39  1  0
 25 40  1  0
 25 41  1  0
 26 42  1  0
 26 43  1  0
M  CHG  5   3  -1   9   1  20   1  22  -1  29  -1
M  END
>  <UniqueID>  (85) 
81

>  <SMILES>  (85) 
O=c1[n-]cc(S(=O)(=O)[NH+]2CCN(S(=O)(=O)c3ccc([N+](=O)[O-])cc3)CC2)c(=O)[n-]1

>  <Energy>  (85) 
57.8250589466855

>  <Genealogy>  (85) 
O=c1[n-]cc(S(=O)(=O)[NH+]2CCN(S(=O)(=O)c3ccc([N+](=O)[O-])cc3)CC2)c(=O)[n-]1 (protonated)
O=c1[n-]cc(S(=O)(=O)[NH+]2CCN(S(=O)(=O)c3ccc([N+](=O)[O-])cc3)CC2)c(=O)[n-]1 (3D coordinates assigned)
O=c1[n-]cc(S(=O)(=O)[NH+]2CCN(S(=O)(=O)c3ccc([N+](=O)[O-])cc3)CC2)c(=O)[n-]1 (nonaromatic ring conformer: 57.8250589466855 kcal/mol)

>  <smiles>  (85) 
O=c1[nH]cc(S(=O)(=O)N2CCN(S(=O)(=O)c3ccc([N+](=O)[O-])cc3)CC2)c(=O)[nH]1

>  <score_type>  (85) 
oracle

>  <origin>  (85) 
adg

>  <m_score__min__energy>  (85) 
-11.82

>  <m_primary>  (85) 
energy

$$$$
85:0
     RDKit          3D

 37 39  0  0  0  0  0  0  0  0999 V2000
   53.3659   24.8587   45.2934 H   0  0  0  0  0  0  0  0  0  0  0  0
   54.3940   25.1090   45.5940 C   0  0  0  0  0  0  0  0  0  0  0  0
   54.8160   26.3170   46.0080 N   0  0  0  0  0  0  0  0  0  0  0  0
   56.1310   26.1300   46.2580 C   0  0  0  0  0  0  0  0  0  0  0  0
   56.9360   27.0740   46.6490 N   0  0  0  0  0  0  0  0  0  0  0  0
   57.2610   28.2770   45.9330 C   0  0  0  0  0  0  0  0  0  0  0  0
   56.2990   28.8280   45.0760 C   0  0  0  0  0  0  0  0  0  0  0  0
   55.3135   28.3486   44.9818 H   0  0  0  0  0  0  0  0  0  0  0  0
   56.5820   29.9820   44.3400 C   0  0  0  0  0  0  0  0  0  0  0  0
   55.8106   30.4182   43.6884 H   0  0  0  0  0  0  0  0  0  0  0  0
   57.8450   30.5870   44.4280 C   0  0  0  0  0  0  0  0  0  0  0  0
   58.1380   31.8480   43.6610 C   0  0  0  0  0  0  0  0  0  0  0  0
   59.2168   32.0576   43.7078 H   0  0  0  0  0  0  0  0  0  0  0  0
   57.8232   31.7097   42.6161 H   0  0  0  0  0  0  0  0  0  0  0  0
   57.3690   33.0300   44.2570 C   0  0  0  0  0  0  0  0  0  0  0  0
   57.1869   33.7773   43.4706 H   0  0  0  0  0  0  0  0  0  0  0  0
   56.4131   32.6659   44.6615 H   0  0  0  0  0  0  0  0  0  0  0  0
   58.1550   33.6600   45.3630 C   0  0  0  0  0  0  0  0  0  0  0  0
   59.0480   34.5640   45.1570 N   0  0  0  0  0  0  0  0  0  0  0  0
   59.6770   34.9270   46.4210 C   0  0  0  0  0  0  0  0  0  0  0  0
   60.7606   34.7420   46.3800 H   0  0  0  0  0  0  0  0  0  0  0  0
   59.5464   35.9940   46.6541 H   0  0  0  0  0  0  0  0  0  0  0  0
   59.0150   34.0230   47.4740 C   0  0  0  0  0  0  0  0  0  0  0  0
   59.7580   33.3651   47.9485 H   0  0  0  0  0  0  0  0  0  0  0  0
   58.5502   34.5928   48.2920 H   0  0  0  0  0  0  0  0  0  0  0  0
   58.0550   33.2520   46.7130 N   0  0  0  0  0  0  0  0  0  0  0  0
   57.4220   32.5110   47.0890 H   0  0  0  0  0  0  0  0  0  0  0  0
   58.8160   30.0280   45.2720 C   0  0  0  0  0  0  0  0  0  0  0  0
   59.8061   30.5001   45.3542 H   0  0  0  0  0  0  0  0  0  0  0  0
   58.5330   28.8750   46.0090 C   0  0  0  0  0  0  0  0  0  0  0  0
   59.3082   28.4324   46.6518 H   0  0  0  0  0  0  0  0  0  0  0  0
   56.5690   24.8780   46.0090 N   0  0  0  0  0  0  0  0  0  0  0  0
   55.4580   24.2380   45.6080 C   0  0  0  0  0  0  0  0  0  0  0  0
   55.4320   22.8170   45.1500 C   0  0  0  0  0  0  0  0  0  0  0  0
   55.4198   22.1500   46.0246 H   0  0  0  0  0  0  0  0  0  0  0  0
   54.5305   22.6435   44.5440 H   0  0  0  0  0  0  0  0  0  0  0  0
   56.3265   22.6107   44.5440 H   0  0  0  0  0  0  0  0  0  0  0  0
  1  2  1  0
  2  3  1  0
  3  4  1  0
  4  5  2  0
  5  6  1  0
  6  7  2  0
  7  8  1  0
  7  9  1  0
  9 10  1  0
  9 11  2  0
 11 12  1  0
 12 13  1  0
 12 14  1  0
 12 15  1  0
 15 16  1  0
 15 17  1  0
 15 18  1  0
 18 19  2  0
 19 20  1  0
 20 21  1  0
 20 22  1  0
 20 23  1  0
 23 24  1  0
 23 25  1  0
 23 26  1  0
 26 27  1  0
 11 28  1  0
 28 29  1  0
 28 30  2  0
 30 31  1  0
  4 32  1  0
 32 33  1  0
 33 34  1  0
 34 35  1  0
 34 36  1  0
 34 37  1  0
 33  2  2  0
 30  6  1  0
 26 18  1  0
M  CHG  2   3  -1  32  -1
M  END
>  <UniqueID>  (86) 
82

>  <SMILES>  (86) 
Cc1c[n-]/c(=N\c2ccc(CCC3=NCCN3)cc2)[n-]1

>  <Energy>  (86) 
77.86731758459707

>  <Genealogy>  (86) 
Cc1c[n-]c(=Nc2ccc(CCC3=NCCN3)cc2)[n-]1 (protonated)
Cc1c[n-]/c(=N\c2ccc(CCC3=NCCN3)cc2)[n-]1 (cis-trans isomerization)
Cc1c[n-]/c(=N\c2ccc(CCC3=NCCN3)cc2)[n-]1 (3D coordinates assigned)
Cc1c[n-]/c(=N\c2ccc(CCC3=NCCN3)cc2)[n-]1 (nonaromatic ring conformer: 77.86731758459707 kcal/mol)

>  <smiles>  (86) 
Cc1c[nH]c(=Nc2ccc(CCC3=NCCN3)cc2)[nH]1

>  <score_type>  (86) 
oracle

>  <origin>  (86) 
adg

>  <m_score__min__energy>  (86) 
-10.300000000000001

>  <m_primary>  (86) 
energy

$$$$
86:0
     RDKit          3D

 52 54  0  0  0  0  0  0  0  0999 V2000
   55.6780   29.7170   43.4260 C   0  0  0  0  0  0  0  0  0  0  0  0
   56.1770   29.6170   44.7560 O   0  0  0  0  0  0  0  0  0  0  0  0
   57.3540   30.2280   45.2180 C   0  0  0  0  0  0  0  0  0  0  0  0
   57.5170   31.6260   45.2020 C   0  0  0  0  0  0  0  0  0  0  0  0
   58.7070   32.2130   45.6500 C   0  0  0  0  0  0  0  0  0  0  0  0
   58.8360   33.6800   45.7010 C   0  0  0  0  0  0  0  0  0  0  0  0
   58.9470   34.3350   44.6320 O   0  0  0  0  0  0  0  0  0  0  0  0
   58.8100   34.3810   46.9460 N   0  0  0  0  0  0  0  0  0  0  0  0
   59.7090   33.8600   48.3360 S   0  0  0  0  0  0  0  0  0  0  0  0
   59.0990   32.5870   48.8530 O   0  0  0  0  0  0  0  0  0  0  0  0
   59.6020   34.9040   49.4110 O   0  0  0  0  0  0  0  0  0  0  0  0
   61.4090   33.5700   47.9630 C   0  0  0  0  0  0  0  0  0  0  0  0
   61.9130   33.8510   46.6840 C   0  0  0  0  0  0  0  0  0  0  0  0
   63.2680   33.6420   46.4030 C   0  0  0  0  0  0  0  0  0  0  0  0
   64.1240   33.1590   47.3950 C   0  0  0  0  0  0  0  0  0  0  0  0
   63.6280   32.8810   48.6720 C   0  0  0  0  0  0  0  0  0  0  0  0
   64.7130   32.3110   49.9270 Cl  0  0  0  0  0  0  0  0  0  0  0  0
   62.2710   33.0740   48.9540 C   0  0  0  0  0  0  0  0  0  0  0  0
   59.7670   31.3950   46.0610 C   0  0  0  0  0  0  0  0  0  0  0  0
   59.6130   30.0090   46.0920 C   0  0  0  0  0  0  0  0  0  0  0  0
   58.4030   29.4150   45.7010 C   0  0  0  0  0  0  0  0  0  0  0  0
   58.2320   27.9920   45.8280 N   0  0  0  0  0  0  0  0  0  0  0  0
   59.1700   27.0380   45.6530 C   0  0  0  0  0  0  0  0  0  0  0  0
   58.6890   25.8080   45.9230 N   0  0  0  0  0  0  0  0  0  0  0  0
   57.4050   25.9910   46.2820 C   0  0  0  0  0  0  0  0  0  0  0  0
   56.5080   24.8810   46.7620 C   0  0  0  0  0  0  0  0  0  0  0  0
   56.7910   23.5350   46.0870 C   0  0  0  0  0  0  0  0  0  0  0  0
   58.1440   23.0880   46.4050 N   0  0  0  0  0  0  0  0  0  0  0  0
   59.1120   22.7050   45.4220 C   0  0  0  0  0  0  0  0  0  0  0  0
   58.7400   21.8550   44.2480 C   0  0  0  0  0  0  0  0  0  0  0  0
   60.3100   23.0590   45.5740 O   0  0  0  0  0  0  0  0  0  0  0  0
   57.1250   27.3440   46.2420 C   0  0  0  0  0  0  0  0  0  0  0  0
   54.5998   29.9331   43.4542 H   0  0  0  0  0  0  0  0  0  0  0  0
   56.2009   30.5282   42.8982 H   0  0  0  0  0  0  0  0  0  0  0  0
   55.8479   28.7669   42.8982 H   0  0  0  0  0  0  0  0  0  0  0  0
   56.7006   32.2646   44.8335 H   0  0  0  0  0  0  0  0  0  0  0  0
   61.2425   34.2359   45.9015 H   0  0  0  0  0  0  0  0  0  0  0  0
   63.6597   33.8587   45.3982 H   0  0  0  0  0  0  0  0  0  0  0  0
   65.1888   32.9973   47.1715 H   0  0  0  0  0  0  0  0  0  0  0  0
   61.8789   32.8367   49.9540 H   0  0  0  0  0  0  0  0  0  0  0  0
   60.7241   31.8470   46.3603 H   0  0  0  0  0  0  0  0  0  0  0  0
   60.4479   29.3755   46.4261 H   0  0  0  0  0  0  0  0  0  0  0  0
   60.2018   27.2395   45.3293 H   0  0  0  0  0  0  0  0  0  0  0  0
   59.2140   24.9060   45.8820 H   0  0  0  0  0  0  0  0  0  0  0  0
   56.6485   24.7635   47.8466 H   0  0  0  0  0  0  0  0  0  0  0  0
   55.4764   25.1628   46.5045 H   0  0  0  0  0  0  0  0  0  0  0  0
   56.0675   22.7886   46.4466 H   0  0  0  0  0  0  0  0  0  0  0  0
   56.6978   23.6525   44.9973 H   0  0  0  0  0  0  0  0  0  0  0  0
   58.3226   20.9013   44.6034 H   0  0  0  0  0  0  0  0  0  0  0  0
   57.9892   22.3795   43.6388 H   0  0  0  0  0  0  0  0  0  0  0  0
   59.6348   21.6593   43.6388 H   0  0  0  0  0  0  0  0  0  0  0  0
   56.1641   27.8114   46.5031 H   0  0  0  0  0  0  0  0  0  0  0  0
  1  2  1  0
  2  3  1  0
  3  4  2  0
  4  5  1  0
  5  6  1  0
  6  7  2  0
  6  8  1  0
  8  9  1  0
  9 10  2  0
  9 11  2  0
  9 12  1  0
 12 13  2  0
 13 14  1  0
 14 15  2  0
 15 16  1  0
 16 17  1  0
 16 18  2  0
  5 19  2  0
 19 20  1  0
 20 21  2  0
 21 22  1  0
 22 23  1  0
 23 24  2  0
 24 25  1  0
 25 26  1  0
 26 27  1  0
 27 28  1  0
 28 29  1  0
 29 30  1  0
 29 31  2  0
 25 32  2  0
 21  3  1  0
 32 22  1  0
 18 12  1  0
  1 33  1  0
  1 34  1  0
  1 35  1  0
  4 36  1  0
 13 37  1  0
 14 38  1  0
 15 39  1  0
 18 40  1  0
 19 41  1  0
 20 42  1  0
 23 43  1  0
 24 44  1  0
 26 45  1  0
 26 46  1  0
 27 47  1  0
 27 48  1  0
 30 49  1  0
 30 50  1  0
 30 51  1  0
 32 52  1  0
M  CHG  3   8  -1  24   1  28  -1
M  END
>  <UniqueID>  (87) 
83

>  <SMILES>  (87) 
COc1cc(C(=O)[N-]S(=O)(=O)c2cccc(Cl)c2)ccc1-n1c[nH+]c(CC[N-]C(C)=O)c1

>  <Energy>  (87) 
87.90150510498312

>  <Genealogy>  (87) 
COc1cc(C(=O)[N-]S(=O)(=O)c2cccc(Cl)c2)ccc1-n1c[nH+]c(CC[N-]C(C)=O)c1 (protonated)
COc1cc(C(=O)[N-]S(=O)(=O)c2cccc(Cl)c2)ccc1-n1c[nH+]c(CC[N-]C(C)=O)c1 (3D coordinates assigned)
COc1cc(C(=O)[N-]S(=O)(=O)c2cccc(Cl)c2)ccc1-n1c[nH+]c(CC[N-]C(C)=O)c1 (optimized conformer: 87.90150510498312 kcal/mol)

>  <smiles>  (87) 
COc1cc(C(=O)NS(=O)(=O)c2cccc(Cl)c2)ccc1-n1cnc(CCNC(C)=O)c1

>  <score_type>  (87) 
oracle

>  <origin>  (87) 
adg

>  <m_score__min__energy>  (87) 
-9.9800000000000004

>  <m_primary>  (87) 
energy

$$$$
87:0
     RDKit          3D

 23 24  0  0  0  0  0  0  0  0999 V2000
   54.7510   26.2840   45.9880 N   0  0  0  0  0  0  0  0  0  0  0  0
   56.2940   25.5340   46.1910 S   0  0  0  0  0  0  0  0  0  0  0  0
   56.4610   24.4450   45.1680 O   0  0  0  0  0  0  0  0  0  0  0  0
   56.3760   24.9220   47.5610 O   0  0  0  0  0  0  0  0  0  0  0  0
   57.5640   26.7390   45.9980 C   0  0  0  0  0  0  0  0  0  0  0  0
   58.9010   26.3910   46.2180 C   0  0  0  0  0  0  0  0  0  0  0  0
   59.9080   27.3430   46.0530 C   0  0  0  0  0  0  0  0  0  0  0  0
   59.5880   28.6460   45.6630 C   0  0  0  0  0  0  0  0  0  0  0  0
   58.2490   29.0120   45.4280 C   0  0  0  0  0  0  0  0  0  0  0  0
   57.8870   30.3880   45.0060 C   0  0  0  0  0  0  0  0  0  0  0  0
   57.7280   30.8500   43.7090 C   0  0  0  0  0  0  0  0  0  0  0  0
   57.4010   32.1510   43.7630 N   0  0  0  0  0  0  0  0  0  0  0  0
   57.3700   32.4440   45.0740 C   0  0  0  0  0  0  0  0  0  0  0  0
   57.0960   33.5910   45.5160 O   0  0  0  0  0  0  0  0  0  0  0  0
   57.6600   31.4000   45.8730 N   0  0  0  0  0  0  0  0  0  0  0  0
   57.2410   28.0430   45.5970 C   0  0  0  0  0  0  0  0  0  0  0  0
   54.7000   27.0680   46.6770 H   0  0  0  0  0  0  0  0  0  0  0  0
   59.1589   25.3656   46.5214 H   0  0  0  0  0  0  0  0  0  0  0  0
   60.9578   27.0665   46.2307 H   0  0  0  0  0  0  0  0  0  0  0  0
   60.3878   29.3909   45.5387 H   0  0  0  0  0  0  0  0  0  0  0  0
   57.8489   30.2533   42.7929 H   0  0  0  0  0  0  0  0  0  0  0  0
   57.2140   32.7910   42.9600 H   0  0  0  0  0  0  0  0  0  0  0  0
   56.1904   28.3118   45.4126 H   0  0  0  0  0  0  0  0  0  0  0  0
  1  2  1  0
  2  3  2  0
  2  4  2  0
  2  5  1  0
  5  6  2  0
  6  7  1  0
  7  8  2  0
  8  9  1  0
  9 10  1  0
 10 11  2  0
 11 12  1  0
 12 13  1  0
 13 14  2  0
 13 15  1  0
  9 16  2  0
 16  5  1  0
 15 10  1  0
  1 17  1  0
  6 18  1  0
  7 19  1  0
  8 20  1  0
 11 21  1  0
 12 22  1  0
 16 23  1  0
M  CHG  2   1  -1  15  -1
M  END
>  <UniqueID>  (88) 
84

>  <SMILES>  (88) 
[NH-]S(=O)(=O)c1cccc(-c2c[nH]c(=O)[n-]2)c1

>  <Energy>  (88) 
54.31320045499486

>  <Genealogy>  (88) 
[NH-]S(=O)(=O)c1cccc(-c2c[nH]c(=O)[n-]2)c1 (protonated)
[NH-]S(=O)(=O)c1cccc(-c2c[nH]c(=O)[n-]2)c1 (3D coordinates assigned)
[NH-]S(=O)(=O)c1cccc(-c2c[nH]c(=O)[n-]2)c1 (optimized conformer: 54.31320045499486 kcal/mol)

>  <smiles>  (88) 
NS(=O)(=O)c1cccc(-c2c[nH]c(=O)[nH]2)c1

>  <score_type>  (88) 
oracle

>  <origin>  (88) 
adg

>  <m_score__min__energy>  (88) 
-10.539999999999999

>  <m_primary>  (88) 
energy

$$$$
88:0
     RDKit          3D

 30 31  0  0  1  0  0  0  0  0999 V2000
   57.4200   26.2620   45.1970 C   0  0  0  0  0  0  0  0  0  0  0  0
   57.2440   27.7400   45.1840 C   0  0  0  0  0  0  0  0  0  0  0  0
   58.2800   28.6320   45.1110 C   0  0  0  0  0  0  0  0  0  0  0  0
   57.7080   29.8850   45.1250 C   0  0  0  0  0  0  0  0  0  0  0  0
   58.2510   31.0510   45.0770 N   0  0  0  0  0  0  0  0  0  0  0  0
   57.4310   32.1940   45.2730 C   0  0  0  0  0  0  0  0  0  0  0  0
   56.2460   32.1890   44.9120 O   0  0  0  0  0  0  0  0  0  0  0  0
   58.0630   33.3890   45.9300 C   0  0  0  0  0  0  0  0  0  0  0  0
   59.4220   33.0840   46.3320 N   0  0  0  0  0  0  0  0  0  0  0  0
   60.1490   34.0480   47.0540 C   0  0  0  0  0  0  0  0  0  0  0  0
   59.7300   35.1720   47.3920 O   0  0  0  0  0  0  0  0  0  0  0  0
   61.5180   33.7030   47.4430 C   0  0  0  0  0  0  0  0  0  0  0  0
   62.6310   33.4790   46.6730 C   0  0  0  0  0  0  0  0  0  0  0  0
   63.7740   33.1740   47.3020 C   0  0  0  0  0  0  0  0  0  0  0  0
   63.7980   33.0990   48.6430 C   0  0  0  0  0  0  0  0  0  0  0  0
   65.0790   32.7370   49.7400 Cl  0  0  0  0  0  0  0  0  0  0  0  0
   62.0680   33.4840   49.1530 S   0  0  0  0  0  0  0  0  0  0  0  0
   56.3760   29.6990   45.2040 N   0  0  0  0  0  0  0  0  0  0  0  0
   56.0900   28.4020   45.2400 N   0  0  0  0  0  0  0  0  0  0  0  0
   57.4623   25.9069   46.2373 H   0  0  0  0  0  0  0  0  0  0  0  0
   56.5720   25.7872   44.6817 H   0  0  0  0  0  0  0  0  0  0  0  0
   58.3557   25.9996   44.6817 H   0  0  0  0  0  0  0  0  0  0  0  0
   59.3528   28.3958   45.0529 H   0  0  0  0  0  0  0  0  0  0  0  0
   58.0748   34.2291   45.2200 H   0  0  0  0  0  0  0  0  0  0  0  0
   57.4782   33.6568   46.8223 H   0  0  0  0  0  0  0  0  0  0  0  0
   59.8670   32.1520   46.0910 H   0  0  0  0  0  0  0  0  0  0  0  0
   62.5866   33.5475   45.5760 H   0  0  0  0  0  0  0  0  0  0  0  0
   64.6897   32.9856   46.7223 H   0  0  0  0  0  0  0  0  0  0  0  0
   55.6160   30.4310   45.2360 H   0  0  0  0  0  0  0  0  0  0  0  0
   55.1430   27.9690   45.3020 H   0  0  0  0  0  0  0  0  0  0  0  0
  1  2  1  0
  2  3  2  0
  3  4  1  0
  4  5  2  0
  5  6  1  0
  6  7  2  0
  6  8  1  0
  8  9  1  0
  9 10  1  0
 10 11  2  0
 10 12  1  0
 12 13  2  0
 13 14  1  0
 14 15  2  0
 15 16  1  0
 15 17  1  0
  4 18  1  0
 18 19  1  0
 19  2  1  0
 17 12  1  0
  1 20  1  0
  1 21  1  0
  1 22  1  0
  3 23  1  0
  8 24  1  0
  8 25  1  0
  9 26  1  0
 13 27  1  0
 14 28  1  0
 18 29  1  0
 19 30  1  0
M  END
>  <smiles>  (89) 
Cc1cc(=NC(=O)CNC(=O)c2ccc(Cl)s2)[nH][nH]1

>  <score_type>  (89) 
oracle

>  <origin>  (89) 
adg

>  <m_score__min__energy>  (89) 
-7.3300000000000001

>  <m_primary>  (89) 
energy

$$$$
89:0
     RDKit          3D

 67 69  0  0  0  0  0  0  0  0999 V2000
   55.1460   27.9480   45.7540 H   0  0  0  0  0  0  0  0  0  0  0  0
   55.6930   28.5700   45.2040 O   0  0  0  0  0  0  0  0  0  0  0  0
   57.0210   28.4320   45.6330 C   0  0  0  0  0  0  0  0  0  0  0  0
   57.3634   27.4053   45.4362 H   0  0  0  0  0  0  0  0  0  0  0  0
   57.0776   28.6417   46.7113 H   0  0  0  0  0  0  0  0  0  0  0  0
   57.9190   29.4230   44.8760 C   0  0  2  0  0  0  0  0  0  0  0  0
   58.9197   28.9672   44.8483 H   0  0  0  0  0  0  0  0  0  0  0  0
   57.9050   30.7170   45.5460 N   0  0  0  0  0  0  0  0  0  0  0  0
   58.6920   30.9930   46.7210 C   0  0  0  0  0  0  0  0  0  0  0  0
   58.5150   30.3070   47.7650 O   0  0  0  0  0  0  0  0  0  0  0  0
   59.7140   32.0600   46.7350 C   0  0  0  0  0  0  0  0  0  0  0  0
   59.3720   33.3670   46.3530 C   0  0  0  0  0  0  0  0  0  0  0  0
   58.3401   33.5957   46.0482 H   0  0  0  0  0  0  0  0  0  0  0  0
   60.3360   34.3790   46.3580 C   0  0  0  0  0  0  0  0  0  0  0  0
   60.0569   35.4041   46.0728 H   0  0  0  0  0  0  0  0  0  0  0  0
   61.6520   34.0920   46.7240 C   0  0  0  0  0  0  0  0  0  0  0  0
   62.4033   34.8952   46.7431 H   0  0  0  0  0  0  0  0  0  0  0  0
   62.0200   32.7810   47.0680 C   0  0  0  0  0  0  0  0  0  0  0  0
   63.4640   32.4600   47.3610 C   0  0  0  0  0  0  0  0  0  0  0  0
   64.1047   33.2381   46.9204 H   0  0  0  0  0  0  0  0  0  0  0  0
   63.7063   31.4791   46.9262 H   0  0  0  0  0  0  0  0  0  0  0  0
   63.6930   32.4080   48.8040 N   0  0  0  0  0  0  0  0  0  0  0  0
   63.0040   33.2310   49.7530 C   0  0  0  0  0  0  0  0  0  0  0  0
   63.5920   34.2210   50.2720 O   0  0  0  0  0  0  0  0  0  0  0  0
   61.6180   32.8950   50.1530 C   0  0  0  0  0  0  0  0  0  0  0  0
   60.6170   33.8850   50.1640 C   0  0  0  0  0  0  0  0  0  0  0  0
   60.8412   34.8926   49.7840 H   0  0  0  0  0  0  0  0  0  0  0  0
   59.3390   33.5960   50.6550 C   0  0  0  0  0  0  0  0  0  0  0  0
   58.5705   34.3827   50.6755 H   0  0  0  0  0  0  0  0  0  0  0  0
   59.0320   32.3100   51.1210 C   0  0  0  0  0  0  0  0  0  0  0  0
   57.7170   32.0560   51.7460 C   0  0  0  0  0  0  0  0  0  0  0  0
   56.8330   32.5147   51.2789 H   0  0  0  0  0  0  0  0  0  0  0  0
   57.5240   31.3090   52.8380 C   0  0  0  0  0  0  0  0  0  0  0  0
   58.1219   31.5351   53.7332 H   0  0  0  0  0  0  0  0  0  0  0  0
   56.5560   30.2000   52.9110 C   0  0  0  0  0  0  0  0  0  0  0  0
   56.6960   29.2320   52.1110 O   0  0  0  0  0  0  0  0  0  0  0  0
   55.4120   30.2580   53.8050 N   0  0  2  0  0  0  0  0  0  0  0  0
   55.4250   31.1930   54.2760 H   0  0  0  0  0  0  0  0  0  0  0  0
   55.5560   29.2680   54.8930 C   0  0  0  0  0  0  0  0  0  0  0  0
   55.4818   29.7779   55.8649 H   0  0  0  0  0  0  0  0  0  0  0  0
   54.7579   28.5154   54.8119 H   0  0  0  0  0  0  0  0  0  0  0  0
   56.5355   28.7739   54.8119 H   0  0  0  0  0  0  0  0  0  0  0  0
   54.0960   30.1200   53.1070 C   0  0  0  0  0  0  0  0  0  0  0  0
   53.3728   30.6223   53.7663 H   0  0  0  0  0  0  0  0  0  0  0  0
   54.1130   30.8170   51.7330 C   0  0  0  0  0  0  0  0  0  0  0  0
   54.1396   31.9074   51.8753 H   0  0  0  0  0  0  0  0  0  0  0  0
   55.0036   30.4987   51.1714 H   0  0  0  0  0  0  0  0  0  0  0  0
   53.2079   30.5425   51.1714 H   0  0  0  0  0  0  0  0  0  0  0  0
   53.6080   28.6640   52.9550 C   0  0  0  0  0  0  0  0  0  0  0  0
   53.4596   28.2212   53.9509 H   0  0  0  0  0  0  0  0  0  0  0  0
   52.6567   28.6519   52.4029 H   0  0  0  0  0  0  0  0  0  0  0  0
   54.3599   28.0810   52.4029 H   0  0  0  0  0  0  0  0  0  0  0  0
   60.0250   31.3190   51.1000 C   0  0  0  0  0  0  0  0  0  0  0  0
   59.7962   30.3090   51.4709 H   0  0  0  0  0  0  0  0  0  0  0  0
   61.3010   31.6050   50.6120 C   0  0  0  0  0  0  0  0  0  0  0  0
   62.0650   30.8140   50.5864 H   0  0  0  0  0  0  0  0  0  0  0  0
   61.0470   31.7700   47.0690 C   0  0  0  0  0  0  0  0  0  0  0  0
   61.3309   30.7408   47.3338 H   0  0  0  0  0  0  0  0  0  0  0  0
   57.2920   31.7620   44.7370 C   0  0  0  0  0  0  0  0  0  0  0  0
   56.4855   32.2570   45.2978 H   0  0  0  0  0  0  0  0  0  0  0  0
   58.0195   32.5396   44.4612 H   0  0  0  0  0  0  0  0  0  0  0  0
   56.7300   31.0600   43.5090 C   0  0  0  0  0  0  0  0  0  0  0  0
   55.6407   30.9392   43.6029 H   0  0  0  0  0  0  0  0  0  0  0  0
   56.9161   31.6400   42.5930 H   0  0  0  0  0  0  0  0  0  0  0  0
   57.4120   29.6960   43.4550 C   0  0  0  0  0  0  0  0  0  0  0  0
   56.6937   28.9209   43.1496 H   0  0  0  0  0  0  0  0  0  0  0  0
   58.2337   29.6840   42.7238 H   0  0  0  0  0  0  0  0  0  0  0  0
  1  2  1  0
  2  3  1  0
  3  4  1  0
  3  5  1  0
  3  6  1  0
  6  7  1  6
  6  8  1  0
  8  9  1  0
  9 10  2  0
  9 11  1  0
 11 12  2  0
 12 13  1  0
 12 14  1  0
 14 15  1  0
 14 16  2  0
 16 17  1  0
 16 18  1  0
 18 19  1  0
 19 20  1  0
 19 21  1  0
 19 22  1  0
 22 23  1  0
 23 24  2  0
 23 25  1  0
 25 26  2  0
 26 27  1  0
 26 28  1  0
 28 29  1  0
 28 30  2  0
 30 31  1  0
 31 32  1  0
 31 33  2  0
 33 34  1  0
 33 35  1  0
 35 36  2  0
 35 37  1  0
 37 38  1  1
 37 39  1  0
 39 40  1  0
 39 41  1  0
 39 42  1  0
 37 43  1  0
 43 44  1  0
 43 45  1  0
 45 46  1  0
 45 47  1  0
 45 48  1  0
 43 49  1  0
 49 50  1  0
 49 51  1  0
 49 52  1  0
 30 53  1  0
 53 54  1  0
 53 55  2  0
 55 56  1  0
 18 57  2  0
 57 58  1  0
  8 59  1  0
 59 60  1  0
 59 61  1  0
 59 62  1  0
 62 63  1  0
 62 64  1  0
 62 65  1  0
 65 66  1  0
 65 67  1  0
 65  6  1  0
 57 11  1  0
 55 25  1  0
M  CHG  2  22  -1  37   1
M  END
>  <UniqueID>  (90) 
85

>  <SMILES>  (90) 
CC(C)[N@@H+](C)C(=O)/C=C\c1ccc(C(=O)[N-]Cc2cccc(C(=O)N3CCC[C@@H]3CO)c2)cc1

>  <Energy>  (90) 
87.4497683001758

>  <Genealogy>  (90) 
CC(C)[NH+](C)C(=O)C=Cc1ccc(C(=O)[N-]Cc2cccc(C(=O)N3CCCC3CO)c2)cc1 (protonated)
CC(C)[N@@H+](C)C(=O)C=Cc1ccc(C(=O)[N-]Cc2cccc(C(=O)N3CCC[C@@H]3CO)c2)cc1 (chirality)
CC(C)[N@@H+](C)C(=O)/C=C\c1ccc(C(=O)[N-]Cc2cccc(C(=O)N3CCC[C@@H]3CO)c2)cc1 (cis-trans isomerization)
CC(C)[N@@H+](C)C(=O)/C=C\c1ccc(C(=O)[N-]Cc2cccc(C(=O)N3CCC[C@@H]3CO)c2)cc1 (3D coordinates assigned)
CC(C)[N@@H+](C)C(=O)/C=C\c1ccc(C(=O)[N-]Cc2cccc(C(=O)N3CCC[C@@H]3CO)c2)cc1 (nonaromatic ring conformer: 87.4497683001758 kcal/mol)

>  <smiles>  (90) 
CC(C)N(C)C(=O)C=Cc1ccc(C(=O)NCc2cccc(C(=O)N3CCCC3CO)c2)cc1

>  <score_type>  (90) 
oracle

>  <origin>  (90) 
adg

>  <m_score__min__energy>  (90) 
-10.390000000000001

>  <m_primary>  (90) 
energy

$$$$
90:0
     RDKit          3D

 45 47  0  0  0  0  0  0  0  0999 V2000
   60.2850   26.0130   46.8980 O   0  0  0  0  0  0  0  0  0  0  0  0
   59.1850   26.6300   46.9160 C   0  0  0  0  0  0  0  0  0  0  0  0
   58.1580   26.3380   45.8660 C   0  0  0  0  0  0  0  0  0  0  0  0
   57.3830   27.5770   45.5460 C   0  0  0  0  0  0  0  0  0  0  0  0
   58.0440   29.0140   44.9630 S   0  0  0  0  0  0  0  0  0  0  0  0
   56.5360   29.7480   44.8330 C   0  0  0  0  0  0  0  0  0  0  0  0
   56.3540   30.9250   44.4270 O   0  0  0  0  0  0  0  0  0  0  0  0
   55.5260   28.9350   45.2090 N   0  0  0  0  0  0  0  0  0  0  0  0
   55.9990   27.7230   45.6010 C   0  0  0  0  0  0  0  0  0  0  0  0
   55.1470   26.7090   46.0200 O   0  0  0  0  0  0  0  0  0  0  0  0
   58.9300   27.6280   47.9150 N   0  0  0  0  0  0  0  0  0  0  0  0
   59.8810   27.9330   48.9790 C   0  0  0  0  0  0  0  0  0  0  0  0
   60.5740   29.2390   48.6970 C   0  0  0  0  0  0  0  0  0  0  0  0
   60.4230   29.8740   47.4560 C   0  0  0  0  0  0  0  0  0  0  0  0
   61.0900   31.0730   47.1930 C   0  0  0  0  0  0  0  0  0  0  0  0
   61.9230   31.6540   48.1620 C   0  0  0  0  0  0  0  0  0  0  0  0
   62.7470   33.1740   47.8030 S   0  0  0  0  0  0  0  0  0  0  0  0
   62.9260   33.9510   49.0770 O   0  0  0  0  0  0  0  0  0  0  0  0
   64.1000   32.8960   47.2100 O   0  0  0  0  0  0  0  0  0  0  0  0
   61.7900   34.0730   46.6590 N   0  0  0  0  0  0  0  0  0  0  0  0
   60.5670   34.5860   47.2800 C   0  0  0  0  0  0  0  0  0  0  0  0
   59.3520   34.1920   46.4850 C   0  0  0  0  0  0  0  0  0  0  0  0
   59.3990   34.1850   45.0810 C   0  0  0  0  0  0  0  0  0  0  0  0
   58.2680   33.8300   44.3390 C   0  0  0  0  0  0  0  0  0  0  0  0
   57.0830   33.4780   44.9940 C   0  0  0  0  0  0  0  0  0  0  0  0
   57.0290   33.4810   46.3900 C   0  0  0  0  0  0  0  0  0  0  0  0
   58.1570   33.8370   47.1350 C   0  0  0  0  0  0  0  0  0  0  0  0
   62.0780   31.0150   49.4110 C   0  0  0  0  0  0  0  0  0  0  0  0
   63.1890   31.7320   50.8010 Br  0  0  0  0  0  0  0  0  0  0  0  0
   61.4080   29.8130   49.6670 C   0  0  0  0  0  0  0  0  0  0  0  0
   58.6603   25.9779   44.9560 H   0  0  0  0  0  0  0  0  0  0  0  0
   57.4676   25.5686   46.2419 H   0  0  0  0  0  0  0  0  0  0  0  0
   58.0310   28.1600   47.8820 H   0  0  0  0  0  0  0  0  0  0  0  0
   59.3443   28.0056   49.9364 H   0  0  0  0  0  0  0  0  0  0  0  0
   60.6324   27.1312   49.0300 H   0  0  0  0  0  0  0  0  0  0  0  0
   59.7768   29.4263   46.6865 H   0  0  0  0  0  0  0  0  0  0  0  0
   60.9613   31.5661   46.2181 H   0  0  0  0  0  0  0  0  0  0  0  0
   60.4803   34.1752   48.2967 H   0  0  0  0  0  0  0  0  0  0  0  0
   60.6241   35.6841   47.3114 H   0  0  0  0  0  0  0  0  0  0  0  0
   60.3296   34.4600   44.5629 H   0  0  0  0  0  0  0  0  0  0  0  0
   58.3102   33.8275   43.2398 H   0  0  0  0  0  0  0  0  0  0  0  0
   56.1937   33.1989   44.4098 H   0  0  0  0  0  0  0  0  0  0  0  0
   56.0971   33.2027   46.9039 H   0  0  0  0  0  0  0  0  0  0  0  0
   58.1094   33.8394   48.2340 H   0  0  0  0  0  0  0  0  0  0  0  0
   61.5370   29.3138   50.6387 H   0  0  0  0  0  0  0  0  0  0  0  0
  1  2  2  0
  2  3  1  0
  3  4  1  0
  4  5  1  0
  5  6  1  0
  6  7  2  0
  6  8  1  0
  8  9  1  0
  9 10  1  0
  2 11  1  0
 11 12  1  0
 12 13  1  0
 13 14  2  0
 14 15  1  0
 15 16  2  0
 16 17  1  0
 17 18  2  0
 17 19  2  0
 17 20  1  0
 20 21  1  0
 21 22  1  0
 22 23  2  0
 23 24  1  0
 24 25  2  0
 25 26  1  0
 26 27  2  0
 16 28  1  0
 28 29  1  0
 28 30  2  0
  9  4  2  0
 30 13  1  0
 27 22  1  0
  3 31  1  0
  3 32  1  0
 11 33  1  0
 12 34  1  0
 12 35  1  0
 14 36  1  0
 15 37  1  0
 21 38  1  0
 21 39  1  0
 23 40  1  0
 24 41  1  0
 25 42  1  0
 26 43  1  0
 27 44  1  0
 30 45  1  0
M  CHG  3   8  -1  10  -1  20  -1
M  END
>  <UniqueID>  (91) 
86

>  <SMILES>  (91) 
O=C(Cc1sc(=O)[n-]c1[O-])NCc1ccc(S(=O)(=O)[N-]Cc2ccccc2)c(Br)c1

>  <Energy>  (91) 
74.08371563694287

>  <Genealogy>  (91) 
O=C(Cc1sc(=O)[n-]c1[O-])NCc1ccc(S(=O)(=O)[N-]Cc2ccccc2)c(Br)c1 (protonated)
O=C(Cc1sc(=O)[n-]c1[O-])NCc1ccc(S(=O)(=O)[N-]Cc2ccccc2)c(Br)c1 (3D coordinates assigned)
O=C(Cc1sc(=O)[n-]c1[O-])NCc1ccc(S(=O)(=O)[N-]Cc2ccccc2)c(Br)c1 (optimized conformer: 74.08371563694287 kcal/mol)

>  <smiles>  (91) 
O=C(Cc1sc(=O)[nH]c1O)NCc1ccc(S(=O)(=O)NCc2ccccc2)c(Br)c1

>  <score_type>  (91) 
oracle

>  <origin>  (91) 
adg

>  <m_score__min__energy>  (91) 
-17.780000000000001

>  <m_primary>  (91) 
energy

$$$$
