0:0
     RDKit          3D

 54 57  0  0  1  0  0  0  0  0999 V2000
   58.0580   29.0620   52.4200 C   0  0  0  0  0  0  0  0  0  0  0  0
   58.0110   30.3000   51.9130 C   0  0  0  0  0  0  0  0  0  0  0  0
   56.9770   31.1990   52.1230 C   0  0  0  0  0  0  0  0  0  0  0  0
   55.8680   31.0340   52.8210 C   0  0  0  0  0  0  0  0  0  0  0  0
   54.5870   30.6540   52.2320 C   0  0  0  0  0  0  0  0  0  0  0  0
   53.7640   31.5350   51.6420 N   0  0  0  0  0  0  0  0  0  0  0  0
   52.6880   30.8570   51.2220 C   0  0  0  0  0  0  0  0  0  0  0  0
   51.7100   31.3800   50.6190 O   0  0  0  0  0  0  0  0  0  0  0  0
   52.8090   29.5550   51.5340 N   0  0  0  0  0  0  0  0  0  0  0  0
   53.9860   29.4120   52.1630 C   0  0  0  0  0  0  0  0  0  0  0  0
   54.5410   28.2270   52.6740 O   0  0  0  0  0  0  0  0  0  0  0  0
   57.3470   32.3290   51.4330 C   0  0  0  0  0  0  0  0  0  0  0  0
   58.5810   32.1150   50.8200 C   0  0  0  0  0  0  0  0  0  0  0  0
   59.2630   33.1360   50.0650 C   0  0  0  0  0  0  0  0  0  0  0  0
   60.1210   33.8240   50.7470 O   0  0  0  0  0  0  0  0  0  0  0  0
   59.0800   33.4380   48.6880 N   0  0  0  0  0  0  0  0  0  0  0  0
   59.7250   34.5440   48.0090 C   0  0  0  0  0  0  0  0  0  0  0  0
   60.2250   34.1970   46.6310 C   0  0  0  0  0  0  0  0  0  0  0  0
   59.0960   33.6550   45.8640 N   0  0  0  0  0  0  0  0  0  0  0  0
   58.8510   34.0360   44.4950 C   0  0  0  0  0  0  0  0  0  0  0  0
   58.2660   32.7370   46.5290 C   0  0  0  0  0  0  0  0  0  0  0  0
   57.5380   31.9920   45.7910 O   0  0  0  0  0  0  0  0  0  0  0  0
   58.1480   32.5460   47.9770 C   0  0  0  0  0  0  0  0  0  0  0  0
   58.9630   30.8740   51.1240 N   0  0  0  0  0  0  0  0  0  0  0  0
   60.1380   30.1470   50.7030 C   0  0  0  0  0  0  0  0  0  0  0  0
   60.2360   29.9400   49.2480 C   0  0  0  0  0  0  0  0  0  0  0  0
   59.3690   28.9750   48.7110 C   0  0  0  0  0  0  0  0  0  0  0  0
   59.3370   28.6770   47.3700 C   0  0  0  0  0  0  0  0  0  0  0  0
   60.1930   29.3560   46.5330 C   0  0  0  0  0  0  0  0  0  0  0  0
   60.1300   28.9510   44.8280 Cl  0  0  0  0  0  0  0  0  0  0  0  0
   61.0590   30.3140   47.0400 C   0  0  0  0  0  0  0  0  0  0  0  0
   61.0860   30.6120   48.4070 C   0  0  0  0  0  0  0  0  0  0  0  0
   58.9180   28.4113   52.2035 H   0  0  0  0  0  0  0  0  0  0  0  0
   57.2366   28.6954   53.0532 H   0  0  0  0  0  0  0  0  0  0  0  0
   55.9118   31.1919   53.9087 H   0  0  0  0  0  0  0  0  0  0  0  0
   53.9290   32.5460   51.5320 H   0  0  0  0  0  0  0  0  0  0  0  0
   52.1380   28.7700   51.3420 H   0  0  0  0  0  0  0  0  0  0  0  0
   54.1190   27.3680   52.3100 H   0  0  0  0  0  0  0  0  0  0  0  0
   56.7606   33.2578   51.3737 H   0  0  0  0  0  0  0  0  0  0  0  0
   59.0006   35.3669   47.9190 H   0  0  0  0  0  0  0  0  0  0  0  0
   60.6031   34.8233   48.6098 H   0  0  0  0  0  0  0  0  0  0  0  0
   60.6139   35.0993   46.1364 H   0  0  0  0  0  0  0  0  0  0  0  0
   61.0364   33.4569   46.6931 H   0  0  0  0  0  0  0  0  0  0  0  0
   58.2562   34.9610   44.4727 H   0  0  0  0  0  0  0  0  0  0  0  0
   59.8104   34.2046   43.9840 H   0  0  0  0  0  0  0  0  0  0  0  0
   58.2995   33.2330   43.9840 H   0  0  0  0  0  0  0  0  0  0  0  0
   57.1183   32.7730   48.2902 H   0  0  0  0  0  0  0  0  0  0  0  0
   58.3949   31.5023   48.2215 H   0  0  0  0  0  0  0  0  0  0  0  0
   61.0256   30.7077   51.0314 H   0  0  0  0  0  0  0  0  0  0  0  0
   60.0693   29.1481   51.1585 H   0  0  0  0  0  0  0  0  0  0  0  0
   58.6900   28.4374   49.3892 H   0  0  0  0  0  0  0  0  0  0  0  0
   58.6463   27.9168   46.9763 H   0  0  0  0  0  0  0  0  0  0  0  0
   61.7354   30.8480   46.3563 H   0  0  0  0  0  0  0  0  0  0  0  0
   61.7770   31.3721   48.8003 H   0  0  0  0  0  0  0  0  0  0  0  0
  1  2  2  0
  2  3  1  0
  3  4  2  0
  4  5  1  0
  5  6  1  0
  6  7  1  0
  7  8  2  0
  7  9  1  0
  9 10  1  0
 10 11  1  0
  3 12  1  0
 12 13  2  0
 13 14  1  0
 14 15  2  0
 14 16  1  0
 16 17  1  0
 17 18  1  0
 18 19  1  0
 19 20  1  0
 19 21  1  0
 21 22  2  0
 21 23  1  0
 13 24  1  0
 24 25  1  0
 25 26  1  0
 26 27  2  0
 27 28  1  0
 28 29  2  0
 29 30  1  0
 29 31  1  0
 31 32  2  0
 24  2  1  0
 32 26  1  0
 10  5  2  0
 23 16  1  0
  1 33  1  0
  1 34  1  0
  4 35  1  0
  6 36  1  0
  9 37  1  0
 11 38  1  0
 12 39  1  0
 17 40  1  0
 17 41  1  0
 18 42  1  0
 18 43  1  0
 20 44  1  0
 20 45  1  0
 20 46  1  0
 23 47  1  0
 23 48  1  0
 25 49  1  0
 25 50  1  0
 27 51  1  0
 28 52  1  0
 31 53  1  0
 32 54  1  0
M  END
>  <smiles>  (1) 
C=c1c(=Cc2[nH]c(=O)[nH]c2O)cc(C(=O)N2CCN(C)C(=O)C2)n1Cc1ccc(Cl)cc1

>  <score_type>  (1) 
oracle

>  <origin>  (1) 
adg

>  <m_score__min__energy>  (1) 
-9.8300000000000001

>  <m_primary>  (1) 
energy

$$$$
1:0
     RDKit          3D

 44 47  0  0  1  0  0  0  0  0999 V2000
   55.1560   29.3630   44.8660 O   0  0  0  0  0  0  0  0  0  0  0  0
   56.3190   29.8070   44.8030 C   0  0  0  0  0  0  0  0  0  0  0  0
   56.6180   31.1820   44.4720 N   0  0  0  0  0  0  0  0  0  0  0  0
   57.5090   31.7550   45.2370 C   0  0  0  0  0  0  0  0  0  0  0  0
   60.8740   29.1340   49.4860 C   0  0  0  0  0  0  0  0  0  0  0  0
   60.7990   30.3850   50.0700 C   0  0  0  0  0  0  0  0  0  0  0  0
   59.6030   31.0660   50.0020 C   0  0  0  0  0  0  0  0  0  0  0  0
   59.4610   32.6570   50.7310 Cl  0  0  0  0  0  0  0  0  0  0  0  0
   58.5320   30.4750   49.3540 C   0  0  0  0  0  0  0  0  0  0  0  0
   58.0420   31.4300   46.3990 N   0  0  0  0  0  0  0  0  0  0  0  0
   57.5110   28.9830   45.0580 C   0  0  0  0  0  0  0  0  0  0  0  0
   58.2270   28.4210   44.0210 C   0  0  0  0  0  0  0  0  0  0  0  0
   59.2780   27.7110   44.5590 C   0  0  0  0  0  0  0  0  0  0  0  0
   59.1390   27.8860   45.9460 C   0  0  0  0  0  0  0  0  0  0  0  0
   60.0740   27.2790   46.8930 C   0  0  0  0  0  0  0  0  0  0  0  0
   61.0610   26.6810   46.3910 O   0  0  0  0  0  0  0  0  0  0  0  0
   59.8530   27.3730   48.2990 N   0  0  0  0  0  0  0  0  0  0  0  0
   59.8120   28.5380   48.8400 C   0  0  0  0  0  0  0  0  0  0  0  0
   58.6530   29.2590   48.8040 N   0  0  0  0  0  0  0  0  0  0  0  0
   58.9210   32.2670   46.8630 N   0  0  0  0  0  0  0  0  0  0  0  0
   59.3220   33.2620   46.4230 C   0  0  0  0  0  0  0  0  0  0  0  0
   60.2360   34.3990   46.7210 C   0  0  0  0  0  0  0  0  0  0  0  0
   61.5360   33.9120   47.2530 C   0  0  0  0  0  0  0  0  0  0  0  0
   62.5840   33.5070   46.4680 C   0  0  0  0  0  0  0  0  0  0  0  0
   63.7370   33.1060   47.1210 C   0  0  0  0  0  0  0  0  0  0  0  0
   63.8860   33.0900   48.4770 C   0  0  0  0  0  0  0  0  0  0  0  0
   62.8270   33.4980   49.2560 C   0  0  0  0  0  0  0  0  0  0  0  0
   61.6660   33.9040   48.6330 C   0  0  0  0  0  0  0  0  0  0  0  0
   58.3190   33.3610   44.7730 S   0  0  0  0  0  0  0  0  0  0  0  0
   58.0840   28.6420   46.1770 O   0  0  0  0  0  0  0  0  0  0  0  0
   61.8273   28.5878   49.5394 H   0  0  0  0  0  0  0  0  0  0  0  0
   61.6712   30.8251   50.5756 H   0  0  0  0  0  0  0  0  0  0  0  0
   57.5723   31.0087   49.2899 H   0  0  0  0  0  0  0  0  0  0  0  0
   57.7700   30.5430   46.9190 H   0  0  0  0  0  0  0  0  0  0  0  0
   57.9982   28.5223   42.9498 H   0  0  0  0  0  0  0  0  0  0  0  0
   60.0499   27.1379   44.0245 H   0  0  0  0  0  0  0  0  0  0  0  0
   57.8310   28.8380   48.3240 H   0  0  0  0  0  0  0  0  0  0  0  0
   60.4159   34.9677   45.7968 H   0  0  0  0  0  0  0  0  0  0  0  0
   59.7636   35.0385   47.4812 H   0  0  0  0  0  0  0  0  0  0  0  0
   62.5123   33.5009   45.3704 H   0  0  0  0  0  0  0  0  0  0  0  0
   64.5886   32.7789   46.5064 H   0  0  0  0  0  0  0  0  0  0  0  0
   64.8291   32.7592   48.9365 H   0  0  0  0  0  0  0  0  0  0  0  0
   62.9054   33.5001   50.3532 H   0  0  0  0  0  0  0  0  0  0  0  0
   60.8165   34.2317   49.2502 H   0  0  0  0  0  0  0  0  0  0  0  0
  1  2  2  0
  2  3  1  0
  3  4  2  0
  4  5  1  0
  5  6  2  0
  6  7  1  0
  7  8  1  0
  7  9  2  0
  9 10  1  0
  2 11  1  0
 11 12  2  0
 12 13  1  0
 13 14  2  0
 14 15  1  0
 15 16  2  0
 15 17  1  0
 17 18  2  0
 18 19  1  0
 19 20  1  0
 20 21  2  0
 21 22  1  0
 22 23  1  0
 23 24  2  0
 24 25  1  0
 25 26  2  0
 26 27  1  0
 27 28  2  0
 21 29  1  0
 14 30  1  0
 10  4  1  0
 30 11  1  0
 29 18  1  0
 28 23  1  0
  5 31  1  0
  6 32  1  0
  9 33  1  0
 10 34  1  0
 12 35  1  0
 13 36  1  0
 19 37  1  0
 22 38  1  0
 22 39  1  0
 24 40  1  0
 25 41  1  0
 26 42  1  0
 27 43  1  0
 28 44  1  0
M  END
>  <smiles>  (2) 
O=C(N=c1ccc(Cl)c[nH]1)c1ccc(C(=O)N=c2[nH]nc(Cc3ccccc3)s2)o1

>  <score_type>  (2) 
oracle

>  <origin>  (2) 
adg

>  <m_score__min__energy>  (2) 
-9.6199999999999992

>  <m_primary>  (2) 
energy

$$$$
2:0
     RDKit          3D

 51 54  0  0  0  0  0  0  0  0999 V2000
   59.5130   34.0770   51.0690 O   0  0  0  0  0  0  0  0  0  0  0  0
   59.8370   33.6520   49.9200 C   0  0  0  0  0  0  0  0  0  0  0  0
   60.5460   34.5720   49.0730 N   0  0  0  0  0  0  0  0  0  0  0  0
   59.2600   30.1500   49.7260 C   0  0  0  0  0  0  0  0  0  0  0  0
   61.7760   33.8370   47.2010 C   0  0  0  0  0  0  0  0  0  0  0  0
   62.9660   33.3340   46.7010 C   0  0  0  0  0  0  0  0  0  0  0  0
   64.0340   33.0740   47.4950 N   0  0  0  0  0  0  0  0  0  0  0  0
   63.9240   33.3200   48.8160 C   0  0  0  0  0  0  0  0  0  0  0  0
   62.7620   33.8180   49.3360 C   0  0  0  0  0  0  0  0  0  0  0  0
   59.5030   32.3010   49.5040 C   0  0  0  0  0  0  0  0  0  0  0  0
   59.6810   31.2450   50.3580 N   0  0  0  0  0  0  0  0  0  0  0  0
   61.6560   34.0940   48.5710 C   0  0  0  0  0  0  0  0  0  0  0  0
   59.2760   28.9910   50.2150 O   0  0  0  0  0  0  0  0  0  0  0  0
   58.8310   30.5030   48.5120 N   0  0  0  0  0  0  0  0  0  0  0  0
   58.9630   31.8420   48.3220 C   0  0  0  0  0  0  0  0  0  0  0  0
   58.5620   32.5540   47.1270 C   0  0  0  0  0  0  0  0  0  0  0  0
   58.6230   33.9180   46.9710 C   0  0  0  0  0  0  0  0  0  0  0  0
   58.1640   34.5280   45.8040 C   0  0  0  0  0  0  0  0  0  0  0  0
   57.6340   33.7660   44.7690 C   0  0  0  0  0  0  0  0  0  0  0  0
   57.5670   32.4050   44.9110 C   0  0  0  0  0  0  0  0  0  0  0  0
   57.0250   31.4780   43.8850 C   0  0  0  0  0  0  0  0  0  0  0  0
   56.2970   30.4430   44.4970 N   0  0  0  0  0  0  0  0  0  0  0  0
   56.6190   29.0950   44.2900 C   0  0  0  0  0  0  0  0  0  0  0  0
   57.8110   28.6760   45.0570 C   0  0  0  0  0  0  0  0  0  0  0  0
   57.8050   27.9910   46.2410 C   0  0  0  0  0  0  0  0  0  0  0  0
   58.9630   27.6440   46.9130 C   0  0  0  0  0  0  0  0  0  0  0  0
   60.1930   27.9910   46.3880 C   0  0  0  0  0  0  0  0  0  0  0  0
   60.2360   28.6820   45.1970 C   0  0  0  0  0  0  0  0  0  0  0  0
   59.0690   29.0120   44.5530 C   0  0  0  0  0  0  0  0  0  0  0  0
   58.0320   31.8270   46.0860 C   0  0  0  0  0  0  0  0  0  0  0  0
   60.9307   34.0331   46.5250 H   0  0  0  0  0  0  0  0  0  0  0  0
   63.0474   33.1386   45.6216 H   0  0  0  0  0  0  0  0  0  0  0  0
   64.9120   32.6940   47.0670 H   0  0  0  0  0  0  0  0  0  0  0  0
   64.7766   33.1182   49.4811 H   0  0  0  0  0  0  0  0  0  0  0  0
   62.7107   34.0065   50.4185 H   0  0  0  0  0  0  0  0  0  0  0  0
   60.0800   31.2910   51.3400 H   0  0  0  0  0  0  0  0  0  0  0  0
   58.4520   29.7870   47.8310 H   0  0  0  0  0  0  0  0  0  0  0  0
   59.0400   34.5377   47.7785 H   0  0  0  0  0  0  0  0  0  0  0  0
   58.2218   35.6217   45.7015 H   0  0  0  0  0  0  0  0  0  0  0  0
   57.2735   34.2491   43.8489 H   0  0  0  0  0  0  0  0  0  0  0  0
   56.3624   32.0353   43.2065 H   0  0  0  0  0  0  0  0  0  0  0  0
   57.8619   31.0409   43.3206 H   0  0  0  0  0  0  0  0  0  0  0  0
   55.3040   30.6890   44.6260 H   0  0  0  0  0  0  0  0  0  0  0  0
   55.7641   28.4760   44.5998 H   0  0  0  0  0  0  0  0  0  0  0  0
   56.8450   28.9645   43.2214 H   0  0  0  0  0  0  0  0  0  0  0  0
   56.8371   27.7036   46.6777 H   0  0  0  0  0  0  0  0  0  0  0  0
   58.9048   27.0930   47.8633 H   0  0  0  0  0  0  0  0  0  0  0  0
   61.1216   27.7203   46.9118 H   0  0  0  0  0  0  0  0  0  0  0  0
   61.2047   28.9692   44.7621 H   0  0  0  0  0  0  0  0  0  0  0  0
   59.1275   29.5628   43.6026 H   0  0  0  0  0  0  0  0  0  0  0  0
   57.9734   30.7334   46.1890 H   0  0  0  0  0  0  0  0  0  0  0  0
  1  2  2  0
  2  3  1  0
  3  4  2  3
  4  5  1  0
  5  6  2  0
  6  7  1  0
  7  8  1  0
  8  9  2  0
  2 10  1  0
 10 11  1  0
 11 12  1  0
 12 13  2  0
 12 14  1  0
 14 15  1  0
 15 16  1  0
 16 17  2  0
 17 18  1  0
 18 19  2  0
 19 20  1  0
 20 21  1  0
 21 22  1  0
 22 23  1  0
 23 24  1  0
 24 25  2  0
 25 26  1  0
 26 27  2  0
 27 28  1  0
 28 29  2  0
 20 30  2  0
  9  4  1  0
 15 10  2  0
 30 16  1  0
 29 24  1  0
  5 31  1  0
  6 32  1  0
  7 33  1  0
  8 34  1  0
  9 35  1  0
 11 36  1  0
 14 37  1  0
 17 38  1  0
 18 39  1  0
 19 40  1  0
 21 41  1  0
 21 42  1  0
 22 43  1  0
 23 44  1  0
 23 45  1  0
 25 46  1  0
 26 47  1  0
 27 48  1  0
 28 49  1  0
 29 50  1  0
 30 51  1  0
M  END
>  <smiles>  (3) 
O=C(N=c1cc[nH]cc1)c1[nH]c(=O)[nH]c1-c1cccc(CNCc2ccccc2)c1

>  <score_type>  (3) 
oracle

>  <origin>  (3) 
adg

>  <m_score__min__energy>  (3) 
-8.7300000000000004

>  <m_primary>  (3) 
energy

$$$$
3:0
     RDKit          3D

 65 68  0  0  1  0  0  0  0  0999 V2000
   57.8220   31.7190   43.2860 C   0  0  0  0  0  0  0  0  0  0  0  0
   56.9600   31.3270   44.4750 C   0  0  1  0  0  0  0  0  0  0  0  0
   56.7550   29.8350   44.4910 C   0  0  0  0  0  0  0  0  0  0  0  0
   57.7230   29.3570   45.4960 C   0  0  0  0  0  0  0  0  0  0  0  0
   58.0880   28.0400   45.7850 C   0  0  0  0  0  0  0  0  0  0  0  0
   59.0170   27.7610   46.7660 C   0  0  0  0  0  0  0  0  0  0  0  0
   59.5950   28.7930   47.4740 C   0  0  0  0  0  0  0  0  0  0  0  0
   59.2220   30.1050   47.1760 C   0  0  0  0  0  0  0  0  0  0  0  0
   58.2930   30.3910   46.1950 C   0  0  0  0  0  0  0  0  0  0  0  0
   57.7210   31.5750   45.6710 N   0  0  0  0  0  0  0  0  0  0  0  0
   57.9040   32.8580   46.2810 C   0  0  0  0  0  0  0  0  0  0  0  0
   57.5140   33.0020   47.4920 O   0  0  0  0  0  0  0  0  0  0  0  0
   58.5260   33.9740   45.5300 C   0  0  0  0  0  0  0  0  0  0  0  0
   59.1940   34.9610   46.4600 C   0  0  0  0  0  0  0  0  0  0  0  0
   60.3660   34.2470   47.0860 C   0  0  0  0  0  0  0  0  0  0  0  0
   61.4410   34.3210   46.4560 O   0  0  0  0  0  0  0  0  0  0  0  0
   60.1940   33.5600   48.3020 N   0  0  0  0  0  0  0  0  0  0  0  0
   61.1250   32.8120   49.0470 C   0  0  0  0  0  0  0  0  0  0  0  0
   60.8860   32.7490   50.5010 C   0  0  0  0  0  0  0  0  0  0  0  0
   59.5600   32.3920   50.9190 C   0  0  0  0  0  0  0  0  0  0  0  0
   58.9670   31.2120   50.4880 C   0  0  0  0  0  0  0  0  0  0  0  0
   57.7060   30.8300   50.9480 C   0  0  0  0  0  0  0  0  0  0  0  0
   57.0610   31.6540   51.8430 C   0  0  0  0  0  0  0  0  0  0  0  0
   55.7470   31.2250   52.3080 C   0  0  0  0  0  0  0  0  0  0  0  0
   55.6340   30.8520   53.5080 O   0  0  0  0  0  0  0  0  0  0  0  0
   54.5920   31.2050   51.4880 N   0  0  0  0  0  0  0  0  0  0  0  0
   53.3670   30.7630   52.0790 C   0  0  0  0  0  0  0  0  0  0  0  0
   52.2720   31.6010   52.1410 C   0  0  0  0  0  0  0  0  0  0  0  0
   51.0750   31.2170   52.7030 C   0  0  0  0  0  0  0  0  0  0  0  0
   50.9460   29.9430   53.2330 C   0  0  0  0  0  0  0  0  0  0  0  0
   52.0340   29.1000   53.1760 C   0  0  0  0  0  0  0  0  0  0  0  0
   53.2360   29.4770   52.6130 C   0  0  0  0  0  0  0  0  0  0  0  0
   54.3280   28.5820   52.5750 N   0  0  0  0  0  0  0  0  0  0  0  0
   57.6350   32.8290   52.2810 C   0  0  0  0  0  0  0  0  0  0  0  0
   58.8990   33.2340   51.8340 C   0  0  0  0  0  0  0  0  0  0  0  0
   58.7684   32.1494   43.6453 H   0  0  0  0  0  0  0  0  0  0  0  0
   58.0325   30.8281   42.6761 H   0  0  0  0  0  0  0  0  0  0  0  0
   57.2889   32.4632   42.6761 H   0  0  0  0  0  0  0  0  0  0  0  0
   56.0114   31.8809   44.4162 H   0  0  0  0  0  0  0  0  0  0  0  0
   55.7260   29.5841   44.7879 H   0  0  0  0  0  0  0  0  0  0  0  0
   56.9053   29.3746   43.5033 H   0  0  0  0  0  0  0  0  0  0  0  0
   57.6283   27.2139   45.2226 H   0  0  0  0  0  0  0  0  0  0  0  0
   59.2954   26.7191   46.9824 H   0  0  0  0  0  0  0  0  0  0  0  0
   60.3368   28.5865   48.2596 H   0  0  0  0  0  0  0  0  0  0  0  0
   59.6801   30.9326   47.7374 H   0  0  0  0  0  0  0  0  0  0  0  0
   59.2797   33.5653   44.8409 H   0  0  0  0  0  0  0  0  0  0  0  0
   57.7353   34.5013   44.9761 H   0  0  0  0  0  0  0  0  0  0  0  0
   59.5430   35.8375   45.8944 H   0  0  0  0  0  0  0  0  0  0  0  0
   58.4918   35.3156   47.2289 H   0  0  0  0  0  0  0  0  0  0  0  0
   59.1970   33.6250   48.7110 H   0  0  0  0  0  0  0  0  0  0  0  0
   61.1173   31.7826   48.6594 H   0  0  0  0  0  0  0  0  0  0  0  0
   62.0877   33.3304   48.9261 H   0  0  0  0  0  0  0  0  0  0  0  0
   61.5799   32.0062   50.9215 H   0  0  0  0  0  0  0  0  0  0  0  0
   61.0385   33.7758   50.8650 H   0  0  0  0  0  0  0  0  0  0  0  0
   59.4999   30.5684   49.7726 H   0  0  0  0  0  0  0  0  0  0  0  0
   57.2395   29.8949   50.6045 H   0  0  0  0  0  0  0  0  0  0  0  0
   54.6520   31.5030   50.4940 H   0  0  0  0  0  0  0  0  0  0  0  0
   52.3590   32.6156   51.7251 H   0  0  0  0  0  0  0  0  0  0  0  0
   50.2268   31.9168   52.7311 H   0  0  0  0  0  0  0  0  0  0  0  0
   49.9998   29.6136   53.6872 H   0  0  0  0  0  0  0  0  0  0  0  0
   51.9410   28.0874   53.5954 H   0  0  0  0  0  0  0  0  0  0  0  0
   54.2790   27.7650   51.9480 H   0  0  0  0  0  0  0  0  0  0  0  0
   55.1440   28.8070   53.2000 H   0  0  0  0  0  0  0  0  0  0  0  0
   57.0887   33.4613   52.9964 H   0  0  0  0  0  0  0  0  0  0  0  0
   59.3566   34.1713   52.1833 H   0  0  0  0  0  0  0  0  0  0  0  0
  1  2  1  0
  2  3  1  0
  3  4  1  0
  4  5  2  0
  5  6  1  0
  6  7  2  0
  7  8  1  0
  8  9  2  0
  9 10  1  0
 10 11  1  0
 11 12  2  0
 11 13  1  0
 13 14  1  0
 14 15  1  0
 15 16  2  0
 15 17  1  0
 17 18  1  0
 18 19  1  0
 19 20  1  0
 20 21  2  0
 21 22  1  0
 22 23  2  0
 23 24  1  0
 24 25  2  0
 24 26  1  0
 26 27  1  0
 27 28  2  0
 28 29  1  0
 29 30  2  0
 30 31  1  0
 31 32  2  0
 32 33  1  0
 23 34  1  0
 34 35  2  0
 10  2  1  0
 35 20  1  0
  9  4  1  0
 32 27  1  0
  1 36  1  0
  1 37  1  0
  1 38  1  0
  2 39  1  1
  3 40  1  0
  3 41  1  0
  5 42  1  0
  6 43  1  0
  7 44  1  0
  8 45  1  0
 13 46  1  0
 13 47  1  0
 14 48  1  0
 14 49  1  0
 17 50  1  0
 18 51  1  0
 18 52  1  0
 19 53  1  0
 19 54  1  0
 21 55  1  0
 22 56  1  0
 26 57  1  0
 28 58  1  0
 29 59  1  0
 30 60  1  0
 31 61  1  0
 33 62  1  0
 33 63  1  0
 34 64  1  0
 35 65  1  0
M  END
>  <smiles>  (4) 
CC1Cc2ccccc2N1C(=O)CCC(=O)NCCc1ccc(C(=O)Nc2ccccc2N)cc1

>  <score_type>  (4) 
oracle

>  <origin>  (4) 
adg

>  <m_score__min__energy>  (4) 
-9.9399999999999995

>  <m_primary>  (4) 
energy

$$$$
4:0
     RDKit          3D

 48 50  0  0  0  0  0  0  0  0999 V2000
   59.9950   22.4470   45.2060 C   0  0  0  0  0  0  0  0  0  0  0  0
   58.8660   22.6170   44.5750 C   0  0  0  0  0  0  0  0  0  0  0  0
   57.7640   23.4830   44.9460 C   0  0  0  0  0  0  0  0  0  0  0  0
   57.9820   24.8610   45.0370 C   0  0  0  0  0  0  0  0  0  0  0  0
   57.0310   25.7770   45.3750 C   0  0  0  0  0  0  0  0  0  0  0  0
   57.1800   27.1970   45.4840 C   0  0  0  0  0  0  0  0  0  0  0  0
   56.1000   27.8870   45.3280 O   0  0  0  0  0  0  0  0  0  0  0  0
   58.3110   27.9930   45.7370 N   0  0  0  0  0  0  0  0  0  0  0  0
   58.0660   29.4450   45.7740 C   0  0  0  0  0  0  0  0  0  0  0  0
   58.5500   29.9230   47.1320 C   0  0  0  0  0  0  0  0  0  0  0  0
   59.8840   29.4520   47.3960 N   0  0  0  0  0  0  0  0  0  0  0  0
   60.7090   30.2890   48.1830 C   0  0  0  0  0  0  0  0  0  0  0  0
   60.4730   31.7050   47.8010 C   0  0  0  0  0  0  0  0  0  0  0  0
   59.5700   32.4450   48.5420 C   0  0  0  0  0  0  0  0  0  0  0  0
   59.2850   33.7690   48.2690 C   0  0  0  0  0  0  0  0  0  0  0  0
   59.9510   34.3540   47.1980 C   0  0  0  0  0  0  0  0  0  0  0  0
   59.6540   35.7010   46.9290 O   0  0  0  0  0  0  0  0  0  0  0  0
   60.8620   33.6480   46.4320 C   0  0  0  0  0  0  0  0  0  0  0  0
   61.1070   32.3290   46.7510 C   0  0  0  0  0  0  0  0  0  0  0  0
   60.4910   28.8370   46.2490 C   0  0  0  0  0  0  0  0  0  0  0  0
   59.6630   27.5740   45.9630 C   0  0  0  0  0  0  0  0  0  0  0  0
   55.7530   25.2600   45.6430 C   0  0  0  0  0  0  0  0  0  0  0  0
   54.6850   26.0600   45.9980 O   0  0  0  0  0  0  0  0  0  0  0  0
   55.4990   23.8970   45.5630 C   0  0  0  0  0  0  0  0  0  0  0  0
   56.4990   23.0190   45.2170 C   0  0  0  0  0  0  0  0  0  0  0  0
   56.1660   21.6790   45.1590 O   0  0  0  0  0  0  0  0  0  0  0  0
   60.7486   21.7519   44.8073 H   0  0  0  0  0  0  0  0  0  0  0  0
   60.1934   22.9987   46.1367 H   0  0  0  0  0  0  0  0  0  0  0  0
   58.7344   22.0339   43.6516 H   0  0  0  0  0  0  0  0  0  0  0  0
   58.9943   25.2328   44.8201 H   0  0  0  0  0  0  0  0  0  0  0  0
   58.6265   29.9467   44.9714 H   0  0  0  0  0  0  0  0  0  0  0  0
   57.0008   29.6753   45.6248 H   0  0  0  0  0  0  0  0  0  0  0  0
   58.5463   31.0229   47.1491 H   0  0  0  0  0  0  0  0  0  0  0  0
   57.8769   29.5248   47.9055 H   0  0  0  0  0  0  0  0  0  0  0  0
   60.4666   30.1495   49.2469 H   0  0  0  0  0  0  0  0  0  0  0  0
   61.7651   30.0315   48.0145 H   0  0  0  0  0  0  0  0  0  0  0  0
   59.0567   31.9588   49.3847 H   0  0  0  0  0  0  0  0  0  0  0  0
   58.5618   34.3362   48.8734 H   0  0  0  0  0  0  0  0  0  0  0  0
   59.0390   36.1460   47.6190 H   0  0  0  0  0  0  0  0  0  0  0  0
   61.3789   34.1280   45.5879 H   0  0  0  0  0  0  0  0  0  0  0  0
   61.8300   31.7592   46.1488 H   0  0  0  0  0  0  0  0  0  0  0  0
   60.4590   29.5193   45.3868 H   0  0  0  0  0  0  0  0  0  0  0  0
   61.5483   28.5949   46.4318 H   0  0  0  0  0  0  0  0  0  0  0  0
   60.0527   27.0624   45.0706 H   0  0  0  0  0  0  0  0  0  0  0  0
   59.7173   26.8729   46.8088 H   0  0  0  0  0  0  0  0  0  0  0  0
   54.7190   27.0860   45.9530 H   0  0  0  0  0  0  0  0  0  0  0  0
   54.4895   23.5167   45.7782 H   0  0  0  0  0  0  0  0  0  0  0  0
   56.8960   20.9860   45.1020 H   0  0  0  0  0  0  0  0  0  0  0  0
  1  2  2  0
  2  3  1  0
  3  4  2  0
  4  5  1  0
  5  6  1  0
  6  7  2  0
  6  8  1  0
  8  9  1  0
  9 10  1  0
 10 11  1  0
 11 12  1  0
 12 13  1  0
 13 14  2  0
 14 15  1  0
 15 16  2  0
 16 17  1  0
 16 18  1  0
 18 19  2  0
 11 20  1  0
 20 21  1  0
  5 22  2  0
 22 23  1  0
 22 24  1  0
 24 25  2  0
 25 26  1  0
 25  3  1  0
 21  8  1  0
 19 13  1  0
  1 27  1  0
  1 28  1  0
  2 29  1  0
  4 30  1  0
  9 31  1  0
  9 32  1  0
 10 33  1  0
 10 34  1  0
 12 35  1  0
 12 36  1  0
 14 37  1  0
 15 38  1  0
 17 39  1  0
 18 40  1  0
 19 41  1  0
 20 42  1  0
 20 43  1  0
 21 44  1  0
 21 45  1  0
 23 46  1  0
 24 47  1  0
 26 48  1  0
M  END
>  <smiles>  (5) 
C=Cc1cc(C(=O)N2CCN(Cc3ccc(O)cc3)CC2)c(O)cc1O

>  <score_type>  (5) 
oracle

>  <origin>  (5) 
adg

>  <m_score__min__energy>  (5) 
-8.7400000000000002

>  <m_primary>  (5) 
energy

$$$$
5:0
     RDKit          3D

 46 49  0  0  0  0  0  0  0  0999 V2000
   57.0470   27.4630   45.6340 C   0  0  0  0  0  0  0  0  0  0  0  0
   56.7630   28.7420   44.9980 N   0  0  0  0  0  0  0  0  0  0  0  0
   57.6470   29.6600   44.5500 C   0  0  0  0  0  0  0  0  0  0  0  0
   56.9600   30.7140   44.0230 C   0  0  0  0  0  0  0  0  0  0  0  0
   57.4330   31.9750   43.4020 C   0  0  0  0  0  0  0  0  0  0  0  0
   57.5920   33.0550   44.3520 N   0  0  0  0  0  0  0  0  0  0  0  0
   58.8940   33.6430   44.1200 C   0  0  0  0  0  0  0  0  0  0  0  0
   59.0750   34.9060   44.9730 C   0  0  0  0  0  0  0  0  0  0  0  0
   59.0680   34.3770   46.3840 C   0  0  0  0  0  0  0  0  0  0  0  0
   59.8460   34.9470   47.3740 C   0  0  0  0  0  0  0  0  0  0  0  0
   59.7880   34.4140   48.6290 N   0  0  0  0  0  0  0  0  0  0  0  0
   59.0000   33.3610   48.9180 C   0  0  0  0  0  0  0  0  0  0  0  0
   58.9230   32.7880   50.2220 N   0  0  0  0  0  0  0  0  0  0  0  0
   58.4660   31.4410   50.4370 C   0  0  0  0  0  0  0  0  0  0  0  0
   57.7080   31.2160   51.6970 C   0  0  0  0  0  0  0  0  0  0  0  0
   58.0670   32.1000   52.7700 N   0  0  0  0  0  0  0  0  0  0  0  0
   58.1750   33.4720   52.3720 C   0  0  0  0  0  0  0  0  0  0  0  0
   59.3110   33.5670   51.3760 C   0  0  0  0  0  0  0  0  0  0  0  0
   58.2500   32.8200   47.9440 N   0  0  0  0  0  0  0  0  0  0  0  0
   58.2640   33.2980   46.6950 C   0  0  0  0  0  0  0  0  0  0  0  0
   57.3940   32.6210   45.6950 C   0  0  0  0  0  0  0  0  0  0  0  0
   55.6230   30.4070   44.1640 C   0  0  0  0  0  0  0  0  0  0  0  0
   55.5430   29.1980   44.7630 N   0  0  0  0  0  0  0  0  0  0  0  0
   57.0203   27.5831   46.7271 H   0  0  0  0  0  0  0  0  0  0  0  0
   56.2908   26.7252   45.3276 H   0  0  0  0  0  0  0  0  0  0  0  0
   58.0444   27.1146   45.3276 H   0  0  0  0  0  0  0  0  0  0  0  0
   58.7422   29.5719   44.6017 H   0  0  0  0  0  0  0  0  0  0  0  0
   58.4048   31.7854   42.9227 H   0  0  0  0  0  0  0  0  0  0  0  0
   56.6679   32.2885   42.6765 H   0  0  0  0  0  0  0  0  0  0  0  0
   59.6730   32.9129   44.3849 H   0  0  0  0  0  0  0  0  0  0  0  0
   58.9756   33.9172   43.0579 H   0  0  0  0  0  0  0  0  0  0  0  0
   60.0292   35.4029   44.7434 H   0  0  0  0  0  0  0  0  0  0  0  0
   58.2959   35.6615   44.7932 H   0  0  0  0  0  0  0  0  0  0  0  0
   60.4951   35.8079   47.1560 H   0  0  0  0  0  0  0  0  0  0  0  0
   57.8136   31.1659   49.5952 H   0  0  0  0  0  0  0  0  0  0  0  0
   59.3727   30.8231   50.5152 H   0  0  0  0  0  0  0  0  0  0  0  0
   56.6374   31.3509   51.4834 H   0  0  0  0  0  0  0  0  0  0  0  0
   57.9526   30.1977   52.0334 H   0  0  0  0  0  0  0  0  0  0  0  0
   57.2940   32.0350   53.4840 H   0  0  0  0  0  0  0  0  0  0  0  0
   57.2361   33.8026   51.9039 H   0  0  0  0  0  0  0  0  0  0  0  0
   58.3681   34.1149   53.2435 H   0  0  0  0  0  0  0  0  0  0  0  0
   59.4742   34.6158   51.0871 H   0  0  0  0  0  0  0  0  0  0  0  0
   60.2482   33.1884   51.8100 H   0  0  0  0  0  0  0  0  0  0  0  0
   57.5944   31.5404   45.7403 H   0  0  0  0  0  0  0  0  0  0  0  0
   56.3568   32.8764   45.9575 H   0  0  0  0  0  0  0  0  0  0  0  0
   54.7756   31.0324   43.8466 H   0  0  0  0  0  0  0  0  0  0  0  0
  1  2  1  0
  2  3  1  0
  3  4  2  0
  4  5  1  0
  5  6  1  0
  6  7  1  0
  7  8  1  0
  8  9  1  0
  9 10  2  0
 10 11  1  0
 11 12  2  0
 12 13  1  0
 13 14  1  0
 14 15  1  0
 15 16  1  0
 16 17  1  0
 17 18  1  0
 12 19  1  0
 19 20  2  0
 20 21  1  0
  4 22  1  0
 22 23  2  0
 23  2  1  0
 21  6  1  0
 20  9  1  0
 18 13  1  0
  1 24  1  0
  1 25  1  0
  1 26  1  0
  3 27  1  0
  5 28  1  0
  5 29  1  0
  7 30  1  0
  7 31  1  0
  8 32  1  0
  8 33  1  0
 10 34  1  0
 14 35  1  0
 14 36  1  0
 15 37  1  0
 15 38  1  0
 16 39  1  0
 17 40  1  0
 17 41  1  0
 18 42  1  0
 18 43  1  0
 21 44  1  0
 21 45  1  0
 22 46  1  0
M  END
>  <smiles>  (6) 
Cn1cc(CN2CCc3cnc(N4CCNCC4)nc3C2)cn1

>  <score_type>  (6) 
oracle

>  <origin>  (6) 
adg

>  <m_score__min__energy>  (6) 
-7.54

>  <m_primary>  (6) 
energy

$$$$
6:0
     RDKit          3D

 58 61  0  0  1  0  0  0  0  0999 V2000
   59.4450   27.9090   47.9360 C   0  0  0  0  0  0  0  0  0  0  0  0
   58.7690   28.1550   46.8150 C   0  0  0  0  0  0  0  0  0  0  0  0
   57.8520   27.3060   46.2170 C   0  0  0  0  0  0  0  0  0  0  0  0
   57.4830   26.1100   46.6420 C   0  0  0  0  0  0  0  0  0  0  0  0
   56.9630   25.0880   45.7430 C   0  0  0  0  0  0  0  0  0  0  0  0
   55.6450   25.0500   45.3400 C   0  0  0  0  0  0  0  0  0  0  0  0
   54.7570   26.0110   45.7920 O   0  0  0  0  0  0  0  0  0  0  0  0
   55.2960   24.0500   44.5050 N   0  0  0  0  0  0  0  0  0  0  0  0
   56.1840   23.1280   44.0810 C   0  0  0  0  0  0  0  0  0  0  0  0
   55.8500   22.1880   43.2960 O   0  0  0  0  0  0  0  0  0  0  0  0
   57.4780   23.1400   44.4590 N   0  0  0  0  0  0  0  0  0  0  0  0
   57.8590   24.1260   45.2910 C   0  0  0  0  0  0  0  0  0  0  0  0
   59.0800   24.1460   45.6540 O   0  0  0  0  0  0  0  0  0  0  0  0
   57.3970   27.9460   45.0930 C   0  0  0  0  0  0  0  0  0  0  0  0
   58.0490   29.1680   45.0360 C   0  0  0  0  0  0  0  0  0  0  0  0
   57.8560   30.1960   43.9680 C   0  0  0  0  0  0  0  0  0  0  0  0
   58.8830   29.2870   46.0900 N   0  0  0  0  0  0  0  0  0  0  0  0
   59.7470   30.3730   46.4310 C   0  0  0  0  0  0  0  0  0  0  0  0
   59.3310   31.6870   46.3800 C   0  0  0  0  0  0  0  0  0  0  0  0
   60.2440   32.6780   46.7310 C   0  0  0  0  0  0  0  0  0  0  0  0
   61.5400   32.3650   47.1210 C   0  0  0  0  0  0  0  0  0  0  0  0
   62.6900   33.5890   47.5600 S   0  0  0  0  0  0  0  0  0  0  0  0
   63.9540   32.8710   47.9960 O   0  0  0  0  0  0  0  0  0  0  0  0
   63.0670   34.4890   46.4450 O   0  0  0  0  0  0  0  0  0  0  0  0
   62.0900   34.4450   48.9280 N   0  0  0  0  0  0  0  0  0  0  0  0
   60.7150   34.1940   49.1910 C   0  0  0  0  0  0  0  0  0  0  0  0
   60.4710   32.9220   49.9710 C   0  0  0  0  0  0  0  0  0  0  0  0
   61.3730   32.7290   51.0640 N   0  0  0  0  0  0  0  0  0  0  0  0
   60.9230   33.2740   52.3070 C   0  0  0  0  0  0  0  0  0  0  0  0
   62.7500   32.9480   50.7540 C   0  0  0  0  0  0  0  0  0  0  0  0
   62.9450   34.2880   50.0820 C   0  0  0  0  0  0  0  0  0  0  0  0
   61.9300   31.0420   47.1620 C   0  0  0  0  0  0  0  0  0  0  0  0
   61.0410   30.0180   46.8170 C   0  0  0  0  0  0  0  0  0  0  0  0
   60.1527   28.6551   48.3265 H   0  0  0  0  0  0  0  0  0  0  0  0
   59.2956   26.9597   48.4713 H   0  0  0  0  0  0  0  0  0  0  0  0
   57.5717   25.8778   47.7135 H   0  0  0  0  0  0  0  0  0  0  0  0
   54.7750   26.3150   46.7490 H   0  0  0  0  0  0  0  0  0  0  0  0
   54.3050   24.0150   44.1970 H   0  0  0  0  0  0  0  0  0  0  0  0
   58.1520   22.4070   44.1130 H   0  0  0  0  0  0  0  0  0  0  0  0
   56.6570   27.5634   44.3747 H   0  0  0  0  0  0  0  0  0  0  0  0
   57.6719   31.1764   44.4317 H   0  0  0  0  0  0  0  0  0  0  0  0
   58.7597   30.2498   43.3432 H   0  0  0  0  0  0  0  0  0  0  0  0
   56.9943   29.9183   43.3432 H   0  0  0  0  0  0  0  0  0  0  0  0
   58.3073   31.9447   46.0709 H   0  0  0  0  0  0  0  0  0  0  0  0
   59.9320   33.7323   46.6987 H   0  0  0  0  0  0  0  0  0  0  0  0
   60.3113   35.0389   49.7682 H   0  0  0  0  0  0  0  0  0  0  0  0
   60.2163   34.0765   48.2176 H   0  0  0  0  0  0  0  0  0  0  0  0
   59.4460   32.9514   50.3692 H   0  0  0  0  0  0  0  0  0  0  0  0
   60.6304   32.0855   49.2746 H   0  0  0  0  0  0  0  0  0  0  0  0
   61.3816   32.7186   53.1384 H   0  0  0  0  0  0  0  0  0  0  0  0
   61.2132   34.3332   52.3694 H   0  0  0  0  0  0  0  0  0  0  0  0
   59.8280   33.1895   52.3694 H   0  0  0  0  0  0  0  0  0  0  0  0
   63.3370   32.9226   51.6839 H   0  0  0  0  0  0  0  0  0  0  0  0
   63.0855   32.1577   50.0663 H   0  0  0  0  0  0  0  0  0  0  0  0
   62.7153   35.0845   50.8050 H   0  0  0  0  0  0  0  0  0  0  0  0
   63.9892   34.3483   49.7415 H   0  0  0  0  0  0  0  0  0  0  0  0
   62.9550   30.7886   47.4705 H   0  0  0  0  0  0  0  0  0  0  0  0
   61.3527   28.9636   46.8490 H   0  0  0  0  0  0  0  0  0  0  0  0
  1  2  2  0
  2  3  1  0
  3  4  2  0
  4  5  1  0
  5  6  2  0
  6  7  1  0
  6  8  1  0
  8  9  1  0
  9 10  2  0
  9 11  1  0
 11 12  1  0
 12 13  2  0
  3 14  1  0
 14 15  2  0
 15 16  1  0
 15 17  1  0
 17 18  1  0
 18 19  2  0
 19 20  1  0
 20 21  2  0
 21 22  1  0
 22 23  2  0
 22 24  2  0
 22 25  1  0
 25 26  1  0
 26 27  1  0
 27 28  1  0
 28 29  1  0
 28 30  1  0
 30 31  1  0
 21 32  1  0
 32 33  2  0
 17  2  1  0
 33 18  1  0
 12  5  1  0
 31 25  1  0
  1 34  1  0
  1 35  1  0
  4 36  1  0
  7 37  1  0
  8 38  1  0
 11 39  1  0
 14 40  1  0
 16 41  1  0
 16 42  1  0
 16 43  1  0
 19 44  1  0
 20 45  1  0
 26 46  1  0
 26 47  1  0
 27 48  1  0
 27 49  1  0
 29 50  1  0
 29 51  1  0
 29 52  1  0
 30 53  1  0
 30 54  1  0
 31 55  1  0
 31 56  1  0
 32 57  1  0
 33 58  1  0
M  END
>  <smiles>  (7) 
C=c1c(=Cc2c(O)[nH]c(=O)[nH]c2=O)cc(C)n1-c1ccc(S(=O)(=O)N2CCN(C)CC2)cc1

>  <score_type>  (7) 
oracle

>  <origin>  (7) 
adg

>  <m_score__min__energy>  (7) 
-9.8800000000000008

>  <m_primary>  (7) 
energy

$$$$
7:0
     RDKit          3D

 41 43  0  0  0  0  0  0  0  0999 V2000
   58.8300   30.4130   47.3630 O   0  0  0  0  0  0  0  0  0  0  0  0
   58.6790   30.2740   46.1370 C   0  0  0  0  0  0  0  0  0  0  0  0
   58.3370   29.0640   45.5260 N   0  0  0  0  0  0  0  0  0  0  0  0
   58.1090   27.8260   46.1670 C   0  0  0  0  0  0  0  0  0  0  0  0
   58.9230   27.2650   47.1200 C   0  0  0  0  0  0  0  0  0  0  0  0
   58.6440   26.0360   47.7190 C   0  0  0  0  0  0  0  0  0  0  0  0
   57.5220   25.3340   47.3660 C   0  0  0  0  0  0  0  0  0  0  0  0
   56.7030   25.8980   46.4080 C   0  0  0  0  0  0  0  0  0  0  0  0
   55.5660   25.2240   46.0260 O   0  0  0  0  0  0  0  0  0  0  0  0
   55.5280   23.9030   45.6040 C   0  0  0  0  0  0  0  0  0  0  0  0
   55.9100   23.6570   44.2910 C   0  0  0  0  0  0  0  0  0  0  0  0
   55.8980   22.3660   43.7960 C   0  0  0  0  0  0  0  0  0  0  0  0
   56.2500   22.1630   42.5980 O   0  0  0  0  0  0  0  0  0  0  0  0
   55.5140   21.3630   44.6030 N   0  0  0  0  0  0  0  0  0  0  0  0
   55.1560   21.6500   45.8610 C   0  0  0  0  0  0  0  0  0  0  0  0
   55.1510   22.8810   46.3850 N   0  0  0  0  0  0  0  0  0  0  0  0
   56.9820   27.1090   45.8200 C   0  0  0  0  0  0  0  0  0  0  0  0
   58.8800   31.4600   45.3380 N   0  0  0  0  0  0  0  0  0  0  0  0
   59.2290   32.6930   45.9560 C   0  0  0  0  0  0  0  0  0  0  0  0
   60.2960   32.6480   46.8500 C   0  0  0  0  0  0  0  0  0  0  0  0
   60.7440   33.7610   47.5220 C   0  0  0  0  0  0  0  0  0  0  0  0
   62.0940   33.6140   48.6290 Cl  0  0  0  0  0  0  0  0  0  0  0  0
   60.1000   34.9560   47.2890 C   0  0  0  0  0  0  0  0  0  0  0  0
   59.0380   35.0110   46.4030 C   0  0  0  0  0  0  0  0  0  0  0  0
   58.5970   33.8730   45.7300 C   0  0  0  0  0  0  0  0  0  0  0  0
   57.4960   33.9280   44.8110 C   0  0  0  0  0  0  0  0  0  0  0  0
   57.3930   33.0650   43.9110 O   0  0  0  0  0  0  0  0  0  0  0  0
   56.5170   34.9080   44.8660 O   0  0  0  0  0  0  0  0  0  0  0  0
   58.2410   29.0910   44.4640 H   0  0  0  0  0  0  0  0  0  0  0  0
   59.8314   27.8061   47.4234 H   0  0  0  0  0  0  0  0  0  0  0  0
   59.3282   25.6290   48.4781 H   0  0  0  0  0  0  0  0  0  0  0  0
   57.2838   24.3634   47.8256 H   0  0  0  0  0  0  0  0  0  0  0  0
   56.2224   24.4903   43.6445 H   0  0  0  0  0  0  0  0  0  0  0  0
   54.8447   20.8166   46.5079 H   0  0  0  0  0  0  0  0  0  0  0  0
   54.8650   23.0850   47.3730 H   0  0  0  0  0  0  0  0  0  0  0  0
   56.2960   27.5129   45.0609 H   0  0  0  0  0  0  0  0  0  0  0  0
   58.7680   31.4150   44.2870 H   0  0  0  0  0  0  0  0  0  0  0  0
   60.7994   31.6858   47.0252 H   0  0  0  0  0  0  0  0  0  0  0  0
   60.4302   35.8680   47.8078 H   0  0  0  0  0  0  0  0  0  0  0  0
   58.5322   35.9717   46.2266 H   0  0  0  0  0  0  0  0  0  0  0  0
   55.8960   34.9970   45.6430 H   0  0  0  0  0  0  0  0  0  0  0  0
  1  2  2  0
  2  3  1  0
  3  4  1  0
  4  5  2  0
  5  6  1  0
  6  7  2  0
  7  8  1  0
  8  9  1  0
  9 10  1  0
 10 11  2  0
 11 12  1  0
 12 13  2  0
 12 14  1  0
 14 15  2  0
 15 16  1  0
  8 17  2  0
  2 18  1  0
 18 19  1  0
 19 20  2  0
 20 21  1  0
 21 22  1  0
 21 23  2  0
 23 24  1  0
 24 25  2  0
 25 26  1  0
 26 27  2  0
 26 28  1  0
 17  4  1  0
 25 19  1  0
 16 10  1  0
  3 29  1  0
  5 30  1  0
  6 31  1  0
  7 32  1  0
 11 33  1  0
 15 34  1  0
 16 35  1  0
 17 36  1  0
 18 37  1  0
 20 38  1  0
 23 39  1  0
 24 40  1  0
 28 41  1  0
M  END
>  <smiles>  (8) 
O=C(Nc1cccc(Oc2cc(=O)nc[nH]2)c1)Nc1cc(Cl)ccc1C(=O)O

>  <score_type>  (8) 
oracle

>  <origin>  (8) 
adg

>  <m_score__min__energy>  (8) 
-8.4499999999999993

>  <m_primary>  (8) 
energy

$$$$
8:0
     RDKit          3D

 52 56  0  0  0  0  0  0  0  0999 V2000
   56.5780   32.3070   44.9470 O   0  0  0  0  0  0  0  0  0  0  0  0
   57.8070   32.5740   45.0830 C   0  0  0  0  0  0  0  0  0  0  0  0
   58.3050   33.9740   45.1840 C   0  0  0  0  0  0  0  0  0  0  0  0
   58.1640   34.5440   46.5650 C   0  0  0  0  0  0  0  0  0  0  0  0
   59.4300   34.2160   47.3070 C   0  0  0  0  0  0  0  0  0  0  0  0
   59.3970   34.1500   48.6440 N   0  0  0  0  0  0  0  0  0  0  0  0
   60.4860   33.8630   49.3850 C   0  0  0  0  0  0  0  0  0  0  0  0
   60.3420   33.8270   50.6420 O   0  0  0  0  0  0  0  0  0  0  0  0
   61.6800   33.6250   48.7530 C   0  0  0  0  0  0  0  0  0  0  0  0
   62.7710   33.3350   49.5350 C   0  0  0  0  0  0  0  0  0  0  0  0
   63.9740   33.0950   48.9320 C   0  0  0  0  0  0  0  0  0  0  0  0
   64.0400   33.1550   47.5530 C   0  0  0  0  0  0  0  0  0  0  0  0
   62.9270   33.4500   46.7680 C   0  0  0  0  0  0  0  0  0  0  0  0
   61.7050   33.6950   47.3820 C   0  0  0  0  0  0  0  0  0  0  0  0
   60.5910   33.9880   46.6550 N   0  0  0  0  0  0  0  0  0  0  0  0
   58.7630   31.5380   45.1440 N   0  0  0  0  0  0  0  0  0  0  0  0
   58.4290   30.1560   45.0600 C   0  0  0  0  0  0  0  0  0  0  0  0
   57.7670   29.7020   43.9340 C   0  0  0  0  0  0  0  0  0  0  0  0
   57.4430   28.3460   43.8570 C   0  0  0  0  0  0  0  0  0  0  0  0
   57.7640   27.4690   44.8650 C   0  0  0  0  0  0  0  0  0  0  0  0
   57.4210   26.0940   44.7580 N   0  0  0  0  0  0  0  0  0  0  0  0
   57.4200   25.2360   43.6320 C   0  0  0  0  0  0  0  0  0  0  0  0
   57.7700   25.6750   42.4780 O   0  0  0  0  0  0  0  0  0  0  0  0
   57.0120   23.9050   43.9000 C   0  0  0  0  0  0  0  0  0  0  0  0
   56.8990   22.8150   43.0220 C   0  0  0  0  0  0  0  0  0  0  0  0
   56.4790   21.5950   43.4920 C   0  0  0  0  0  0  0  0  0  0  0  0
   56.1500   21.3600   44.8090 C   0  0  0  0  0  0  0  0  0  0  0  0
   56.2590   22.4270   45.6770 C   0  0  0  0  0  0  0  0  0  0  0  0
   56.6800   23.6500   45.2050 C   0  0  0  0  0  0  0  0  0  0  0  0
   56.8910   25.1420   46.1200 S   0  0  0  0  0  0  0  0  0  0  0  0
   55.5950   25.6400   46.6730 O   0  0  0  0  0  0  0  0  0  0  0  0
   57.9570   24.9690   47.1340 O   0  0  0  0  0  0  0  0  0  0  0  0
   58.4340   27.9390   45.9990 C   0  0  0  0  0  0  0  0  0  0  0  0
   58.7640   29.2790   46.0940 C   0  0  0  0  0  0  0  0  0  0  0  0
   59.3688   33.9895   44.9045 H   0  0  0  0  0  0  0  0  0  0  0  0
   57.6959   34.5914   44.5075 H   0  0  0  0  0  0  0  0  0  0  0  0
   58.0290   35.6344   46.5117 H   0  0  0  0  0  0  0  0  0  0  0  0
   57.2876   34.1202   47.0772 H   0  0  0  0  0  0  0  0  0  0  0  0
   62.6782   33.2964   50.6304 H   0  0  0  0  0  0  0  0  0  0  0  0
   64.8672   32.8600   49.5295 H   0  0  0  0  0  0  0  0  0  0  0  0
   65.0036   32.9634   47.0582 H   0  0  0  0  0  0  0  0  0  0  0  0
   63.0152   33.4885   45.6722 H   0  0  0  0  0  0  0  0  0  0  0  0
   60.6380   34.0330   45.6210 H   0  0  0  0  0  0  0  0  0  0  0  0
   59.7820   31.7570   45.2550 H   0  0  0  0  0  0  0  0  0  0  0  0
   57.5022   30.3920   43.1192 H   0  0  0  0  0  0  0  0  0  0  0  0
   56.9174   27.9702   42.9668 H   0  0  0  0  0  0  0  0  0  0  0  0
   57.1470   22.9384   41.9574 H   0  0  0  0  0  0  0  0  0  0  0  0
   56.4011   20.7610   42.7790 H   0  0  0  0  0  0  0  0  0  0  0  0
   55.8165   20.3695   45.1520 H   0  0  0  0  0  0  0  0  0  0  0  0
   56.0107   22.3011   46.7412 H   0  0  0  0  0  0  0  0  0  0  0  0
   58.6974   27.2462   46.8118 H   0  0  0  0  0  0  0  0  0  0  0  0
   59.2904   29.6539   46.9841 H   0  0  0  0  0  0  0  0  0  0  0  0
  1  2  2  0
  2  3  1  0
  3  4  1  0
  4  5  1  0
  5  6  2  0
  6  7  1  0
  7  8  2  0
  7  9  1  0
  9 10  2  0
 10 11  1  0
 11 12  2  0
 12 13  1  0
 13 14  2  0
 14 15  1  0
  2 16  1  0
 16 17  1  0
 17 18  2  0
 18 19  1  0
 19 20  2  0
 20 21  1  0
 21 22  1  0
 22 23  2  0
 22 24  1  0
 24 25  2  0
 25 26  1  0
 26 27  2  0
 27 28  1  0
 28 29  2  0
 29 30  1  0
 30 31  2  0
 30 32  2  0
 20 33  1  0
 33 34  2  0
 15  5  1  0
 34 17  1  0
 14  9  1  0
 30 21  1  0
 29 24  1  0
  3 35  1  0
  3 36  1  0
  4 37  1  0
  4 38  1  0
 10 39  1  0
 11 40  1  0
 12 41  1  0
 13 42  1  0
 15 43  1  0
 16 44  1  0
 18 45  1  0
 19 46  1  0
 25 47  1  0
 26 48  1  0
 27 49  1  0
 28 50  1  0
 33 51  1  0
 34 52  1  0
M  END
>  <smiles>  (9) 
O=C(CCc1nc(=O)c2ccccc2[nH]1)Nc1ccc(N2C(=O)c3ccccc3S2(=O)=O)cc1

>  <score_type>  (9) 
oracle

>  <origin>  (9) 
adg

>  <m_score__min__energy>  (9) 
-10.51

>  <m_primary>  (9) 
energy

$$$$
9:0
     RDKit          3D

 54 57  0  0  1  0  0  0  0  0999 V2000
   56.1170   21.7620   42.8000 O   0  0  0  0  0  0  0  0  0  0  0  0
   56.5350   22.4850   43.7420 C   0  0  0  0  0  0  0  0  0  0  0  0
   55.8720   23.8070   43.9100 C   0  0  0  0  0  0  0  0  0  0  0  0
   56.7900   24.8660   44.1950 N   0  0  0  0  0  0  0  0  0  0  0  0
   56.5110   25.7130   45.3080 C   0  0  0  0  0  0  0  0  0  0  0  0
   55.4790   25.5040   45.9950 O   0  0  0  0  0  0  0  0  0  0  0  0
   57.3760   26.8200   45.6880 C   0  0  0  0  0  0  0  0  0  0  0  0
   57.6850   27.7460   44.7170 C   0  0  0  0  0  0  0  0  0  0  0  0
   58.5070   28.8460   44.9740 C   0  0  0  0  0  0  0  0  0  0  0  0
   59.0160   28.9970   46.2330 C   0  0  0  0  0  0  0  0  0  0  0  0
   59.8890   30.0990   46.6350 C   0  0  0  0  0  0  0  0  0  0  0  0
   61.0790   30.0290   46.2680 O   0  0  0  0  0  0  0  0  0  0  0  0
   59.3010   31.1350   47.3970 N   0  0  0  0  0  0  0  0  0  0  0  0
   59.1020   30.9150   48.8130 C   0  0  0  0  0  0  0  0  0  0  0  0
   59.2690   32.0840   49.6680 C   0  0  0  0  0  0  0  0  0  0  0  0
   59.4280   31.7760   50.9020 O   0  0  0  0  0  0  0  0  0  0  0  0
   59.3020   33.4870   49.4660 N   0  0  0  0  0  0  0  0  0  0  0  0
   59.7200   34.2170   48.2980 C   0  0  0  0  0  0  0  0  0  0  0  0
   59.1640   33.6570   47.0380 C   0  0  0  0  0  0  0  0  0  0  0  0
   58.7710   34.6290   46.1230 C   0  0  0  0  0  0  0  0  0  0  0  0
   58.2240   34.2740   44.8990 C   0  0  0  0  0  0  0  0  0  0  0  0
   58.0420   32.9550   44.5250 C   0  0  0  0  0  0  0  0  0  0  0  0
   58.4300   31.9890   45.4280 C   0  0  0  0  0  0  0  0  0  0  0  0
   58.9840   32.3270   46.6690 C   0  0  0  0  0  0  0  0  0  0  0  0
   58.7130   28.0710   47.2240 C   0  0  0  0  0  0  0  0  0  0  0  0
   57.8920   26.9770   46.9570 C   0  0  0  0  0  0  0  0  0  0  0  0
   57.5670   22.1070   44.6110 N   0  0  0  0  0  0  0  0  0  0  0  0
   57.3520   21.6460   45.7820 C   0  0  0  0  0  0  0  0  0  0  0  0
   56.6340   22.3780   46.7000 C   0  0  0  0  0  0  0  0  0  0  0  0
   56.3650   21.9430   47.9770 C   0  0  0  0  0  0  0  0  0  0  0  0
   56.8470   20.7070   48.3370 C   0  0  0  0  0  0  0  0  0  0  0  0
   57.5560   20.0030   47.4000 C   0  0  0  0  0  0  0  0  0  0  0  0
   57.8130   20.4400   46.1560 N   0  0  0  0  0  0  0  0  0  0  0  0
   55.3359   24.0498   42.9807 H   0  0  0  0  0  0  0  0  0  0  0  0
   55.1915   23.7242   44.7703 H   0  0  0  0  0  0  0  0  0  0  0  0
   57.6400   25.0180   43.6090 H   0  0  0  0  0  0  0  0  0  0  0  0
   57.2712   27.6154   43.7062 H   0  0  0  0  0  0  0  0  0  0  0  0
   58.7389   29.5731   44.1818 H   0  0  0  0  0  0  0  0  0  0  0  0
   58.0788   30.5369   48.9549 H   0  0  0  0  0  0  0  0  0  0  0  0
   59.8876   30.2081   49.1180 H   0  0  0  0  0  0  0  0  0  0  0  0
   58.9830   34.1180   50.2570 H   0  0  0  0  0  0  0  0  0  0  0  0
   59.3847   35.2600   48.3969 H   0  0  0  0  0  0  0  0  0  0  0  0
   60.8159   34.1443   48.2371 H   0  0  0  0  0  0  0  0  0  0  0  0
   58.8958   35.6927   46.3738 H   0  0  0  0  0  0  0  0  0  0  0  0
   57.9243   35.0696   44.2010 H   0  0  0  0  0  0  0  0  0  0  0  0
   57.6070   32.6889   43.5503 H   0  0  0  0  0  0  0  0  0  0  0  0
   58.3016   30.9279   45.1680 H   0  0  0  0  0  0  0  0  0  0  0  0
   59.1274   28.2035   48.2343 H   0  0  0  0  0  0  0  0  0  0  0  0
   57.6588   26.2487   47.7477 H   0  0  0  0  0  0  0  0  0  0  0  0
   56.2545   23.3647   46.3960 H   0  0  0  0  0  0  0  0  0  0  0  0
   55.7875   22.5594   48.6817 H   0  0  0  0  0  0  0  0  0  0  0  0
   56.6695   20.2976   49.3424 H   0  0  0  0  0  0  0  0  0  0  0  0
   57.9409   19.0129   47.6855 H   0  0  0  0  0  0  0  0  0  0  0  0
   58.3620   19.8800   45.4520 H   0  0  0  0  0  0  0  0  0  0  0  0
  1  2  2  0
  2  3  1  0
  3  4  1  0
  4  5  1  0
  5  6  2  0
  5  7  1  0
  7  8  2  0
  8  9  1  0
  9 10  2  0
 10 11  1  0
 11 12  2  0
 11 13  1  0
 13 14  1  0
 14 15  1  0
 15 16  2  0
 15 17  1  0
 17 18  1  0
 18 19  1  0
 19 20  2  0
 20 21  1  0
 21 22  2  0
 22 23  1  0
 23 24  2  0
 10 25  1  0
 25 26  2  0
  2 27  1  0
 27 28  2  0
 28 29  1  0
 29 30  2  0
 30 31  1  0
 31 32  2  0
 32 33  1  0
 26  7  1  0
 33 28  1  0
 24 13  1  0
 24 19  1  0
  3 34  1  0
  3 35  1  0
  4 36  1  0
  8 37  1  0
  9 38  1  0
 14 39  1  0
 14 40  1  0
 17 41  1  0
 18 42  1  0
 18 43  1  0
 20 44  1  0
 21 45  1  0
 22 46  1  0
 23 47  1  0
 25 48  1  0
 26 49  1  0
 29 50  1  0
 30 51  1  0
 31 52  1  0
 32 53  1  0
 33 54  1  0
M  END
>  <smiles>  (10) 
O=C(CNC(=O)c1ccc(C(=O)N2CC(=O)NCc3ccccc32)cc1)N=c1cccc[nH]1

>  <score_type>  (10) 
oracle

>  <origin>  (10) 
adg

>  <m_score__min__energy>  (10) 
-7.0999999999999996

>  <m_primary>  (10) 
energy

$$$$
10:0
     RDKit          3D

 62 65  0  0  1  0  0  0  0  0999 V2000
   56.6980   19.5700   46.4060 C   0  0  0  0  0  0  0  0  0  0  0  0
   57.4340   20.3770   45.4390 N   0  0  0  0  0  0  0  0  0  0  0  0
   57.8000   21.6680   45.8280 C   0  0  0  0  0  0  0  0  0  0  0  0
   57.3910   21.9570   47.0170 O   0  0  0  0  0  0  0  0  0  0  0  0
   58.5290   22.7030   45.1880 C   0  0  0  0  0  0  0  0  0  0  0  0
   59.3730   23.5770   45.6060 C   0  0  0  0  0  0  0  0  0  0  0  0
   59.1680   24.9570   45.9400 C   0  0  0  0  0  0  0  0  0  0  0  0
   60.2520   25.6440   46.4380 C   0  0  0  0  0  0  0  0  0  0  0  0
   60.1280   26.9860   46.6480 C   0  0  0  0  0  0  0  0  0  0  0  0
   58.9970   27.7280   46.4020 C   0  0  0  0  0  0  0  0  0  0  0  0
   58.9730   29.1830   46.6470 C   0  0  0  0  0  0  0  0  0  0  0  0
   59.1920   29.6380   47.7850 O   0  0  0  0  0  0  0  0  0  0  0  0
   58.6930   30.0380   45.5570 N   0  0  0  0  0  0  0  0  0  0  0  0
   58.6130   31.4400   45.5850 C   0  0  0  0  0  0  0  0  0  0  0  0
   57.3940   32.0140   45.2050 C   0  0  0  0  0  0  0  0  0  0  0  0
   57.1860   33.3670   45.2120 C   0  0  0  0  0  0  0  0  0  0  0  0
   58.1990   34.2110   45.6040 C   0  0  0  0  0  0  0  0  0  0  0  0
   59.4310   33.6970   45.9930 C   0  0  0  0  0  0  0  0  0  0  0  0
   60.5550   34.5360   46.4510 C   0  0  0  0  0  0  0  0  0  0  0  0
   61.5640   33.9000   47.2900 C   0  0  0  0  0  0  0  0  0  0  0  0
   62.7330   33.5440   46.6990 N   0  0  0  0  0  0  0  0  0  0  0  0
   63.7390   32.9560   47.2960 N   0  0  0  0  0  0  0  0  0  0  0  0
   63.6730   32.6530   48.6020 C   0  0  0  0  0  0  0  0  0  0  0  0
   64.6240   32.0970   49.1690 O   0  0  0  0  0  0  0  0  0  0  0  0
   62.5170   32.9820   49.2750 C   0  0  0  0  0  0  0  0  0  0  0  0
   61.4370   33.6130   48.6400 C   0  0  0  0  0  0  0  0  0  0  0  0
   60.1980   33.9780   49.3240 C   0  0  0  0  0  0  0  0  0  0  0  0
   60.0830   33.3220   50.6560 C   0  0  0  0  0  0  0  0  0  0  0  0
   60.9740   32.1380   50.8790 C   0  0  0  0  0  0  0  0  0  0  0  0
   62.4230   32.6320   50.7320 C   0  0  0  0  0  0  0  0  0  0  0  0
   59.5880   32.3100   45.9660 C   0  0  0  0  0  0  0  0  0  0  0  0
   57.9090   27.0470   45.9030 C   0  0  0  0  0  0  0  0  0  0  0  0
   56.6480   27.7230   45.6040 C   0  0  0  0  0  0  0  0  0  0  0  0
   58.0340   25.6960   45.6920 C   0  0  0  0  0  0  0  0  0  0  0  0
   56.9763   19.8751   47.4255 H   0  0  0  0  0  0  0  0  0  0  0  0
   55.6178   19.7184   46.2608 H   0  0  0  0  0  0  0  0  0  0  0  0
   56.9450   18.5080   46.2608 H   0  0  0  0  0  0  0  0  0  0  0  0
   57.6060   19.9870   44.5290 H   0  0  0  0  0  0  0  0  0  0  0  0
   58.3302   22.7717   44.1083 H   0  0  0  0  0  0  0  0  0  0  0  0
   60.4044   23.2137   45.7253 H   0  0  0  0  0  0  0  0  0  0  0  0
   61.1950   25.1235   46.6611 H   0  0  0  0  0  0  0  0  0  0  0  0
   61.0044   27.5180   47.0467 H   0  0  0  0  0  0  0  0  0  0  0  0
   58.5250   29.5400   44.6290 H   0  0  0  0  0  0  0  0  0  0  0  0
   56.5731   31.3535   44.8892 H   0  0  0  0  0  0  0  0  0  0  0  0
   56.2127   33.7776   44.9054 H   0  0  0  0  0  0  0  0  0  0  0  0
   58.0335   35.2985   45.6098 H   0  0  0  0  0  0  0  0  0  0  0  0
   61.0648   34.9229   45.5564 H   0  0  0  0  0  0  0  0  0  0  0  0
   60.0940   35.3008   47.0933 H   0  0  0  0  0  0  0  0  0  0  0  0
   64.6180   32.7040   46.7900 H   0  0  0  0  0  0  0  0  0  0  0  0
   60.1766   35.0691   49.4623 H   0  0  0  0  0  0  0  0  0  0  0  0
   59.3548   33.6393   48.7041 H   0  0  0  0  0  0  0  0  0  0  0  0
   60.3212   34.0729   51.4237 H   0  0  0  0  0  0  0  0  0  0  0  0
   59.0543   32.9363   50.7112 H   0  0  0  0  0  0  0  0  0  0  0  0
   60.8145   31.7298   51.8879 H   0  0  0  0  0  0  0  0  0  0  0  0
   60.7557   31.3402   50.1539 H   0  0  0  0  0  0  0  0  0  0  0  0
   62.6053   33.5146   51.3627 H   0  0  0  0  0  0  0  0  0  0  0  0
   63.1681   31.8865   51.0466 H   0  0  0  0  0  0  0  0  0  0  0  0
   60.5597   31.8946   46.2715 H   0  0  0  0  0  0  0  0  0  0  0  0
   56.1447   27.9928   46.5442 H   0  0  0  0  0  0  0  0  0  0  0  0
   56.8495   28.6340   45.0214 H   0  0  0  0  0  0  0  0  0  0  0  0
   56.0008   27.0509   45.0214 H   0  0  0  0  0  0  0  0  0  0  0  0
   57.1586   25.1624   45.2933 H   0  0  0  0  0  0  0  0  0  0  0  0
  1  2  1  0
  2  3  1  0
  3  4  2  0
  3  5  1  0
  5  6  2  0
  6  7  1  0
  7  8  2  0
  8  9  1  0
  9 10  2  0
 10 11  1  0
 11 12  2  0
 11 13  1  0
 13 14  1  0
 14 15  2  0
 15 16  1  0
 16 17  2  0
 17 18  1  0
 18 19  1  0
 19 20  1  0
 20 21  2  0
 21 22  1  0
 22 23  1  0
 23 24  2  0
 23 25  1  0
 25 26  2  0
 26 27  1  0
 27 28  1  0
 28 29  1  0
 29 30  1  0
 18 31  2  0
 10 32  1  0
 32 33  1  0
 32 34  2  0
 34  7  1  0
 31 14  1  0
 26 20  1  0
 30 25  1  0
  1 35  1  0
  1 36  1  0
  1 37  1  0
  2 38  1  0
  5 39  1  0
  6 40  1  0
  8 41  1  0
  9 42  1  0
 13 43  1  0
 15 44  1  0
 16 45  1  0
 17 46  1  0
 19 47  1  0
 19 48  1  0
 22 49  1  0
 27 50  1  0
 27 51  1  0
 28 52  1  0
 28 53  1  0
 29 54  1  0
 29 55  1  0
 30 56  1  0
 30 57  1  0
 31 58  1  0
 33 59  1  0
 33 60  1  0
 33 61  1  0
 34 62  1  0
M  END
>  <smiles>  (11) 
CNC(=O)C=Cc1ccc(C(=O)Nc2cccc(Cc3n[nH]c(=O)c4c3CCCC4)c2)c(C)c1

>  <score_type>  (11) 
oracle

>  <origin>  (11) 
adg

>  <m_score__min__energy>  (11) 
-10.76

>  <m_primary>  (11) 
energy

$$$$
11:0
     RDKit          3D

 48 51  0  0  1  0  0  0  0  0999 V2000
   55.9990   25.2750   46.7480 O   0  0  0  0  0  0  0  0  0  0  0  0
   57.1890   25.2020   46.3200 C   0  0  0  0  0  0  0  0  0  0  0  0
   57.8870   23.9580   46.2850 N   0  0  0  0  0  0  0  0  0  0  0  0
   57.7470   23.1490   45.2750 C   0  0  0  0  0  0  0  0  0  0  0  0
   56.6080   23.0840   44.5880 N   0  0  0  0  0  0  0  0  0  0  0  0
   56.3920   22.2770   43.5360 C   0  0  0  0  0  0  0  0  0  0  0  0
   57.4130   21.4450   43.1170 C   0  0  0  0  0  0  0  0  0  0  0  0
   58.6250   21.4660   43.7910 C   0  0  0  0  0  0  0  0  0  0  0  0
   58.7930   22.3200   44.8730 C   0  0  0  0  0  0  0  0  0  0  0  0
   60.0220   22.3380   45.5510 O   0  0  0  0  0  0  0  0  0  0  0  0
   57.8170   26.4530   45.8610 C   0  0  0  0  0  0  0  0  0  0  0  0
   59.1820   26.6340   45.8660 C   0  0  0  0  0  0  0  0  0  0  0  0
   59.7700   27.8070   45.4390 C   0  0  0  0  0  0  0  0  0  0  0  0
   58.9420   28.8250   44.9930 C   0  0  0  0  0  0  0  0  0  0  0  0
   57.5680   28.6900   44.9700 C   0  0  0  0  0  0  0  0  0  0  0  0
   56.6280   30.0250   44.3900 S   0  0  0  0  0  0  0  0  0  0  0  0
   55.1710   29.9030   44.8190 O   0  0  0  0  0  0  0  0  0  0  0  0
   56.5870   30.0540   42.8880 O   0  0  0  0  0  0  0  0  0  0  0  0
   57.1510   31.5520   44.9330 N   0  0  0  0  0  0  0  0  0  0  0  0
   58.0130   32.1400   43.9380 C   0  0  0  0  0  0  0  0  0  0  0  0
   58.1250   33.6570   44.1440 C   0  0  0  0  0  0  0  0  0  0  0  0
   58.6110   33.8340   45.5470 C   0  0  0  0  0  0  0  0  0  0  0  0
   59.2330   35.0230   45.8790 C   0  0  0  0  0  0  0  0  0  0  0  0
   59.7020   35.2410   47.1650 C   0  0  0  0  0  0  0  0  0  0  0  0
   59.5440   34.2550   48.1240 C   0  0  0  0  0  0  0  0  0  0  0  0
   58.9160   33.0550   47.7960 C   0  0  0  0  0  0  0  0  0  0  0  0
   58.4560   32.8530   46.5130 C   0  0  0  0  0  0  0  0  0  0  0  0
   57.7870   31.5440   46.2100 C   0  0  0  0  0  0  0  0  0  0  0  0
   57.0210   27.4940   45.4080 C   0  0  0  0  0  0  0  0  0  0  0  0
   55.8000   23.7050   44.8790 H   0  0  0  0  0  0  0  0  0  0  0  0
   55.4215   22.2783   43.0182 H   0  0  0  0  0  0  0  0  0  0  0  0
   57.2660   20.7734   42.2583 H   0  0  0  0  0  0  0  0  0  0  0  0
   59.4480   20.8103   43.4705 H   0  0  0  0  0  0  0  0  0  0  0  0
   60.0550   22.9670   46.3690 H   0  0  0  0  0  0  0  0  0  0  0  0
   59.8253   25.8160   46.2224 H   0  0  0  0  0  0  0  0  0  0  0  0
   60.8630   27.9304   45.4522 H   0  0  0  0  0  0  0  0  0  0  0  0
   59.3922   29.7673   44.6475 H   0  0  0  0  0  0  0  0  0  0  0  0
   59.0138   31.6903   44.0163 H   0  0  0  0  0  0  0  0  0  0  0  0
   57.5852   31.9493   42.9427 H   0  0  0  0  0  0  0  0  0  0  0  0
   58.8421   34.0900   43.4311 H   0  0  0  0  0  0  0  0  0  0  0  0
   57.1629   34.1638   43.9780 H   0  0  0  0  0  0  0  0  0  0  0  0
   59.3571   35.8043   45.1147 H   0  0  0  0  0  0  0  0  0  0  0  0
   60.1958   36.1899   47.4216 H   0  0  0  0  0  0  0  0  0  0  0  0
   59.9148   34.4191   49.1465 H   0  0  0  0  0  0  0  0  0  0  0  0
   58.7881   32.2723   48.5582 H   0  0  0  0  0  0  0  0  0  0  0  0
   58.5443   30.7463   46.2246 H   0  0  0  0  0  0  0  0  0  0  0  0
   57.0140   31.3727   46.9736 H   0  0  0  0  0  0  0  0  0  0  0  0
   55.9283   27.3676   45.3959 H   0  0  0  0  0  0  0  0  0  0  0  0
  1  2  2  0
  2  3  1  0
  3  4  2  0
  4  5  1  0
  5  6  1  0
  6  7  2  0
  7  8  1  0
  8  9  2  0
  9 10  1  0
  2 11  1  0
 11 12  2  0
 12 13  1  0
 13 14  2  0
 14 15  1  0
 15 16  1  0
 16 17  2  0
 16 18  2  0
 16 19  1  0
 19 20  1  0
 20 21  1  0
 21 22  1  0
 22 23  2  0
 23 24  1  0
 24 25  2  0
 25 26  1  0
 26 27  2  0
 27 28  1  0
 15 29  2  0
  9  4  1  0
 29 11  1  0
 28 19  1  0
 27 22  1  0
  5 30  1  0
  6 31  1  0
  7 32  1  0
  8 33  1  0
 10 34  1  0
 12 35  1  0
 13 36  1  0
 14 37  1  0
 20 38  1  0
 20 39  1  0
 21 40  1  0
 21 41  1  0
 23 42  1  0
 24 43  1  0
 25 44  1  0
 26 45  1  0
 28 46  1  0
 28 47  1  0
 29 48  1  0
M  END
>  <smiles>  (12) 
O=C(N=c1[nH]cccc1O)c1cccc(S(=O)(=O)N2CCc3ccccc3C2)c1

>  <score_type>  (12) 
oracle

>  <origin>  (12) 
adg

>  <m_score__min__energy>  (12) 
-11.44

>  <m_primary>  (12) 
energy

$$$$
12:0
     RDKit          3D

 47 50  0  0  1  0  0  0  0  0999 V2000
   60.5670   26.6500   46.4850 C   0  0  0  0  0  0  0  0  0  0  0  0
   59.5100   26.7960   45.7170 C   0  0  0  0  0  0  0  0  0  0  0  0
   58.5430   25.8270   45.5480 C   0  0  0  0  0  0  0  0  0  0  0  0
   58.4660   24.6180   46.0850 C   0  0  0  0  0  0  0  0  0  0  0  0
   58.1570   23.5060   45.2040 C   0  0  0  0  0  0  0  0  0  0  0  0
   57.0210   23.3290   44.4800 N   0  0  0  0  0  0  0  0  0  0  0  0
   57.1500   22.1690   43.8040 C   0  0  0  0  0  0  0  0  0  0  0  0
   56.2790   21.6750   43.0180 O   0  0  0  0  0  0  0  0  0  0  0  0
   58.3570   21.6190   44.0960 N   0  0  0  0  0  0  0  0  0  0  0  0
   58.9990   22.4450   44.9730 C   0  0  0  0  0  0  0  0  0  0  0  0
   60.2700   22.2230   45.5100 O   0  0  0  0  0  0  0  0  0  0  0  0
   57.6280   26.4040   44.6630 C   0  0  0  0  0  0  0  0  0  0  0  0
   58.0660   27.6730   44.3360 C   0  0  0  0  0  0  0  0  0  0  0  0
   57.3990   28.6420   43.4250 C   0  0  0  0  0  0  0  0  0  0  0  0
   59.2310   27.8910   45.0000 N   0  0  0  0  0  0  0  0  0  0  0  0
   59.9820   29.1300   44.8930 C   0  0  0  0  0  0  0  0  0  0  0  0
   59.5120   30.1590   45.8180 C   0  0  0  0  0  0  0  0  0  0  0  0
   58.4430   30.9650   45.8790 N   0  0  0  0  0  0  0  0  0  0  0  0
   58.3680   31.7690   46.8690 N   0  0  0  0  0  0  0  0  0  0  0  0
   59.1350   31.9200   47.7910 C   0  0  0  0  0  0  0  0  0  0  0  0
   59.3270   32.6820   48.9760 N   0  0  0  0  0  0  0  0  0  0  0  0
   58.7590   32.1500   50.1960 C   0  0  0  0  0  0  0  0  0  0  0  0
   58.8990   33.2350   51.2410 C   0  0  0  0  0  0  0  0  0  0  0  0
   60.1670   33.7250   51.3930 O   0  0  0  0  0  0  0  0  0  0  0  0
   60.9170   33.8580   50.2570 C   0  0  0  0  0  0  0  0  0  0  0  0
   60.0490   33.9360   49.0190 C   0  0  0  0  0  0  0  0  0  0  0  0
   60.4710   30.6470   47.3620 S   0  0  0  0  0  0  0  0  0  0  0  0
   61.2995   27.4658   46.5734 H   0  0  0  0  0  0  0  0  0  0  0  0
   60.7189   25.7120   47.0392 H   0  0  0  0  0  0  0  0  0  0  0  0
   58.6306   24.4622   47.1614 H   0  0  0  0  0  0  0  0  0  0  0  0
   56.2230   23.9920   44.4800 H   0  0  0  0  0  0  0  0  0  0  0  0
   58.7160   20.7140   43.7060 H   0  0  0  0  0  0  0  0  0  0  0  0
   61.0540   22.0110   44.8800 H   0  0  0  0  0  0  0  0  0  0  0  0
   56.7105   25.9266   44.2885 H   0  0  0  0  0  0  0  0  0  0  0  0
   56.8746   29.4038   44.0205 H   0  0  0  0  0  0  0  0  0  0  0  0
   58.1545   29.1285   42.7905 H   0  0  0  0  0  0  0  0  0  0  0  0
   56.6748   28.1100   42.7905 H   0  0  0  0  0  0  0  0  0  0  0  0
   61.0398   28.9196   45.1094 H   0  0  0  0  0  0  0  0  0  0  0  0
   59.8429   29.5143   43.8718 H   0  0  0  0  0  0  0  0  0  0  0  0
   57.6980   31.9018   50.0451 H   0  0  0  0  0  0  0  0  0  0  0  0
   59.2732   31.2285   50.5066 H   0  0  0  0  0  0  0  0  0  0  0  0
   58.2412   34.0699   50.9577 H   0  0  0  0  0  0  0  0  0  0  0  0
   58.6273   32.7754   52.2028 H   0  0  0  0  0  0  0  0  0  0  0  0
   61.5160   34.7776   50.3309 H   0  0  0  0  0  0  0  0  0  0  0  0
   61.5636   32.9726   50.1673 H   0  0  0  0  0  0  0  0  0  0  0  0
   59.3486   34.7810   49.0927 H   0  0  0  0  0  0  0  0  0  0  0  0
   60.6470   34.0951   48.1095 H   0  0  0  0  0  0  0  0  0  0  0  0
  1  2  2  0
  2  3  1  0
  3  4  2  0
  4  5  1  0
  5  6  1  0
  6  7  1  0
  7  8  2  0
  7  9  1  0
  9 10  1  0
 10 11  1  0
  3 12  1  0
 12 13  2  0
 13 14  1  0
 13 15  1  0
 15 16  1  0
 16 17  1  0
 17 18  2  0
 18 19  1  0
 19 20  2  0
 20 21  1  0
 21 22  1  0
 22 23  1  0
 23 24  1  0
 24 25  1  0
 25 26  1  0
 20 27  1  0
 15  2  1  0
 27 17  1  0
 10  5  2  0
 26 21  1  0
  1 28  1  0
  1 29  1  0
  4 30  1  0
  6 31  1  0
  9 32  1  0
 11 33  1  0
 12 34  1  0
 14 35  1  0
 14 36  1  0
 14 37  1  0
 16 38  1  0
 16 39  1  0
 22 40  1  0
 22 41  1  0
 23 42  1  0
 23 43  1  0
 25 44  1  0
 25 45  1  0
 26 46  1  0
 26 47  1  0
M  END
>  <smiles>  (13) 
C=c1c(=Cc2[nH]c(=O)[nH]c2O)cc(C)n1Cc1nnc(N2CCOCC2)s1

>  <score_type>  (13) 
oracle

>  <origin>  (13) 
adg

>  <m_score__min__energy>  (13) 
-9.6099999999999994

>  <m_primary>  (13) 
energy

$$$$
13:0
     RDKit          3D

 59 61  0  0  0  0  0  0  0  0999 V2000
   53.3960   22.3780   47.8300 C   0  0  0  0  0  0  0  0  0  0  0  0
   54.7960   22.1630   47.8090 O   0  0  0  0  0  0  0  0  0  0  0  0
   55.5050   22.7210   46.7500 C   0  0  0  0  0  0  0  0  0  0  0  0
   56.2570   23.8540   46.9380 C   0  0  0  0  0  0  0  0  0  0  0  0
   56.9640   24.4160   45.8880 C   0  0  0  0  0  0  0  0  0  0  0  0
   57.7380   25.5890   46.1040 N   0  0  0  0  0  0  0  0  0  0  0  0
   56.9940   26.8250   46.1460 C   0  0  0  0  0  0  0  0  0  0  0  0
   55.7660   26.7270   45.9900 O   0  0  0  0  0  0  0  0  0  0  0  0
   57.7280   28.0520   46.3630 C   0  0  0  0  0  0  0  0  0  0  0  0
   58.8570   28.2130   47.0660 N   0  0  0  0  0  0  0  0  0  0  0  0
   59.2470   29.4850   47.0490 N   0  0  0  0  0  0  0  0  0  0  0  0
   60.4380   29.9400   47.7130 C   0  0  0  0  0  0  0  0  0  0  0  0
   60.4120   29.4410   49.1740 C   0  0  0  0  0  0  0  0  0  0  0  0
   60.2360   30.6020   50.0580 C   0  0  0  0  0  0  0  0  0  0  0  0
   58.9590   31.3430   49.9440 C   0  0  0  0  0  0  0  0  0  0  0  0
   58.6020   31.9300   48.7080 N   0  0  0  0  0  0  0  0  0  0  0  0
   58.9610   33.1940   48.1990 C   0  0  0  0  0  0  0  0  0  0  0  0
   59.6640   34.0410   48.7890 O   0  0  0  0  0  0  0  0  0  0  0  0
   58.4880   33.5980   46.8520 C   0  0  0  0  0  0  0  0  0  0  0  0
   59.1290   34.5240   46.0430 C   0  0  0  0  0  0  0  0  0  0  0  0
   58.3750   34.6230   44.8690 C   0  0  0  0  0  0  0  0  0  0  0  0
   57.3150   33.7400   45.0470 C   0  0  0  0  0  0  0  0  0  0  0  0
   57.4230   33.1650   46.2170 O   0  0  0  0  0  0  0  0  0  0  0  0
   58.3490   30.1230   46.3260 N   0  0  0  0  0  0  0  0  0  0  0  0
   57.3930   29.2910   45.8790 C   0  0  0  0  0  0  0  0  0  0  0  0
   56.3080   29.7180   45.0790 N   0  0  0  0  0  0  0  0  0  0  0  0
   56.3510   30.8540   44.5170 O   0  0  0  0  0  0  0  0  0  0  0  0
   55.1730   28.9910   44.8500 O   0  0  0  0  0  0  0  0  0  0  0  0
   56.9030   23.8100   44.6330 C   0  0  0  0  0  0  0  0  0  0  0  0
   56.1550   22.6710   44.4200 C   0  0  0  0  0  0  0  0  0  0  0  0
   56.0480   22.0210   43.2140 O   0  0  0  0  0  0  0  0  0  0  0  0
   57.0270   21.1230   42.7860 C   0  0  0  0  0  0  0  0  0  0  0  0
   55.4530   22.1290   45.4950 C   0  0  0  0  0  0  0  0  0  0  0  0
   54.6820   20.9680   45.3070 O   0  0  0  0  0  0  0  0  0  0  0  0
   55.2970   19.7440   45.6460 C   0  0  0  0  0  0  0  0  0  0  0  0
   53.0488   22.4313   48.8724 H   0  0  0  0  0  0  0  0  0  0  0  0
   53.1624   23.3226   47.3169 H   0  0  0  0  0  0  0  0  0  0  0  0
   52.8897   21.5471   47.3169 H   0  0  0  0  0  0  0  0  0  0  0  0
   56.2985   24.3205   47.9333 H   0  0  0  0  0  0  0  0  0  0  0  0
   58.7780   25.5840   46.2260 H   0  0  0  0  0  0  0  0  0  0  0  0
   61.3242   29.5378   47.2003 H   0  0  0  0  0  0  0  0  0  0  0  0
   60.4814   31.0390   47.6932 H   0  0  0  0  0  0  0  0  0  0  0  0
   59.5764   28.7390   49.3120 H   0  0  0  0  0  0  0  0  0  0  0  0
   61.3525   28.9231   49.4132 H   0  0  0  0  0  0  0  0  0  0  0  0
   60.3223   30.2461   51.0952 H   0  0  0  0  0  0  0  0  0  0  0  0
   61.0118   31.3181   49.7490 H   0  0  0  0  0  0  0  0  0  0  0  0
   58.1560   30.6389   50.2075 H   0  0  0  0  0  0  0  0  0  0  0  0
   59.1022   32.2077   50.6086 H   0  0  0  0  0  0  0  0  0  0  0  0
   57.9770   31.3510   48.0590 H   0  0  0  0  0  0  0  0  0  0  0  0
   60.0518   35.0742   46.2788 H   0  0  0  0  0  0  0  0  0  0  0  0
   58.5764   35.2603   43.9953 H   0  0  0  0  0  0  0  0  0  0  0  0
   56.5121   33.5544   44.3184 H   0  0  0  0  0  0  0  0  0  0  0  0
   57.4636   24.2501   43.7951 H   0  0  0  0  0  0  0  0  0  0  0  0
   57.5186   20.6721   43.6607 H   0  0  0  0  0  0  0  0  0  0  0  0
   56.5599   20.3327   42.1800 H   0  0  0  0  0  0  0  0  0  0  0  0
   57.7741   21.6564   42.1800 H   0  0  0  0  0  0  0  0  0  0  0  0
   55.3449   19.6486   46.7408 H   0  0  0  0  0  0  0  0  0  0  0  0
   54.7102   18.9114   45.2307 H   0  0  0  0  0  0  0  0  0  0  0  0
   56.3153   19.7179   45.2307 H   0  0  0  0  0  0  0  0  0  0  0  0
  1  2  1  0
  2  3  1  0
  3  4  2  0
  4  5  1  0
  5  6  1  0
  6  7  1  0
  7  8  2  0
  7  9  1  0
  9 10  2  0
 10 11  1  0
 11 12  1  0
 12 13  1  0
 13 14  1  0
 14 15  1  0
 15 16  1  0
 16 17  1  0
 17 18  2  0
 17 19  1  0
 19 20  2  0
 20 21  1  0
 21 22  2  0
 22 23  1  0
 11 24  1  0
 24 25  2  0
 25 26  1  0
 26 27  2  0
 26 28  1  0
  5 29  2  0
 29 30  1  0
 30 31  1  0
 31 32  1  0
 30 33  2  0
 33 34  1  0
 34 35  1  0
 33  3  1  0
 25  9  1  0
 23 19  1  0
  1 36  1  0
  1 37  1  0
  1 38  1  0
  4 39  1  0
  6 40  1  0
 12 41  1  0
 12 42  1  0
 13 43  1  0
 13 44  1  0
 14 45  1  0
 14 46  1  0
 15 47  1  0
 15 48  1  0
 16 49  1  0
 20 50  1  0
 21 51  1  0
 22 52  1  0
 29 53  1  0
 32 54  1  0
 32 55  1  0
 32 56  1  0
 35 57  1  0
 35 58  1  0
 35 59  1  0
M  CHG  2  26   1  28  -1
M  END
>  <smiles>  (14) 
COc1cc(NC(=O)c2nn(CCCCNC(=O)c3ccco3)nc2[N+](=O)[O-])cc(OC)c1OC

>  <score_type>  (14) 
oracle

>  <origin>  (14) 
adg

>  <m_score__min__energy>  (14) 
-8.4199999999999999

>  <m_primary>  (14) 
energy

$$$$
14:0
     RDKit          3D

 62 66  0  0  1  0  0  0  0  0999 V2000
   60.4870   26.6200   47.9440 C   0  0  0  0  0  0  0  0  0  0  0  0
   59.5550   26.8100   47.0160 C   0  0  0  0  0  0  0  0  0  0  0  0
   59.1720   25.8370   46.1050 C   0  0  0  0  0  0  0  0  0  0  0  0
   59.6040   24.5970   45.9660 C   0  0  0  0  0  0  0  0  0  0  0  0
   58.8730   23.5540   45.2580 C   0  0  0  0  0  0  0  0  0  0  0  0
   57.6890   23.7170   44.6280 N   0  0  0  0  0  0  0  0  0  0  0  0
   57.3280   22.5390   44.0930 C   0  0  0  0  0  0  0  0  0  0  0  0
   56.2690   22.2940   43.4210 O   0  0  0  0  0  0  0  0  0  0  0  0
   58.3000   21.6460   44.3990 N   0  0  0  0  0  0  0  0  0  0  0  0
   59.2670   22.2510   45.1200 C   0  0  0  0  0  0  0  0  0  0  0  0
   60.4200   21.6620   45.6160 O   0  0  0  0  0  0  0  0  0  0  0  0
   58.1850   26.3970   45.2920 C   0  0  0  0  0  0  0  0  0  0  0  0
   58.0000   27.7000   45.7430 C   0  0  0  0  0  0  0  0  0  0  0  0
   57.0130   28.6310   45.1300 C   0  0  0  0  0  0  0  0  0  0  0  0
   58.8280   27.9350   46.7780 N   0  0  0  0  0  0  0  0  0  0  0  0
   58.8870   29.1620   47.4660 C   0  0  0  0  0  0  0  0  0  0  0  0
   59.2850   30.2880   46.7730 C   0  0  0  0  0  0  0  0  0  0  0  0
   59.3630   31.5170   47.4120 C   0  0  0  0  0  0  0  0  0  0  0  0
   59.7810   32.7120   46.6450 C   0  0  0  0  0  0  0  0  0  0  0  0
   60.9410   33.1960   46.7600 O   0  0  0  0  0  0  0  0  0  0  0  0
   58.7920   33.2600   45.7840 N   0  0  0  0  0  0  0  0  0  0  0  0
   57.4040   32.9860   45.4010 C   0  0  0  0  0  0  0  0  0  0  0  0
   57.2150   34.3910   44.8760 C   0  0  0  0  0  0  0  0  0  0  0  0
   58.7380   34.4060   44.8630 C   0  0  0  0  0  0  0  0  0  0  0  0
   59.0420   31.6130   48.7460 C   0  0  0  0  0  0  0  0  0  0  0  0
   58.6330   30.4910   49.4870 C   0  0  0  0  0  0  0  0  0  0  0  0
   58.3240   30.7060   50.8640 C   0  0  0  0  0  0  0  0  0  0  0  0
   57.4080   29.9410   51.3610 O   0  0  0  0  0  0  0  0  0  0  0  0
   58.8790   31.6330   51.7570 N   0  0  0  0  0  0  0  0  0  0  0  0
   58.3570   31.6320   53.1300 C   0  0  0  0  0  0  0  0  0  0  0  0
   58.4780   33.0680   53.6190 C   0  0  0  0  0  0  0  0  0  0  0  0
   58.3310   33.9930   52.6140 O   0  0  0  0  0  0  0  0  0  0  0  0
   59.2920   33.9760   51.6360 C   0  0  0  0  0  0  0  0  0  0  0  0
   59.9220   32.5870   51.4580 C   0  0  0  0  0  0  0  0  0  0  0  0
   58.5780   29.3160   48.7990 C   0  0  0  0  0  0  0  0  0  0  0  0
   60.7459   27.4332   48.6381 H   0  0  0  0  0  0  0  0  0  0  0  0
   60.9996   25.6496   48.0181 H   0  0  0  0  0  0  0  0  0  0  0  0
   60.5750   24.3354   46.4119 H   0  0  0  0  0  0  0  0  0  0  0  0
   57.0920   24.5700   44.5300 H   0  0  0  0  0  0  0  0  0  0  0  0
   58.2350   20.6490   44.0840 H   0  0  0  0  0  0  0  0  0  0  0  0
   60.6990   20.7210   45.3970 H   0  0  0  0  0  0  0  0  0  0  0  0
   57.6584   25.9059   44.4604 H   0  0  0  0  0  0  0  0  0  0  0  0
   56.4593   29.1533   45.9241 H   0  0  0  0  0  0  0  0  0  0  0  0
   57.5415   29.3671   44.5065 H   0  0  0  0  0  0  0  0  0  0  0  0
   56.3090   28.0604   44.5065 H   0  0  0  0  0  0  0  0  0  0  0  0
   59.5421   30.2100   45.7063 H   0  0  0  0  0  0  0  0  0  0  0  0
   57.3048   32.2094   44.6283 H   0  0  0  0  0  0  0  0  0  0  0  0
   56.7048   32.5940   46.1543 H   0  0  0  0  0  0  0  0  0  0  0  0
   56.7320   34.4676   43.8907 H   0  0  0  0  0  0  0  0  0  0  0  0
   56.5996   35.1536   45.3758 H   0  0  0  0  0  0  0  0  0  0  0  0
   59.1753   34.2019   43.8745 H   0  0  0  0  0  0  0  0  0  0  0  0
   59.2757   35.3322   45.1140 H   0  0  0  0  0  0  0  0  0  0  0  0
   59.1069   32.5913   49.2448 H   0  0  0  0  0  0  0  0  0  0  0  0
   57.3049   31.3111   53.1398 H   0  0  0  0  0  0  0  0  0  0  0  0
   58.9134   30.9358   53.7748 H   0  0  0  0  0  0  0  0  0  0  0  0
   57.7003   33.2469   54.3761 H   0  0  0  0  0  0  0  0  0  0  0  0
   59.4902   33.1900   54.0320 H   0  0  0  0  0  0  0  0  0  0  0  0
   58.8325   34.2800   50.6840 H   0  0  0  0  0  0  0  0  0  0  0  0
   60.0902   34.6699   51.9382 H   0  0  0  0  0  0  0  0  0  0  0  0
   60.2735   32.4568   50.4238 H   0  0  0  0  0  0  0  0  0  0  0  0
   60.7914   32.4523   52.1184 H   0  0  0  0  0  0  0  0  0  0  0  0
   58.2617   28.4195   49.3524 H   0  0  0  0  0  0  0  0  0  0  0  0
  1  2  2  0
  2  3  1  0
  3  4  2  0
  4  5  1  0
  5  6  1  0
  6  7  1  0
  7  8  2  0
  7  9  1  0
  9 10  1  0
 10 11  1  0
  3 12  1  0
 12 13  2  0
 13 14  1  0
 13 15  1  0
 15 16  1  0
 16 17  2  0
 17 18  1  0
 18 19  1  0
 19 20  2  0
 19 21  1  0
 21 22  1  0
 22 23  1  0
 23 24  1  0
 18 25  2  0
 25 26  1  0
 26 27  1  0
 27 28  2  0
 27 29  1  0
 29 30  1  0
 30 31  1  0
 31 32  1  0
 32 33  1  0
 33 34  1  0
 26 35  2  0
 15  2  1  0
 35 16  1  0
 10  5  2  0
 24 21  1  0
 34 29  1  0
  1 36  1  0
  1 37  1  0
  4 38  1  0
  6 39  1  0
  9 40  1  0
 11 41  1  0
 12 42  1  0
 14 43  1  0
 14 44  1  0
 14 45  1  0
 17 46  1  0
 22 47  1  0
 22 48  1  0
 23 49  1  0
 23 50  1  0
 24 51  1  0
 24 52  1  0
 25 53  1  0
 30 54  1  0
 30 55  1  0
 31 56  1  0
 31 57  1  0
 33 58  1  0
 33 59  1  0
 34 60  1  0
 34 61  1  0
 35 62  1  0
M  END
>  <smiles>  (15) 
C=c1c(=Cc2[nH]c(=O)[nH]c2O)cc(C)n1-c1cc(C(=O)N2CCC2)cc(C(=O)N2CCOCC2)c1

>  <score_type>  (15) 
oracle

>  <origin>  (15) 
adg

>  <m_score__min__energy>  (15) 
-10.69

>  <m_primary>  (15) 
energy

$$$$
15:0
     RDKit          3D

 52 55  0  0  1  0  0  0  0  0999 V2000
   59.8110   31.4570   49.2440 O   0  0  0  0  0  0  0  0  0  0  0  0
   60.1870   30.4030   48.6870 C   0  0  0  0  0  0  0  0  0  0  0  0
   59.4250   29.2170   48.8750 N   0  0  0  0  0  0  0  0  0  0  0  0
   58.9610   28.5800   47.8620 C   0  0  0  0  0  0  0  0  0  0  0  0
   58.1310   29.1610   46.9750 N   0  0  0  0  0  0  0  0  0  0  0  0
   57.6470   28.4540   45.9220 C   0  0  0  0  0  0  0  0  0  0  0  0
   56.5300   29.3670   44.8370 S   0  0  0  0  0  0  0  0  0  0  0  0
   57.3170   30.9700   44.6180 C   0  0  0  0  0  0  0  0  0  0  0  0
   57.5180   31.4260   43.3150 C   0  0  0  0  0  0  0  0  0  0  0  0
   58.1290   32.6500   43.0590 C   0  0  0  0  0  0  0  0  0  0  0  0
   58.5470   33.4340   44.1180 C   0  0  0  0  0  0  0  0  0  0  0  0
   58.3480   32.9840   45.4290 C   0  0  0  0  0  0  0  0  0  0  0  0
   57.7350   31.7570   45.6530 C   0  0  0  0  0  0  0  0  0  0  0  0
   57.9610   27.1370   45.6910 C   0  0  0  0  0  0  0  0  0  0  0  0
   57.4720   26.3530   44.5340 C   0  0  0  0  0  0  0  0  0  0  0  0
   56.7800   25.0940   44.9470 C   0  0  0  0  0  0  0  0  0  0  0  0
   57.2930   23.8410   44.7010 C   0  0  0  0  0  0  0  0  0  0  0  0
   56.6210   22.6790   45.0930 C   0  0  0  0  0  0  0  0  0  0  0  0
   55.4110   22.7730   45.7440 C   0  0  0  0  0  0  0  0  0  0  0  0
   54.8790   23.9980   46.0000 C   0  0  0  0  0  0  0  0  0  0  0  0
   55.5520   25.1480   45.6080 C   0  0  0  0  0  0  0  0  0  0  0  0
   54.9280   26.3510   45.9130 O   0  0  0  0  0  0  0  0  0  0  0  0
   58.7980   26.5530   46.5870 N   0  0  0  0  0  0  0  0  0  0  0  0
   59.2910   27.2500   47.6500 C   0  0  0  0  0  0  0  0  0  0  0  0
   60.0550   26.7160   48.4640 O   0  0  0  0  0  0  0  0  0  0  0  0
   61.3680   30.4470   47.8890 N   0  0  0  0  0  0  0  0  0  0  0  0
   62.1050   31.6730   47.7290 C   0  0  0  0  0  0  0  0  0  0  0  0
   63.3220   31.8980   48.2950 C   0  0  0  0  0  0  0  0  0  0  0  0
   63.9400   33.1090   48.0720 C   0  0  0  0  0  0  0  0  0  0  0  0
   63.4020   34.1120   47.3070 C   0  0  0  0  0  0  0  0  0  0  0  0
   62.1540   33.8780   46.7280 C   0  0  0  0  0  0  0  0  0  0  0  0
   61.5140   32.6580   46.9430 C   0  0  0  0  0  0  0  0  0  0  0  0
   57.8640   30.1780   47.1150 H   0  0  0  0  0  0  0  0  0  0  0  0
   57.1860   30.8040   42.4707 H   0  0  0  0  0  0  0  0  0  0  0  0
   58.2779   32.9904   42.0236 H   0  0  0  0  0  0  0  0  0  0  0  0
   59.0321   34.4036   43.9323 H   0  0  0  0  0  0  0  0  0  0  0  0
   58.6760   33.6000   46.2793 H   0  0  0  0  0  0  0  0  0  0  0  0
   57.5832   31.4122   46.6865 H   0  0  0  0  0  0  0  0  0  0  0  0
   56.7658   26.9722   43.9615 H   0  0  0  0  0  0  0  0  0  0  0  0
   58.3457   26.0709   43.9282 H   0  0  0  0  0  0  0  0  0  0  0  0
   58.2585   23.7510   44.1816 H   0  0  0  0  0  0  0  0  0  0  0  0
   57.0580   21.6918   44.8818 H   0  0  0  0  0  0  0  0  0  0  0  0
   54.8780   21.8624   46.0551 H   0  0  0  0  0  0  0  0  0  0  0  0
   53.9126   24.0784   46.5192 H   0  0  0  0  0  0  0  0  0  0  0  0
   54.0260   26.3130   46.3790 H   0  0  0  0  0  0  0  0  0  0  0  0
   59.1070   25.5660   46.5280 H   0  0  0  0  0  0  0  0  0  0  0  0
   61.7170   29.5900   47.4090 H   0  0  0  0  0  0  0  0  0  0  0  0
   63.8023   31.1289   48.9177 H   0  0  0  0  0  0  0  0  0  0  0  0
   64.9229   33.2815   48.5348 H   0  0  0  0  0  0  0  0  0  0  0  0
   63.9332   35.0633   47.1558 H   0  0  0  0  0  0  0  0  0  0  0  0
   61.6784   34.6508   46.1062 H   0  0  0  0  0  0  0  0  0  0  0  0
   60.5308   32.4719   46.4862 H   0  0  0  0  0  0  0  0  0  0  0  0
  1  2  2  0
  2  3  1  0
  3  4  2  0
  4  5  1  0
  5  6  1  0
  6  7  1  0
  7  8  1  0
  8  9  2  0
  9 10  1  0
 10 11  2  0
 11 12  1  0
 12 13  2  0
  6 14  2  0
 14 15  1  0
 15 16  1  0
 16 17  2  0
 17 18  1  0
 18 19  2  0
 19 20  1  0
 20 21  2  0
 21 22  1  0
 14 23  1  0
 23 24  1  0
 24 25  2  0
  2 26  1  0
 26 27  1  0
 27 28  2  0
 28 29  1  0
 29 30  2  0
 30 31  1  0
 31 32  2  0
 24  4  1  0
 32 27  1  0
 13  8  1  0
 21 16  1  0
  5 33  1  0
  9 34  1  0
 10 35  1  0
 11 36  1  0
 12 37  1  0
 13 38  1  0
 15 39  1  0
 15 40  1  0
 17 41  1  0
 18 42  1  0
 19 43  1  0
 20 44  1  0
 22 45  1  0
 23 46  1  0
 26 47  1  0
 28 48  1  0
 29 49  1  0
 30 50  1  0
 31 51  1  0
 32 52  1  0
M  END
>  <smiles>  (16) 
O=C(N=c1[nH]c(Sc2ccccc2)c(Cc2ccccc2O)[nH]c1=O)Nc1ccccc1

>  <score_type>  (16) 
oracle

>  <origin>  (16) 
adg

>  <m_score__min__energy>  (16) 
-10.06

>  <m_primary>  (16) 
energy

$$$$
16:0
     RDKit          3D

 53 55  0  0  0  0  0  0  0  0999 V2000
   58.4560   30.1280   47.7090 O   0  0  0  0  0  0  0  0  0  0  0  0
   59.0270   31.1580   47.3100 C   0  0  0  0  0  0  0  0  0  0  0  0
   58.4150   32.5240   47.4920 C   0  0  0  0  0  0  0  0  0  0  0  0
   58.9530   33.4730   46.5430 N   0  0  0  0  0  0  0  0  0  0  0  0
   60.0900   34.3270   46.8060 C   0  0  0  0  0  0  0  0  0  0  0  0
   60.9800   33.9510   47.8940 C   0  0  0  0  0  0  0  0  0  0  0  0
   60.6610   34.1800   49.2380 C   0  0  0  0  0  0  0  0  0  0  0  0
   61.5190   33.8650   50.2640 C   0  0  0  0  0  0  0  0  0  0  0  0
   62.7440   33.3030   50.0220 C   0  0  0  0  0  0  0  0  0  0  0  0
   63.0920   33.0610   48.7140 C   0  0  0  0  0  0  0  0  0  0  0  0
   64.3520   32.4820   48.4660 O   0  0  0  0  0  0  0  0  0  0  0  0
   62.2340   33.3750   47.6670 C   0  0  0  0  0  0  0  0  0  0  0  0
   62.7020   33.0760   46.3980 O   0  0  0  0  0  0  0  0  0  0  0  0
   58.3630   33.6420   45.2370 C   0  0  0  0  0  0  0  0  0  0  0  0
   58.3250   34.7920   44.6760 O   0  0  0  0  0  0  0  0  0  0  0  0
   57.7770   32.5600   44.4680 C   0  0  0  0  0  0  0  0  0  0  0  0
   58.0160   32.5690   43.0820 C   0  0  0  0  0  0  0  0  0  0  0  0
   57.5200   31.5860   42.2810 C   0  0  0  0  0  0  0  0  0  0  0  0
   56.7830   30.5760   42.8040 C   0  0  0  0  0  0  0  0  0  0  0  0
   56.2700   29.5590   41.9750 O   0  0  0  0  0  0  0  0  0  0  0  0
   56.5300   30.5390   44.1630 C   0  0  0  0  0  0  0  0  0  0  0  0
   55.7690   29.4760   44.6290 O   0  0  0  0  0  0  0  0  0  0  0  0
   57.0300   31.5340   44.9800 C   0  0  0  0  0  0  0  0  0  0  0  0
   60.3030   31.1560   46.6530 N   0  0  0  0  0  0  0  0  0  0  0  0
   61.0510   29.9540   46.3990 C   0  0  0  0  0  0  0  0  0  0  0  0
   60.2010   28.8650   45.9340 C   0  0  0  0  0  0  0  0  0  0  0  0
   59.6150   29.0080   44.6670 C   0  0  0  0  0  0  0  0  0  0  0  0
   58.7970   27.9950   44.1580 C   0  0  0  0  0  0  0  0  0  0  0  0
   58.5430   26.8420   44.8730 C   0  0  0  0  0  0  0  0  0  0  0  0
   59.1300   26.7090   46.1320 C   0  0  0  0  0  0  0  0  0  0  0  0
   59.9420   27.7140   46.6350 C   0  0  0  0  0  0  0  0  0  0  0  0
   57.3270   32.4510   47.3477 H   0  0  0  0  0  0  0  0  0  0  0  0
   58.6509   32.8770   48.5067 H   0  0  0  0  0  0  0  0  0  0  0  0
   60.6926   34.3645   45.8865 H   0  0  0  0  0  0  0  0  0  0  0  0
   59.6514   35.2846   47.1234 H   0  0  0  0  0  0  0  0  0  0  0  0
   59.6868   34.6290   49.4817 H   0  0  0  0  0  0  0  0  0  0  0  0
   61.2154   34.0686   51.3015 H   0  0  0  0  0  0  0  0  0  0  0  0
   63.4273   33.0533   50.8471 H   0  0  0  0  0  0  0  0  0  0  0  0
   64.5670   32.3070   47.4710 H   0  0  0  0  0  0  0  0  0  0  0  0
   63.6470   32.6680   46.3020 H   0  0  0  0  0  0  0  0  0  0  0  0
   58.6115   33.3810   42.6393 H   0  0  0  0  0  0  0  0  0  0  0  0
   57.7193   31.6118   41.1995 H   0  0  0  0  0  0  0  0  0  0  0  0
   55.4800   29.0010   42.3300 H   0  0  0  0  0  0  0  0  0  0  0  0
   55.7240   28.6340   44.0540 H   0  0  0  0  0  0  0  0  0  0  0  0
   56.8244   31.5012   46.0601 H   0  0  0  0  0  0  0  0  0  0  0  0
   60.7450   32.0670   46.3260 H   0  0  0  0  0  0  0  0  0  0  0  0
   61.8095   30.1644   45.6306 H   0  0  0  0  0  0  0  0  0  0  0  0
   61.5162   29.6393   47.3448 H   0  0  0  0  0  0  0  0  0  0  0  0
   59.7991   29.9165   44.0748 H   0  0  0  0  0  0  0  0  0  0  0  0
   58.3446   28.1199   43.1631 H   0  0  0  0  0  0  0  0  0  0  0  0
   57.8972   26.0517   44.4627 H   0  0  0  0  0  0  0  0  0  0  0  0
   58.9477   25.8027   46.7281 H   0  0  0  0  0  0  0  0  0  0  0  0
   60.3939   27.5844   47.6295 H   0  0  0  0  0  0  0  0  0  0  0  0
  1  2  2  0
  2  3  1  0
  3  4  1  0
  4  5  1  0
  5  6  1  0
  6  7  2  0
  7  8  1  0
  8  9  2  0
  9 10  1  0
 10 11  1  0
 10 12  2  0
 12 13  1  0
  4 14  1  0
 14 15  2  0
 14 16  1  0
 16 17  2  0
 17 18  1  0
 18 19  2  0
 19 20  1  0
 19 21  1  0
 21 22  1  0
 21 23  2  0
  2 24  1  0
 24 25  1  0
 25 26  1  0
 26 27  2  0
 27 28  1  0
 28 29  2  0
 29 30  1  0
 30 31  2  0
 12  6  1  0
 23 16  1  0
 31 26  1  0
  3 32  1  0
  3 33  1  0
  5 34  1  0
  5 35  1  0
  7 36  1  0
  8 37  1  0
  9 38  1  0
 11 39  1  0
 13 40  1  0
 17 41  1  0
 18 42  1  0
 20 43  1  0
 22 44  1  0
 23 45  1  0
 24 46  1  0
 25 47  1  0
 25 48  1  0
 27 49  1  0
 28 50  1  0
 29 51  1  0
 30 52  1  0
 31 53  1  0
M  END
>  <smiles>  (17) 
O=C(CN(Cc1cccc(O)c1O)C(=O)c1ccc(O)c(O)c1)NCc1ccccc1

>  <score_type>  (17) 
oracle

>  <origin>  (17) 
adg

>  <m_score__min__energy>  (17) 
-9

>  <m_primary>  (17) 
energy

$$$$
17:0
     RDKit          3D

 39 41  0  0  1  0  0  0  0  0999 V2000
   58.2330   27.1620   42.9760 C   0  0  0  0  0  0  0  0  0  0  0  0
   58.1700   28.0580   43.9480 C   0  0  0  0  0  0  0  0  0  0  0  0
   58.1250   29.3970   43.8190 N   0  0  0  0  0  0  0  0  0  0  0  0
   58.0680   29.9670   45.0240 N   0  0  0  0  0  0  0  0  0  0  0  0
   58.0110   31.3800   45.1860 C   0  0  0  0  0  0  0  0  0  0  0  0
   57.5190   32.2470   44.2610 C   0  0  0  0  0  0  0  0  0  0  0  0
   57.5000   33.6220   44.5010 C   0  0  0  0  0  0  0  0  0  0  0  0
   57.9870   34.1340   45.7010 C   0  0  0  0  0  0  0  0  0  0  0  0
   58.4870   33.2630   46.6440 C   0  0  0  0  0  0  0  0  0  0  0  0
   58.9830   33.8090   47.8700 N   0  0  0  0  0  0  0  0  0  0  0  0
   59.4610   34.9590   47.8410 O   0  0  0  0  0  0  0  0  0  0  0  0
   58.9610   33.1440   49.0530 O   0  0  0  0  0  0  0  0  0  0  0  0
   58.4920   31.9240   46.3790 C   0  0  0  0  0  0  0  0  0  0  0  0
   58.0750   29.0110   45.9700 C   0  0  0  0  0  0  0  0  0  0  0  0
   58.0320   29.1810   47.1980 O   0  0  0  0  0  0  0  0  0  0  0  0
   58.1390   27.8200   45.3030 C   0  0  0  0  0  0  0  0  0  0  0  0
   58.1660   26.6260   45.8690 C   0  0  0  0  0  0  0  0  0  0  0  0
   57.2340   25.5540   45.5270 C   0  0  0  0  0  0  0  0  0  0  0  0
   57.7880   24.4530   44.8690 C   0  0  0  0  0  0  0  0  0  0  0  0
   56.9820   23.3830   44.5030 C   0  0  0  0  0  0  0  0  0  0  0  0
   55.6360   23.4280   44.8000 C   0  0  0  0  0  0  0  0  0  0  0  0
   54.8580   22.3380   44.4180 O   0  0  0  0  0  0  0  0  0  0  0  0
   55.1140   24.5260   45.4500 C   0  0  0  0  0  0  0  0  0  0  0  0
   53.7500   24.5110   45.7210 O   0  0  0  0  0  0  0  0  0  0  0  0
   55.8900   25.6100   45.8290 C   0  0  0  0  0  0  0  0  0  0  0  0
   55.3690   26.7020   46.4760 O   0  0  0  0  0  0  0  0  0  0  0  0
   58.2647   26.0894   43.2179 H   0  0  0  0  0  0  0  0  0  0  0  0
   58.2536   27.4899   41.9262 H   0  0  0  0  0  0  0  0  0  0  0  0
   58.1360   29.8720   42.8760 H   0  0  0  0  0  0  0  0  0  0  0  0
   57.1297   31.8585   43.3083 H   0  0  0  0  0  0  0  0  0  0  0  0
   57.0981   34.3049   43.7380 H   0  0  0  0  0  0  0  0  0  0  0  0
   57.9727   35.2170   45.8929 H   0  0  0  0  0  0  0  0  0  0  0  0
   58.8941   31.2407   47.1415 H   0  0  0  0  0  0  0  0  0  0  0  0
   58.9289   26.4293   46.6366 H   0  0  0  0  0  0  0  0  0  0  0  0
   58.8639   24.4337   44.6406 H   0  0  0  0  0  0  0  0  0  0  0  0
   57.4106   22.5129   43.9841 H   0  0  0  0  0  0  0  0  0  0  0  0
   53.8470   22.3150   44.5740 H   0  0  0  0  0  0  0  0  0  0  0  0
   53.2620   23.6670   45.4150 H   0  0  0  0  0  0  0  0  0  0  0  0
   54.3970   26.7130   46.7700 H   0  0  0  0  0  0  0  0  0  0  0  0
  1  2  2  0
  2  3  1  0
  3  4  1  0
  4  5  1  0
  5  6  2  0
  6  7  1  0
  7  8  2  0
  8  9  1  0
  9 10  1  0
 10 11  2  0
 10 12  1  0
  9 13  2  0
  4 14  1  0
 14 15  2  0
 14 16  1  0
 16 17  2  0
 17 18  1  0
 18 19  2  0
 19 20  1  0
 20 21  2  0
 21 22  1  0
 21 23  1  0
 23 24  1  0
 23 25  2  0
 25 26  1  0
 16  2  1  0
 25 18  1  0
 13  5  1  0
  1 27  1  0
  1 28  1  0
  3 29  1  0
  6 30  1  0
  7 31  1  0
  8 32  1  0
 13 33  1  0
 17 34  1  0
 19 35  1  0
 20 36  1  0
 22 37  1  0
 24 38  1  0
 26 39  1  0
M  CHG  2  10   1  12  -1
M  END
>  <smiles>  (18) 
C=c1[nH]n(-c2cccc([N+](=O)[O-])c2)c(=O)c1=Cc1ccc(O)c(O)c1O

>  <score_type>  (18) 
oracle

>  <origin>  (18) 
adg

>  <m_score__min__energy>  (18) 
-9.0999999999999996

>  <m_primary>  (18) 
energy

$$$$
18:0
     RDKit          3D

 56 59  0  0  0  0  0  0  0  0999 V2000
   58.1040   34.9260   44.8550 C   0  0  0  0  0  0  0  0  0  0  0  0
   58.3780   33.6800   45.2100 C   0  0  0  0  0  0  0  0  0  0  0  0
   57.8600   32.5550   44.4500 C   0  0  0  0  0  0  0  0  0  0  0  0
   57.4520   31.4100   45.1130 C   0  0  0  0  0  0  0  0  0  0  0  0
   56.9470   30.3030   44.4130 C   0  0  0  0  0  0  0  0  0  0  0  0
   56.8330   30.3020   43.0440 C   0  0  0  0  0  0  0  0  0  0  0  0
   57.2360   31.4380   42.3820 C   0  0  0  0  0  0  0  0  0  0  0  0
   57.7390   32.5380   43.0810 C   0  0  0  0  0  0  0  0  0  0  0  0
   59.2250   33.5170   46.4040 C   0  0  0  0  0  0  0  0  0  0  0  0
   59.8590   32.4300   46.8510 N   0  0  0  0  0  0  0  0  0  0  0  0
   60.5320   32.6820   47.9760 C   0  0  0  0  0  0  0  0  0  0  0  0
   61.3110   31.6680   48.7070 C   0  0  0  0  0  0  0  0  0  0  0  0
   60.8440   30.2650   48.5340 C   0  0  0  0  0  0  0  0  0  0  0  0
   61.4020   29.3700   49.4130 O   0  0  0  0  0  0  0  0  0  0  0  0
   59.3340   30.2470   48.8220 C   0  0  0  0  0  0  0  0  0  0  0  0
   58.7660   28.8810   48.6240 C   0  0  0  0  0  0  0  0  0  0  0  0
   59.3670   28.0180   47.7200 N   0  0  0  0  0  0  0  0  0  0  0  0
   59.1820   26.6240   47.9140 C   0  0  0  0  0  0  0  0  0  0  0  0
   58.2860   26.1030   46.8500 C   0  0  0  0  0  0  0  0  0  0  0  0
   58.7040   25.2980   45.8230 C   0  0  0  0  0  0  0  0  0  0  0  0
   57.8620   24.8170   44.8400 C   0  0  0  0  0  0  0  0  0  0  0  0
   56.5100   25.1570   44.8740 C   0  0  0  0  0  0  0  0  0  0  0  0
   56.0800   25.9690   45.9070 C   0  0  0  0  0  0  0  0  0  0  0  0
   54.7150   26.2940   45.9140 O   0  0  0  0  0  0  0  0  0  0  0  0
   56.9450   26.4400   46.8830 C   0  0  0  0  0  0  0  0  0  0  0  0
   60.4640   28.4020   46.9260 C   0  0  0  0  0  0  0  0  0  0  0  0
   60.9450   29.8100   47.1210 C   0  0  0  0  0  0  0  0  0  0  0  0
   60.3160   34.0040   48.2630 C   0  0  0  0  0  0  0  0  0  0  0  0
   59.5230   34.4890   47.2970 N   0  0  0  0  0  0  0  0  0  0  0  0
   58.5045   35.7658   45.4418 H   0  0  0  0  0  0  0  0  0  0  0  0
   57.4759   35.1212   43.9733 H   0  0  0  0  0  0  0  0  0  0  0  0
   57.5250   31.3670   46.2097 H   0  0  0  0  0  0  0  0  0  0  0  0
   56.6339   29.4116   44.9763 H   0  0  0  0  0  0  0  0  0  0  0  0
   56.4369   29.4310   42.5013 H   0  0  0  0  0  0  0  0  0  0  0  0
   57.1612   31.4812   41.2854 H   0  0  0  0  0  0  0  0  0  0  0  0
   58.0509   33.4266   42.5127 H   0  0  0  0  0  0  0  0  0  0  0  0
   62.3536   31.7249   48.3609 H   0  0  0  0  0  0  0  0  0  0  0  0
   61.1898   31.9010   49.7752 H   0  0  0  0  0  0  0  0  0  0  0  0
   61.0060   28.4720   49.2820 H   0  0  0  0  0  0  0  0  0  0  0  0
   59.1629   30.5600   49.8626 H   0  0  0  0  0  0  0  0  0  0  0  0
   58.8368   30.9369   48.1243 H   0  0  0  0  0  0  0  0  0  0  0  0
   58.7836   28.3816   49.6039 H   0  0  0  0  0  0  0  0  0  0  0  0
   57.7775   29.0729   48.1813 H   0  0  0  0  0  0  0  0  0  0  0  0
   60.1541   26.1120   47.8611 H   0  0  0  0  0  0  0  0  0  0  0  0
   58.7319   26.4424   48.9011 H   0  0  0  0  0  0  0  0  0  0  0  0
   59.7674   25.0200   45.7793 H   0  0  0  0  0  0  0  0  0  0  0  0
   58.2534   24.1727   44.0389 H   0  0  0  0  0  0  0  0  0  0  0  0
   55.8111   24.7924   44.1068 H   0  0  0  0  0  0  0  0  0  0  0  0
   54.3900   26.7230   45.0360 H   0  0  0  0  0  0  0  0  0  0  0  0
   56.5627   27.0851   47.6878 H   0  0  0  0  0  0  0  0  0  0  0  0
   61.3000   27.7243   47.1536 H   0  0  0  0  0  0  0  0  0  0  0  0
   60.1157   28.3449   45.8842 H   0  0  0  0  0  0  0  0  0  0  0  0
   61.9979   29.8679   46.8078 H   0  0  0  0  0  0  0  0  0  0  0  0
   60.3017   30.4658   46.5159 H   0  0  0  0  0  0  0  0  0  0  0  0
   60.7169   34.5614   49.1224 H   0  0  0  0  0  0  0  0  0  0  0  0
   59.2150   35.4980   47.3030 H   0  0  0  0  0  0  0  0  0  0  0  0
  1  2  2  0
  2  3  1  0
  3  4  2  0
  4  5  1  0
  5  6  2  0
  6  7  1  0
  7  8  2  0
  2  9  1  0
  9 10  2  0
 10 11  1  0
 11 12  1  0
 12 13  1  0
 13 14  1  0
 13 15  1  0
 15 16  1  0
 16 17  1  0
 17 18  1  0
 18 19  1  0
 19 20  2  0
 20 21  1  0
 21 22  2  0
 22 23  1  0
 23 24  1  0
 23 25  2  0
 17 26  1  0
 26 27  1  0
 11 28  2  0
 28 29  1  0
  8  3  1  0
 29  9  1  0
 27 13  1  0
 25 19  1  0
  1 30  1  0
  1 31  1  0
  4 32  1  0
  5 33  1  0
  6 34  1  0
  7 35  1  0
  8 36  1  0
 12 37  1  0
 12 38  1  0
 14 39  1  0
 15 40  1  0
 15 41  1  0
 16 42  1  0
 16 43  1  0
 18 44  1  0
 18 45  1  0
 20 46  1  0
 21 47  1  0
 22 48  1  0
 24 49  1  0
 25 50  1  0
 26 51  1  0
 26 52  1  0
 27 53  1  0
 27 54  1  0
 28 55  1  0
 29 56  1  0
M  END
>  <smiles>  (19) 
C=C(c1ccccc1)c1nc(CC2(O)CCN(Cc3cccc(O)c3)CC2)c[nH]1

>  <score_type>  (19) 
oracle

>  <origin>  (19) 
adg

>  <m_score__min__energy>  (19) 
-10.58

>  <m_primary>  (19) 
energy

$$$$
19:0
     RDKit          3D

 47 49  0  0  1  0  0  0  0  0999 V2000
   55.9200   29.7110   42.4710 O   0  0  0  0  0  0  0  0  0  0  0  0
   56.6260   29.8140   43.4920 C   0  0  0  0  0  0  0  0  0  0  0  0
   57.7670   28.8640   43.7930 C   0  0  0  0  0  0  0  0  0  0  0  0
   57.4190   27.6450   44.4220 N   0  0  0  0  0  0  0  0  0  0  0  0
   58.2190   27.3370   45.5830 C   0  0  0  0  0  0  0  0  0  0  0  0
   59.1160   28.2020   45.8300 O   0  0  0  0  0  0  0  0  0  0  0  0
   58.0730   26.1580   46.4310 C   0  0  0  0  0  0  0  0  0  0  0  0
   57.9430   24.8730   45.6740 C   0  0  0  0  0  0  0  0  0  0  0  0
   56.9040   24.6120   44.8170 C   0  0  0  0  0  0  0  0  0  0  0  0
   56.8780   23.4100   44.1880 C   0  0  0  0  0  0  0  0  0  0  0  0
   57.8900   22.4680   44.4140 C   0  0  0  0  0  0  0  0  0  0  0  0
   57.8860   21.2190   43.7800 O   0  0  0  0  0  0  0  0  0  0  0  0
   58.9300   22.7370   45.2760 C   0  0  0  0  0  0  0  0  0  0  0  0
   59.9620   21.8370   45.5300 O   0  0  0  0  0  0  0  0  0  0  0  0
   58.9660   23.9520   45.9190 C   0  0  0  0  0  0  0  0  0  0  0  0
   56.4810   30.8090   44.5040 N   0  0  0  0  0  0  0  0  0  0  0  0
   57.2970   31.4870   45.0390 C   0  0  0  0  0  0  0  0  0  0  0  0
   58.3210   31.1740   45.8470 N   0  0  0  0  0  0  0  0  0  0  0  0
   59.1120   32.0620   46.3270 C   0  0  0  0  0  0  0  0  0  0  0  0
   58.9020   33.4060   46.0000 C   0  0  0  0  0  0  0  0  0  0  0  0
   59.6420   34.6160   46.3880 C   0  0  0  0  0  0  0  0  0  0  0  0
   60.4250   34.2720   47.6560 C   0  0  0  0  0  0  0  0  0  0  0  0
   59.7840   34.2660   48.8730 C   0  0  0  0  0  0  0  0  0  0  0  0
   60.5190   33.8410   49.9780 C   0  0  0  0  0  0  0  0  0  0  0  0
   61.8250   33.4600   49.7750 C   0  0  0  0  0  0  0  0  0  0  0  0
   62.4520   33.4750   48.5380 C   0  0  0  0  0  0  0  0  0  0  0  0
   64.1170   33.0140   48.3070 Cl  0  0  0  0  0  0  0  0  0  0  0  0
   61.7250   33.8960   47.4470 C   0  0  0  0  0  0  0  0  0  0  0  0
   57.4070   33.3670   44.8830 S   0  0  0  0  0  0  0  0  0  0  0  0
   58.2605   28.6206   42.8405 H   0  0  0  0  0  0  0  0  0  0  0  0
   58.4070   29.3937   44.5140 H   0  0  0  0  0  0  0  0  0  0  0  0
   56.7050   26.9540   44.1750 H   0  0  0  0  0  0  0  0  0  0  0  0
   58.9578   26.0881   47.0808 H   0  0  0  0  0  0  0  0  0  0  0  0
   57.1391   26.2883   46.9975 H   0  0  0  0  0  0  0  0  0  0  0  0
   56.1133   25.3570   44.6444 H   0  0  0  0  0  0  0  0  0  0  0  0
   56.0565   23.1735   43.4957 H   0  0  0  0  0  0  0  0  0  0  0  0
   58.5000   20.5060   44.1330 H   0  0  0  0  0  0  0  0  0  0  0  0
   59.8400   20.9000   45.1220 H   0  0  0  0  0  0  0  0  0  0  0  0
   59.7842   24.1947   46.6130 H   0  0  0  0  0  0  0  0  0  0  0  0
   58.4510   30.1140   46.0720 H   0  0  0  0  0  0  0  0  0  0  0  0
   59.9433   31.7713   46.9861 H   0  0  0  0  0  0  0  0  0  0  0  0
   60.3336   34.9101   45.5847 H   0  0  0  0  0  0  0  0  0  0  0  0
   58.9553   35.4568   46.5658 H   0  0  0  0  0  0  0  0  0  0  0  0
   58.7352   34.5834   48.9699 H   0  0  0  0  0  0  0  0  0  0  0  0
   60.0688   33.8111   50.9812 H   0  0  0  0  0  0  0  0  0  0  0  0
   62.4068   33.1233   50.6457 H   0  0  0  0  0  0  0  0  0  0  0  0
   62.1728   33.9291   46.4428 H   0  0  0  0  0  0  0  0  0  0  0  0
  1  2  2  0
  2  3  1  0
  3  4  1  0
  4  5  1  0
  5  6  2  0
  5  7  1  0
  7  8  1  0
  8  9  2  0
  9 10  1  0
 10 11  2  0
 11 12  1  0
 11 13  1  0
 13 14  1  0
 13 15  2  0
  2 16  1  0
 16 17  2  0
 17 18  1  0
 18 19  1  0
 19 20  2  0
 20 21  1  0
 21 22  1  0
 22 23  2  0
 23 24  1  0
 24 25  2  0
 25 26  1  0
 26 27  1  0
 26 28  2  0
 20 29  1  0
 15  8  1  0
 29 17  1  0
 28 22  1  0
  3 30  1  0
  3 31  1  0
  4 32  1  0
  7 33  1  0
  7 34  1  0
  9 35  1  0
 10 36  1  0
 12 37  1  0
 14 38  1  0
 15 39  1  0
 18 40  1  0
 19 41  1  0
 21 42  1  0
 21 43  1  0
 23 44  1  0
 24 45  1  0
 25 46  1  0
 28 47  1  0
M  END
>  <smiles>  (20) 
O=C(CNC(=O)Cc1ccc(O)c(O)c1)N=c1[nH]cc(Cc2cccc(Cl)c2)s1

>  <score_type>  (20) 
oracle

>  <origin>  (20) 
adg

>  <m_score__min__energy>  (20) 
-10.859999999999999

>  <m_primary>  (20) 
energy

$$$$
20:0
     RDKit          3D

 55 57  0  0  1  0  0  0  0  0999 V2000
   57.1530   30.6630   43.2310 C   0  0  0  0  0  0  0  0  0  0  0  0
   57.3590   30.9570   44.6730 C   0  0  0  0  0  0  0  0  0  0  0  0
   57.0430   30.1050   45.5280 O   0  0  0  0  0  0  0  0  0  0  0  0
   57.9260   32.2360   45.0710 C   0  0  0  0  0  0  0  0  0  0  0  0
   57.2120   33.4080   44.8860 C   0  0  0  0  0  0  0  0  0  0  0  0
   57.7860   34.6000   45.2780 C   0  0  0  0  0  0  0  0  0  0  0  0
   59.0450   34.6260   45.8410 C   0  0  0  0  0  0  0  0  0  0  0  0
   59.6110   35.8490   46.2320 O   0  0  0  0  0  0  0  0  0  0  0  0
   59.7890   33.4560   46.0380 C   0  0  0  0  0  0  0  0  0  0  0  0
   61.1180   33.5200   46.6370 C   0  0  0  0  0  0  0  0  0  0  0  0
   61.4120   33.1050   47.8420 C   0  0  0  0  0  0  0  0  0  0  0  0
   60.4970   33.6790   49.2170 S   0  0  0  0  0  0  0  0  0  0  0  0
   61.4820   34.2010   50.2240 O   0  0  0  0  0  0  0  0  0  0  0  0
   59.6110   34.8330   48.8530 O   0  0  0  0  0  0  0  0  0  0  0  0
   59.4860   32.4080   49.9380 C   0  0  0  0  0  0  0  0  0  0  0  0
   59.8080   31.0800   49.3450 C   0  0  0  0  0  0  0  0  0  0  0  0
   59.1730   30.7070   48.1670 C   0  0  0  0  0  0  0  0  0  0  0  0
   59.4090   29.5040   47.5510 C   0  0  0  0  0  0  0  0  0  0  0  0
   60.3240   28.6260   48.1380 C   0  0  0  0  0  0  0  0  0  0  0  0
   60.5220   27.4250   47.4730 O   0  0  0  0  0  0  0  0  0  0  0  0
   59.4490   26.7690   46.9340 C   0  0  0  0  0  0  0  0  0  0  0  0
   58.5610   26.1180   47.7970 C   0  0  0  0  0  0  0  0  0  0  0  0
   57.4640   25.4440   47.3070 C   0  0  0  0  0  0  0  0  0  0  0  0
   57.2220   25.3970   45.9390 C   0  0  0  0  0  0  0  0  0  0  0  0
   55.8350   24.5440   45.3140 S   0  0  0  0  0  0  0  0  0  0  0  0
   55.9470   24.2530   43.6190 N   0  0  0  0  0  0  0  0  0  0  0  0
   54.6050   25.3570   45.6200 O   0  0  0  0  0  0  0  0  0  0  0  0
   55.6690   23.2050   45.9970 O   0  0  0  0  0  0  0  0  0  0  0  0
   58.1120   26.0500   45.0850 C   0  0  0  0  0  0  0  0  0  0  0  0
   57.8350   25.9820   43.7230 O   0  0  0  0  0  0  0  0  0  0  0  0
   59.2130   26.7270   45.5780 C   0  0  0  0  0  0  0  0  0  0  0  0
   60.9730   28.9640   49.3070 C   0  0  0  0  0  0  0  0  0  0  0  0
   60.6920   30.2030   49.8870 C   0  0  0  0  0  0  0  0  0  0  0  0
   59.1900   32.2910   45.6400 C   0  0  0  0  0  0  0  0  0  0  0  0
   56.5247   29.7663   43.1257 H   0  0  0  0  0  0  0  0  0  0  0  0
   56.6554   31.5179   42.7499 H   0  0  0  0  0  0  0  0  0  0  0  0
   58.1265   30.4872   42.7499 H   0  0  0  0  0  0  0  0  0  0  0  0
   56.2084   33.3891   44.4360 H   0  0  0  0  0  0  0  0  0  0  0  0
   57.2330   35.5408   45.1399 H   0  0  0  0  0  0  0  0  0  0  0  0
   59.4490   36.1960   47.1700 H   0  0  0  0  0  0  0  0  0  0  0  0
   61.9308   33.9479   46.0318 H   0  0  0  0  0  0  0  0  0  0  0  0
   62.2371   32.3929   47.9908 H   0  0  0  0  0  0  0  0  0  0  0  0
   59.6682   32.3732   51.0222 H   0  0  0  0  0  0  0  0  0  0  0  0
   58.4297   32.6390   49.7360 H   0  0  0  0  0  0  0  0  0  0  0  0
   58.4535   31.4028   47.7107 H   0  0  0  0  0  0  0  0  0  0  0  0
   58.8908   29.2372   46.6181 H   0  0  0  0  0  0  0  0  0  0  0  0
   58.7412   26.1447   48.8818 H   0  0  0  0  0  0  0  0  0  0  0  0
   56.7760   24.9404   48.0019 H   0  0  0  0  0  0  0  0  0  0  0  0
   56.8290   23.7650   43.3630 H   0  0  0  0  0  0  0  0  0  0  0  0
   55.8670   25.1920   43.1560 H   0  0  0  0  0  0  0  0  0  0  0  0
   56.8950   26.2010   43.4350 H   0  0  0  0  0  0  0  0  0  0  0  0
   59.9016   27.2329   44.8852 H   0  0  0  0  0  0  0  0  0  0  0  0
   61.6940   28.2749   49.7710 H   0  0  0  0  0  0  0  0  0  0  0  0
   61.2067   30.4793   50.8191 H   0  0  0  0  0  0  0  0  0  0  0  0
   59.7402   31.3486   45.7788 H   0  0  0  0  0  0  0  0  0  0  0  0
  1  2  1  0
  2  3  2  0
  2  4  1  0
  4  5  2  0
  5  6  1  0
  6  7  2  0
  7  8  1  0
  7  9  1  0
  9 10  1  0
 10 11  2  0
 11 12  1  0
 12 13  2  0
 12 14  2  0
 12 15  1  0
 15 16  1  0
 16 17  2  0
 17 18  1  0
 18 19  2  0
 19 20  1  0
 20 21  1  0
 21 22  2  0
 22 23  1  0
 23 24  2  0
 24 25  1  0
 25 26  1  0
 25 27  2  0
 25 28  2  0
 24 29  1  0
 29 30  1  0
 29 31  2  0
 19 32  1  0
 32 33  2  0
  9 34  2  0
 34  4  1  0
 33 16  1  0
 31 21  1  0
  1 35  1  0
  1 36  1  0
  1 37  1  0
  5 38  1  0
  6 39  1  0
  8 40  1  0
 10 41  1  0
 11 42  1  0
 15 43  1  0
 15 44  1  0
 17 45  1  0
 18 46  1  0
 22 47  1  0
 23 48  1  0
 26 49  1  0
 26 50  1  0
 30 51  1  0
 31 52  1  0
 32 53  1  0
 33 54  1  0
 34 55  1  0
M  END
>  <smiles>  (21) 
CC(=O)c1ccc(O)c(C=CS(=O)(=O)Cc2ccc(Oc3ccc(S(N)(=O)=O)c(O)c3)cc2)c1

>  <score_type>  (21) 
oracle

>  <origin>  (21) 
adg

>  <m_score__min__energy>  (21) 
-10.07

>  <m_primary>  (21) 
energy

$$$$
21:0
     RDKit          3D

 61 64  0  0  0  0  0  0  0  0999 V2000
   57.7280   28.6240   44.9750 O   0  0  0  0  0  0  0  0  0  0  0  0
   58.1190   28.6460   46.1350 C   0  0  0  0  0  0  0  0  0  0  0  0
   58.3140   27.4250   46.8160 N   0  0  0  0  0  0  0  0  0  0  0  0
   58.1100   26.1280   46.3110 C   0  0  0  0  0  0  0  0  0  0  0  0
   59.0940   25.2200   46.0130 C   0  0  0  0  0  0  0  0  0  0  0  0
   58.8180   23.9450   45.5120 C   0  0  0  0  0  0  0  0  0  0  0  0
   57.5010   23.5800   45.3070 C   0  0  0  0  0  0  0  0  0  0  0  0
   57.2230   22.0060   44.6030 Cl  0  0  0  0  0  0  0  0  0  0  0  0
   56.4870   24.4500   45.5910 C   0  0  0  0  0  0  0  0  0  0  0  0
   54.7870   24.0790   45.4540 S   0  0  0  0  0  0  0  0  0  0  0  0
   54.5000   23.6710   44.0010 O   0  0  0  0  0  0  0  0  0  0  0  0
   53.9670   25.3640   45.6200 O   0  0  0  0  0  0  0  0  0  0  0  0
   54.1940   22.8600   46.4390 N   0  0  0  0  0  0  0  0  0  0  0  0
   54.6730   22.8990   47.7760 C   0  0  0  0  0  0  0  0  0  0  0  0
   54.2420   21.6140   48.5090 C   0  0  0  0  0  0  0  0  0  0  0  0
   52.8710   21.5680   48.5450 O   0  0  0  0  0  0  0  0  0  0  0  0
   52.3370   21.5300   47.2570 C   0  0  0  0  0  0  0  0  0  0  0  0
   52.7570   22.7350   46.4450 C   0  0  0  0  0  0  0  0  0  0  0  0
   56.8040   25.7080   46.0870 C   0  0  0  0  0  0  0  0  0  0  0  0
   58.3660   29.8730   46.7710 N   0  0  0  0  0  0  0  0  0  0  0  0
   58.2330   31.1780   46.2880 C   0  0  0  0  0  0  0  0  0  0  0  0
   58.9850   32.1700   46.9290 C   0  0  0  0  0  0  0  0  0  0  0  0
   58.9430   33.4920   46.5610 C   0  0  0  0  0  0  0  0  0  0  0  0
   59.9040   34.6610   47.4020 S   0  0  0  0  0  0  0  0  0  0  0  0
   59.8120   35.9670   46.6780 O   0  0  0  0  0  0  0  0  0  0  0  0
   59.3720   34.9220   48.8020 O   0  0  0  0  0  0  0  0  0  0  0  0
   61.5400   34.2200   47.5580 N   0  0  0  0  0  0  0  0  0  0  0  0
   62.0180   34.1820   48.9010 C   0  0  0  0  0  0  0  0  0  0  0  0
   62.2920   32.8020   49.4130 C   0  0  0  0  0  0  0  0  0  0  0  0
   63.0300   32.0670   48.4710 O   0  0  0  0  0  0  0  0  0  0  0  0
   62.1340   31.8500   47.4010 C   0  0  0  0  0  0  0  0  0  0  0  0
   61.9780   33.1670   46.7050 C   0  0  0  0  0  0  0  0  0  0  0  0
   58.1480   33.9220   45.5240 C   0  0  0  0  0  0  0  0  0  0  0  0
   57.3990   32.9750   44.8770 C   0  0  0  0  0  0  0  0  0  0  0  0
   57.4440   31.6180   45.2580 C   0  0  0  0  0  0  0  0  0  0  0  0
   56.6420   30.7920   44.5220 O   0  0  0  0  0  0  0  0  0  0  0  0
   58.6510   27.4990   47.8120 H   0  0  0  0  0  0  0  0  0  0  0  0
   60.1434   25.5073   46.1750 H   0  0  0  0  0  0  0  0  0  0  0  0
   59.6348   23.2441   45.2848 H   0  0  0  0  0  0  0  0  0  0  0  0
   55.7708   22.9686   47.7711 H   0  0  0  0  0  0  0  0  0  0  0  0
   54.2544   23.7756   48.2920 H   0  0  0  0  0  0  0  0  0  0  0  0
   54.6281   20.7346   47.9728 H   0  0  0  0  0  0  0  0  0  0  0  0
   54.6445   21.6130   49.5327 H   0  0  0  0  0  0  0  0  0  0  0  0
   52.6886   20.6185   46.7514 H   0  0  0  0  0  0  0  0  0  0  0  0
   51.2401   21.5352   47.3388 H   0  0  0  0  0  0  0  0  0  0  0  0
   52.3988   22.6186   45.4115 H   0  0  0  0  0  0  0  0  0  0  0  0
   52.3216   23.6390   46.8958 H   0  0  0  0  0  0  0  0  0  0  0  0
   55.9832   26.4045   46.3131 H   0  0  0  0  0  0  0  0  0  0  0  0
   58.7060   29.7840   47.7790 H   0  0  0  0  0  0  0  0  0  0  0  0
   59.6382   31.8772   47.7642 H   0  0  0  0  0  0  0  0  0  0  0  0
   62.9518   34.7612   48.9519 H   0  0  0  0  0  0  0  0  0  0  0  0
   61.2223   34.6029   49.5332 H   0  0  0  0  0  0  0  0  0  0  0  0
   62.8655   32.8702   50.3492 H   0  0  0  0  0  0  0  0  0  0  0  0
   61.3342   32.2916   49.5922 H   0  0  0  0  0  0  0  0  0  0  0  0
   62.5435   31.1000   46.7083 H   0  0  0  0  0  0  0  0  0  0  0  0
   61.1658   31.4733   47.7624 H   0  0  0  0  0  0  0  0  0  0  0  0
   62.9507   33.4500   46.2763 H   0  0  0  0  0  0  0  0  0  0  0  0
   61.2020   33.0333   45.9369 H   0  0  0  0  0  0  0  0  0  0  0  0
   58.1152   34.9807   45.2271 H   0  0  0  0  0  0  0  0  0  0  0  0
   56.7492   33.2793   44.0432 H   0  0  0  0  0  0  0  0  0  0  0  0
   56.8870   29.9260   44.0840 H   0  0  0  0  0  0  0  0  0  0  0  0
  1  2  2  0
  2  3  1  0
  3  4  1  0
  4  5  2  0
  5  6  1  0
  6  7  2  0
  7  8  1  0
  7  9  1  0
  9 10  1  0
 10 11  2  0
 10 12  2  0
 10 13  1  0
 13 14  1  0
 14 15  1  0
 15 16  1  0
 16 17  1  0
 17 18  1  0
  9 19  2  0
  2 20  1  0
 20 21  1  0
 21 22  2  0
 22 23  1  0
 23 24  1  0
 24 25  2  0
 24 26  2  0
 24 27  1  0
 27 28  1  0
 28 29  1  0
 29 30  1  0
 30 31  1  0
 31 32  1  0
 23 33  2  0
 33 34  1  0
 34 35  2  0
 35 36  1  0
 19  4  1  0
 35 21  1  0
 18 13  1  0
 32 27  1  0
  3 37  1  0
  5 38  1  0
  6 39  1  0
 14 40  1  0
 14 41  1  0
 15 42  1  0
 15 43  1  0
 17 44  1  0
 17 45  1  0
 18 46  1  0
 18 47  1  0
 19 48  1  0
 20 49  1  0
 22 50  1  0
 28 51  1  0
 28 52  1  0
 29 53  1  0
 29 54  1  0
 31 55  1  0
 31 56  1  0
 32 57  1  0
 32 58  1  0
 33 59  1  0
 34 60  1  0
 36 61  1  0
M  END
>  <smiles>  (22) 
O=C(Nc1ccc(Cl)c(S(=O)(=O)N2CCOCC2)c1)Nc1cc(S(=O)(=O)N2CCOCC2)ccc1O

>  <score_type>  (22) 
oracle

>  <origin>  (22) 
adg

>  <m_score__min__energy>  (22) 
-10.779999999999999

>  <m_primary>  (22) 
energy

$$$$
22:0
     RDKit          3D

 39 41  0  0  1  0  0  0  0  0999 V2000
   59.6440   35.3420   46.0530 C   0  0  0  0  0  0  0  0  0  0  0  0
   58.8190   34.1450   45.7400 C   0  0  0  0  0  0  0  0  0  0  0  0
   58.2690   33.3460   46.7280 C   0  0  0  0  0  0  0  0  0  0  0  0
   57.5920   32.3640   46.1340 N   0  0  0  0  0  0  0  0  0  0  0  0
   57.6890   32.5060   44.7810 C   0  0  0  0  0  0  0  0  0  0  0  0
   57.0580   31.5910   43.7630 C   0  0  0  0  0  0  0  0  0  0  0  0
   56.6410   30.4160   44.5030 N   0  0  0  0  0  0  0  0  0  0  0  0
   57.3750   29.4080   44.7510 C   0  0  0  0  0  0  0  0  0  0  0  0
   58.7390   29.5520   44.6930 C   0  0  0  0  0  0  0  0  0  0  0  0
   59.5460   28.4650   44.9600 C   0  0  0  0  0  0  0  0  0  0  0  0
   61.0360   28.6110   44.8980 C   0  0  0  0  0  0  0  0  0  0  0  0
   58.9640   27.3160   45.2670 N   0  0  0  0  0  0  0  0  0  0  0  0
   57.6130   27.1450   45.3330 C   0  0  0  0  0  0  0  0  0  0  0  0
   57.1160   25.8390   45.6790 C   0  0  0  0  0  0  0  0  0  0  0  0
   55.7900   25.4670   45.9270 C   0  0  0  0  0  0  0  0  0  0  0  0
   54.6820   26.3070   45.8850 O   0  0  0  0  0  0  0  0  0  0  0  0
   55.7400   24.1250   46.2250 C   0  0  0  0  0  0  0  0  0  0  0  0
   56.9860   23.6570   46.1690 N   0  0  0  0  0  0  0  0  0  0  0  0
   57.8270   24.6630   45.8440 C   0  0  0  0  0  0  0  0  0  0  0  0
   59.1900   24.4760   45.7120 O   0  0  0  0  0  0  0  0  0  0  0  0
   56.8700   28.2180   45.0680 N   0  0  0  0  0  0  0  0  0  0  0  0
   58.4590   33.6230   44.5160 C   0  0  0  0  0  0  0  0  0  0  0  0
   59.7235   35.4574   47.1440 H   0  0  0  0  0  0  0  0  0  0  0  0
   60.6489   35.2173   45.6232 H   0  0  0  0  0  0  0  0  0  0  0  0
   59.1698   36.2367   45.6232 H   0  0  0  0  0  0  0  0  0  0  0  0
   58.3727   33.4956   47.8128 H   0  0  0  0  0  0  0  0  0  0  0  0
   57.0480   31.5740   46.5770 H   0  0  0  0  0  0  0  0  0  0  0  0
   56.1902   32.0780   43.2942 H   0  0  0  0  0  0  0  0  0  0  0  0
   57.7585   31.3361   42.9541 H   0  0  0  0  0  0  0  0  0  0  0  0
   59.1843   30.5245   44.4362 H   0  0  0  0  0  0  0  0  0  0  0  0
   61.4433   28.6509   45.9190 H   0  0  0  0  0  0  0  0  0  0  0  0
   61.4668   27.7508   44.3647 H   0  0  0  0  0  0  0  0  0  0  0  0
   61.2917   29.5385   44.3647 H   0  0  0  0  0  0  0  0  0  0  0  0
   53.8460   25.9670   46.3710 H   0  0  0  0  0  0  0  0  0  0  0  0
   54.8369   23.5448   46.4654 H   0  0  0  0  0  0  0  0  0  0  0  0
   57.2510   22.6600   46.3520 H   0  0  0  0  0  0  0  0  0  0  0  0
   59.8630   25.1780   45.5010 H   0  0  0  0  0  0  0  0  0  0  0  0
   55.8330   28.1230   45.1090 H   0  0  0  0  0  0  0  0  0  0  0  0
   58.7305   34.0169   43.5255 H   0  0  0  0  0  0  0  0  0  0  0  0
  1  2  1  0
  2  3  2  0
  3  4  1  0
  4  5  1  0
  5  6  1  0
  6  7  1  0
  7  8  2  0
  8  9  1  0
  9 10  2  0
 10 11  1  0
 10 12  1  0
 12 13  2  0
 13 14  1  0
 14 15  1  0
 15 16  1  0
 15 17  2  0
 17 18  1  0
 18 19  1  0
 19 20  1  0
 13 21  1  0
  5 22  2  0
 22  2  1  0
 21  8  1  0
 19 14  2  0
  1 23  1  0
  1 24  1  0
  1 25  1  0
  3 26  1  0
  4 27  1  0
  6 28  1  0
  6 29  1  0
  9 30  1  0
 11 31  1  0
 11 32  1  0
 11 33  1  0
 16 34  1  0
 17 35  1  0
 18 36  1  0
 20 37  1  0
 21 38  1  0
 22 39  1  0
M  END
>  <smiles>  (23) 
Cc1c[nH]c(CN=c2cc(C)nc(-c3c(O)c[nH]c3O)[nH]2)c1

>  <score_type>  (23) 
oracle

>  <origin>  (23) 
adg

>  <m_score__min__energy>  (23) 
-8.0399999999999991

>  <m_primary>  (23) 
energy

$$$$
23:0
     RDKit          3D

 32 33  0  0  0  0  0  0  0  0999 V2000
   55.0570   26.0950   45.9400 N   0  0  0  0  0  0  0  0  0  0  0  0
   56.3350   25.7630   46.4830 C   0  0  0  0  0  0  0  0  0  0  0  0
   56.4270   24.8470   47.3410 O   0  0  0  0  0  0  0  0  0  0  0  0
   57.4840   26.5240   45.9990 C   0  0  0  0  0  0  0  0  0  0  0  0
   58.7870   26.0520   46.1040 C   0  0  0  0  0  0  0  0  0  0  0  0
   59.8790   26.7460   45.6590 C   0  0  0  0  0  0  0  0  0  0  0  0
   59.7220   27.9680   45.0750 C   0  0  0  0  0  0  0  0  0  0  0  0
   58.4310   28.4780   44.9480 C   0  0  0  0  0  0  0  0  0  0  0  0
   58.3150   29.7490   44.3370 N   0  0  0  0  0  0  0  0  0  0  0  0
   57.8100   30.8610   45.0280 C   0  0  0  0  0  0  0  0  0  0  0  0
   57.4530   30.7180   46.2190 O   0  0  0  0  0  0  0  0  0  0  0  0
   57.7140   32.1750   44.3240 C   0  0  0  0  0  0  0  0  0  0  0  0
   58.2900   33.2730   45.1250 C   0  0  0  0  0  0  0  0  0  0  0  0
   58.8710   34.4400   44.6300 C   0  0  0  0  0  0  0  0  0  0  0  0
   59.2740   35.1880   45.6590 N   0  0  0  0  0  0  0  0  0  0  0  0
   58.9560   34.5120   46.7670 C   0  0  0  0  0  0  0  0  0  0  0  0
   59.1950   34.9320   47.9290 O   0  0  0  0  0  0  0  0  0  0  0  0
   58.3540   33.3420   46.4670 N   0  0  0  0  0  0  0  0  0  0  0  0
   57.3350   27.7640   45.4050 C   0  0  0  0  0  0  0  0  0  0  0  0
   56.0610   28.3260   45.2520 O   0  0  0  0  0  0  0  0  0  0  0  0
   54.7690   27.1140   45.9520 H   0  0  0  0  0  0  0  0  0  0  0  0
   54.4110   25.3890   45.5410 H   0  0  0  0  0  0  0  0  0  0  0  0
   58.9489   25.0686   46.5694 H   0  0  0  0  0  0  0  0  0  0  0  0
   60.8856   26.3172   45.7726 H   0  0  0  0  0  0  0  0  0  0  0  0
   60.5915   28.5366   44.7135 H   0  0  0  0  0  0  0  0  0  0  0  0
   58.6200   29.8550   43.3300 H   0  0  0  0  0  0  0  0  0  0  0  0
   58.2577   32.1078   43.3701 H   0  0  0  0  0  0  0  0  0  0  0  0
   56.6491   32.3960   44.1593 H   0  0  0  0  0  0  0  0  0  0  0  0
   58.9792   34.7009   43.5669 H   0  0  0  0  0  0  0  0  0  0  0  0
   59.7510   36.1300   45.6000 H   0  0  0  0  0  0  0  0  0  0  0  0
   58.0040   32.6210   47.1290 H   0  0  0  0  0  0  0  0  0  0  0  0
   55.9470   29.2630   45.6230 H   0  0  0  0  0  0  0  0  0  0  0  0
  1  2  1  0
  2  3  2  0
  2  4  1  0
  4  5  2  0
  5  6  1  0
  6  7  2  0
  7  8  1  0
  8  9  1  0
  9 10  1  0
 10 11  2  0
 10 12  1  0
 12 13  1  0
 13 14  2  0
 14 15  1  0
 15 16  1  0
 16 17  2  0
 16 18  1  0
  8 19  2  0
 19 20  1  0
 19  4  1  0
 18 13  1  0
  1 21  1  0
  1 22  1  0
  5 23  1  0
  6 24  1  0
  7 25  1  0
  9 26  1  0
 12 27  1  0
 12 28  1  0
 14 29  1  0
 15 30  1  0
 18 31  1  0
 20 32  1  0
M  END
>  <smiles>  (24) 
NC(=O)c1cccc(NC(=O)Cc2c[nH]c(=O)[nH]2)c1O

>  <score_type>  (24) 
oracle

>  <origin>  (24) 
adg

>  <m_score__min__energy>  (24) 
-7.8499999999999996

>  <m_primary>  (24) 
energy

$$$$
24:0
     RDKit          3D

 24 25  0  0  1  0  0  0  0  0999 V2000
   60.3760   28.2690   45.3490 C   0  0  0  0  0  0  0  0  0  0  0  0
   59.2260   28.8530   45.1300 C   0  0  0  0  0  0  0  0  0  0  0  0
   59.0320   30.1950   45.4470 C   0  0  0  0  0  0  0  0  0  0  0  0
   60.0120   30.8290   45.9570 O   0  0  0  0  0  0  0  0  0  0  0  0
   57.8680   30.8230   45.2350 N   0  0  0  0  0  0  0  0  0  0  0  0
   56.8220   30.1910   44.7040 C   0  0  0  0  0  0  0  0  0  0  0  0
   55.7540   30.8160   44.5240 O   0  0  0  0  0  0  0  0  0  0  0  0
   56.9790   28.8920   44.3860 N   0  0  0  0  0  0  0  0  0  0  0  0
   58.1250   28.2160   44.5770 C   0  0  0  0  0  0  0  0  0  0  0  0
   58.2020   26.9410   44.2400 C   0  0  0  0  0  0  0  0  0  0  0  0
   57.6090   25.9660   45.1650 C   0  0  0  0  0  0  0  0  0  0  0  0
   58.3820   24.4130   45.6480 S   0  0  0  0  0  0  0  0  0  0  0  0
   56.9580   23.9900   46.7210 C   0  0  0  0  0  0  0  0  0  0  0  0
   56.8930   22.8840   47.4210 O   0  0  0  0  0  0  0  0  0  0  0  0
   56.0910   25.0180   46.6090 N   0  0  0  0  0  0  0  0  0  0  0  0
   56.4330   25.9970   45.8260 C   0  0  0  0  0  0  0  0  0  0  0  0
   55.5620   27.1330   45.6500 O   0  0  0  0  0  0  0  0  0  0  0  0
   60.5117   27.2080   45.0925 H   0  0  0  0  0  0  0  0  0  0  0  0
   61.2072   28.8390   45.7897 H   0  0  0  0  0  0  0  0  0  0  0  0
   57.8290   31.8450   45.5140 H   0  0  0  0  0  0  0  0  0  0  0  0
   56.1380   28.4210   43.9690 H   0  0  0  0  0  0  0  0  0  0  0  0
   58.6894   26.6230   43.3065 H   0  0  0  0  0  0  0  0  0  0  0  0
   55.1760   24.9740   47.1630 H   0  0  0  0  0  0  0  0  0  0  0  0
   54.7700   27.0830   45.0390 H   0  0  0  0  0  0  0  0  0  0  0  0
  1  2  2  0
  2  3  1  0
  3  4  2  0
  3  5  1  0
  5  6  1  0
  6  7  2  0
  6  8  1  0
  8  9  1  0
  9 10  2  0
 10 11  1  0
 11 12  1  0
 12 13  1  0
 13 14  2  0
 13 15  1  0
 15 16  1  0
 16 17  1  0
  9  2  1  0
 16 11  2  0
  1 18  1  0
  1 19  1  0
  5 20  1  0
  8 21  1  0
 10 22  1  0
 15 23  1  0
 17 24  1  0
M  END
>  <smiles>  (25) 
C=c1c(=O)[nH]c(=O)[nH]c1=Cc1sc(=O)[nH]c1O

>  <score_type>  (25) 
oracle

>  <origin>  (25) 
adg

>  <m_score__min__energy>  (25) 
-7.1200000000000001

>  <m_primary>  (25) 
energy

$$$$
25:0
     RDKit          3D

 55 59  0  0  0  0  0  0  0  0999 V2000
   58.1330   25.4850   47.0550 C   0  0  0  0  0  0  0  0  0  0  0  0
   57.7350   24.9380   45.6910 C   0  0  0  0  0  0  0  0  0  0  0  0
   57.8370   25.7950   44.6010 C   0  0  0  0  0  0  0  0  0  0  0  0
   58.2700   27.2030   44.5680 C   0  0  0  0  0  0  0  0  0  0  0  0
   59.4380   27.5030   44.8090 O   0  0  0  0  0  0  0  0  0  0  0  0
   57.3210   28.1870   44.2560 N   0  0  0  0  0  0  0  0  0  0  0  0
   57.5290   29.5770   44.1710 C   0  0  0  0  0  0  0  0  0  0  0  0
   57.1480   30.3800   43.1260 C   0  0  0  0  0  0  0  0  0  0  0  0
   57.3900   31.7480   43.1180 C   0  0  0  0  0  0  0  0  0  0  0  0
   58.0300   32.3510   44.1760 C   0  0  0  0  0  0  0  0  0  0  0  0
   58.4250   31.5710   45.2400 C   0  0  0  0  0  0  0  0  0  0  0  0
   59.1050   32.1610   46.3850 C   0  0  0  0  0  0  0  0  0  0  0  0
   59.5260   31.4050   47.3140 O   0  0  0  0  0  0  0  0  0  0  0  0
   59.3400   33.5460   46.5490 N   0  0  0  0  0  0  0  0  0  0  0  0
   60.0080   34.1500   47.6650 C   0  0  0  0  0  0  0  0  0  0  0  0
   61.4300   33.7960   47.8080 C   0  0  0  0  0  0  0  0  0  0  0  0
   62.2670   33.4760   46.7630 C   0  0  0  0  0  0  0  0  0  0  0  0
   63.5810   33.1690   47.0520 C   0  0  0  0  0  0  0  0  0  0  0  0
   64.0960   33.1680   48.3310 C   0  0  0  0  0  0  0  0  0  0  0  0
   63.2590   33.4890   49.3770 C   0  0  0  0  0  0  0  0  0  0  0  0
   61.9440   33.7970   49.1080 C   0  0  0  0  0  0  0  0  0  0  0  0
   58.1750   30.2180   45.2260 C   0  0  0  0  0  0  0  0  0  0  0  0
   57.3160   24.8440   43.1790 S   0  0  0  0  0  0  0  0  0  0  0  0
   56.9970   23.3590   44.1490 C   0  0  0  0  0  0  0  0  0  0  0  0
   56.5490   22.1460   43.7460 N   0  0  0  0  0  0  0  0  0  0  0  0
   56.3750   21.1720   44.6320 C   0  0  0  0  0  0  0  0  0  0  0  0
   56.6590   21.4460   45.9170 N   0  0  0  0  0  0  0  0  0  0  0  0
   57.1050   22.6350   46.3540 C   0  0  0  0  0  0  0  0  0  0  0  0
   57.3270   22.7480   47.5760 O   0  0  0  0  0  0  0  0  0  0  0  0
   57.3010   23.6920   45.4360 C   0  0  0  0  0  0  0  0  0  0  0  0
   56.3960   20.2350   46.6940 C   0  0  0  0  0  0  0  0  0  0  0  0
   55.3030   19.5760   45.8840 C   0  0  0  0  0  0  0  0  0  0  0  0
   55.9040   19.7710   44.4820 C   0  0  0  0  0  0  0  0  0  0  0  0
   57.6822   24.8654   47.8443 H   0  0  0  0  0  0  0  0  0  0  0  0
   59.2284   25.4640   47.1531 H   0  0  0  0  0  0  0  0  0  0  0  0
   57.7759   26.5208   47.1531 H   0  0  0  0  0  0  0  0  0  0  0  0
   56.3350   27.8420   44.0630 H   0  0  0  0  0  0  0  0  0  0  0  0
   56.6340   29.9257   42.2661 H   0  0  0  0  0  0  0  0  0  0  0  0
   57.0672   32.3540   42.2586 H   0  0  0  0  0  0  0  0  0  0  0  0
   58.2223   33.4341   44.1722 H   0  0  0  0  0  0  0  0  0  0  0  0
   58.9900   34.1750   45.7790 H   0  0  0  0  0  0  0  0  0  0  0  0
   59.9382   35.2421   47.5536 H   0  0  0  0  0  0  0  0  0  0  0  0
   59.5053   33.7686   48.5660 H   0  0  0  0  0  0  0  0  0  0  0  0
   61.8987   33.4653   45.7265 H   0  0  0  0  0  0  0  0  0  0  0  0
   64.2520   32.9119   46.2192 H   0  0  0  0  0  0  0  0  0  0  0  0
   65.1515   32.9165   48.5121 H   0  0  0  0  0  0  0  0  0  0  0  0
   63.6351   33.4991   50.4107 H   0  0  0  0  0  0  0  0  0  0  0  0
   61.2759   34.0523   49.9438 H   0  0  0  0  0  0  0  0  0  0  0  0
   58.4999   29.6151   46.0868 H   0  0  0  0  0  0  0  0  0  0  0  0
   57.2896   19.5964   46.7543 H   0  0  0  0  0  0  0  0  0  0  0  0
   56.1178   20.4299   47.7402 H   0  0  0  0  0  0  0  0  0  0  0  0
   55.1831   18.5126   46.1386 H   0  0  0  0  0  0  0  0  0  0  0  0
   54.2913   19.9827   46.0293 H   0  0  0  0  0  0  0  0  0  0  0  0
   56.7328   19.0746   44.2867 H   0  0  0  0  0  0  0  0  0  0  0  0
   55.2195   19.5865   43.6409 H   0  0  0  0  0  0  0  0  0  0  0  0
  1  2  1  0
  2  3  2  0
  3  4  1  0
  4  5  2  0
  4  6  1  0
  6  7  1  0
  7  8  2  0
  8  9  1  0
  9 10  2  0
 10 11  1  0
 11 12  1  0
 12 13  2  0
 12 14  1  0
 14 15  1  0
 15 16  1  0
 16 17  2  0
 17 18  1  0
 18 19  2  0
 19 20  1  0
 20 21  2  0
 11 22  2  0
  3 23  1  0
 23 24  1  0
 24 25  1  0
 25 26  2  0
 26 27  1  0
 27 28  1  0
 28 29  2  0
 28 30  1  0
 27 31  1  0
 31 32  1  0
 32 33  1  0
 30  2  1  0
 22  7  1  0
 30 24  2  0
 21 16  1  0
 33 26  1  0
  1 34  1  0
  1 35  1  0
  1 36  1  0
  6 37  1  0
  8 38  1  0
  9 39  1  0
 10 40  1  0
 14 41  1  0
 15 42  1  0
 15 43  1  0
 17 44  1  0
 18 45  1  0
 19 46  1  0
 20 47  1  0
 21 48  1  0
 22 49  1  0
 31 50  1  0
 31 51  1  0
 32 52  1  0
 32 53  1  0
 33 54  1  0
 33 55  1  0
M  END
>  <smiles>  (26) 
Cc1c(C(=O)Nc2cccc(C(=O)NCc3ccccc3)c2)sc2nc3n(c(=O)c12)CCC3

>  <score_type>  (26) 
oracle

>  <origin>  (26) 
adg

>  <m_score__min__energy>  (26) 
-9.5800000000000001

>  <m_primary>  (26) 
energy

$$$$
26:0
     RDKit          3D

 60 63  0  0  1  0  0  0  0  0999 V2000
   58.4420   26.4620   47.3270 C   0  0  0  0  0  0  0  0  0  0  0  0
   58.1440   27.3680   46.4300 C   0  0  0  0  0  0  0  0  0  0  0  0
   57.7510   27.2260   45.1190 C   0  0  0  0  0  0  0  0  0  0  0  0
   57.5920   26.1020   44.4640 C   0  0  0  0  0  0  0  0  0  0  0  0
   56.8050   24.9680   44.9060 C   0  0  0  0  0  0  0  0  0  0  0  0
   57.0820   23.6360   44.8030 N   0  0  0  0  0  0  0  0  0  0  0  0
   56.0740   22.9920   45.3950 C   0  0  0  0  0  0  0  0  0  0  0  0
   55.8990   21.7500   45.5430 O   0  0  0  0  0  0  0  0  0  0  0  0
   55.1570   23.8780   45.8780 N   0  0  0  0  0  0  0  0  0  0  0  0
   55.5890   25.1240   45.5850 C   0  0  0  0  0  0  0  0  0  0  0  0
   54.9560   26.3280   45.8940 O   0  0  0  0  0  0  0  0  0  0  0  0
   57.5380   28.4680   44.5450 C   0  0  0  0  0  0  0  0  0  0  0  0
   57.8100   29.3760   45.5380 C   0  0  0  0  0  0  0  0  0  0  0  0
   57.7230   30.8150   45.3920 C   0  0  0  0  0  0  0  0  0  0  0  0
   56.6510   31.2700   44.8830 O   0  0  0  0  0  0  0  0  0  0  0  0
   58.7100   31.7350   45.7590 N   0  0  0  0  0  0  0  0  0  0  0  0
   60.0010   31.3630   46.3590 C   0  0  0  0  0  0  0  0  0  0  0  0
   60.1790   32.2210   47.5890 C   0  0  0  0  0  0  0  0  0  0  0  0
   60.3180   33.6500   47.1940 C   0  0  0  0  0  0  0  0  0  0  0  0
   61.5550   34.2110   47.5150 O   0  0  0  0  0  0  0  0  0  0  0  0
   62.4280   33.9030   48.5050 C   0  0  0  0  0  0  0  0  0  0  0  0
   62.3100   34.2390   49.8340 C   0  0  0  0  0  0  0  0  0  0  0  0
   63.2350   33.8960   50.7970 C   0  0  0  0  0  0  0  0  0  0  0  0
   64.3570   33.1750   50.4440 C   0  0  0  0  0  0  0  0  0  0  0  0
   64.5020   32.8250   49.1210 C   0  0  0  0  0  0  0  0  0  0  0  0
   63.5680   33.1710   48.1470 C   0  0  0  0  0  0  0  0  0  0  0  0
   63.7670   32.7690   46.7300 C   0  0  0  0  0  0  0  0  0  0  0  0
   59.9240   33.8480   45.7650 C   0  0  0  0  0  0  0  0  0  0  0  0
   58.5490   33.1850   45.5750 C   0  0  0  0  0  0  0  0  0  0  0  0
   58.1660   28.7040   46.6420 N   0  0  0  0  0  0  0  0  0  0  0  0
   58.5200   29.3740   47.8830 C   0  0  0  0  0  0  0  0  0  0  0  0
   59.9140   28.9120   48.2800 C   0  0  0  0  0  0  0  0  0  0  0  0
   58.7401   26.7686   48.3405 H   0  0  0  0  0  0  0  0  0  0  0  0
   58.3943   25.3942   47.0671 H   0  0  0  0  0  0  0  0  0  0  0  0
   58.1008   26.0112   43.4930 H   0  0  0  0  0  0  0  0  0  0  0  0
   57.9190   23.2200   44.3480 H   0  0  0  0  0  0  0  0  0  0  0  0
   54.2730   23.7060   46.3810 H   0  0  0  0  0  0  0  0  0  0  0  0
   54.0530   26.3380   46.3870 H   0  0  0  0  0  0  0  0  0  0  0  0
   57.2191   28.6814   43.5141 H   0  0  0  0  0  0  0  0  0  0  0  0
   59.9954   30.2990   46.6380 H   0  0  0  0  0  0  0  0  0  0  0  0
   60.8249   31.5207   45.6474 H   0  0  0  0  0  0  0  0  0  0  0  0
   59.3021   32.1070   48.2433 H   0  0  0  0  0  0  0  0  0  0  0  0
   61.0859   31.9032   48.1242 H   0  0  0  0  0  0  0  0  0  0  0  0
   59.6081   34.2202   47.8111 H   0  0  0  0  0  0  0  0  0  0  0  0
   61.4263   34.8148   50.1463 H   0  0  0  0  0  0  0  0  0  0  0  0
   63.0789   34.1963   51.8436 H   0  0  0  0  0  0  0  0  0  0  0  0
   65.1095   32.8898   51.1939 H   0  0  0  0  0  0  0  0  0  0  0  0
   65.3901   32.2495   48.8208 H   0  0  0  0  0  0  0  0  0  0  0  0
   64.2547   31.7837   46.6934 H   0  0  0  0  0  0  0  0  0  0  0  0
   62.7918   32.7144   46.2239 H   0  0  0  0  0  0  0  0  0  0  0  0
   64.4017   33.5113   46.2239 H   0  0  0  0  0  0  0  0  0  0  0  0
   59.8588   34.9223   45.5376 H   0  0  0  0  0  0  0  0  0  0  0  0
   60.6688   33.4017   45.0897 H   0  0  0  0  0  0  0  0  0  0  0  0
   57.8398   33.5784   46.3182 H   0  0  0  0  0  0  0  0  0  0  0  0
   58.1587   33.3999   44.5692 H   0  0  0  0  0  0  0  0  0  0  0  0
   58.5153   30.4639   47.7343 H   0  0  0  0  0  0  0  0  0  0  0  0
   57.7946   29.1284   48.6726 H   0  0  0  0  0  0  0  0  0  0  0  0
   59.9931   28.8858   49.3768 H   0  0  0  0  0  0  0  0  0  0  0  0
   60.0959   27.9055   47.8751 H   0  0  0  0  0  0  0  0  0  0  0  0
   60.6610   29.6106   47.8751 H   0  0  0  0  0  0  0  0  0  0  0  0
  1  2  2  0
  2  3  1  0
  3  4  2  0
  4  5  1  0
  5  6  1  0
  6  7  1  0
  7  8  2  0
  7  9  1  0
  9 10  1  0
 10 11  1  0
  3 12  1  0
 12 13  2  0
 13 14  1  0
 14 15  2  0
 14 16  1  0
 16 17  1  0
 17 18  1  0
 18 19  1  0
 19 20  1  0
 20 21  1  0
 21 22  2  0
 22 23  1  0
 23 24  2  0
 24 25  1  0
 25 26  2  0
 26 27  1  0
 19 28  1  0
 28 29  1  0
 13 30  1  0
 30 31  1  0
 31 32  1  0
 30  2  1  0
 10  5  2  0
 29 16  1  0
 26 21  1  0
  1 33  1  0
  1 34  1  0
  4 35  1  0
  6 36  1  0
  9 37  1  0
 11 38  1  0
 12 39  1  0
 17 40  1  0
 17 41  1  0
 18 42  1  0
 18 43  1  0
 19 44  1  0
 22 45  1  0
 23 46  1  0
 24 47  1  0
 25 48  1  0
 27 49  1  0
 27 50  1  0
 27 51  1  0
 28 52  1  0
 28 53  1  0
 29 54  1  0
 29 55  1  0
 31 56  1  0
 31 57  1  0
 32 58  1  0
 32 59  1  0
 32 60  1  0
M  END
>  <smiles>  (27) 
C=c1c(=Cc2[nH]c(=O)[nH]c2O)cc(C(=O)N2CCC(Oc3ccccc3C)CC2)n1CC

>  <score_type>  (27) 
oracle

>  <origin>  (27) 
adg

>  <m_score__min__energy>  (27) 
-10.68

>  <m_primary>  (27) 
energy

$$$$
27:0
     RDKit          3D

 49 51  0  0  0  0  0  0  0  0999 V2000
   55.7310   29.6630   43.7310 C   0  0  0  0  0  0  0  0  0  0  0  0
   56.5980   30.8700   43.7520 C   0  0  0  0  0  0  0  0  0  0  0  0
   57.3430   31.2170   42.6360 C   0  0  0  0  0  0  0  0  0  0  0  0
   58.1510   32.3360   42.6450 C   0  0  0  0  0  0  0  0  0  0  0  0
   58.2600   33.1560   43.7460 C   0  0  0  0  0  0  0  0  0  0  0  0
   57.5210   32.8140   44.8570 C   0  0  0  0  0  0  0  0  0  0  0  0
   57.5580   33.6340   46.1200 C   0  0  0  0  0  0  0  0  0  0  0  0
   59.1390   34.4230   46.2870 S   0  0  0  0  0  0  0  0  0  0  0  0
   59.0620   35.2570   47.5500 O   0  0  0  0  0  0  0  0  0  0  0  0
   59.3740   35.3610   45.1600 O   0  0  0  0  0  0  0  0  0  0  0  0
   60.4420   33.2760   46.5130 C   0  0  0  0  0  0  0  0  0  0  0  0
   60.0350   31.9770   47.0610 C   0  0  0  0  0  0  0  0  0  0  0  0
   60.1280   31.7910   48.4250 C   0  0  0  0  0  0  0  0  0  0  0  0
   59.7610   30.5920   49.0050 C   0  0  0  0  0  0  0  0  0  0  0  0
   59.8350   30.3960   50.2410 O   0  0  0  0  0  0  0  0  0  0  0  0
   59.3110   29.6220   48.1870 N   0  0  0  0  0  0  0  0  0  0  0  0
   59.2060   29.7660   46.8540 C   0  0  0  0  0  0  0  0  0  0  0  0
   58.7200   28.7170   45.9670 C   0  0  0  0  0  0  0  0  0  0  0  0
   59.2070   28.6140   44.6580 C   0  0  0  0  0  0  0  0  0  0  0  0
   58.7670   27.6320   43.7950 C   0  0  0  0  0  0  0  0  0  0  0  0
   57.8230   26.7150   44.2000 C   0  0  0  0  0  0  0  0  0  0  0  0
   57.3370   26.7980   45.4670 C   0  0  0  0  0  0  0  0  0  0  0  0
   56.1350   25.6410   46.0030 S   0  0  0  0  0  0  0  0  0  0  0  0
   56.1660   24.2330   44.9190 C   0  0  0  0  0  0  0  0  0  0  0  0
   54.8070   26.3370   45.9850 O   0  0  0  0  0  0  0  0  0  0  0  0
   56.4110   25.1470   47.3870 O   0  0  0  0  0  0  0  0  0  0  0  0
   57.7840   27.7910   46.3350 C   0  0  0  0  0  0  0  0  0  0  0  0
   59.5730   30.9480   46.3260 N   0  0  0  0  0  0  0  0  0  0  0  0
   56.7030   31.6930   44.8660 C   0  0  0  0  0  0  0  0  0  0  0  0
   55.5086   29.3533   44.7628 H   0  0  0  0  0  0  0  0  0  0  0  0
   54.7919   29.8952   43.2073 H   0  0  0  0  0  0  0  0  0  0  0  0
   56.2508   28.8472   43.2073 H   0  0  0  0  0  0  0  0  0  0  0  0
   57.2897   30.5928   41.7318 H   0  0  0  0  0  0  0  0  0  0  0  0
   58.7280   32.5814   41.7412 H   0  0  0  0  0  0  0  0  0  0  0  0
   58.9084   34.0446   43.7386 H   0  0  0  0  0  0  0  0  0  0  0  0
   56.7708   34.4012   46.0792 H   0  0  0  0  0  0  0  0  0  0  0  0
   57.3916   32.9735   46.9837 H   0  0  0  0  0  0  0  0  0  0  0  0
   60.9162   33.1010   45.5360 H   0  0  0  0  0  0  0  0  0  0  0  0
   61.1213   33.7235   47.2535 H   0  0  0  0  0  0  0  0  0  0  0  0
   60.4996   32.6090   49.0597 H   0  0  0  0  0  0  0  0  0  0  0  0
   59.0390   28.7280   48.6320 H   0  0  0  0  0  0  0  0  0  0  0  0
   59.9604   29.3354   44.3088 H   0  0  0  0  0  0  0  0  0  0  0  0
   59.1738   27.5810   42.7743 H   0  0  0  0  0  0  0  0  0  0  0  0
   57.4696   25.9319   43.5130 H   0  0  0  0  0  0  0  0  0  0  0  0
   56.1863   23.3101   45.5172 H   0  0  0  0  0  0  0  0  0  0  0  0
   55.2675   24.2389   44.2844 H   0  0  0  0  0  0  0  0  0  0  0  0
   57.0634   24.2785   44.2844 H   0  0  0  0  0  0  0  0  0  0  0  0
   57.3692   27.8317   47.3530 H   0  0  0  0  0  0  0  0  0  0  0  0
   56.1273   31.4518   45.7718 H   0  0  0  0  0  0  0  0  0  0  0  0
  1  2  1  0
  2  3  2  0
  3  4  1  0
  4  5  2  0
  5  6  1  0
  6  7  1  0
  7  8  1  0
  8  9  2  0
  8 10  2  0
  8 11  1  0
 11 12  1  0
 12 13  2  0
 13 14  1  0
 14 15  2  0
 14 16  1  0
 16 17  1  0
 17 18  1  0
 18 19  2  0
 19 20  1  0
 20 21  2  0
 21 22  1  0
 22 23  1  0
 23 24  1  0
 23 25  2  0
 23 26  2  0
 22 27  2  0
 17 28  2  0
  6 29  2  0
 29  2  1  0
 28 12  1  0
 27 18  1  0
  1 30  1  0
  1 31  1  0
  1 32  1  0
  3 33  1  0
  4 34  1  0
  5 35  1  0
  7 36  1  0
  7 37  1  0
 11 38  1  0
 11 39  1  0
 13 40  1  0
 16 41  1  0
 19 42  1  0
 20 43  1  0
 21 44  1  0
 24 45  1  0
 24 46  1  0
 24 47  1  0
 27 48  1  0
 29 49  1  0
M  END
>  <smiles>  (28) 
Cc1cccc(CS(=O)(=O)Cc2cc(=O)[nH]c(-c3cccc(S(C)(=O)=O)c3)n2)c1

>  <score_type>  (28) 
oracle

>  <origin>  (28) 
adg

>  <m_score__min__energy>  (28) 
-10.68

>  <m_primary>  (28) 
energy

$$$$
28:0
     RDKit          3D

 45 48  0  0  1  0  0  0  0  0999 V2000
   63.3350   33.3750   47.6910 C   0  0  0  0  0  0  0  0  0  0  0  0
   61.9270   33.8010   47.5690 C   0  0  0  0  0  0  0  0  0  0  0  0
   61.2900   33.7990   46.3550 C   0  0  0  0  0  0  0  0  0  0  0  0
   57.5040   26.2600   46.6710 C   0  0  0  0  0  0  0  0  0  0  0  0
   58.4290   26.9240   47.2580 N   0  0  0  0  0  0  0  0  0  0  0  0
   57.8770   33.2770   45.0290 S   0  0  0  0  0  0  0  0  0  0  0  0
   56.7510   33.8010   45.8800 O   0  0  0  0  0  0  0  0  0  0  0  0
   57.4570   33.1260   43.5960 O   0  0  0  0  0  0  0  0  0  0  0  0
   58.3290   31.6560   45.5770 C   0  0  0  0  0  0  0  0  0  0  0  0
   58.6000   31.3740   46.8850 C   0  0  0  0  0  0  0  0  0  0  0  0
   58.9540   30.0670   47.2390 C   0  0  0  0  0  0  0  0  0  0  0  0
   59.0240   29.0860   46.2740 C   0  0  0  0  0  0  0  0  0  0  0  0
   59.3840   27.7020   46.5620 C   0  0  0  0  0  0  0  0  0  0  0  0
   60.5050   27.3180   46.1680 O   0  0  0  0  0  0  0  0  0  0  0  0
   59.3020   34.2320   45.2120 N   0  0  0  0  0  0  0  0  0  0  0  0
   59.9850   34.2040   46.3050 C   0  0  0  0  0  0  0  0  0  0  0  0
   56.1660   26.3520   46.7150 N   0  0  0  0  0  0  0  0  0  0  0  0
   55.5310   25.5090   45.9860 N   0  0  0  0  0  0  0  0  0  0  0  0
   55.9180   24.6500   45.2680 C   0  0  0  0  0  0  0  0  0  0  0  0
   55.4570   23.5860   44.3640 C   0  0  0  0  0  0  0  0  0  0  0  0
   56.3980   22.3910   44.2420 C   0  0  0  0  0  0  0  0  0  0  0  0
   56.1430   23.3370   43.0740 C   0  0  0  0  0  0  0  0  0  0  0  0
   57.8150   24.8750   45.5040 S   0  0  0  0  0  0  0  0  0  0  0  0
   58.7480   29.3640   44.9300 C   0  0  0  0  0  0  0  0  0  0  0  0
   58.4050   30.6470   44.6120 C   0  0  0  0  0  0  0  0  0  0  0  0
   59.3200   34.6050   47.4530 C   0  0  0  0  0  0  0  0  0  0  0  0
   60.0160   34.5860   48.6500 C   0  0  0  0  0  0  0  0  0  0  0  0
   61.3000   34.1900   48.7080 N   0  0  0  0  0  0  0  0  0  0  0  0
   63.6027   33.2940   48.7549 H   0  0  0  0  0  0  0  0  0  0  0  0
   63.4657   32.3971   47.2045 H   0  0  0  0  0  0  0  0  0  0  0  0
   63.9859   34.1164   47.2045 H   0  0  0  0  0  0  0  0  0  0  0  0
   61.8160   33.4793   45.4433 H   0  0  0  0  0  0  0  0  0  0  0  0
   58.5410   32.1626   47.6496 H   0  0  0  0  0  0  0  0  0  0  0  0
   59.1765   29.8228   48.2882 H   0  0  0  0  0  0  0  0  0  0  0  0
   55.6970   27.0820   47.3220 H   0  0  0  0  0  0  0  0  0  0  0  0
   54.4008   23.7585   44.6184 H   0  0  0  0  0  0  0  0  0  0  0  0
   57.3698   22.3948   44.7574 H   0  0  0  0  0  0  0  0  0  0  0  0
   56.3213   21.3066   44.4097 H   0  0  0  0  0  0  0  0  0  0  0  0
   56.9389   24.0175   42.7371 H   0  0  0  0  0  0  0  0  0  0  0  0
   55.8085   23.2071   42.0342 H   0  0  0  0  0  0  0  0  0  0  0  0
   58.8052   28.5800   44.1605 H   0  0  0  0  0  0  0  0  0  0  0  0
   58.1815   30.8945   43.5638 H   0  0  0  0  0  0  0  0  0  0  0  0
   58.2695   34.9290   47.4144 H   0  0  0  0  0  0  0  0  0  0  0  0
   59.5078   34.9015   49.5732 H   0  0  0  0  0  0  0  0  0  0  0  0
   61.7710   34.1970   49.6380 H   0  0  0  0  0  0  0  0  0  0  0  0
  1  2  1  0
  2  3  2  0
  3  4  1  0
  4  5  2  0
  5  6  1  0
  6  7  2  0
  6  8  2  0
  6  9  1  0
  9 10  2  0
 10 11  1  0
 11 12  2  0
 12 13  1  0
 13 14  2  0
 13 15  1  0
 15 16  2  0
 16 17  1  0
 17 18  1  0
 18 19  2  0
 19 20  1  0
 20 21  1  0
 21 22  1  0
 19 23  1  0
 12 24  1  0
 24 25  2  0
  4 26  1  0
 26 27  2  0
 27 28  1  0
 28  2  1  0
 25  9  1  0
 23 16  1  0
 22 20  1  0
  1 29  1  0
  1 30  1  0
  1 31  1  0
  3 32  1  0
 10 33  1  0
 11 34  1  0
 17 35  1  0
 20 36  1  0
 21 37  1  0
 21 38  1  0
 22 39  1  0
 22 40  1  0
 24 41  1  0
 25 42  1  0
 26 43  1  0
 27 44  1  0
 28 45  1  0
M  END
>  <smiles>  (29) 
Cc1cc(=NS(=O)(=O)c2ccc(C(=O)N=c3[nH]nc(C4CC4)s3)cc2)cc[nH]1

>  <score_type>  (29) 
oracle

>  <origin>  (29) 
adg

>  <m_score__min__energy>  (29) 
-9.6699999999999999

>  <m_primary>  (29) 
energy

$$$$
29:0
     RDKit          3D

 48 51  0  0  0  0  0  0  0  0999 V2000
   56.2830   20.6880   43.4860 N   0  0  0  0  0  0  0  0  0  0  0  0
   56.5930   21.9170   43.6590 C   0  0  0  0  0  0  0  0  0  0  0  0
   57.1840   22.2600   44.8580 C   0  0  0  0  0  0  0  0  0  0  0  0
   57.5360   23.5340   45.1040 N   0  0  0  0  0  0  0  0  0  0  0  0
   57.3290   24.5320   44.1960 C   0  0  0  0  0  0  0  0  0  0  0  0
   57.7220   25.9030   44.4920 C   0  0  0  0  0  0  0  0  0  0  0  0
   58.1630   26.7940   43.5380 C   0  0  0  0  0  0  0  0  0  0  0  0
   58.5330   28.0960   43.8400 C   0  0  0  0  0  0  0  0  0  0  0  0
   58.4520   28.5130   45.1550 C   0  0  0  0  0  0  0  0  0  0  0  0
   58.8160   29.8610   45.5840 C   0  0  0  0  0  0  0  0  0  0  0  0
   59.8630   30.0840   46.4740 C   0  0  0  0  0  0  0  0  0  0  0  0
   60.1780   31.3890   46.8570 C   0  0  0  0  0  0  0  0  0  0  0  0
   59.4750   32.4750   46.3770 C   0  0  0  0  0  0  0  0  0  0  0  0
   59.8370   34.1230   46.8310 S   0  0  0  0  0  0  0  0  0  0  0  0
   59.6660   34.9730   45.6310 O   0  0  0  0  0  0  0  0  0  0  0  0
   58.8870   34.5230   47.9440 O   0  0  0  0  0  0  0  0  0  0  0  0
   61.4260   34.2030   47.4850 N   0  0  0  0  0  0  0  0  0  0  0  0
   62.4170   33.7990   46.5550 C   0  0  0  0  0  0  0  0  0  0  0  0
   63.3880   32.7690   47.0150 C   0  0  0  0  0  0  0  0  0  0  0  0
   63.7250   32.9490   48.3510 O   0  0  0  0  0  0  0  0  0  0  0  0
   62.5610   32.6800   49.0740 C   0  0  0  0  0  0  0  0  0  0  0  0
   61.5500   33.7440   48.8220 C   0  0  0  0  0  0  0  0  0  0  0  0
   58.4340   32.2240   45.4880 C   0  0  0  0  0  0  0  0  0  0  0  0
   57.6930   33.2390   44.9680 F   0  0  0  0  0  0  0  0  0  0  0  0
   58.1120   30.9490   45.1020 C   0  0  0  0  0  0  0  0  0  0  0  0
   58.0090   27.6330   46.1370 C   0  0  0  0  0  0  0  0  0  0  0  0
   57.6510   26.3450   45.7960 C   0  0  0  0  0  0  0  0  0  0  0  0
   57.2270   25.5130   46.7540 F   0  0  0  0  0  0  0  0  0  0  0  0
   56.7380   24.1480   43.0140 C   0  0  0  0  0  0  0  0  0  0  0  0
   56.3770   22.8810   42.7450 N   0  0  0  0  0  0  0  0  0  0  0  0
   56.9340   19.8750   43.5360 H   0  0  0  0  0  0  0  0  0  0  0  0
   57.3683   21.4859   45.6175 H   0  0  0  0  0  0  0  0  0  0  0  0
   58.2242   26.4583   42.4923 H   0  0  0  0  0  0  0  0  0  0  0  0
   58.8823   28.7798   43.0523 H   0  0  0  0  0  0  0  0  0  0  0  0
   60.4391   29.2363   46.8734 H   0  0  0  0  0  0  0  0  0  0  0  0
   61.0079   31.5558   47.5594 H   0  0  0  0  0  0  0  0  0  0  0  0
   61.9000   33.3978   45.6708 H   0  0  0  0  0  0  0  0  0  0  0  0
   63.0198   34.6997   46.3669 H   0  0  0  0  0  0  0  0  0  0  0  0
   62.9384   31.7728   46.8906 H   0  0  0  0  0  0  0  0  0  0  0  0
   64.3032   32.8630   46.4120 H   0  0  0  0  0  0  0  0  0  0  0  0
   62.1532   31.7078   48.7601 H   0  0  0  0  0  0  0  0  0  0  0  0
   62.7995   32.6543   50.1475 H   0  0  0  0  0  0  0  0  0  0  0  0
   60.5699   33.3523   49.1320 H   0  0  0  0  0  0  0  0  0  0  0  0
   61.8994   34.6155   49.3950 H   0  0  0  0  0  0  0  0  0  0  0  0
   57.2815   30.7890   44.3986 H   0  0  0  0  0  0  0  0  0  0  0  0
   57.9442   27.9636   47.1841 H   0  0  0  0  0  0  0  0  0  0  0  0
   56.5513   24.9171   42.2500 H   0  0  0  0  0  0  0  0  0  0  0  0
   55.9300   22.6320   41.8340 H   0  0  0  0  0  0  0  0  0  0  0  0
  1  2  2  3
  2  3  1  0
  3  4  2  0
  4  5  1  0
  5  6  1  0
  6  7  2  0
  7  8  1  0
  8  9  2  0
  9 10  1  0
 10 11  2  0
 11 12  1  0
 12 13  2  0
 13 14  1  0
 14 15  2  0
 14 16  2  0
 14 17  1  0
 17 18  1  0
 18 19  1  0
 19 20  1  0
 20 21  1  0
 21 22  1  0
 13 23  1  0
 23 24  1  0
 23 25  2  0
  9 26  1  0
 26 27  2  0
 27 28  1  0
  5 29  2  0
 29 30  1  0
 30  2  1  0
 27  6  1  0
 25 10  1  0
 22 17  1  0
  1 31  1  0
  3 32  1  0
  7 33  1  0
  8 34  1  0
 11 35  1  0
 12 36  1  0
 18 37  1  0
 18 38  1  0
 19 39  1  0
 19 40  1  0
 21 41  1  0
 21 42  1  0
 22 43  1  0
 22 44  1  0
 25 45  1  0
 26 46  1  0
 29 47  1  0
 30 48  1  0
M  END
>  <smiles>  (30) 
N=c1cnc(-c2ccc(-c3ccc(S(=O)(=O)N4CCOCC4)c(F)c3)cc2F)c[nH]1

>  <score_type>  (30) 
oracle

>  <origin>  (30) 
adg

>  <m_score__min__energy>  (30) 
-9.6300000000000008

>  <m_primary>  (30) 
energy

$$$$
30:0
     RDKit          3D

 70 73  0  0  1  0  0  0  0  0999 V2000
   57.3540   33.9540   46.1030 O   0  0  0  0  0  0  0  0  0  0  0  0
   57.9810   33.0810   45.4210 C   0  0  0  0  0  0  0  0  0  0  0  0
   57.6600   32.8260   44.0260 C   0  0  0  0  0  0  0  0  0  0  0  0
   57.4050   31.6620   43.5060 C   0  0  0  0  0  0  0  0  0  0  0  0
   57.4660   30.3900   44.2070 C   0  0  0  0  0  0  0  0  0  0  0  0
   56.5260   30.0110   44.9790 O   0  0  0  0  0  0  0  0  0  0  0  0
   58.5590   29.4920   44.0840 N   0  0  0  0  0  0  0  0  0  0  0  0
   58.6000   28.2390   44.7860 C   0  0  0  0  0  0  0  0  0  0  0  0
   57.4860   27.5040   45.0720 C   0  0  0  0  0  0  0  0  0  0  0  0
   57.6290   26.3030   45.7580 C   0  0  0  0  0  0  0  0  0  0  0  0
   56.1720   25.3970   46.1020 S   0  0  0  0  0  0  0  0  0  0  0  0
   54.9790   26.2940   45.9990 O   0  0  0  0  0  0  0  0  0  0  0  0
   56.2130   24.8600   47.5230 O   0  0  0  0  0  0  0  0  0  0  0  0
   56.0800   24.0580   45.0510 N   0  0  0  0  0  0  0  0  0  0  0  0
   56.7120   24.2790   43.7910 C   0  0  0  0  0  0  0  0  0  0  0  0
   56.4680   23.1680   42.8010 C   0  0  0  0  0  0  0  0  0  0  0  0
   56.0210   22.0040   43.4240 O   0  0  0  0  0  0  0  0  0  0  0  0
   56.6770   21.7770   44.6280 C   0  0  0  0  0  0  0  0  0  0  0  0
   56.4090   22.8140   45.6700 C   0  0  0  0  0  0  0  0  0  0  0  0
   58.8830   25.8670   46.1400 C   0  0  0  0  0  0  0  0  0  0  0  0
   60.0010   26.6150   45.8460 C   0  0  0  0  0  0  0  0  0  0  0  0
   59.8690   27.8060   45.1670 C   0  0  0  0  0  0  0  0  0  0  0  0
   61.0080   28.5490   44.8780 O   0  0  0  0  0  0  0  0  0  0  0  0
   59.0070   32.3810   46.1060 N   0  0  0  0  0  0  0  0  0  0  0  0
   59.2160   32.7350   47.4770 C   0  0  0  0  0  0  0  0  0  0  0  0
   58.9940   31.7480   48.4380 C   0  0  0  0  0  0  0  0  0  0  0  0
   59.1750   32.0190   49.7690 C   0  0  0  0  0  0  0  0  0  0  0  0
   58.8880   30.7570   50.9360 S   0  0  0  0  0  0  0  0  0  0  0  0
   59.2760   31.2840   52.3020 O   0  0  0  0  0  0  0  0  0  0  0  0
   57.3980   30.5250   50.9600 O   0  0  0  0  0  0  0  0  0  0  0  0
   59.7340   29.3310   50.6700 N   0  0  0  0  0  0  0  0  0  0  0  0
   60.0550   29.0230   49.3230 C   0  0  0  0  0  0  0  0  0  0  0  0
   60.4300   27.5760   49.1270 C   0  0  0  0  0  0  0  0  0  0  0  0
   60.7860   26.8900   50.4380 C   0  0  0  0  0  0  0  0  0  0  0  0
   61.5910   27.8690   51.2340 C   0  0  0  0  0  0  0  0  0  0  0  0
   60.7190   29.0070   51.6510 C   0  0  0  0  0  0  0  0  0  0  0  0
   59.5820   33.2940   50.1300 C   0  0  0  0  0  0  0  0  0  0  0  0
   59.8100   34.2940   49.2000 C   0  0  0  0  0  0  0  0  0  0  0  0
   59.6210   34.0010   47.8520 C   0  0  0  0  0  0  0  0  0  0  0  0
   59.8370   34.9710   46.8790 O   0  0  0  0  0  0  0  0  0  0  0  0
   57.6303   33.6942   43.3513 H   0  0  0  0  0  0  0  0  0  0  0  0
   57.1184   31.6376   42.4443 H   0  0  0  0  0  0  0  0  0  0  0  0
   59.3740   29.7190   43.4730 H   0  0  0  0  0  0  0  0  0  0  0  0
   56.4904   27.8564   44.7645 H   0  0  0  0  0  0  0  0  0  0  0  0
   56.3257   25.2171   43.3659 H   0  0  0  0  0  0  0  0  0  0  0  0
   57.7961   24.3230   43.9723 H   0  0  0  0  0  0  0  0  0  0  0  0
   55.7084   23.4977   42.0769 H   0  0  0  0  0  0  0  0  0  0  0  0
   57.4215   22.9419   42.3013 H   0  0  0  0  0  0  0  0  0  0  0  0
   56.3537   20.8012   45.0196 H   0  0  0  0  0  0  0  0  0  0  0  0
   57.7556   21.8110   44.4146 H   0  0  0  0  0  0  0  0  0  0  0  0
   55.5686   22.4877   46.3003 H   0  0  0  0  0  0  0  0  0  0  0  0
   57.3102   22.9460   46.2868 H   0  0  0  0  0  0  0  0  0  0  0  0
   58.9890   24.9160   46.6826 H   0  0  0  0  0  0  0  0  0  0  0  0
   60.9968   26.2623   46.1526 H   0  0  0  0  0  0  0  0  0  0  0  0
   61.6200   28.2120   44.1340 H   0  0  0  0  0  0  0  0  0  0  0  0
   59.5780   31.6470   45.6340 H   0  0  0  0  0  0  0  0  0  0  0  0
   58.6711   30.7442   48.1246 H   0  0  0  0  0  0  0  0  0  0  0  0
   59.1814   29.2479   48.6935 H   0  0  0  0  0  0  0  0  0  0  0  0
   60.9276   29.6316   49.0434 H   0  0  0  0  0  0  0  0  0  0  0  0
   59.5792   27.0485   48.6712 H   0  0  0  0  0  0  0  0  0  0  0  0
   61.3172   27.5428   48.4776 H   0  0  0  0  0  0  0  0  0  0  0  0
   59.8705   26.6195   50.9846 H   0  0  0  0  0  0  0  0  0  0  0  0
   61.3545   25.9657   50.2580 H   0  0  0  0  0  0  0  0  0  0  0  0
   61.9958   27.3706   52.1272 H   0  0  0  0  0  0  0  0  0  0  0  0
   62.4201   28.2484   50.6187 H   0  0  0  0  0  0  0  0  0  0  0  0
   60.2085   28.7353   52.5867 H   0  0  0  0  0  0  0  0  0  0  0  0
   61.3624   29.8896   51.7818 H   0  0  0  0  0  0  0  0  0  0  0  0
   59.7295   33.5199   51.1964 H   0  0  0  0  0  0  0  0  0  0  0  0
   60.1328   35.2962   49.5185 H   0  0  0  0  0  0  0  0  0  0  0  0
   59.1200   35.2110   46.2060 H   0  0  0  0  0  0  0  0  0  0  0  0
  1  2  2  0
  2  3  1  0
  3  4  2  0
  4  5  1  0
  5  6  2  0
  5  7  1  0
  7  8  1  0
  8  9  2  0
  9 10  1  0
 10 11  1  0
 11 12  2  0
 11 13  2  0
 11 14  1  0
 14 15  1  0
 15 16  1  0
 16 17  1  0
 17 18  1  0
 18 19  1  0
 10 20  2  0
 20 21  1  0
 21 22  2  0
 22 23  1  0
  2 24  1  0
 24 25  1  0
 25 26  2  0
 26 27  1  0
 27 28  1  0
 28 29  2  0
 28 30  2  0
 28 31  1  0
 31 32  1  0
 32 33  1  0
 33 34  1  0
 34 35  1  0
 35 36  1  0
 27 37  2  0
 37 38  1  0
 38 39  2  0
 39 40  1  0
 22  8  1  0
 39 25  1  0
 19 14  1  0
 36 31  1  0
  3 41  1  0
  4 42  1  0
  7 43  1  0
  9 44  1  0
 15 45  1  0
 15 46  1  0
 16 47  1  0
 16 48  1  0
 18 49  1  0
 18 50  1  0
 19 51  1  0
 19 52  1  0
 20 53  1  0
 21 54  1  0
 23 55  1  0
 24 56  1  0
 26 57  1  0
 32 58  1  0
 32 59  1  0
 33 60  1  0
 33 61  1  0
 34 62  1  0
 34 63  1  0
 35 64  1  0
 35 65  1  0
 36 66  1  0
 36 67  1  0
 37 68  1  0
 38 69  1  0
 40 70  1  0
M  END
>  <smiles>  (31) 
O=C(C=CC(=O)Nc1cc(S(=O)(=O)N2CCOCC2)ccc1O)Nc1cc(S(=O)(=O)N2CCCCC2)ccc1O

>  <score_type>  (31) 
oracle

>  <origin>  (31) 
adg

>  <m_score__min__energy>  (31) 
-12.109999999999999

>  <m_primary>  (31) 
energy

$$$$
31:0
     RDKit          3D

 49 51  0  0  1  0  0  0  0  0999 V2000
   57.3330   33.7280   46.0200 C   0  0  0  0  0  0  0  0  0  0  0  0
   57.4590   32.7160   44.9470 C   0  0  0  0  0  0  0  0  0  0  0  0
   58.0220   33.0700   43.7290 C   0  0  0  0  0  0  0  0  0  0  0  0
   58.1040   32.0650   42.7760 C   0  0  0  0  0  0  0  0  0  0  0  0
   57.6480   30.8090   43.0500 N   0  0  0  0  0  0  0  0  0  0  0  0
   57.1090   30.5140   44.2480 C   0  0  0  0  0  0  0  0  0  0  0  0
   56.6620   29.3420   44.5580 N   0  0  0  0  0  0  0  0  0  0  0  0
   57.4430   28.2190   44.2570 C   0  0  0  0  0  0  0  0  0  0  0  0
   57.7430   27.8680   43.0740 O   0  0  0  0  0  0  0  0  0  0  0  0
   57.9490   27.3860   45.3730 C   0  0  0  0  0  0  0  0  0  0  0  0
   58.0860   28.1360   46.6090 N   0  0  0  0  0  0  0  0  0  0  0  0
   58.9690   29.2280   46.6850 C   0  0  0  0  0  0  0  0  0  0  0  0
   59.6360   29.5430   45.6670 O   0  0  0  0  0  0  0  0  0  0  0  0
   59.1660   30.0340   47.8850 C   0  0  0  0  0  0  0  0  0  0  0  0
   58.8890   29.4580   49.1080 C   0  0  0  0  0  0  0  0  0  0  0  0
   59.0660   30.2010   50.2740 C   0  0  0  0  0  0  0  0  0  0  0  0
   59.5130   31.5020   50.2200 C   0  0  0  0  0  0  0  0  0  0  0  0
   59.7970   32.1020   48.9890 C   0  0  0  0  0  0  0  0  0  0  0  0
   60.3540   33.7320   48.9640 S   0  0  0  0  0  0  0  0  0  0  0  0
   60.5240   34.1890   50.3930 O   0  0  0  0  0  0  0  0  0  0  0  0
   59.3950   34.6890   48.3370 O   0  0  0  0  0  0  0  0  0  0  0  0
   61.8860   33.9250   48.2100 N   0  0  0  0  0  0  0  0  0  0  0  0
   61.8040   33.6420   46.7750 C   0  0  0  0  0  0  0  0  0  0  0  0
   63.2730   33.8650   46.4000 C   0  0  0  0  0  0  0  0  0  0  0  0
   63.9430   33.1130   47.5510 C   0  0  0  0  0  0  0  0  0  0  0  0
   62.8630   32.9690   48.6280 C   0  0  0  0  0  0  0  0  0  0  0  0
   59.6110   31.3370   47.8570 C   0  0  0  0  0  0  0  0  0  0  0  0
   57.0130   31.4730   45.2030 N   0  0  0  0  0  0  0  0  0  0  0  0
   57.3947   33.2327   47.0002 H   0  0  0  0  0  0  0  0  0  0  0  0
   58.1466   34.4626   45.9285 H   0  0  0  0  0  0  0  0  0  0  0  0
   56.3641   34.2407   45.9285 H   0  0  0  0  0  0  0  0  0  0  0  0
   58.3829   34.0899   43.5303 H   0  0  0  0  0  0  0  0  0  0  0  0
   58.5408   32.2831   41.7903 H   0  0  0  0  0  0  0  0  0  0  0  0
   57.7200   30.0670   42.3170 H   0  0  0  0  0  0  0  0  0  0  0  0
   57.2469   26.5559   45.5401 H   0  0  0  0  0  0  0  0  0  0  0  0
   58.9476   27.0206   45.0913 H   0  0  0  0  0  0  0  0  0  0  0  0
   57.5250   27.8680   47.4560 H   0  0  0  0  0  0  0  0  0  0  0  0
   58.5309   28.4194   49.1624 H   0  0  0  0  0  0  0  0  0  0  0  0
   58.8458   29.7422   51.2492 H   0  0  0  0  0  0  0  0  0  0  0  0
   59.6476   32.0730   51.1505 H   0  0  0  0  0  0  0  0  0  0  0  0
   61.4801   32.6097   46.5764 H   0  0  0  0  0  0  0  0  0  0  0  0
   61.0765   34.2479   46.2150 H   0  0  0  0  0  0  0  0  0  0  0  0
   63.5189   33.4236   45.4229 H   0  0  0  0  0  0  0  0  0  0  0  0
   63.5740   34.9172   46.2895 H   0  0  0  0  0  0  0  0  0  0  0  0
   64.2861   32.1232   47.2156 H   0  0  0  0  0  0  0  0  0  0  0  0
   64.8274   33.6474   47.9282 H   0  0  0  0  0  0  0  0  0  0  0  0
   62.4452   31.9515   48.6395 H   0  0  0  0  0  0  0  0  0  0  0  0
   63.2347   33.1372   49.6495 H   0  0  0  0  0  0  0  0  0  0  0  0
   59.8297   31.7917   46.8795 H   0  0  0  0  0  0  0  0  0  0  0  0
  1  2  1  0
  2  3  1  0
  3  4  2  0
  4  5  1  0
  5  6  1  0
  6  7  2  0
  7  8  1  0
  8  9  2  0
  8 10  1  0
 10 11  1  0
 11 12  1  0
 12 13  2  0
 12 14  1  0
 14 15  2  0
 15 16  1  0
 16 17  2  0
 17 18  1  0
 18 19  1  0
 19 20  2  0
 19 21  2  0
 19 22  1  0
 22 23  1  0
 23 24  1  0
 24 25  1  0
 25 26  1  0
 18 27  2  0
  6 28  1  0
 28  2  2  0
 27 14  1  0
 26 22  1  0
  1 29  1  0
  1 30  1  0
  1 31  1  0
  3 32  1  0
  4 33  1  0
  5 34  1  0
 10 35  1  0
 10 36  1  0
 11 37  1  0
 15 38  1  0
 16 39  1  0
 17 40  1  0
 23 41  1  0
 23 42  1  0
 24 43  1  0
 24 44  1  0
 25 45  1  0
 25 46  1  0
 26 47  1  0
 26 48  1  0
 27 49  1  0
M  END
>  <smiles>  (32) 
Cc1cc[nH]c(=NC(=O)CNC(=O)c2cccc(S(=O)(=O)N3CCCC3)c2)n1

>  <score_type>  (32) 
oracle

>  <origin>  (32) 
adg

>  <m_score__min__energy>  (32) 
-9.5500000000000007

>  <m_primary>  (32) 
energy

$$$$
32:0
     RDKit          3D

 45 47  0  0  1  0  0  0  0  0999 V2000
   55.9250   19.7480   46.9610 C   0  0  0  0  0  0  0  0  0  0  0  0
   57.3640   20.7270   47.2320 S   0  0  0  0  0  0  0  0  0  0  0  0
   57.0130   21.9560   48.0480 O   0  0  0  0  0  0  0  0  0  0  0  0
   58.3070   19.9340   48.1090 O   0  0  0  0  0  0  0  0  0  0  0  0
   58.1310   21.1520   45.7620 N   0  0  0  0  0  0  0  0  0  0  0  0
   57.6140   22.0330   44.7940 C   0  0  0  0  0  0  0  0  0  0  0  0
   57.0010   21.5910   43.6460 C   0  0  0  0  0  0  0  0  0  0  0  0
   56.5250   22.5150   42.7450 C   0  0  0  0  0  0  0  0  0  0  0  0
   56.6590   23.8590   42.9890 C   0  0  0  0  0  0  0  0  0  0  0  0
   57.2770   24.3540   44.1460 C   0  0  0  0  0  0  0  0  0  0  0  0
   57.3640   25.7390   44.3010 N   0  0  0  0  0  0  0  0  0  0  0  0
   58.2540   26.4670   45.1060 C   0  0  0  0  0  0  0  0  0  0  0  0
   59.1110   25.8560   45.8040 O   0  0  0  0  0  0  0  0  0  0  0  0
   58.2150   27.8770   45.1550 C   0  0  0  0  0  0  0  0  0  0  0  0
   59.1170   28.8660   45.5330 C   0  0  0  0  0  0  0  0  0  0  0  0
   58.7630   30.1080   45.4570 N   0  0  0  0  0  0  0  0  0  0  0  0
   57.5740   30.4760   45.0320 C   0  0  0  0  0  0  0  0  0  0  0  0
   56.9890   31.5830   44.8640 N   0  0  0  0  0  0  0  0  0  0  0  0
   57.5090   32.7450   45.4970 C   0  0  0  0  0  0  0  0  0  0  0  0
   56.7800   33.3270   46.3350 O   0  0  0  0  0  0  0  0  0  0  0  0
   58.8690   33.2460   45.1690 C   0  0  1  0  0  0  0  0  0  0  0  0
   58.9320   34.7490   45.0540 C   0  0  0  0  0  0  0  0  0  0  0  0
   59.6510   35.1520   46.3200 C   0  0  0  0  0  0  0  0  0  0  0  0
   59.5170   33.9090   47.1740 C   0  0  0  0  0  0  0  0  0  0  0  0
   59.7160   32.8950   46.2160 O   0  0  0  0  0  0  0  0  0  0  0  0
   56.7220   28.9070   44.6460 S   0  0  0  0  0  0  0  0  0  0  0  0
   57.7370   23.3990   45.0160 C   0  0  0  0  0  0  0  0  0  0  0  0
   55.4935   19.4545   47.9293 H   0  0  0  0  0  0  0  0  0  0  0  0
   55.1862   20.3317   46.3922 H   0  0  0  0  0  0  0  0  0  0  0  0
   56.1966   18.8465   46.3922 H   0  0  0  0  0  0  0  0  0  0  0  0
   59.0660   20.7240   45.5580 H   0  0  0  0  0  0  0  0  0  0  0  0
   56.8926   20.5139   43.4506 H   0  0  0  0  0  0  0  0  0  0  0  0
   56.0332   22.1742   41.8220 H   0  0  0  0  0  0  0  0  0  0  0  0
   56.2674   24.5736   42.2501 H   0  0  0  0  0  0  0  0  0  0  0  0
   56.6710   26.3320   43.7420 H   0  0  0  0  0  0  0  0  0  0  0  0
   60.1206   28.5950   45.8927 H   0  0  0  0  0  0  0  0  0  0  0  0
   59.4650   30.9000   45.7530 H   0  0  0  0  0  0  0  0  0  0  0  0
   59.1547   32.8071   44.2016 H   0  0  0  0  0  0  0  0  0  0  0  0
   59.4987   35.0547   44.1621 H   0  0  0  0  0  0  0  0  0  0  0  0
   57.9434   35.2192   44.9463 H   0  0  0  0  0  0  0  0  0  0  0  0
   60.7070   35.3873   46.1212 H   0  0  0  0  0  0  0  0  0  0  0  0
   59.2411   36.0575   46.7912 H   0  0  0  0  0  0  0  0  0  0  0  0
   60.2848   33.8761   47.9610 H   0  0  0  0  0  0  0  0  0  0  0  0
   58.5633   33.8355   47.7172 H   0  0  0  0  0  0  0  0  0  0  0  0
   58.2306   23.7329   45.9406 H   0  0  0  0  0  0  0  0  0  0  0  0
  1  2  1  0
  2  3  2  0
  2  4  2  0
  2  5  1  0
  5  6  1  0
  6  7  2  0
  7  8  1  0
  8  9  2  0
  9 10  1  0
 10 11  1  0
 11 12  1  0
 12 13  2  0
 12 14  1  0
 14 15  2  0
 15 16  1  0
 16 17  1  0
 17 18  2  0
 18 19  1  0
 19 20  2  0
 19 21  1  0
 21 22  1  0
 22 23  1  0
 23 24  1  0
 24 25  1  0
 17 26  1  0
 10 27  2  0
 27  6  1  0
 26 14  1  0
 25 21  1  0
  1 28  1  0
  1 29  1  0
  1 30  1  0
  5 31  1  0
  7 32  1  0
  8 33  1  0
  9 34  1  0
 11 35  1  0
 15 36  1  0
 16 37  1  0
 21 38  1  6
 22 39  1  0
 22 40  1  0
 23 41  1  0
 23 42  1  0
 24 43  1  0
 24 44  1  0
 27 45  1  0
M  END
>  <smiles>  (33) 
CS(=O)(=O)Nc1cccc(NC(=O)c2c[nH]c(=NC(=O)C3CCCO3)s2)c1

>  <score_type>  (33) 
oracle

>  <origin>  (33) 
adg

>  <m_score__min__energy>  (33) 
-8.5999999999999996

>  <m_primary>  (33) 
energy

$$$$
33:0
     RDKit          3D

 54 57  0  0  1  0  0  0  0  0999 V2000
   61.4160   27.4780   51.4770 C   0  0  0  0  0  0  0  0  0  0  0  0
   60.8650   28.0530   50.3060 O   0  0  0  0  0  0  0  0  0  0  0  0
   59.9390   29.0750   50.4730 C   0  0  0  0  0  0  0  0  0  0  0  0
   59.3940   29.3920   51.7090 C   0  0  0  0  0  0  0  0  0  0  0  0
   58.4780   30.4020   51.8870 C   0  0  0  0  0  0  0  0  0  0  0  0
   58.0740   31.1440   50.7940 C   0  0  0  0  0  0  0  0  0  0  0  0
   58.6170   30.8230   49.5800 C   0  0  0  0  0  0  0  0  0  0  0  0
   59.5290   29.8250   49.3740 C   0  0  0  0  0  0  0  0  0  0  0  0
   60.0200   29.5880   48.0620 N   0  0  0  0  0  0  0  0  0  0  0  0
   60.8260   30.4010   47.3650 C   0  0  0  0  0  0  0  0  0  0  0  0
   61.4150   31.7120   47.7070 C   0  0  0  0  0  0  0  0  0  0  0  0
   60.4400   32.7920   47.4220 C   0  0  0  0  0  0  0  0  0  0  0  0
   59.8630   32.9850   46.1700 C   0  0  0  0  0  0  0  0  0  0  0  0
   59.0020   34.0810   46.2380 C   0  0  0  0  0  0  0  0  0  0  0  0
   59.0790   34.5270   47.5420 C   0  0  0  0  0  0  0  0  0  0  0  0
   59.9360   33.7460   48.2160 N   0  0  0  0  0  0  0  0  0  0  0  0
   60.2550   33.9400   49.6110 C   0  0  0  0  0  0  0  0  0  0  0  0
   61.0390   29.7840   46.1800 N   0  0  0  0  0  0  0  0  0  0  0  0
   60.4000   28.6460   46.1380 N   0  0  0  0  0  0  0  0  0  0  0  0
   59.7570   28.5090   47.3110 C   0  0  0  0  0  0  0  0  0  0  0  0
   58.7290   27.1410   47.8020 S   0  0  0  0  0  0  0  0  0  0  0  0
   57.7340   26.5280   46.4250 C   0  0  0  0  0  0  0  0  0  0  0  0
   56.7570   27.5630   45.9980 C   0  0  0  0  0  0  0  0  0  0  0  0
   55.6260   27.1760   45.5690 O   0  0  0  0  0  0  0  0  0  0  0  0
   57.1100   28.9390   46.0780 N   0  0  0  0  0  0  0  0  0  0  0  0
   57.1980   29.7090   45.0410 C   0  0  0  0  0  0  0  0  0  0  0  0
   58.3920   30.2720   44.7540 N   0  0  0  0  0  0  0  0  0  0  0  0
   58.5460   31.0820   43.6890 C   0  0  0  0  0  0  0  0  0  0  0  0
   57.4540   31.3350   42.8790 C   0  0  0  0  0  0  0  0  0  0  0  0
   56.2150   30.7560   43.1670 C   0  0  0  0  0  0  0  0  0  0  0  0
   56.0730   29.9260   44.2660 C   0  0  0  0  0  0  0  0  0  0  0  0
   54.8590   29.3340   44.5840 O   0  0  0  0  0  0  0  0  0  0  0  0
   60.9653   27.9483   52.3634 H   0  0  0  0  0  0  0  0  0  0  0  0
   61.2069   26.3981   51.4886 H   0  0  0  0  0  0  0  0  0  0  0  0
   62.5038   27.6409   51.4886 H   0  0  0  0  0  0  0  0  0  0  0  0
   59.7091   28.8086   52.5867 H   0  0  0  0  0  0  0  0  0  0  0  0
   58.0722   30.6163   52.8867 H   0  0  0  0  0  0  0  0  0  0  0  0
   57.3444   31.9609   50.8958 H   0  0  0  0  0  0  0  0  0  0  0  0
   58.2969   31.4100   48.7065 H   0  0  0  0  0  0  0  0  0  0  0  0
   61.6748   31.7277   48.7758 H   0  0  0  0  0  0  0  0  0  0  0  0
   62.3200   31.8717   47.1024 H   0  0  0  0  0  0  0  0  0  0  0  0
   60.0541   32.3746   45.2751 H   0  0  0  0  0  0  0  0  0  0  0  0
   58.3914   34.5006   45.4249 H   0  0  0  0  0  0  0  0  0  0  0  0
   58.5280   35.3825   47.9598 H   0  0  0  0  0  0  0  0  0  0  0  0
   59.4800   33.4687   50.2333 H   0  0  0  0  0  0  0  0  0  0  0  0
   61.2307   33.4822   49.8311 H   0  0  0  0  0  0  0  0  0  0  0  0
   60.2973   35.0169   49.8311 H   0  0  0  0  0  0  0  0  0  0  0  0
   58.3946   26.2814   45.5807 H   0  0  0  0  0  0  0  0  0  0  0  0
   57.1875   25.6299   46.7486 H   0  0  0  0  0  0  0  0  0  0  0  0
   59.2460   30.1090   45.3390 H   0  0  0  0  0  0  0  0  0  0  0  0
   59.5237   31.5346   43.4672 H   0  0  0  0  0  0  0  0  0  0  0  0
   57.5610   31.9943   42.0050 H   0  0  0  0  0  0  0  0  0  0  0  0
   55.3502   30.9603   42.5187 H   0  0  0  0  0  0  0  0  0  0  0  0
   54.7580   28.9410   45.5110 H   0  0  0  0  0  0  0  0  0  0  0  0
  1  2  1  0
  2  3  1  0
  3  4  2  0
  4  5  1  0
  5  6  2  0
  6  7  1  0
  7  8  2  0
  8  9  1  0
  9 10  1  0
 10 11  1  0
 11 12  1  0
 12 13  2  0
 13 14  1  0
 14 15  2  0
 15 16  1  0
 16 17  1  0
 10 18  2  0
 18 19  1  0
 19 20  2  0
 20 21  1  0
 21 22  1  0
 22 23  1  0
 23 24  2  0
 23 25  1  0
 25 26  2  0
 26 27  1  0
 27 28  1  0
 28 29  2  0
 29 30  1  0
 30 31  2  0
 31 32  1  0
  8  3  1  0
 20  9  1  0
 31 26  1  0
 16 12  1  0
  1 33  1  0
  1 34  1  0
  1 35  1  0
  4 36  1  0
  5 37  1  0
  6 38  1  0
  7 39  1  0
 11 40  1  0
 11 41  1  0
 13 42  1  0
 14 43  1  0
 15 44  1  0
 17 45  1  0
 17 46  1  0
 17 47  1  0
 22 48  1  0
 22 49  1  0
 27 50  1  0
 28 51  1  0
 29 52  1  0
 30 53  1  0
 32 54  1  0
M  END
>  <smiles>  (34) 
COc1ccccc1-n1c(Cc2cccn2C)nnc1SCC(=O)N=c1[nH]cccc1O

>  <score_type>  (34) 
oracle

>  <origin>  (34) 
adg

>  <m_score__min__energy>  (34) 
-9.4800000000000004

>  <m_primary>  (34) 
energy

$$$$
34:0
     RDKit          3D

 91 95  0  0  0  0  0  0  0  0999 V2000
   56.4090   26.2510   46.1280 C   0  0  0  0  0  0  0  0  0  0  0  0
   57.0250   27.5420   45.6220 C   0  0  0  0  0  0  0  0  0  0  0  0
   56.0050   28.4380   45.2490 O   0  0  0  0  0  0  0  0  0  0  0  0
   56.2230   29.6870   44.7080 C   0  0  0  0  0  0  0  0  0  0  0  0
   55.1900   30.4020   44.4990 O   0  0  0  0  0  0  0  0  0  0  0  0
   57.5430   30.2470   44.3580 C   0  0  0  0  0  0  0  0  0  0  0  0
   57.4990   31.7490   44.1430 C   0  0  0  0  0  0  0  0  0  0  0  0
   58.3950   32.3880   45.1290 C   0  0  0  0  0  0  0  0  0  0  0  0
   59.2070   31.6210   45.9250 C   0  0  0  0  0  0  0  0  0  0  0  0
   60.0770   32.1910   46.8650 C   0  0  0  0  0  0  0  0  0  0  0  0
   60.1630   33.5520   47.0400 C   0  0  0  0  0  0  0  0  0  0  0  0
   60.9490   34.2220   47.8990 O   0  0  0  0  0  0  0  0  0  0  0  0
   60.8890   34.2450   49.2780 C   0  0  0  0  0  0  0  0  0  0  0  0
   59.6340   33.7540   49.9270 C   0  0  0  0  0  0  0  0  0  0  0  0
   59.3010   32.4230   49.7350 O   0  0  0  0  0  0  0  0  0  0  0  0
   59.9130   31.3000   50.1640 C   0  0  0  0  0  0  0  0  0  0  0  0
   61.2950   31.3320   50.3250 C   0  0  0  0  0  0  0  0  0  0  0  0
   62.0270   30.2510   50.7590 C   0  0  0  0  0  0  0  0  0  0  0  0
   61.4400   29.0740   51.0590 C   0  0  0  0  0  0  0  0  0  0  0  0
   62.0620   27.9120   51.5490 N   0  0  0  0  0  0  0  0  0  0  0  0
   62.2160   27.5720   52.9190 C   0  0  0  0  0  0  0  0  0  0  0  0
   61.7990   28.2920   53.8490 O   0  0  0  0  0  0  0  0  0  0  0  0
   62.9020   26.3060   53.2720 C   0  0  0  0  0  0  0  0  0  0  0  0
   61.9530   25.1760   53.1680 C   0  0  0  0  0  0  0  0  0  0  0  0
   60.6300   25.4580   53.5350 C   0  0  0  0  0  0  0  0  0  0  0  0
   59.6420   24.4820   53.4720 C   0  0  0  0  0  0  0  0  0  0  0  0
   59.9960   23.2340   53.0390 C   0  0  0  0  0  0  0  0  0  0  0  0
   58.9530   22.2460   52.9890 N   0  0  0  0  0  0  0  0  0  0  0  0
   58.1820   22.2180   51.8000 C   0  0  0  0  0  0  0  0  0  0  0  0
   58.4640   23.0500   50.9000 O   0  0  0  0  0  0  0  0  0  0  0  0
   57.0580   21.2310   51.5980 C   0  0  0  0  0  0  0  0  0  0  0  0
   56.7090   21.1910   50.1430 C   0  0  0  0  0  0  0  0  0  0  0  0
   55.7620   22.1130   49.7230 C   0  0  0  0  0  0  0  0  0  0  0  0
   55.4060   22.1250   48.3960 C   0  0  0  0  0  0  0  0  0  0  0  0
   55.9740   21.2340   47.4630 C   0  0  0  0  0  0  0  0  0  0  0  0
   55.5740   21.3100   46.1660 N   0  0  0  0  0  0  0  0  0  0  0  0
   55.9040   21.6980   45.0550 C   0  0  0  0  0  0  0  0  0  0  0  0
   56.6630   20.8960   44.1960 C   0  0  0  0  0  0  0  0  0  0  0  0
   57.0210   21.3590   42.9260 C   0  0  0  0  0  0  0  0  0  0  0  0
   56.6380   22.5970   42.5000 N   0  0  0  0  0  0  0  0  0  0  0  0
   55.8970   23.3840   43.3360 C   0  0  0  0  0  0  0  0  0  0  0  0
   55.5430   22.9370   44.5820 C   0  0  0  0  0  0  0  0  0  0  0  0
   56.9060   20.3470   47.9470 C   0  0  0  0  0  0  0  0  0  0  0  0
   57.2880   20.3060   49.2760 C   0  0  0  0  0  0  0  0  0  0  0  0
   61.2960   22.9260   52.6700 C   0  0  0  0  0  0  0  0  0  0  0  0
   62.2930   23.9130   52.7360 C   0  0  0  0  0  0  0  0  0  0  0  0
   60.0470   29.0110   50.9060 C   0  0  0  0  0  0  0  0  0  0  0  0
   59.3100   30.0950   50.4720 C   0  0  0  0  0  0  0  0  0  0  0  0
   59.3260   34.3180   46.2180 C   0  0  0  0  0  0  0  0  0  0  0  0
   59.3300   35.7210   46.3130 O   0  0  0  0  0  0  0  0  0  0  0  0
   58.4710   33.7740   45.2950 C   0  0  0  0  0  0  0  0  0  0  0  0
   56.4091   26.2512   47.2280 H   0  0  0  0  0  0  0  0  0  0  0  0
   55.3751   26.1697   45.7614 H   0  0  0  0  0  0  0  0  0  0  0  0
   56.9963   25.3962   45.7614 H   0  0  0  0  0  0  0  0  0  0  0  0
   57.6353   27.9931   46.4183 H   0  0  0  0  0  0  0  0  0  0  0  0
   57.6590   27.3266   44.7493 H   0  0  0  0  0  0  0  0  0  0  0  0
   58.2468   30.0280   45.1745 H   0  0  0  0  0  0  0  0  0  0  0  0
   57.8627   29.7834   43.4131 H   0  0  0  0  0  0  0  0  0  0  0  0
   57.8370   31.9884   43.1240 H   0  0  0  0  0  0  0  0  0  0  0  0
   56.4711   32.1191   44.2711 H   0  0  0  0  0  0  0  0  0  0  0  0
   59.1746   30.5262   45.8228 H   0  0  0  0  0  0  0  0  0  0  0  0
   60.7079   31.5316   47.4791 H   0  0  0  0  0  0  0  0  0  0  0  0
   61.7171   33.6258   49.6534 H   0  0  0  0  0  0  0  0  0  0  0  0
   60.9393   35.3119   49.5410 H   0  0  0  0  0  0  0  0  0  0  0  0
   59.7360   33.9167   51.0101 H   0  0  0  0  0  0  0  0  0  0  0  0
   58.8245   34.3213   49.4444 H   0  0  0  0  0  0  0  0  0  0  0  0
   61.8276   32.2664   50.0942 H   0  0  0  0  0  0  0  0  0  0  0  0
   63.1176   30.3488   50.8640 H   0  0  0  0  0  0  0  0  0  0  0  0
   62.4670   27.2030   50.8680 H   0  0  0  0  0  0  0  0  0  0  0  0
   63.7427   26.1415   52.5820 H   0  0  0  0  0  0  0  0  0  0  0  0
   63.2769   26.3716   54.3040 H   0  0  0  0  0  0  0  0  0  0  0  0
   60.3688   26.4696   53.8790 H   0  0  0  0  0  0  0  0  0  0  0  0
   58.6051   24.7071   53.7621 H   0  0  0  0  0  0  0  0  0  0  0  0
   58.7590   21.5850   53.7650 H   0  0  0  0  0  0  0  0  0  0  0  0
   57.3786   20.2322   51.9292 H   0  0  0  0  0  0  0  0  0  0  0  0
   56.1800   21.5380   52.1853 H   0  0  0  0  0  0  0  0  0  0  0  0
   55.3070   22.8175   50.4348 H   0  0  0  0  0  0  0  0  0  0  0  0
   54.6554   22.8515   48.0514 H   0  0  0  0  0  0  0  0  0  0  0  0
   56.9803   19.8944   44.5218 H   0  0  0  0  0  0  0  0  0  0  0  0
   57.6188   20.7170   42.2623 H   0  0  0  0  0  0  0  0  0  0  0  0
   56.8900   22.9700   41.5600 H   0  0  0  0  0  0  0  0  0  0  0  0
   55.5820   24.3849   43.0059 H   0  0  0  0  0  0  0  0  0  0  0  0
   54.9461   23.5961   45.2296 H   0  0  0  0  0  0  0  0  0  0  0  0
   57.3692   19.6375   47.2456 H   0  0  0  0  0  0  0  0  0  0  0  0
   58.0375   19.5809   49.6260 H   0  0  0  0  0  0  0  0  0  0  0  0
   61.5462   21.9114   52.3264 H   0  0  0  0  0  0  0  0  0  0  0  0
   63.3288   23.6811   52.4473 H   0  0  0  0  0  0  0  0  0  0  0  0
   59.5265   28.0703   51.1386 H   0  0  0  0  0  0  0  0  0  0  0  0
   58.2192   29.9975   50.3691 H   0  0  0  0  0  0  0  0  0  0  0  0
   59.8760   36.0570   47.1220 H   0  0  0  0  0  0  0  0  0  0  0  0
   57.8400   34.4329   44.6804 H   0  0  0  0  0  0  0  0  0  0  0  0
  1  2  1  0
  2  3  1  0
  3  4  1  0
  4  5  2  0
  4  6  1  0
  6  7  1  0
  7  8  1  0
  8  9  2  0
  9 10  1  0
 10 11  2  0
 11 12  1  0
 12 13  1  0
 13 14  1  0
 14 15  1  0
 15 16  1  0
 16 17  2  0
 17 18  1  0
 18 19  2  0
 19 20  1  0
 20 21  1  0
 21 22  2  0
 21 23  1  0
 23 24  1  0
 24 25  2  0
 25 26  1  0
 26 27  2  0
 27 28  1  0
 28 29  1  0
 29 30  2  0
 29 31  1  0
 31 32  1  0
 32 33  2  0
 33 34  1  0
 34 35  2  0
 35 36  1  0
 36 37  2  3
 37 38  1  0
 38 39  2  0
 39 40  1  0
 40 41  1  0
 41 42  2  0
 35 43  1  0
 43 44  2  0
 27 45  1  0
 45 46  2  0
 19 47  1  0
 47 48  2  0
 11 49  1  0
 49 50  1  0
 49 51  2  0
 51  8  1  0
 48 16  1  0
 46 24  1  0
 44 32  1  0
 42 37  1  0
  1 52  1  0
  1 53  1  0
  1 54  1  0
  2 55  1  0
  2 56  1  0
  6 57  1  0
  6 58  1  0
  7 59  1  0
  7 60  1  0
  9 61  1  0
 10 62  1  0
 13 63  1  0
 13 64  1  0
 14 65  1  0
 14 66  1  0
 17 67  1  0
 18 68  1  0
 20 69  1  0
 23 70  1  0
 23 71  1  0
 25 72  1  0
 26 73  1  0
 28 74  1  0
 31 75  1  0
 31 76  1  0
 33 77  1  0
 34 78  1  0
 38 79  1  0
 39 80  1  0
 40 81  1  0
 41 82  1  0
 42 83  1  0
 43 84  1  0
 44 85  1  0
 45 86  1  0
 46 87  1  0
 47 88  1  0
 48 89  1  0
 50 90  1  0
 51 91  1  0
M  END
>  <smiles>  (35) 
CCOC(=O)CCc1ccc(OCCOc2ccc(NC(=O)Cc3ccc(NC(=O)Cc4ccc(N=c5cc[nH]cc5)cc4)cc3)cc2)c(O)c1

>  <score_type>  (35) 
oracle

>  <origin>  (35) 
adg

>  <m_score__min__energy>  (35) 
-9.5299999999999994

>  <m_primary>  (35) 
energy

$$$$
35:0
     RDKit          3D

 32 33  0  0  0  0  0  0  0  0999 V2000
   57.0630   30.6550   45.6120 N   0  0  0  0  0  0  0  0  0  0  0  0
   57.2110   31.0710   44.4080 C   0  0  0  0  0  0  0  0  0  0  0  0
   56.4380   30.4220   43.4390 C   0  0  0  0  0  0  0  0  0  0  0  0
   55.6570   29.4810   43.7370 O   0  0  0  0  0  0  0  0  0  0  0  0
   56.5580   30.8380   42.1690 N   0  0  0  0  0  0  0  0  0  0  0  0
   57.4000   31.8490   41.8630 C   0  0  0  0  0  0  0  0  0  0  0  0
   57.4600   32.1870   40.6520 O   0  0  0  0  0  0  0  0  0  0  0  0
   58.1220   32.4450   42.8140 N   0  0  0  0  0  0  0  0  0  0  0  0
   58.0460   32.0720   44.1000 N   0  0  0  0  0  0  0  0  0  0  0  0
   58.8830   32.7730   45.0260 C   0  0  0  0  0  0  0  0  0  0  0  0
   58.2900   34.0020   45.6270 C   0  0  0  0  0  0  0  0  0  0  0  0
   59.2920   35.0080   46.0690 C   0  0  0  0  0  0  0  0  0  0  0  0
   60.3570   34.3960   46.9490 C   0  0  0  0  0  0  0  0  0  0  0  0
   61.5520   33.9400   46.4000 C   0  0  0  0  0  0  0  0  0  0  0  0
   62.5020   33.3860   47.2400 C   0  0  0  0  0  0  0  0  0  0  0  0
   62.3180   33.2640   48.6030 C   0  0  0  0  0  0  0  0  0  0  0  0
   61.1130   33.7300   49.1230 C   0  0  0  0  0  0  0  0  0  0  0  0
   60.1400   34.2880   48.3200 C   0  0  0  0  0  0  0  0  0  0  0  0
   56.3130   30.0820   45.9920 H   0  0  0  0  0  0  0  0  0  0  0  0
   55.9820   30.3590   41.4270 H   0  0  0  0  0  0  0  0  0  0  0  0
   58.7560   33.2200   42.5190 H   0  0  0  0  0  0  0  0  0  0  0  0
   59.1339   32.0829   45.8450 H   0  0  0  0  0  0  0  0  0  0  0  0
   59.7549   33.1115   44.4471 H   0  0  0  0  0  0  0  0  0  0  0  0
   57.6366   34.4721   44.8773 H   0  0  0  0  0  0  0  0  0  0  0  0
   57.7442   33.6824   46.5270 H   0  0  0  0  0  0  0  0  0  0  0  0
   59.7725   35.4447   45.1811 H   0  0  0  0  0  0  0  0  0  0  0  0
   58.7667   35.7765   46.6551 H   0  0  0  0  0  0  0  0  0  0  0  0
   61.7378   34.0185   45.3187 H   0  0  0  0  0  0  0  0  0  0  0  0
   63.4453   33.0270   46.8026 H   0  0  0  0  0  0  0  0  0  0  0  0
   63.0887   32.8186   49.2493 H   0  0  0  0  0  0  0  0  0  0  0  0
   60.9319   33.6508   50.2051 H   0  0  0  0  0  0  0  0  0  0  0  0
   59.1977   34.6457   48.7605 H   0  0  0  0  0  0  0  0  0  0  0  0
  1  2  2  3
  2  3  1  0
  3  4  2  0
  3  5  1  0
  5  6  1  0
  6  7  2  0
  6  8  1  0
  8  9  1  0
  9 10  1  0
 10 11  1  0
 11 12  1  0
 12 13  1  0
 13 14  2  0
 14 15  1  0
 15 16  2  0
 16 17  1  0
 17 18  2  0
  9  2  1  0
 18 13  1  0
  1 19  1  0
  5 20  1  0
  8 21  1  0
 10 22  1  0
 10 23  1  0
 11 24  1  0
 11 25  1  0
 12 26  1  0
 12 27  1  0
 14 28  1  0
 15 29  1  0
 16 30  1  0
 17 31  1  0
 18 32  1  0
M  END
>  <smiles>  (36) 
N=c1c(=O)[nH]c(=O)[nH]n1CCCc1ccccc1

>  <score_type>  (36) 
oracle

>  <origin>  (36) 
adg

>  <m_score__min__energy>  (36) 
-6.7000000000000002

>  <m_primary>  (36) 
energy

$$$$
36:0
     RDKit          3D

 55 57  0  0  0  0  0  0  0  0999 V2000
   59.2110   25.6380   46.0160 C   0  0  0  0  0  0  0  0  0  0  0  0
   58.5510   26.8840   46.1820 N   0  0  0  0  0  0  0  0  0  0  0  0
   57.5100   27.1500   45.2470 C   0  0  0  0  0  0  0  0  0  0  0  0
   57.5340   28.5930   44.8850 C   0  0  0  0  0  0  0  0  0  0  0  0
   58.6870   29.2690   44.5460 C   0  0  0  0  0  0  0  0  0  0  0  0
   58.7010   30.6050   44.2140 C   0  0  0  0  0  0  0  0  0  0  0  0
   57.5160   31.2950   44.2220 C   0  0  0  0  0  0  0  0  0  0  0  0
   57.4190   32.7500   43.8780 C   0  0  0  0  0  0  0  0  0  0  0  0
   57.6030   33.5620   45.0710 N   0  0  0  0  0  0  0  0  0  0  0  0
   57.6330   32.6930   46.2080 C   0  0  0  0  0  0  0  0  0  0  0  0
   59.0190   32.6550   46.7980 C   0  0  0  0  0  0  0  0  0  0  0  0
   59.4000   34.0270   47.2580 C   0  0  0  0  0  0  0  0  0  0  0  0
   60.7670   34.0210   47.9000 C   0  0  0  0  0  0  0  0  0  0  0  0
   61.6880   33.2870   47.1590 O   0  0  0  0  0  0  0  0  0  0  0  0
   59.2930   34.9990   46.1290 C   0  0  0  0  0  0  0  0  0  0  0  0
   58.8030   34.3250   44.8670 C   0  0  0  0  0  0  0  0  0  0  0  0
   56.3650   30.6500   44.5540 N   0  0  0  0  0  0  0  0  0  0  0  0
   56.3590   29.3470   44.8760 C   0  0  0  0  0  0  0  0  0  0  0  0
   58.3330   27.3420   47.5040 C   0  0  0  0  0  0  0  0  0  0  0  0
   59.2290   28.4550   47.9050 C   0  0  0  0  0  0  0  0  0  0  0  0
   59.0690   28.9650   49.1740 C   0  0  0  0  0  0  0  0  0  0  0  0
   59.8390   30.0030   49.6730 C   0  0  0  0  0  0  0  0  0  0  0  0
   60.8090   30.5230   48.8110 C   0  0  0  0  0  0  0  0  0  0  0  0
   61.5930   31.5580   49.2780 O   0  0  0  0  0  0  0  0  0  0  0  0
   60.9380   29.9850   47.5490 C   0  0  0  0  0  0  0  0  0  0  0  0
   61.8360   30.4980   46.8100 O   0  0  0  0  0  0  0  0  0  0  0  0
   60.1710   28.9770   47.1030 N   0  0  0  0  0  0  0  0  0  0  0  0
   59.4382   25.2091   47.0031 H   0  0  0  0  0  0  0  0  0  0  0  0
   58.5594   24.9494   45.4581 H   0  0  0  0  0  0  0  0  0  0  0  0
   60.1467   25.7902   45.4581 H   0  0  0  0  0  0  0  0  0  0  0  0
   57.6628   26.5415   44.3435 H   0  0  0  0  0  0  0  0  0  0  0  0
   56.5376   26.8977   45.6951 H   0  0  0  0  0  0  0  0  0  0  0  0
   59.6380   28.7162   44.5406 H   0  0  0  0  0  0  0  0  0  0  0  0
   59.6424   31.1081   43.9481 H   0  0  0  0  0  0  0  0  0  0  0  0
   58.1977   33.0023   43.1432 H   0  0  0  0  0  0  0  0  0  0  0  0
   56.4239   32.9532   43.4556 H   0  0  0  0  0  0  0  0  0  0  0  0
   56.9257   33.0614   46.9656 H   0  0  0  0  0  0  0  0  0  0  0  0
   57.3499   31.6783   45.8915 H   0  0  0  0  0  0  0  0  0  0  0  0
   59.0352   31.9633   47.6532 H   0  0  0  0  0  0  0  0  0  0  0  0
   59.7338   32.3107   46.0361 H   0  0  0  0  0  0  0  0  0  0  0  0
   58.6948   34.3560   48.0355 H   0  0  0  0  0  0  0  0  0  0  0  0
   61.1244   35.0579   47.9839 H   0  0  0  0  0  0  0  0  0  0  0  0
   60.6752   33.5503   48.8899 H   0  0  0  0  0  0  0  0  0  0  0  0
   61.5690   32.3140   47.2470 H   0  0  0  0  0  0  0  0  0  0  0  0
   58.5866   35.7949   46.4074 H   0  0  0  0  0  0  0  0  0  0  0  0
   60.2923   35.4155   45.9341 H   0  0  0  0  0  0  0  0  0  0  0  0
   58.6029   35.0985   44.1109 H   0  0  0  0  0  0  0  0  0  0  0  0
   59.5871   33.6263   44.5400 H   0  0  0  0  0  0  0  0  0  0  0  0
   55.4071   28.8624   45.1387 H   0  0  0  0  0  0  0  0  0  0  0  0
   57.2919   27.6880   47.5844 H   0  0  0  0  0  0  0  0  0  0  0  0
   58.5479   26.4982   48.1761 H   0  0  0  0  0  0  0  0  0  0  0  0
   58.2942   28.5282   49.8213 H   0  0  0  0  0  0  0  0  0  0  0  0
   59.6952   30.3959   50.6903 H   0  0  0  0  0  0  0  0  0  0  0  0
   62.3190   31.9300   48.7000 H   0  0  0  0  0  0  0  0  0  0  0  0
   60.2860   28.5760   46.1240 H   0  0  0  0  0  0  0  0  0  0  0  0
  1  2  1  0
  2  3  1  0
  3  4  1  0
  4  5  2  0
  5  6  1  0
  6  7  2  0
  7  8  1  0
  8  9  1  0
  9 10  1  0
 10 11  1  0
 11 12  1  0
 12 13  1  0
 13 14  1  0
 12 15  1  0
 15 16  1  0
  7 17  1  0
 17 18  2  0
  2 19  1  0
 19 20  1  0
 20 21  2  0
 21 22  1  0
 22 23  2  0
 23 24  1  0
 23 25  1  0
 25 26  2  0
 25 27  1  0
 18  4  1  0
 27 20  1  0
 16  9  1  0
  1 28  1  0
  1 29  1  0
  1 30  1  0
  3 31  1  0
  3 32  1  0
  5 33  1  0
  6 34  1  0
  8 35  1  0
  8 36  1  0
 10 37  1  0
 10 38  1  0
 11 39  1  0
 11 40  1  0
 12 41  1  0
 13 42  1  0
 13 43  1  0
 14 44  1  0
 15 45  1  0
 15 46  1  0
 16 47  1  0
 16 48  1  0
 18 49  1  0
 19 50  1  0
 19 51  1  0
 21 52  1  0
 22 53  1  0
 24 54  1  0
 27 55  1  0
M  END
>  <smiles>  (37) 
CN(Cc1ccc(CN2CCC(CO)CC2)nc1)Cc1ccc(O)c(=O)[nH]1

>  <score_type>  (37) 
oracle

>  <origin>  (37) 
adg

>  <m_score__min__energy>  (37) 
-7.5899999999999999

>  <m_primary>  (37) 
energy

$$$$
37:0
     RDKit          3D

 83 88  0  0  1  0  0  0  0  0999 V2000
   61.1180   29.1420   49.4310 N   0  0  0  0  0  0  0  0  0  0  0  0
   60.4470   29.2880   48.3370 C   0  0  0  0  0  0  0  0  0  0  0  0
   60.6740   28.5180   47.2490 N   0  0  0  0  0  0  0  0  0  0  0  0
   59.9870   28.6520   46.1010 C   0  0  0  0  0  0  0  0  0  0  0  0
   59.0120   29.6260   46.0570 C   0  0  0  0  0  0  0  0  0  0  0  0
   58.1940   29.9010   44.8860 C   0  0  0  0  0  0  0  0  0  0  0  0
   58.1040   31.2510   44.5170 C   0  0  0  0  0  0  0  0  0  0  0  0
   57.3960   31.6500   43.4030 C   0  0  0  0  0  0  0  0  0  0  0  0
   56.7700   30.6780   42.6550 C   0  0  0  0  0  0  0  0  0  0  0  0
   56.8520   29.3490   43.0100 C   0  0  0  0  0  0  0  0  0  0  0  0
   57.5700   28.9360   44.1420 C   0  0  0  0  0  0  0  0  0  0  0  0
   57.5510   27.5610   44.4230 N   0  0  0  0  0  0  0  0  0  0  0  0
   57.0000   27.1750   45.7340 C   0  0  0  0  0  0  0  0  0  0  0  0
   57.9980   26.1430   46.2760 C   0  0  0  0  0  0  0  0  0  0  0  0
   57.9450   24.9030   45.4630 C   0  0  0  0  0  0  0  0  0  0  0  0
   57.4030   23.6800   46.1040 C   0  0  0  0  0  0  0  0  0  0  0  0
   57.5690   22.4310   45.4680 N   0  0  0  0  0  0  0  0  0  0  0  0
   58.1040   22.3980   44.1600 C   0  0  0  0  0  0  0  0  0  0  0  0
   57.6590   21.1980   43.3240 C   0  0  0  0  0  0  0  0  0  0  0  0
   56.2760   21.0980   43.4690 O   0  0  0  0  0  0  0  0  0  0  0  0
   56.0930   20.5650   44.7610 C   0  0  0  0  0  0  0  0  0  0  0  0
   56.6410   21.4260   45.8450 C   0  0  0  0  0  0  0  0  0  0  0  0
   57.3440   25.2110   44.0930 C   0  0  0  0  0  0  0  0  0  0  0  0
   58.0390   26.4920   43.6000 C   0  0  0  0  0  0  0  0  0  0  0  0
   58.7600   30.4330   47.1720 C   0  0  0  0  0  0  0  0  0  0  0  0
   59.4680   30.2830   48.3320 C   0  0  0  0  0  0  0  0  0  0  0  0
   59.2430   31.0780   49.4700 O   0  0  0  0  0  0  0  0  0  0  0  0
   58.5710   32.3110   49.2440 C   0  0  0  0  0  0  0  0  0  0  0  0
   59.1690   33.1120   48.1560 C   0  0  0  0  0  0  0  0  0  0  0  0
   58.4460   33.8450   47.2430 C   0  0  0  0  0  0  0  0  0  0  0  0
   59.1230   34.5570   46.2630 C   0  0  0  0  0  0  0  0  0  0  0  0
   60.5200   34.5420   46.1890 C   0  0  0  0  0  0  0  0  0  0  0  0
   61.2560   33.8000   47.1110 C   0  0  0  0  0  0  0  0  0  0  0  0
   62.7020   33.7370   47.0990 C   0  0  0  0  0  0  0  0  0  0  0  0
   63.3090   34.3890   46.1970 O   0  0  0  0  0  0  0  0  0  0  0  0
   63.4250   32.9780   48.0530 N   0  0  0  0  0  0  0  0  0  0  0  0
   64.4810   33.4320   48.9670 C   0  0  0  0  0  0  0  0  0  0  0  0
   63.9770   32.8440   50.2740 C   0  0  0  0  0  0  0  0  0  0  0  0
   63.2730   31.5830   49.8590 C   0  0  1  0  0  0  0  0  0  0  0  0
   61.9410   31.6860   50.2920 O   0  0  0  0  0  0  0  0  0  0  0  0
   63.2710   31.5730   48.3360 C   0  0  0  0  0  0  0  0  0  0  0  0
   60.5560   33.1050   48.0710 C   0  0  0  0  0  0  0  0  0  0  0  0
   60.9900   29.7460   50.2690 H   0  0  0  0  0  0  0  0  0  0  0  0
   61.4220   27.7980   47.3350 H   0  0  0  0  0  0  0  0  0  0  0  0
   60.1944   28.0104   45.2319 H   0  0  0  0  0  0  0  0  0  0  0  0
   58.6105   32.0101   45.1312 H   0  0  0  0  0  0  0  0  0  0  0  0
   57.3333   32.7113   43.1208 H   0  0  0  0  0  0  0  0  0  0  0  0
   56.1965   30.9664   41.7617 H   0  0  0  0  0  0  0  0  0  0  0  0
   56.3429   28.5950   42.3917 H   0  0  0  0  0  0  0  0  0  0  0  0
   56.9387   28.0463   46.4027 H   0  0  0  0  0  0  0  0  0  0  0  0
   55.9789   26.7728   45.6587 H   0  0  0  0  0  0  0  0  0  0  0  0
   59.0139   26.5626   46.2330 H   0  0  0  0  0  0  0  0  0  0  0  0
   57.7352   25.9015   47.3165 H   0  0  0  0  0  0  0  0  0  0  0  0
   58.9939   24.5942   45.3424 H   0  0  0  0  0  0  0  0  0  0  0  0
   57.8764   23.6007   47.0937 H   0  0  0  0  0  0  0  0  0  0  0  0
   56.3146   23.8380   46.0837 H   0  0  0  0  0  0  0  0  0  0  0  0
   57.7927   23.3149   43.6381 H   0  0  0  0  0  0  0  0  0  0  0  0
   59.1954   22.3156   44.2700 H   0  0  0  0  0  0  0  0  0  0  0  0
   57.9187   21.3556   42.2668 H   0  0  0  0  0  0  0  0  0  0  0  0
   58.1589   20.2767   43.6577 H   0  0  0  0  0  0  0  0  0  0  0  0
   55.0145   20.4335   44.9332 H   0  0  0  0  0  0  0  0  0  0  0  0
   56.6421   19.6126   44.7974 H   0  0  0  0  0  0  0  0  0  0  0  0
   55.7909   21.9263   46.3319 H   0  0  0  0  0  0  0  0  0  0  0  0
   57.2110   20.7413   46.4902 H   0  0  0  0  0  0  0  0  0  0  0  0
   57.5352   24.3810   43.3970 H   0  0  0  0  0  0  0  0  0  0  0  0
   56.2536   25.3433   44.1532 H   0  0  0  0  0  0  0  0  0  0  0  0
   59.1298   26.3978   43.7062 H   0  0  0  0  0  0  0  0  0  0  0  0
   57.8247   26.6777   42.5372 H   0  0  0  0  0  0  0  0  0  0  0  0
   57.9768   31.2033   47.1141 H   0  0  0  0  0  0  0  0  0  0  0  0
   57.5241   32.0955   48.9840 H   0  0  0  0  0  0  0  0  0  0  0  0
   58.6555   32.9021   50.1678 H   0  0  0  0  0  0  0  0  0  0  0  0
   57.3472   33.8662   47.2893 H   0  0  0  0  0  0  0  0  0  0  0  0
   58.5503   35.1445   45.5303 H   0  0  0  0  0  0  0  0  0  0  0  0
   61.0365   35.1147   45.4046 H   0  0  0  0  0  0  0  0  0  0  0  0
   65.4638   33.0237   48.6888 H   0  0  0  0  0  0  0  0  0  0  0  0
   64.6414   34.5201   48.9823 H   0  0  0  0  0  0  0  0  0  0  0  0
   64.8149   32.6193   50.9503 H   0  0  0  0  0  0  0  0  0  0  0  0
   63.3196   33.5344   50.8227 H   0  0  0  0  0  0  0  0  0  0  0  0
   63.7513   30.6826   50.2719 H   0  0  0  0  0  0  0  0  0  0  0  0
   61.3730   31.2740   49.6000 H   0  0  0  0  0  0  0  0  0  0  0  0
   64.1098   30.9855   47.9345 H   0  0  0  0  0  0  0  0  0  0  0  0
   62.3781   31.1144   47.8861 H   0  0  0  0  0  0  0  0  0  0  0  0
   61.1222   32.5152   48.8069 H   0  0  0  0  0  0  0  0  0  0  0  0
  1  2  2  3
  2  3  1  0
  3  4  1  0
  4  5  2  0
  5  6  1  0
  6  7  2  0
  7  8  1  0
  8  9  2  0
  9 10  1  0
 10 11  2  0
 11 12  1  0
 12 13  1  0
 13 14  1  0
 14 15  1  0
 15 16  1  0
 16 17  1  0
 17 18  1  0
 18 19  1  0
 19 20  1  0
 20 21  1  0
 21 22  1  0
 15 23  1  0
 23 24  1  0
  5 25  1  0
 25 26  2  0
 26 27  1  0
 27 28  1  0
 28 29  1  0
 29 30  2  0
 30 31  1  0
 31 32  2  0
 32 33  1  0
 33 34  1  0
 34 35  2  0
 34 36  1  0
 36 37  1  0
 37 38  1  0
 38 39  1  0
 39 40  1  0
 39 41  1  0
 33 42  2  0
 26  2  1  0
 42 29  1  0
 11  6  1  0
 24 12  1  0
 41 36  1  0
 22 17  1  0
  1 43  1  0
  3 44  1  0
  4 45  1  0
  7 46  1  0
  8 47  1  0
  9 48  1  0
 10 49  1  0
 13 50  1  0
 13 51  1  0
 14 52  1  0
 14 53  1  0
 15 54  1  0
 16 55  1  0
 16 56  1  0
 18 57  1  0
 18 58  1  0
 19 59  1  0
 19 60  1  0
 21 61  1  0
 21 62  1  0
 22 63  1  0
 22 64  1  0
 23 65  1  0
 23 66  1  0
 24 67  1  0
 24 68  1  0
 25 69  1  0
 28 70  1  0
 28 71  1  0
 30 72  1  0
 31 73  1  0
 32 74  1  0
 37 75  1  0
 37 76  1  0
 38 77  1  0
 38 78  1  0
 39 79  1  1
 40 80  1  0
 41 81  1  0
 41 82  1  0
 42 83  1  0
M  END
>  <smiles>  (38) 
N=c1[nH]cc(-c2ccccc2N2CCC(CN3CCOCC3)CC2)cc1OCc1cccc(C(=O)N2CCC(O)C2)c1

>  <score_type>  (38) 
oracle

>  <origin>  (38) 
adg

>  <m_score__min__energy>  (38) 
-11.449999999999999

>  <m_primary>  (38) 
energy

$$$$
38:0
     RDKit          3D

 63 65  0  0  0  0  0  0  0  0999 V2000
   57.1380   23.3670   44.9970 C   0  0  0  0  0  0  0  0  0  0  0  0
   56.8400   24.4940   45.8320 O   0  0  0  0  0  0  0  0  0  0  0  0
   57.1540   25.7770   45.4050 C   0  0  0  0  0  0  0  0  0  0  0  0
   57.7930   25.8810   44.1840 C   0  0  0  0  0  0  0  0  0  0  0  0
   58.1240   27.1430   43.7200 C   0  0  0  0  0  0  0  0  0  0  0  0
   57.8280   28.2940   44.4540 C   0  0  0  0  0  0  0  0  0  0  0  0
   58.2200   29.5370   43.8700 N   0  0  0  0  0  0  0  0  0  0  0  0
   57.1850   30.9170   43.8710 S   0  0  0  0  0  0  0  0  0  0  0  0
   56.7090   31.2630   42.5050 O   0  0  0  0  0  0  0  0  0  0  0  0
   55.9280   30.4780   44.6140 O   0  0  0  0  0  0  0  0  0  0  0  0
   57.9230   32.2010   44.7540 C   0  0  0  0  0  0  0  0  0  0  0  0
   57.7080   33.4950   44.2450 C   0  0  0  0  0  0  0  0  0  0  0  0
   58.1310   34.6390   44.8570 C   0  0  0  0  0  0  0  0  0  0  0  0
   58.8060   34.5160   46.0390 C   0  0  0  0  0  0  0  0  0  0  0  0
   59.0220   33.2720   46.5410 C   0  0  0  0  0  0  0  0  0  0  0  0
   58.5950   32.0750   45.9250 C   0  0  0  0  0  0  0  0  0  0  0  0
   58.9860   30.8740   46.6040 C   0  0  0  0  0  0  0  0  0  0  0  0
   58.1420   30.4600   47.5120 O   0  0  0  0  0  0  0  0  0  0  0  0
   60.0910   30.0450   46.4860 N   0  0  0  0  0  0  0  0  0  0  0  0
   60.2460   28.8560   47.2530 C   0  0  0  0  0  0  0  0  0  0  0  0
   60.2690   27.6750   46.4930 C   0  0  0  0  0  0  0  0  0  0  0  0
   60.4160   26.4350   47.0630 C   0  0  0  0  0  0  0  0  0  0  0  0
   60.5430   26.3540   48.4270 C   0  0  0  0  0  0  0  0  0  0  0  0
   60.5190   27.5070   49.1850 C   0  0  0  0  0  0  0  0  0  0  0  0
   60.3700   28.7720   48.6050 C   0  0  0  0  0  0  0  0  0  0  0  0
   60.3010   29.9590   49.4380 C   0  0  0  0  0  0  0  0  0  0  0  0
   61.3570   30.5360   49.7730 O   0  0  0  0  0  0  0  0  0  0  0  0
   59.0870   30.5210   49.9110 N   0  0  0  0  0  0  0  0  0  0  0  0
   59.0270   31.7030   50.7450 C   0  0  0  0  0  0  0  0  0  0  0  0
   57.6870   31.7430   51.4430 C   0  0  0  0  0  0  0  0  0  0  0  0
   57.1130   30.4290   51.5660 N   0  0  0  0  0  0  0  0  0  0  0  0
   57.9230   29.5350   52.3610 C   0  0  0  0  0  0  0  0  0  0  0  0
   55.7440   30.4340   51.9740 C   0  0  0  0  0  0  0  0  0  0  0  0
   57.1940   28.1830   45.6630 C   0  0  0  0  0  0  0  0  0  0  0  0
   56.8690   26.9080   46.1140 C   0  0  0  0  0  0  0  0  0  0  0  0
   57.3686   22.4950   45.6266 H   0  0  0  0  0  0  0  0  0  0  0  0
   56.2687   23.1411   44.3619 H   0  0  0  0  0  0  0  0  0  0  0  0
   58.0053   23.6003   44.3619 H   0  0  0  0  0  0  0  0  0  0  0  0
   58.0328   24.9833   43.5952 H   0  0  0  0  0  0  0  0  0  0  0  0
   58.6325   27.2415   42.7496 H   0  0  0  0  0  0  0  0  0  0  0  0
   59.1800   29.5320   43.4320 H   0  0  0  0  0  0  0  0  0  0  0  0
   57.1645   33.5905   43.2934 H   0  0  0  0  0  0  0  0  0  0  0  0
   57.9353   35.6267   44.4140 H   0  0  0  0  0  0  0  0  0  0  0  0
   59.1674   35.4068   46.5736 H   0  0  0  0  0  0  0  0  0  0  0  0
   59.5671   33.1916   47.4930 H   0  0  0  0  0  0  0  0  0  0  0  0
   60.8320   30.2720   45.8220 H   0  0  0  0  0  0  0  0  0  0  0  0
   60.1653   27.7465   45.4002 H   0  0  0  0  0  0  0  0  0  0  0  0
   60.4316   25.5277   46.4412 H   0  0  0  0  0  0  0  0  0  0  0  0
   60.6633   25.3749   48.9137 H   0  0  0  0  0  0  0  0  0  0  0  0
   60.6200   27.4295   50.2776 H   0  0  0  0  0  0  0  0  0  0  0  0
   58.1750   30.0800   49.6620 H   0  0  0  0  0  0  0  0  0  0  0  0
   59.8322   31.6678   51.4936 H   0  0  0  0  0  0  0  0  0  0  0  0
   59.1509   32.6030   50.1248 H   0  0  0  0  0  0  0  0  0  0  0  0
   57.8209   32.1693   52.4481 H   0  0  0  0  0  0  0  0  0  0  0  0
   57.0045   32.3611   50.8412 H   0  0  0  0  0  0  0  0  0  0  0  0
   57.7454   29.7310   53.4287 H   0  0  0  0  0  0  0  0  0  0  0  0
   57.6546   28.4936   52.1298 H   0  0  0  0  0  0  0  0  0  0  0  0
   58.9857   29.6997   52.1298 H   0  0  0  0  0  0  0  0  0  0  0  0
   55.6888   30.4342   53.0726 H   0  0  0  0  0  0  0  0  0  0  0  0
   55.2478   31.3340   51.5818 H   0  0  0  0  0  0  0  0  0  0  0  0
   55.2412   29.5377   51.5818 H   0  0  0  0  0  0  0  0  0  0  0  0
   56.9494   29.0747   46.2589 H   0  0  0  0  0  0  0  0  0  0  0  0
   56.3603   26.8068   47.0840 H   0  0  0  0  0  0  0  0  0  0  0  0
  1  2  1  0
  2  3  1  0
  3  4  2  0
  4  5  1  0
  5  6  2  0
  6  7  1  0
  7  8  1  0
  8  9  2  0
  8 10  2  0
  8 11  1  0
 11 12  2  0
 12 13  1  0
 13 14  2  0
 14 15  1  0
 15 16  2  0
 16 17  1  0
 17 18  2  0
 17 19  1  0
 19 20  1  0
 20 21  2  0
 21 22  1  0
 22 23  2  0
 23 24  1  0
 24 25  2  0
 25 26  1  0
 26 27  2  0
 26 28  1  0
 28 29  1  0
 29 30  1  0
 30 31  1  0
 31 32  1  0
 31 33  1  0
  6 34  1  0
 34 35  2  0
 35  3  1  0
 16 11  1  0
 25 20  1  0
  1 36  1  0
  1 37  1  0
  1 38  1  0
  4 39  1  0
  5 40  1  0
  7 41  1  0
 12 42  1  0
 13 43  1  0
 14 44  1  0
 15 45  1  0
 19 46  1  0
 21 47  1  0
 22 48  1  0
 23 49  1  0
 24 50  1  0
 28 51  1  0
 29 52  1  0
 29 53  1  0
 30 54  1  0
 30 55  1  0
 32 56  1  0
 32 57  1  0
 32 58  1  0
 33 59  1  0
 33 60  1  0
 33 61  1  0
 34 62  1  0
 35 63  1  0
M  END
>  <smiles>  (39) 
COc1ccc(NS(=O)(=O)c2ccccc2C(=O)Nc2ccccc2C(=O)NCCN(C)C)cc1

>  <score_type>  (39) 
oracle

>  <origin>  (39) 
adg

>  <m_score__min__energy>  (39) 
-9

>  <m_primary>  (39) 
energy

$$$$
39:0
     RDKit          3D

 43 46  0  0  0  0  0  0  0  0999 V2000
   57.5200   31.1650   42.9590 C   0  0  0  0  0  0  0  0  0  0  0  0
   57.8690   31.9730   44.1550 C   0  0  0  0  0  0  0  0  0  0  0  0
   57.6770   33.3350   44.1150 C   0  0  0  0  0  0  0  0  0  0  0  0
   57.9870   34.1040   45.1980 C   0  0  0  0  0  0  0  0  0  0  0  0
   58.4950   33.4950   46.3280 C   0  0  0  0  0  0  0  0  0  0  0  0
   58.8650   34.2380   47.5570 C   0  0  0  0  0  0  0  0  0  0  0  0
   59.9590   33.6200   48.2900 N   0  0  0  0  0  0  0  0  0  0  0  0
   59.9420   33.0090   49.5670 C   0  0  0  0  0  0  0  0  0  0  0  0
   58.9520   32.8910   50.3120 O   0  0  0  0  0  0  0  0  0  0  0  0
   61.2860   32.5290   49.8870 C   0  0  0  0  0  0  0  0  0  0  0  0
   61.6370   31.9360   50.9410 O   0  0  0  0  0  0  0  0  0  0  0  0
   62.1040   32.8920   48.7220 C   0  0  0  0  0  0  0  0  0  0  0  0
   63.4530   32.6840   48.4720 C   0  0  0  0  0  0  0  0  0  0  0  0
   64.0450   33.1060   47.2980 C   0  0  0  0  0  0  0  0  0  0  0  0
   63.2570   33.7440   46.3710 C   0  0  0  0  0  0  0  0  0  0  0  0
   61.9080   33.9510   46.6200 C   0  0  0  0  0  0  0  0  0  0  0  0
   61.3060   33.5290   47.8000 C   0  0  0  0  0  0  0  0  0  0  0  0
   58.6870   32.1090   46.3580 C   0  0  0  0  0  0  0  0  0  0  0  0
   58.3730   31.3190   45.2590 C   0  0  0  0  0  0  0  0  0  0  0  0
   58.5590   29.8720   45.2530 C   0  0  0  0  0  0  0  0  0  0  0  0
   59.7850   29.2610   45.3030 C   0  0  0  0  0  0  0  0  0  0  0  0
   59.8130   27.8810   45.2910 C   0  0  0  0  0  0  0  0  0  0  0  0
   58.6480   27.1220   45.2300 C   0  0  0  0  0  0  0  0  0  0  0  0
   57.4180   27.7470   45.1790 C   0  0  0  0  0  0  0  0  0  0  0  0
   57.3890   29.1120   45.1910 C   0  0  0  0  0  0  0  0  0  0  0  0
   56.1370   29.7240   45.1400 O   0  0  0  0  0  0  0  0  0  0  0  0
   57.1026   30.1987   43.2784 H   0  0  0  0  0  0  0  0  0  0  0  0
   56.7749   31.7050   42.3563 H   0  0  0  0  0  0  0  0  0  0  0  0
   58.4239   30.9928   42.3563 H   0  0  0  0  0  0  0  0  0  0  0  0
   57.2722   33.8051   43.2066 H   0  0  0  0  0  0  0  0  0  0  0  0
   57.8345   35.1931   45.1714 H   0  0  0  0  0  0  0  0  0  0  0  0
   59.1658   35.2572   47.2727 H   0  0  0  0  0  0  0  0  0  0  0  0
   57.9857   34.2372   48.2179 H   0  0  0  0  0  0  0  0  0  0  0  0
   64.0658   32.1704   49.2275 H   0  0  0  0  0  0  0  0  0  0  0  0
   65.1156   32.9364   47.1106 H   0  0  0  0  0  0  0  0  0  0  0  0
   63.6983   34.0928   45.4257 H   0  0  0  0  0  0  0  0  0  0  0  0
   61.2973   34.4636   45.8622 H   0  0  0  0  0  0  0  0  0  0  0  0
   59.0927   31.6379   47.2655 H   0  0  0  0  0  0  0  0  0  0  0  0
   60.7132   29.8493   45.3510 H   0  0  0  0  0  0  0  0  0  0  0  0
   60.7843   27.3662   45.3308 H   0  0  0  0  0  0  0  0  0  0  0  0
   58.7072   26.0236   45.2224 H   0  0  0  0  0  0  0  0  0  0  0  0
   56.4878   27.1619   45.1301 H   0  0  0  0  0  0  0  0  0  0  0  0
   55.6020   29.7100   46.0010 H   0  0  0  0  0  0  0  0  0  0  0  0
  1  2  1  0
  2  3  2  0
  3  4  1  0
  4  5  2  0
  5  6  1  0
  6  7  1  0
  7  8  1  0
  8  9  2  0
  8 10  1  0
 10 11  2  0
 10 12  1  0
 12 13  2  0
 13 14  1  0
 14 15  2  0
 15 16  1  0
 16 17  2  0
  5 18  1  0
 18 19  2  0
 19 20  1  0
 20 21  2  0
 21 22  1  0
 22 23  2  0
 23 24  1  0
 24 25  2  0
 25 26  1  0
 19  2  1  0
 25 20  1  0
 17  7  1  0
 17 12  1  0
  1 27  1  0
  1 28  1  0
  1 29  1  0
  3 30  1  0
  4 31  1  0
  6 32  1  0
  6 33  1  0
 13 34  1  0
 14 35  1  0
 15 36  1  0
 16 37  1  0
 18 38  1  0
 21 39  1  0
 22 40  1  0
 23 41  1  0
 24 42  1  0
 26 43  1  0
M  END
>  <smiles>  (40) 
Cc1ccc(CN2C(=O)C(=O)c3ccccc32)cc1-c1ccccc1O

>  <score_type>  (40) 
oracle

>  <origin>  (40) 
adg

>  <m_score__min__energy>  (40) 
-9.75

>  <m_primary>  (40) 
energy

$$$$
40:0
     RDKit          3D

 30 31  0  0  1  0  0  0  0  0999 V2000
   57.6400   32.4100   41.3830 C   0  0  0  0  0  0  0  0  0  0  0  0
   57.4060   31.9270   42.5690 C   0  0  0  0  0  0  0  0  0  0  0  0
   56.5480   30.8720   42.6950 N   0  0  0  0  0  0  0  0  0  0  0  0
   56.2860   30.3500   43.9080 C   0  0  0  0  0  0  0  0  0  0  0  0
   55.4890   29.3710   44.0160 O   0  0  0  0  0  0  0  0  0  0  0  0
   56.8650   30.8640   44.9930 N   0  0  0  0  0  0  0  0  0  0  0  0
   57.7160   31.8980   44.9430 C   0  0  0  0  0  0  0  0  0  0  0  0
   58.2680   32.3680   46.0490 C   0  0  0  0  0  0  0  0  0  0  0  0
   57.6400   33.4630   46.7890 C   0  0  0  0  0  0  0  0  0  0  0  0
   58.5480   34.6490   46.6540 C   0  0  0  0  0  0  0  0  0  0  0  0
   59.7620   34.4020   45.8310 C   0  0  0  0  0  0  0  0  0  0  0  0
   61.0100   34.0120   46.5110 C   0  0  0  0  0  0  0  0  0  0  0  0
   60.9880   32.6630   47.2010 C   0  0  0  0  0  0  0  0  0  0  0  0
   59.8000   31.5250   46.4560 S   0  0  0  0  0  0  0  0  0  0  0  0
   58.0070   32.4590   43.7010 C   0  0  0  0  0  0  0  0  0  0  0  0
   58.7950   33.4270   43.5910 O   0  0  0  0  0  0  0  0  0  0  0  0
   58.3280   33.2596   41.2610 H   0  0  0  0  0  0  0  0  0  0  0  0
   57.1497   31.9686   40.5028 H   0  0  0  0  0  0  0  0  0  0  0  0
   56.1150   30.4970   41.8250 H   0  0  0  0  0  0  0  0  0  0  0  0
   56.6350   30.4380   45.9100 H   0  0  0  0  0  0  0  0  0  0  0  0
   56.6519   33.6912   46.3628 H   0  0  0  0  0  0  0  0  0  0  0  0
   57.4934   33.1944   47.8456 H   0  0  0  0  0  0  0  0  0  0  0  0
   57.9783   35.4676   46.1899 H   0  0  0  0  0  0  0  0  0  0  0  0
   58.8996   34.8925   47.6674 H   0  0  0  0  0  0  0  0  0  0  0  0
   59.5146   33.5982   45.1220 H   0  0  0  0  0  0  0  0  0  0  0  0
   59.9921   35.3842   45.3925 H   0  0  0  0  0  0  0  0  0  0  0  0
   61.8131   33.9943   45.7595 H   0  0  0  0  0  0  0  0  0  0  0  0
   61.1618   34.7544   47.3084 H   0  0  0  0  0  0  0  0  0  0  0  0
   61.9916   32.2174   47.1366 H   0  0  0  0  0  0  0  0  0  0  0  0
   60.6846   32.8266   48.2456 H   0  0  0  0  0  0  0  0  0  0  0  0
  1  2  2  0
  2  3  1  0
  3  4  1  0
  4  5  2  0
  4  6  1  0
  6  7  1  0
  7  8  2  0
  8  9  1  0
  9 10  1  0
 10 11  1  0
 11 12  1  0
 12 13  1  0
 13 14  1  0
  7 15  1  0
 15 16  2  0
 15  2  1  0
 14  8  1  0
  1 17  1  0
  1 18  1  0
  3 19  1  0
  6 20  1  0
  9 21  1  0
  9 22  1  0
 10 23  1  0
 10 24  1  0
 11 25  1  0
 11 26  1  0
 12 27  1  0
 12 28  1  0
 13 29  1  0
 13 30  1  0
M  END
>  <smiles>  (41) 
C=c1[nH]c(=O)[nH]c(=C2CCCCCS2)c1=O

>  <score_type>  (41) 
oracle

>  <origin>  (41) 
adg

>  <m_score__min__energy>  (41) 
-4.8799999999999999

>  <m_primary>  (41) 
energy

$$$$
41:0
     RDKit          3D

 48 51  0  0  0  0  0  0  0  0999 V2000
   65.7200   31.8640   51.4190 C   0  0  0  0  0  0  0  0  0  0  0  0
   64.6850   31.9770   50.3760 C   0  0  0  0  0  0  0  0  0  0  0  0
   63.5540   31.1790   50.5240 C   0  0  0  0  0  0  0  0  0  0  0  0
   62.5670   31.2290   49.6050 N   0  0  0  0  0  0  0  0  0  0  0  0
   62.6320   32.0460   48.5180 C   0  0  0  0  0  0  0  0  0  0  0  0
   61.5460   32.0880   47.5290 C   0  0  0  0  0  0  0  0  0  0  0  0
   61.4380   31.1340   46.7240 O   0  0  0  0  0  0  0  0  0  0  0  0
   60.6810   33.2130   47.5440 N   0  0  0  0  0  0  0  0  0  0  0  0
   59.5940   33.3830   46.6490 C   0  0  0  0  0  0  0  0  0  0  0  0
   58.7840   34.4970   46.6680 C   0  0  0  0  0  0  0  0  0  0  0  0
   57.7400   34.5790   45.7410 C   0  0  0  0  0  0  0  0  0  0  0  0
   57.5300   33.5530   44.8210 C   0  0  0  0  0  0  0  0  0  0  0  0
   58.3310   32.4440   44.7970 C   0  0  0  0  0  0  0  0  0  0  0  0
   58.1830   31.3050   43.8610 C   0  0  0  0  0  0  0  0  0  0  0  0
   57.6820   30.0720   44.4740 C   0  0  0  0  0  0  0  0  0  0  0  0
   56.3430   29.7940   44.3870 N   0  0  0  0  0  0  0  0  0  0  0  0
   55.8190   28.7020   44.8830 N   0  0  0  0  0  0  0  0  0  0  0  0
   56.5410   27.7500   45.5240 C   0  0  0  0  0  0  0  0  0  0  0  0
   55.9670   26.7190   45.9760 O   0  0  0  0  0  0  0  0  0  0  0  0
   57.8960   27.9610   45.6490 C   0  0  0  0  0  0  0  0  0  0  0  0
   58.4380   29.1280   45.1170 C   0  0  0  0  0  0  0  0  0  0  0  0
   59.8250   29.3750   45.2630 N   0  0  0  0  0  0  0  0  0  0  0  0
   60.6910   28.2180   45.4880 C   0  0  0  0  0  0  0  0  0  0  0  0
   60.1290   27.3420   46.5890 C   0  0  0  0  0  0  0  0  0  0  0  0
   58.7160   26.9360   46.3400 C   0  0  0  0  0  0  0  0  0  0  0  0
   59.3600   32.3850   45.7260 C   0  0  0  0  0  0  0  0  0  0  0  0
   63.7570   32.8220   48.3980 C   0  0  0  0  0  0  0  0  0  0  0  0
   64.7710   32.7930   49.3080 N   0  0  0  0  0  0  0  0  0  0  0  0
   65.2479   31.9155   52.4112 H   0  0  0  0  0  0  0  0  0  0  0  0
   66.2449   30.9032   51.3122 H   0  0  0  0  0  0  0  0  0  0  0  0
   66.4398   32.6889   51.3122 H   0  0  0  0  0  0  0  0  0  0  0  0
   63.4648   30.5073   51.3905 H   0  0  0  0  0  0  0  0  0  0  0  0
   60.8140   34.0020   48.2470 H   0  0  0  0  0  0  0  0  0  0  0  0
   58.9545   35.3039   47.3959 H   0  0  0  0  0  0  0  0  0  0  0  0
   57.0801   35.4591   45.7379 H   0  0  0  0  0  0  0  0  0  0  0  0
   56.7037   33.6367   44.0998 H   0  0  0  0  0  0  0  0  0  0  0  0
   57.4823   31.6025   43.0669 H   0  0  0  0  0  0  0  0  0  0  0  0
   59.1914   31.0782   43.4845 H   0  0  0  0  0  0  0  0  0  0  0  0
   54.7710   28.5650   44.7720 H   0  0  0  0  0  0  0  0  0  0  0  0
   60.1580   30.3490   45.2110 H   0  0  0  0  0  0  0  0  0  0  0  0
   60.7614   27.6323   44.5596 H   0  0  0  0  0  0  0  0  0  0  0  0
   61.6880   28.5724   45.7887 H   0  0  0  0  0  0  0  0  0  0  0  0
   60.7468   26.4352   46.6664 H   0  0  0  0  0  0  0  0  0  0  0  0
   60.1460   27.9281   47.5197 H   0  0  0  0  0  0  0  0  0  0  0  0
   58.7234   26.0268   45.7209 H   0  0  0  0  0  0  0  0  0  0  0  0
   58.2561   26.7794   47.3269 H   0  0  0  0  0  0  0  0  0  0  0  0
   60.0181   31.5036   45.7264 H   0  0  0  0  0  0  0  0  0  0  0  0
   63.8441   33.4949   47.5322 H   0  0  0  0  0  0  0  0  0  0  0  0
  1  2  1  0
  2  3  2  0
  3  4  1  0
  4  5  2  0
  5  6  1  0
  6  7  2  0
  6  8  1  0
  8  9  1  0
  9 10  2  0
 10 11  1  0
 11 12  2  0
 12 13  1  0
 13 14  1  0
 14 15  1  0
 15 16  2  0
 16 17  1  0
 17 18  1  0
 18 19  2  0
 18 20  1  0
 20 21  2  0
 21 22  1  0
 22 23  1  0
 23 24  1  0
 24 25  1  0
 13 26  2  0
  5 27  1  0
 27 28  2  0
 28  2  1  0
 26  9  1  0
 21 15  1  0
 25 20  1  0
  1 29  1  0
  1 30  1  0
  1 31  1  0
  3 32  1  0
  8 33  1  0
 10 34  1  0
 11 35  1  0
 12 36  1  0
 14 37  1  0
 14 38  1  0
 17 39  1  0
 22 40  1  0
 23 41  1  0
 23 42  1  0
 24 43  1  0
 24 44  1  0
 25 45  1  0
 25 46  1  0
 26 47  1  0
 27 48  1  0
M  END
>  <smiles>  (42) 
Cc1cnc(C(=O)Nc2cccc(Cc3n[nH]c(=O)c4c3NCCC4)c2)cn1

>  <score_type>  (42) 
oracle

>  <origin>  (42) 
adg

>  <m_score__min__energy>  (42) 
-9.0099999999999998

>  <m_primary>  (42) 
energy

$$$$
42:0
     RDKit          3D

 50 52  0  0  0  0  0  0  0  0999 V2000
   57.7940   19.5260   47.9360 C   0  0  0  0  0  0  0  0  0  0  0  0
   57.5060   20.6490   47.0170 C   0  0  0  0  0  0  0  0  0  0  0  0
   57.0160   21.7340   47.4400 O   0  0  0  0  0  0  0  0  0  0  0  0
   57.7620   20.5810   45.6160 N   0  0  0  0  0  0  0  0  0  0  0  0
   57.4350   21.7410   44.8540 C   0  0  0  0  0  0  0  0  0  0  0  0
   57.9360   22.9790   45.2010 C   0  0  0  0  0  0  0  0  0  0  0  0
   57.6310   24.0940   44.4820 C   0  0  0  0  0  0  0  0  0  0  0  0
   58.1330   25.3890   44.8170 N   0  0  0  0  0  0  0  0  0  0  0  0
   57.3730   26.3640   45.4900 C   0  0  0  0  0  0  0  0  0  0  0  0
   56.1880   26.1070   45.8240 O   0  0  0  0  0  0  0  0  0  0  0  0
   57.8830   27.6870   45.8340 C   0  0  0  0  0  0  0  0  0  0  0  0
   57.8090   28.6840   44.8830 C   0  0  0  0  0  0  0  0  0  0  0  0
   58.2850   29.9710   45.1640 C   0  0  0  0  0  0  0  0  0  0  0  0
   58.8350   30.2650   46.3970 C   0  0  0  0  0  0  0  0  0  0  0  0
   59.3550   31.5840   46.7720 C   0  0  0  0  0  0  0  0  0  0  0  0
   58.3730   32.5980   47.0000 N   0  0  0  0  0  0  0  0  0  0  0  0
   57.7570   33.1220   45.8210 C   0  0  0  0  0  0  0  0  0  0  0  0
   58.7580   33.9160   45.0300 C   0  0  0  0  0  0  0  0  0  0  0  0
   59.2590   34.9570   45.7630 O   0  0  0  0  0  0  0  0  0  0  0  0
   58.9360   34.9860   47.0920 C   0  0  0  0  0  0  0  0  0  0  0  0
   58.9490   33.6480   47.7840 C   0  0  0  0  0  0  0  0  0  0  0  0
   58.9060   29.2490   47.3570 C   0  0  0  0  0  0  0  0  0  0  0  0
   58.4340   27.9910   47.0600 C   0  0  0  0  0  0  0  0  0  0  0  0
   56.8060   24.0050   43.3840 C   0  0  0  0  0  0  0  0  0  0  0  0
   56.2790   22.7910   42.9940 C   0  0  0  0  0  0  0  0  0  0  0  0
   56.6020   21.6570   43.7420 C   0  0  0  0  0  0  0  0  0  0  0  0
   56.0980   20.4060   43.3930 O   0  0  0  0  0  0  0  0  0  0  0  0
   57.7053   19.8717   48.9765 H   0  0  0  0  0  0  0  0  0  0  0  0
   57.0754   18.7125   47.7574 H   0  0  0  0  0  0  0  0  0  0  0  0
   58.8154   19.1588   47.7574 H   0  0  0  0  0  0  0  0  0  0  0  0
   58.1680   19.7130   45.1970 H   0  0  0  0  0  0  0  0  0  0  0  0
   58.5956   23.0668   46.0769 H   0  0  0  0  0  0  0  0  0  0  0  0
   59.1110   25.5880   44.5360 H   0  0  0  0  0  0  0  0  0  0  0  0
   57.3729   28.4665   43.8968 H   0  0  0  0  0  0  0  0  0  0  0  0
   58.2203   30.7554   44.3955 H   0  0  0  0  0  0  0  0  0  0  0  0
   59.9394   31.4661   47.6965 H   0  0  0  0  0  0  0  0  0  0  0  0
   59.9457   31.9284   45.9103 H   0  0  0  0  0  0  0  0  0  0  0  0
   57.3822   32.2910   45.2053 H   0  0  0  0  0  0  0  0  0  0  0  0
   56.9220   33.7773   46.1097 H   0  0  0  0  0  0  0  0  0  0  0  0
   59.5861   33.2551   44.7341 H   0  0  0  0  0  0  0  0  0  0  0  0
   58.2522   34.3274   44.1441 H   0  0  0  0  0  0  0  0  0  0  0  0
   59.6570   35.6407   47.6033 H   0  0  0  0  0  0  0  0  0  0  0  0
   57.8987   35.3480   47.1465 H   0  0  0  0  0  0  0  0  0  0  0  0
   59.9922   33.3824   48.0103 H   0  0  0  0  0  0  0  0  0  0  0  0
   58.3389   33.7466   48.6940 H   0  0  0  0  0  0  0  0  0  0  0  0
   59.3383   29.4557   48.3471 H   0  0  0  0  0  0  0  0  0  0  0  0
   58.4985   27.2034   47.8252 H   0  0  0  0  0  0  0  0  0  0  0  0
   56.5640   24.9121   42.8108 H   0  0  0  0  0  0  0  0  0  0  0  0
   55.6208   22.7183   42.1157 H   0  0  0  0  0  0  0  0  0  0  0  0
   56.6700   19.5690   43.4050 H   0  0  0  0  0  0  0  0  0  0  0  0
  1  2  1  0
  2  3  2  0
  2  4  1  0
  4  5  1  0
  5  6  2  0
  6  7  1  0
  7  8  1  0
  8  9  1  0
  9 10  2  0
  9 11  1  0
 11 12  2  0
 12 13  1  0
 13 14  2  0
 14 15  1  0
 15 16  1  0
 16 17  1  0
 17 18  1  0
 18 19  1  0
 19 20  1  0
 20 21  1  0
 14 22  1  0
 22 23  2  0
  7 24  2  0
 24 25  1  0
 25 26  2  0
 26 27  1  0
 26  5  1  0
 23 11  1  0
 21 16  1  0
  1 28  1  0
  1 29  1  0
  1 30  1  0
  4 31  1  0
  6 32  1  0
  8 33  1  0
 12 34  1  0
 13 35  1  0
 15 36  1  0
 15 37  1  0
 17 38  1  0
 17 39  1  0
 18 40  1  0
 18 41  1  0
 20 42  1  0
 20 43  1  0
 21 44  1  0
 21 45  1  0
 22 46  1  0
 23 47  1  0
 24 48  1  0
 25 49  1  0
 27 50  1  0
M  END
>  <smiles>  (43) 
CC(=O)Nc1cc(NC(=O)c2ccc(CN3CCOCC3)cc2)ccc1O

>  <score_type>  (43) 
oracle

>  <origin>  (43) 
adg

>  <m_score__min__energy>  (43) 
-8.7699999999999996

>  <m_primary>  (43) 
energy

$$$$
43:0
     RDKit          3D

 35 36  0  0  1  0  0  0  0  0999 V2000
   58.2550   32.4250   43.2080 O   0  0  0  0  0  0  0  0  0  0  0  0
   57.7530   32.5690   44.3470 C   0  0  0  0  0  0  0  0  0  0  0  0
   57.8010   33.8140   45.1440 C   0  0  0  0  0  0  0  0  0  0  0  0
   59.1530   34.2500   45.5800 C   0  0  0  0  0  0  0  0  0  0  0  0
   59.3330   34.1880   47.0570 C   0  0  0  0  0  0  0  0  0  0  0  0
   60.7750   34.0090   47.3840 C   0  0  0  0  0  0  0  0  0  0  0  0
   61.7350   33.8170   46.4090 C   0  0  0  0  0  0  0  0  0  0  0  0
   63.0750   33.6540   46.7580 C   0  0  0  0  0  0  0  0  0  0  0  0
   63.4500   33.6840   48.0740 C   0  0  0  0  0  0  0  0  0  0  0  0
   62.4950   33.8760   49.0580 C   0  0  0  0  0  0  0  0  0  0  0  0
   61.1740   34.0350   48.7100 C   0  0  0  0  0  0  0  0  0  0  0  0
   60.2820   34.2190   49.7040 F   0  0  0  0  0  0  0  0  0  0  0  0
   57.0860   31.4400   44.9020 N   0  0  0  0  0  0  0  0  0  0  0  0
   57.5900   30.2700   44.8360 C   0  0  0  0  0  0  0  0  0  0  0  0
   58.9320   30.2080   44.5910 N   0  0  0  0  0  0  0  0  0  0  0  0
   59.5840   29.0370   44.4980 C   0  0  0  0  0  0  0  0  0  0  0  0
   58.8700   27.8700   44.6560 C   0  0  0  0  0  0  0  0  0  0  0  0
   57.5140   27.9170   44.9040 C   0  0  0  0  0  0  0  0  0  0  0  0
   56.8410   29.1320   45.0010 C   0  0  0  0  0  0  0  0  0  0  0  0
   55.4900   29.2150   45.2470 O   0  0  0  0  0  0  0  0  0  0  0  0
   57.3656   34.6209   44.5363 H   0  0  0  0  0  0  0  0  0  0  0  0
   57.2435   33.5996   46.0677 H   0  0  0  0  0  0  0  0  0  0  0  0
   59.9018   33.5974   45.1074 H   0  0  0  0  0  0  0  0  0  0  0  0
   59.2755   35.3001   45.2761 H   0  0  0  0  0  0  0  0  0  0  0  0
   58.9698   35.1230   47.5084 H   0  0  0  0  0  0  0  0  0  0  0  0
   58.7623   33.3366   47.4563 H   0  0  0  0  0  0  0  0  0  0  0  0
   61.4399   33.7926   45.3496 H   0  0  0  0  0  0  0  0  0  0  0  0
   63.8319   33.5011   45.9746 H   0  0  0  0  0  0  0  0  0  0  0  0
   64.5073   33.5559   48.3492 H   0  0  0  0  0  0  0  0  0  0  0  0
   62.7925   33.9013   50.1167 H   0  0  0  0  0  0  0  0  0  0  0  0
   59.4900   31.0950   44.4680 H   0  0  0  0  0  0  0  0  0  0  0  0
   60.6657   29.0109   44.2998 H   0  0  0  0  0  0  0  0  0  0  0  0
   59.3819   26.8990   44.5843 H   0  0  0  0  0  0  0  0  0  0  0  0
   56.9544   26.9780   45.0273 H   0  0  0  0  0  0  0  0  0  0  0  0
   55.1550   30.0990   45.6290 H   0  0  0  0  0  0  0  0  0  0  0  0
  1  2  2  0
  2  3  1  0
  3  4  1  0
  4  5  1  0
  5  6  1  0
  6  7  2  0
  7  8  1  0
  8  9  2  0
  9 10  1  0
 10 11  2  0
 11 12  1  0
  2 13  1  0
 13 14  2  0
 14 15  1  0
 15 16  1  0
 16 17  2  0
 17 18  1  0
 18 19  2  0
 19 20  1  0
 11  6  1  0
 19 14  1  0
  3 21  1  0
  3 22  1  0
  4 23  1  0
  4 24  1  0
  5 25  1  0
  5 26  1  0
  7 27  1  0
  8 28  1  0
  9 29  1  0
 10 30  1  0
 15 31  1  0
 16 32  1  0
 17 33  1  0
 18 34  1  0
 20 35  1  0
M  END
>  <smiles>  (44) 
O=C(CCCc1ccccc1F)N=c1[nH]cccc1O

>  <score_type>  (44) 
oracle

>  <origin>  (44) 
adg

>  <m_score__min__energy>  (44) 
-8.0700000000000003

>  <m_primary>  (44) 
energy

$$$$
44:0
     RDKit          3D

 53 56  0  0  0  0  0  0  0  0999 V2000
   56.3660   30.1070   51.6780 O   0  0  0  0  0  0  0  0  0  0  0  0
   56.2440   29.9890   52.9470 C   0  0  0  0  0  0  0  0  0  0  0  0
   55.0880   29.3620   53.6080 C   0  0  0  0  0  0  0  0  0  0  0  0
   53.8390   29.9380   52.9660 C   0  0  0  0  0  0  0  0  0  0  0  0
   53.0820   30.7880   53.6430 N   0  0  0  0  0  0  0  0  0  0  0  0
   52.0980   31.2620   52.9180 N   0  0  0  0  0  0  0  0  0  0  0  0
   52.3450   30.6080   51.6720 C   0  0  0  0  0  0  0  0  0  0  0  0
   51.6430   30.9480   50.4130 C   0  0  0  0  0  0  0  0  0  0  0  0
   51.7270   29.9920   49.3770 C   0  0  0  0  0  0  0  0  0  0  0  0
   51.0680   30.3350   48.2470 C   0  0  0  0  0  0  0  0  0  0  0  0
   50.5640   31.5790   48.6370 C   0  0  0  0  0  0  0  0  0  0  0  0
   50.9460   31.8580   49.9320 O   0  0  0  0  0  0  0  0  0  0  0  0
   53.3530   29.8350   51.7700 N   0  0  0  0  0  0  0  0  0  0  0  0
   57.3610   30.5600   53.6850 N   0  0  0  0  0  0  0  0  0  0  0  0
   58.2790   31.1020   52.7260 C   0  0  0  0  0  0  0  0  0  0  0  0
   57.9030   32.4560   52.4020 C   0  0  0  0  0  0  0  0  0  0  0  0
   58.5450   32.9380   51.3530 C   0  0  0  0  0  0  0  0  0  0  0  0
   59.4980   32.3090   50.5380 C   0  0  0  0  0  0  0  0  0  0  0  0
   59.9270   33.0490   49.4090 C   0  0  0  0  0  0  0  0  0  0  0  0
   60.9810   33.4250   48.9510 O   0  0  0  0  0  0  0  0  0  0  0  0
   58.6070   33.5260   48.4530 N   0  0  0  0  0  0  0  0  0  0  0  0
   59.2920   33.6910   47.2790 C   0  0  0  0  0  0  0  0  0  0  0  0
   60.3890   33.7700   46.8240 O   0  0  0  0  0  0  0  0  0  0  0  0
   58.2190   33.7300   46.2000 N   0  0  0  0  0  0  0  0  0  0  0  0
   58.4750   33.7020   44.8420 C   0  0  0  0  0  0  0  0  0  0  0  0
   57.8860   32.5660   44.1200 C   0  0  0  0  0  0  0  0  0  0  0  0
   57.7860   32.5960   42.7490 C   0  0  0  0  0  0  0  0  0  0  0  0
   57.2020   31.5720   42.0010 C   0  0  0  0  0  0  0  0  0  0  0  0
   56.7200   30.5090   42.7360 C   0  0  0  0  0  0  0  0  0  0  0  0
   56.7980   30.4210   44.1220 C   0  0  0  0  0  0  0  0  0  0  0  0
   57.3790   31.4540   44.8070 C   0  0  0  0  0  0  0  0  0  0  0  0
   59.7800   31.0320   50.9030 C   0  0  0  0  0  0  0  0  0  0  0  0
   59.1930   30.3850   52.0240 C   0  0  0  0  0  0  0  0  0  0  0  0
   55.1172   28.2718   53.4647 H   0  0  0  0  0  0  0  0  0  0  0  0
   55.0998   29.5623   54.6895 H   0  0  0  0  0  0  0  0  0  0  0  0
   51.3530   31.9210   53.1140 H   0  0  0  0  0  0  0  0  0  0  0  0
   52.2818   29.0478   49.4805 H   0  0  0  0  0  0  0  0  0  0  0  0
   50.9599   29.7922   47.2964 H   0  0  0  0  0  0  0  0  0  0  0  0
   49.9524   32.2385   48.0037 H   0  0  0  0  0  0  0  0  0  0  0  0
   57.4640   30.5350   54.7060 H   0  0  0  0  0  0  0  0  0  0  0  0
   57.1567   33.0297   52.9711 H   0  0  0  0  0  0  0  0  0  0  0  0
   58.2985   33.9750   51.0812 H   0  0  0  0  0  0  0  0  0  0  0  0
   58.1470   33.4130   49.2580 H   0  0  0  0  0  0  0  0  0  0  0  0
   57.2440   33.7780   46.5890 H   0  0  0  0  0  0  0  0  0  0  0  0
   58.0783   34.6285   44.4013 H   0  0  0  0  0  0  0  0  0  0  0  0
   59.5652   33.5991   44.7379 H   0  0  0  0  0  0  0  0  0  0  0  0
   58.1861   33.4704   42.2149 H   0  0  0  0  0  0  0  0  0  0  0  0
   57.1313   31.6102   40.9039 H   0  0  0  0  0  0  0  0  0  0  0  0
   56.2444   29.6794   42.1924 H   0  0  0  0  0  0  0  0  0  0  0  0
   56.4027   29.5433   44.6543 H   0  0  0  0  0  0  0  0  0  0  0  0
   57.4486   31.4113   45.9040 H   0  0  0  0  0  0  0  0  0  0  0  0
   60.5033   30.4665   50.2971 H   0  0  0  0  0  0  0  0  0  0  0  0
   59.4650   29.3576   52.3077 H   0  0  0  0  0  0  0  0  0  0  0  0
  1  2  2  0
  2  3  1  0
  3  4  1  0
  4  5  2  0
  5  6  1  0
  6  7  1  0
  7  8  1  0
  8  9  2  0
  9 10  1  0
 10 11  2  0
 11 12  1  0
  7 13  2  0
  2 14  1  0
 14 15  1  0
 15 16  2  0
 16 17  1  0
 17 18  2  0
 18 19  1  0
 19 20  2  0
 19 21  1  0
 21 22  1  0
 22 23  2  0
 22 24  1  0
 24 25  1  0
 25 26  1  0
 26 27  2  0
 27 28  1  0
 28 29  2  0
 29 30  1  0
 30 31  2  0
 18 32  1  0
 32 33  2  0
 13  4  1  0
 33 15  1  0
 12  8  1  0
 31 26  1  0
  3 34  1  0
  3 35  1  0
  6 36  1  0
  9 37  1  0
 10 38  1  0
 11 39  1  0
 14 40  1  0
 16 41  1  0
 17 42  1  0
 21 43  1  0
 24 44  1  0
 25 45  1  0
 25 46  1  0
 27 47  1  0
 28 48  1  0
 29 49  1  0
 30 50  1  0
 31 51  1  0
 32 52  1  0
 33 53  1  0
M  END
>  <smiles>  (45) 
O=C(Cc1n[nH]c(-c2ccco2)n1)Nc1ccc(C(=O)NC(=O)NCc2ccccc2)cc1

>  <score_type>  (45) 
oracle

>  <origin>  (45) 
adg

>  <m_score__min__energy>  (45) 
-9.75

>  <m_primary>  (45) 
energy

$$$$
45:0
     RDKit          3D

 50 53  0  0  0  0  0  0  0  0999 V2000
   59.2390   27.4850   46.5320 C   0  0  0  0  0  0  0  0  0  0  0  0
   58.0110   28.1090   46.0470 C   0  0  0  0  0  0  0  0  0  0  0  0
   56.9180   27.4220   45.5730 C   0  0  0  0  0  0  0  0  0  0  0  0
   56.6420   26.0130   45.4170 C   0  0  0  0  0  0  0  0  0  0  0  0
   55.7000   25.4040   46.0180 O   0  0  0  0  0  0  0  0  0  0  0  0
   57.4310   25.1930   44.5530 N   0  0  0  0  0  0  0  0  0  0  0  0
   57.1690   23.7930   44.3840 C   0  0  0  0  0  0  0  0  0  0  0  0
   57.4250   22.8540   45.3350 C   0  0  0  0  0  0  0  0  0  0  0  0
   57.1510   21.5100   45.1240 C   0  0  0  0  0  0  0  0  0  0  0  0
   56.6050   21.1690   43.9020 C   0  0  0  0  0  0  0  0  0  0  0  0
   56.3430   22.0990   42.9390 C   0  0  0  0  0  0  0  0  0  0  0  0
   56.6160   23.4480   43.1450 C   0  0  0  0  0  0  0  0  0  0  0  0
   56.0310   28.3860   45.2310 N   0  0  0  0  0  0  0  0  0  0  0  0
   56.5350   29.5430   45.4750 O   0  0  0  0  0  0  0  0  0  0  0  0
   57.7570   29.4550   45.9810 C   0  0  0  0  0  0  0  0  0  0  0  0
   58.5220   30.6270   46.3320 C   0  0  0  0  0  0  0  0  0  0  0  0
   57.9390   31.8630   46.1050 C   0  0  0  0  0  0  0  0  0  0  0  0
   58.5970   33.0560   46.4210 C   0  0  0  0  0  0  0  0  0  0  0  0
   59.8580   33.0480   46.9740 C   0  0  0  0  0  0  0  0  0  0  0  0
   60.6030   34.2440   47.3220 C   0  0  0  0  0  0  0  0  0  0  0  0
   60.0150   35.3480   47.1590 O   0  0  0  0  0  0  0  0  0  0  0  0
   61.9360   34.2300   47.8250 N   0  0  0  0  0  0  0  0  0  0  0  0
   63.0950   33.9850   46.9590 C   0  0  0  0  0  0  0  0  0  0  0  0
   63.8590   32.8400   47.5600 C   0  0  0  0  0  0  0  0  0  0  0  0
   63.9630   32.8580   48.8830 C   0  0  0  0  0  0  0  0  0  0  0  0
   63.4060   33.8810   49.7770 C   0  0  0  0  0  0  0  0  0  0  0  0
   62.1550   34.4600   49.2350 C   0  0  0  0  0  0  0  0  0  0  0  0
   60.4420   31.8300   47.2020 C   0  0  0  0  0  0  0  0  0  0  0  0
   59.7750   30.6380   46.8820 C   0  0  0  0  0  0  0  0  0  0  0  0
   59.2403   27.4844   47.6320 H   0  0  0  0  0  0  0  0  0  0  0  0
   59.2940   26.4496   46.1647 H   0  0  0  0  0  0  0  0  0  0  0  0
   60.1077   28.0510   46.1647 H   0  0  0  0  0  0  0  0  0  0  0  0
   58.2330   25.6370   44.0180 H   0  0  0  0  0  0  0  0  0  0  0  0
   57.8601   23.1682   46.2952 H   0  0  0  0  0  0  0  0  0  0  0  0
   57.3589   20.7521   45.8936 H   0  0  0  0  0  0  0  0  0  0  0  0
   56.3739   20.1130   43.6987 H   0  0  0  0  0  0  0  0  0  0  0  0
   55.9077   21.7766   41.9816 H   0  0  0  0  0  0  0  0  0  0  0  0
   56.4080   24.2044   42.3739 H   0  0  0  0  0  0  0  0  0  0  0  0
   56.9320   31.9073   45.6646 H   0  0  0  0  0  0  0  0  0  0  0  0
   58.0988   34.0168   46.2245 H   0  0  0  0  0  0  0  0  0  0  0  0
   62.7598   33.7241   45.9443 H   0  0  0  0  0  0  0  0  0  0  0  0
   63.7267   34.8826   46.8858 H   0  0  0  0  0  0  0  0  0  0  0  0
   64.3017   32.0418   46.9461 H   0  0  0  0  0  0  0  0  0  0  0  0
   64.5167   32.0315   49.3524 H   0  0  0  0  0  0  0  0  0  0  0  0
   63.1927   33.4227   50.7540 H   0  0  0  0  0  0  0  0  0  0  0  0
   64.1445   34.6904   49.8740 H   0  0  0  0  0  0  0  0  0  0  0  0
   61.3097   34.0235   49.7872 H   0  0  0  0  0  0  0  0  0  0  0  0
   62.2417   35.5496   49.3588 H   0  0  0  0  0  0  0  0  0  0  0  0
   61.4490   31.7859   47.6426 H   0  0  0  0  0  0  0  0  0  0  0  0
   60.2765   29.6792   47.0800 H   0  0  0  0  0  0  0  0  0  0  0  0
  1  2  1  0
  2  3  1  0
  3  4  1  0
  4  5  2  0
  4  6  1  0
  6  7  1  0
  7  8  2  0
  8  9  1  0
  9 10  2  0
 10 11  1  0
 11 12  2  0
  3 13  2  0
 13 14  1  0
 14 15  1  0
 15 16  1  0
 16 17  2  0
 17 18  1  0
 18 19  2  0
 19 20  1  0
 20 21  2  0
 20 22  1  0
 22 23  1  0
 23 24  1  0
 24 25  2  0
 25 26  1  0
 26 27  1  0
 19 28  1  0
 28 29  2  0
 15  2  2  0
 29 16  1  0
 12  7  1  0
 27 22  1  0
  1 30  1  0
  1 31  1  0
  1 32  1  0
  6 33  1  0
  8 34  1  0
  9 35  1  0
 10 36  1  0
 11 37  1  0
 12 38  1  0
 17 39  1  0
 18 40  1  0
 23 41  1  0
 23 42  1  0
 24 43  1  0
 25 44  1  0
 26 45  1  0
 26 46  1  0
 27 47  1  0
 27 48  1  0
 28 49  1  0
 29 50  1  0
M  END
>  <smiles>  (46) 
Cc1c(C(=O)Nc2ccccc2)noc1-c1ccc(C(=O)N2CC=CCC2)cc1

>  <score_type>  (46) 
oracle

>  <origin>  (46) 
adg

>  <m_score__min__energy>  (46) 
-9.0800000000000001

>  <m_primary>  (46) 
energy

$$$$
46:0
     RDKit          3D

 65 68  0  0  0  0  0  0  0  0999 V2000
   59.9560   28.7720   48.0100 C   0  0  0  0  0  0  0  0  0  0  0  0
   60.3730   30.2320   47.9170 C   0  0  0  0  0  0  0  0  0  0  0  0
   61.4910   30.4620   48.7960 N   0  0  0  0  0  0  0  0  0  0  0  0
   61.1790   31.1440   50.0040 C   0  0  0  0  0  0  0  0  0  0  0  0
   59.7590   31.2870   50.3260 C   0  0  0  0  0  0  0  0  0  0  0  0
   59.0380   30.3610   50.9830 N   0  0  0  0  0  0  0  0  0  0  0  0
   57.7570   30.7690   51.1230 C   0  0  0  0  0  0  0  0  0  0  0  0
   56.8600   30.0930   51.7020 O   0  0  0  0  0  0  0  0  0  0  0  0
   57.6530   31.9850   50.5420 N   0  0  0  0  0  0  0  0  0  0  0  0
   58.8720   32.3290   50.0430 C   0  0  0  0  0  0  0  0  0  0  0  0
   59.2820   33.5460   49.3330 C   0  0  0  0  0  0  0  0  0  0  0  0
   59.0930   33.4510   47.8450 C   0  0  0  0  0  0  0  0  0  0  0  0
   57.8340   33.1900   47.3610 C   0  0  0  0  0  0  0  0  0  0  0  0
   57.6110   33.0850   46.0120 C   0  0  0  0  0  0  0  0  0  0  0  0
   58.6560   33.2430   45.1450 C   0  0  0  0  0  0  0  0  0  0  0  0
   58.4640   33.1410   43.7560 O   0  0  0  0  0  0  0  0  0  0  0  0
   57.4350   32.2930   43.2860 C   0  0  0  0  0  0  0  0  0  0  0  0
   57.5810   30.9660   43.9040 C   0  0  0  0  0  0  0  0  0  0  0  0
   56.4300   30.2800   44.2600 C   0  0  0  0  0  0  0  0  0  0  0  0
   56.5670   29.0300   44.8380 C   0  0  0  0  0  0  0  0  0  0  0  0
   57.8320   28.4920   45.0470 C   0  0  0  0  0  0  0  0  0  0  0  0
   58.9860   29.1960   44.6830 C   0  0  0  0  0  0  0  0  0  0  0  0
   58.8490   30.4430   44.1080 C   0  0  0  0  0  0  0  0  0  0  0  0
   59.9280   33.5080   45.6550 C   0  0  0  0  0  0  0  0  0  0  0  0
   60.1930   33.6210   46.9920 C   0  0  0  0  0  0  0  0  0  0  0  0
   61.4390   33.9110   47.5760 N   0  0  0  0  0  0  0  0  0  0  0  0
   62.6250   33.1520   47.4390 C   0  0  0  0  0  0  0  0  0  0  0  0
   62.6700   32.1140   46.7480 O   0  0  0  0  0  0  0  0  0  0  0  0
   63.8380   33.6330   48.1540 C   0  0  0  0  0  0  0  0  0  0  0  0
   63.8670   33.2880   49.5780 C   0  0  0  0  0  0  0  0  0  0  0  0
   64.6540   32.2880   50.1270 C   0  0  0  0  0  0  0  0  0  0  0  0
   64.6070   32.0200   51.5000 C   0  0  0  0  0  0  0  0  0  0  0  0
   63.7560   32.7780   52.2920 C   0  0  0  0  0  0  0  0  0  0  0  0
   62.9580   33.7820   51.7750 C   0  0  0  0  0  0  0  0  0  0  0  0
   63.0370   34.0080   50.4280 C   0  0  0  0  0  0  0  0  0  0  0  0
   59.8729   28.4811   49.0676 H   0  0  0  0  0  0  0  0  0  0  0  0
   58.9832   28.6363   47.5148 H   0  0  0  0  0  0  0  0  0  0  0  0
   60.7104   28.1429   47.5148 H   0  0  0  0  0  0  0  0  0  0  0  0
   60.6641   30.4664   46.8824 H   0  0  0  0  0  0  0  0  0  0  0  0
   59.5318   30.8763   48.2125 H   0  0  0  0  0  0  0  0  0  0  0  0
   62.3670   30.6880   48.3260 H   0  0  0  0  0  0  0  0  0  0  0  0
   61.6552   30.5952   50.8299 H   0  0  0  0  0  0  0  0  0  0  0  0
   61.5497   32.1699   49.8627 H   0  0  0  0  0  0  0  0  0  0  0  0
   59.4100   29.4480   51.3400 H   0  0  0  0  0  0  0  0  0  0  0  0
   56.7730   32.5780   50.4820 H   0  0  0  0  0  0  0  0  0  0  0  0
   58.6840   34.3892   49.7090 H   0  0  0  0  0  0  0  0  0  0  0  0
   60.3567   33.6887   49.5192 H   0  0  0  0  0  0  0  0  0  0  0  0
   56.9963   33.0640   48.0627 H   0  0  0  0  0  0  0  0  0  0  0  0
   56.6005   32.8756   45.6311 H   0  0  0  0  0  0  0  0  0  0  0  0
   56.4566   32.7181   43.5545 H   0  0  0  0  0  0  0  0  0  0  0  0
   57.5034   32.2005   42.1920 H   0  0  0  0  0  0  0  0  0  0  0  0
   55.4354   30.7172   44.0878 H   0  0  0  0  0  0  0  0  0  0  0  0
   55.6731   28.4608   45.1327 H   0  0  0  0  0  0  0  0  0  0  0  0
   57.9276   27.4969   45.5059 H   0  0  0  0  0  0  0  0  0  0  0  0
   59.9831   28.7634   44.8521 H   0  0  0  0  0  0  0  0  0  0  0  0
   59.7393   31.0180   43.8136 H   0  0  0  0  0  0  0  0  0  0  0  0
   60.7595   33.6323   44.9456 H   0  0  0  0  0  0  0  0  0  0  0  0
   61.5060   34.7680   48.1760 H   0  0  0  0  0  0  0  0  0  0  0  0
   64.7219   33.1893   47.6726 H   0  0  0  0  0  0  0  0  0  0  0  0
   63.8287   34.7313   48.0929 H   0  0  0  0  0  0  0  0  0  0  0  0
   65.3207   31.7004   49.4787 H   0  0  0  0  0  0  0  0  0  0  0  0
   65.2297   31.2275   51.9407 H   0  0  0  0  0  0  0  0  0  0  0  0
   63.7147   32.5724   53.3718 H   0  0  0  0  0  0  0  0  0  0  0  0
   62.2893   34.3728   52.4183 H   0  0  0  0  0  0  0  0  0  0  0  0
   62.4103   34.8017   49.9952 H   0  0  0  0  0  0  0  0  0  0  0  0
  1  2  1  0
  2  3  1  0
  3  4  1  0
  4  5  1  0
  5  6  1  0
  6  7  1  0
  7  8  2  0
  7  9  1  0
  9 10  1  0
 10 11  1  0
 11 12  1  0
 12 13  2  0
 13 14  1  0
 14 15  2  0
 15 16  1  0
 16 17  1  0
 17 18  1  0
 18 19  2  0
 19 20  1  0
 20 21  2  0
 21 22  1  0
 22 23  2  0
 15 24  1  0
 24 25  2  0
 25 26  1  0
 26 27  1  0
 27 28  2  0
 27 29  1  0
 29 30  1  0
 30 31  2  0
 31 32  1  0
 32 33  2  0
 33 34  1  0
 34 35  2  0
 10  5  2  0
 25 12  1  0
 35 30  1  0
 23 18  1  0
  1 36  1  0
  1 37  1  0
  1 38  1  0
  2 39  1  0
  2 40  1  0
  3 41  1  0
  4 42  1  0
  4 43  1  0
  6 44  1  0
  9 45  1  0
 11 46  1  0
 11 47  1  0
 13 48  1  0
 14 49  1  0
 17 50  1  0
 17 51  1  0
 19 52  1  0
 20 53  1  0
 21 54  1  0
 22 55  1  0
 23 56  1  0
 24 57  1  0
 26 58  1  0
 29 59  1  0
 29 60  1  0
 31 61  1  0
 32 62  1  0
 33 63  1  0
 34 64  1  0
 35 65  1  0
M  END
>  <smiles>  (47) 
CCNCc1[nH]c(=O)[nH]c1Cc1ccc(OCc2ccccc2)cc1NC(=O)Cc1ccccc1

>  <score_type>  (47) 
oracle

>  <origin>  (47) 
adg

>  <m_score__min__energy>  (47) 
-9.8900000000000006

>  <m_primary>  (47) 
energy

$$$$
47:0
     RDKit          3D

 60 63  0  0  0  0  0  0  0  0999 V2000
   56.4240   29.7630   42.5380 N   0  0  0  0  0  0  0  0  0  0  0  0
   56.4700   30.0230   44.2360 S   0  0  0  0  0  0  0  0  0  0  0  0
   56.0330   31.3990   44.6290 O   0  0  0  0  0  0  0  0  0  0  0  0
   55.5290   29.0120   44.8810 O   0  0  0  0  0  0  0  0  0  0  0  0
   58.0460   29.6640   44.8410 N   0  0  0  0  0  0  0  0  0  0  0  0
   58.8940   30.7780   45.0040 C   0  0  0  0  0  0  0  0  0  0  0  0
   59.4020   31.0270   46.4090 C   0  0  0  0  0  0  0  0  0  0  0  0
   59.9390   29.7650   46.8510 N   0  0  0  0  0  0  0  0  0  0  0  0
   60.7900   29.8290   47.9940 C   0  0  0  0  0  0  0  0  0  0  0  0
   61.1780   31.2250   48.3110 C   0  0  0  0  0  0  0  0  0  0  0  0
   62.1320   31.8510   47.5250 C   0  0  0  0  0  0  0  0  0  0  0  0
   62.5770   33.1350   47.7810 C   0  0  0  0  0  0  0  0  0  0  0  0
   62.0540   33.8000   48.8470 C   0  0  0  0  0  0  0  0  0  0  0  0
   61.1110   33.1760   49.6180 C   0  0  0  0  0  0  0  0  0  0  0  0
   60.6480   31.8940   49.3860 C   0  0  0  0  0  0  0  0  0  0  0  0
   59.6220   31.3800   50.2660 C   0  0  0  0  0  0  0  0  0  0  0  0
   58.4600   32.0930   50.4230 C   0  0  0  0  0  0  0  0  0  0  0  0
   57.3970   31.7060   51.1950 C   0  0  0  0  0  0  0  0  0  0  0  0
   57.4860   30.5090   51.8710 C   0  0  0  0  0  0  0  0  0  0  0  0
   56.1550   29.9440   52.8910 S   0  0  0  0  0  0  0  0  0  0  0  0
   56.4880   28.5490   53.4010 O   0  0  0  0  0  0  0  0  0  0  0  0
   55.9750   30.8270   54.0900 O   0  0  0  0  0  0  0  0  0  0  0  0
   54.6760   29.8460   51.9800 N   0  0  0  0  0  0  0  0  0  0  0  0
   54.2000   31.1790   51.7350 C   0  0  0  0  0  0  0  0  0  0  0  0
   52.7090   31.2880   51.5890 C   0  0  0  0  0  0  0  0  0  0  0  0
   52.1500   30.0480   51.2810 O   0  0  0  0  0  0  0  0  0  0  0  0
   52.3200   29.1850   52.3410 C   0  0  0  0  0  0  0  0  0  0  0  0
   53.7680   29.0230   52.7460 C   0  0  0  0  0  0  0  0  0  0  0  0
   58.6420   29.7810   51.7260 C   0  0  0  0  0  0  0  0  0  0  0  0
   59.7120   30.1780   50.9440 C   0  0  0  0  0  0  0  0  0  0  0  0
   58.8710   28.8470   47.0330 C   0  0  0  0  0  0  0  0  0  0  0  0
   58.0010   28.6630   45.8360 C   0  0  0  0  0  0  0  0  0  0  0  0
   55.6120   29.1570   42.2630 H   0  0  0  0  0  0  0  0  0  0  0  0
   57.3410   29.3280   42.2200 H   0  0  0  0  0  0  0  0  0  0  0  0
   59.7675   30.6342   44.3511 H   0  0  0  0  0  0  0  0  0  0  0  0
   58.2816   31.6559   44.7506 H   0  0  0  0  0  0  0  0  0  0  0  0
   60.1863   31.7983   46.4036 H   0  0  0  0  0  0  0  0  0  0  0  0
   58.6040   31.3876   47.0746 H   0  0  0  0  0  0  0  0  0  0  0  0
   60.2598   29.4014   48.8577 H   0  0  0  0  0  0  0  0  0  0  0  0
   61.7052   29.2604   47.7726 H   0  0  0  0  0  0  0  0  0  0  0  0
   62.5508   31.3066   46.6658 H   0  0  0  0  0  0  0  0  0  0  0  0
   63.3350   33.6072   47.1388 H   0  0  0  0  0  0  0  0  0  0  0  0
   62.3837   34.8221   49.0850 H   0  0  0  0  0  0  0  0  0  0  0  0
   60.6962   33.7280   50.4743 H   0  0  0  0  0  0  0  0  0  0  0  0
   58.3758   33.0499   49.8870 H   0  0  0  0  0  0  0  0  0  0  0  0
   56.4970   32.3336   51.2731 H   0  0  0  0  0  0  0  0  0  0  0  0
   54.5108   31.8155   52.5766 H   0  0  0  0  0  0  0  0  0  0  0  0
   54.6336   31.4959   50.7750 H   0  0  0  0  0  0  0  0  0  0  0  0
   52.2797   31.6525   52.5339 H   0  0  0  0  0  0  0  0  0  0  0  0
   52.4849   31.9889   50.7713 H   0  0  0  0  0  0  0  0  0  0  0  0
   51.7566   29.5729   53.2024 H   0  0  0  0  0  0  0  0  0  0  0  0
   51.9555   28.1973   52.0223 H   0  0  0  0  0  0  0  0  0  0  0  0
   53.8649   29.2930   53.8079 H   0  0  0  0  0  0  0  0  0  0  0  0
   54.0421   27.9749   52.5555 H   0  0  0  0  0  0  0  0  0  0  0  0
   58.7216   28.8249   52.2641 H   0  0  0  0  0  0  0  0  0  0  0  0
   60.6131   29.5523   50.8634 H   0  0  0  0  0  0  0  0  0  0  0  0
   59.3000   27.8697   47.2991 H   0  0  0  0  0  0  0  0  0  0  0  0
   58.2304   29.2660   47.8230 H   0  0  0  0  0  0  0  0  0  0  0  0
   58.2885   27.7130   45.3618 H   0  0  0  0  0  0  0  0  0  0  0  0
   56.9732   28.6998   46.2264 H   0  0  0  0  0  0  0  0  0  0  0  0
  1  2  1  0
  2  3  2  0
  2  4  2  0
  2  5  1  0
  5  6  1  0
  6  7  1  0
  7  8  1  0
  8  9  1  0
  9 10  1  0
 10 11  2  0
 11 12  1  0
 12 13  2  0
 13 14  1  0
 14 15  2  0
 15 16  1  0
 16 17  2  0
 17 18  1  0
 18 19  2  0
 19 20  1  0
 20 21  2  0
 20 22  2  0
 20 23  1  0
 23 24  1  0
 24 25  1  0
 25 26  1  0
 26 27  1  0
 27 28  1  0
 19 29  1  0
 29 30  2  0
  8 31  1  0
 31 32  1  0
 32  5  1  0
 15 10  1  0
 30 16  1  0
 28 23  1  0
  1 33  1  0
  1 34  1  0
  6 35  1  0
  6 36  1  0
  7 37  1  0
  7 38  1  0
  9 39  1  0
  9 40  1  0
 11 41  1  0
 12 42  1  0
 13 43  1  0
 14 44  1  0
 17 45  1  0
 18 46  1  0
 24 47  1  0
 24 48  1  0
 25 49  1  0
 25 50  1  0
 27 51  1  0
 27 52  1  0
 28 53  1  0
 28 54  1  0
 29 55  1  0
 30 56  1  0
 31 57  1  0
 31 58  1  0
 32 59  1  0
 32 60  1  0
M  END
>  <smiles>  (48) 
NS(=O)(=O)N1CCN(Cc2ccccc2-c2ccc(S(=O)(=O)N3CCOCC3)cc2)CC1

>  <score_type>  (48) 
oracle

>  <origin>  (48) 
adg

>  <m_score__min__energy>  (48) 
-10.41

>  <m_primary>  (48) 
energy

$$$$
48:0
     RDKit          3D

 39 42  0  0  0  0  0  0  0  0999 V2000
   63.9120   33.2910   46.4300 N   0  0  0  0  0  0  0  0  0  0  0  0
   63.2530   33.3040   47.4960 C   0  0  0  0  0  0  0  0  0  0  0  0
   62.0250   33.7070   47.7810 N   0  0  0  0  0  0  0  0  0  0  0  0
   61.5490   33.6190   48.9870 C   0  0  0  0  0  0  0  0  0  0  0  0
   60.2750   34.0010   49.4620 C   0  0  0  0  0  0  0  0  0  0  0  0
   59.3170   34.5480   48.6330 O   0  0  0  0  0  0  0  0  0  0  0  0
   59.1870   34.3130   47.2760 C   0  0  0  0  0  0  0  0  0  0  0  0
   58.6390   33.1040   46.9000 C   0  0  0  0  0  0  0  0  0  0  0  0
   58.4970   32.8420   45.5550 C   0  0  0  0  0  0  0  0  0  0  0  0
   57.9310   31.5930   45.1760 N   0  0  0  0  0  0  0  0  0  0  0  0
   56.6480   31.5780   44.4940 C   0  0  0  0  0  0  0  0  0  0  0  0
   56.3110   30.1900   44.0020 C   0  0  0  0  0  0  0  0  0  0  0  0
   56.3720   29.2360   45.0890 N   0  0  0  0  0  0  0  0  0  0  0  0
   57.4810   29.4090   45.9700 C   0  0  0  0  0  0  0  0  0  0  0  0
   58.5590   30.3190   45.4290 C   0  0  0  0  0  0  0  0  0  0  0  0
   58.8740   33.7240   44.6060 N   0  0  0  0  0  0  0  0  0  0  0  0
   59.4080   34.8980   45.0120 C   0  0  0  0  0  0  0  0  0  0  0  0
   59.5590   35.1840   46.3220 N   0  0  0  0  0  0  0  0  0  0  0  0
   59.9360   33.8370   50.7860 C   0  0  0  0  0  0  0  0  0  0  0  0
   60.7810   33.3050   51.7360 C   0  0  0  0  0  0  0  0  0  0  0  0
   62.0300   32.9270   51.2910 C   0  0  0  0  0  0  0  0  0  0  0  0
   62.3700   33.0870   49.9780 C   0  0  0  0  0  0  0  0  0  0  0  0
   63.9050   32.7020   49.0870 S   0  0  0  0  0  0  0  0  0  0  0  0
   64.8090   32.7620   46.4210 H   0  0  0  0  0  0  0  0  0  0  0  0
   61.4350   34.1190   46.9610 H   0  0  0  0  0  0  0  0  0  0  0  0
   58.3236   32.3684   47.6546 H   0  0  0  0  0  0  0  0  0  0  0  0
   55.8660   31.9117   45.1919 H   0  0  0  0  0  0  0  0  0  0  0  0
   56.7049   32.2523   43.6268 H   0  0  0  0  0  0  0  0  0  0  0  0
   55.2953   30.1927   43.5798 H   0  0  0  0  0  0  0  0  0  0  0  0
   57.0416   29.8989   43.2329 H   0  0  0  0  0  0  0  0  0  0  0  0
   55.4760   29.2310   45.6300 H   0  0  0  0  0  0  0  0  0  0  0  0
   57.1099   29.8352   46.9137 H   0  0  0  0  0  0  0  0  0  0  0  0
   57.9387   28.4178   46.1042 H   0  0  0  0  0  0  0  0  0  0  0  0
   59.3659   30.4332   46.1678 H   0  0  0  0  0  0  0  0  0  0  0  0
   59.0047   29.9062   44.5120 H   0  0  0  0  0  0  0  0  0  0  0  0
   59.7257   35.6346   44.2594 H   0  0  0  0  0  0  0  0  0  0  0  0
   58.9306   34.1492   51.1049 H   0  0  0  0  0  0  0  0  0  0  0  0
   60.4770   33.1889   52.7868 H   0  0  0  0  0  0  0  0  0  0  0  0
   62.7553   32.4949   51.9961 H   0  0  0  0  0  0  0  0  0  0  0  0
  1  2  2  3
  2  3  1  0
  3  4  1  0
  4  5  2  0
  5  6  1  0
  6  7  1  0
  7  8  2  0
  8  9  1  0
  9 10  1  0
 10 11  1  0
 11 12  1  0
 12 13  1  0
 13 14  1  0
 14 15  1  0
  9 16  2  0
 16 17  1  0
 17 18  2  0
  5 19  1  0
 19 20  2  0
 20 21  1  0
 21 22  2  0
 22 23  1  0
 23  2  1  0
 22  4  1  0
 18  7  1  0
 15 10  1  0
  1 24  1  0
  3 25  1  0
  8 26  1  0
 11 27  1  0
 11 28  1  0
 12 29  1  0
 12 30  1  0
 13 31  1  0
 14 32  1  0
 14 33  1  0
 15 34  1  0
 15 35  1  0
 17 36  1  0
 19 37  1  0
 20 38  1  0
 21 39  1  0
M  END
>  <smiles>  (49) 
N=c1[nH]c2c(Oc3cc(N4CCNCC4)ncn3)cccc2s1

>  <score_type>  (49) 
oracle

>  <origin>  (49) 
adg

>  <m_score__min__energy>  (49) 
-8.1099999999999994

>  <m_primary>  (49) 
energy

$$$$
49:0
     RDKit          3D

 79 83  0  0  1  0  0  0  0  0999 V2000
   59.9130   29.7200   53.4050 O   0  0  0  0  0  0  0  0  0  0  0  0
   59.3580   30.4340   52.5420 C   0  0  0  0  0  0  0  0  0  0  0  0
   59.9260   31.1560   51.4390 C   0  0  0  0  0  0  0  0  0  0  0  0
   60.1220   30.7040   50.0830 C   0  0  0  0  0  0  0  0  0  0  0  0
   59.4180   31.2690   48.9150 C   0  0  0  0  0  0  0  0  0  0  0  0
   58.7810   32.5700   49.0950 C   0  0  0  0  0  0  0  0  0  0  0  0
   59.7770   33.7400   49.3200 C   0  0  0  0  0  0  0  0  0  0  0  0
   60.9350   33.5060   48.4430 C   0  0  0  0  0  0  0  0  0  0  0  0
   62.1380   33.2280   49.1350 C   0  0  0  0  0  0  0  0  0  0  0  0
   63.3410   33.1180   48.4890 C   0  0  0  0  0  0  0  0  0  0  0  0
   63.3510   33.2860   47.1290 C   0  0  0  0  0  0  0  0  0  0  0  0
   62.1910   33.5520   46.4580 C   0  0  0  0  0  0  0  0  0  0  0  0
   60.9400   33.6700   47.0880 C   0  0  0  0  0  0  0  0  0  0  0  0
   59.8040   33.7900   46.2190 C   0  0  0  0  0  0  0  0  0  0  0  0
   59.3390   34.9140   45.5900 C   0  0  0  0  0  0  0  0  0  0  0  0
   58.1840   34.9130   44.8480 N   0  0  0  0  0  0  0  0  0  0  0  0
   57.4660   33.7940   44.7190 C   0  0  0  0  0  0  0  0  0  0  0  0
   57.9090   32.6680   45.3370 C   0  0  0  0  0  0  0  0  0  0  0  0
   57.2220   31.5920   45.2200 N   0  0  0  0  0  0  0  0  0  0  0  0
   57.5970   30.4750   44.4140 C   0  0  0  0  0  0  0  0  0  0  0  0
   58.5020   29.6200   45.2310 C   0  0  0  0  0  0  0  0  0  0  0  0
   59.8150   29.3540   44.8290 C   0  0  0  0  0  0  0  0  0  0  0  0
   60.6520   28.5630   45.5840 C   0  0  0  0  0  0  0  0  0  0  0  0
   60.1610   28.0330   46.7600 C   0  0  0  0  0  0  0  0  0  0  0  0
   58.8780   28.2680   47.1960 C   0  0  0  0  0  0  0  0  0  0  0  0
   58.0560   29.0790   46.3990 C   0  0  0  0  0  0  0  0  0  0  0  0
   59.0340   32.6710   46.0560 N   0  0  0  0  0  0  0  0  0  0  0  0
   57.9110   30.5320   52.7300 N   0  0  0  0  0  0  0  0  0  0  0  0
   57.0760   31.2760   51.8320 C   0  0  0  0  0  0  0  0  0  0  0  0
   55.6250   30.9170   51.9360 C   0  0  0  0  0  0  0  0  0  0  0  0
   55.3320   29.6190   52.3650 N   0  0  0  0  0  0  0  0  0  0  0  0
   53.9970   29.1760   52.2690 C   0  0  0  0  0  0  0  0  0  0  0  0
   53.0010   30.2680   52.1690 C   0  0  0  0  0  0  0  0  0  0  0  0
   52.3650   30.6930   53.3240 C   0  0  0  0  0  0  0  0  0  0  0  0
   51.4360   31.7060   53.2620 C   0  0  0  0  0  0  0  0  0  0  0  0
   51.1330   32.3020   52.0490 C   0  0  0  0  0  0  0  0  0  0  0  0
   51.7700   31.8780   50.8810 C   0  0  0  0  0  0  0  0  0  0  0  0
   52.7140   30.8500   50.9400 C   0  0  0  0  0  0  0  0  0  0  0  0
   56.1900   28.9780   53.2910 C   0  0  0  0  0  0  0  0  0  0  0  0
   57.2640   29.8740   53.8580 C   0  0  0  0  0  0  0  0  0  0  0  0
   59.2995   32.0551   51.3439 H   0  0  0  0  0  0  0  0  0  0  0  0
   60.9764   31.1546   51.7657 H   0  0  0  0  0  0  0  0  0  0  0  0
   61.1945   30.8353   49.8770 H   0  0  0  0  0  0  0  0  0  0  0  0
   59.6758   29.6997   50.1306 H   0  0  0  0  0  0  0  0  0  0  0  0
   60.1509   31.3674   48.1006 H   0  0  0  0  0  0  0  0  0  0  0  0
   58.5927   30.5708   48.7116 H   0  0  0  0  0  0  0  0  0  0  0  0
   58.1868   32.7907   48.1960 H   0  0  0  0  0  0  0  0  0  0  0  0
   58.1665   32.4983   50.0045 H   0  0  0  0  0  0  0  0  0  0  0  0
   59.2980   34.6964   49.0633 H   0  0  0  0  0  0  0  0  0  0  0  0
   60.0904   33.7865   50.3734 H   0  0  0  0  0  0  0  0  0  0  0  0
   62.1059   33.0960   50.2266 H   0  0  0  0  0  0  0  0  0  0  0  0
   64.2667   32.9023   49.0427 H   0  0  0  0  0  0  0  0  0  0  0  0
   64.2978   33.2063   46.5747 H   0  0  0  0  0  0  0  0  0  0  0  0
   62.2386   33.6807   45.3666 H   0  0  0  0  0  0  0  0  0  0  0  0
   59.9103   35.8494   45.6824 H   0  0  0  0  0  0  0  0  0  0  0  0
   56.5389   33.7844   44.1270 H   0  0  0  0  0  0  0  0  0  0  0  0
   56.7027   29.9047   44.1225 H   0  0  0  0  0  0  0  0  0  0  0  0
   58.1030   30.8105   43.4967 H   0  0  0  0  0  0  0  0  0  0  0  0
   60.1874   29.7864   43.8886 H   0  0  0  0  0  0  0  0  0  0  0  0
   61.6829   28.3593   45.2590 H   0  0  0  0  0  0  0  0  0  0  0  0
   60.8203   27.3991   47.3712 H   0  0  0  0  0  0  0  0  0  0  0  0
   58.5089   27.8349   48.1374 H   0  0  0  0  0  0  0  0  0  0  0  0
   57.0256   29.2831   46.7255 H   0  0  0  0  0  0  0  0  0  0  0  0
   59.3070   31.7510   46.4930 H   0  0  0  0  0  0  0  0  0  0  0  0
   57.1877   32.3468   52.0579 H   0  0  0  0  0  0  0  0  0  0  0  0
   57.3992   31.0318   50.8093 H   0  0  0  0  0  0  0  0  0  0  0  0
   55.1578   31.6165   52.6448 H   0  0  0  0  0  0  0  0  0  0  0  0
   55.2359   30.9786   50.9090 H   0  0  0  0  0  0  0  0  0  0  0  0
   53.9068   28.5437   51.3734 H   0  0  0  0  0  0  0  0  0  0  0  0
   53.7769   28.6313   53.1990 H   0  0  0  0  0  0  0  0  0  0  0  0
   52.6023   30.2214   54.2890 H   0  0  0  0  0  0  0  0  0  0  0  0
   50.9319   32.0439   54.1795 H   0  0  0  0  0  0  0  0  0  0  0  0
   50.3890   33.1110   52.0057 H   0  0  0  0  0  0  0  0  0  0  0  0
   51.5293   32.3518   49.9179 H   0  0  0  0  0  0  0  0  0  0  0  0
   53.2227   30.5062   50.0273 H   0  0  0  0  0  0  0  0  0  0  0  0
   55.5790   28.6011   54.1244 H   0  0  0  0  0  0  0  0  0  0  0  0
   56.7038   28.1741   52.7435 H   0  0  0  0  0  0  0  0  0  0  0  0
   56.8160   30.6241   54.5263 H   0  0  0  0  0  0  0  0  0  0  0  0
   57.9918   29.2921   54.4425 H   0  0  0  0  0  0  0  0  0  0  0  0
  1  2  2  0
  2  3  1  0
  3  4  1  0
  4  5  1  0
  5  6  1  0
  6  7  1  0
  7  8  1  0
  8  9  2  0
  9 10  1  0
 10 11  2  0
 11 12  1  0
 12 13  2  0
 13 14  1  0
 14 15  2  0
 15 16  1  0
 16 17  2  0
 17 18  1  0
 18 19  2  0
 19 20  1  0
 20 21  1  0
 21 22  2  0
 22 23  1  0
 23 24  2  0
 24 25  1  0
 25 26  2  0
 18 27  1  0
  2 28  1  0
 28 29  1  0
 29 30  1  0
 30 31  1  0
 31 32  1  0
 32 33  1  0
 33 34  2  0
 34 35  1  0
 35 36  2  0
 36 37  1  0
 37 38  2  0
 31 39  1  0
 39 40  1  0
 13  8  1  0
 27 14  1  0
 40 28  1  0
 26 21  1  0
 38 33  1  0
  3 41  1  0
  3 42  1  0
  4 43  1  0
  4 44  1  0
  5 45  1  0
  5 46  1  0
  6 47  1  0
  6 48  1  0
  7 49  1  0
  7 50  1  0
  9 51  1  0
 10 52  1  0
 11 53  1  0
 12 54  1  0
 15 55  1  0
 17 56  1  0
 20 57  1  0
 20 58  1  0
 22 59  1  0
 23 60  1  0
 24 61  1  0
 25 62  1  0
 26 63  1  0
 27 64  1  0
 29 65  1  0
 29 66  1  0
 30 67  1  0
 30 68  1  0
 32 69  1  0
 32 70  1  0
 34 71  1  0
 35 72  1  0
 36 73  1  0
 37 74  1  0
 38 75  1  0
 39 76  1  0
 39 77  1  0
 40 78  1  0
 40 79  1  0
M  END
>  <smiles>  (50) 
O=C(CCCCCc1ccccc1-c1cncc(=NCc2ccccc2)[nH]1)N1CCN(Cc2ccccc2)CC1

>  <score_type>  (50) 
oracle

>  <origin>  (50) 
adg

>  <m_score__min__energy>  (50) 
-10.74

>  <m_primary>  (50) 
energy

$$$$
50:0
     RDKit          3D

 46 48  0  0  0  0  0  0  0  0999 V2000
   57.0240   23.6520   47.8910 C   0  0  0  0  0  0  0  0  0  0  0  0
   56.8810   24.8470   47.0090 C   0  0  0  0  0  0  0  0  0  0  0  0
   55.7630   25.2600   46.6620 O   0  0  0  0  0  0  0  0  0  0  0  0
   58.0270   25.5020   46.5750 N   0  0  0  0  0  0  0  0  0  0  0  0
   58.0220   26.6570   45.7280 C   0  0  0  0  0  0  0  0  0  0  0  0
   58.9840   27.1800   44.8480 C   0  0  0  0  0  0  0  0  0  0  0  0
   58.6540   28.2970   44.1970 C   0  0  0  0  0  0  0  0  0  0  0  0
   57.4470   28.8880   44.3820 C   0  0  0  0  0  0  0  0  0  0  0  0
   56.7490   30.3040   43.6990 S   0  0  0  0  0  0  0  0  0  0  0  0
   55.5590   30.8060   44.4870 O   0  0  0  0  0  0  0  0  0  0  0  0
   56.3080   29.9570   42.2970 O   0  0  0  0  0  0  0  0  0  0  0  0
   57.9040   31.5870   43.6580 N   0  0  0  0  0  0  0  0  0  0  0  0
   58.5260   32.0460   44.8490 C   0  0  0  0  0  0  0  0  0  0  0  0
   58.9310   31.1210   45.8180 C   0  0  0  0  0  0  0  0  0  0  0  0
   59.5340   31.5200   46.9720 C   0  0  0  0  0  0  0  0  0  0  0  0
   59.7790   32.8670   47.2510 C   0  0  0  0  0  0  0  0  0  0  0  0
   60.3900   33.1720   48.5150 C   0  0  0  0  0  0  0  0  0  0  0  0
   59.5260   33.4810   49.5670 C   0  0  0  0  0  0  0  0  0  0  0  0
   59.9610   33.8140   50.8220 C   0  0  0  0  0  0  0  0  0  0  0  0
   61.3100   33.8410   51.0500 C   0  0  0  0  0  0  0  0  0  0  0  0
   62.1540   33.5380   50.0210 C   0  0  0  0  0  0  0  0  0  0  0  0
   61.7540   33.1990   48.7450 C   0  0  0  0  0  0  0  0  0  0  0  0
   62.9120   32.8040   47.5040 S   0  0  0  0  0  0  0  0  0  0  0  0
   64.5040   33.1350   48.1010 N   0  0  0  0  0  0  0  0  0  0  0  0
   62.8110   31.4290   46.9750 O   0  0  0  0  0  0  0  0  0  0  0  0
   62.6460   33.7910   46.3640 O   0  0  0  0  0  0  0  0  0  0  0  0
   59.3780   33.7630   46.2970 C   0  0  0  0  0  0  0  0  0  0  0  0
   58.7660   33.3680   45.1220 C   0  0  0  0  0  0  0  0  0  0  0  0
   56.6050   27.8170   45.6030 S   0  0  0  0  0  0  0  0  0  0  0  0
   56.9863   23.9670   48.9442 H   0  0  0  0  0  0  0  0  0  0  0  0
   56.2038   22.9473   47.6895 H   0  0  0  0  0  0  0  0  0  0  0  0
   57.9873   23.1607   47.6895 H   0  0  0  0  0  0  0  0  0  0  0  0
   58.9550   25.1550   46.8650 H   0  0  0  0  0  0  0  0  0  0  0  0
   59.9598   26.6934   44.7030 H   0  0  0  0  0  0  0  0  0  0  0  0
   59.3739   28.7469   43.4975 H   0  0  0  0  0  0  0  0  0  0  0  0
   58.1840   32.0690   42.7620 H   0  0  0  0  0  0  0  0  0  0  0  0
   58.7586   30.0487   45.6437 H   0  0  0  0  0  0  0  0  0  0  0  0
   59.8372   30.7592   47.7063 H   0  0  0  0  0  0  0  0  0  0  0  0
   58.4426   33.4557   49.3786 H   0  0  0  0  0  0  0  0  0  0  0  0
   59.2467   34.0529   51.6237 H   0  0  0  0  0  0  0  0  0  0  0  0
   61.7062   34.1016   52.0425 H   0  0  0  0  0  0  0  0  0  0  0  0
   63.2346   33.5662   50.2245 H   0  0  0  0  0  0  0  0  0  0  0  0
   65.1180   33.3480   47.2720 H   0  0  0  0  0  0  0  0  0  0  0  0
   64.8560   32.2820   48.5850 H   0  0  0  0  0  0  0  0  0  0  0  0
   59.5488   34.8356   46.4715 H   0  0  0  0  0  0  0  0  0  0  0  0
   58.4648   34.1315   44.3896 H   0  0  0  0  0  0  0  0  0  0  0  0
  1  2  1  0
  2  3  2  0
  2  4  1  0
  4  5  1  0
  5  6  2  0
  6  7  1  0
  7  8  2  0
  8  9  1  0
  9 10  2  0
  9 11  2  0
  9 12  1  0
 12 13  1  0
 13 14  2  0
 14 15  1  0
 15 16  2  0
 16 17  1  0
 17 18  2  0
 18 19  1  0
 19 20  2  0
 20 21  1  0
 21 22  2  0
 22 23  1  0
 23 24  1  0
 23 25  2  0
 23 26  2  0
 16 27  1  0
 27 28  2  0
  8 29  1  0
 29  5  1  0
 28 13  1  0
 22 17  1  0
  1 30  1  0
  1 31  1  0
  1 32  1  0
  4 33  1  0
  6 34  1  0
  7 35  1  0
 12 36  1  0
 14 37  1  0
 15 38  1  0
 18 39  1  0
 19 40  1  0
 20 41  1  0
 21 42  1  0
 24 43  1  0
 24 44  1  0
 27 45  1  0
 28 46  1  0
M  END
>  <smiles>  (51) 
CC(=O)Nc1ccc(S(=O)(=O)Nc2ccc(-c3ccccc3S(N)(=O)=O)cc2)s1

>  <score_type>  (51) 
oracle

>  <origin>  (51) 
adg

>  <m_score__min__energy>  (51) 
-9.7300000000000004

>  <m_primary>  (51) 
energy

$$$$
51:0
     RDKit          3D

 53 56  0  0  1  0  0  0  0  0999 V2000
   60.1900   31.4900   47.7750 C   0  0  0  0  0  0  0  0  0  0  0  0
   59.5660   32.5290   47.2950 C   0  0  0  0  0  0  0  0  0  0  0  0
   58.4640   32.3960   46.4410 C   0  0  0  0  0  0  0  0  0  0  0  0
   57.8610   31.3280   45.9920 C   0  0  0  0  0  0  0  0  0  0  0  0
   57.3460   31.1350   44.6570 C   0  0  0  0  0  0  0  0  0  0  0  0
   57.8750   31.7300   43.5690 N   0  0  0  0  0  0  0  0  0  0  0  0
   57.2020   31.3660   42.4600 C   0  0  0  0  0  0  0  0  0  0  0  0
   57.4260   31.7320   41.2480 O   0  0  0  0  0  0  0  0  0  0  0  0
   56.2060   30.5110   42.8290 N   0  0  0  0  0  0  0  0  0  0  0  0
   56.2980   30.3690   44.1820 C   0  0  0  0  0  0  0  0  0  0  0  0
   55.4610   29.5710   44.9930 O   0  0  0  0  0  0  0  0  0  0  0  0
   58.0970   33.6940   46.1350 C   0  0  0  0  0  0  0  0  0  0  0  0
   56.9970   34.1700   45.2440 C   0  0  0  0  0  0  0  0  0  0  0  0
   58.9360   34.4800   46.7720 N   0  0  0  0  0  0  0  0  0  0  0  0
   59.8590   33.8030   47.4970 N   0  0  0  0  0  0  0  0  0  0  0  0
   60.8500   34.5290   48.2290 C   0  0  0  0  0  0  0  0  0  0  0  0
   62.0390   33.7390   48.6050 C   0  0  0  0  0  0  0  0  0  0  0  0
   62.3090   33.1200   49.8380 C   0  0  0  0  0  0  0  0  0  0  0  0
   63.5080   32.4360   49.7510 C   0  0  0  0  0  0  0  0  0  0  0  0
   64.2320   31.6360   50.7240 C   0  0  0  0  0  0  0  0  0  0  0  0
   63.6740   30.6930   51.3670 O   0  0  0  0  0  0  0  0  0  0  0  0
   65.5930   31.9440   50.9380 N   0  0  0  0  0  0  0  0  0  0  0  0
   66.2740   33.0200   50.2290 C   0  0  0  0  0  0  0  0  0  0  0  0
   67.2030   33.7620   51.1450 C   0  0  0  0  0  0  0  0  0  0  0  0
   68.0900   32.9290   51.8200 O   0  0  0  0  0  0  0  0  0  0  0  0
   67.8710   31.5840   51.5300 C   0  0  0  0  0  0  0  0  0  0  0  0
   66.4390   31.2070   51.8870 C   0  0  0  0  0  0  0  0  0  0  0  0
   63.9570   32.6280   48.5120 O   0  0  0  0  0  0  0  0  0  0  0  0
   63.1470   33.3670   47.8290 C   0  0  0  0  0  0  0  0  0  0  0  0
   63.4150   33.7520   46.4070 C   0  0  0  0  0  0  0  0  0  0  0  0
   61.0527   31.6269   48.4436 H   0  0  0  0  0  0  0  0  0  0  0  0
   59.8539   30.4763   47.5114 H   0  0  0  0  0  0  0  0  0  0  0  0
   57.7332   30.4952   46.6992 H   0  0  0  0  0  0  0  0  0  0  0  0
   58.6940   32.3940   43.5030 H   0  0  0  0  0  0  0  0  0  0  0  0
   55.4910   30.0370   42.2380 H   0  0  0  0  0  0  0  0  0  0  0  0
   55.5290   29.7120   45.9990 H   0  0  0  0  0  0  0  0  0  0  0  0
   56.1591   34.5326   45.8576 H   0  0  0  0  0  0  0  0  0  0  0  0
   57.3675   34.9883   44.6091 H   0  0  0  0  0  0  0  0  0  0  0  0
   56.6542   33.3397   44.6091 H   0  0  0  0  0  0  0  0  0  0  0  0
   61.1823   35.3752   47.6098 H   0  0  0  0  0  0  0  0  0  0  0  0
   60.3744   34.8428   49.1699 H   0  0  0  0  0  0  0  0  0  0  0  0
   61.6682   33.1715   50.7306 H   0  0  0  0  0  0  0  0  0  0  0  0
   66.8536   32.5929   49.3973 H   0  0  0  0  0  0  0  0  0  0  0  0
   65.5185   33.7238   49.8497 H   0  0  0  0  0  0  0  0  0  0  0  0
   67.7839   34.4797   50.5470 H   0  0  0  0  0  0  0  0  0  0  0  0
   66.5830   34.2618   51.9038 H   0  0  0  0  0  0  0  0  0  0  0  0
   68.0380   31.4097   50.4568 H   0  0  0  0  0  0  0  0  0  0  0  0
   68.5668   30.9672   52.1178 H   0  0  0  0  0  0  0  0  0  0  0  0
   66.2874   30.1231   51.7763 H   0  0  0  0  0  0  0  0  0  0  0  0
   66.1979   31.4584   52.9304 H   0  0  0  0  0  0  0  0  0  0  0  0
   64.0433   34.6546   46.3837 H   0  0  0  0  0  0  0  0  0  0  0  0
   63.9364   32.9290   45.8963 H   0  0  0  0  0  0  0  0  0  0  0  0
   62.4622   33.9552   45.8963 H   0  0  0  0  0  0  0  0  0  0  0  0
  1  2  2  0
  2  3  1  0
  3  4  2  0
  4  5  1  0
  5  6  1  0
  6  7  1  0
  7  8  2  0
  7  9  1  0
  9 10  1  0
 10 11  1  0
  3 12  1  0
 12 13  1  0
 12 14  2  0
 14 15  1  0
 15 16  1  0
 16 17  1  0
 17 18  1  0
 18 19  2  0
 19 20  1  0
 20 21  2  0
 20 22  1  0
 22 23  1  0
 23 24  1  0
 24 25  1  0
 25 26  1  0
 26 27  1  0
 19 28  1  0
 28 29  1  0
 29 30  1  0
 15  2  1  0
 29 17  2  0
 10  5  2  0
 27 22  1  0
  1 31  1  0
  1 32  1  0
  4 33  1  0
  6 34  1  0
  9 35  1  0
 11 36  1  0
 13 37  1  0
 13 38  1  0
 13 39  1  0
 16 40  1  0
 16 41  1  0
 18 42  1  0
 23 43  1  0
 23 44  1  0
 24 45  1  0
 24 46  1  0
 26 47  1  0
 26 48  1  0
 27 49  1  0
 27 50  1  0
 30 51  1  0
 30 52  1  0
 30 53  1  0
M  END
>  <smiles>  (52) 
C=c1c(=Cc2[nH]c(=O)[nH]c2O)c(C)nn1Cc1cc(C(=O)N2CCOCC2)oc1C

>  <score_type>  (52) 
oracle

>  <origin>  (52) 
adg

>  <m_score__min__energy>  (52) 
-9.6799999999999997

>  <m_primary>  (52) 
energy

$$$$
52:0
     RDKit          3D

 37 39  0  0  0  0  0  0  0  0999 V2000
   57.3140   33.4500   47.4860 O   0  0  0  0  0  0  0  0  0  0  0  0
   58.4450   33.3070   46.9820 C   0  0  0  0  0  0  0  0  0  0  0  0
   58.9010   34.3120   45.9710 C   0  0  0  0  0  0  0  0  0  0  0  0
   57.9860   34.2410   44.7870 C   0  0  0  0  0  0  0  0  0  0  0  0
   57.6540   32.8320   44.4170 C   0  0  0  0  0  0  0  0  0  0  0  0
   58.1380   32.1040   43.3500 C   0  0  0  0  0  0  0  0  0  0  0  0
   57.5610   30.8870   43.4200 N   0  0  0  0  0  0  0  0  0  0  0  0
   56.7480   30.8510   44.4870 C   0  0  0  0  0  0  0  0  0  0  0  0
   56.0600   29.8540   44.8340 O   0  0  0  0  0  0  0  0  0  0  0  0
   56.8010   32.0450   45.1050 N   0  0  0  0  0  0  0  0  0  0  0  0
   59.3540   32.2610   47.2820 N   0  0  0  0  0  0  0  0  0  0  0  0
   58.9020   30.8630   47.3770 C   0  0  0  0  0  0  0  0  0  0  0  0
   59.6820   30.1720   46.2490 C   0  0  0  0  0  0  0  0  0  0  0  0
   61.1160   30.0870   46.6990 C   0  0  0  0  0  0  0  0  0  0  0  0
   61.5760   31.4020   47.1920 C   0  0  0  0  0  0  0  0  0  0  0  0
   62.9400   31.6180   47.3920 C   0  0  0  0  0  0  0  0  0  0  0  0
   63.3810   32.8390   47.8620 C   0  0  0  0  0  0  0  0  0  0  0  0
   62.5330   33.8880   48.1530 C   0  0  0  0  0  0  0  0  0  0  0  0
   61.1860   33.6770   47.9560 C   0  0  0  0  0  0  0  0  0  0  0  0
   60.7470   32.4580   47.4880 C   0  0  0  0  0  0  0  0  0  0  0  0
   58.8654   35.3209   46.4080 H   0  0  0  0  0  0  0  0  0  0  0  0
   59.9347   34.0958   45.6631 H   0  0  0  0  0  0  0  0  0  0  0  0
   57.0540   34.7738   45.0266 H   0  0  0  0  0  0  0  0  0  0  0  0
   58.5016   34.7032   43.9323 H   0  0  0  0  0  0  0  0  0  0  0  0
   58.8548   32.4488   42.5902 H   0  0  0  0  0  0  0  0  0  0  0  0
   57.7580   30.1270   42.7180 H   0  0  0  0  0  0  0  0  0  0  0  0
   56.2790   32.3250   45.9660 H   0  0  0  0  0  0  0  0  0  0  0  0
   59.1561   30.4307   48.3561 H   0  0  0  0  0  0  0  0  0  0  0  0
   57.8117   30.7519   47.2821 H   0  0  0  0  0  0  0  0  0  0  0  0
   59.2799   29.1632   46.0736 H   0  0  0  0  0  0  0  0  0  0  0  0
   59.5968   30.7355   45.3082 H   0  0  0  0  0  0  0  0  0  0  0  0
   61.1995   29.3464   47.5080 H   0  0  0  0  0  0  0  0  0  0  0  0
   61.7420   29.7848   45.8465 H   0  0  0  0  0  0  0  0  0  0  0  0
   63.6624   30.8172   47.1756 H   0  0  0  0  0  0  0  0  0  0  0  0
   64.4612   32.9826   48.0118 H   0  0  0  0  0  0  0  0  0  0  0  0
   62.9155   34.8497   48.5256 H   0  0  0  0  0  0  0  0  0  0  0  0
   60.4640   34.4785   48.1715 H   0  0  0  0  0  0  0  0  0  0  0  0
  1  2  2  0
  2  3  1  0
  3  4  1  0
  4  5  1  0
  5  6  2  0
  6  7  1  0
  7  8  1  0
  8  9  2  0
  8 10  1  0
  2 11  1  0
 11 12  1  0
 12 13  1  0
 13 14  1  0
 14 15  1  0
 15 16  2  0
 16 17  1  0
 17 18  2  0
 18 19  1  0
 19 20  2  0
 10  5  1  0
 20 11  1  0
 20 15  1  0
  3 21  1  0
  3 22  1  0
  4 23  1  0
  4 24  1  0
  6 25  1  0
  7 26  1  0
 10 27  1  0
 12 28  1  0
 12 29  1  0
 13 30  1  0
 13 31  1  0
 14 32  1  0
 14 33  1  0
 16 34  1  0
 17 35  1  0
 18 36  1  0
 19 37  1  0
M  END
>  <smiles>  (53) 
O=C(CCc1c[nH]c(=O)[nH]1)N1CCCc2ccccc21

>  <score_type>  (53) 
oracle

>  <origin>  (53) 
adg

>  <m_score__min__energy>  (53) 
-7.9400000000000004

>  <m_primary>  (53) 
energy

$$$$
53:0
     RDKit          3D

 59 62  0  0  1  0  0  0  0  0999 V2000
   57.2110   30.3030   44.4980 C   0  0  0  0  0  0  0  0  0  0  0  0
   57.9070   29.7620   45.4830 C   0  0  0  0  0  0  0  0  0  0  0  0
   58.2910   28.4440   45.5300 C   0  0  0  0  0  0  0  0  0  0  0  0
   57.9140   27.3910   44.8530 C   0  0  0  0  0  0  0  0  0  0  0  0
   57.4550   26.1820   45.5020 C   0  0  0  0  0  0  0  0  0  0  0  0
   58.2860   25.0890   45.6080 N   0  0  0  0  0  0  0  0  0  0  0  0
   57.6470   24.0870   46.2120 C   0  0  0  0  0  0  0  0  0  0  0  0
   58.1750   22.9670   46.4440 O   0  0  0  0  0  0  0  0  0  0  0  0
   56.4010   24.5260   46.4970 N   0  0  0  0  0  0  0  0  0  0  0  0
   56.2680   25.8180   46.0650 C   0  0  0  0  0  0  0  0  0  0  0  0
   55.1530   26.6320   46.1600 O   0  0  0  0  0  0  0  0  0  0  0  0
   59.1280   28.3160   46.6600 C   0  0  0  0  0  0  0  0  0  0  0  0
   59.1980   29.5820   47.2430 C   0  0  0  0  0  0  0  0  0  0  0  0
   59.9700   29.8580   48.4210 C   0  0  0  0  0  0  0  0  0  0  0  0
   59.6050   29.2990   49.5080 O   0  0  0  0  0  0  0  0  0  0  0  0
   61.1040   30.6920   48.5090 N   0  0  0  0  0  0  0  0  0  0  0  0
   61.8310   30.9590   49.7280 C   0  0  0  0  0  0  0  0  0  0  0  0
   63.2590   31.2520   49.3410 C   0  0  0  0  0  0  0  0  0  0  0  0
   63.4160   32.3550   48.5020 N   0  0  0  0  0  0  0  0  0  0  0  0
   63.9380   33.5680   48.9770 C   0  0  0  0  0  0  0  0  0  0  0  0
   63.2240   34.2450   50.0740 C   0  0  0  0  0  0  0  0  0  0  0  0
   62.4930   32.4330   47.4390 C   0  0  0  0  0  0  0  0  0  0  0  0
   61.5460   31.3050   47.2490 C   0  0  0  0  0  0  0  0  0  0  0  0
   58.4490   30.4560   46.5180 N   0  0  0  0  0  0  0  0  0  0  0  0
   58.2000   31.8570   46.7500 C   0  0  0  0  0  0  0  0  0  0  0  0
   58.5900   32.3230   48.1100 C   0  0  0  0  0  0  0  0  0  0  0  0
   59.3270   33.5210   48.2500 C   0  0  0  0  0  0  0  0  0  0  0  0
   59.6890   33.9380   49.5030 C   0  0  0  0  0  0  0  0  0  0  0  0
   59.3630   33.2280   50.6520 C   0  0  0  0  0  0  0  0  0  0  0  0
   59.7360   33.6520   51.9640 C   0  0  0  0  0  0  0  0  0  0  0  0
   60.0630   33.9990   53.0390 N   0  0  0  0  0  0  0  0  0  0  0  0
   58.6480   32.0750   50.4690 C   0  0  0  0  0  0  0  0  0  0  0  0
   58.3200   31.3890   51.4950 O   0  0  0  0  0  0  0  0  0  0  0  0
   58.2660   31.6230   49.2380 N   0  0  0  0  0  0  0  0  0  0  0  0
   56.9424   31.3690   44.5352 H   0  0  0  0  0  0  0  0  0  0  0  0
   56.9005   29.6872   43.6411 H   0  0  0  0  0  0  0  0  0  0  0  0
   57.9468   27.4253   43.7540 H   0  0  0  0  0  0  0  0  0  0  0  0
   59.2940   25.0460   45.2680 H   0  0  0  0  0  0  0  0  0  0  0  0
   55.6810   23.9440   46.9770 H   0  0  0  0  0  0  0  0  0  0  0  0
   54.7460   26.7440   47.1140 H   0  0  0  0  0  0  0  0  0  0  0  0
   59.6260   27.4002   47.0111 H   0  0  0  0  0  0  0  0  0  0  0  0
   61.3949   31.8268   50.2444 H   0  0  0  0  0  0  0  0  0  0  0  0
   61.7803   30.0970   50.4095 H   0  0  0  0  0  0  0  0  0  0  0  0
   63.8336   31.4355   50.2609 H   0  0  0  0  0  0  0  0  0  0  0  0
   63.6164   30.3772   48.7780 H   0  0  0  0  0  0  0  0  0  0  0  0
   64.9619   33.3692   49.3265 H   0  0  0  0  0  0  0  0  0  0  0  0
   63.8505   34.2578   48.1247 H   0  0  0  0  0  0  0  0  0  0  0  0
   63.6066   33.8822   51.0394 H   0  0  0  0  0  0  0  0  0  0  0  0
   63.3842   35.3308   50.0007 H   0  0  0  0  0  0  0  0  0  0  0  0
   62.1482   34.0273   50.0007 H   0  0  0  0  0  0  0  0  0  0  0  0
   61.8919   33.3410   47.5947 H   0  0  0  0  0  0  0  0  0  0  0  0
   63.1176   32.4205   46.5336 H   0  0  0  0  0  0  0  0  0  0  0  0
   60.6605   31.6800   46.7149 H   0  0  0  0  0  0  0  0  0  0  0  0
   62.0782   30.5281   46.6806 H   0  0  0  0  0  0  0  0  0  0  0  0
   58.7692   32.4372   46.0088 H   0  0  0  0  0  0  0  0  0  0  0  0
   57.1139   32.0070   46.6607 H   0  0  0  0  0  0  0  0  0  0  0  0
   59.6060   34.1105   47.3642 H   0  0  0  0  0  0  0  0  0  0  0  0
   60.2607   34.8723   49.6040 H   0  0  0  0  0  0  0  0  0  0  0  0
   57.7370   30.7490   49.2390 H   0  0  0  0  0  0  0  0  0  0  0  0
  1  2  2  0
  2  3  1  0
  3  4  2  0
  4  5  1  0
  5  6  1  0
  6  7  1  0
  7  8  2  0
  7  9  1  0
  9 10  1  0
 10 11  1  0
  3 12  1  0
 12 13  2  0
 13 14  1  0
 14 15  2  0
 14 16  1  0
 16 17  1  0
 17 18  1  0
 18 19  1  0
 19 20  1  0
 20 21  1  0
 19 22  1  0
 22 23  1  0
 13 24  1  0
 24 25  1  0
 25 26  1  0
 26 27  2  0
 27 28  1  0
 28 29  2  0
 29 30  1  0
 30 31  3  0
 29 32  1  0
 32 33  2  0
 32 34  1  0
 24  2  1  0
 34 26  1  0
 10  5  2  0
 23 16  1  0
  1 35  1  0
  1 36  1  0
  4 37  1  0
  6 38  1  0
  9 39  1  0
 11 40  1  0
 12 41  1  0
 17 42  1  0
 17 43  1  0
 18 44  1  0
 18 45  1  0
 20 46  1  0
 20 47  1  0
 21 48  1  0
 21 49  1  0
 21 50  1  0
 22 51  1  0
 22 52  1  0
 23 53  1  0
 23 54  1  0
 25 55  1  0
 25 56  1  0
 27 57  1  0
 28 58  1  0
 34 59  1  0
M  END
>  <smiles>  (54) 
C=c1c(=Cc2[nH]c(=O)[nH]c2O)cc(C(=O)N2CCN(CC)CC2)n1Cc1ccc(C#N)c(=O)[nH]1

>  <score_type>  (54) 
oracle

>  <origin>  (54) 
adg

>  <m_score__min__energy>  (54) 
-8.8300000000000001

>  <m_primary>  (54) 
energy

$$$$
54:0
     RDKit          3D

 41 44  0  0  0  0  0  0  0  0999 V2000
   59.9800   23.3470   45.6140 O   0  0  0  0  0  0  0  0  0  0  0  0
   58.8910   24.0100   45.6730 C   0  0  0  0  0  0  0  0  0  0  0  0
   57.7520   23.4990   45.1640 N   0  0  0  0  0  0  0  0  0  0  0  0
   56.8240   24.4070   45.3760 N   0  0  0  0  0  0  0  0  0  0  0  0
   57.3600   25.4730   46.0090 C   0  0  0  0  0  0  0  0  0  0  0  0
   56.5980   26.6580   46.4000 C   0  0  0  0  0  0  0  0  0  0  0  0
   55.2660   26.4520   46.0010 O   0  0  0  0  0  0  0  0  0  0  0  0
   58.6780   25.2290   46.2020 N   0  0  0  0  0  0  0  0  0  0  0  0
   59.6880   26.0480   46.8240 C   0  0  0  0  0  0  0  0  0  0  0  0
   59.4590   27.4930   46.5840 C   0  0  0  0  0  0  0  0  0  0  0  0
   59.6200   28.0030   45.3100 C   0  0  0  0  0  0  0  0  0  0  0  0
   59.4190   29.3350   45.0890 C   0  0  0  0  0  0  0  0  0  0  0  0
   59.0600   30.2480   46.0500 C   0  0  0  0  0  0  0  0  0  0  0  0
   58.8520   31.6630   45.7620 C   0  0  0  0  0  0  0  0  0  0  0  0
   59.6940   32.5880   46.3830 C   0  0  0  0  0  0  0  0  0  0  0  0
   59.5150   33.9480   46.1080 C   0  0  0  0  0  0  0  0  0  0  0  0
   58.5380   34.3990   45.2460 C   0  0  0  0  0  0  0  0  0  0  0  0
   57.7320   33.4500   44.6590 C   0  0  0  0  0  0  0  0  0  0  0  0
   57.8500   32.0970   44.8820 C   0  0  0  0  0  0  0  0  0  0  0  0
   56.9550   31.1470   44.2350 C   0  0  0  0  0  0  0  0  0  0  0  0
   55.9030   30.4670   44.7800 N   0  0  0  0  0  0  0  0  0  0  0  0
   55.3490   29.7060   43.8230 N   0  0  0  0  0  0  0  0  0  0  0  0
   56.0390   29.9080   42.7130 N   0  0  0  0  0  0  0  0  0  0  0  0
   56.9860   30.7600   42.9650 N   0  0  0  0  0  0  0  0  0  0  0  0
   58.8970   29.7310   47.3430 C   0  0  0  0  0  0  0  0  0  0  0  0
   59.0970   28.3800   47.5840 C   0  0  0  0  0  0  0  0  0  0  0  0
   57.6290   22.5570   44.6880 H   0  0  0  0  0  0  0  0  0  0  0  0
   56.6471   26.7936   47.4905 H   0  0  0  0  0  0  0  0  0  0  0  0
   57.0109   27.5597   45.9241 H   0  0  0  0  0  0  0  0  0  0  0  0
   55.2660   25.9110   45.1690 H   0  0  0  0  0  0  0  0  0  0  0  0
   59.6773   25.8623   47.9082 H   0  0  0  0  0  0  0  0  0  0  0  0
   60.6598   25.7810   46.3833 H   0  0  0  0  0  0  0  0  0  0  0  0
   59.9079   27.3408   44.4802 H   0  0  0  0  0  0  0  0  0  0  0  0
   59.5550   29.7055   44.0623 H   0  0  0  0  0  0  0  0  0  0  0  0
   60.4819   32.2541   47.0742 H   0  0  0  0  0  0  0  0  0  0  0  0
   60.1749   34.6810   46.5951 H   0  0  0  0  0  0  0  0  0  0  0  0
   58.4082   35.4710   45.0364 H   0  0  0  0  0  0  0  0  0  0  0  0
   56.9463   33.7937   43.9702 H   0  0  0  0  0  0  0  0  0  0  0  0
   55.8070   29.4310   41.8180 H   0  0  0  0  0  0  0  0  0  0  0  0
   58.6097   30.3988   48.1685 H   0  0  0  0  0  0  0  0  0  0  0  0
   58.9632   27.9989   48.6072 H   0  0  0  0  0  0  0  0  0  0  0  0
  1  2  2  0
  2  3  1  0
  3  4  1  0
  4  5  2  0
  5  6  1  0
  6  7  1  0
  5  8  1  0
  8  9  1  0
  9 10  1  0
 10 11  2  0
 11 12  1  0
 12 13  2  0
 13 14  1  0
 14 15  2  0
 15 16  1  0
 16 17  2  0
 17 18  1  0
 18 19  2  0
 19 20  1  0
 20 21  1  0
 21 22  2  0
 22 23  1  0
 23 24  1  0
 13 25  1  0
 25 26  2  0
  8  2  1  0
 26 10  1  0
 19 14  1  0
 24 20  2  0
  3 27  1  0
  6 28  1  0
  6 29  1  0
  7 30  1  0
  9 31  1  0
  9 32  1  0
 11 33  1  0
 12 34  1  0
 15 35  1  0
 16 36  1  0
 17 37  1  0
 18 38  1  0
 23 39  1  0
 25 40  1  0
 26 41  1  0
M  END
>  <smiles>  (55) 
O=c1[nH]nc(CO)n1Cc1ccc(-c2ccccc2-c2nn[nH]n2)cc1

>  <score_type>  (55) 
oracle

>  <origin>  (55) 
adg

>  <m_score__min__energy>  (55) 
-9.8499999999999996

>  <m_primary>  (55) 
energy

$$$$
55:0
     RDKit          3D

 51 53  0  0  1  0  0  0  0  0999 V2000
   56.3590   30.1070   42.6180 C   0  0  0  0  0  0  0  0  0  0  0  0
   56.9640   30.2830   44.2780 S   0  0  0  0  0  0  0  0  0  0  0  0
   56.2560   29.3530   45.2230 O   0  0  0  0  0  0  0  0  0  0  0  0
   58.4140   29.8200   44.2690 O   0  0  0  0  0  0  0  0  0  0  0  0
   56.9800   31.9120   44.8140 N   0  0  0  0  0  0  0  0  0  0  0  0
   57.7000   32.3050   45.8090 C   0  0  0  0  0  0  0  0  0  0  0  0
   57.8130   33.6690   46.0370 C   0  0  0  0  0  0  0  0  0  0  0  0
   58.5710   34.1450   47.0890 C   0  0  0  0  0  0  0  0  0  0  0  0
   59.1950   33.2060   47.8800 C   0  0  0  0  0  0  0  0  0  0  0  0
   59.0640   31.8570   47.6290 C   0  0  0  0  0  0  0  0  0  0  0  0
   59.7340   30.8140   48.4740 C   0  0  0  0  0  0  0  0  0  0  0  0
   58.9930   29.5260   48.4750 C   0  0  0  0  0  0  0  0  0  0  0  0
   59.6110   28.3750   47.7940 C   0  0  0  0  0  0  0  0  0  0  0  0
   58.8950   27.6950   46.7320 C   0  0  0  0  0  0  0  0  0  0  0  0
   57.8090   26.9390   47.1210 N   0  0  0  0  0  0  0  0  0  0  0  0
   57.0350   26.2820   46.2760 C   0  0  0  0  0  0  0  0  0  0  0  0
   55.9530   25.5390   46.7660 O   0  0  0  0  0  0  0  0  0  0  0  0
   56.0490   24.1410   46.9600 C   0  0  0  0  0  0  0  0  0  0  0  0
   56.5080   23.4280   45.7430 C   0  0  0  0  0  0  0  0  0  0  0  0
   57.7650   22.8450   45.7900 C   0  0  0  0  0  0  0  0  0  0  0  0
   58.2870   22.1580   44.7150 C   0  0  0  0  0  0  0  0  0  0  0  0
   57.5090   22.0670   43.5690 C   0  0  0  0  0  0  0  0  0  0  0  0
   56.2490   22.6370   43.4870 C   0  0  0  0  0  0  0  0  0  0  0  0
   55.5130   22.5230   42.3370 F   0  0  0  0  0  0  0  0  0  0  0  0
   55.7550   23.3220   44.5930 C   0  0  0  0  0  0  0  0  0  0  0  0
   57.2830   26.3220   44.9240 C   0  0  0  0  0  0  0  0  0  0  0  0
   58.3620   27.0710   44.5080 C   0  0  0  0  0  0  0  0  0  0  0  0
   58.6250   27.1360   43.2840 O   0  0  0  0  0  0  0  0  0  0  0  0
   59.1240   27.7290   45.4300 N   0  0  0  0  0  0  0  0  0  0  0  0
   58.3210   31.4080   46.5980 N   0  0  0  0  0  0  0  0  0  0  0  0
   55.3031   29.7998   42.6432 H   0  0  0  0  0  0  0  0  0  0  0  0
   56.4487   31.0685   42.0912 H   0  0  0  0  0  0  0  0  0  0  0  0
   56.9504   29.3437   42.0912 H   0  0  0  0  0  0  0  0  0  0  0  0
   57.2944   34.3774   45.3742 H   0  0  0  0  0  0  0  0  0  0  0  0
   58.6715   35.2226   47.2856 H   0  0  0  0  0  0  0  0  0  0  0  0
   59.8101   33.5392   48.7289 H   0  0  0  0  0  0  0  0  0  0  0  0
   60.7469   30.6388   48.0823 H   0  0  0  0  0  0  0  0  0  0  0  0
   59.7616   31.1866   49.5086 H   0  0  0  0  0  0  0  0  0  0  0  0
   58.8355   29.2394   49.5253 H   0  0  0  0  0  0  0  0  0  0  0  0
   58.0807   29.7320   47.8960 H   0  0  0  0  0  0  0  0  0  0  0  0
   60.5577   28.7315   47.3620 H   0  0  0  0  0  0  0  0  0  0  0  0
   59.6738   27.6144   48.5861 H   0  0  0  0  0  0  0  0  0  0  0  0
   56.7635   23.9461   47.7734 H   0  0  0  0  0  0  0  0  0  0  0  0
   55.0438   23.7683   47.2061 H   0  0  0  0  0  0  0  0  0  0  0  0
   58.3618   22.9330   46.7098 H   0  0  0  0  0  0  0  0  0  0  0  0
   59.2850   21.6980   44.7636 H   0  0  0  0  0  0  0  0  0  0  0  0
   57.9057   21.5249   42.6980 H   0  0  0  0  0  0  0  0  0  0  0  0
   54.7568   23.7821   44.5494 H   0  0  0  0  0  0  0  0  0  0  0  0
   56.6485   25.7804   44.2070 H   0  0  0  0  0  0  0  0  0  0  0  0
   59.9000   28.2860   45.0370 H   0  0  0  0  0  0  0  0  0  0  0  0
   58.2310   30.3730   46.4190 H   0  0  0  0  0  0  0  0  0  0  0  0
  1  2  1  0
  2  3  2  0
  2  4  2  0
  2  5  1  0
  5  6  2  0
  6  7  1  0
  7  8  2  0
  8  9  1  0
  9 10  2  0
 10 11  1  0
 11 12  1  0
 12 13  1  0
 13 14  1  0
 14 15  2  0
 15 16  1  0
 16 17  1  0
 17 18  1  0
 18 19  1  0
 19 20  2  0
 20 21  1  0
 21 22  2  0
 22 23  1  0
 23 24  1  0
 23 25  2  0
 16 26  2  0
 26 27  1  0
 27 28  2  0
 27 29  1  0
 10 30  1  0
 30  6  1  0
 29 14  1  0
 25 19  1  0
  1 31  1  0
  1 32  1  0
  1 33  1  0
  7 34  1  0
  8 35  1  0
  9 36  1  0
 11 37  1  0
 11 38  1  0
 12 39  1  0
 12 40  1  0
 13 41  1  0
 13 42  1  0
 18 43  1  0
 18 44  1  0
 20 45  1  0
 21 46  1  0
 22 47  1  0
 25 48  1  0
 26 49  1  0
 29 50  1  0
 30 51  1  0
M  END
>  <smiles>  (56) 
CS(=O)(=O)N=c1cccc(CCCc2nc(OCc3cccc(F)c3)cc(=O)[nH]2)[nH]1

>  <score_type>  (56) 
oracle

>  <origin>  (56) 
adg

>  <m_score__min__energy>  (56) 
-9.0899999999999999

>  <m_primary>  (56) 
energy

$$$$
56:0
     RDKit          3D

 47 49  0  0  0  0  0  0  0  0999 V2000
   62.7340   33.5090   46.8060 C   0  0  0  0  0  0  0  0  0  0  0  0
   61.5130   33.7280   47.2230 C   0  0  0  0  0  0  0  0  0  0  0  0
   60.3350   33.0910   46.6370 C   0  0  0  0  0  0  0  0  0  0  0  0
   60.0770   31.7410   46.7370 C   0  0  0  0  0  0  0  0  0  0  0  0
   58.9760   31.1530   46.1770 C   0  0  0  0  0  0  0  0  0  0  0  0
   58.6140   29.7510   46.3150 C   0  0  0  0  0  0  0  0  0  0  0  0
   58.5270   29.0490   47.4780 C   0  0  0  0  0  0  0  0  0  0  0  0
   58.1440   27.6970   47.5010 C   0  0  0  0  0  0  0  0  0  0  0  0
   57.8480   27.0530   46.3290 C   0  0  0  0  0  0  0  0  0  0  0  0
   57.3410   25.3910   46.2050 S   0  0  0  0  0  0  0  0  0  0  0  0
   57.7760   24.6650   47.4590 O   0  0  0  0  0  0  0  0  0  0  0  0
   55.8330   25.3400   46.2290 O   0  0  0  0  0  0  0  0  0  0  0  0
   57.8850   24.6100   44.7990 N   0  0  0  0  0  0  0  0  0  0  0  0
   58.0760   23.2250   44.9450 C   0  0  0  0  0  0  0  0  0  0  0  0
   56.8570   22.5410   44.3510 C   0  0  0  0  0  0  0  0  0  0  0  0
   56.2990   23.5690   43.4150 C   0  0  0  0  0  0  0  0  0  0  0  0
   57.0610   24.8390   43.6710 C   0  0  0  0  0  0  0  0  0  0  0  0
   57.9370   27.7680   45.1370 C   0  0  0  0  0  0  0  0  0  0  0  0
   58.3130   29.0920   45.1270 C   0  0  0  0  0  0  0  0  0  0  0  0
   58.0870   31.9510   45.4780 C   0  0  0  0  0  0  0  0  0  0  0  0
   56.9370   31.4270   44.8690 O   0  0  0  0  0  0  0  0  0  0  0  0
   56.8860   31.2170   43.4710 C   0  0  0  0  0  0  0  0  0  0  0  0
   58.2830   33.3140   45.3390 C   0  0  0  0  0  0  0  0  0  0  0  0
   59.4300   33.8540   45.9380 C   0  0  0  0  0  0  0  0  0  0  0  0
   59.6500   35.2730   45.8210 N   0  0  0  0  0  0  0  0  0  0  0  0
   63.5801   34.0198   47.2890 H   0  0  0  0  0  0  0  0  0  0  0  0
   62.9142   32.8141   45.9725 H   0  0  0  0  0  0  0  0  0  0  0  0
   61.3654   34.4282   48.0584 H   0  0  0  0  0  0  0  0  0  0  0  0
   60.7868   31.1091   47.2909 H   0  0  0  0  0  0  0  0  0  0  0  0
   58.7631   29.5540   48.4263 H   0  0  0  0  0  0  0  0  0  0  0  0
   58.0821   27.1575   48.4576 H   0  0  0  0  0  0  0  0  0  0  0  0
   58.9837   22.9107   44.4089 H   0  0  0  0  0  0  0  0  0  0  0  0
   58.1983   22.9562   46.0046 H   0  0  0  0  0  0  0  0  0  0  0  0
   57.1442   21.6290   43.8071 H   0  0  0  0  0  0  0  0  0  0  0  0
   56.1329   22.2189   45.1138 H   0  0  0  0  0  0  0  0  0  0  0  0
   56.4362   23.2474   42.3721 H   0  0  0  0  0  0  0  0  0  0  0  0
   55.2208   23.7125   43.5793 H   0  0  0  0  0  0  0  0  0  0  0  0
   57.6795   25.0906   42.7968 H   0  0  0  0  0  0  0  0  0  0  0  0
   56.3734   25.6782   43.8524 H   0  0  0  0  0  0  0  0  0  0  0  0
   57.7027   27.2657   44.1869 H   0  0  0  0  0  0  0  0  0  0  0  0
   58.3761   29.6338   44.1718 H   0  0  0  0  0  0  0  0  0  0  0  0
   56.6309   30.1666   43.2671 H   0  0  0  0  0  0  0  0  0  0  0  0
   56.1209   31.8725   43.0294 H   0  0  0  0  0  0  0  0  0  0  0  0
   57.8665   31.4486   43.0294 H   0  0  0  0  0  0  0  0  0  0  0  0
   57.5721   33.9442   44.7845 H   0  0  0  0  0  0  0  0  0  0  0  0
   59.6140   35.8880   46.6580 H   0  0  0  0  0  0  0  0  0  0  0  0
   59.8430   35.6240   44.8450 H   0  0  0  0  0  0  0  0  0  0  0  0
  1  2  2  0
  2  3  1  0
  3  4  2  0
  4  5  1  0
  5  6  1  0
  6  7  2  0
  7  8  1  0
  8  9  2  0
  9 10  1  0
 10 11  2  0
 10 12  2  0
 10 13  1  0
 13 14  1  0
 14 15  1  0
 15 16  1  0
 16 17  1  0
  9 18  1  0
 18 19  2  0
  5 20  2  0
 20 21  1  0
 21 22  1  0
 20 23  1  0
 23 24  2  0
 24 25  1  0
 24  3  1  0
 19  6  1  0
 17 13  1  0
  1 26  1  0
  1 27  1  0
  2 28  1  0
  4 29  1  0
  7 30  1  0
  8 31  1  0
 14 32  1  0
 14 33  1  0
 15 34  1  0
 15 35  1  0
 16 36  1  0
 16 37  1  0
 17 38  1  0
 17 39  1  0
 18 40  1  0
 19 41  1  0
 22 42  1  0
 22 43  1  0
 22 44  1  0
 23 45  1  0
 25 46  1  0
 25 47  1  0
M  END
>  <smiles>  (57) 
C=Cc1cc(-c2ccc(S(=O)(=O)N3CCCC3)cc2)c(OC)cc1N

>  <score_type>  (57) 
oracle

>  <origin>  (57) 
adg

>  <m_score__min__energy>  (57) 
-8.1199999999999992

>  <m_primary>  (57) 
energy

$$$$
57:0
     RDKit          3D

 54 56  0  0  0  0  0  0  0  0999 V2000
   57.1740   22.6580   43.8290 C   0  0  0  0  0  0  0  0  0  0  0  0
   55.9820   23.2950   44.4450 C   0  0  0  0  0  0  0  0  0  0  0  0
   54.7900   22.6770   44.5240 N   0  0  0  0  0  0  0  0  0  0  0  0
   53.7000   23.2450   45.0800 C   0  0  0  0  0  0  0  0  0  0  0  0
   52.5530   22.6290   45.1470 N   0  0  0  0  0  0  0  0  0  0  0  0
   53.7420   24.5350   45.6180 C   0  0  0  0  0  0  0  0  0  0  0  0
   54.9740   25.1660   45.5330 C   0  0  0  0  0  0  0  0  0  0  0  0
   55.0680   26.4420   46.0490 O   0  0  0  0  0  0  0  0  0  0  0  0
   56.0640   24.5740   44.9660 C   0  0  0  0  0  0  0  0  0  0  0  0
   57.3530   25.2740   44.8940 C   0  0  0  0  0  0  0  0  0  0  0  0
   57.2100   26.7180   44.8620 N   0  0  0  0  0  0  0  0  0  0  0  0
   58.3280   27.4830   45.2930 C   0  0  0  0  0  0  0  0  0  0  0  0
   59.3400   26.8710   45.6640 O   0  0  0  0  0  0  0  0  0  0  0  0
   58.3390   28.9400   45.3200 C   0  0  0  0  0  0  0  0  0  0  0  0
   57.2500   29.5810   44.7650 C   0  0  0  0  0  0  0  0  0  0  0  0
   57.2100   30.9750   44.7650 C   0  0  0  0  0  0  0  0  0  0  0  0
   58.2550   31.7150   45.3170 C   0  0  0  0  0  0  0  0  0  0  0  0
   58.0890   33.4560   45.2560 S   0  0  0  0  0  0  0  0  0  0  0  0
   59.0200   33.9760   44.2180 O   0  0  0  0  0  0  0  0  0  0  0  0
   56.6670   33.7900   44.8340 O   0  0  0  0  0  0  0  0  0  0  0  0
   58.3380   34.1390   46.7970 N   0  0  0  0  0  0  0  0  0  0  0  0
   59.3530   35.1440   46.7500 C   0  0  0  0  0  0  0  0  0  0  0  0
   60.7370   34.5840   46.6750 C   0  0  0  0  0  0  0  0  0  0  0  0
   60.7170   33.1940   47.1050 N   0  0  0  0  0  0  0  0  0  0  0  0
   62.0790   32.8300   47.4450 C   0  0  0  0  0  0  0  0  0  0  0  0
   59.8700   33.0250   48.2830 C   0  0  0  0  0  0  0  0  0  0  0  0
   58.4440   33.1980   47.8670 C   0  0  0  0  0  0  0  0  0  0  0  0
   59.3420   31.0800   45.8690 C   0  0  0  0  0  0  0  0  0  0  0  0
   59.3690   29.6810   45.8620 C   0  0  0  0  0  0  0  0  0  0  0  0
   57.8476   22.2980   44.6206 H   0  0  0  0  0  0  0  0  0  0  0  0
   56.8553   21.8100   43.2051 H   0  0  0  0  0  0  0  0  0  0  0  0
   57.7019   23.3942   43.2051 H   0  0  0  0  0  0  0  0  0  0  0  0
   54.7200   21.7150   44.1350 H   0  0  0  0  0  0  0  0  0  0  0  0
   51.8690   22.9220   45.9000 H   0  0  0  0  0  0  0  0  0  0  0  0
   52.8632   25.0137   46.0747 H   0  0  0  0  0  0  0  0  0  0  0  0
   54.3840   26.7060   46.7510 H   0  0  0  0  0  0  0  0  0  0  0  0
   57.9511   24.9999   45.7756 H   0  0  0  0  0  0  0  0  0  0  0  0
   57.8423   24.9697   43.9570 H   0  0  0  0  0  0  0  0  0  0  0  0
   56.3420   27.2030   44.5440 H   0  0  0  0  0  0  0  0  0  0  0  0
   56.4244   28.9999   44.3283 H   0  0  0  0  0  0  0  0  0  0  0  0
   56.3463   31.4955   44.3256 H   0  0  0  0  0  0  0  0  0  0  0  0
   59.1819   35.7717   45.8631 H   0  0  0  0  0  0  0  0  0  0  0  0
   59.2848   35.7197   47.6849 H   0  0  0  0  0  0  0  0  0  0  0  0
   61.1016   34.6429   45.6389 H   0  0  0  0  0  0  0  0  0  0  0  0
   61.4049   35.1629   47.3299 H   0  0  0  0  0  0  0  0  0  0  0  0
   62.1885   32.8007   48.5391 H   0  0  0  0  0  0  0  0  0  0  0  0
   62.3089   31.8389   47.0269 H   0  0  0  0  0  0  0  0  0  0  0  0
   62.7727   33.5743   47.0269 H   0  0  0  0  0  0  0  0  0  0  0  0
   60.0150   32.0190   48.7037 H   0  0  0  0  0  0  0  0  0  0  0  0
   60.1337   33.7697   49.0484 H   0  0  0  0  0  0  0  0  0  0  0  0
   58.0450   32.2281   47.5351 H   0  0  0  0  0  0  0  0  0  0  0  0
   57.8694   33.5748   48.7260 H   0  0  0  0  0  0  0  0  0  0  0  0
   60.1703   31.6574   46.3055 H   0  0  0  0  0  0  0  0  0  0  0  0
   60.2328   29.1590   46.2995 H   0  0  0  0  0  0  0  0  0  0  0  0
  1  2  1  0
  2  3  1  0
  3  4  1  0
  4  5  2  3
  4  6  1  0
  6  7  2  0
  7  8  1  0
  7  9  1  0
  9 10  1  0
 10 11  1  0
 11 12  1  0
 12 13  2  0
 12 14  1  0
 14 15  2  0
 15 16  1  0
 16 17  2  0
 17 18  1  0
 18 19  2  0
 18 20  2  0
 18 21  1  0
 21 22  1  0
 22 23  1  0
 23 24  1  0
 24 25  1  0
 24 26  1  0
 26 27  1  0
 17 28  1  0
 28 29  2  0
  9  2  2  0
 29 14  1  0
 27 21  1  0
  1 30  1  0
  1 31  1  0
  1 32  1  0
  3 33  1  0
  5 34  1  0
  6 35  1  0
  8 36  1  0
 10 37  1  0
 10 38  1  0
 11 39  1  0
 15 40  1  0
 16 41  1  0
 22 42  1  0
 22 43  1  0
 23 44  1  0
 23 45  1  0
 25 46  1  0
 25 47  1  0
 25 48  1  0
 26 49  1  0
 26 50  1  0
 27 51  1  0
 27 52  1  0
 28 53  1  0
 29 54  1  0
M  END
>  <smiles>  (58) 
Cc1[nH]c(=N)cc(O)c1CNC(=O)c1ccc(S(=O)(=O)N2CCN(C)CC2)cc1

>  <score_type>  (58) 
oracle

>  <origin>  (58) 
adg

>  <m_score__min__energy>  (58) 
-10.31

>  <m_primary>  (58) 
energy

$$$$
58:0
     RDKit          3D

 36 38  0  0  1  0  0  0  0  0999 V2000
   58.0140   26.6810   43.0460 C   0  0  0  0  0  0  0  0  0  0  0  0
   57.9770   27.5560   44.0370 C   0  0  0  0  0  0  0  0  0  0  0  0
   58.0160   28.9070   43.9090 N   0  0  0  0  0  0  0  0  0  0  0  0
   57.9590   29.4720   45.1120 N   0  0  0  0  0  0  0  0  0  0  0  0
   57.9810   30.8880   45.2820 C   0  0  0  0  0  0  0  0  0  0  0  0
   57.4500   31.7440   44.3370 C   0  0  0  0  0  0  0  0  0  0  0  0
   57.4630   33.1210   44.4860 C   0  0  0  0  0  0  0  0  0  0  0  0
   58.0250   33.6680   45.6140 C   0  0  0  0  0  0  0  0  0  0  0  0
   58.5630   32.8160   46.5740 C   0  0  0  0  0  0  0  0  0  0  0  0
   58.5460   31.4360   46.4170 C   0  0  0  0  0  0  0  0  0  0  0  0
   57.8820   28.5290   46.0690 C   0  0  0  0  0  0  0  0  0  0  0  0
   57.8140   28.7050   47.3080 O   0  0  0  0  0  0  0  0  0  0  0  0
   57.8940   27.3260   45.3940 C   0  0  0  0  0  0  0  0  0  0  0  0
   57.8340   26.1380   45.9640 C   0  0  0  0  0  0  0  0  0  0  0  0
   56.9040   25.0910   45.5500 C   0  0  0  0  0  0  0  0  0  0  0  0
   57.3160   23.8740   45.0470 C   0  0  0  0  0  0  0  0  0  0  0  0
   56.3380   22.9480   44.6820 C   0  0  0  0  0  0  0  0  0  0  0  0
   54.9880   23.2210   44.8120 C   0  0  0  0  0  0  0  0  0  0  0  0
   54.5900   24.4470   45.3190 C   0  0  0  0  0  0  0  0  0  0  0  0
   53.2300   24.6990   45.4400 O   0  0  0  0  0  0  0  0  0  0  0  0
   55.5420   25.3840   45.6880 C   0  0  0  0  0  0  0  0  0  0  0  0
   55.1410   26.6140   46.1960 O   0  0  0  0  0  0  0  0  0  0  0  0
   57.9763   25.6031   43.2623 H   0  0  0  0  0  0  0  0  0  0  0  0
   58.0825   27.0311   42.0055 H   0  0  0  0  0  0  0  0  0  0  0  0
   58.0800   29.4110   42.9850 H   0  0  0  0  0  0  0  0  0  0  0  0
   56.9989   31.3151   43.4301 H   0  0  0  0  0  0  0  0  0  0  0  0
   57.0285   33.7689   43.7104 H   0  0  0  0  0  0  0  0  0  0  0  0
   58.0493   34.7586   45.7557 H   0  0  0  0  0  0  0  0  0  0  0  0
   59.0133   33.2466   47.4805 H   0  0  0  0  0  0  0  0  0  0  0  0
   58.9791   30.7847   47.1905 H   0  0  0  0  0  0  0  0  0  0  0  0
   58.5214   25.9245   46.7958 H   0  0  0  0  0  0  0  0  0  0  0  0
   58.3852   23.6403   44.9368 H   0  0  0  0  0  0  0  0  0  0  0  0
   56.6494   21.9729   44.2793 H   0  0  0  0  0  0  0  0  0  0  0  0
   54.2385   22.4723   44.5158 H   0  0  0  0  0  0  0  0  0  0  0  0
   52.7070   25.2690   44.8130 H   0  0  0  0  0  0  0  0  0  0  0  0
   54.3370   26.7180   46.7940 H   0  0  0  0  0  0  0  0  0  0  0  0
  1  2  2  0
  2  3  1  0
  3  4  1  0
  4  5  1  0
  5  6  2  0
  6  7  1  0
  7  8  2  0
  8  9  1  0
  9 10  2  0
  4 11  1  0
 11 12  2  0
 11 13  1  0
 13 14  2  0
 14 15  1  0
 15 16  2  0
 16 17  1  0
 17 18  2  0
 18 19  1  0
 19 20  1  0
 19 21  2  0
 21 22  1  0
 13  2  1  0
 21 15  1  0
 10  5  1  0
  1 23  1  0
  1 24  1  0
  3 25  1  0
  6 26  1  0
  7 27  1  0
  8 28  1  0
  9 29  1  0
 10 30  1  0
 14 31  1  0
 16 32  1  0
 17 33  1  0
 18 34  1  0
 20 35  1  0
 22 36  1  0
M  END
>  <smiles>  (59) 
C=c1[nH]n(-c2ccccc2)c(=O)c1=Cc1cccc(O)c1O

>  <score_type>  (59) 
oracle

>  <origin>  (59) 
adg

>  <m_score__min__energy>  (59) 
-9.3000000000000007

>  <m_primary>  (59) 
energy

$$$$
59:0
     RDKit          3D

 63 66  0  0  0  0  0  0  0  0999 V2000
   55.5360   29.3680   44.8760 O   0  0  0  0  0  0  0  0  0  0  0  0
   56.3620   29.3560   43.9450 C   0  0  0  0  0  0  0  0  0  0  0  0
   56.2700   30.2130   42.7490 C   0  0  0  0  0  0  0  0  0  0  0  0
   57.3040   31.2770   42.6260 C   0  0  0  0  0  0  0  0  0  0  0  0
   57.8330   31.6850   43.9230 C   0  0  0  0  0  0  0  0  0  0  0  0
   58.6900   30.9810   44.7210 C   0  0  0  0  0  0  0  0  0  0  0  0
   59.1160   31.4590   45.9660 C   0  0  0  0  0  0  0  0  0  0  0  0
   58.6880   32.6780   46.4510 C   0  0  0  0  0  0  0  0  0  0  0  0
   59.2560   33.2040   47.9950 S   0  0  0  0  0  0  0  0  0  0  0  0
   59.2630   34.7240   47.9790 O   0  0  0  0  0  0  0  0  0  0  0  0
   58.3410   32.6850   49.0810 O   0  0  0  0  0  0  0  0  0  0  0  0
   60.8360   32.7100   48.3820 N   0  0  0  0  0  0  0  0  0  0  0  0
   61.4020   33.2810   49.5550 C   0  0  0  0  0  0  0  0  0  0  0  0
   62.4500   34.3270   49.2930 C   0  0  0  0  0  0  0  0  0  0  0  0
   63.2940   34.0020   48.2460 O   0  0  0  0  0  0  0  0  0  0  0  0
   62.5930   33.7930   47.0570 C   0  0  0  0  0  0  0  0  0  0  0  0
   61.7250   32.5770   47.2750 C   0  0  0  0  0  0  0  0  0  0  0  0
   57.8240   33.3950   45.6480 C   0  0  0  0  0  0  0  0  0  0  0  0
   57.4050   32.9220   44.4230 C   0  0  0  0  0  0  0  0  0  0  0  0
   57.4590   28.4680   44.0340 N   0  0  0  0  0  0  0  0  0  0  0  0
   57.7510   27.5680   45.0640 C   0  0  0  0  0  0  0  0  0  0  0  0
   57.8310   27.8530   46.4030 C   0  0  0  0  0  0  0  0  0  0  0  0
   58.1320   26.8850   47.3660 C   0  0  0  0  0  0  0  0  0  0  0  0
   58.3660   25.5790   47.0010 C   0  0  0  0  0  0  0  0  0  0  0  0
   58.2910   25.2760   45.6640 C   0  0  0  0  0  0  0  0  0  0  0  0
   58.5370   23.8970   45.2680 C   0  0  0  0  0  0  0  0  0  0  0  0
   59.6990   23.4530   45.4380 O   0  0  0  0  0  0  0  0  0  0  0  0
   57.5170   23.0800   44.7140 N   0  0  0  0  0  0  0  0  0  0  0  0
   56.1580   23.5310   44.4920 C   0  0  0  0  0  0  0  0  0  0  0  0
   55.9000   23.2750   43.0010 C   0  0  0  0  0  0  0  0  0  0  0  0
   55.9400   21.9150   42.8310 O   0  0  0  0  0  0  0  0  0  0  0  0
   57.1420   21.3060   43.0620 C   0  0  0  0  0  0  0  0  0  0  0  0
   57.8260   21.7140   44.3400 C   0  0  0  0  0  0  0  0  0  0  0  0
   57.9950   26.2290   44.7230 C   0  0  0  0  0  0  0  0  0  0  0  0
   56.3477   29.5646   41.8638 H   0  0  0  0  0  0  0  0  0  0  0  0
   55.3097   30.7422   42.8372 H   0  0  0  0  0  0  0  0  0  0  0  0
   58.1319   30.8966   42.0097 H   0  0  0  0  0  0  0  0  0  0  0  0
   56.8307   32.1555   42.1632 H   0  0  0  0  0  0  0  0  0  0  0  0
   59.0581   30.0045   44.3731 H   0  0  0  0  0  0  0  0  0  0  0  0
   59.8057   30.8508   46.5697 H   0  0  0  0  0  0  0  0  0  0  0  0
   60.5919   33.7439   50.1377 H   0  0  0  0  0  0  0  0  0  0  0  0
   61.9029   32.4623   50.0925 H   0  0  0  0  0  0  0  0  0  0  0  0
   61.9458   35.2751   49.0544 H   0  0  0  0  0  0  0  0  0  0  0  0
   63.0683   34.4048   50.1995 H   0  0  0  0  0  0  0  0  0  0  0  0
   61.9684   34.6685   46.8259 H   0  0  0  0  0  0  0  0  0  0  0  0
   63.2813   33.6423   46.2123 H   0  0  0  0  0  0  0  0  0  0  0  0
   61.1285   32.4064   46.3667 H   0  0  0  0  0  0  0  0  0  0  0  0
   62.3955   31.7332   47.4950 H   0  0  0  0  0  0  0  0  0  0  0  0
   57.4591   34.3726   45.9959 H   0  0  0  0  0  0  0  0  0  0  0  0
   56.7156   33.5325   43.8213 H   0  0  0  0  0  0  0  0  0  0  0  0
   58.1340   28.4960   43.2150 H   0  0  0  0  0  0  0  0  0  0  0  0
   57.6508   28.8866   46.7334 H   0  0  0  0  0  0  0  0  0  0  0  0
   58.1823   27.1706   48.4271 H   0  0  0  0  0  0  0  0  0  0  0  0
   58.6035   24.8091   47.7499 H   0  0  0  0  0  0  0  0  0  0  0  0
   55.4530   22.9573   45.1116 H   0  0  0  0  0  0  0  0  0  0  0  0
   56.0216   24.5886   44.7619 H   0  0  0  0  0  0  0  0  0  0  0  0
   54.9130   23.6659   42.7127 H   0  0  0  0  0  0  0  0  0  0  0  0
   56.6502   23.7784   42.3735 H   0  0  0  0  0  0  0  0  0  0  0  0
   56.9731   20.2196   43.0969 H   0  0  0  0  0  0  0  0  0  0  0  0
   57.8074   21.6180   42.2436 H   0  0  0  0  0  0  0  0  0  0  0  0
   57.4980   21.0427   45.1474 H   0  0  0  0  0  0  0  0  0  0  0  0
   58.9120   21.6452   44.1789 H   0  0  0  0  0  0  0  0  0  0  0  0
   57.9473   25.9334   43.6645 H   0  0  0  0  0  0  0  0  0  0  0  0
  1  2  2  0
  2  3  1  0
  3  4  1  0
  4  5  1  0
  5  6  2  0
  6  7  1  0
  7  8  2  0
  8  9  1  0
  9 10  2  0
  9 11  2  0
  9 12  1  0
 12 13  1  0
 13 14  1  0
 14 15  1  0
 15 16  1  0
 16 17  1  0
  8 18  1  0
 18 19  2  0
  2 20  1  0
 20 21  1  0
 21 22  2  0
 22 23  1  0
 23 24  2  0
 24 25  1  0
 25 26  1  0
 26 27  2  0
 26 28  1  0
 28 29  1  0
 29 30  1  0
 30 31  1  0
 31 32  1  0
 32 33  1  0
 25 34  2  0
 19  5  1  0
 34 21  1  0
 17 12  1  0
 33 28  1  0
  3 35  1  0
  3 36  1  0
  4 37  1  0
  4 38  1  0
  6 39  1  0
  7 40  1  0
 13 41  1  0
 13 42  1  0
 14 43  1  0
 14 44  1  0
 16 45  1  0
 16 46  1  0
 17 47  1  0
 17 48  1  0
 18 49  1  0
 19 50  1  0
 20 51  1  0
 22 52  1  0
 23 53  1  0
 24 54  1  0
 29 55  1  0
 29 56  1  0
 30 57  1  0
 30 58  1  0
 32 59  1  0
 32 60  1  0
 33 61  1  0
 33 62  1  0
 34 63  1  0
M  END
>  <smiles>  (60) 
O=C(CCc1ccc(S(=O)(=O)N2CCOCC2)cc1)Nc1cccc(C(=O)N2CCOCC2)c1

>  <score_type>  (60) 
oracle

>  <origin>  (60) 
adg

>  <m_score__min__energy>  (60) 
-11.52

>  <m_primary>  (60) 
energy

$$$$
60:0
     RDKit          3D

 48 51  0  0  1  0  0  0  0  0999 V2000
   55.5320   23.0180   42.7340 C   0  0  0  0  0  0  0  0  0  0  0  0
   56.6490   23.1250   43.7160 C   0  0  0  0  0  0  0  0  0  0  0  0
   57.6400   22.1470   43.7910 C   0  0  0  0  0  0  0  0  0  0  0  0
   58.6490   22.3130   44.7300 C   0  0  0  0  0  0  0  0  0  0  0  0
   58.7010   23.3960   45.5770 C   0  0  0  0  0  0  0  0  0  0  0  0
   57.6970   24.3330   45.4600 C   0  0  0  0  0  0  0  0  0  0  0  0
   57.6710   25.3750   46.2140 N   0  0  0  0  0  0  0  0  0  0  0  0
   56.7200   26.4180   46.0540 C   0  0  0  0  0  0  0  0  0  0  0  0
   55.4780   26.2230   45.9930 O   0  0  0  0  0  0  0  0  0  0  0  0
   57.2630   27.7830   45.9560 C   0  0  0  0  0  0  0  0  0  0  0  0
   58.1700   28.2860   46.8550 C   0  0  0  0  0  0  0  0  0  0  0  0
   58.6790   29.5720   46.7600 C   0  0  0  0  0  0  0  0  0  0  0  0
   58.2420   30.3770   45.7030 C   0  0  0  0  0  0  0  0  0  0  0  0
   58.7180   31.6630   45.5650 C   0  0  0  0  0  0  0  0  0  0  0  0
   58.3010   32.4950   44.5170 C   0  0  0  0  0  0  0  0  0  0  0  0
   58.8380   33.8610   44.4660 C   0  0  0  0  0  0  0  0  0  0  0  0
   59.0360   34.4580   45.6680 O   0  0  0  0  0  0  0  0  0  0  0  0
   59.8730   34.2730   46.7000 C   0  0  0  0  0  0  0  0  0  0  0  0
   61.1830   33.8470   46.3670 C   0  0  0  0  0  0  0  0  0  0  0  0
   62.1340   33.6220   47.3310 C   0  0  0  0  0  0  0  0  0  0  0  0
   61.8630   33.7980   48.6630 C   0  0  0  0  0  0  0  0  0  0  0  0
   60.6110   34.2070   49.0170 C   0  0  0  0  0  0  0  0  0  0  0  0
   59.6480   34.4340   48.0350 C   0  0  0  0  0  0  0  0  0  0  0  0
   57.3950   31.9450   43.6490 C   0  0  0  0  0  0  0  0  0  0  0  0
   56.9050   30.6540   43.7700 C   0  0  0  0  0  0  0  0  0  0  0  0
   57.3310   29.8540   44.8110 C   0  0  0  0  0  0  0  0  0  0  0  0
   56.8260   28.5740   44.9080 C   0  0  0  0  0  0  0  0  0  0  0  0
   56.6970   24.1880   44.5450 N   0  0  0  0  0  0  0  0  0  0  0  0
   54.5775   22.9266   43.2730 H   0  0  0  0  0  0  0  0  0  0  0  0
   55.5116   23.9183   42.1023 H   0  0  0  0  0  0  0  0  0  0  0  0
   55.6829   22.1302   42.1023 H   0  0  0  0  0  0  0  0  0  0  0  0
   57.6229   21.2706   43.1264 H   0  0  0  0  0  0  0  0  0  0  0  0
   59.4374   21.5491   44.7995 H   0  0  0  0  0  0  0  0  0  0  0  0
   59.5086   23.5091   46.3153 H   0  0  0  0  0  0  0  0  0  0  0  0
   58.5059   27.6441   47.6827 H   0  0  0  0  0  0  0  0  0  0  0  0
   59.4058   29.9485   47.4949 H   0  0  0  0  0  0  0  0  0  0  0  0
   59.4443   32.0466   46.2966 H   0  0  0  0  0  0  0  0  0  0  0  0
   59.8048   33.8253   43.9425 H   0  0  0  0  0  0  0  0  0  0  0  0
   58.0759   34.4650   43.9518 H   0  0  0  0  0  0  0  0  0  0  0  0
   61.4442   33.6928   45.3097 H   0  0  0  0  0  0  0  0  0  0  0  0
   63.1384   33.2923   47.0270 H   0  0  0  0  0  0  0  0  0  0  0  0
   62.6342   33.6144   49.4256 H   0  0  0  0  0  0  0  0  0  0  0  0
   60.3611   34.3578   50.0776 H   0  0  0  0  0  0  0  0  0  0  0  0
   58.6483   34.7621   48.3559 H   0  0  0  0  0  0  0  0  0  0  0  0
   57.0371   32.5610   42.8109 H   0  0  0  0  0  0  0  0  0  0  0  0
   56.1792   30.2684   43.0389 H   0  0  0  0  0  0  0  0  0  0  0  0
   56.0988   28.1940   44.1753 H   0  0  0  0  0  0  0  0  0  0  0  0
   55.9490   24.9110   44.4780 H   0  0  0  0  0  0  0  0  0  0  0  0
  1  2  1  0
  2  3  2  0
  3  4  1  0
  4  5  2  0
  5  6  1  0
  6  7  2  0
  7  8  1  0
  8  9  2  0
  8 10  1  0
 10 11  2  0
 11 12  1  0
 12 13  2  0
 13 14  1  0
 14 15  2  0
 15 16  1  0
 16 17  1  0
 17 18  1  0
 18 19  2  0
 19 20  1  0
 20 21  2  0
 21 22  1  0
 22 23  2  0
 15 24  1  0
 24 25  2  0
 25 26  1  0
 26 27  2  0
  6 28  1  0
 28  2  1  0
 27 10  1  0
 26 13  1  0
 23 18  1  0
  1 29  1  0
  1 30  1  0
  1 31  1  0
  3 32  1  0
  4 33  1  0
  5 34  1  0
 11 35  1  0
 12 36  1  0
 14 37  1  0
 16 38  1  0
 16 39  1  0
 19 40  1  0
 20 41  1  0
 21 42  1  0
 22 43  1  0
 23 44  1  0
 24 45  1  0
 25 46  1  0
 27 47  1  0
 28 48  1  0
M  END
>  <smiles>  (61) 
Cc1cccc(=NC(=O)c2ccc3cc(COc4ccccc4)ccc3c2)[nH]1

>  <score_type>  (61) 
oracle

>  <origin>  (61) 
adg

>  <m_score__min__energy>  (61) 
-8.8800000000000008

>  <m_primary>  (61) 
energy

$$$$
61:0
     RDKit          3D

 36 37  0  0  1  0  0  0  0  0999 V2000
   57.4540   33.4550   46.7160 C   0  0  0  0  0  0  0  0  0  0  0  0
   58.4380   34.3480   46.7640 C   0  0  0  0  0  0  0  0  0  0  0  0
   59.3890   34.5700   45.6340 C   0  0  0  0  0  0  0  0  0  0  0  0
   60.3100   30.0400   47.7470 N   0  0  0  0  0  0  0  0  0  0  0  0
   60.9420   31.1550   47.6050 C   0  0  0  0  0  0  0  0  0  0  0  0
   62.3690   33.4590   47.3870 C   0  0  0  0  0  0  0  0  0  0  0  0
   62.8580   32.4260   48.1620 C   0  0  0  0  0  0  0  0  0  0  0  0
   62.1140   31.3010   48.2420 N   0  0  0  0  0  0  0  0  0  0  0  0
   61.1550   33.3220   46.7220 C   0  0  0  0  0  0  0  0  0  0  0  0
   60.7540   34.3170   46.0170 N   0  0  0  0  0  0  0  0  0  0  0  0
   59.7450   29.3930   46.6130 C   0  0  0  0  0  0  0  0  0  0  0  0
   60.2440   28.2740   46.0250 C   0  0  0  0  0  0  0  0  0  0  0  0
   59.6240   27.7050   44.9130 C   0  0  0  0  0  0  0  0  0  0  0  0
   58.4830   28.2860   44.3970 C   0  0  0  0  0  0  0  0  0  0  0  0
   57.9550   29.4200   44.9710 C   0  0  0  0  0  0  0  0  0  0  0  0
   56.5010   30.1550   44.3090 S   0  0  0  0  0  0  0  0  0  0  0  0
   56.4590   29.9330   42.5860 N   0  0  0  0  0  0  0  0  0  0  0  0
   56.3640   31.5830   44.7010 O   0  0  0  0  0  0  0  0  0  0  0  0
   55.3340   29.3530   44.8550 O   0  0  0  0  0  0  0  0  0  0  0  0
   58.5880   29.9520   46.0610 C   0  0  0  0  0  0  0  0  0  0  0  0
   60.4790   32.1680   46.8550 N   0  0  0  0  0  0  0  0  0  0  0  0
   56.7810   33.3314   47.5772 H   0  0  0  0  0  0  0  0  0  0  0  0
   57.3130   32.8398   45.8151 H   0  0  0  0  0  0  0  0  0  0  0  0
   58.5569   34.9502   47.6768 H   0  0  0  0  0  0  0  0  0  0  0  0
   59.1216   33.8951   44.8076 H   0  0  0  0  0  0  0  0  0  0  0  0
   59.3126   35.6241   45.3291 H   0  0  0  0  0  0  0  0  0  0  0  0
   62.9416   34.3937   47.2952 H   0  0  0  0  0  0  0  0  0  0  0  0
   63.8167   32.5156   48.6939 H   0  0  0  0  0  0  0  0  0  0  0  0
   62.5100   30.5340   48.8360 H   0  0  0  0  0  0  0  0  0  0  0  0
   61.1532   27.8088   46.4335 H   0  0  0  0  0  0  0  0  0  0  0  0
   60.0416   26.7988   44.4499 H   0  0  0  0  0  0  0  0  0  0  0  0
   57.9919   27.8390   43.5201 H   0  0  0  0  0  0  0  0  0  0  0  0
   55.6550   29.3180   42.3060 H   0  0  0  0  0  0  0  0  0  0  0  0
   57.3520   29.5010   42.2530 H   0  0  0  0  0  0  0  0  0  0  0  0
   58.1690   30.8581   46.5229 H   0  0  0  0  0  0  0  0  0  0  0  0
   59.5680   32.0580   46.3590 H   0  0  0  0  0  0  0  0  0  0  0  0
  1  2  2  0
  2  3  1  0
  3  4  1  0
  4  5  2  0
  5  6  1  0
  6  7  2  0
  7  8  1  0
  8  9  1  0
  9 10  2  0
 10 11  1  0
 11 12  2  0
 12 13  1  0
 13 14  2  0
 14 15  1  0
 15 16  1  0
 16 17  1  0
 16 18  2  0
 16 19  2  0
 15 20  2  0
  9 21  1  0
 21  5  1  0
 20 11  1  0
  1 22  1  0
  1 23  1  0
  2 24  1  0
  3 25  1  0
  3 26  1  0
  6 27  1  0
  7 28  1  0
  8 29  1  0
 12 30  1  0
 13 31  1  0
 14 32  1  0
 17 33  1  0
 17 34  1  0
 20 35  1  0
 21 36  1  0
M  END
>  <smiles>  (62) 
C=CCN=c1cc[nH]c(=Nc2cccc(S(N)(=O)=O)c2)[nH]1

>  <score_type>  (62) 
oracle

>  <origin>  (62) 
adg

>  <m_score__min__energy>  (62) 
-7.6699999999999999

>  <m_primary>  (62) 
energy

$$$$
62:0
     RDKit          3D

 72 76  0  0  1  0  0  0  0  0999 V2000
   60.1980   34.0920   52.9520 O   0  0  0  0  0  0  0  0  0  0  0  0
   59.4900   33.4930   52.1000 C   0  0  0  0  0  0  0  0  0  0  0  0
   60.1020   33.2200   50.8420 N   0  0  0  0  0  0  0  0  0  0  0  0
   61.4670   33.6570   50.6690 C   0  0  0  0  0  0  0  0  0  0  0  0
   62.1370   33.1570   49.4670 C   0  0  0  0  0  0  0  0  0  0  0  0
   63.1000   33.9210   48.8370 C   0  0  0  0  0  0  0  0  0  0  0  0
   63.6830   33.3970   47.6890 C   0  0  0  0  0  0  0  0  0  0  0  0
   63.3200   32.1650   47.1960 C   0  0  0  0  0  0  0  0  0  0  0  0
   62.3630   31.3940   47.8170 C   0  0  0  0  0  0  0  0  0  0  0  0
   61.7690   31.9100   48.9720 C   0  0  0  0  0  0  0  0  0  0  0  0
   58.1960   33.1120   52.3370 O   0  0  0  0  0  0  0  0  0  0  0  0
   57.7640   32.2720   53.3990 C   0  0  0  0  0  0  0  0  0  0  0  0
   58.0180   30.8920   53.0020 C   0  0  0  0  0  0  0  0  0  0  0  0
   59.1050   30.3750   52.5140 C   0  0  0  0  0  0  0  0  0  0  0  0
   59.3240   29.7730   51.2280 C   0  0  0  0  0  0  0  0  0  0  0  0
   58.7850   30.4310   50.1320 C   0  0  0  0  0  0  0  0  0  0  0  0
   58.9900   29.9770   48.8740 C   0  0  0  0  0  0  0  0  0  0  0  0
   59.7310   28.8510   48.5440 C   0  0  0  0  0  0  0  0  0  0  0  0
   59.9510   28.3950   47.1530 C   0  0  0  0  0  0  0  0  0  0  0  0
   58.8600   28.5810   46.2470 N   0  0  0  0  0  0  0  0  0  0  0  0
   58.7560   29.8840   45.6370 C   0  0  0  0  0  0  0  0  0  0  0  0
   59.7730   30.4580   45.1320 O   0  0  0  0  0  0  0  0  0  0  0  0
   57.4930   30.6520   45.5430 C   0  0  2  0  0  0  0  0  0  0  0  0
   56.5530   30.0460   44.5470 C   0  0  0  0  0  0  0  0  0  0  0  0
   55.4470   29.5650   44.8110 O   0  0  0  0  0  0  0  0  0  0  0  0
   57.0910   30.0790   43.1890 N   0  0  0  0  0  0  0  0  0  0  0  0
   57.5180   31.2090   42.7300 C   0  0  0  0  0  0  0  0  0  0  0  0
   57.4120   32.3810   43.6500 C   0  0  0  0  0  0  0  0  0  0  0  0
   57.7880   31.9880   44.9820 N   0  0  0  0  0  0  0  0  0  0  0  0
   58.4890   32.8780   45.8780 C   0  0  0  0  0  0  0  0  0  0  0  0
   58.2920   32.8350   47.2550 C   0  0  0  0  0  0  0  0  0  0  0  0
   58.9680   33.6940   48.1190 C   0  0  0  0  0  0  0  0  0  0  0  0
   59.8610   34.6240   47.6450 C   0  0  0  0  0  0  0  0  0  0  0  0
   60.0670   34.6780   46.2870 C   0  0  0  0  0  0  0  0  0  0  0  0
   59.3920   33.8180   45.4060 C   0  0  0  0  0  0  0  0  0  0  0  0
   57.8590   27.6270   45.8900 C   0  0  0  0  0  0  0  0  0  0  0  0
   58.1230   27.0170   44.4830 C   0  0  0  0  0  0  0  0  0  0  0  0
   58.0030   26.1910   45.7360 C   0  0  0  0  0  0  0  0  0  0  0  0
   60.2770   28.1850   49.6450 C   0  0  0  0  0  0  0  0  0  0  0  0
   60.0650   28.6560   50.9480 C   0  0  0  0  0  0  0  0  0  0  0  0
   59.5530   32.7190   50.0980 H   0  0  0  0  0  0  0  0  0  0  0  0
   61.4690   34.7562   50.6267 H   0  0  0  0  0  0  0  0  0  0  0  0
   62.0277   33.2474   51.5221 H   0  0  0  0  0  0  0  0  0  0  0  0
   63.3942   34.9060   49.2286 H   0  0  0  0  0  0  0  0  0  0  0  0
   64.4524   33.9809   47.1626 H   0  0  0  0  0  0  0  0  0  0  0  0
   63.8057   31.7870   46.2843 H   0  0  0  0  0  0  0  0  0  0  0  0
   62.0768   30.4092   47.4191 H   0  0  0  0  0  0  0  0  0  0  0  0
   61.0008   31.3227   49.4963 H   0  0  0  0  0  0  0  0  0  0  0  0
   58.3249   32.5078   54.3154 H   0  0  0  0  0  0  0  0  0  0  0  0
   56.6935   32.4247   53.6009 H   0  0  0  0  0  0  0  0  0  0  0  0
   57.1765   30.1958   53.1334 H   0  0  0  0  0  0  0  0  0  0  0  0
   59.9810   30.4018   53.1787 H   0  0  0  0  0  0  0  0  0  0  0  0
   58.1809   31.3369   50.2883 H   0  0  0  0  0  0  0  0  0  0  0  0
   58.5341   30.5442   48.0491 H   0  0  0  0  0  0  0  0  0  0  0  0
   60.8165   28.9435   46.7530 H   0  0  0  0  0  0  0  0  0  0  0  0
   60.0957   27.3066   47.2197 H   0  0  0  0  0  0  0  0  0  0  0  0
   57.0562   30.6722   46.5523 H   0  0  0  0  0  0  0  0  0  0  0  0
   57.9367   31.3027   41.7171 H   0  0  0  0  0  0  0  0  0  0  0  0
   58.0822   33.1808   43.3019 H   0  0  0  0  0  0  0  0  0  0  0  0
   56.3742   32.7455   43.6572 H   0  0  0  0  0  0  0  0  0  0  0  0
   57.5841   32.1037   47.6722 H   0  0  0  0  0  0  0  0  0  0  0  0
   58.7831   33.6262   49.2012 H   0  0  0  0  0  0  0  0  0  0  0  0
   60.3929   35.3021   48.3286 H   0  0  0  0  0  0  0  0  0  0  0  0
   60.7778   35.4127   45.8807 H   0  0  0  0  0  0  0  0  0  0  0  0
   59.5825   33.8912   44.3251 H   0  0  0  0  0  0  0  0  0  0  0  0
   57.1098   28.1781   46.4774 H   0  0  0  0  0  0  0  0  0  0  0  0
   57.3279   26.9991   43.7231 H   0  0  0  0  0  0  0  0  0  0  0  0
   58.8666   27.1493   43.6833 H   0  0  0  0  0  0  0  0  0  0  0  0
   57.1253   25.5423   45.8733 H   0  0  0  0  0  0  0  0  0  0  0  0
   58.6504   25.4399   46.2122 H   0  0  0  0  0  0  0  0  0  0  0  0
   60.8810   27.2794   49.4868 H   0  0  0  0  0  0  0  0  0  0  0  0
   60.5151   28.1023   51.7851 H   0  0  0  0  0  0  0  0  0  0  0  0
  1  2  2  0
  2  3  1  0
  3  4  1  0
  4  5  1  0
  5  6  2  0
  6  7  1  0
  7  8  2  0
  8  9  1  0
  9 10  2  0
  2 11  1  0
 11 12  1  0
 12 13  1  0
 13 14  2  0
 14 15  1  0
 15 16  2  0
 16 17  1  0
 17 18  2  0
 18 19  1  0
 19 20  1  0
 20 21  1  0
 21 22  2  0
 21 23  1  0
 23 24  1  0
 24 25  2  0
 24 26  1  0
 26 27  2  0
 27 28  1  0
 28 29  1  0
 29 30  1  0
 30 31  2  0
 31 32  1  0
 32 33  2  0
 33 34  1  0
 34 35  2  0
 20 36  1  0
 36 37  1  0
 37 38  1  0
 18 39  1  0
 39 40  2  0
 10  5  1  0
 40 15  1  0
 29 23  1  0
 35 30  1  0
 38 36  1  0
  3 41  1  0
  4 42  1  0
  4 43  1  0
  6 44  1  0
  7 45  1  0
  8 46  1  0
  9 47  1  0
 10 48  1  0
 12 49  1  0
 12 50  1  0
 13 51  1  0
 14 52  1  0
 16 53  1  0
 17 54  1  0
 19 55  1  0
 19 56  1  0
 23 57  1  1
 27 58  1  0
 28 59  1  0
 28 60  1  0
 31 61  1  0
 32 62  1  0
 33 63  1  0
 34 64  1  0
 35 65  1  0
 36 66  1  0
 37 67  1  0
 37 68  1  0
 38 69  1  0
 38 70  1  0
 39 71  1  0
 40 72  1  0
M  END
>  <smiles>  (63) 
O=C(NCc1ccccc1)OCC=Cc1ccc(CN(C(=O)C2C(=O)N=CCN2c2ccccc2)C2CC2)cc1

>  <score_type>  (63) 
oracle

>  <origin>  (63) 
adg

>  <m_score__min__energy>  (63) 
-10.050000000000001

>  <m_primary>  (63) 
energy

$$$$
63:0
     RDKit          3D

 61 63  0  0  1  0  0  0  0  0999 V2000
   61.0450   29.2410   50.6020 C   0  0  0  0  0  0  0  0  0  0  0  0
   60.7850   28.3530   49.5570 O   0  0  0  0  0  0  0  0  0  0  0  0
   60.1350   28.7380   48.3810 C   0  0  0  0  0  0  0  0  0  0  0  0
   58.7820   28.4640   48.2300 C   0  0  0  0  0  0  0  0  0  0  0  0
   58.1330   28.8460   47.0620 C   0  0  0  0  0  0  0  0  0  0  0  0
   58.7800   29.4940   46.0350 C   0  0  0  0  0  0  0  0  0  0  0  0
   58.1590   29.9090   44.8340 N   0  0  0  0  0  0  0  0  0  0  0  0
   57.2080   30.9560   44.6830 C   0  0  0  0  0  0  0  0  0  0  0  0
   57.7710   32.2910   44.2570 C   0  0  0  0  0  0  0  0  0  0  0  0
   58.8080   32.6380   45.2200 N   0  0  0  0  0  0  0  0  0  0  0  0
   58.8290   33.9730   45.6940 C   0  0  0  0  0  0  0  0  0  0  0  0
   57.9160   34.7460   45.2310 O   0  0  0  0  0  0  0  0  0  0  0  0
   59.7970   34.5190   46.6460 C   0  0  2  0  0  0  0  0  0  0  0  0
   61.2040   34.1600   46.3500 C   0  0  0  0  0  0  0  0  0  0  0  0
   61.9510   33.5310   47.4560 C   0  0  0  0  0  0  0  0  0  0  0  0
   62.4300   32.2210   47.3310 C   0  0  0  0  0  0  0  0  0  0  0  0
   63.1280   31.6200   48.3650 C   0  0  0  0  0  0  0  0  0  0  0  0
   63.3870   32.2660   49.5540 C   0  0  0  0  0  0  0  0  0  0  0  0
   62.9160   33.5570   49.6780 C   0  0  0  0  0  0  0  0  0  0  0  0
   62.2220   34.1640   48.6590 C   0  0  0  0  0  0  0  0  0  0  0  0
   59.4330   34.2670   48.0240 N   0  0  0  0  0  0  0  0  0  0  0  0
   59.1930   32.9770   48.5520 C   0  0  0  0  0  0  0  0  0  0  0  0
   59.3090   32.0050   47.7620 O   0  0  0  0  0  0  0  0  0  0  0  0
   58.8250   32.7140   49.9360 C   0  0  0  0  0  0  0  0  0  0  0  0
   59.2590   33.6170   50.9090 C   0  0  0  0  0  0  0  0  0  0  0  0
   58.9040   33.3550   52.2170 C   0  0  0  0  0  0  0  0  0  0  0  0
   58.1490   32.2510   52.5730 C   0  0  0  0  0  0  0  0  0  0  0  0
   57.7260   31.3670   51.6010 C   0  0  0  0  0  0  0  0  0  0  0  0
   56.9030   30.1730   52.0160 C   0  0  0  0  0  0  0  0  0  0  0  0
   58.0610   31.5940   50.2870 C   0  0  0  0  0  0  0  0  0  0  0  0
   60.1340   29.7440   46.2370 C   0  0  0  0  0  0  0  0  0  0  0  0
   60.8060   29.3830   47.3710 C   0  0  0  0  0  0  0  0  0  0  0  0
   60.8951   28.7291   51.5640 H   0  0  0  0  0  0  0  0  0  0  0  0
   62.0843   29.5945   50.5328 H   0  0  0  0  0  0  0  0  0  0  0  0
   60.3604   30.0992   50.5328 H   0  0  0  0  0  0  0  0  0  0  0  0
   58.2283   27.9486   49.0286 H   0  0  0  0  0  0  0  0  0  0  0  0
   57.0615   28.6218   46.9545 H   0  0  0  0  0  0  0  0  0  0  0  0
   58.4350   29.3840   43.9480 H   0  0  0  0  0  0  0  0  0  0  0  0
   56.4746   30.6407   43.9262 H   0  0  0  0  0  0  0  0  0  0  0  0
   56.7751   31.1162   45.6814 H   0  0  0  0  0  0  0  0  0  0  0  0
   58.2017   32.2155   43.2476 H   0  0  0  0  0  0  0  0  0  0  0  0
   56.9849   33.0600   44.2297 H   0  0  0  0  0  0  0  0  0  0  0  0
   59.5210   31.9640   45.5700 H   0  0  0  0  0  0  0  0  0  0  0  0
   59.7467   35.6088   46.5055 H   0  0  0  0  0  0  0  0  0  0  0  0
   61.2026   33.4595   45.5019 H   0  0  0  0  0  0  0  0  0  0  0  0
   61.7184   35.1102   46.1435 H   0  0  0  0  0  0  0  0  0  0  0  0
   62.2497   31.6628   46.4004 H   0  0  0  0  0  0  0  0  0  0  0  0
   63.4888   30.5894   48.2322 H   0  0  0  0  0  0  0  0  0  0  0  0
   63.9432   31.7755   50.3664 H   0  0  0  0  0  0  0  0  0  0  0  0
   63.0996   34.1110   50.6104 H   0  0  0  0  0  0  0  0  0  0  0  0
   61.8668   35.1949   48.8040 H   0  0  0  0  0  0  0  0  0  0  0  0
   59.3480   35.1150   48.6470 H   0  0  0  0  0  0  0  0  0  0  0  0
   59.8588   34.5002   50.6441 H   0  0  0  0  0  0  0  0  0  0  0  0
   59.2330   34.0487   53.0048 H   0  0  0  0  0  0  0  0  0  0  0  0
   57.8869   32.0786   53.6273 H   0  0  0  0  0  0  0  0  0  0  0  0
   56.8649   30.1177   53.1139 H   0  0  0  0  0  0  0  0  0  0  0  0
   55.8825   30.2750   51.6183 H   0  0  0  0  0  0  0  0  0  0  0  0
   57.3615   29.2556   51.6183 H   0  0  0  0  0  0  0  0  0  0  0  0
   57.7274   30.8927   49.5079 H   0  0  0  0  0  0  0  0  0  0  0  0
   60.6929   30.2594   45.4420 H   0  0  0  0  0  0  0  0  0  0  0  0
   61.8779   29.6077   47.4742 H   0  0  0  0  0  0  0  0  0  0  0  0
  1  2  1  0
  2  3  1  0
  3  4  2  0
  4  5  1  0
  5  6  2  0
  6  7  1  0
  7  8  1  0
  8  9  1  0
  9 10  1  0
 10 11  1  0
 11 12  2  0
 11 13  1  0
 13 14  1  0
 14 15  1  0
 15 16  2  0
 16 17  1  0
 17 18  2  0
 18 19  1  0
 19 20  2  0
 13 21  1  0
 21 22  1  0
 22 23  2  0
 22 24  1  0
 24 25  2  0
 25 26  1  0
 26 27  2  0
 27 28  1  0
 28 29  1  0
 28 30  2  0
  6 31  1  0
 31 32  2  0
 32  3  1  0
 20 15  1  0
 30 24  1  0
  1 33  1  0
  1 34  1  0
  1 35  1  0
  4 36  1  0
  5 37  1  0
  7 38  1  0
  8 39  1  0
  8 40  1  0
  9 41  1  0
  9 42  1  0
 10 43  1  0
 13 44  1  1
 14 45  1  0
 14 46  1  0
 16 47  1  0
 17 48  1  0
 18 49  1  0
 19 50  1  0
 20 51  1  0
 21 52  1  0
 25 53  1  0
 26 54  1  0
 27 55  1  0
 29 56  1  0
 29 57  1  0
 29 58  1  0
 30 59  1  0
 31 60  1  0
 32 61  1  0
M  END
>  <smiles>  (64) 
COc1ccc(NCCNC(=O)C(Cc2ccccc2)NC(=O)c2cccc(C)c2)cc1

>  <score_type>  (64) 
oracle

>  <origin>  (64) 
adg

>  <m_score__min__energy>  (64) 
-8.8499999999999996

>  <m_primary>  (64) 
energy

$$$$
64:0
     RDKit          3D

 47 50  0  0  1  0  0  0  0  0999 V2000
   60.1830   28.1620   45.3730 C   0  0  0  0  0  0  0  0  0  0  0  0
   58.9120   28.4150   45.1550 C   0  0  0  0  0  0  0  0  0  0  0  0
   57.8470   27.5780   44.9250 C   0  0  0  0  0  0  0  0  0  0  0  0
   57.8960   26.2750   44.8730 C   0  0  0  0  0  0  0  0  0  0  0  0
   57.3440   25.3550   45.8480 C   0  0  0  0  0  0  0  0  0  0  0  0
   57.9080   24.2260   46.3740 N   0  0  0  0  0  0  0  0  0  0  0  0
   56.9890   23.6910   47.2040 C   0  0  0  0  0  0  0  0  0  0  0  0
   57.2120   22.6260   47.8520 O   0  0  0  0  0  0  0  0  0  0  0  0
   55.8740   24.4490   47.2090 N   0  0  0  0  0  0  0  0  0  0  0  0
   56.0520   25.4930   46.3810 C   0  0  0  0  0  0  0  0  0  0  0  0
   55.1350   26.5050   46.1080 O   0  0  0  0  0  0  0  0  0  0  0  0
   56.7070   28.2830   44.7550 N   0  0  0  0  0  0  0  0  0  0  0  0
   57.0420   29.5720   44.8750 C   0  0  0  0  0  0  0  0  0  0  0  0
   56.2030   30.5060   44.7690 O   0  0  0  0  0  0  0  0  0  0  0  0
   58.3630   29.6660   45.1140 N   0  0  0  0  0  0  0  0  0  0  0  0
   59.0270   30.9400   45.2950 C   0  0  0  0  0  0  0  0  0  0  0  0
   58.9270   31.4640   46.6780 C   0  0  0  0  0  0  0  0  0  0  0  0
   58.8110   32.7970   46.9960 C   0  0  0  0  0  0  0  0  0  0  0  0
   58.7160   33.2560   48.3050 C   0  0  0  0  0  0  0  0  0  0  0  0
   58.7360   32.3530   49.3560 C   0  0  0  0  0  0  0  0  0  0  0  0
   58.6420   32.7610   50.7170 N   0  0  0  0  0  0  0  0  0  0  0  0
   59.4120   33.8830   51.2730 C   0  0  0  0  0  0  0  0  0  0  0  0
   59.4740   33.6570   52.7610 C   0  0  0  0  0  0  0  0  0  0  0  0
   58.5940   32.4620   53.0290 C   0  0  0  0  0  0  0  0  0  0  0  0
   57.8500   32.2210   51.7640 C   0  0  0  0  0  0  0  0  0  0  0  0
   56.7440   31.6640   51.5720 O   0  0  0  0  0  0  0  0  0  0  0  0
   58.8520   31.0090   49.0530 C   0  0  0  0  0  0  0  0  0  0  0  0
   58.9470   30.5550   47.7390 C   0  0  0  0  0  0  0  0  0  0  0  0
   60.8882   28.9900   45.5377 H   0  0  0  0  0  0  0  0  0  0  0  0
   60.5416   27.1223   45.3908 H   0  0  0  0  0  0  0  0  0  0  0  0
   58.4057   25.8316   44.0049 H   0  0  0  0  0  0  0  0  0  0  0  0
   58.8630   23.9080   46.1340 H   0  0  0  0  0  0  0  0  0  0  0  0
   55.0030   24.2750   47.7600 H   0  0  0  0  0  0  0  0  0  0  0  0
   54.3950   26.7220   46.7510 H   0  0  0  0  0  0  0  0  0  0  0  0
   55.7310   27.9140   44.5650 H   0  0  0  0  0  0  0  0  0  0  0  0
   60.0911   30.8174   45.0445 H   0  0  0  0  0  0  0  0  0  0  0  0
   58.5258   31.6642   44.6360 H   0  0  0  0  0  0  0  0  0  0  0  0
   58.7926   33.5327   46.1784 H   0  0  0  0  0  0  0  0  0  0  0  0
   58.6252   34.3337   48.5059 H   0  0  0  0  0  0  0  0  0  0  0  0
   60.4262   33.8970   50.8473 H   0  0  0  0  0  0  0  0  0  0  0  0
   58.9412   34.8481   51.0345 H   0  0  0  0  0  0  0  0  0  0  0  0
   60.5078   33.4502   53.0748 H   0  0  0  0  0  0  0  0  0  0  0  0
   59.1380   34.5424   53.3206 H   0  0  0  0  0  0  0  0  0  0  0  0
   59.2057   31.5851   53.2877 H   0  0  0  0  0  0  0  0  0  0  0  0
   57.9127   32.6398   53.8742 H   0  0  0  0  0  0  0  0  0  0  0  0
   58.8698   30.2765   49.8734 H   0  0  0  0  0  0  0  0  0  0  0  0
   59.0380   29.4777   47.5364 H   0  0  0  0  0  0  0  0  0  0  0  0
  1  2  2  0
  2  3  1  0
  3  4  2  0
  4  5  1  0
  5  6  1  0
  6  7  1  0
  7  8  2  0
  7  9  1  0
  9 10  1  0
 10 11  1  0
  3 12  1  0
 12 13  1  0
 13 14  2  0
 13 15  1  0
 15 16  1  0
 16 17  1  0
 17 18  2  0
 18 19  1  0
 19 20  2  0
 20 21  1  0
 21 22  1  0
 22 23  1  0
 23 24  1  0
 24 25  1  0
 25 26  2  0
 20 27  1  0
 27 28  2  0
 15  2  1  0
 28 17  1  0
 10  5  2  0
 25 21  1  0
  1 29  1  0
  1 30  1  0
  4 31  1  0
  6 32  1  0
  9 33  1  0
 11 34  1  0
 12 35  1  0
 16 36  1  0
 16 37  1  0
 18 38  1  0
 19 39  1  0
 22 40  1  0
 22 41  1  0
 23 42  1  0
 23 43  1  0
 24 44  1  0
 24 45  1  0
 27 46  1  0
 28 47  1  0
M  END
>  <smiles>  (65) 
C=c1c(=Cc2[nH]c(=O)[nH]c2O)[nH]c(=O)n1Cc1ccc(N2CCCC2=O)cc1

>  <score_type>  (65) 
oracle

>  <origin>  (65) 
adg

>  <m_score__min__energy>  (65) 
-9.6699999999999999

>  <m_primary>  (65) 
energy

$$$$
65:0
     RDKit          3D

 42 43  0  0  0  0  0  0  0  0999 V2000
   57.8560   32.3280   42.0630 C   0  0  0  0  0  0  0  0  0  0  0  0
   58.2550   33.0900   43.2940 C   0  0  0  0  0  0  0  0  0  0  0  0
   57.8110   32.4860   44.5350 N   0  0  0  0  0  0  0  0  0  0  0  0
   57.4960   33.4290   45.6110 C   0  0  0  0  0  0  0  0  0  0  0  0
   58.6860   34.2460   46.0380 C   0  0  0  0  0  0  0  0  0  0  0  0
   57.6540   31.0740   44.7010 C   0  0  0  0  0  0  0  0  0  0  0  0
   56.4700   30.4150   44.4920 C   0  0  0  0  0  0  0  0  0  0  0  0
   56.3130   29.0440   44.6200 C   0  0  0  0  0  0  0  0  0  0  0  0
   57.3990   28.2760   44.9800 C   0  0  0  0  0  0  0  0  0  0  0  0
   57.2660   26.8650   45.1280 N   0  0  0  0  0  0  0  0  0  0  0  0
   57.5140   26.3260   46.4100 C   0  0  0  0  0  0  0  0  0  0  0  0
   57.8430   27.1240   47.3340 O   0  0  0  0  0  0  0  0  0  0  0  0
   57.4200   24.8960   46.7600 C   0  0  0  0  0  0  0  0  0  0  0  0
   58.2830   24.0370   46.0110 N   0  0  0  0  0  0  0  0  0  0  0  0
   57.6710   23.2380   44.9760 C   0  0  0  0  0  0  0  0  0  0  0  0
   57.4730   21.8740   44.7640 C   0  0  0  0  0  0  0  0  0  0  0  0
   57.7650   20.6910   45.4130 O   0  0  0  0  0  0  0  0  0  0  0  0
   56.8260   22.1190   43.5710 C   0  0  0  0  0  0  0  0  0  0  0  0
   56.2960   21.4260   42.6890 O   0  0  0  0  0  0  0  0  0  0  0  0
   57.0180   23.4740   43.7730 C   0  0  0  0  0  0  0  0  0  0  0  0
   56.7490   24.5450   43.1730 O   0  0  0  0  0  0  0  0  0  0  0  0
   58.5850   28.9300   45.1920 C   0  0  0  0  0  0  0  0  0  0  0  0
   58.7410   30.2920   45.0640 C   0  0  0  0  0  0  0  0  0  0  0  0
   57.3642   31.3888   42.3565 H   0  0  0  0  0  0  0  0  0  0  0  0
   57.1601   32.9351   41.4654 H   0  0  0  0  0  0  0  0  0  0  0  0
   58.7514   32.1019   41.4654 H   0  0  0  0  0  0  0  0  0  0  0  0
   59.3526   33.1588   43.3168 H   0  0  0  0  0  0  0  0  0  0  0  0
   57.7684   34.0743   43.2289 H   0  0  0  0  0  0  0  0  0  0  0  0
   56.7084   34.1121   45.2602 H   0  0  0  0  0  0  0  0  0  0  0  0
   57.1687   32.8411   46.4812 H   0  0  0  0  0  0  0  0  0  0  0  0
   58.7333   34.2785   47.1365 H   0  0  0  0  0  0  0  0  0  0  0  0
   59.6055   33.7878   45.6448 H   0  0  0  0  0  0  0  0  0  0  0  0
   58.5888   35.2687   45.6448 H   0  0  0  0  0  0  0  0  0  0  0  0
   55.5910   31.0109   44.2052 H   0  0  0  0  0  0  0  0  0  0  0  0
   55.3349   28.5753   44.4367 H   0  0  0  0  0  0  0  0  0  0  0  0
   56.9980   26.2640   44.3250 H   0  0  0  0  0  0  0  0  0  0  0  0
   57.6702   24.7875   47.8257 H   0  0  0  0  0  0  0  0  0  0  0  0
   56.3919   24.5860   46.5215 H   0  0  0  0  0  0  0  0  0  0  0  0
   59.3070   23.9250   46.1260 H   0  0  0  0  0  0  0  0  0  0  0  0
   58.4240   19.9950   45.1140 H   0  0  0  0  0  0  0  0  0  0  0  0
   59.4622   28.3325   45.4809 H   0  0  0  0  0  0  0  0  0  0  0  0
   59.7207   30.7569   45.2483 H   0  0  0  0  0  0  0  0  0  0  0  0
  1  2  1  0
  2  3  1  0
  3  4  1  0
  4  5  1  0
  3  6  1  0
  6  7  2  0
  7  8  1  0
  8  9  2  0
  9 10  1  0
 10 11  1  0
 11 12  2  0
 11 13  1  0
 13 14  1  0
 14 15  1  0
 15 16  2  0
 16 17  1  0
 16 18  1  0
 18 19  2  0
 18 20  1  0
 20 21  2  0
  9 22  1  0
 22 23  2  0
 23  6  1  0
 20 15  1  0
  1 24  1  0
  1 25  1  0
  1 26  1  0
  2 27  1  0
  2 28  1  0
  4 29  1  0
  4 30  1  0
  5 31  1  0
  5 32  1  0
  5 33  1  0
  7 34  1  0
  8 35  1  0
 10 36  1  0
 13 37  1  0
 13 38  1  0
 14 39  1  0
 17 40  1  0
 22 41  1  0
 23 42  1  0
M  END
>  <smiles>  (66) 
CCN(CC)c1ccc(NC(=O)CNc2c(O)c(=O)c2=O)cc1

>  <score_type>  (66) 
oracle

>  <origin>  (66) 
adg

>  <m_score__min__energy>  (66) 
-7.7199999999999998

>  <m_primary>  (66) 
energy

$$$$
66:0
     RDKit          3D

 38 40  0  0  1  0  0  0  0  0999 V2000
   59.8750   29.1980   48.0910 C   0  0  0  0  0  0  0  0  0  0  0  0
   59.4240   30.0640   47.2130 C   0  0  0  0  0  0  0  0  0  0  0  0
   58.9810   29.8820   45.9250 C   0  0  0  0  0  0  0  0  0  0  0  0
   58.9150   28.7470   45.2770 C   0  0  0  0  0  0  0  0  0  0  0  0
   58.0070   27.6540   45.5640 C   0  0  0  0  0  0  0  0  0  0  0  0
   56.6220   27.8820   45.5900 C   0  0  0  0  0  0  0  0  0  0  0  0
   56.1790   29.1440   45.2950 O   0  0  0  0  0  0  0  0  0  0  0  0
   55.7950   26.8650   45.9010 N   0  0  0  0  0  0  0  0  0  0  0  0
   56.2830   25.6480   46.1820 C   0  0  0  0  0  0  0  0  0  0  0  0
   55.4730   24.7160   46.4700 O   0  0  0  0  0  0  0  0  0  0  0  0
   57.6170   25.4010   46.1640 N   0  0  0  0  0  0  0  0  0  0  0  0
   58.5130   26.3760   45.8610 C   0  0  0  0  0  0  0  0  0  0  0  0
   59.7550   26.1690   45.8390 O   0  0  0  0  0  0  0  0  0  0  0  0
   58.5960   31.0900   45.3710 C   0  0  0  0  0  0  0  0  0  0  0  0
   58.8140   32.0210   46.3520 C   0  0  0  0  0  0  0  0  0  0  0  0
   58.5400   33.4710   46.1990 C   0  0  0  0  0  0  0  0  0  0  0  0
   59.3030   31.3980   47.4320 N   0  0  0  0  0  0  0  0  0  0  0  0
   59.6350   32.1000   48.6320 C   0  0  0  0  0  0  0  0  0  0  0  0
   58.6770   32.4190   49.5790 C   0  0  0  0  0  0  0  0  0  0  0  0
   59.1060   33.1020   50.7080 C   0  0  0  0  0  0  0  0  0  0  0  0
   60.4400   33.4550   50.8830 C   0  0  0  0  0  0  0  0  0  0  0  0
   61.3530   33.1320   49.9420 N   0  0  0  0  0  0  0  0  0  0  0  0
   60.9620   32.4680   48.8390 C   0  0  0  0  0  0  0  0  0  0  0  0
   61.9650   32.1400   47.8580 C   0  0  0  0  0  0  0  0  0  0  0  0
   62.7500   31.8850   47.0660 N   0  0  0  0  0  0  0  0  0  0  0  0
   60.1881   29.5388   49.0889 H   0  0  0  0  0  0  0  0  0  0  0  0
   59.9397   28.1317   47.8286 H   0  0  0  0  0  0  0  0  0  0  0  0
   59.6125   28.6097   44.4375 H   0  0  0  0  0  0  0  0  0  0  0  0
   55.7520   29.7200   45.9880 H   0  0  0  0  0  0  0  0  0  0  0  0
   54.7710   27.0980   45.9030 H   0  0  0  0  0  0  0  0  0  0  0  0
   57.9590   24.4590   46.3850 H   0  0  0  0  0  0  0  0  0  0  0  0
   58.1999   31.2652   44.3599 H   0  0  0  0  0  0  0  0  0  0  0  0
   58.4524   33.9345   47.1927 H   0  0  0  0  0  0  0  0  0  0  0  0
   59.3647   33.9436   45.6454 H   0  0  0  0  0  0  0  0  0  0  0  0
   57.5997   33.6101   45.6454 H   0  0  0  0  0  0  0  0  0  0  0  0
   57.6210   32.1429   49.4423 H   0  0  0  0  0  0  0  0  0  0  0  0
   58.3735   33.3708   51.4834 H   0  0  0  0  0  0  0  0  0  0  0  0
   60.7512   33.9973   51.7880 H   0  0  0  0  0  0  0  0  0  0  0  0
  1  2  2  0
  2  3  1  0
  3  4  2  0
  4  5  1  0
  5  6  2  0
  6  7  1  0
  6  8  1  0
  8  9  1  0
  9 10  2  0
  9 11  1  0
 11 12  1  0
 12 13  2  0
  3 14  1  0
 14 15  2  0
 15 16  1  0
 15 17  1  0
 17 18  1  0
 18 19  2  0
 19 20  1  0
 20 21  2  0
 21 22  1  0
 22 23  2  0
 23 24  1  0
 24 25  3  0
 17  2  1  0
 23 18  1  0
 12  5  1  0
  1 26  1  0
  1 27  1  0
  4 28  1  0
  7 29  1  0
  8 30  1  0
 11 31  1  0
 14 32  1  0
 16 33  1  0
 16 34  1  0
 16 35  1  0
 19 36  1  0
 20 37  1  0
 21 38  1  0
M  END
>  <smiles>  (67) 
C=c1c(=Cc2c(O)[nH]c(=O)[nH]c2=O)cc(C)n1-c1cccnc1C#N

>  <score_type>  (67) 
oracle

>  <origin>  (67) 
adg

>  <m_score__min__energy>  (67) 
-8.1600000000000001

>  <m_primary>  (67) 
energy

$$$$
67:0
     RDKit          3D

 32 34  0  0  0  0  0  0  0  0999 V2000
   58.5170   33.6180   47.9930 O   0  0  0  0  0  0  0  0  0  0  0  0
   58.6970   32.5460   47.3700 C   0  0  0  0  0  0  0  0  0  0  0  0
   57.9220   32.1310   46.3660 N   0  0  0  0  0  0  0  0  0  0  0  0
   58.1700   30.9650   45.7360 C   0  0  0  0  0  0  0  0  0  0  0  0
   57.2600   30.6030   44.6550 C   0  0  0  0  0  0  0  0  0  0  0  0
   57.4360   30.7260   43.2910 C   0  0  0  0  0  0  0  0  0  0  0  0
   56.2900   30.2460   42.6800 C   0  0  0  0  0  0  0  0  0  0  0  0
   55.4690   29.8520   43.7190 C   0  0  0  0  0  0  0  0  0  0  0  0
   56.0760   30.0790   44.8750 O   0  0  0  0  0  0  0  0  0  0  0  0
   59.1920   30.1520   46.0630 N   0  0  0  0  0  0  0  0  0  0  0  0
   59.4680   28.9220   45.4090 C   0  0  0  0  0  0  0  0  0  0  0  0
   58.6820   27.7620   45.8080 C   0  0  0  0  0  0  0  0  0  0  0  0
   59.3290   26.5920   46.2110 C   0  0  0  0  0  0  0  0  0  0  0  0
   58.5970   25.4660   46.6010 C   0  0  0  0  0  0  0  0  0  0  0  0
   57.2210   25.4530   46.6070 C   0  0  0  0  0  0  0  0  0  0  0  0
   56.5810   26.6070   46.2100 C   0  0  0  0  0  0  0  0  0  0  0  0
   55.1820   26.6310   46.2030 O   0  0  0  0  0  0  0  0  0  0  0  0
   57.3050   27.7170   45.8260 C   0  0  0  0  0  0  0  0  0  0  0  0
   59.9750   30.5930   47.0930 C   0  0  0  0  0  0  0  0  0  0  0  0
   60.9650   29.9350   47.5070 O   0  0  0  0  0  0  0  0  0  0  0  0
   59.7270   31.7580   47.7240 N   0  0  0  0  0  0  0  0  0  0  0  0
   58.3237   31.1310   42.7831 H   0  0  0  0  0  0  0  0  0  0  0  0
   56.0791   30.1904   41.6018 H   0  0  0  0  0  0  0  0  0  0  0  0
   54.4654   29.4166   43.6043 H   0  0  0  0  0  0  0  0  0  0  0  0
   59.3056   29.0766   44.3321 H   0  0  0  0  0  0  0  0  0  0  0  0
   60.5010   28.6753   45.6956 H   0  0  0  0  0  0  0  0  0  0  0  0
   60.4283   26.5555   46.2218 H   0  0  0  0  0  0  0  0  0  0  0  0
   59.1389   24.5611   46.9132 H   0  0  0  0  0  0  0  0  0  0  0  0
   56.6567   24.5605   46.9152 H   0  0  0  0  0  0  0  0  0  0  0  0
   54.7240   26.7160   47.1000 H   0  0  0  0  0  0  0  0  0  0  0  0
   56.7520   28.6163   45.5170 H   0  0  0  0  0  0  0  0  0  0  0  0
   60.3400   32.0730   48.5080 H   0  0  0  0  0  0  0  0  0  0  0  0
  1  2  2  0
  2  3  1  0
  3  4  2  0
  4  5  1  0
  5  6  2  0
  6  7  1  0
  7  8  2  0
  8  9  1  0
  4 10  1  0
 10 11  1  0
 11 12  1  0
 12 13  2  0
 13 14  1  0
 14 15  2  0
 15 16  1  0
 16 17  1  0
 16 18  2  0
 10 19  1  0
 19 20  2  0
 19 21  1  0
 21  2  1  0
  9  5  1  0
 18 12  1  0
  6 22  1  0
  7 23  1  0
  8 24  1  0
 11 25  1  0
 11 26  1  0
 13 27  1  0
 14 28  1  0
 15 29  1  0
 17 30  1  0
 18 31  1  0
 21 32  1  0
M  END
>  <smiles>  (68) 
O=c1nc(-c2ccco2)n(Cc2cccc(O)c2)c(=O)[nH]1

>  <score_type>  (68) 
oracle

>  <origin>  (68) 
adg

>  <m_score__min__energy>  (68) 
-7.8600000000000003

>  <m_primary>  (68) 
energy

$$$$
68:0
     RDKit          3D

 45 48  0  0  0  0  0  0  0  0999 V2000
   62.4900   33.8320   48.7730 N   0  0  0  0  0  0  0  0  0  0  0  0
   62.3280   33.1870   47.1690 S   0  0  0  0  0  0  0  0  0  0  0  0
   63.1160   34.1190   46.2690 O   0  0  0  0  0  0  0  0  0  0  0  0
   62.8890   31.8190   47.1790 O   0  0  0  0  0  0  0  0  0  0  0  0
   60.6600   33.2890   46.7080 C   0  0  0  0  0  0  0  0  0  0  0  0
   60.2300   34.2250   45.7900 C   0  0  0  0  0  0  0  0  0  0  0  0
   58.9190   34.3480   45.3840 C   0  0  0  0  0  0  0  0  0  0  0  0
   58.0040   33.4870   45.9320 C   0  0  0  0  0  0  0  0  0  0  0  0
   58.4230   32.5620   46.8380 C   0  0  0  0  0  0  0  0  0  0  0  0
   59.7240   32.4080   47.2680 C   0  0  0  0  0  0  0  0  0  0  0  0
   60.1360   31.4010   48.2370 C   0  0  0  0  0  0  0  0  0  0  0  0
   60.6450   31.8810   49.4090 N   0  0  0  0  0  0  0  0  0  0  0  0
   61.0450   31.0010   50.3540 C   0  0  0  0  0  0  0  0  0  0  0  0
   61.5200   31.3960   51.4480 O   0  0  0  0  0  0  0  0  0  0  0  0
   60.9480   29.6380   50.1560 C   0  0  0  0  0  0  0  0  0  0  0  0
   61.3620   28.7550   51.1330 C   0  0  0  0  0  0  0  0  0  0  0  0
   61.8870   29.2390   52.3440 O   0  0  0  0  0  0  0  0  0  0  0  0
   61.2590   27.3970   50.9190 C   0  0  0  0  0  0  0  0  0  0  0  0
   60.7460   26.8750   49.7430 C   0  0  0  0  0  0  0  0  0  0  0  0
   60.3390   27.7870   48.7790 C   0  0  0  0  0  0  0  0  0  0  0  0
   60.4330   29.1530   48.9710 C   0  0  0  0  0  0  0  0  0  0  0  0
   60.0190   30.0620   47.9930 C   0  0  0  0  0  0  0  0  0  0  0  0
   59.4880   29.5150   46.7600 C   0  0  0  0  0  0  0  0  0  0  0  0
   58.1260   29.2590   46.6460 C   0  0  0  0  0  0  0  0  0  0  0  0
   57.5790   28.7290   45.4810 C   0  0  0  0  0  0  0  0  0  0  0  0
   58.3730   28.4360   44.3920 C   0  0  0  0  0  0  0  0  0  0  0  0
   57.7600   27.9100   43.2630 O   0  0  0  0  0  0  0  0  0  0  0  0
   59.7140   28.6830   44.4910 C   0  0  0  0  0  0  0  0  0  0  0  0
   60.2530   29.2110   45.6550 C   0  0  0  0  0  0  0  0  0  0  0  0
   62.4970   33.0500   49.4510 H   0  0  0  0  0  0  0  0  0  0  0  0
   63.3750   34.3670   48.8950 H   0  0  0  0  0  0  0  0  0  0  0  0
   60.9744   34.9105   45.3587 H   0  0  0  0  0  0  0  0  0  0  0  0
   58.6182   35.1082   44.6481 H   0  0  0  0  0  0  0  0  0  0  0  0
   56.9441   33.5430   45.6430 H   0  0  0  0  0  0  0  0  0  0  0  0
   57.6654   31.8851   47.2597 H   0  0  0  0  0  0  0  0  0  0  0  0
   60.7360   32.9050   49.5950 H   0  0  0  0  0  0  0  0  0  0  0  0
   61.6250   30.1950   52.5540 H   0  0  0  0  0  0  0  0  0  0  0  0
   61.5947   26.7065   51.7067 H   0  0  0  0  0  0  0  0  0  0  0  0
   60.6650   25.7900   49.5809 H   0  0  0  0  0  0  0  0  0  0  0  0
   59.9280   27.4104   47.8307 H   0  0  0  0  0  0  0  0  0  0  0  0
   57.4650   29.4807   47.4969 H   0  0  0  0  0  0  0  0  0  0  0  0
   56.4965   28.5409   45.4280 H   0  0  0  0  0  0  0  0  0  0  0  0
   56.8330   27.5060   43.3010 H   0  0  0  0  0  0  0  0  0  0  0  0
   60.3726   28.4607   43.6385 H   0  0  0  0  0  0  0  0  0  0  0  0
   61.3367   29.3947   45.6977 H   0  0  0  0  0  0  0  0  0  0  0  0
  1  2  1  0
  2  3  2  0
  2  4  2  0
  2  5  1  0
  5  6  2  0
  6  7  1  0
  7  8  2  0
  8  9  1  0
  9 10  2  0
 10 11  1  0
 11 12  1  0
 12 13  1  0
 13 14  2  0
 13 15  1  0
 15 16  2  0
 16 17  1  0
 16 18  1  0
 18 19  2  0
 19 20  1  0
 20 21  2  0
 21 22  1  0
 22 23  1  0
 23 24  2  0
 24 25  1  0
 25 26  2  0
 26 27  1  0
 26 28  1  0
 28 29  2  0
 10  5  1  0
 22 11  2  0
 29 23  1  0
 21 15  1  0
  1 30  1  0
  1 31  1  0
  6 32  1  0
  7 33  1  0
  8 34  1  0
  9 35  1  0
 12 36  1  0
 17 37  1  0
 18 38  1  0
 19 39  1  0
 20 40  1  0
 24 41  1  0
 25 42  1  0
 27 43  1  0
 28 44  1  0
 29 45  1  0
M  END
>  <smiles>  (69) 
NS(=O)(=O)c1ccccc1-c1[nH]c(=O)c2c(O)cccc2c1-c1ccc(O)cc1

>  <score_type>  (69) 
oracle

>  <origin>  (69) 
adg

>  <m_score__min__energy>  (69) 
-8.0099999999999998

>  <m_primary>  (69) 
energy

$$$$
69:0
     RDKit          3D

 41 42  0  0  1  0  0  0  0  0999 V2000
   60.0220   34.6000   47.8280 C   0  0  0  0  0  0  0  0  0  0  0  0
   59.7040   33.7820   46.7700 C   0  0  0  0  0  0  0  0  0  0  0  0
   59.1360   34.5130   45.6880 C   0  0  0  0  0  0  0  0  0  0  0  0
   58.2200   34.2840   44.8190 C   0  0  0  0  0  0  0  0  0  0  0  0
   58.1380   33.2940   43.7650 C   0  0  0  0  0  0  0  0  0  0  0  0
   57.9050   31.9600   44.4790 C   0  0  0  0  0  0  0  0  0  0  0  0
   57.2170   31.9240   45.5240 O   0  0  0  0  0  0  0  0  0  0  0  0
   58.4970   30.8040   43.9030 N   0  0  0  0  0  0  0  0  0  0  0  0
   58.2970   29.5540   44.5450 C   0  0  0  0  0  0  0  0  0  0  0  0
   57.0220   29.1550   44.9570 C   0  0  0  0  0  0  0  0  0  0  0  0
   56.8370   27.9300   45.5860 C   0  0  0  0  0  0  0  0  0  0  0  0
   57.9220   27.1020   45.8040 C   0  0  0  0  0  0  0  0  0  0  0  0
   57.7710   25.7760   46.4740 C   0  0  0  0  0  0  0  0  0  0  0  0
   56.9470   24.9250   45.5830 C   0  0  0  0  0  0  0  0  0  0  0  0
   57.6290   23.5590   44.6200 S   0  0  0  0  0  0  0  0  0  0  0  0
   55.9830   23.1710   43.9050 C   0  0  0  0  0  0  0  0  0  0  0  0
   55.7870   22.2150   43.0700 O   0  0  0  0  0  0  0  0  0  0  0  0
   55.1410   24.0730   44.4460 N   0  0  0  0  0  0  0  0  0  0  0  0
   55.6280   24.9380   45.2770 C   0  0  0  0  0  0  0  0  0  0  0  0
   54.7840   25.9300   45.8940 O   0  0  0  0  0  0  0  0  0  0  0  0
   59.1890   27.4810   45.4050 C   0  0  0  0  0  0  0  0  0  0  0  0
   59.3490   28.6990   44.7840 C   0  0  0  0  0  0  0  0  0  0  0  0
   60.0090   32.4010   46.9960 C   0  0  0  0  0  0  0  0  0  0  0  0
   61.0670   31.7730   46.8690 O   0  0  0  0  0  0  0  0  0  0  0  0
   58.9350   31.5720   47.4490 O   0  0  0  0  0  0  0  0  0  0  0  0
   60.4703   34.1736   48.7375 H   0  0  0  0  0  0  0  0  0  0  0  0
   59.8282   35.6810   47.7651 H   0  0  0  0  0  0  0  0  0  0  0  0
   59.5891   35.5083   45.5691 H   0  0  0  0  0  0  0  0  0  0  0  0
   57.3494   34.9530   44.8859 H   0  0  0  0  0  0  0  0  0  0  0  0
   57.3005   33.5201   43.0886 H   0  0  0  0  0  0  0  0  0  0  0  0
   59.0492   33.2751   43.1491 H   0  0  0  0  0  0  0  0  0  0  0  0
   59.0680   30.9050   43.0180 H   0  0  0  0  0  0  0  0  0  0  0  0
   56.1597   29.8152   44.7821 H   0  0  0  0  0  0  0  0  0  0  0  0
   55.8320   27.6207   45.9089 H   0  0  0  0  0  0  0  0  0  0  0  0
   58.7586   25.3163   46.6264 H   0  0  0  0  0  0  0  0  0  0  0  0
   57.2925   25.8884   47.4581 H   0  0  0  0  0  0  0  0  0  0  0  0
   54.1060   24.0300   44.1630 H   0  0  0  0  0  0  0  0  0  0  0  0
   55.0770   26.3230   46.7810 H   0  0  0  0  0  0  0  0  0  0  0  0
   60.0527   26.8227   45.5800 H   0  0  0  0  0  0  0  0  0  0  0  0
   60.3578   29.0012   44.4660 H   0  0  0  0  0  0  0  0  0  0  0  0
   58.1280   31.4990   46.8350 H   0  0  0  0  0  0  0  0  0  0  0  0
  1  2  2  0
  2  3  1  0
  3  4  2  0
  4  5  1  0
  5  6  1  0
  6  7  2  0
  6  8  1  0
  8  9  1  0
  9 10  2  0
 10 11  1  0
 11 12  2  0
 12 13  1  0
 13 14  1  0
 14 15  1  0
 15 16  1  0
 16 17  2  0
 16 18  1  0
 18 19  1  0
 19 20  1  0
 12 21  1  0
 21 22  2  0
  2 23  1  0
 23 24  2  0
 23 25  1  0
 22  9  1  0
 19 14  2  0
  1 26  1  0
  1 27  1  0
  3 28  1  0
  4 29  1  0
  5 30  1  0
  5 31  1  0
  8 32  1  0
 10 33  1  0
 11 34  1  0
 13 35  1  0
 13 36  1  0
 18 37  1  0
 20 38  1  0
 21 39  1  0
 22 40  1  0
 25 41  1  0
M  END
>  <smiles>  (70) 
C=C(C=CCC(=O)Nc1ccc(Cc2sc(=O)[nH]c2O)cc1)C(=O)O

>  <score_type>  (70) 
oracle

>  <origin>  (70) 
adg

>  <m_score__min__energy>  (70) 
-8.9900000000000002

>  <m_primary>  (70) 
energy

$$$$
70:0
     RDKit          3D

 38 40  0  0  0  0  0  0  0  0999 V2000
   55.8130   29.7300   43.3460 C   0  0  0  0  0  0  0  0  0  0  0  0
   57.1690   29.4680   43.9150 C   0  0  0  0  0  0  0  0  0  0  0  0
   57.7460   28.1930   43.8730 C   0  0  0  0  0  0  0  0  0  0  0  0
   58.9890   27.9310   44.3880 C   0  0  0  0  0  0  0  0  0  0  0  0
   59.7110   28.9640   44.9750 C   0  0  0  0  0  0  0  0  0  0  0  0
   59.1370   30.2220   45.0130 C   0  0  0  0  0  0  0  0  0  0  0  0
   57.8830   30.4920   44.4950 C   0  0  0  0  0  0  0  0  0  0  0  0
   57.2630   31.8310   44.5290 C   0  0  0  0  0  0  0  0  0  0  0  0
   58.0370   32.8860   45.1710 C   0  0  0  0  0  0  0  0  0  0  0  0
   58.4080   33.9970   44.5860 N   0  0  0  0  0  0  0  0  0  0  0  0
   59.1460   34.7970   45.5000 C   0  0  0  0  0  0  0  0  0  0  0  0
   59.6420   35.9380   45.2260 O   0  0  0  0  0  0  0  0  0  0  0  0
   59.2280   34.1000   46.7540 N   0  0  0  0  0  0  0  0  0  0  0  0
   59.9000   34.5840   47.9400 C   0  0  0  0  0  0  0  0  0  0  0  0
   61.3000   34.0760   48.0180 C   0  0  0  0  0  0  0  0  0  0  0  0
   61.9530   33.8710   49.2100 C   0  0  0  0  0  0  0  0  0  0  0  0
   63.2560   33.3930   49.1610 C   0  0  0  0  0  0  0  0  0  0  0  0
   63.8930   33.1270   47.9560 C   0  0  0  0  0  0  0  0  0  0  0  0
   63.2190   33.3400   46.7730 C   0  0  0  0  0  0  0  0  0  0  0  0
   61.9150   33.8170   46.7920 C   0  0  0  0  0  0  0  0  0  0  0  0
   58.5190   32.8770   46.5490 C   0  0  0  0  0  0  0  0  0  0  0  0
   58.3680   31.9840   47.4330 O   0  0  0  0  0  0  0  0  0  0  0  0
   55.0922   29.8693   44.1652 H   0  0  0  0  0  0  0  0  0  0  0  0
   55.8445   30.6387   42.7269 H   0  0  0  0  0  0  0  0  0  0  0  0
   55.5037   28.8750   42.7269 H   0  0  0  0  0  0  0  0  0  0  0  0
   57.1808   27.3710   43.4095 H   0  0  0  0  0  0  0  0  0  0  0  0
   59.4100   26.9160   44.3375 H   0  0  0  0  0  0  0  0  0  0  0  0
   60.7109   28.7859   45.3975 H   0  0  0  0  0  0  0  0  0  0  0  0
   59.7028   31.0441   45.4756 H   0  0  0  0  0  0  0  0  0  0  0  0
   57.0741   32.1391   43.4901 H   0  0  0  0  0  0  0  0  0  0  0  0
   56.3566   31.7185   45.1420 H   0  0  0  0  0  0  0  0  0  0  0  0
   59.9191   35.6836   47.9169 H   0  0  0  0  0  0  0  0  0  0  0  0
   59.3507   34.2214   48.8213 H   0  0  0  0  0  0  0  0  0  0  0  0
   61.4598   34.0787   50.1710 H   0  0  0  0  0  0  0  0  0  0  0  0
   63.7983   33.2204   50.1023 H   0  0  0  0  0  0  0  0  0  0  0  0
   64.9262   32.7497   47.9459 H   0  0  0  0  0  0  0  0  0  0  0  0
   63.7143   33.1320   45.8131 H   0  0  0  0  0  0  0  0  0  0  0  0
   61.3724   33.9890   45.8507 H   0  0  0  0  0  0  0  0  0  0  0  0
  1  2  1  0
  2  3  2  0
  3  4  1  0
  4  5  2  0
  5  6  1  0
  6  7  2  0
  7  8  1  0
  8  9  1  0
  9 10  2  0
 10 11  1  0
 11 12  2  0
 11 13  1  0
 13 14  1  0
 14 15  1  0
 15 16  2  0
 16 17  1  0
 17 18  2  0
 18 19  1  0
 19 20  2  0
 13 21  1  0
 21 22  2  0
  7  2  1  0
 21  9  1  0
 20 15  1  0
  1 23  1  0
  1 24  1  0
  1 25  1  0
  3 26  1  0
  4 27  1  0
  5 28  1  0
  6 29  1  0
  8 30  1  0
  8 31  1  0
 14 32  1  0
 14 33  1  0
 16 34  1  0
 17 35  1  0
 18 36  1  0
 19 37  1  0
 20 38  1  0
M  END
>  <smiles>  (71) 
Cc1ccccc1CC1=NC(=O)N(Cc2ccccc2)C1=O

>  <score_type>  (71) 
oracle

>  <origin>  (71) 
adg

>  <m_score__min__energy>  (71) 
-8.1099999999999994

>  <m_primary>  (71) 
energy

$$$$
71:0
     RDKit          3D

 72 74  0  0  1  0  0  0  0  0999 V2000
   63.2340   31.2760   50.3260 C   0  0  0  0  0  0  0  0  0  0  0  0
   64.2980   32.3620   50.1260 C   0  0  0  0  0  0  0  0  0  0  0  0
   65.6700   31.8910   50.4840 C   0  0  0  0  0  0  0  0  0  0  0  0
   63.8760   33.4990   51.0490 C   0  0  0  0  0  0  0  0  0  0  0  0
   64.2190   32.7480   48.7660 O   0  0  0  0  0  0  0  0  0  0  0  0
   63.0270   32.9340   48.1240 C   0  0  0  0  0  0  0  0  0  0  0  0
   62.7230   32.2100   47.1470 O   0  0  0  0  0  0  0  0  0  0  0  0
   62.1300   33.9310   48.5460 N   0  0  0  0  0  0  0  0  0  0  0  0
   60.8630   34.2340   47.9770 C   0  0  1  0  0  0  0  0  0  0  0  0
   60.7610   34.2630   46.4990 C   0  0  0  0  0  0  0  0  0  0  0  0
   59.5700   33.5400   46.0530 C   0  0  0  0  0  0  0  0  0  0  0  0
   59.6150   32.1770   45.8050 C   0  0  0  0  0  0  0  0  0  0  0  0
   58.4900   31.4860   45.3840 C   0  0  0  0  0  0  0  0  0  0  0  0
   57.2940   32.1480   45.2020 C   0  0  0  0  0  0  0  0  0  0  0  0
   56.1550   31.4860   44.7830 O   0  0  0  0  0  0  0  0  0  0  0  0
   57.2330   33.5200   45.4480 C   0  0  0  0  0  0  0  0  0  0  0  0
   58.3610   34.1940   45.8670 C   0  0  0  0  0  0  0  0  0  0  0  0
   59.8810   33.2250   48.5210 C   0  0  0  0  0  0  0  0  0  0  0  0
   58.6940   33.5500   48.7850 O   0  0  0  0  0  0  0  0  0  0  0  0
   60.2530   31.8730   48.7560 N   0  0  0  0  0  0  0  0  0  0  0  0
   59.3140   30.8910   49.2810 C   0  0  2  0  0  0  0  0  0  0  0  0
   59.4680   30.7060   50.7670 C   0  0  0  0  0  0  0  0  0  0  0  0
   59.2910   31.9550   51.5250 C   0  0  0  0  0  0  0  0  0  0  0  0
   60.3900   32.6610   52.0040 C   0  0  0  0  0  0  0  0  0  0  0  0
   60.1680   33.8340   52.7110 C   0  0  0  0  0  0  0  0  0  0  0  0
   58.8680   34.2820   52.9300 C   0  0  0  0  0  0  0  0  0  0  0  0
   57.7640   33.5940   52.4640 C   0  0  0  0  0  0  0  0  0  0  0  0
   58.0010   32.4300   51.7620 C   0  0  0  0  0  0  0  0  0  0  0  0
   59.5900   29.6100   48.5810 C   0  0  0  0  0  0  0  0  0  0  0  0
   60.5890   28.9350   48.9520 O   0  0  0  0  0  0  0  0  0  0  0  0
   58.7190   29.2090   47.5340 N   0  0  0  0  0  0  0  0  0  0  0  0
   59.0250   27.9410   46.8730 C   0  0  0  0  0  0  0  0  0  0  0  0
   57.7750   27.2150   46.5240 C   0  0  0  0  0  0  0  0  0  0  0  0
   57.4370   25.9450   46.7050 N   0  0  0  0  0  0  0  0  0  0  0  0
   56.1890   25.7840   46.2130 C   0  0  0  0  0  0  0  0  0  0  0  0
   55.5470   24.6990   46.2160 O   0  0  0  0  0  0  0  0  0  0  0  0
   55.7180   26.9240   45.7180 N   0  0  0  0  0  0  0  0  0  0  0  0
   56.6960   27.8450   45.9010 C   0  0  0  0  0  0  0  0  0  0  0  0
   56.6060   29.1830   45.5190 O   0  0  0  0  0  0  0  0  0  0  0  0
   63.0743   31.1129   51.4021 H   0  0  0  0  0  0  0  0  0  0  0  0
   62.2907   31.5966   49.8597 H   0  0  0  0  0  0  0  0  0  0  0  0
   63.5738   30.3395   49.8597 H   0  0  0  0  0  0  0  0  0  0  0  0
   65.7717   31.8561   51.5787 H   0  0  0  0  0  0  0  0  0  0  0  0
   65.8326   30.8856   50.0684 H   0  0  0  0  0  0  0  0  0  0  0  0
   66.4158   32.5846   50.0684 H   0  0  0  0  0  0  0  0  0  0  0  0
   63.9930   33.1837   52.0963 H   0  0  0  0  0  0  0  0  0  0  0  0
   64.5072   34.3795   50.8584 H   0  0  0  0  0  0  0  0  0  0  0  0
   62.8232   33.7544   50.8584 H   0  0  0  0  0  0  0  0  0  0  0  0
   62.4370   34.5170   49.3810 H   0  0  0  0  0  0  0  0  0  0  0  0
   60.6553   35.2756   48.2631 H   0  0  0  0  0  0  0  0  0  0  0  0
   60.6978   35.3079   46.1610 H   0  0  0  0  0  0  0  0  0  0  0  0
   61.6516   33.7792   46.0715 H   0  0  0  0  0  0  0  0  0  0  0  0
   60.5612   31.6338   45.9450 H   0  0  0  0  0  0  0  0  0  0  0  0
   58.5513   30.4043   45.1941 H   0  0  0  0  0  0  0  0  0  0  0  0
   56.1160   30.7140   44.1580 H   0  0  0  0  0  0  0  0  0  0  0  0
   56.2868   34.0633   45.3080 H   0  0  0  0  0  0  0  0  0  0  0  0
   58.3004   35.2756   46.0582 H   0  0  0  0  0  0  0  0  0  0  0  0
   61.2280   31.5440   48.5540 H   0  0  0  0  0  0  0  0  0  0  0  0
   58.2833   31.2346   49.1091 H   0  0  0  0  0  0  0  0  0  0  0  0
   58.7165   29.9792   51.1092 H   0  0  0  0  0  0  0  0  0  0  0  0
   60.4940   30.3539   50.9494 H   0  0  0  0  0  0  0  0  0  0  0  0
   61.4127   32.2971   51.8261 H   0  0  0  0  0  0  0  0  0  0  0  0
   61.0204   34.4109   53.0991 H   0  0  0  0  0  0  0  0  0  0  0  0
   58.7147   35.2147   53.4927 H   0  0  0  0  0  0  0  0  0  0  0  0
   56.7418   33.9580   52.6446 H   0  0  0  0  0  0  0  0  0  0  0  0
   57.1444   31.8577   51.3765 H   0  0  0  0  0  0  0  0  0  0  0  0
   57.8950   29.7430   47.2100 H   0  0  0  0  0  0  0  0  0  0  0  0
   59.5949   28.1413   45.9537 H   0  0  0  0  0  0  0  0  0  0  0  0
   59.6159   27.3176   47.5602 H   0  0  0  0  0  0  0  0  0  0  0  0
   58.0390   25.2100   47.1510 H   0  0  0  0  0  0  0  0  0  0  0  0
   54.7780   27.0840   45.2760 H   0  0  0  0  0  0  0  0  0  0  0  0
   55.8900   29.7370   46.0030 H   0  0  0  0  0  0  0  0  0  0  0  0
  1  2  1  0
  2  3  1  0
  2  4  1  0
  2  5  1  0
  5  6  1  0
  6  7  2  0
  6  8  1  0
  8  9  1  0
  9 10  1  0
 10 11  1  0
 11 12  2  0
 12 13  1  0
 13 14  2  0
 14 15  1  0
 14 16  1  0
 16 17  2  0
  9 18  1  0
 18 19  2  0
 18 20  1  0
 20 21  1  0
 21 22  1  0
 22 23  1  0
 23 24  2  0
 24 25  1  0
 25 26  2  0
 26 27  1  0
 27 28  2  0
 21 29  1  0
 29 30  2  0
 29 31  1  0
 31 32  1  0
 32 33  1  0
 33 34  1  0
 34 35  1  0
 35 36  2  0
 35 37  1  0
 37 38  1  0
 38 39  1  0
 17 11  1  0
 28 23  1  0
 38 33  2  0
  1 40  1  0
  1 41  1  0
  1 42  1  0
  3 43  1  0
  3 44  1  0
  3 45  1  0
  4 46  1  0
  4 47  1  0
  4 48  1  0
  8 49  1  0
  9 50  1  1
 10 51  1  0
 10 52  1  0
 12 53  1  0
 13 54  1  0
 15 55  1  0
 16 56  1  0
 17 57  1  0
 20 58  1  0
 21 59  1  1
 22 60  1  0
 22 61  1  0
 24 62  1  0
 25 63  1  0
 26 64  1  0
 27 65  1  0
 28 66  1  0
 31 67  1  0
 32 68  1  0
 32 69  1  0
 34 70  1  0
 37 71  1  0
 39 72  1  0
M  END
>  <smiles>  (72) 
CC(C)(C)OC(=O)NC(Cc1ccc(O)cc1)C(=O)NC(Cc1ccccc1)C(=O)NCc1[nH]c(=O)[nH]c1O

>  <score_type>  (72) 
oracle

>  <origin>  (72) 
adg

>  <m_score__min__energy>  (72) 
-9.7300000000000004

>  <m_primary>  (72) 
energy

$$$$
72:0
     RDKit          3D

 61 64  0  0  1  0  0  0  0  0999 V2000
   50.0670   31.6440   54.5160 C   0  0  0  0  0  0  0  0  0  0  0  0
   50.5900   31.3130   52.8440 S   0  0  0  0  0  0  0  0  0  0  0  0
   50.4000   32.7710   51.9970 O   0  0  0  0  0  0  0  0  0  0  0  0
   52.3120   30.9640   52.8130 C   0  0  0  0  0  0  0  0  0  0  0  0
   53.0660   31.4540   51.7710 C   0  0  0  0  0  0  0  0  0  0  0  0
   54.4410   31.2040   51.7010 C   0  0  0  0  0  0  0  0  0  0  0  0
   55.0420   30.4570   52.6890 C   0  0  0  0  0  0  0  0  0  0  0  0
   56.4760   30.2200   52.5780 C   0  0  0  0  0  0  0  0  0  0  0  0
   57.1820   31.1470   52.1040 O   0  0  0  0  0  0  0  0  0  0  0  0
   57.0990   29.0060   52.9760 N   0  0  0  0  0  0  0  0  0  0  0  0
   58.5150   28.8400   52.8390 C   0  0  0  0  0  0  0  0  0  0  0  0
   59.2840   28.2130   53.7970 C   0  0  0  0  0  0  0  0  0  0  0  0
   60.6580   28.1100   53.5560 C   0  0  0  0  0  0  0  0  0  0  0  0
   61.2350   28.6060   52.4170 C   0  0  0  0  0  0  0  0  0  0  0  0
   62.6620   28.5200   52.1240 C   0  0  0  0  0  0  0  0  0  0  0  0
   63.2400   29.3010   51.3120 O   0  0  0  0  0  0  0  0  0  0  0  0
   63.4930   27.5410   52.7430 N   0  0  0  0  0  0  0  0  0  0  0  0
   64.8810   27.5690   52.3630 C   0  0  0  0  0  0  0  0  0  0  0  0
   65.4690   26.5400   51.6560 C   0  0  0  0  0  0  0  0  0  0  0  0
   66.8180   26.6740   51.3430 C   0  0  0  0  0  0  0  0  0  0  0  0
   67.5550   27.7810   51.7130 C   0  0  0  0  0  0  0  0  0  0  0  0
   66.9650   28.8100   52.4190 C   0  0  0  0  0  0  0  0  0  0  0  0
   67.7940   30.2400   52.9320 S   0  0  0  0  0  0  0  0  0  0  0  0
   69.2340   30.1320   52.5300 O   0  0  0  0  0  0  0  0  0  0  0  0
   67.6760   30.3980   54.4310 O   0  0  0  0  0  0  0  0  0  0  0  0
   67.1320   31.5970   52.1210 N   0  0  0  0  0  0  0  0  0  0  0  0
   66.8140   31.2150   50.7680 C   0  0  0  0  0  0  0  0  0  0  0  0
   66.1800   32.4270   50.1140 C   0  0  0  0  0  0  0  0  0  0  0  0
   64.9830   32.7940   50.6820 O   0  0  0  0  0  0  0  0  0  0  0  0
   64.7370   32.1520   51.8930 C   0  0  0  0  0  0  0  0  0  0  0  0
   65.9490   32.1010   52.7920 C   0  0  0  0  0  0  0  0  0  0  0  0
   65.6090   28.6780   52.7370 C   0  0  0  0  0  0  0  0  0  0  0  0
   60.4330   29.2300   51.4770 C   0  0  0  0  0  0  0  0  0  0  0  0
   59.0740   29.3510   51.6820 C   0  0  0  0  0  0  0  0  0  0  0  0
   54.2790   29.9700   53.7280 C   0  0  0  0  0  0  0  0  0  0  0  0
   52.9180   30.2060   53.8160 C   0  0  0  0  0  0  0  0  0  0  0  0
   50.7813   31.1919   55.2199 H   0  0  0  0  0  0  0  0  0  0  0  0
   50.0288   32.7311   54.6798 H   0  0  0  0  0  0  0  0  0  0  0  0
   49.0682   31.2132   54.6798 H   0  0  0  0  0  0  0  0  0  0  0  0
   52.5816   32.0497   50.9833 H   0  0  0  0  0  0  0  0  0  0  0  0
   55.0358   31.6004   50.8649 H   0  0  0  0  0  0  0  0  0  0  0  0
   56.5220   28.2320   53.3700 H   0  0  0  0  0  0  0  0  0  0  0  0
   58.8338   27.8092   54.7158 H   0  0  0  0  0  0  0  0  0  0  0  0
   61.2948   27.6154   54.3042 H   0  0  0  0  0  0  0  0  0  0  0  0
   63.1190   26.8610   53.4160 H   0  0  0  0  0  0  0  0  0  0  0  0
   64.8955   25.6516   51.3528 H   0  0  0  0  0  0  0  0  0  0  0  0
   67.3148   25.8695   50.7809 H   0  0  0  0  0  0  0  0  0  0  0  0
   68.6196   27.8435   51.4434 H   0  0  0  0  0  0  0  0  0  0  0  0
   67.7292   30.9282   50.2294 H   0  0  0  0  0  0  0  0  0  0  0  0
   66.1325   30.3517   50.7490 H   0  0  0  0  0  0  0  0  0  0  0  0
   66.8785   33.2727   50.1972 H   0  0  0  0  0  0  0  0  0  0  0  0
   65.9724   32.1583   49.0677 H   0  0  0  0  0  0  0  0  0  0  0  0
   63.9339   32.6901   52.4179 H   0  0  0  0  0  0  0  0  0  0  0  0
   64.4546   31.1140   51.6631 H   0  0  0  0  0  0  0  0  0  0  0  0
   66.1587   33.1178   53.1555 H   0  0  0  0  0  0  0  0  0  0  0  0
   65.7185   31.4095   53.6158 H   0  0  0  0  0  0  0  0  0  0  0  0
   65.1106   29.4806   53.3005 H   0  0  0  0  0  0  0  0  0  0  0  0
   60.8834   29.6332   50.5580 H   0  0  0  0  0  0  0  0  0  0  0  0
   58.4414   29.8490   50.9325 H   0  0  0  0  0  0  0  0  0  0  0  0
   54.7675   29.3742   54.5131 H   0  0  0  0  0  0  0  0  0  0  0  0
   52.3292   29.8064   54.6548 H   0  0  0  0  0  0  0  0  0  0  0  0
  1  2  1  0
  2  3  1  6
  2  4  1  0
  4  5  2  0
  5  6  1  0
  6  7  2  0
  7  8  1  0
  8  9  2  0
  8 10  1  0
 10 11  1  0
 11 12  2  0
 12 13  1  0
 13 14  2  0
 14 15  1  0
 15 16  2  0
 15 17  1  0
 17 18  1  0
 18 19  2  0
 19 20  1  0
 20 21  2  0
 21 22  1  0
 22 23  1  0
 23 24  2  0
 23 25  2  0
 23 26  1  0
 26 27  1  0
 27 28  1  0
 28 29  1  0
 29 30  1  0
 30 31  1  0
 22 32  2  0
 14 33  1  0
 33 34  2  0
  7 35  1  0
 35 36  2  0
 36  4  1  0
 34 11  1  0
 32 18  1  0
 31 26  1  0
  1 37  1  0
  1 38  1  0
  1 39  1  0
  5 40  1  0
  6 41  1  0
 10 42  1  0
 12 43  1  0
 13 44  1  0
 17 45  1  0
 19 46  1  0
 20 47  1  0
 21 48  1  0
 27 49  1  0
 27 50  1  0
 28 51  1  0
 28 52  1  0
 30 53  1  0
 30 54  1  0
 31 55  1  0
 31 56  1  0
 32 57  1  0
 33 58  1  0
 34 59  1  0
 35 60  1  0
 36 61  1  0
M  CHG  2   2   1   3  -1
M  END
>  <smiles>  (73) 
C[S+]([O-])c1ccc(C(=O)Nc2ccc(C(=O)Nc3cccc(S(=O)(=O)N4CCOCC4)c3)cc2)cc1

>  <score_type>  (73) 
oracle

>  <origin>  (73) 
adg

>  <m_score__min__energy>  (73) 
-8.1899999999999995

>  <m_primary>  (73) 
energy

$$$$
73:0
     RDKit          3D

 43 45  0  0  0  0  0  0  0  0999 V2000
   57.1580   31.1240   42.2370 O   0  0  0  0  0  0  0  0  0  0  0  0
   57.5120   31.3190   43.4070 C   0  0  0  0  0  0  0  0  0  0  0  0
   58.0700   32.5540   43.9630 C   0  0  0  0  0  0  0  0  0  0  0  0
   57.5650   32.9560   45.3000 C   0  0  0  0  0  0  0  0  0  0  0  0
   58.6560   33.4780   46.1510 C   0  0  0  0  0  0  0  0  0  0  0  0
   59.7910   34.0810   45.6830 C   0  0  0  0  0  0  0  0  0  0  0  0
   60.7750   34.5430   46.5510 C   0  0  0  0  0  0  0  0  0  0  0  0
   60.6180   34.3970   47.9040 C   0  0  0  0  0  0  0  0  0  0  0  0
   59.4980   33.7990   48.4040 C   0  0  0  0  0  0  0  0  0  0  0  0
   58.5280   33.3450   47.5220 C   0  0  0  0  0  0  0  0  0  0  0  0
   57.3910   32.7380   48.0490 O   0  0  0  0  0  0  0  0  0  0  0  0
   57.3540   30.1810   44.3400 C   0  0  0  0  0  0  0  0  0  0  0  0
   56.1930   29.4480   44.2110 C   0  0  0  0  0  0  0  0  0  0  0  0
   55.2440   29.7840   43.2490 O   0  0  0  0  0  0  0  0  0  0  0  0
   56.0270   28.4020   45.0530 N   0  0  0  0  0  0  0  0  0  0  0  0
   56.9760   28.1180   45.9680 C   0  0  0  0  0  0  0  0  0  0  0  0
   56.7310   27.1180   46.7160 O   0  0  0  0  0  0  0  0  0  0  0  0
   58.1030   28.8440   46.0800 N   0  0  0  0  0  0  0  0  0  0  0  0
   59.0410   28.4600   47.0770 C   0  0  0  0  0  0  0  0  0  0  0  0
   59.6110   27.1910   46.9560 C   0  0  0  0  0  0  0  0  0  0  0  0
   60.5400   26.7710   47.9120 C   0  0  0  0  0  0  0  0  0  0  0  0
   60.8800   27.6110   48.9610 C   0  0  0  0  0  0  0  0  0  0  0  0
   60.2990   28.8780   49.0670 C   0  0  0  0  0  0  0  0  0  0  0  0
   59.3710   29.3100   48.1170 C   0  0  0  0  0  0  0  0  0  0  0  0
   58.7850   30.5710   48.2120 O   0  0  0  0  0  0  0  0  0  0  0  0
   58.3310   29.8990   45.2710 C   0  0  0  0  0  0  0  0  0  0  0  0
   59.3790   30.5860   45.3650 O   0  0  0  0  0  0  0  0  0  0  0  0
   59.1597   32.4253   44.0403 H   0  0  0  0  0  0  0  0  0  0  0  0
   57.7570   33.3544   43.2765 H   0  0  0  0  0  0  0  0  0  0  0  0
   56.8024   33.7388   45.1746 H   0  0  0  0  0  0  0  0  0  0  0  0
   57.1356   32.0698   45.7902 H   0  0  0  0  0  0  0  0  0  0  0  0
   59.9284   34.2031   44.5985 H   0  0  0  0  0  0  0  0  0  0  0  0
   61.6790   35.0255   46.1510 H   0  0  0  0  0  0  0  0  0  0  0  0
   61.3969   34.7628   48.5892 H   0  0  0  0  0  0  0  0  0  0  0  0
   59.3662   33.6788   49.4894 H   0  0  0  0  0  0  0  0  0  0  0  0
   57.4110   32.1240   48.8520 H   0  0  0  0  0  0  0  0  0  0  0  0
   55.4240   29.8240   42.2570 H   0  0  0  0  0  0  0  0  0  0  0  0
   55.1440   27.8500   44.9500 H   0  0  0  0  0  0  0  0  0  0  0  0
   59.3329   26.5316   46.1206 H   0  0  0  0  0  0  0  0  0  0  0  0
   61.0007   25.7753   47.8321 H   0  0  0  0  0  0  0  0  0  0  0  0
   61.6104   27.2790   49.7135 H   0  0  0  0  0  0  0  0  0  0  0  0
   60.5741   29.5380   49.9029 H   0  0  0  0  0  0  0  0  0  0  0  0
   58.6600   31.1100   47.3570 H   0  0  0  0  0  0  0  0  0  0  0  0
  1  2  2  0
  2  3  1  0
  3  4  1  0
  4  5  1  0
  5  6  2  0
  6  7  1  0
  7  8  2  0
  8  9  1  0
  9 10  2  0
 10 11  1  0
  2 12  1  0
 12 13  2  0
 13 14  1  0
 13 15  1  0
 15 16  1  0
 16 17  2  0
 16 18  1  0
 18 19  1  0
 19 20  2  0
 20 21  1  0
 21 22  2  0
 22 23  1  0
 23 24  2  0
 24 25  1  0
 18 26  1  0
 26 27  2  0
 10  5  1  0
 26 12  1  0
 24 19  1  0
  3 28  1  0
  3 29  1  0
  4 30  1  0
  4 31  1  0
  6 32  1  0
  7 33  1  0
  8 34  1  0
  9 35  1  0
 11 36  1  0
 14 37  1  0
 15 38  1  0
 20 39  1  0
 21 40  1  0
 22 41  1  0
 23 42  1  0
 25 43  1  0
M  END
>  <smiles>  (74) 
O=C(CCc1ccccc1O)c1c(O)[nH]c(=O)n(-c2ccccc2O)c1=O

>  <score_type>  (74) 
oracle

>  <origin>  (74) 
adg

>  <m_score__min__energy>  (74) 
-8.75

>  <m_primary>  (74) 
energy

$$$$
74:0
     RDKit          3D

 33 35  0  0  1  0  0  0  0  0999 V2000
   63.3430   33.8550   48.2160 C   0  0  0  0  0  0  0  0  0  0  0  0
   62.0720   33.5890   47.9390 C   0  0  0  0  0  0  0  0  0  0  0  0
   60.9390   34.3000   48.3200 C   0  0  0  0  0  0  0  0  0  0  0  0
   59.8470   33.6430   47.7980 C   0  0  0  0  0  0  0  0  0  0  0  0
   60.3360   32.5440   47.1100 C   0  0  0  0  0  0  0  0  0  0  0  0
   59.6100   31.6360   46.4510 C   0  0  0  0  0  0  0  0  0  0  0  0
   58.3290   31.7830   46.0190 N   0  0  0  0  0  0  0  0  0  0  0  0
   57.9270   30.6620   45.3960 C   0  0  0  0  0  0  0  0  0  0  0  0
   56.8300   30.3810   44.8560 O   0  0  0  0  0  0  0  0  0  0  0  0
   58.9980   29.7950   45.4460 C   0  0  0  0  0  0  0  0  0  0  0  0
   59.0410   28.5680   44.9510 C   0  0  0  0  0  0  0  0  0  0  0  0
   58.2460   27.4650   45.4220 C   0  0  0  0  0  0  0  0  0  0  0  0
   58.9310   26.3320   45.8710 C   0  0  0  0  0  0  0  0  0  0  0  0
   58.2370   25.2350   46.3390 C   0  0  0  0  0  0  0  0  0  0  0  0
   56.8580   25.2250   46.3740 C   0  0  0  0  0  0  0  0  0  0  0  0
   56.1720   26.3410   45.9320 C   0  0  0  0  0  0  0  0  0  0  0  0
   54.7710   26.3240   45.9710 O   0  0  0  0  0  0  0  0  0  0  0  0
   56.8600   27.4610   45.4550 C   0  0  0  0  0  0  0  0  0  0  0  0
   60.0280   30.4060   46.0980 N   0  0  0  0  0  0  0  0  0  0  0  0
   61.6800   32.5250   47.2040 N   0  0  0  0  0  0  0  0  0  0  0  0
   64.1378   33.1934   47.8409 H   0  0  0  0  0  0  0  0  0  0  0  0
   63.6012   34.7369   48.8206 H   0  0  0  0  0  0  0  0  0  0  0  0
   60.9189   35.2176   48.9263 H   0  0  0  0  0  0  0  0  0  0  0  0
   58.7917   33.9340   47.9062 H   0  0  0  0  0  0  0  0  0  0  0  0
   57.7120   32.6140   46.1280 H   0  0  0  0  0  0  0  0  0  0  0  0
   59.7350   28.3778   44.1190 H   0  0  0  0  0  0  0  0  0  0  0  0
   60.0307   26.3149   45.8511 H   0  0  0  0  0  0  0  0  0  0  0  0
   58.7930   24.3532   46.6902 H   0  0  0  0  0  0  0  0  0  0  0  0
   56.3139   24.3448   46.7469 H   0  0  0  0  0  0  0  0  0  0  0  0
   54.2800   26.7320   46.7560 H   0  0  0  0  0  0  0  0  0  0  0  0
   56.3002   28.3409   45.1051 H   0  0  0  0  0  0  0  0  0  0  0  0
   60.9740   30.0400   46.3110 H   0  0  0  0  0  0  0  0  0  0  0  0
   62.2940   31.7820   46.7610 H   0  0  0  0  0  0  0  0  0  0  0  0
  1  2  2  0
  2  3  1  0
  3  4  2  0
  4  5  1  0
  5  6  2  0
  6  7  1  0
  7  8  1  0
  8  9  2  0
  8 10  1  0
 10 11  2  0
 11 12  1  0
 12 13  2  0
 13 14  1  0
 14 15  2  0
 15 16  1  0
 16 17  1  0
 16 18  2  0
 10 19  1  0
  5 20  1  0
 20  2  1  0
 19  6  1  0
 18 12  1  0
  1 21  1  0
  1 22  1  0
  3 23  1  0
  4 24  1  0
  7 25  1  0
 11 26  1  0
 13 27  1  0
 14 28  1  0
 15 29  1  0
 17 30  1  0
 18 31  1  0
 19 32  1  0
 20 33  1  0
M  END
>  <smiles>  (75) 
C=c1ccc(=c2[nH]c(=O)c(=Cc3cccc(O)c3)[nH]2)[nH]1

>  <score_type>  (75) 
oracle

>  <origin>  (75) 
adg

>  <m_score__min__energy>  (75) 
-7.9299999999999997

>  <m_primary>  (75) 
energy

$$$$
75:0
     RDKit          3D

 48 51  0  0  1  0  0  0  0  0999 V2000
   56.9760   33.4140   45.5720 C   0  0  0  0  0  0  0  0  0  0  0  0
   57.9360   34.2900   45.8410 C   0  0  0  0  0  0  0  0  0  0  0  0
   59.1880   34.3390   45.0050 C   0  0  0  0  0  0  0  0  0  0  0  0
   57.2760   24.6890   46.1130 N   0  0  0  0  0  0  0  0  0  0  0  0
   57.1340   23.8920   45.0770 C   0  0  0  0  0  0  0  0  0  0  0  0
   56.3300   24.2470   44.0520 N   0  0  0  0  0  0  0  0  0  0  0  0
   56.1060   23.4090   42.9990 C   0  0  0  0  0  0  0  0  0  0  0  0
   59.0020   29.5690   46.7810 C   0  0  0  0  0  0  0  0  0  0  0  0
   58.0730   29.5100   45.7670 C   0  0  0  0  0  0  0  0  0  0  0  0
   57.2980   28.3580   45.5620 C   0  0  0  0  0  0  0  0  0  0  0  0
   57.4300   27.2430   46.3570 C   0  0  0  0  0  0  0  0  0  0  0  0
   56.7660   25.9790   46.1580 C   0  0  0  0  0  0  0  0  0  0  0  0
   55.4820   26.0850   45.9940 O   0  0  0  0  0  0  0  0  0  0  0  0
   60.3510   33.9830   45.7360 N   0  0  0  0  0  0  0  0  0  0  0  0
   60.5820   32.8990   46.3670 C   0  0  0  0  0  0  0  0  0  0  0  0
   57.7420   22.6480   45.0480 C   0  0  0  0  0  0  0  0  0  0  0  0
   57.5210   21.7910   43.9820 C   0  0  0  0  0  0  0  0  0  0  0  0
   56.6960   22.1750   42.9500 C   0  0  0  0  0  0  0  0  0  0  0  0
   59.8980   30.7350   46.9370 C   0  0  0  0  0  0  0  0  0  0  0  0
   59.6970   31.8790   46.2880 N   0  0  0  0  0  0  0  0  0  0  0  0
   58.3620   27.3120   47.3780 C   0  0  0  0  0  0  0  0  0  0  0  0
   59.1350   28.4610   47.5840 C   0  0  0  0  0  0  0  0  0  0  0  0
   61.0460   30.6280   47.7040 C   0  0  0  0  0  0  0  0  0  0  0  0
   61.9730   31.6670   47.7990 C   0  0  0  0  0  0  0  0  0  0  0  0
   63.1020   31.4980   48.5530 N   0  0  0  0  0  0  0  0  0  0  0  0
   64.0240   32.4760   48.6450 C   0  0  0  0  0  0  0  0  0  0  0  0
   63.7780   33.6350   47.9540 C   0  0  0  0  0  0  0  0  0  0  0  0
   62.6630   33.8580   47.1840 C   0  0  0  0  0  0  0  0  0  0  0  0
   61.7380   32.8320   47.1140 C   0  0  0  0  0  0  0  0  0  0  0  0
   56.0663   33.3880   46.1898 H   0  0  0  0  0  0  0  0  0  0  0  0
   57.0900   32.7140   44.7312 H   0  0  0  0  0  0  0  0  0  0  0  0
   57.8161   34.9875   46.6831 H   0  0  0  0  0  0  0  0  0  0  0  0
   59.0754   33.6414   44.1620 H   0  0  0  0  0  0  0  0  0  0  0  0
   59.3169   35.3761   44.6616 H   0  0  0  0  0  0  0  0  0  0  0  0
   55.8580   25.1800   44.0490 H   0  0  0  0  0  0  0  0  0  0  0  0
   57.9359   30.3793   45.1071 H   0  0  0  0  0  0  0  0  0  0  0  0
   56.5643   28.3463   44.7425 H   0  0  0  0  0  0  0  0  0  0  0  0
   58.4015   22.3398   45.8727 H   0  0  0  0  0  0  0  0  0  0  0  0
   58.0052   20.8035   43.9607 H   0  0  0  0  0  0  0  0  0  0  0  0
   56.5136   21.5014   42.0997 H   0  0  0  0  0  0  0  0  0  0  0  0
   55.4441   23.7285   42.1806 H   0  0  0  0  0  0  0  0  0  0  0  0
   58.8740   32.0190   45.7090 H   0  0  0  0  0  0  0  0  0  0  0  0
   58.4983   26.4455   48.0418 H   0  0  0  0  0  0  0  0  0  0  0  0
   59.8650   28.4776   48.4067 H   0  0  0  0  0  0  0  0  0  0  0  0
   61.2331   29.6949   48.2556 H   0  0  0  0  0  0  0  0  0  0  0  0
   64.9351   32.3504   49.2485 H   0  0  0  0  0  0  0  0  0  0  0  0
   64.5243   34.4403   48.0211 H   0  0  0  0  0  0  0  0  0  0  0  0
   62.5127   34.8071   46.6486 H   0  0  0  0  0  0  0  0  0  0  0  0
  1  2  2  0
  2  3  1  0
  3  4  1  0
  4  5  2  0
  5  6  1  0
  6  7  1  0
  7  8  1  0
  8  9  2  0
  9 10  1  0
 10 11  2  0
 11 12  1  0
 12 13  2  0
 12 14  1  0
 14 15  2  0
 15 16  1  0
 16 17  2  0
 17 18  1  0
 18 19  2  0
 19 20  1  0
 11 21  1  0
 21 22  2  0
  7 23  2  0
 23 24  1  0
 24 25  2  0
 25 26  1  0
 26 27  2  0
 27 28  1  0
 28 29  2  0
 29  5  1  0
 22  8  1  0
 29 24  1  0
 20 15  1  0
  1 30  1  0
  1 31  1  0
  2 32  1  0
  3 33  1  0
  3 34  1  0
  6 35  1  0
  9 36  1  0
 10 37  1  0
 16 38  1  0
 17 39  1  0
 18 40  1  0
 19 41  1  0
 20 42  1  0
 21 43  1  0
 22 44  1  0
 23 45  1  0
 26 46  1  0
 27 47  1  0
 28 48  1  0
M  END
>  <smiles>  (76) 
C=CCN=c1[nH]c(-c2ccc(C(=O)N=c3cccc[nH]3)cc2)cc2ncccc12

>  <score_type>  (76) 
oracle

>  <origin>  (76) 
adg

>  <m_score__min__energy>  (76) 
-8.5899999999999999

>  <m_primary>  (76) 
energy

$$$$
76:0
     RDKit          3D

 50 52  0  0  1  0  0  0  0  0999 V2000
   59.5440   26.4650   46.7810 C   0  0  0  0  0  0  0  0  0  0  0  0
   58.9720   25.3360   46.0320 C   0  0  0  0  0  0  0  0  0  0  0  0
   59.6920   24.1980   45.9670 N   0  0  0  0  0  0  0  0  0  0  0  0
   59.2350   23.1170   45.2980 C   0  0  0  0  0  0  0  0  0  0  0  0
   59.9450   22.0360   45.2500 N   0  0  0  0  0  0  0  0  0  0  0  0
   57.9980   23.1790   44.6660 C   0  0  0  0  0  0  0  0  0  0  0  0
   57.2750   24.3480   44.7420 C   0  0  0  0  0  0  0  0  0  0  0  0
   57.7430   25.4700   45.4330 C   0  0  0  0  0  0  0  0  0  0  0  0
   56.9670   26.6990   45.5050 C   0  0  0  0  0  0  0  0  0  0  0  0
   57.7020   27.9110   45.1970 N   0  0  0  0  0  0  0  0  0  0  0  0
   57.0740   29.1830   45.0520 C   0  0  0  0  0  0  0  0  0  0  0  0
   55.8060   29.1820   45.2140 O   0  0  0  0  0  0  0  0  0  0  0  0
   57.8100   30.4270   44.7390 C   0  0  1  0  0  0  0  0  0  0  0  0
   57.3160   30.9820   43.3970 C   0  0  0  0  0  0  0  0  0  0  0  0
   58.1370   32.2030   43.1060 C   0  0  0  0  0  0  0  0  0  0  0  0
   58.1120   33.1450   44.0740 C   0  0  0  0  0  0  0  0  0  0  0  0
   57.2660   32.7970   45.2650 C   0  0  0  0  0  0  0  0  0  0  0  0
   57.7860   31.4610   45.8100 C   0  0  2  0  0  0  0  0  0  0  0  0
   59.1730   31.7820   46.3060 C   0  0  0  0  0  0  0  0  0  0  0  0
   60.1180   30.7780   46.4910 C   0  0  0  0  0  0  0  0  0  0  0  0
   61.3890   31.1350   46.9530 C   0  0  0  0  0  0  0  0  0  0  0  0
   61.6760   32.4670   47.2140 C   0  0  0  0  0  0  0  0  0  0  0  0
   62.9790   32.9060   47.6970 C   0  0  0  0  0  0  0  0  0  0  0  0
   64.0740   32.9510   46.7900 N   0  0  0  0  0  0  0  0  0  0  0  0
   63.1750   33.2510   48.9070 O   0  0  0  0  0  0  0  0  0  0  0  0
   60.7040   33.4510   47.0180 C   0  0  0  0  0  0  0  0  0  0  0  0
   59.4870   33.0790   46.5710 N   0  0  0  0  0  0  0  0  0  0  0  0
   59.4479   26.2753   47.8603 H   0  0  0  0  0  0  0  0  0  0  0  0
   60.6072   26.5762   46.5215 H   0  0  0  0  0  0  0  0  0  0  0  0
   59.0048   27.3880   46.5215 H   0  0  0  0  0  0  0  0  0  0  0  0
   60.6230   24.1260   46.4330 H   0  0  0  0  0  0  0  0  0  0  0  0
   59.4420   21.1060   45.2240 H   0  0  0  0  0  0  0  0  0  0  0  0
   57.6049   22.3111   44.1162 H   0  0  0  0  0  0  0  0  0  0  0  0
   56.2964   24.4013   44.2425 H   0  0  0  0  0  0  0  0  0  0  0  0
   56.1322   26.6168   44.7934 H   0  0  0  0  0  0  0  0  0  0  0  0
   56.6432   26.7954   46.5518 H   0  0  0  0  0  0  0  0  0  0  0  0
   58.7570   27.9160   45.0610 H   0  0  0  0  0  0  0  0  0  0  0  0
   58.8730   30.1534   44.6676 H   0  0  0  0  0  0  0  0  0  0  0  0
   57.4554   30.2336   42.6030 H   0  0  0  0  0  0  0  0  0  0  0  0
   56.2446   31.2274   43.4410 H   0  0  0  0  0  0  0  0  0  0  0  0
   58.7142   32.3221   42.1772 H   0  0  0  0  0  0  0  0  0  0  0  0
   58.6671   34.0915   43.9960 H   0  0  0  0  0  0  0  0  0  0  0  0
   57.3557   33.5790   46.0334 H   0  0  0  0  0  0  0  0  0  0  0  0
   56.2053   32.7199   44.9838 H   0  0  0  0  0  0  0  0  0  0  0  0
   57.1493   31.0457   46.6051 H   0  0  0  0  0  0  0  0  0  0  0  0
   59.8713   29.7272   46.2788 H   0  0  0  0  0  0  0  0  0  0  0  0
   62.1573   30.3634   47.1086 H   0  0  0  0  0  0  0  0  0  0  0  0
   64.6860   32.0920   46.7550 H   0  0  0  0  0  0  0  0  0  0  0  0
   64.2860   33.7710   46.1800 H   0  0  0  0  0  0  0  0  0  0  0  0
   60.9267   34.5083   47.2241 H   0  0  0  0  0  0  0  0  0  0  0  0
  1  2  1  0
  2  3  1  0
  3  4  1  0
  4  5  2  3
  4  6  1  0
  6  7  2  0
  7  8  1  0
  8  9  1  0
  9 10  1  0
 10 11  1  0
 11 12  2  0
 11 13  1  0
 13 14  1  0
 14 15  1  0
 15 16  2  0
 16 17  1  0
 17 18  1  0
 18 19  1  0
 19 20  2  0
 20 21  1  0
 21 22  2  0
 22 23  1  0
 23 24  1  0
 23 25  2  0
 22 26  1  0
 26 27  2  0
  8  2  2  0
 18 13  1  0
 27 19  1  0
  1 28  1  0
  1 29  1  0
  1 30  1  0
  3 31  1  0
  5 32  1  0
  6 33  1  0
  7 34  1  0
  9 35  1  0
  9 36  1  0
 10 37  1  0
 13 38  1  6
 14 39  1  0
 14 40  1  0
 15 41  1  0
 16 42  1  0
 17 43  1  0
 17 44  1  0
 18 45  1  1
 20 46  1  0
 21 47  1  0
 24 48  1  0
 24 49  1  0
 26 50  1  0
M  END
>  <smiles>  (77) 
Cc1[nH]c(=N)ccc1CNC(=O)C1CC=CCC1c1ccc(C(N)=O)cn1

>  <score_type>  (77) 
oracle

>  <origin>  (77) 
adg

>  <m_score__min__energy>  (77) 
-9.3200000000000003

>  <m_primary>  (77) 
energy

$$$$
77:0
     RDKit          3D

 54 56  0  0  1  0  0  0  0  0999 V2000
   57.4030   21.4390   42.9940 C   0  0  0  0  0  0  0  0  0  0  0  0
   56.4770   22.3580   43.7590 C   0  0  0  0  0  0  0  0  0  0  0  0
   56.6510   23.7130   43.2210 N   0  0  0  0  0  0  0  0  0  0  0  0
   57.2710   24.6820   44.0730 C   0  0  0  0  0  0  0  0  0  0  0  0
   57.6440   24.3850   45.2220 O   0  0  0  0  0  0  0  0  0  0  0  0
   57.4280   25.9880   43.5290 N   0  0  0  0  0  0  0  0  0  0  0  0
   58.0210   27.0640   44.2390 C   0  0  0  0  0  0  0  0  0  0  0  0
   58.9210   26.8880   45.2730 C   0  0  0  0  0  0  0  0  0  0  0  0
   59.4590   28.0030   45.9210 C   0  0  0  0  0  0  0  0  0  0  0  0
   59.1050   29.2800   45.5440 C   0  0  0  0  0  0  0  0  0  0  0  0
   59.6330   30.4810   46.1820 C   0  0  0  0  0  0  0  0  0  0  0  0
   59.0600   31.6090   46.0480 O   0  0  0  0  0  0  0  0  0  0  0  0
   60.8040   30.4540   46.9820 N   0  0  0  0  0  0  0  0  0  0  0  0
   61.2620   31.6710   47.5760 C   0  0  1  0  0  0  0  0  0  0  0  0
   60.5730   31.9950   48.8620 C   0  0  0  0  0  0  0  0  0  0  0  0
   59.4660   31.3020   49.3060 C   0  0  0  0  0  0  0  0  0  0  0  0
   58.8940   31.6840   50.5230 C   0  0  0  0  0  0  0  0  0  0  0  0
   57.7330   30.9900   51.0310 C   0  0  0  0  0  0  0  0  0  0  0  0
   56.7890   30.4230   51.4460 N   0  0  0  0  0  0  0  0  0  0  0  0
   59.4390   32.7330   51.2500 C   0  0  0  0  0  0  0  0  0  0  0  0
   60.5590   33.4300   50.7970 C   0  0  0  0  0  0  0  0  0  0  0  0
   61.1270   33.0500   49.5870 C   0  0  0  0  0  0  0  0  0  0  0  0
   62.2560   33.7340   49.1070 O   0  0  0  0  0  0  0  0  0  0  0  0
   63.1250   33.1270   48.1670 C   0  0  0  0  0  0  0  0  0  0  0  0
   64.5240   33.2000   48.7380 C   0  0  0  0  0  0  0  0  0  0  0  0
   63.0200   33.8380   46.8380 C   0  0  0  0  0  0  0  0  0  0  0  0
   62.7410   31.6730   47.8960 C   0  0  2  0  0  0  0  0  0  0  0  0
   63.4530   31.2760   46.7610 O   0  0  0  0  0  0  0  0  0  0  0  0
   58.2060   29.4270   44.5090 C   0  0  0  0  0  0  0  0  0  0  0  0
   57.6590   28.3420   43.8530 C   0  0  0  0  0  0  0  0  0  0  0  0
   57.9998   20.8467   43.7032 H   0  0  0  0  0  0  0  0  0  0  0  0
   56.8087   20.7635   42.3612 H   0  0  0  0  0  0  0  0  0  0  0  0
   58.0740   22.0384   42.3612 H   0  0  0  0  0  0  0  0  0  0  0  0
   55.4342   22.0335   43.6278 H   0  0  0  0  0  0  0  0  0  0  0  0
   56.7124   22.3361   44.8333 H   0  0  0  0  0  0  0  0  0  0  0  0
   56.3330   23.9600   42.2490 H   0  0  0  0  0  0  0  0  0  0  0  0
   57.1010   26.2100   42.5500 H   0  0  0  0  0  0  0  0  0  0  0  0
   59.2127   25.8742   45.5846 H   0  0  0  0  0  0  0  0  0  0  0  0
   60.1751   27.8592   46.7435 H   0  0  0  0  0  0  0  0  0  0  0  0
   61.3300   29.5850   47.1440 H   0  0  0  0  0  0  0  0  0  0  0  0
   61.0309   32.4176   46.8019 H   0  0  0  0  0  0  0  0  0  0  0  0
   59.0452   30.4723   48.7190 H   0  0  0  0  0  0  0  0  0  0  0  0
   58.9770   33.0215   52.2057 H   0  0  0  0  0  0  0  0  0  0  0  0
   60.9820   34.2595   51.3827 H   0  0  0  0  0  0  0  0  0  0  0  0
   64.4722   33.1973   49.8368 H   0  0  0  0  0  0  0  0  0  0  0  0
   65.1053   32.3310   48.3962 H   0  0  0  0  0  0  0  0  0  0  0  0
   65.0117   34.1248   48.3962 H   0  0  0  0  0  0  0  0  0  0  0  0
   62.8612   34.9130   47.0088 H   0  0  0  0  0  0  0  0  0  0  0  0
   63.9497   33.6905   46.2688 H   0  0  0  0  0  0  0  0  0  0  0  0
   62.1726   33.4281   46.2688 H   0  0  0  0  0  0  0  0  0  0  0  0
   62.9579   31.0060   48.7434 H   0  0  0  0  0  0  0  0  0  0  0  0
   64.3900   31.5540   46.8230 H   0  0  0  0  0  0  0  0  0  0  0  0
   57.9153   30.4407   44.1959 H   0  0  0  0  0  0  0  0  0  0  0  0
   56.9427   28.4925   43.0319 H   0  0  0  0  0  0  0  0  0  0  0  0
  1  2  1  0
  2  3  1  0
  3  4  1  0
  4  5  2  0
  4  6  1  0
  6  7  1  0
  7  8  2  0
  8  9  1  0
  9 10  2  0
 10 11  1  0
 11 12  2  0
 11 13  1  0
 13 14  1  0
 14 15  1  0
 15 16  2  0
 16 17  1  0
 17 18  1  0
 18 19  3  0
 17 20  2  0
 20 21  1  0
 21 22  2  0
 22 23  1  0
 23 24  1  0
 24 25  1  0
 24 26  1  0
 24 27  1  0
 27 28  1  0
 10 29  1  0
 29 30  2  0
 30  7  1  0
 27 14  1  0
 22 15  1  0
  1 31  1  0
  1 32  1  0
  1 33  1  0
  2 34  1  0
  2 35  1  0
  3 36  1  0
  6 37  1  0
  8 38  1  0
  9 39  1  0
 13 40  1  0
 14 41  1  6
 16 42  1  0
 20 43  1  0
 21 44  1  0
 25 45  1  0
 25 46  1  0
 25 47  1  0
 26 48  1  0
 26 49  1  0
 26 50  1  0
 27 51  1  1
 28 52  1  0
 29 53  1  0
 30 54  1  0
M  END
>  <smiles>  (78) 
CCNC(=O)Nc1ccc(C(=O)NC2c3cc(C#N)ccc3OC(C)(C)C2O)cc1

>  <score_type>  (78) 
oracle

>  <origin>  (78) 
adg

>  <m_score__min__energy>  (78) 
-8.3499999999999996

>  <m_primary>  (78) 
energy

$$$$
78:0
     RDKit          3D

 48 50  0  0  0  0  0  0  0  0999 V2000
   61.4200   30.4750   47.5350 C   0  0  0  0  0  0  0  0  0  0  0  0
   60.1670   30.8520   46.8760 N   0  0  0  0  0  0  0  0  0  0  0  0
   59.9870   32.2290   46.6240 C   0  0  0  0  0  0  0  0  0  0  0  0
   60.9790   32.9610   47.0070 O   0  0  0  0  0  0  0  0  0  0  0  0
   58.8420   32.8500   46.0090 C   0  0  0  0  0  0  0  0  0  0  0  0
   57.9190   32.4490   45.0980 C   0  0  0  0  0  0  0  0  0  0  0  0
   57.8230   31.1770   44.3990 C   0  0  0  0  0  0  0  0  0  0  0  0
   57.3580   30.1010   45.3580 C   0  0  0  0  0  0  0  0  0  0  0  0
   58.2350   28.9990   45.4220 N   0  0  0  0  0  0  0  0  0  0  0  0
   58.6430   28.5520   44.1450 C   0  0  0  0  0  0  0  0  0  0  0  0
   58.5330   27.0770   43.9740 C   0  0  0  0  0  0  0  0  0  0  0  0
   57.8100   26.2830   44.7380 C   0  0  0  0  0  0  0  0  0  0  0  0
   57.7230   24.8270   44.5420 C   0  0  0  0  0  0  0  0  0  0  0  0
   58.5590   23.9360   45.1810 C   0  0  0  0  0  0  0  0  0  0  0  0
   58.4790   22.5690   44.9880 C   0  0  0  0  0  0  0  0  0  0  0  0
   59.3140   21.6600   45.6250 O   0  0  0  0  0  0  0  0  0  0  0  0
   57.5320   22.0450   44.1270 C   0  0  0  0  0  0  0  0  0  0  0  0
   56.6840   22.9040   43.4740 C   0  0  0  0  0  0  0  0  0  0  0  0
   55.7320   22.4000   42.6100 O   0  0  0  0  0  0  0  0  0  0  0  0
   56.7860   24.2840   43.6870 C   0  0  0  0  0  0  0  0  0  0  0  0
   57.0610   26.8990   45.8600 C   0  0  0  0  0  0  0  0  0  0  0  0
   58.0190   27.9950   46.3840 C   0  0  0  0  0  0  0  0  0  0  0  0
   57.0230   33.5120   44.8990 C   0  0  0  0  0  0  0  0  0  0  0  0
   57.3990   34.4990   45.6550 O   0  0  0  0  0  0  0  0  0  0  0  0
   58.4650   34.1700   46.3320 C   0  0  0  0  0  0  0  0  0  0  0  0
   59.0840   35.0340   47.2230 O   0  0  0  0  0  0  0  0  0  0  0  0
   61.2869   30.5151   48.6262 H   0  0  0  0  0  0  0  0  0  0  0  0
   61.6982   29.4534   47.2368 H   0  0  0  0  0  0  0  0  0  0  0  0
   62.2157   31.1735   47.2368 H   0  0  0  0  0  0  0  0  0  0  0  0
   59.4820   30.1610   46.6160 H   0  0  0  0  0  0  0  0  0  0  0  0
   57.1020   31.2672   43.5732 H   0  0  0  0  0  0  0  0  0  0  0  0
   58.8111   30.9059   43.9989 H   0  0  0  0  0  0  0  0  0  0  0  0
   57.2744   30.5404   46.3630 H   0  0  0  0  0  0  0  0  0  0  0  0
   56.3910   29.7289   44.9887 H   0  0  0  0  0  0  0  0  0  0  0  0
   58.0125   29.0393   43.3867 H   0  0  0  0  0  0  0  0  0  0  0  0
   59.7052   28.8146   44.0321 H   0  0  0  0  0  0  0  0  0  0  0  0
   59.0966   26.6162   43.1494 H   0  0  0  0  0  0  0  0  0  0  0  0
   59.3199   24.3282   45.8718 H   0  0  0  0  0  0  0  0  0  0  0  0
   59.4250   20.7210   45.2210 H   0  0  0  0  0  0  0  0  0  0  0  0
   57.4598   20.9589   43.9684 H   0  0  0  0  0  0  0  0  0  0  0  0
   55.7960   22.5190   41.5930 H   0  0  0  0  0  0  0  0  0  0  0  0
   56.0970   24.9570   43.1556 H   0  0  0  0  0  0  0  0  0  0  0  0
   56.1172   27.3396   45.5063 H   0  0  0  0  0  0  0  0  0  0  0  0
   56.7816   26.1711   46.6360 H   0  0  0  0  0  0  0  0  0  0  0  0
   57.5808   28.4514   47.2838 H   0  0  0  0  0  0  0  0  0  0  0  0
   58.9867   27.5246   46.6128 H   0  0  0  0  0  0  0  0  0  0  0  0
   56.1558   33.5092   44.2223 H   0  0  0  0  0  0  0  0  0  0  0  0
   59.9300   34.6650   47.6760 H   0  0  0  0  0  0  0  0  0  0  0  0
  1  2  1  0
  2  3  1  0
  3  4  2  0
  3  5  1  0
  5  6  1  0
  6  7  1  0
  7  8  1  0
  8  9  1  0
  9 10  1  0
 10 11  1  0
 11 12  2  0
 12 13  1  0
 13 14  2  0
 14 15  1  0
 15 16  1  0
 15 17  2  0
 17 18  1  0
 18 19  1  0
 18 20  2  0
 12 21  1  0
 21 22  1  0
  6 23  2  0
 23 24  1  0
 24 25  1  0
 25 26  1  0
 25  5  2  0
 22  9  1  0
 20 13  1  0
  1 27  1  0
  1 28  1  0
  1 29  1  0
  2 30  1  0
  7 31  1  0
  7 32  1  0
  8 33  1  0
  8 34  1  0
 10 35  1  0
 10 36  1  0
 11 37  1  0
 14 38  1  0
 16 39  1  0
 17 40  1  0
 19 41  1  0
 20 42  1  0
 21 43  1  0
 21 44  1  0
 22 45  1  0
 22 46  1  0
 23 47  1  0
 26 48  1  0
M  END
>  <smiles>  (79) 
CNC(=O)c1c(CCN2CC=C(c3cc(O)cc(O)c3)CC2)coc1O

>  <score_type>  (79) 
oracle

>  <origin>  (79) 
adg

>  <m_score__min__energy>  (79) 
-8.2599999999999998

>  <m_primary>  (79) 
energy

$$$$
79:0
     RDKit          3D

 67 70  0  0  0  0  0  0  0  0999 V2000
   55.7760   29.5630   52.4010 C   0  0  0  0  0  0  0  0  0  0  0  0
   56.7060   30.1860   51.5510 O   0  0  0  0  0  0  0  0  0  0  0  0
   58.0330   29.8350   51.6010 C   0  0  0  0  0  0  0  0  0  0  0  0
   58.7870   29.3940   50.5460 C   0  0  0  0  0  0  0  0  0  0  0  0
   60.1270   29.0520   50.6570 C   0  0  0  0  0  0  0  0  0  0  0  0
   60.8260   28.5680   49.4590 C   0  0  0  0  0  0  0  0  0  0  0  0
   60.3110   27.3270   48.8410 C   0  0  0  0  0  0  0  0  0  0  0  0
   59.2210   27.4520   47.8700 C   0  0  0  0  0  0  0  0  0  0  0  0
   58.1460   28.0670   48.0420 O   0  0  0  0  0  0  0  0  0  0  0  0
   59.3980   26.8140   46.6090 N   0  0  0  0  0  0  0  0  0  0  0  0
   58.4360   26.8360   45.5380 C   0  0  0  0  0  0  0  0  0  0  0  0
   58.2640   28.2570   45.1030 C   0  0  0  0  0  0  0  0  0  0  0  0
   57.0840   28.7460   44.5890 C   0  0  0  0  0  0  0  0  0  0  0  0
   56.8870   30.0480   44.2120 C   0  0  0  0  0  0  0  0  0  0  0  0
   57.9290   30.9260   44.3550 C   0  0  0  0  0  0  0  0  0  0  0  0
   57.8010   32.3350   43.9730 C   0  0  0  0  0  0  0  0  0  0  0  0
   57.6280   32.7120   42.7950 O   0  0  0  0  0  0  0  0  0  0  0  0
   57.8880   33.2800   45.0390 N   0  0  0  0  0  0  0  0  0  0  0  0
   58.5120   34.5820   44.8690 C   0  0  0  0  0  0  0  0  0  0  0  0
   59.7140   34.7370   45.7630 C   0  0  0  0  0  0  0  0  0  0  0  0
   59.5490   34.0670   47.0760 C   0  0  0  0  0  0  0  0  0  0  0  0
   60.5340   34.2820   48.0140 C   0  0  0  0  0  0  0  0  0  0  0  0
   60.5000   33.7240   49.2730 C   0  0  0  0  0  0  0  0  0  0  0  0
   59.4010   32.9150   49.5590 C   0  0  0  0  0  0  0  0  0  0  0  0
   59.3830   32.3600   50.8340 O   0  0  0  0  0  0  0  0  0  0  0  0
   58.6290   33.0900   52.1670 S   0  0  0  0  0  0  0  0  0  0  0  0
   56.9700   32.6510   52.2840 N   0  0  0  0  0  0  0  0  0  0  0  0
   58.7180   34.5890   51.9590 O   0  0  0  0  0  0  0  0  0  0  0  0
   59.3040   32.7110   53.4310 O   0  0  0  0  0  0  0  0  0  0  0  0
   58.4110   32.6960   48.6230 C   0  0  0  0  0  0  0  0  0  0  0  0
   58.4590   33.2550   47.3810 C   0  0  0  0  0  0  0  0  0  0  0  0
   57.3850   33.0020   46.3770 C   0  0  0  0  0  0  0  0  0  0  0  0
   59.1360   30.4650   44.8710 C   0  0  0  0  0  0  0  0  0  0  0  0
   59.3210   29.1520   45.2450 C   0  0  0  0  0  0  0  0  0  0  0  0
   60.7270   29.1640   51.9040 C   0  0  0  0  0  0  0  0  0  0  0  0
   60.0000   29.6050   52.9890 C   0  0  0  0  0  0  0  0  0  0  0  0
   58.6700   29.9330   52.8280 C   0  0  0  0  0  0  0  0  0  0  0  0
   57.9470   30.3800   53.9460 O   0  0  0  0  0  0  0  0  0  0  0  0
   56.0545   29.7495   53.4487 H   0  0  0  0  0  0  0  0  0  0  0  0
   54.7730   29.9721   52.2098 H   0  0  0  0  0  0  0  0  0  0  0  0
   55.7727   28.4798   52.2098 H   0  0  0  0  0  0  0  0  0  0  0  0
   58.3057   29.3065   49.5608 H   0  0  0  0  0  0  0  0  0  0  0  0
   60.7754   29.3630   48.7005 H   0  0  0  0  0  0  0  0  0  0  0  0
   61.8418   28.3192   49.7999 H   0  0  0  0  0  0  0  0  0  0  0  0
   61.1540   26.8410   48.3280 H   0  0  0  0  0  0  0  0  0  0  0  0
   59.8755   26.7598   49.6768 H   0  0  0  0  0  0  0  0  0  0  0  0
   60.2910   26.2790   46.4260 H   0  0  0  0  0  0  0  0  0  0  0  0
   58.8002   26.2290   44.6961 H   0  0  0  0  0  0  0  0  0  0  0  0
   57.4757   26.4204   45.8772 H   0  0  0  0  0  0  0  0  0  0  0  0
   56.2442   28.0450   44.4735 H   0  0  0  0  0  0  0  0  0  0  0  0
   55.9198   30.3792   43.8060 H   0  0  0  0  0  0  0  0  0  0  0  0
   58.8286   34.6929   43.8214 H   0  0  0  0  0  0  0  0  0  0  0  0
   57.7779   35.3553   45.1393 H   0  0  0  0  0  0  0  0  0  0  0  0
   60.5874   34.3024   45.2548 H   0  0  0  0  0  0  0  0  0  0  0  0
   59.8446   35.8121   45.9559 H   0  0  0  0  0  0  0  0  0  0  0  0
   61.3841   34.9268   47.7465 H   0  0  0  0  0  0  0  0  0  0  0  0
   61.2950   33.9064   50.0110 H   0  0  0  0  0  0  0  0  0  0  0  0
   56.8350   31.8260   52.9320 H   0  0  0  0  0  0  0  0  0  0  0  0
   56.5780   32.3400   51.3730 H   0  0  0  0  0  0  0  0  0  0  0  0
   57.5591   32.0521   48.8868 H   0  0  0  0  0  0  0  0  0  0  0  0
   57.0685   31.9502   46.4374 H   0  0  0  0  0  0  0  0  0  0  0  0
   56.5279   33.6585   46.5874 H   0  0  0  0  0  0  0  0  0  0  0  0
   59.9706   31.1726   44.9842 H   0  0  0  0  0  0  0  0  0  0  0  0
   60.2875   28.8164   45.6490 H   0  0  0  0  0  0  0  0  0  0  0  0
   61.7877   28.8995   52.0268 H   0  0  0  0  0  0  0  0  0  0  0  0
   60.4771   29.6947   53.9761 H   0  0  0  0  0  0  0  0  0  0  0  0
   57.6980   31.3800   53.9380 H   0  0  0  0  0  0  0  0  0  0  0  0
  1  2  1  0
  2  3  1  0
  3  4  2  0
  4  5  1  0
  5  6  1  0
  6  7  1  0
  7  8  1  0
  8  9  2  0
  8 10  1  0
 10 11  1  0
 11 12  1  0
 12 13  2  0
 13 14  1  0
 14 15  2  0
 15 16  1  0
 16 17  2  0
 16 18  1  0
 18 19  1  0
 19 20  1  0
 20 21  1  0
 21 22  2  0
 22 23  1  0
 23 24  2  0
 24 25  1  0
 25 26  1  0
 26 27  1  0
 26 28  2  0
 26 29  2  0
 24 30  1  0
 30 31  2  0
 31 32  1  0
 15 33  1  0
 33 34  2  0
  5 35  2  0
 35 36  1  0
 36 37  2  0
 37 38  1  0
 37  3  1  0
 34 12  1  0
 32 18  1  0
 31 21  1  0
  1 39  1  0
  1 40  1  0
  1 41  1  0
  4 42  1  0
  6 43  1  0
  6 44  1  0
  7 45  1  0
  7 46  1  0
 10 47  1  0
 11 48  1  0
 11 49  1  0
 13 50  1  0
 14 51  1  0
 19 52  1  0
 19 53  1  0
 20 54  1  0
 20 55  1  0
 22 56  1  0
 23 57  1  0
 27 58  1  0
 27 59  1  0
 30 60  1  0
 32 61  1  0
 32 62  1  0
 33 63  1  0
 34 64  1  0
 35 65  1  0
 36 66  1  0
 38 67  1  0
M  END
>  <smiles>  (80) 
COc1cc(CCC(=O)NCc2ccc(C(=O)N3CCc4ccc(OS(N)(=O)=O)cc4C3)cc2)ccc1O

>  <score_type>  (80) 
oracle

>  <origin>  (80) 
adg

>  <m_score__min__energy>  (80) 
-12.17

>  <m_primary>  (80) 
energy

$$$$
80:0
     RDKit          3D

 55 58  0  0  1  0  0  0  0  0999 V2000
   60.0490   26.1850   46.0060 C   0  0  0  0  0  0  0  0  0  0  0  0
   59.2660   27.1090   45.5110 C   0  0  0  0  0  0  0  0  0  0  0  0
   58.0570   26.9350   44.9100 C   0  0  0  0  0  0  0  0  0  0  0  0
   57.4540   25.8200   44.5880 C   0  0  0  0  0  0  0  0  0  0  0  0
   56.8260   24.8990   45.5100 C   0  0  0  0  0  0  0  0  0  0  0  0
   57.4730   23.7770   45.9530 N   0  0  0  0  0  0  0  0  0  0  0  0
   56.6130   23.1170   46.7680 C   0  0  0  0  0  0  0  0  0  0  0  0
   56.9670   22.0300   47.3240 O   0  0  0  0  0  0  0  0  0  0  0  0
   55.4660   23.7920   46.8390 N   0  0  0  0  0  0  0  0  0  0  0  0
   55.5490   24.9140   46.0680 C   0  0  0  0  0  0  0  0  0  0  0  0
   54.5980   25.8760   45.8610 O   0  0  0  0  0  0  0  0  0  0  0  0
   57.5720   28.1840   44.5710 C   0  0  0  0  0  0  0  0  0  0  0  0
   58.5000   29.1220   44.9680 C   0  0  0  0  0  0  0  0  0  0  0  0
   58.4780   30.5450   44.7980 C   0  0  0  0  0  0  0  0  0  0  0  0
   58.5790   30.9130   43.5390 O   0  0  0  0  0  0  0  0  0  0  0  0
   58.3730   31.6020   45.6830 N   0  0  0  0  0  0  0  0  0  0  0  0
   58.3870   32.9470   45.0630 C   0  0  0  0  0  0  0  0  0  0  0  0
   57.8120   33.9730   45.9640 C   0  0  0  0  0  0  0  0  0  0  0  0
   58.4250   34.0280   47.2640 N   0  0  0  0  0  0  0  0  0  0  0  0
   59.4010   35.0740   47.3830 C   0  0  0  0  0  0  0  0  0  0  0  0
   60.7510   34.5950   47.6530 C   0  0  0  0  0  0  0  0  0  0  0  0
   61.4820   34.0910   46.5750 C   0  0  0  0  0  0  0  0  0  0  0  0
   62.7590   33.6060   46.7190 C   0  0  0  0  0  0  0  0  0  0  0  0
   63.3230   33.6240   47.9600 C   0  0  0  0  0  0  0  0  0  0  0  0
   62.6660   34.1040   49.0700 C   0  0  0  0  0  0  0  0  0  0  0  0
   63.2190   34.1240   50.3140 F   0  0  0  0  0  0  0  0  0  0  0  0
   61.3780   34.5810   48.8770 C   0  0  0  0  0  0  0  0  0  0  0  0
   58.7950   32.7580   47.7910 C   0  0  0  0  0  0  0  0  0  0  0  0
   58.2460   31.5510   47.1150 C   0  0  0  0  0  0  0  0  0  0  0  0
   59.4940   28.4300   45.5250 N   0  0  0  0  0  0  0  0  0  0  0  0
   60.6970   29.0760   46.0730 C   0  0  0  0  0  0  0  0  0  0  0  0
   61.0072   26.4655   46.4678 H   0  0  0  0  0  0  0  0  0  0  0  0
   59.7491   25.1276   45.9604 H   0  0  0  0  0  0  0  0  0  0  0  0
   57.4214   25.5590   43.5199 H   0  0  0  0  0  0  0  0  0  0  0  0
   58.4640   23.4890   45.7010 H   0  0  0  0  0  0  0  0  0  0  0  0
   54.6310   23.4780   47.4170 H   0  0  0  0  0  0  0  0  0  0  0  0
   53.7120   25.8910   46.3740 H   0  0  0  0  0  0  0  0  0  0  0  0
   56.6140   28.3925   44.0722 H   0  0  0  0  0  0  0  0  0  0  0  0
   59.4264   33.2206   44.8289 H   0  0  0  0  0  0  0  0  0  0  0  0
   57.7735   32.9099   44.1507 H   0  0  0  0  0  0  0  0  0  0  0  0
   57.9293   34.9566   45.4857 H   0  0  0  0  0  0  0  0  0  0  0  0
   56.7587   33.6986   46.1232 H   0  0  0  0  0  0  0  0  0  0  0  0
   59.4169   35.6415   46.4408 H   0  0  0  0  0  0  0  0  0  0  0  0
   59.1036   35.6915   48.2433 H   0  0  0  0  0  0  0  0  0  0  0  0
   61.0195   34.0821   45.5770 H   0  0  0  0  0  0  0  0  0  0  0  0
   63.3131   33.2126   45.8540 H   0  0  0  0  0  0  0  0  0  0  0  0
   64.3464   33.2386   48.0792 H   0  0  0  0  0  0  0  0  0  0  0  0
   60.8294   34.9683   49.7483 H   0  0  0  0  0  0  0  0  0  0  0  0
   59.8921   32.6899   47.7487 H   0  0  0  0  0  0  0  0  0  0  0  0
   58.3629   32.7357   48.8023 H   0  0  0  0  0  0  0  0  0  0  0  0
   58.7864   30.6666   47.4835 H   0  0  0  0  0  0  0  0  0  0  0  0
   57.1721   31.5030   47.3485 H   0  0  0  0  0  0  0  0  0  0  0  0
   60.6565   29.0542   47.1720 H   0  0  0  0  0  0  0  0  0  0  0  0
   61.5919   28.5371   45.7283 H   0  0  0  0  0  0  0  0  0  0  0  0
   60.7420   30.1196   45.7283 H   0  0  0  0  0  0  0  0  0  0  0  0
  1  2  2  0
  2  3  1  0
  3  4  2  0
  4  5  1  0
  5  6  1  0
  6  7  1  0
  7  8  2  0
  7  9  1  0
  9 10  1  0
 10 11  1  0
  3 12  1  0
 12 13  2  0
 13 14  1  0
 14 15  2  0
 14 16  1  0
 16 17  1  0
 17 18  1  0
 18 19  1  0
 19 20  1  0
 20 21  1  0
 21 22  2  0
 22 23  1  0
 23 24  2  0
 24 25  1  0
 25 26  1  0
 25 27  2  0
 19 28  1  0
 28 29  1  0
 13 30  1  0
 30 31  1  0
 30  2  1  0
 10  5  2  0
 29 16  1  0
 27 21  1  0
  1 32  1  0
  1 33  1  0
  4 34  1  0
  6 35  1  0
  9 36  1  0
 11 37  1  0
 12 38  1  0
 17 39  1  0
 17 40  1  0
 18 41  1  0
 18 42  1  0
 20 43  1  0
 20 44  1  0
 22 45  1  0
 23 46  1  0
 24 47  1  0
 27 48  1  0
 28 49  1  0
 28 50  1  0
 29 51  1  0
 29 52  1  0
 31 53  1  0
 31 54  1  0
 31 55  1  0
M  END
>  <smiles>  (81) 
C=c1c(=Cc2[nH]c(=O)[nH]c2O)cc(C(=O)N2CCN(Cc3cccc(F)c3)CC2)n1C

>  <score_type>  (81) 
oracle

>  <origin>  (81) 
adg

>  <m_score__min__energy>  (81) 
-9.5899999999999999

>  <m_primary>  (81) 
energy

$$$$
81:0
     RDKit          3D

 52 55  0  0  1  0  0  0  0  0999 V2000
   60.4530   27.3150   48.4190 O   0  0  0  0  0  0  0  0  0  0  0  0
   59.9530   27.7980   47.3650 C   0  0  0  0  0  0  0  0  0  0  0  0
   59.6680   26.9120   46.1750 C   0  0  0  0  0  0  0  0  0  0  0  0
   58.2640   26.7630   45.9660 N   0  0  0  0  0  0  0  0  0  0  0  0
   57.2870   27.6340   45.7130 C   0  0  0  0  0  0  0  0  0  0  0  0
   57.4010   28.8870   45.5350 N   0  0  0  0  0  0  0  0  0  0  0  0
   56.4990   29.6530   44.7780 C   0  0  0  0  0  0  0  0  0  0  0  0
   55.2550   29.5200   44.7550 O   0  0  0  0  0  0  0  0  0  0  0  0
   57.0810   30.7140   43.9270 C   0  0  0  0  0  0  0  0  0  0  0  0
   57.8420   31.7330   44.4630 C   0  0  0  0  0  0  0  0  0  0  0  0
   58.3690   32.7080   43.6300 C   0  0  0  0  0  0  0  0  0  0  0  0
   58.1580   32.6950   42.2650 C   0  0  0  0  0  0  0  0  0  0  0  0
   57.3980   31.6810   41.7200 C   0  0  0  0  0  0  0  0  0  0  0  0
   56.8920   30.7360   42.5610 C   0  0  0  0  0  0  0  0  0  0  0  0
   56.0820   26.9990   45.6340 N   0  0  0  0  0  0  0  0  0  0  0  0
   56.2860   25.7020   45.8380 C   0  0  0  0  0  0  0  0  0  0  0  0
   55.4640   24.5970   45.8770 C   0  0  0  0  0  0  0  0  0  0  0  0
   55.9580   23.3230   46.1180 C   0  0  0  0  0  0  0  0  0  0  0  0
   57.3070   23.1840   46.3210 C   0  0  0  0  0  0  0  0  0  0  0  0
   58.1360   24.2790   46.2850 C   0  0  0  0  0  0  0  0  0  0  0  0
   57.6360   25.5480   46.0450 C   0  0  0  0  0  0  0  0  0  0  0  0
   59.6600   29.1890   47.3120 N   0  0  0  0  0  0  0  0  0  0  0  0
   59.9410   30.0230   48.4650 C   0  0  0  0  0  0  0  0  0  0  0  0
   59.7500   31.4480   48.0300 C   0  0  0  0  0  0  0  0  0  0  0  0
   61.0040   32.0960   47.5960 C   0  0  0  0  0  0  0  0  0  0  0  0
   62.1860   31.4000   47.8680 C   0  0  0  0  0  0  0  0  0  0  0  0
   63.3750   31.9450   47.4960 C   0  0  0  0  0  0  0  0  0  0  0  0
   63.4290   33.1680   46.8570 C   0  0  0  0  0  0  0  0  0  0  0  0
   62.2780   33.8740   46.5770 C   0  0  0  0  0  0  0  0  0  0  0  0
   61.0530   33.3180   46.9600 C   0  0  0  0  0  0  0  0  0  0  0  0
   59.5570   34.1650   46.6320 Cl  0  0  0  0  0  0  0  0  0  0  0  0
   60.1186   27.3609   45.2775 H   0  0  0  0  0  0  0  0  0  0  0  0
   60.0982   25.9185   46.3699 H   0  0  0  0  0  0  0  0  0  0  0  0
   58.0296   31.7714   45.5462 H   0  0  0  0  0  0  0  0  0  0  0  0
   58.9730   33.5157   44.0691 H   0  0  0  0  0  0  0  0  0  0  0  0
   58.5881   33.4789   41.6243 H   0  0  0  0  0  0  0  0  0  0  0  0
   57.2060   31.6366   40.6378 H   0  0  0  0  0  0  0  0  0  0  0  0
   56.2879   29.9308   42.1176 H   0  0  0  0  0  0  0  0  0  0  0  0
   55.1480   27.4620   45.4440 H   0  0  0  0  0  0  0  0  0  0  0  0
   54.3844   24.7286   45.7122 H   0  0  0  0  0  0  0  0  0  0  0  0
   55.2879   22.4511   46.1454 H   0  0  0  0  0  0  0  0  0  0  0  0
   57.7292   22.1868   46.5144 H   0  0  0  0  0  0  0  0  0  0  0  0
   59.2154   24.1455   46.4496 H   0  0  0  0  0  0  0  0  0  0  0  0
   59.2430   29.5640   46.4170 H   0  0  0  0  0  0  0  0  0  0  0  0
   59.2480   29.7815   49.2844 H   0  0  0  0  0  0  0  0  0  0  0  0
   60.9651   29.8570   48.8307 H   0  0  0  0  0  0  0  0  0  0  0  0
   59.0388   31.4652   47.1910 H   0  0  0  0  0  0  0  0  0  0  0  0
   59.3761   32.0083   48.8996 H   0  0  0  0  0  0  0  0  0  0  0  0
   62.1544   30.4248   48.3760 H   0  0  0  0  0  0  0  0  0  0  0  0
   64.3086   31.4031   47.7074 H   0  0  0  0  0  0  0  0  0  0  0  0
   64.4046   33.5852   46.5670 H   0  0  0  0  0  0  0  0  0  0  0  0
   62.3220   34.8474   46.0666 H   0  0  0  0  0  0  0  0  0  0  0  0
  1  2  2  0
  2  3  1  0
  3  4  1  0
  4  5  1  0
  5  6  2  0
  6  7  1  0
  7  8  2  0
  7  9  1  0
  9 10  2  0
 10 11  1  0
 11 12  2  0
 12 13  1  0
 13 14  2  0
  5 15  1  0
 15 16  1  0
 16 17  2  0
 17 18  1  0
 18 19  2  0
 19 20  1  0
 20 21  2  0
  2 22  1  0
 22 23  1  0
 23 24  1  0
 24 25  1  0
 25 26  2  0
 26 27  1  0
 27 28  2  0
 28 29  1  0
 29 30  2  0
 30 31  1  0
 21  4  1  0
 30 25  1  0
 14  9  1  0
 21 16  1  0
  3 32  1  0
  3 33  1  0
 10 34  1  0
 11 35  1  0
 12 36  1  0
 13 37  1  0
 14 38  1  0
 15 39  1  0
 17 40  1  0
 18 41  1  0
 19 42  1  0
 20 43  1  0
 22 44  1  0
 23 45  1  0
 23 46  1  0
 24 47  1  0
 24 48  1  0
 26 49  1  0
 27 50  1  0
 28 51  1  0
 29 52  1  0
M  END
>  <smiles>  (82) 
O=C(Cn1c(=NC(=O)c2ccccc2)[nH]c2ccccc21)NCCc1ccccc1Cl

>  <score_type>  (82) 
oracle

>  <origin>  (82) 
adg

>  <m_score__min__energy>  (82) 
-9.9900000000000002

>  <m_primary>  (82) 
energy

$$$$
82:0
     RDKit          3D

 37 39  0  0  0  0  0  0  0  0999 V2000
   59.1090   29.9020   46.3930 O   0  0  0  0  0  0  0  0  0  0  0  0
   58.5240   29.9710   45.2840 C   0  0  0  0  0  0  0  0  0  0  0  0
   58.5780   28.9210   44.3380 N   0  0  0  0  0  0  0  0  0  0  0  0
   59.2880   27.6760   44.5220 C   0  0  0  0  0  0  0  0  0  0  0  0
   58.4110   26.7470   45.2730 C   0  0  0  0  0  0  0  0  0  0  0  0
   58.8670   25.6700   45.9980 C   0  0  0  0  0  0  0  0  0  0  0  0
   57.9630   24.8590   46.6750 C   0  0  0  0  0  0  0  0  0  0  0  0
   56.6060   25.0870   46.6550 C   0  0  0  0  0  0  0  0  0  0  0  0
   55.7340   24.2550   47.3450 O   0  0  0  0  0  0  0  0  0  0  0  0
   56.1620   26.1790   45.9180 C   0  0  0  0  0  0  0  0  0  0  0  0
   54.7790   26.4260   45.8880 O   0  0  0  0  0  0  0  0  0  0  0  0
   57.0510   26.9820   45.2480 C   0  0  0  0  0  0  0  0  0  0  0  0
   57.7610   31.1670   44.9490 C   0  0  0  0  0  0  0  0  0  0  0  0
   56.5900   31.0650   44.4650 O   0  0  0  0  0  0  0  0  0  0  0  0
   58.2600   32.5210   45.1350 C   0  0  0  0  0  0  0  0  0  0  0  0
   58.3910   33.5130   44.1870 C   0  0  0  0  0  0  0  0  0  0  0  0
   58.8910   34.6120   44.7800 N   0  0  0  0  0  0  0  0  0  0  0  0
   59.0820   34.3500   46.0850 C   0  0  0  0  0  0  0  0  0  0  0  0
   59.5730   35.1700   47.0790 C   0  0  0  0  0  0  0  0  0  0  0  0
   59.6750   34.6600   48.3580 C   0  0  0  0  0  0  0  0  0  0  0  0
   59.3030   33.3690   48.6600 C   0  0  0  0  0  0  0  0  0  0  0  0
   58.8070   32.5560   47.6350 C   0  0  0  0  0  0  0  0  0  0  0  0
   58.6900   33.0290   46.3440 C   0  0  0  0  0  0  0  0  0  0  0  0
   58.0640   29.0390   43.4200 H   0  0  0  0  0  0  0  0  0  0  0  0
   59.5377   27.2419   43.5426 H   0  0  0  0  0  0  0  0  0  0  0  0
   60.2207   27.8502   45.0786 H   0  0  0  0  0  0  0  0  0  0  0  0
   59.9441   25.4512   46.0419 H   0  0  0  0  0  0  0  0  0  0  0  0
   58.3471   24.0025   47.2484 H   0  0  0  0  0  0  0  0  0  0  0  0
   54.7450   24.4730   47.3110 H   0  0  0  0  0  0  0  0  0  0  0  0
   54.2070   25.7360   46.3770 H   0  0  0  0  0  0  0  0  0  0  0  0
   56.6681   27.8386   44.6738 H   0  0  0  0  0  0  0  0  0  0  0  0
   58.1300   33.4212   43.1224 H   0  0  0  0  0  0  0  0  0  0  0  0
   59.0990   35.5270   44.3020 H   0  0  0  0  0  0  0  0  0  0  0  0
   59.8758   36.2043   46.8585 H   0  0  0  0  0  0  0  0  0  0  0  0
   60.0651   35.3042   49.1597 H   0  0  0  0  0  0  0  0  0  0  0  0
   59.3940   32.9846   49.6866 H   0  0  0  0  0  0  0  0  0  0  0  0
   58.5054   31.5228   47.8620 H   0  0  0  0  0  0  0  0  0  0  0  0
  1  2  2  0
  2  3  1  0
  3  4  1  0
  4  5  1  0
  5  6  2  0
  6  7  1  0
  7  8  2  0
  8  9  1  0
  8 10  1  0
 10 11  1  0
 10 12  2  0
  2 13  1  0
 13 14  2  0
 13 15  1  0
 15 16  2  0
 16 17  1  0
 17 18  1  0
 18 19  2  0
 19 20  1  0
 20 21  2  0
 21 22  1  0
 22 23  2  0
 12  5  1  0
 23 15  1  0
 23 18  1  0
  3 24  1  0
  4 25  1  0
  4 26  1  0
  6 27  1  0
  7 28  1  0
  9 29  1  0
 11 30  1  0
 12 31  1  0
 16 32  1  0
 17 33  1  0
 19 34  1  0
 20 35  1  0
 21 36  1  0
 22 37  1  0
M  END
>  <smiles>  (83) 
O=C(NCc1ccc(O)c(O)c1)C(=O)c1c[nH]c2ccccc12

>  <score_type>  (83) 
oracle

>  <origin>  (83) 
adg

>  <m_score__min__energy>  (83) 
-9.4499999999999993

>  <m_primary>  (83) 
energy

$$$$
83:0
     RDKit          3D

 43 45  0  0  1  0  0  0  0  0999 V2000
   59.5440   28.2720   47.8430 C   0  0  0  0  0  0  0  0  0  0  0  0
   59.7910   29.4820   47.4320 C   0  0  0  0  0  0  0  0  0  0  0  0
   60.6750   30.1940   48.1720 N   0  0  0  0  0  0  0  0  0  0  0  0
   61.0360   31.4490   47.8860 C   0  0  0  0  0  0  0  0  0  0  0  0
   62.0300   32.1160   48.8010 C   0  0  0  0  0  0  0  0  0  0  0  0
   60.5250   32.1240   46.7950 C   0  0  0  0  0  0  0  0  0  0  0  0
   60.9380   33.4800   46.4830 C   0  0  0  0  0  0  0  0  0  0  0  0
   62.1480   33.7670   46.3170 O   0  0  0  0  0  0  0  0  0  0  0  0
   59.9700   34.6130   46.3370 C   0  0  0  0  0  0  0  0  0  0  0  0
   59.3440   34.6920   44.9920 C   0  0  0  0  0  0  0  0  0  0  0  0
   58.0580   33.9210   44.8280 C   0  0  0  0  0  0  0  0  0  0  0  0
   57.2290   34.0080   45.9180 O   0  0  0  0  0  0  0  0  0  0  0  0
   57.8610   33.6140   47.0960 C   0  0  0  0  0  0  0  0  0  0  0  0
   58.9190   34.6220   47.4090 C   0  0  0  0  0  0  0  0  0  0  0  0
   59.6200   31.4220   46.0200 C   0  0  0  0  0  0  0  0  0  0  0  0
   59.2610   30.1090   46.3440 C   0  0  0  0  0  0  0  0  0  0  0  0
   58.4120   29.4990   45.5870 C   0  0  0  0  0  0  0  0  0  0  0  0
   57.6710   29.9730   44.4490 C   0  0  0  0  0  0  0  0  0  0  0  0
   58.0470   30.8550   43.4690 N   0  0  0  0  0  0  0  0  0  0  0  0
   57.0280   30.9070   42.5840 C   0  0  0  0  0  0  0  0  0  0  0  0
   57.0380   31.6340   41.5360 O   0  0  0  0  0  0  0  0  0  0  0  0
   56.0280   30.0930   42.9710 N   0  0  0  0  0  0  0  0  0  0  0  0
   56.3870   29.4900   44.1320 C   0  0  0  0  0  0  0  0  0  0  0  0
   55.6390   28.5760   44.8630 O   0  0  0  0  0  0  0  0  0  0  0  0
   58.8361   27.6371   47.2900 H   0  0  0  0  0  0  0  0  0  0  0  0
   60.0431   27.8843   48.7433 H   0  0  0  0  0  0  0  0  0  0  0  0
   61.7489   31.9274   49.8476 H   0  0  0  0  0  0  0  0  0  0  0  0
   63.0338   31.7080   48.6117 H   0  0  0  0  0  0  0  0  0  0  0  0
   62.0329   33.1996   48.6117 H   0  0  0  0  0  0  0  0  0  0  0  0
   60.5853   35.5167   46.4585 H   0  0  0  0  0  0  0  0  0  0  0  0
   59.1344   35.7503   44.7774 H   0  0  0  0  0  0  0  0  0  0  0  0
   60.0623   34.2325   44.2971 H   0  0  0  0  0  0  0  0  0  0  0  0
   57.5239   34.3157   43.9511 H   0  0  0  0  0  0  0  0  0  0  0  0
   58.3272   32.8612   44.7078 H   0  0  0  0  0  0  0  0  0  0  0  0
   57.1297   33.5726   47.9167 H   0  0  0  0  0  0  0  0  0  0  0  0
   58.3066   32.6154   46.9763 H   0  0  0  0  0  0  0  0  0  0  0  0
   58.4642   35.6220   47.4649 H   0  0  0  0  0  0  0  0  0  0  0  0
   59.3845   34.3694   48.3731 H   0  0  0  0  0  0  0  0  0  0  0  0
   59.1759   31.9028   45.1359 H   0  0  0  0  0  0  0  0  0  0  0  0
   58.2253   28.4486   45.8550 H   0  0  0  0  0  0  0  0  0  0  0  0
   58.9530   31.3570   43.4580 H   0  0  0  0  0  0  0  0  0  0  0  0
   55.1190   29.9340   42.4780 H   0  0  0  0  0  0  0  0  0  0  0  0
   55.9260   27.5890   44.9510 H   0  0  0  0  0  0  0  0  0  0  0  0
  1  2  2  0
  2  3  1  0
  3  4  2  0
  4  5  1  0
  4  6  1  0
  6  7  1  0
  7  8  2  0
  7  9  1  0
  9 10  1  0
 10 11  1  0
 11 12  1  0
 12 13  1  0
 13 14  1  0
  6 15  2  0
 15 16  1  0
 16 17  2  0
 17 18  1  0
 18 19  1  0
 19 20  1  0
 20 21  2  0
 20 22  1  0
 22 23  1  0
 23 24  1  0
 16  2  1  0
 23 18  2  0
 14  9  1  0
  1 25  1  0
  1 26  1  0
  5 27  1  0
  5 28  1  0
  5 29  1  0
  9 30  1  0
 10 31  1  0
 10 32  1  0
 11 33  1  0
 11 34  1  0
 13 35  1  0
 13 36  1  0
 14 37  1  0
 14 38  1  0
 15 39  1  0
 17 40  1  0
 19 41  1  0
 22 42  1  0
 24 43  1  0
M  END
>  <smiles>  (84) 
C=c1nc(C)c(C(=O)C2CCOCC2)cc1=Cc1[nH]c(=O)[nH]c1O

>  <score_type>  (84) 
oracle

>  <origin>  (84) 
adg

>  <m_score__min__energy>  (84) 
-9.1099999999999994

>  <m_primary>  (84) 
energy

$$$$
84:0
     RDKit          3D

 29 30  0  0  0  0  0  0  0  0999 V2000
   57.3770   32.1700   44.7610 C   0  0  0  0  0  0  0  0  0  0  0  0
   57.5950   30.7090   44.8220 C   0  0  0  0  0  0  0  0  0  0  0  0
   58.1690   30.0780   45.9040 C   0  0  0  0  0  0  0  0  0  0  0  0
   58.3690   28.7160   45.9560 C   0  0  0  0  0  0  0  0  0  0  0  0
   57.9760   27.9570   44.8730 C   0  0  0  0  0  0  0  0  0  0  0  0
   58.1900   26.5150   44.9320 C   0  0  0  0  0  0  0  0  0  0  0  0
   59.0070   26.0750   45.7820 O   0  0  0  0  0  0  0  0  0  0  0  0
   57.5280   25.5940   44.0860 N   0  0  0  0  0  0  0  0  0  0  0  0
   57.7670   24.1840   44.1770 C   0  0  0  0  0  0  0  0  0  0  0  0
   56.8820   23.3200   43.5280 C   0  0  0  0  0  0  0  0  0  0  0  0
   57.0740   21.9530   43.5900 C   0  0  0  0  0  0  0  0  0  0  0  0
   56.2660   21.1990   42.9980 O   0  0  0  0  0  0  0  0  0  0  0  0
   58.1300   21.5160   44.2890 N   0  0  0  0  0  0  0  0  0  0  0  0
   58.9880   22.3440   44.9190 C   0  0  0  0  0  0  0  0  0  0  0  0
   59.9760   21.9040   45.5720 O   0  0  0  0  0  0  0  0  0  0  0  0
   58.8250   23.6900   44.8750 N   0  0  0  0  0  0  0  0  0  0  0  0
   57.4000   28.5780   43.7840 C   0  0  0  0  0  0  0  0  0  0  0  0
   57.2010   29.9570   43.7390 C   0  0  0  0  0  0  0  0  0  0  0  0
   57.3166   32.5747   45.7821 H   0  0  0  0  0  0  0  0  0  0  0  0
   58.2144   32.6437   44.2278 H   0  0  0  0  0  0  0  0  0  0  0  0
   56.4378   32.3786   44.2278 H   0  0  0  0  0  0  0  0  0  0  0  0
   58.4813   30.6886   46.7641 H   0  0  0  0  0  0  0  0  0  0  0  0
   58.8297   28.2462   46.8375 H   0  0  0  0  0  0  0  0  0  0  0  0
   56.8490   25.9320   43.3770 H   0  0  0  0  0  0  0  0  0  0  0  0
   56.0296   23.7290   42.9658 H   0  0  0  0  0  0  0  0  0  0  0  0
   58.3010   20.4740   44.3530 H   0  0  0  0  0  0  0  0  0  0  0  0
   59.4430   24.3670   45.3330 H   0  0  0  0  0  0  0  0  0  0  0  0
   57.0882   27.9661   42.9247 H   0  0  0  0  0  0  0  0  0  0  0  0
   56.7407   30.4320   42.8601 H   0  0  0  0  0  0  0  0  0  0  0  0
  1  2  1  0
  2  3  2  0
  3  4  1  0
  4  5  2  0
  5  6  1  0
  6  7  2  0
  6  8  1  0
  8  9  1  0
  9 10  2  0
 10 11  1  0
 11 12  2  0
 11 13  1  0
 13 14  1  0
 14 15  2  0
 14 16  1  0
  5 17  1  0
 17 18  2  0
 18  2  1  0
 16  9  1  0
  1 19  1  0
  1 20  1  0
  1 21  1  0
  3 22  1  0
  4 23  1  0
  8 24  1  0
 10 25  1  0
 13 26  1  0
 16 27  1  0
 17 28  1  0
 18 29  1  0
M  END
>  <smiles>  (85) 
Cc1ccc(C(=O)Nc2cc(=O)[nH]c(=O)[nH]2)cc1

>  <score_type>  (85) 
oracle

>  <origin>  (85) 
adg

>  <m_score__min__energy>  (85) 
-6.9699999999999998

>  <m_primary>  (85) 
energy

$$$$
