0:0
     RDKit          3D

 47 48  0  0  0  0  0  0  0  0999 V2000
   56.3130   29.7190   42.9250 C   0  0  0  0  0  0  0  0  0  0  0  0
   56.3120   29.6490   44.4470 C   0  0  0  0  0  0  0  0  0  0  0  0
   57.0210   30.8260   45.0000 N   0  0  0  0  0  0  0  0  0  0  0  0
   58.0290   30.4490   46.0240 C   0  0  0  0  0  0  0  0  0  0  0  0
   59.3910   30.0300   45.4500 C   0  0  0  0  0  0  0  0  0  0  0  0
   57.5170   31.7350   43.9390 C   0  0  0  0  0  0  0  0  0  0  0  0
   57.7450   33.1660   44.4460 C   0  0  0  0  0  0  0  0  0  0  0  0
   59.1830   33.4650   44.5230 N   0  0  0  0  0  0  0  0  0  0  0  0
   59.4610   34.4810   45.5460 C   0  0  0  0  0  0  0  0  0  0  0  0
   59.5970   33.8460   46.9010 C   0  0  0  0  0  0  0  0  0  0  0  0
   58.2870   33.4000   47.8580 S   0  0  0  0  0  0  0  0  0  0  0  0
   59.1720   32.9100   49.1990 C   0  0  0  0  0  0  0  0  0  0  0  0
   60.5200   33.0940   48.9150 C   0  0  0  0  0  0  0  0  0  0  0  0
   60.7660   33.6120   47.6310 C   0  0  0  0  0  0  0  0  0  0  0  0
   62.1640   33.9520   47.1910 C   0  0  0  0  0  0  0  0  0  0  0  0
   63.2070   32.9780   47.7980 C   0  0  1  0  0  0  0  0  0  0  0  0
   63.1000   31.6000   47.1250 C   0  0  0  0  0  0  0  0  0  0  0  0
   64.5010   33.4760   47.5520 O   0  0  0  0  0  0  0  0  0  0  0  0
   62.9860   32.8040   49.2970 C   0  0  0  0  0  0  0  0  0  0  0  0
   63.9440   32.5740   50.0210 O   0  0  0  0  0  0  0  0  0  0  0  0
   61.6080   32.8380   49.9180 C   0  0  0  0  0  0  0  0  0  0  0  0
   56.3280   30.7717   42.6064 H   0  0  0  0  0  0  0  0  0  0  0  0
   57.2039   29.2051   42.5349 H   0  0  0  0  0  0  0  0  0  0  0  0
   55.4078   29.2307   42.5349 H   0  0  0  0  0  0  0  0  0  0  0  0
   55.2744   29.6419   44.8123 H   0  0  0  0  0  0  0  0  0  0  0  0
   56.8230   28.7301   44.7703 H   0  0  0  0  0  0  0  0  0  0  0  0
   58.1860   31.3129   46.6865 H   0  0  0  0  0  0  0  0  0  0  0  0
   57.6273   29.5713   46.5515 H   0  0  0  0  0  0  0  0  0  0  0  0
   60.0864   29.8161   46.2750 H   0  0  0  0  0  0  0  0  0  0  0  0
   59.2668   29.1285   44.8320 H   0  0  0  0  0  0  0  0  0  0  0  0
   59.7950   30.8454   44.8320 H   0  0  0  0  0  0  0  0  0  0  0  0
   58.4697   31.3414   43.5550 H   0  0  0  0  0  0  0  0  0  0  0  0
   56.7493   31.7788   43.1524 H   0  0  0  0  0  0  0  0  0  0  0  0
   57.2648   33.8750   43.7555 H   0  0  0  0  0  0  0  0  0  0  0  0
   57.3090   33.2596   45.4516 H   0  0  0  0  0  0  0  0  0  0  0  0
   59.4770   33.8690   43.6040 H   0  0  0  0  0  0  0  0  0  0  0  0
   60.3978   34.9999   45.2946 H   0  0  0  0  0  0  0  0  0  0  0  0
   58.6247   35.1951   45.5721 H   0  0  0  0  0  0  0  0  0  0  0  0
   58.7574   32.5131   50.1374 H   0  0  0  0  0  0  0  0  0  0  0  0
   62.2170   33.8932   46.0939 H   0  0  0  0  0  0  0  0  0  0  0  0
   62.3974   34.9680   47.5421 H   0  0  0  0  0  0  0  0  0  0  0  0
   63.0393   30.8187   47.8969 H   0  0  0  0  0  0  0  0  0  0  0  0
   62.1966   31.5672   46.4983 H   0  0  0  0  0  0  0  0  0  0  0  0
   63.9875   31.4281   46.4983 H   0  0  0  0  0  0  0  0  0  0  0  0
   65.1150   33.0810   48.2270 H   0  0  0  0  0  0  0  0  0  0  0  0
   61.4176   31.8690   50.4025 H   0  0  0  0  0  0  0  0  0  0  0  0
   61.5923   33.6675   50.6403 H   0  0  0  0  0  0  0  0  0  0  0  0
  1  2  1  0
  2  3  1  0
  3  4  1  0
  4  5  1  0
  3  6  1  0
  6  7  1  0
  7  8  1  0
  8  9  1  0
  9 10  1  0
 10 11  1  0
 11 12  1  0
 12 13  2  0
 13 14  1  0
 14 15  1  0
 15 16  1  0
 16 17  1  0
 16 18  1  1
 16 19  1  0
 19 20  2  0
 19 21  1  0
 14 10  2  0
 21 13  1  0
  1 22  1  0
  1 23  1  0
  1 24  1  0
  2 25  1  0
  2 26  1  0
  4 27  1  0
  4 28  1  0
  5 29  1  0
  5 30  1  0
  5 31  1  0
  6 32  1  0
  6 33  1  0
  7 34  1  0
  7 35  1  0
  8 36  1  0
  9 37  1  0
  9 38  1  0
 12 39  1  0
 15 40  1  0
 15 41  1  0
 17 42  1  0
 17 43  1  0
 17 44  1  0
 18 45  1  0
 21 46  1  0
 21 47  1  0
M  END
>  <UniqueID>  (1) 
1

>  <SMILES>  (1) 
CCN(CC)CCNCc1scc2c1C[C@@](C)(O)C(=O)C2

>  <Energy>  (1) 
72.14844507641125

>  <Genealogy>  (1) 
CCN(CC)CCNCc1scc2c1C[C@@](C)(O)C(=O)C2 (chirality)
CCN(CC)CCNCc1scc2c1C[C@@](C)(O)C(=O)C2 (3D coordinates assigned)
CCN(CC)CCNCc1scc2c1C[C@@](C)(O)C(=O)C2 (nonaromatic ring conformer: 72.14844507641125 kcal/mol)

>  <smiles>  (1) 
CCN(CC)CCNCc1scc2c1CC(C)(O)C(=O)C2

>  <score_type>  (1) 
oracle

>  <origin>  (1) 
adg

>  <m_score__min__energy>  (1) 
-6.46

>  <m_primary>  (1) 
energy

$$$$
1:0
     RDKit          3D

 33 34  0  0  0  0  0  0  0  0999 V2000
   55.1680   26.4110   46.0900 N   0  0  0  0  0  0  0  0  0  0  0  0
   56.8870   26.5020   45.9490 S   0  0  0  0  0  0  0  0  0  0  0  0
   57.5230   25.9780   47.2050 O   0  0  0  0  0  0  0  0  0  0  0  0
   57.3390   25.6560   44.7910 O   0  0  0  0  0  0  0  0  0  0  0  0
   57.3670   28.1750   45.6900 C   0  0  0  0  0  0  0  0  0  0  0  0
   58.0720   28.8670   46.6840 C   0  0  0  0  0  0  0  0  0  0  0  0
   58.4440   30.2000   46.4840 C   0  0  0  0  0  0  0  0  0  0  0  0
   58.1000   30.8620   45.2990 C   0  0  0  0  0  0  0  0  0  0  0  0
   58.5220   32.2220   45.1170 N   0  0  0  0  0  0  0  0  0  0  0  0
   57.8240   33.3900   45.5630 C   0  0  0  0  0  0  0  0  0  0  0  0
   56.7930   33.7520   44.9370 O   0  0  0  0  0  0  0  0  0  0  0  0
   58.3690   34.2340   46.6500 C   0  0  0  0  0  0  0  0  0  0  0  0
   59.5900   34.7880   46.6590 C   0  0  0  0  0  0  0  0  0  0  0  0
   60.7790   34.2210   47.3290 C   0  0  0  0  0  0  0  0  0  0  0  0
   60.8130   34.1610   48.7310 C   0  0  0  0  0  0  0  0  0  0  0  0
   61.9440   33.6680   49.3900 C   0  0  0  0  0  0  0  0  0  0  0  0
   63.0590   33.2520   48.6540 C   0  0  0  0  0  0  0  0  0  0  0  0
   64.4780   32.6370   49.4820 Cl  0  0  0  0  0  0  0  0  0  0  0  0
   63.0450   33.3370   47.2590 C   0  0  0  0  0  0  0  0  0  0  0  0
   61.9150   33.8290   46.5970 C   0  0  0  0  0  0  0  0  0  0  0  0
   57.4100   30.1610   44.2940 C   0  0  0  0  0  0  0  0  0  0  0  0
   57.0380   28.8280   44.4940 C   0  0  0  0  0  0  0  0  0  0  0  0
   54.7710   26.7150   45.1730 H   0  0  0  0  0  0  0  0  0  0  0  0
   58.3335   28.3600   47.6245 H   0  0  0  0  0  0  0  0  0  0  0  0
   59.0105   30.7320   47.2625 H   0  0  0  0  0  0  0  0  0  0  0  0
   57.7212   34.4215   47.5190 H   0  0  0  0  0  0  0  0  0  0  0  0
   59.7169   35.7411   46.1247 H   0  0  0  0  0  0  0  0  0  0  0  0
   59.9457   34.5035   49.3145 H   0  0  0  0  0  0  0  0  0  0  0  0
   61.9569   33.6072   50.4882 H   0  0  0  0  0  0  0  0  0  0  0  0
   63.9240   33.0165   46.6806 H   0  0  0  0  0  0  0  0  0  0  0  0
   61.9146   33.9097   45.5000 H   0  0  0  0  0  0  0  0  0  0  0  0
   57.1620   30.6631   43.3472 H   0  0  0  0  0  0  0  0  0  0  0  0
   56.4852   28.2898   43.7100 H   0  0  0  0  0  0  0  0  0  0  0  0
  1  2  1  0
  2  3  2  0
  2  4  2  0
  2  5  1  0
  5  6  2  0
  6  7  1  0
  7  8  2  0
  8  9  1  0
  9 10  1  0
 10 11  2  0
 10 12  1  0
 12 13  2  3
 13 14  1  0
 14 15  2  0
 15 16  1  0
 16 17  2  0
 17 18  1  0
 17 19  1  0
 19 20  2  0
  8 21  1  0
 21 22  2  0
 22  5  1  0
 20 14  1  0
  1 23  1  0
  6 24  1  0
  7 25  1  0
 12 26  1  0
 13 27  1  0
 15 28  1  0
 16 29  1  0
 19 30  1  0
 20 31  1  0
 21 32  1  0
 22 33  1  0
M  CHG  2   1  -1   9  -1
M  END
>  <UniqueID>  (2) 
2

>  <SMILES>  (2) 
[NH-]S(=O)(=O)c1ccc([N-]C(=O)C=Cc2ccc(Cl)cc2)cc1

>  <Energy>  (2) 
45.007629732405405

>  <Genealogy>  (2) 
[NH-]S(=O)(=O)c1ccc([N-]C(=O)C=Cc2ccc(Cl)cc2)cc1 (protonated)
[NH-]S(=O)(=O)c1ccc([N-]C(=O)C=Cc2ccc(Cl)cc2)cc1 (3D coordinates assigned)
[NH-]S(=O)(=O)c1ccc([N-]C(=O)C=Cc2ccc(Cl)cc2)cc1 (optimized conformer: 45.007629732405405 kcal/mol)

>  <smiles>  (2) 
NS(=O)(=O)c1ccc(NC(=O)C=Cc2ccc(Cl)cc2)cc1

>  <score_type>  (2) 
oracle

>  <origin>  (2) 
adg

>  <m_score__min__energy>  (2) 
-12.15

>  <m_primary>  (2) 
energy

$$$$
2:0
     RDKit          3D

 24 25  0  0  0  0  0  0  0  0999 V2000
   55.1480   27.4700   45.6150 H   0  0  0  0  0  0  0  0  0  0  0  0
   54.9920   26.5340   45.9710 O   0  0  0  0  0  0  0  0  0  0  0  0
   55.8040   25.4630   45.5980 C   0  0  0  0  0  0  0  0  0  0  0  0
   57.2110   25.5610   45.6540 C   0  0  0  0  0  0  0  0  0  0  0  0
   57.9070   26.7840   46.1070 C   0  0  0  0  0  0  0  0  0  0  0  0
   59.1330   26.7500   46.4020 O   0  0  0  0  0  0  0  0  0  0  0  0
   57.1610   28.0100   46.2060 N   0  0  0  0  0  0  0  0  0  0  0  0
   56.8550   28.8360   45.2480 C   0  0  0  0  0  0  0  0  0  0  0  0
   55.5740   29.1020   44.9170 N   0  0  0  0  0  0  0  0  0  0  0  0
   55.4890   29.9910   43.8920 C   0  0  0  0  0  0  0  0  0  0  0  0
   54.5254   30.3290   43.4831 H   0  0  0  0  0  0  0  0  0  0  0  0
   56.7070   30.4420   43.3980 C   0  0  0  0  0  0  0  0  0  0  0  0
   56.8449   31.1592   42.5755 H   0  0  0  0  0  0  0  0  0  0  0  0
   57.9330   29.7000   44.2770 S   0  0  0  0  0  0  0  0  0  0  0  0
   57.9640   24.4880   45.2800 N   0  0  0  0  0  0  0  0  0  0  0  0
   57.4170   23.3190   44.8500 C   0  0  0  0  0  0  0  0  0  0  0  0
   58.3140   22.1870   44.4560 C   0  0  0  0  0  0  0  0  0  0  0  0
   58.7032   21.6958   45.3600 H   0  0  0  0  0  0  0  0  0  0  0  0
   57.7450   21.4589   43.8592 H   0  0  0  0  0  0  0  0  0  0  0  0
   59.1529   22.5745   43.8592 H   0  0  0  0  0  0  0  0  0  0  0  0
   56.0230   23.1920   44.7820 C   0  0  0  0  0  0  0  0  0  0  0  0
   55.4350   22.0080   44.3470 O   0  0  0  0  0  0  0  0  0  0  0  0
   55.2200   24.2690   45.1580 C   0  0  0  0  0  0  0  0  0  0  0  0
   54.1247   24.1799   45.1086 H   0  0  0  0  0  0  0  0  0  0  0  0
  1  2  1  0
  2  3  1  0
  3  4  2  0
  4  5  1  0
  5  6  2  0
  5  7  1  0
  7  8  2  0
  8  9  1  0
  9 10  1  0
 10 11  1  0
 10 12  2  0
 12 13  1  0
 12 14  1  0
  4 15  1  0
 15 16  2  0
 16 17  1  0
 17 18  1  0
 17 19  1  0
 17 20  1  0
 16 21  1  0
 21 22  1  0
 21 23  2  0
 23 24  1  0
 23  3  1  0
 14  8  1  0
M  CHG  2   9  -1  22  -1
M  END
>  <UniqueID>  (3) 
3

>  <SMILES>  (3) 
Cc1nc(C(=O)/N=c2/[n-]ccs2)c(O)cc1[O-]

>  <Energy>  (3) 
58.920940206823154

>  <Genealogy>  (3) 
Cc1nc(C(=O)N=c2[n-]ccs2)c(O)cc1[O-] (protonated)
Cc1nc(C(=O)/N=c2/[n-]ccs2)c(O)cc1[O-] (cis-trans isomerization)
Cc1nc(C(=O)/N=c2/[n-]ccs2)c(O)cc1[O-] (3D coordinates assigned)
Cc1nc(C(=O)/N=c2/[n-]ccs2)c(O)cc1[O-] (optimized conformer: 58.920940206823154 kcal/mol)

>  <smiles>  (3) 
Cc1nc(C(=O)N=c2[nH]ccs2)c(O)cc1O

>  <score_type>  (3) 
oracle

>  <origin>  (3) 
adg

>  <m_score__min__energy>  (3) 
-10.380000000000001

>  <m_primary>  (3) 
energy

$$$$
3:0
     RDKit          3D

 46 49  0  0  0  0  0  0  0  0999 V2000
   54.7180   26.3400   45.9850 N   0  0  0  0  0  0  0  0  0  0  0  0
   55.8780   25.0770   46.1960 S   0  0  0  0  0  0  0  0  0  0  0  0
   55.6250   24.3820   47.5040 O   0  0  0  0  0  0  0  0  0  0  0  0
   55.7410   24.0760   45.0840 O   0  0  0  0  0  0  0  0  0  0  0  0
   57.5000   25.7610   46.1830 C   0  0  0  0  0  0  0  0  0  0  0  0
   58.6180   24.9310   46.0230 C   0  0  0  0  0  0  0  0  0  0  0  0
   59.9040   25.4770   46.0260 C   0  0  0  0  0  0  0  0  0  0  0  0
   60.0820   26.8520   46.1920 C   0  0  0  0  0  0  0  0  0  0  0  0
   58.9710   27.6960   46.3560 C   0  0  0  0  0  0  0  0  0  0  0  0
   59.1510   29.1130   46.5410 N   0  0  0  0  0  0  0  0  0  0  0  0
   60.2200   29.5410   47.2710 C   0  0  0  0  0  0  0  0  0  0  0  0
   60.4420   30.9000   47.5090 C   0  0  0  0  0  0  0  0  0  0  0  0
   61.5680   31.2730   48.3980 C   0  0  0  0  0  0  0  0  0  0  0  0
   62.7420   31.2480   47.9420 O   0  0  0  0  0  0  0  0  0  0  0  0
   61.3650   31.6710   49.7620 N   0  0  0  0  0  0  0  0  0  0  0  0
   60.1000   31.8280   50.4200 C   0  0  0  0  0  0  0  0  0  0  0  0
   59.2100   30.7460   50.4430 C   0  0  0  0  0  0  0  0  0  0  0  0
   57.9700   30.8630   51.0780 C   0  0  0  0  0  0  0  0  0  0  0  0
   57.6030   32.0700   51.6800 C   0  0  0  0  0  0  0  0  0  0  0  0
   58.4730   33.1650   51.6370 C   0  0  0  0  0  0  0  0  0  0  0  0
   59.7140   33.0490   51.0020 C   0  0  0  0  0  0  0  0  0  0  0  0
   59.5690   31.8500   46.9300 C   0  0  0  0  0  0  0  0  0  0  0  0
   59.8010   33.2370   47.0510 C   0  0  0  0  0  0  0  0  0  0  0  0
   58.9150   34.1620   46.5010 C   0  0  0  0  0  0  0  0  0  0  0  0
   59.1650   35.5240   46.6520 O   0  0  0  0  0  0  0  0  0  0  0  0
   57.7900   33.7190   45.8050 C   0  0  0  0  0  0  0  0  0  0  0  0
   57.5530   32.3540   45.6360 C   0  0  0  0  0  0  0  0  0  0  0  0
   56.4260   31.9690   44.9160 O   0  0  0  0  0  0  0  0  0  0  0  0
   58.4450   31.3990   46.1850 C   0  0  0  0  0  0  0  0  0  0  0  0
   58.2550   30.0070   46.0140 C   0  0  0  0  0  0  0  0  0  0  0  0
   57.2500   29.5770   45.3810 O   0  0  0  0  0  0  0  0  0  0  0  0
   57.6800   27.1400   46.3560 C   0  0  0  0  0  0  0  0  0  0  0  0
   55.2390   27.2440   46.0360 H   0  0  0  0  0  0  0  0  0  0  0  0
   58.4826   23.8469   45.8947 H   0  0  0  0  0  0  0  0  0  0  0  0
   60.7784   24.8221   45.8973 H   0  0  0  0  0  0  0  0  0  0  0  0
   61.0969   27.2763   46.1944 H   0  0  0  0  0  0  0  0  0  0  0  0
   60.9227   28.8008   47.6814 H   0  0  0  0  0  0  0  0  0  0  0  0
   59.4887   29.7986   49.9584 H   0  0  0  0  0  0  0  0  0  0  0  0
   57.2826   30.0046   51.1039 H   0  0  0  0  0  0  0  0  0  0  0  0
   56.6310   32.1589   52.1872 H   0  0  0  0  0  0  0  0  0  0  0  0
   58.1809   34.1177   52.1029 H   0  0  0  0  0  0  0  0  0  0  0  0
   60.3902   33.9155   50.9576 H   0  0  0  0  0  0  0  0  0  0  0  0
   60.6933   33.5929   47.5867 H   0  0  0  0  0  0  0  0  0  0  0  0
   58.9020   36.0210   47.4950 H   0  0  0  0  0  0  0  0  0  0  0  0
   57.0842   34.4513   45.3861 H   0  0  0  0  0  0  0  0  0  0  0  0
   56.8047   27.7920   46.4928 H   0  0  0  0  0  0  0  0  0  0  0  0
  1  2  1  0
  2  3  2  0
  2  4  2  0
  2  5  1  0
  5  6  2  0
  6  7  1  0
  7  8  2  0
  8  9  1  0
  9 10  1  0
 10 11  1  0
 11 12  2  0
 12 13  1  0
 13 14  2  0
 13 15  1  0
 15 16  1  0
 16 17  2  0
 17 18  1  0
 18 19  2  0
 19 20  1  0
 20 21  2  0
 12 22  1  0
 22 23  2  0
 23 24  1  0
 24 25  1  0
 24 26  2  0
 26 27  1  0
 27 28  1  0
 27 29  2  0
 29 30  1  0
 30 31  2  0
  9 32  2  0
 32  5  1  0
 30 10  1  0
 21 16  1  0
 29 22  1  0
  1 33  1  0
  6 34  1  0
  7 35  1  0
  8 36  1  0
 11 37  1  0
 17 38  1  0
 18 39  1  0
 19 40  1  0
 20 41  1  0
 21 42  1  0
 23 43  1  0
 25 44  1  0
 26 45  1  0
 32 46  1  0
M  CHG  3   1  -1  15  -1  28  -1
M  END
>  <UniqueID>  (4) 
4

>  <SMILES>  (4) 
[NH-]S(=O)(=O)c1cccc(-n2cc(C(=O)[N-]c3ccccc3)c3cc(O)cc([O-])c3c2=O)c1

>  <Energy>  (4) 
75.90897900216005

>  <Genealogy>  (4) 
[NH-]S(=O)(=O)c1cccc(-n2cc(C(=O)[N-]c3ccccc3)c3cc(O)cc([O-])c3c2=O)c1 (protonated)
[NH-]S(=O)(=O)c1cccc(-n2cc(C(=O)[N-]c3ccccc3)c3cc(O)cc([O-])c3c2=O)c1 (3D coordinates assigned)
[NH-]S(=O)(=O)c1cccc(-n2cc(C(=O)[N-]c3ccccc3)c3cc(O)cc([O-])c3c2=O)c1 (optimized conformer: 75.90897900216005 kcal/mol)

>  <smiles>  (4) 
NS(=O)(=O)c1cccc(-n2cc(C(=O)Nc3ccccc3)c3cc(O)cc(O)c3c2=O)c1

>  <score_type>  (4) 
oracle

>  <origin>  (4) 
adg

>  <m_score__min__energy>  (4) 
-14.369999999999999

>  <m_primary>  (4) 
energy

$$$$
4:0
     RDKit          3D

 45 47  0  0  0  0  0  0  0  0999 V2000
   61.1120   32.3130   51.0270 C   0  0  0  0  0  0  0  0  0  0  0  0
   61.5110   33.7300   50.6140 C   0  0  0  0  0  0  0  0  0  0  0  0
   61.8610   33.7800   49.1730 N   0  0  0  0  0  0  0  0  0  0  0  0
   63.1940   33.8110   48.8210 C   0  0  0  0  0  0  0  0  0  0  0  0
   64.0940   33.8390   49.7070 O   0  0  0  0  0  0  0  0  0  0  0  0
   63.5840   33.8060   47.4770 C   0  0  0  0  0  0  0  0  0  0  0  0
   62.6270   33.7780   46.4750 C   0  0  0  0  0  0  0  0  0  0  0  0
   61.2710   33.7770   46.8130 C   0  0  0  0  0  0  0  0  0  0  0  0
   60.2990   33.7280   45.7990 C   0  0  0  0  0  0  0  0  0  0  0  0
   58.9400   33.7010   46.1250 C   0  0  0  0  0  0  0  0  0  0  0  0
   57.7150   33.4500   44.8840 S   0  0  0  0  0  0  0  0  0  0  0  0
   58.3520   33.3800   43.5190 O   0  0  0  0  0  0  0  0  0  0  0  0
   56.7500   34.6010   44.9040 O   0  0  0  0  0  0  0  0  0  0  0  0
   56.8570   31.9750   45.2430 N   0  0  0  0  0  0  0  0  0  0  0  0
   57.5030   30.8010   44.6440 C   0  0  0  0  0  0  0  0  0  0  0  0
   58.2300   29.9620   45.6730 C   0  0  0  0  0  0  0  0  0  0  0  0
   58.9280   30.5980   46.7140 C   0  0  0  0  0  0  0  0  0  0  0  0
   59.6030   29.8450   47.6810 C   0  0  0  0  0  0  0  0  0  0  0  0
   59.5960   28.4510   47.6150 C   0  0  0  0  0  0  0  0  0  0  0  0
   58.9170   27.8020   46.5830 C   0  0  0  0  0  0  0  0  0  0  0  0
   58.2290   28.5500   45.5990 C   0  0  0  0  0  0  0  0  0  0  0  0
   57.5270   27.9250   44.5550 O   0  0  0  0  0  0  0  0  0  0  0  0
   58.1350   27.4040   43.3770 C   0  0  0  0  0  0  0  0  0  0  0  0
   58.5470   33.7760   47.4660 C   0  0  0  0  0  0  0  0  0  0  0  0
   59.5020   33.8390   48.4840 C   0  0  0  0  0  0  0  0  0  0  0  0
   60.8880   33.8020   48.1840 C   0  0  0  0  0  0  0  0  0  0  0  0
   61.0922   32.2428   52.1246 H   0  0  0  0  0  0  0  0  0  0  0  0
   60.1138   32.0818   50.6268 H   0  0  0  0  0  0  0  0  0  0  0  0
   61.8429   31.5949   50.6268 H   0  0  0  0  0  0  0  0  0  0  0  0
   60.6690   34.4117   50.8045 H   0  0  0  0  0  0  0  0  0  0  0  0
   62.3902   34.0340   51.2011 H   0  0  0  0  0  0  0  0  0  0  0  0
   64.6523   33.8243   47.2154 H   0  0  0  0  0  0  0  0  0  0  0  0
   62.9333   33.7567   45.4187 H   0  0  0  0  0  0  0  0  0  0  0  0
   60.6092   33.7108   44.7438 H   0  0  0  0  0  0  0  0  0  0  0  0
   56.7335   30.1810   44.1609 H   0  0  0  0  0  0  0  0  0  0  0  0
   58.2446   31.1587   43.9145 H   0  0  0  0  0  0  0  0  0  0  0  0
   58.9438   31.6965   46.7689 H   0  0  0  0  0  0  0  0  0  0  0  0
   60.1405   30.3530   48.4953 H   0  0  0  0  0  0  0  0  0  0  0  0
   60.1268   27.8627   48.3780 H   0  0  0  0  0  0  0  0  0  0  0  0
   58.9167   26.7031   46.5344 H   0  0  0  0  0  0  0  0  0  0  0  0
   58.9428   26.7118   43.6567 H   0  0  0  0  0  0  0  0  0  0  0  0
   57.3814   26.8669   42.7823 H   0  0  0  0  0  0  0  0  0  0  0  0
   58.5503   28.2309   42.7823 H   0  0  0  0  0  0  0  0  0  0  0  0
   57.4770   33.7854   47.7209 H   0  0  0  0  0  0  0  0  0  0  0  0
   59.1750   33.9183   49.5313 H   0  0  0  0  0  0  0  0  0  0  0  0
  1  2  1  0
  2  3  1  0
  3  4  1  0
  4  5  2  0
  4  6  1  0
  6  7  2  0
  7  8  1  0
  8  9  2  0
  9 10  1  0
 10 11  1  0
 11 12  2  0
 11 13  2  0
 11 14  1  0
 14 15  1  0
 15 16  1  0
 16 17  2  0
 17 18  1  0
 18 19  2  0
 19 20  1  0
 20 21  2  0
 21 22  1  0
 22 23  1  0
 10 24  2  0
 24 25  1  0
 25 26  2  0
 26  3  1  0
 26  8  1  0
 21 16  1  0
  1 27  1  0
  1 28  1  0
  1 29  1  0
  2 30  1  0
  2 31  1  0
  6 32  1  0
  7 33  1  0
  9 34  1  0
 15 35  1  0
 15 36  1  0
 17 37  1  0
 18 38  1  0
 19 39  1  0
 20 40  1  0
 23 41  1  0
 23 42  1  0
 23 43  1  0
 24 44  1  0
 25 45  1  0
M  CHG  1  14  -1
M  END
>  <UniqueID>  (5) 
5

>  <SMILES>  (5) 
CCn1c(=O)ccc2cc(S(=O)(=O)[N-]Cc3ccccc3OC)ccc21

>  <Energy>  (5) 
49.871346257181386

>  <Genealogy>  (5) 
CCn1c(=O)ccc2cc(S(=O)(=O)[N-]Cc3ccccc3OC)ccc21 (protonated)
CCn1c(=O)ccc2cc(S(=O)(=O)[N-]Cc3ccccc3OC)ccc21 (3D coordinates assigned)
CCn1c(=O)ccc2cc(S(=O)(=O)[N-]Cc3ccccc3OC)ccc21 (optimized conformer: 49.871346257181386 kcal/mol)

>  <smiles>  (5) 
CCn1c(=O)ccc2cc(S(=O)(=O)NCc3ccccc3OC)ccc21

>  <score_type>  (5) 
oracle

>  <origin>  (5) 
adg

>  <m_score__min__energy>  (5) 
-10.039999999999999

>  <m_primary>  (5) 
energy

$$$$
5:0
     RDKit          3D

 64 67  0  0  0  0  0  0  0  0999 V2000
   64.7620   32.1060   48.5120 H   0  0  0  0  0  0  0  0  0  0  0  0
   64.1840   32.6570   47.8900 O   0  0  0  0  0  0  0  0  0  0  0  0
   62.7850   32.6610   47.9340 C   0  0  0  0  0  0  0  0  0  0  0  0
   62.1090   31.6050   48.4540 C   0  0  0  0  0  0  0  0  0  0  0  0
   62.5070   31.1180   49.6550 N   0  0  0  0  0  0  0  0  0  0  0  0
   61.9410   30.0510   50.2750 C   0  0  0  0  0  0  0  0  0  0  0  0
   62.4840   29.6420   51.4580 C   0  0  0  0  0  0  0  0  0  0  0  0
   62.0850   28.4120   52.0080 O   0  0  0  0  0  0  0  0  0  0  0  0
   61.2950   27.8740   51.6760 H   0  0  0  0  0  0  0  0  0  0  0  0
   63.4690   30.4330   52.1740 N   0  0  0  0  0  0  0  0  0  0  0  0
   63.3150   30.3500   53.2050 H   0  0  0  0  0  0  0  0  0  0  0  0
   63.3690   31.4320   51.8790 H   0  0  0  0  0  0  0  0  0  0  0  0
   64.8580   30.0180   51.9070 C   0  0  0  0  0  0  0  0  0  0  0  0
   65.3371   29.7425   52.8581 H   0  0  0  0  0  0  0  0  0  0  0  0
   64.8342   29.1623   51.2162 H   0  0  0  0  0  0  0  0  0  0  0  0
   65.6510   31.1190   51.2630 C   0  0  0  0  0  0  0  0  0  0  0  0
   65.1180   32.1570   50.6610 O   0  0  0  0  0  0  0  0  0  0  0  0
   66.0860   32.9110   50.1930 C   0  0  0  0  0  0  0  0  0  0  0  0
   65.9451   33.8514   49.6400 H   0  0  0  0  0  0  0  0  0  0  0  0
   67.3070   32.3450   50.5000 C   0  0  0  0  0  0  0  0  0  0  0  0
   68.3014   32.7397   50.2445 H   0  0  0  0  0  0  0  0  0  0  0  0
   67.0290   31.1860   51.1910 C   0  0  0  0  0  0  0  0  0  0  0  0
   67.7525   30.4652   51.5997 H   0  0  0  0  0  0  0  0  0  0  0  0
   60.8490   29.4200   49.6240 C   0  0  0  0  0  0  0  0  0  0  0  0
   60.2260   28.4770   50.1830 O   0  0  0  0  0  0  0  0  0  0  0  0
   60.4570   29.8450   48.3760 N   0  0  0  0  0  0  0  0  0  0  0  0
   59.4120   29.1040   47.6320 C   0  0  0  0  0  0  0  0  0  0  0  0
   58.8629   28.4639   48.3382 H   0  0  0  0  0  0  0  0  0  0  0  0
   58.7501   29.8442   47.1586 H   0  0  0  0  0  0  0  0  0  0  0  0
   59.9990   28.2180   46.5150 C   0  0  0  0  0  0  0  0  0  0  0  0
   61.0500   28.0066   46.7615 H   0  0  0  0  0  0  0  0  0  0  0  0
   59.3747   27.3132   46.4744 H   0  0  0  0  0  0  0  0  0  0  0  0
   59.9520   28.8450   45.1060 C   0  0  0  0  0  0  0  0  0  0  0  0
   60.6982   29.6519   45.0598 H   0  0  0  0  0  0  0  0  0  0  0  0
   60.1613   28.0384   44.3879 H   0  0  0  0  0  0  0  0  0  0  0  0
   58.6010   29.4220   44.7420 C   0  0  0  0  0  0  0  0  0  0  0  0
   57.4230   28.7260   45.0680 C   0  0  0  0  0  0  0  0  0  0  0  0
   57.4846   27.7695   45.6077 H   0  0  0  0  0  0  0  0  0  0  0  0
   56.1740   29.2430   44.7100 C   0  0  0  0  0  0  0  0  0  0  0  0
   55.2587   28.6819   44.9496 H   0  0  0  0  0  0  0  0  0  0  0  0
   56.0860   30.4700   44.0490 C   0  0  0  0  0  0  0  0  0  0  0  0
   55.1037   30.8664   43.7524 H   0  0  0  0  0  0  0  0  0  0  0  0
   57.2460   31.1930   43.7650 C   0  0  0  0  0  0  0  0  0  0  0  0
   57.1751   32.1685   43.2616 H   0  0  0  0  0  0  0  0  0  0  0  0
   58.4980   30.6800   44.1190 C   0  0  0  0  0  0  0  0  0  0  0  0
   59.4071   31.2627   43.9094 H   0  0  0  0  0  0  0  0  0  0  0  0
   61.0440   30.9430   47.7960 C   0  0  0  0  0  0  0  0  0  0  0  0
   60.6440   31.3370   46.6660 O   0  0  0  0  0  0  0  0  0  0  0  0
   62.1120   33.8150   47.4140 N   0  0  0  0  0  0  0  0  0  0  0  0
   62.4830   34.2840   46.5570 H   0  0  0  0  0  0  0  0  0  0  0  0
   60.9550   34.3940   48.0910 C   0  0  0  0  0  0  0  0  0  0  0  0
   60.8274   33.9066   49.0688 H   0  0  0  0  0  0  0  0  0  0  0  0
   61.1249   35.4729   48.2219 H   0  0  0  0  0  0  0  0  0  0  0  0
   59.7060   34.1960   47.2730 C   0  0  0  0  0  0  0  0  0  0  0  0
   59.6250   34.7520   45.9850 C   0  0  0  0  0  0  0  0  0  0  0  0
   60.4655   35.3411   45.5892 H   0  0  0  0  0  0  0  0  0  0  0  0
   58.4810   34.5600   45.2040 C   0  0  0  0  0  0  0  0  0  0  0  0
   58.4228   35.0002   44.1976 H   0  0  0  0  0  0  0  0  0  0  0  0
   57.4120   33.8100   45.7000 C   0  0  0  0  0  0  0  0  0  0  0  0
   56.3040   33.6240   44.9410 F   0  0  0  0  0  0  0  0  0  0  0  0
   57.4860   33.2470   46.9770 C   0  0  0  0  0  0  0  0  0  0  0  0
   56.6443   32.6546   47.3651 H   0  0  0  0  0  0  0  0  0  0  0  0
   58.6280   33.4350   47.7630 C   0  0  0  0  0  0  0  0  0  0  0  0
   58.6840   32.8650   48.9940 F   0  0  0  0  0  0  0  0  0  0  0  0
  1  2  1  0
  2  3  1  0
  3  4  2  3
  4  5  1  0
  5  6  1  0
  6  7  2  0
  7  8  1  0
  8  9  1  0
  7 10  1  0
 10 11  1  0
 10 12  1  0
 10 13  1  0
 13 14  1  0
 13 15  1  0
 13 16  1  0
 16 17  1  0
 17 18  1  0
 18 19  1  0
 18 20  2  0
 20 21  1  0
 20 22  1  0
 22 23  1  0
  6 24  1  0
 24 25  2  0
 24 26  1  0
 26 27  1  0
 27 28  1  0
 27 29  1  0
 27 30  1  0
 30 31  1  0
 30 32  1  0
 30 33  1  0
 33 34  1  0
 33 35  1  0
 33 36  1  0
 36 37  2  0
 37 38  1  0
 37 39  1  0
 39 40  1  0
 39 41  2  0
 41 42  1  0
 41 43  1  0
 43 44  1  0
 43 45  2  0
 45 46  1  0
 26 47  1  0
 47 48  2  0
  3 49  1  0
 49 50  1  0
 49 51  1  0
 51 52  1  0
 51 53  1  0
 51 54  1  0
 54 55  2  0
 55 56  1  0
 55 57  1  0
 57 58  1  0
 57 59  2  0
 59 60  1  0
 59 61  1  0
 61 62  1  0
 61 63  2  0
 63 64  1  0
 47  4  1  0
 63 54  1  0
 22 16  2  0
 45 36  1  0
M  CHG  2   5  -1  10   1
M  END
>  <UniqueID>  (6) 
6

>  <SMILES>  (6) 
O=c1c(=C(O)NCc2ccc(F)cc2F)[n-]/c(=C(\O)[NH2+]Cc2ccco2)c(=O)n1CCCc1ccccc1

>  <Energy>  (6) 
111.066345545225

>  <Genealogy>  (6) 
O=c1c(=C(O)NCc2ccc(F)cc2F)[n-]c(=C(O)[NH2+]Cc2ccco2)c(=O)n1CCCc1ccccc1 (protonated)
O=c1c(=C(O)NCc2ccc(F)cc2F)[n-]/c(=C(\O)[NH2+]Cc2ccco2)c(=O)n1CCCc1ccccc1 (cis-trans isomerization)
O=c1c(=C(O)NCc2ccc(F)cc2F)[n-]/c(=C(\O)[NH2+]Cc2ccco2)c(=O)n1CCCc1ccccc1 (3D coordinates assigned)
O=c1c(=C(O)NCc2ccc(F)cc2F)[n-]/c(=C(\O)[NH2+]Cc2ccco2)c(=O)n1CCCc1ccccc1 (optimized conformer: 111.066345545225 kcal/mol)

>  <smiles>  (6) 
O=c1c(=C(O)NCc2ccco2)[nH]c(=C(O)NCc2ccc(F)cc2F)c(=O)n1CCCc1ccccc1

>  <score_type>  (6) 
oracle

>  <origin>  (6) 
adg

>  <m_score__min__energy>  (6) 
-9.7300000000000004

>  <m_primary>  (6) 
energy

$$$$
6:0
     RDKit          3D

 41 43  0  0  0  0  0  0  0  0999 V2000
   55.5330   25.3090   45.9690 C   0  0  0  0  0  0  0  0  0  0  0  0
   55.4710   26.7180   45.7740 O   0  0  0  0  0  0  0  0  0  0  0  0
   56.5960   27.5460   45.6560 C   0  0  0  0  0  0  0  0  0  0  0  0
   57.8860   27.1660   46.1010 C   0  0  0  0  0  0  0  0  0  0  0  0
   58.9840   28.0400   45.9490 C   0  0  0  0  0  0  0  0  0  0  0  0
   58.8160   29.3030   45.3560 C   0  0  0  0  0  0  0  0  0  0  0  0
   57.5360   29.6560   44.9320 C   0  0  0  0  0  0  0  0  0  0  0  0
   57.0650   30.8000   44.3170 C   0  0  0  0  0  0  0  0  0  0  0  0
   57.8590   31.9940   43.8760 C   0  0  0  0  0  0  0  0  0  0  0  0
   57.4070   33.2600   44.6030 C   0  0  0  0  0  0  0  0  0  0  0  0
   58.5540   33.9280   45.2160 N   0  0  0  0  0  0  0  0  0  0  0  0
   59.3920   33.3450   46.0170 C   0  0  0  0  0  0  0  0  0  0  0  0
   60.6910   33.7430   46.0270 N   0  0  0  0  0  0  0  0  0  0  0  0
   61.6020   33.1580   46.8510 C   0  0  0  0  0  0  0  0  0  0  0  0
   63.0250   33.6160   46.8330 C   0  0  0  0  0  0  0  0  0  0  0  0
   61.2010   32.1240   47.7020 C   0  0  0  0  0  0  0  0  0  0  0  0
   59.8610   31.7240   47.6840 C   0  0  0  0  0  0  0  0  0  0  0  0
   59.3880   30.6210   48.5740 C   0  0  0  0  0  0  0  0  0  0  0  0
   58.9880   32.3400   46.8430 N   0  0  0  0  0  0  0  0  0  0  0  0
   55.7090   30.5790   44.0990 C   0  0  0  0  0  0  0  0  0  0  0  0
   55.3480   29.3630   44.5690 N   0  0  0  0  0  0  0  0  0  0  0  0
   56.4650   28.8090   45.0730 C   0  0  0  0  0  0  0  0  0  0  0  0
   55.5427   25.0880   47.0465 H   0  0  0  0  0  0  0  0  0  0  0  0
   54.6548   24.8357   45.5056 H   0  0  0  0  0  0  0  0  0  0  0  0
   56.4494   24.9147   45.5056 H   0  0  0  0  0  0  0  0  0  0  0  0
   58.0334   26.1815   46.5690 H   0  0  0  0  0  0  0  0  0  0  0  0
   59.9800   27.7297   46.2978 H   0  0  0  0  0  0  0  0  0  0  0  0
   59.6660   29.9898   45.2307 H   0  0  0  0  0  0  0  0  0  0  0  0
   58.9228   31.8168   44.0924 H   0  0  0  0  0  0  0  0  0  0  0  0
   57.7003   32.1375   42.7970 H   0  0  0  0  0  0  0  0  0  0  0  0
   56.9316   33.9422   43.8829 H   0  0  0  0  0  0  0  0  0  0  0  0
   56.6896   32.9847   45.3901 H   0  0  0  0  0  0  0  0  0  0  0  0
   63.3859   33.7322   47.8656 H   0  0  0  0  0  0  0  0  0  0  0  0
   63.6432   32.8715   46.3101 H   0  0  0  0  0  0  0  0  0  0  0  0
   63.0929   34.5814   46.3101 H   0  0  0  0  0  0  0  0  0  0  0  0
   61.9241   31.6353   48.3716 H   0  0  0  0  0  0  0  0  0  0  0  0
   59.5154   30.9181   49.6254 H   0  0  0  0  0  0  0  0  0  0  0  0
   58.3247   30.4204   48.3759 H   0  0  0  0  0  0  0  0  0  0  0  0
   59.9756   29.7125   48.3759 H   0  0  0  0  0  0  0  0  0  0  0  0
   55.0268   31.2922   43.6132 H   0  0  0  0  0  0  0  0  0  0  0  0
   54.3940   28.9410   44.5320 H   0  0  0  0  0  0  0  0  0  0  0  0
  1  2  1  0
  2  3  1  0
  3  4  2  0
  4  5  1  0
  5  6  2  0
  6  7  1  0
  7  8  1  0
  8  9  1  0
  9 10  1  0
 10 11  1  0
 11 12  2  3
 12 13  1  0
 13 14  2  0
 14 15  1  0
 14 16  1  0
 16 17  2  0
 17 18  1  0
 17 19  1  0
  8 20  2  0
 20 21  1  0
 21 22  1  0
 22  3  1  0
 22  7  2  0
 19 12  1  0
  1 23  1  0
  1 24  1  0
  1 25  1  0
  4 26  1  0
  5 27  1  0
  6 28  1  0
  9 29  1  0
  9 30  1  0
 10 31  1  0
 10 32  1  0
 15 33  1  0
 15 34  1  0
 15 35  1  0
 16 36  1  0
 18 37  1  0
 18 38  1  0
 18 39  1  0
 20 40  1  0
 21 41  1  0
M  CHG  1  19  -1
M  END
>  <UniqueID>  (7) 
7

>  <SMILES>  (7) 
COc1cccc2c(CCN=c3nc(C)cc(C)[n-]3)c[nH]c12

>  <Energy>  (7) 
68.99134819009609

>  <Genealogy>  (7) 
COc1cccc2c(CCN=c3nc(C)cc(C)[n-]3)c[nH]c12 (protonated)
COc1cccc2c(CCN=c3nc(C)cc(C)[n-]3)c[nH]c12 (3D coordinates assigned)
COc1cccc2c(CCN=c3nc(C)cc(C)[n-]3)c[nH]c12 (optimized conformer: 68.99134819009609 kcal/mol)

>  <smiles>  (7) 
COc1cccc2c(CCN=c3nc(C)cc(C)[nH]3)c[nH]c12

>  <score_type>  (7) 
oracle

>  <origin>  (7) 
adg

>  <m_score__min__energy>  (7) 
-8.9800000000000004

>  <m_primary>  (7) 
energy

$$$$
7:0
     RDKit          3D

 41 42  0  0  0  0  0  0  0  0999 V2000
   59.9900   26.9130   46.2800 C   0  0  0  0  0  0  0  0  0  0  0  0
   58.4910   26.8750   45.9860 C   0  0  0  0  0  0  0  0  0  0  0  0
   58.1850   26.7510   44.4860 C   0  0  0  0  0  0  0  0  0  0  0  0
   58.1610   28.1120   43.7740 C   0  0  0  0  0  0  0  0  0  0  0  0
   58.4410   29.1870   44.7240 N   0  0  0  0  0  0  0  0  0  0  0  0
   57.4160   30.0300   45.2640 C   0  0  0  0  0  0  0  0  0  0  0  0
   56.2210   29.8990   44.8810 O   0  0  0  0  0  0  0  0  0  0  0  0
   57.7720   31.0350   46.1720 O   0  0  0  0  0  0  0  0  0  0  0  0
   58.1800   32.3340   45.8270 C   0  0  0  0  0  0  0  0  0  0  0  0
   57.2830   33.2550   45.2540 C   0  0  0  0  0  0  0  0  0  0  0  0
   57.7000   34.5500   44.9420 C   0  0  0  0  0  0  0  0  0  0  0  0
   59.0130   34.9430   45.2020 C   0  0  0  0  0  0  0  0  0  0  0  0
   59.9100   34.0460   45.7840 C   0  0  0  0  0  0  0  0  0  0  0  0
   59.5020   32.7410   46.1150 C   0  0  0  0  0  0  0  0  0  0  0  0
   60.4750   31.7940   46.7130 C   0  0  0  0  0  0  0  0  0  0  0  0
   60.2840   30.5550   46.5710 O   0  0  0  0  0  0  0  0  0  0  0  0
   61.6720   32.2570   47.4590 C   0  0  0  0  0  0  0  0  0  0  0  0
   61.8800   31.8830   48.8010 C   0  0  0  0  0  0  0  0  0  0  0  0
   63.0190   32.3160   49.4870 C   0  0  0  0  0  0  0  0  0  0  0  0
   63.9640   33.1160   48.8420 C   0  0  0  0  0  0  0  0  0  0  0  0
   63.7750   33.4820   47.5080 C   0  0  0  0  0  0  0  0  0  0  0  0
   62.6380   33.0520   46.8160 C   0  0  0  0  0  0  0  0  0  0  0  0
   60.1502   26.9171   47.3683 H   0  0  0  0  0  0  0  0  0  0  0  0
   60.4722   26.0268   45.8417 H   0  0  0  0  0  0  0  0  0  0  0  0
   60.4267   27.8225   45.8417 H   0  0  0  0  0  0  0  0  0  0  0  0
   58.0517   26.0118   46.5075 H   0  0  0  0  0  0  0  0  0  0  0  0
   58.0592   27.8242   46.3362 H   0  0  0  0  0  0  0  0  0  0  0  0
   58.9581   26.1228   44.0194 H   0  0  0  0  0  0  0  0  0  0  0  0
   57.1847   26.3046   44.3856 H   0  0  0  0  0  0  0  0  0  0  0  0
   58.9238   28.1204   42.9815 H   0  0  0  0  0  0  0  0  0  0  0  0
   57.1633   28.2703   43.3387 H   0  0  0  0  0  0  0  0  0  0  0  0
   59.4340   29.3800   44.9870 H   0  0  0  0  0  0  0  0  0  0  0  0
   56.2454   32.9519   45.0505 H   0  0  0  0  0  0  0  0  0  0  0  0
   56.9926   35.2613   44.4907 H   0  0  0  0  0  0  0  0  0  0  0  0
   59.3419   35.9615   44.9479 H   0  0  0  0  0  0  0  0  0  0  0  0
   60.9442   34.3620   45.9855 H   0  0  0  0  0  0  0  0  0  0  0  0
   61.1424   31.2468   49.3122 H   0  0  0  0  0  0  0  0  0  0  0  0
   63.1707   32.0257   50.5371 H   0  0  0  0  0  0  0  0  0  0  0  0
   64.8575   33.4580   49.3848 H   0  0  0  0  0  0  0  0  0  0  0  0
   64.5218   34.1099   47.0001 H   0  0  0  0  0  0  0  0  0  0  0  0
   62.4985   33.3372   45.7628 H   0  0  0  0  0  0  0  0  0  0  0  0
  1  2  1  0
  2  3  1  0
  3  4  1  0
  4  5  1  0
  5  6  1  0
  6  7  2  0
  6  8  1  0
  8  9  1  0
  9 10  2  0
 10 11  1  0
 11 12  2  0
 12 13  1  0
 13 14  2  0
 14 15  1  0
 15 16  2  0
 15 17  1  0
 17 18  2  0
 18 19  1  0
 19 20  2  0
 20 21  1  0
 21 22  2  0
 14  9  1  0
 22 17  1  0
  1 23  1  0
  1 24  1  0
  1 25  1  0
  2 26  1  0
  2 27  1  0
  3 28  1  0
  3 29  1  0
  4 30  1  0
  4 31  1  0
  5 32  1  0
 10 33  1  0
 11 34  1  0
 12 35  1  0
 13 36  1  0
 18 37  1  0
 19 38  1  0
 20 39  1  0
 21 40  1  0
 22 41  1  0
M  END
>  <UniqueID>  (8) 
8

>  <SMILES>  (8) 
CCCCNC(=O)Oc1ccccc1C(=O)c1ccccc1

>  <Energy>  (8) 
44.343691854673686

>  <Genealogy>  (8) 
CCCCNC(=O)Oc1ccccc1C(=O)c1ccccc1 (3D coordinates assigned)
CCCCNC(=O)Oc1ccccc1C(=O)c1ccccc1 (optimized conformer: 44.343691854673686 kcal/mol)

>  <smiles>  (8) 
CCCCNC(=O)Oc1ccccc1C(=O)c1ccccc1

>  <score_type>  (8) 
oracle

>  <origin>  (8) 
adg

>  <m_score__min__energy>  (8) 
-8.4100000000000001

>  <m_primary>  (8) 
energy

$$$$
8:0
     RDKit          3D

 48 51  0  0  0  0  0  0  0  0999 V2000
   56.0590   21.2950   45.2330 C   0  0  0  0  0  0  0  0  0  0  0  0
   56.6720   22.0840   44.0470 C   0  0  0  0  0  0  0  0  0  0  0  0
   56.9690   21.0830   42.9190 C   0  0  0  0  0  0  0  0  0  0  0  0
   57.9970   22.7700   44.4590 C   0  0  0  0  0  0  0  0  0  0  0  0
   57.7520   24.0010   45.2740 C   0  0  0  0  0  0  0  0  0  0  0  0
   58.7690   24.5420   45.9950 N   0  0  0  0  0  0  0  0  0  0  0  0
   58.5910   25.6840   46.7060 C   0  0  0  0  0  0  0  0  0  0  0  0
   59.9520   26.3760   47.6420 S   0  0  0  0  0  0  0  0  0  0  0  0
   59.0320   27.8650   48.1640 C   0  0  0  0  0  0  0  0  0  0  0  0
   58.8830   28.8270   47.0250 C   0  0  0  0  0  0  0  0  0  0  0  0
   59.8540   29.5650   46.7060 O   0  0  0  0  0  0  0  0  0  0  0  0
   57.6380   28.9160   46.3180 N   0  0  0  0  0  0  0  0  0  0  0  0
   57.4810   29.6550   45.0930 C   0  0  0  0  0  0  0  0  0  0  0  0
   56.9930   29.0030   43.9480 C   0  0  0  0  0  0  0  0  0  0  0  0
   56.7780   29.7060   42.7620 C   0  0  0  0  0  0  0  0  0  0  0  0
   57.0380   31.0740   42.7000 C   0  0  0  0  0  0  0  0  0  0  0  0
   57.5210   31.7520   43.8270 C   0  0  0  0  0  0  0  0  0  0  0  0
   57.7840   33.1300   43.7590 C   0  0  0  0  0  0  0  0  0  0  0  0
   58.2790   33.8070   44.8740 C   0  0  0  0  0  0  0  0  0  0  0  0
   58.5220   33.1180   46.0620 C   0  0  0  0  0  0  0  0  0  0  0  0
   58.2630   31.7470   46.1480 C   0  0  0  0  0  0  0  0  0  0  0  0
   57.7490   31.0450   45.0390 C   0  0  0  0  0  0  0  0  0  0  0  0
   57.3840   26.3050   46.7060 N   0  0  0  0  0  0  0  0  0  0  0  0
   56.3420   25.8110   45.9900 C   0  0  0  0  0  0  0  0  0  0  0  0
   55.2330   26.4080   46.0180 O   0  0  0  0  0  0  0  0  0  0  0  0
   56.5080   24.6420   45.2310 C   0  0  0  0  0  0  0  0  0  0  0  0
   55.3580   24.0240   44.4690 C   0  0  0  0  0  0  0  0  0  0  0  0
   55.7650   23.0490   43.5190 O   0  0  0  0  0  0  0  0  0  0  0  0
   56.4007   21.7348   46.1816 H   0  0  0  0  0  0  0  0  0  0  0  0
   54.9615   21.3463   45.1793 H   0  0  0  0  0  0  0  0  0  0  0  0
   56.3800   20.2442   45.1793 H   0  0  0  0  0  0  0  0  0  0  0  0
   57.2563   20.1146   43.3544 H   0  0  0  0  0  0  0  0  0  0  0  0
   56.0706   20.9536   42.2977 H   0  0  0  0  0  0  0  0  0  0  0  0
   57.7927   21.4645   42.2977 H   0  0  0  0  0  0  0  0  0  0  0  0
   58.5953   22.0628   45.0522 H   0  0  0  0  0  0  0  0  0  0  0  0
   58.5299   23.0652   43.5431 H   0  0  0  0  0  0  0  0  0  0  0  0
   58.0337   27.5666   48.5165 H   0  0  0  0  0  0  0  0  0  0  0  0
   59.5921   28.3596   48.9713 H   0  0  0  0  0  0  0  0  0  0  0  0
   56.8120   28.4080   46.7080 H   0  0  0  0  0  0  0  0  0  0  0  0
   56.7778   27.9250   43.9871 H   0  0  0  0  0  0  0  0  0  0  0  0
   56.4020   29.1787   41.8728 H   0  0  0  0  0  0  0  0  0  0  0  0
   56.8634   31.6232   41.7630 H   0  0  0  0  0  0  0  0  0  0  0  0
   57.5990   33.6776   42.8231 H   0  0  0  0  0  0  0  0  0  0  0  0
   58.4782   34.8873   44.8159 H   0  0  0  0  0  0  0  0  0  0  0  0
   58.9193   33.6559   46.9354 H   0  0  0  0  0  0  0  0  0  0  0  0
   58.4618   31.2119   47.0883 H   0  0  0  0  0  0  0  0  0  0  0  0
   54.6800   23.5449   45.1906 H   0  0  0  0  0  0  0  0  0  0  0  0
   54.8680   24.8348   43.9100 H   0  0  0  0  0  0  0  0  0  0  0  0
  1  2  1  0
  2  3  1  0
  2  4  1  0
  4  5  1  0
  5  6  1  0
  6  7  1  0
  7  8  1  0
  8  9  1  0
  9 10  1  0
 10 11  2  0
 10 12  1  0
 12 13  1  0
 13 14  2  0
 14 15  1  0
 15 16  2  0
 16 17  1  0
 17 18  2  0
 18 19  1  0
 19 20  2  0
 20 21  1  0
 21 22  2  0
  7 23  2  0
 23 24  1  0
 24 25  2  0
 24 26  1  0
 26 27  1  0
 27 28  1  0
 28  2  1  0
 26  5  2  0
 22 13  1  0
 22 17  1  0
  1 29  1  0
  1 30  1  0
  1 31  1  0
  3 32  1  0
  3 33  1  0
  3 34  1  0
  4 35  1  0
  4 36  1  0
  9 37  1  0
  9 38  1  0
 12 39  1  0
 14 40  1  0
 15 41  1  0
 16 42  1  0
 18 43  1  0
 19 44  1  0
 20 45  1  0
 21 46  1  0
 27 47  1  0
 27 48  1  0
M  CHG  1   6  -1
M  END
>  <UniqueID>  (9) 
9

>  <SMILES>  (9) 
CC1(C)Cc2[n-]c(SCC(=O)Nc3cccc4ccccc34)nc(=O)c2CO1

>  <Energy>  (9) 
62.05318431427946

>  <Genealogy>  (9) 
CC1(C)Cc2[n-]c(SCC(=O)Nc3cccc4ccccc34)nc(=O)c2CO1 (protonated)
CC1(C)Cc2[n-]c(SCC(=O)Nc3cccc4ccccc34)nc(=O)c2CO1 (3D coordinates assigned)
CC1(C)Cc2[n-]c(SCC(=O)Nc3cccc4ccccc34)nc(=O)c2CO1 (nonaromatic ring conformer: 62.05318431427946 kcal/mol)

>  <smiles>  (9) 
CC1(C)Cc2[nH]c(SCC(=O)Nc3cccc4ccccc34)nc(=O)c2CO1

>  <score_type>  (9) 
oracle

>  <origin>  (9) 
adg

>  <m_score__min__energy>  (9) 
-11.029999999999999

>  <m_primary>  (9) 
energy

$$$$
9:0
     RDKit          3D

 36 38  0  0  0  0  0  0  0  0999 V2000
   54.1816   29.9957   44.2439 H   0  0  0  0  0  0  0  0  0  0  0  0
   55.2330   29.7400   44.4420 C   0  0  0  0  0  0  0  0  0  0  0  0
   55.5380   28.6020   45.1170 N   0  0  0  0  0  0  0  0  0  0  0  0
   56.8250   28.2480   45.3700 C   0  0  0  0  0  0  0  0  0  0  0  0
   57.1880   26.6170   46.2940 Br  0  0  0  0  0  0  0  0  0  0  0  0
   57.8770   29.0670   44.9460 C   0  0  0  0  0  0  0  0  0  0  0  0
   58.9195   28.7788   45.1465 H   0  0  0  0  0  0  0  0  0  0  0  0
   57.5900   30.2660   44.2590 C   0  0  0  0  0  0  0  0  0  0  0  0
   58.5120   31.0810   43.8210 N   0  0  0  0  0  0  0  0  0  0  0  0
   58.4600   32.5090   43.6570 C   0  0  0  0  0  0  0  0  0  0  0  0
   58.2550   33.0290   42.5270 O   0  0  0  0  0  0  0  0  0  0  0  0
   58.7400   33.3780   44.8050 C   0  0  0  0  0  0  0  0  0  0  0  0
   59.2610   32.9450   45.9700 N   0  0  0  0  0  0  0  0  0  0  0  0
   59.3470   34.0760   46.7010 C   0  0  0  0  0  0  0  0  0  0  0  0
   59.9040   34.1230   48.0870 C   0  0  0  0  0  0  0  0  0  0  0  0
   59.3835   33.3837   48.7135 H   0  0  0  0  0  0  0  0  0  0  0  0
   59.7582   35.1322   48.4995 H   0  0  0  0  0  0  0  0  0  0  0  0
   61.3810   33.8070   48.0640 C   0  0  0  0  0  0  0  0  0  0  0  0
   62.0420   33.7950   46.8220 C   0  0  0  0  0  0  0  0  0  0  0  0
   61.4822   34.0334   45.9056 H   0  0  0  0  0  0  0  0  0  0  0  0
   63.4000   33.4840   46.7400 C   0  0  0  0  0  0  0  0  0  0  0  0
   63.9061   33.4858   45.7633 H   0  0  0  0  0  0  0  0  0  0  0  0
   64.1160   33.1710   47.8950 C   0  0  0  0  0  0  0  0  0  0  0  0
   65.1870   32.9290   47.8280 H   0  0  0  0  0  0  0  0  0  0  0  0
   63.4770   33.1640   49.1360 C   0  0  0  0  0  0  0  0  0  0  0  0
   64.0495   32.9178   50.0424 H   0  0  0  0  0  0  0  0  0  0  0  0
   62.1070   33.4690   49.2380 C   0  0  0  0  0  0  0  0  0  0  0  0
   61.4580   33.4650   50.5980 C   0  0  0  0  0  0  0  0  0  0  0  0
   62.2360   33.4698   51.3756 H   0  0  0  0  0  0  0  0  0  0  0  0
   60.8266   34.3593   50.7056 H   0  0  0  0  0  0  0  0  0  0  0  0
   60.8376   32.5630   50.7056 H   0  0  0  0  0  0  0  0  0  0  0  0
   58.9240   35.1380   46.0520 O   0  0  0  0  0  0  0  0  0  0  0  0
   58.5360   34.7380   44.8680 C   0  0  0  0  0  0  0  0  0  0  0  0
   58.1227   35.3720   44.0697 H   0  0  0  0  0  0  0  0  0  0  0  0
   56.2510   30.5860   43.9990 C   0  0  0  0  0  0  0  0  0  0  0  0
   56.0020   31.5037   43.4459 H   0  0  0  0  0  0  0  0  0  0  0  0
  1  2  1  0
  2  3  1  0
  3  4  1  0
  4  5  1  0
  4  6  2  0
  6  7  1  0
  6  8  1  0
  8  9  2  0
  9 10  1  0
 10 11  2  0
 10 12  1  0
 12 13  1  0
 13 14  2  0
 14 15  1  0
 15 16  1  0
 15 17  1  0
 15 18  1  0
 18 19  2  0
 19 20  1  0
 19 21  1  0
 21 22  1  0
 21 23  2  0
 23 24  1  0
 23 25  1  0
 25 26  1  0
 25 27  2  0
 27 28  1  0
 28 29  1  0
 28 30  1  0
 28 31  1  0
 14 32  1  0
 32 33  1  0
 33 34  1  0
  8 35  1  0
 35 36  1  0
 35  2  2  0
 33 12  2  0
 27 18  1  0
M  CHG  1   3  -1
M  END
>  <UniqueID>  (10) 
10

>  <SMILES>  (10) 
Cc1ccccc1Cc1nc(C(=O)/N=c2/cc[n-]c(Br)c2)co1

>  <Energy>  (10) 
74.42842341148129

>  <Genealogy>  (10) 
Cc1ccccc1Cc1nc(C(=O)N=c2cc[n-]c(Br)c2)co1 (protonated)
Cc1ccccc1Cc1nc(C(=O)/N=c2/cc[n-]c(Br)c2)co1 (cis-trans isomerization)
Cc1ccccc1Cc1nc(C(=O)/N=c2/cc[n-]c(Br)c2)co1 (3D coordinates assigned)
Cc1ccccc1Cc1nc(C(=O)/N=c2/cc[n-]c(Br)c2)co1 (optimized conformer: 74.42842341148129 kcal/mol)

>  <smiles>  (10) 
Cc1ccccc1Cc1nc(C(=O)N=c2cc[nH]c(Br)c2)co1

>  <score_type>  (10) 
oracle

>  <origin>  (10) 
adg

>  <m_score__min__energy>  (10) 
-9.9600000000000009

>  <m_primary>  (10) 
energy

$$$$
10:0
     RDKit          3D

 49 52  0  0  0  0  0  0  0  0999 V2000
   54.8510   24.7840   45.6150 C   0  0  0  0  0  0  0  0  0  0  0  0
   55.3170   25.9500   46.2860 O   0  0  0  0  0  0  0  0  0  0  0  0
   56.6600   26.3560   46.3320 C   0  0  0  0  0  0  0  0  0  0  0  0
   57.4390   25.9490   47.4220 C   0  0  0  0  0  0  0  0  0  0  0  0
   58.7800   26.3320   47.5160 C   0  0  0  0  0  0  0  0  0  0  0  0
   59.3550   27.1240   46.5210 C   0  0  0  0  0  0  0  0  0  0  0  0
   58.5940   27.5350   45.4170 C   0  0  0  0  0  0  0  0  0  0  0  0
   59.2140   28.4100   44.3620 C   0  0  0  0  0  0  0  0  0  0  0  0
   59.3120   29.7860   44.8410 N   0  0  0  0  0  0  0  0  0  0  0  0
   58.1550   30.5600   45.2010 C   0  0  0  0  0  0  0  0  0  0  0  0
   57.0150   30.0210   45.2050 O   0  0  0  0  0  0  0  0  0  0  0  0
   58.2860   31.9770   45.6040 C   0  0  0  0  0  0  0  0  0  0  0  0
   57.2800   32.8920   45.2550 C   0  0  0  0  0  0  0  0  0  0  0  0
   57.3800   34.2290   45.6400 C   0  0  0  0  0  0  0  0  0  0  0  0
   58.4950   34.6490   46.3640 C   0  0  0  0  0  0  0  0  0  0  0  0
   59.4750   33.7620   46.6770 N   0  0  0  0  0  0  0  0  0  0  0  0
   59.4050   32.4480   46.3230 C   0  0  0  0  0  0  0  0  0  0  0  0
   60.4710   31.5810   46.6060 O   0  0  0  0  0  0  0  0  0  0  0  0
   61.6350   31.9260   47.3080 C   0  0  0  0  0  0  0  0  0  0  0  0
   62.5250   32.9100   46.8420 C   0  0  0  0  0  0  0  0  0  0  0  0
   63.6670   33.2390   47.5790 C   0  0  0  0  0  0  0  0  0  0  0  0
   63.9300   32.5970   48.7970 C   0  0  0  0  0  0  0  0  0  0  0  0
   65.0730   32.9180   49.5450 C   0  0  0  0  0  0  0  0  0  0  0  0
   65.3190   32.2740   50.7610 C   0  0  0  0  0  0  0  0  0  0  0  0
   64.4280   31.3090   51.2390 C   0  0  0  0  0  0  0  0  0  0  0  0
   63.2850   30.9810   50.5050 C   0  0  0  0  0  0  0  0  0  0  0  0
   63.0260   31.6190   49.2810 C   0  0  0  0  0  0  0  0  0  0  0  0
   61.8830   31.2990   48.5340 C   0  0  0  0  0  0  0  0  0  0  0  0
   57.2440   27.1540   45.3280 C   0  0  0  0  0  0  0  0  0  0  0  0
   54.5496   24.0298   46.3569 H   0  0  0  0  0  0  0  0  0  0  0  0
   53.9877   25.0440   44.9848 H   0  0  0  0  0  0  0  0  0  0  0  0
   55.6557   24.3773   44.9848 H   0  0  0  0  0  0  0  0  0  0  0  0
   56.9928   25.3238   48.2094 H   0  0  0  0  0  0  0  0  0  0  0  0
   59.3838   26.0083   48.3766 H   0  0  0  0  0  0  0  0  0  0  0  0
   60.4092   27.4270   46.6030 H   0  0  0  0  0  0  0  0  0  0  0  0
   60.2207   28.0353   44.1249 H   0  0  0  0  0  0  0  0  0  0  0  0
   58.5830   28.3878   43.4613 H   0  0  0  0  0  0  0  0  0  0  0  0
   60.2660   30.1810   45.0010 H   0  0  0  0  0  0  0  0  0  0  0  0
   56.4088   32.5530   44.6752 H   0  0  0  0  0  0  0  0  0  0  0  0
   56.5875   34.9444   45.3752 H   0  0  0  0  0  0  0  0  0  0  0  0
   58.5811   35.6986   46.6817 H   0  0  0  0  0  0  0  0  0  0  0  0
   62.3215   33.4244   45.8912 H   0  0  0  0  0  0  0  0  0  0  0  0
   64.3613   34.0042   47.2016 H   0  0  0  0  0  0  0  0  0  0  0  0
   65.7766   33.6777   49.1738 H   0  0  0  0  0  0  0  0  0  0  0  0
   66.2169   32.5275   51.3437 H   0  0  0  0  0  0  0  0  0  0  0  0
   64.6273   30.8058   52.1966 H   0  0  0  0  0  0  0  0  0  0  0  0
   62.5867   30.2216   50.8867 H   0  0  0  0  0  0  0  0  0  0  0  0
   61.1751   30.5484   48.9154 H   0  0  0  0  0  0  0  0  0  0  0  0
   56.6394   27.4808   44.4691 H   0  0  0  0  0  0  0  0  0  0  0  0
  1  2  1  0
  2  3  1  0
  3  4  2  0
  4  5  1  0
  5  6  2  0
  6  7  1  0
  7  8  1  0
  8  9  1  0
  9 10  1  0
 10 11  2  0
 10 12  1  0
 12 13  2  0
 13 14  1  0
 14 15  2  0
 15 16  1  0
 16 17  2  0
 17 18  1  0
 18 19  1  0
 19 20  2  0
 20 21  1  0
 21 22  2  0
 22 23  1  0
 23 24  2  0
 24 25  1  0
 25 26  2  0
 26 27  1  0
 27 28  2  0
  7 29  2  0
 29  3  1  0
 17 12  1  0
 28 19  1  0
 27 22  1  0
  1 30  1  0
  1 31  1  0
  1 32  1  0
  4 33  1  0
  5 34  1  0
  6 35  1  0
  8 36  1  0
  8 37  1  0
  9 38  1  0
 13 39  1  0
 14 40  1  0
 15 41  1  0
 20 42  1  0
 21 43  1  0
 23 44  1  0
 24 45  1  0
 25 46  1  0
 26 47  1  0
 28 48  1  0
 29 49  1  0
M  END
>  <UniqueID>  (11) 
11

>  <SMILES>  (11) 
COc1cccc(CNC(=O)c2cccnc2Oc2ccc3ccccc3c2)c1

>  <Energy>  (11) 
62.92698236204066

>  <Genealogy>  (11) 
COc1cccc(CNC(=O)c2cccnc2Oc2ccc3ccccc3c2)c1 (3D coordinates assigned)
COc1cccc(CNC(=O)c2cccnc2Oc2ccc3ccccc3c2)c1 (optimized conformer: 62.92698236204066 kcal/mol)

>  <smiles>  (11) 
COc1cccc(CNC(=O)c2cccnc2Oc2ccc3ccccc3c2)c1

>  <score_type>  (11) 
oracle

>  <origin>  (11) 
adg

>  <m_score__min__energy>  (11) 
-9.4800000000000004

>  <m_primary>  (11) 
energy

$$$$
11:0
     RDKit          3D

 36 37  0  0  0  0  0  0  0  0999 V2000
   60.0550   29.9620   47.2960 C   0  0  0  0  0  0  0  0  0  0  0  0
   59.8340   30.6200   45.9370 C   0  0  0  0  0  0  0  0  0  0  0  0
   58.9730   29.7600   45.0410 C   0  0  0  0  0  0  0  0  0  0  0  0
   59.1360   28.3670   45.0850 C   0  0  0  0  0  0  0  0  0  0  0  0
   58.3340   27.5460   44.2920 C   0  0  0  0  0  0  0  0  0  0  0  0
   57.3930   28.0890   43.4750 N   0  0  0  0  0  0  0  0  0  0  0  0
   57.2110   29.4360   43.4020 C   0  0  0  0  0  0  0  0  0  0  0  0
   57.9960   30.3040   44.1750 C   0  0  0  0  0  0  0  0  0  0  0  0
   57.7540   31.7190   44.0990 N   0  0  0  0  0  0  0  0  0  0  0  0
   58.1250   32.4690   42.8960 C   0  0  0  0  0  0  0  0  0  0  0  0
   57.1220   32.4120   45.2250 C   0  0  0  0  0  0  0  0  0  0  0  0
   58.1320   33.2640   45.9440 C   0  0  0  0  0  0  0  0  0  0  0  0
   58.7380   34.3500   45.2890 C   0  0  0  0  0  0  0  0  0  0  0  0
   59.6310   35.1750   45.9780 C   0  0  0  0  0  0  0  0  0  0  0  0
   59.9160   34.9310   47.3270 C   0  0  0  0  0  0  0  0  0  0  0  0
   59.3060   33.8590   47.9890 C   0  0  0  0  0  0  0  0  0  0  0  0
   59.6850   33.5340   49.8300 Br  0  0  0  0  0  0  0  0  0  0  0  0
   58.4140   33.0290   47.3010 C   0  0  0  0  0  0  0  0  0  0  0  0
   59.8140   30.6794   48.0943 H   0  0  0  0  0  0  0  0  0  0  0  0
   59.4037   29.0802   47.3867 H   0  0  0  0  0  0  0  0  0  0  0  0
   61.1065   29.6521   47.3867 H   0  0  0  0  0  0  0  0  0  0  0  0
   59.3379   31.5904   46.0858 H   0  0  0  0  0  0  0  0  0  0  0  0
   60.8130   30.7520   45.4532 H   0  0  0  0  0  0  0  0  0  0  0  0
   59.8959   27.9225   45.7445 H   0  0  0  0  0  0  0  0  0  0  0  0
   58.4637   26.4543   44.3280 H   0  0  0  0  0  0  0  0  0  0  0  0
   56.7970   27.4590   42.8930 H   0  0  0  0  0  0  0  0  0  0  0  0
   56.4421   29.8471   42.7314 H   0  0  0  0  0  0  0  0  0  0  0  0
   58.5953   33.4198   43.1872 H   0  0  0  0  0  0  0  0  0  0  0  0
   58.8341   31.8769   42.2989 H   0  0  0  0  0  0  0  0  0  0  0  0
   57.2240   32.6733   42.2989 H   0  0  0  0  0  0  0  0  0  0  0  0
   56.3097   33.0511   44.8485 H   0  0  0  0  0  0  0  0  0  0  0  0
   56.7189   31.6655   45.9252 H   0  0  0  0  0  0  0  0  0  0  0  0
   58.5089   34.5509   44.2320 H   0  0  0  0  0  0  0  0  0  0  0  0
   60.1111   36.0180   45.4594 H   0  0  0  0  0  0  0  0  0  0  0  0
   60.6195   35.5819   47.8668 H   0  0  0  0  0  0  0  0  0  0  0  0
   57.9318   32.1898   47.8237 H   0  0  0  0  0  0  0  0  0  0  0  0
  1  2  1  0
  2  3  1  0
  3  4  2  0
  4  5  1  0
  5  6  2  0
  6  7  1  0
  7  8  2  0
  8  9  1  0
  9 10  1  0
  9 11  1  0
 11 12  1  0
 12 13  2  0
 13 14  1  0
 14 15  2  0
 15 16  1  0
 16 17  1  0
 16 18  2  0
  8  3  1  0
 18 12  1  0
  1 19  1  0
  1 20  1  0
  1 21  1  0
  2 22  1  0
  2 23  1  0
  4 24  1  0
  5 25  1  0
  6 26  1  0
  7 27  1  0
 10 28  1  0
 10 29  1  0
 10 30  1  0
 11 31  1  0
 11 32  1  0
 13 33  1  0
 14 34  1  0
 15 35  1  0
 18 36  1  0
M  CHG  1   6   1
M  END
>  <UniqueID>  (12) 
12

>  <SMILES>  (12) 
CCc1cc[nH+]cc1N(C)Cc1cccc(Br)c1

>  <Energy>  (12) 
35.3030012054434

>  <Genealogy>  (12) 
CCc1cc[nH+]cc1N(C)Cc1cccc(Br)c1 (protonated)
CCc1cc[nH+]cc1N(C)Cc1cccc(Br)c1 (3D coordinates assigned)
CCc1cc[nH+]cc1N(C)Cc1cccc(Br)c1 (optimized conformer: 35.3030012054434 kcal/mol)

>  <smiles>  (12) 
CCc1ccncc1N(C)Cc1cccc(Br)c1

>  <score_type>  (12) 
oracle

>  <origin>  (12) 
adg

>  <m_score__min__energy>  (12) 
-5.5899999999999999

>  <m_primary>  (12) 
energy

$$$$
12:0
     RDKit          3D

 50 53  0  0  1  0  0  0  0  0999 V2000
   61.1770   32.2010   46.9290 O   0  0  0  0  0  0  0  0  0  0  0  0
   60.5970   33.2520   47.2870 C   0  0  0  0  0  0  0  0  0  0  0  0
   61.1280   34.0410   48.3400 N   0  0  0  0  0  0  0  0  0  0  0  0
   62.3190   33.7120   49.0450 C   0  0  0  0  0  0  0  0  0  0  0  0
   62.2730   33.8880   50.4320 C   0  0  0  0  0  0  0  0  0  0  0  0
   63.3850   33.5920   51.1970 C   0  0  0  0  0  0  0  0  0  0  0  0
   64.5290   33.1270   50.5840 C   0  0  0  0  0  0  0  0  0  0  0  0
   65.7270   32.8090   51.4230 C   0  0  0  0  0  0  0  0  0  0  0  0
   66.9480   33.5670   50.9700 C   0  0  0  0  0  0  0  0  0  0  0  0
   67.4630   33.0780   49.7920 F   0  0  0  0  0  0  0  0  0  0  0  0
   64.5650   32.9540   49.2010 C   0  0  0  0  0  0  0  0  0  0  0  0
   63.4600   33.2450   48.4150 C   0  0  0  0  0  0  0  0  0  0  0  0
   59.4050   33.6950   46.6720 N   0  0  0  0  0  0  0  0  0  0  0  0
   58.7580   33.0080   45.6060 C   0  0  0  0  0  0  0  0  0  0  0  0
   58.6960   33.6110   44.3660 C   0  0  0  0  0  0  0  0  0  0  0  0
   58.0790   32.9850   43.3000 C   0  0  0  0  0  0  0  0  0  0  0  0
   57.5320   31.7520   43.5080 C   0  0  0  0  0  0  0  0  0  0  0  0
   56.9270   31.1450   42.4480 N   0  0  0  0  0  0  0  0  0  0  0  0
   56.3780   29.9440   42.5950 C   0  0  0  0  0  0  0  0  0  0  0  0
   56.4230   29.3290   43.7980 N   0  0  0  0  0  0  0  0  0  0  0  0
   57.0110   29.8940   44.8670 C   0  0  0  0  0  0  0  0  0  0  0  0
   57.0200   29.2500   45.9980 N   0  0  0  0  0  0  0  0  0  0  0  0
   58.1820   28.5740   46.4660 C   0  0  0  0  0  0  0  0  0  0  0  0
   58.6980   27.4460   45.8810 C   0  0  0  0  0  0  0  0  0  0  0  0
   59.8360   26.8890   46.4400 C   0  0  0  0  0  0  0  0  0  0  0  0
   60.4560   27.4330   47.5560 C   0  0  0  0  0  0  0  0  0  0  0  0
   59.9290   28.5740   48.1430 C   0  0  0  0  0  0  0  0  0  0  0  0
   60.6940   29.2910   49.5640 Cl  0  0  0  0  0  0  0  0  0  0  0  0
   58.7960   29.1320   47.5890 C   0  0  0  0  0  0  0  0  0  0  0  0
   57.5880   31.1390   44.7440 C   0  0  0  0  0  0  0  0  0  0  0  0
   58.2060   31.7530   45.8310 C   0  0  0  0  0  0  0  0  0  0  0  0
   60.6250   34.9310   48.6330 H   0  0  0  0  0  0  0  0  0  0  0  0
   61.3557   34.2604   50.9115 H   0  0  0  0  0  0  0  0  0  0  0  0
   63.3576   33.7265   52.2884 H   0  0  0  0  0  0  0  0  0  0  0  0
   65.5102   33.0758   52.4679 H   0  0  0  0  0  0  0  0  0  0  0  0
   65.9370   31.7338   51.3234 H   0  0  0  0  0  0  0  0  0  0  0  0
   66.6745   34.6225   50.8245 H   0  0  0  0  0  0  0  0  0  0  0  0
   67.7197   33.4532   51.7456 H   0  0  0  0  0  0  0  0  0  0  0  0
   65.4842   32.5809   48.7258 H   0  0  0  0  0  0  0  0  0  0  0  0
   63.4892   33.1089   47.3239 H   0  0  0  0  0  0  0  0  0  0  0  0
   58.9270   34.5880   46.9890 H   0  0  0  0  0  0  0  0  0  0  0  0
   59.1447   34.6053   44.2243 H   0  0  0  0  0  0  0  0  0  0  0  0
   58.0300   33.4665   42.3122 H   0  0  0  0  0  0  0  0  0  0  0  0
   55.8889   29.4521   41.7413 H   0  0  0  0  0  0  0  0  0  0  0  0
   55.9800   28.3940   43.8590 H   0  0  0  0  0  0  0  0  0  0  0  0
   58.2230   26.9979   44.9958 H   0  0  0  0  0  0  0  0  0  0  0  0
   60.2633   25.9840   45.9836 H   0  0  0  0  0  0  0  0  0  0  0  0
   61.3591   26.9627   47.9722 H   0  0  0  0  0  0  0  0  0  0  0  0
   58.3662   30.0374   48.0422 H   0  0  0  0  0  0  0  0  0  0  0  0
   58.2545   31.2688   46.8175 H   0  0  0  0  0  0  0  0  0  0  0  0
  1  2  2  0
  2  3  1  0
  3  4  1  0
  4  5  2  0
  5  6  1  0
  6  7  2  0
  7  8  1  0
  8  9  1  0
  9 10  1  0
  7 11  1  0
 11 12  2  0
  2 13  1  0
 13 14  1  0
 14 15  2  0
 15 16  1  0
 16 17  2  0
 17 18  1  0
 18 19  2  0
 19 20  1  0
 20 21  1  0
 21 22  2  0
 22 23  1  0
 23 24  2  0
 24 25  1  0
 25 26  2  0
 26 27  1  0
 27 28  1  0
 27 29  2  0
 21 30  1  0
 30 31  2  0
 12  4  1  0
 31 14  1  0
 30 17  1  0
 29 23  1  0
  3 32  1  0
  5 33  1  0
  6 34  1  0
  8 35  1  0
  8 36  1  0
  9 37  1  0
  9 38  1  0
 11 39  1  0
 12 40  1  0
 13 41  1  0
 15 42  1  0
 16 43  1  0
 19 44  1  0
 20 45  1  0
 24 46  1  0
 25 47  1  0
 26 48  1  0
 29 49  1  0
 31 50  1  0
M  END
>  <smiles>  (13) 
O=C(Nc1ccc(CCF)cc1)Nc1ccc2nc[nH]c(=Nc3cccc(Cl)c3)c2c1

>  <score_type>  (13) 
oracle

>  <origin>  (13) 
adg

>  <m_score__min__energy>  (13) 
-8.5299999999999994

>  <m_primary>  (13) 
energy

$$$$
13:0
     RDKit          3D

 74 78  0  0  0  0  0  0  0  0999 V2000
   68.2530   33.4670   50.8360 C   0  0  0  0  0  0  0  0  0  0  0  0
   67.0510   32.7610   51.1260 O   0  0  0  0  0  0  0  0  0  0  0  0
   65.7800   33.1310   50.6580 C   0  0  0  0  0  0  0  0  0  0  0  0
   65.2830   32.7080   49.4120 C   0  0  0  0  0  0  0  0  0  0  0  0
   64.0100   33.1030   48.9880 C   0  0  0  0  0  0  0  0  0  0  0  0
   63.2130   33.9180   49.8070 C   0  0  0  0  0  0  0  0  0  0  0  0
   61.8660   34.3900   49.3330 C   0  0  0  0  0  0  0  0  0  0  0  0
   61.0700   33.2540   48.8660 N   0  0  0  0  0  0  0  0  0  0  0  0
   60.4310   33.2590   47.5820 C   0  0  0  0  0  0  0  0  0  0  0  0
   60.4310   34.3110   46.8880 O   0  0  0  0  0  0  0  0  0  0  0  0
   59.7420   32.0480   47.0690 C   0  0  0  0  0  0  0  0  0  0  0  0
   58.7860   32.1790   46.0550 C   0  0  0  0  0  0  0  0  0  0  0  0
   58.1400   31.0910   45.5340 N   0  0  0  0  0  0  0  0  0  0  0  0
   57.1450   31.3350   44.4700 C   0  0  0  0  0  0  0  0  0  0  0  0
   57.6950   31.9860   43.2010 C   0  0  0  0  0  0  0  0  0  0  0  0
   57.3580   30.5110   43.2060 C   0  0  0  0  0  0  0  0  0  0  0  0
   58.3450   29.8350   46.0730 C   0  0  0  0  0  0  0  0  0  0  0  0
   57.6050   28.7070   45.6430 C   0  0  0  0  0  0  0  0  0  0  0  0
   57.8460   27.3990   46.1410 C   0  0  0  0  0  0  0  0  0  0  0  0
   57.1050   26.2440   45.6030 N   0  0  0  0  0  0  0  0  0  0  0  0
   57.6830   25.5090   44.4450 C   0  0  0  0  0  0  0  0  0  0  0  0
   56.8600   24.3200   43.9390 C   0  0  0  0  0  0  0  0  0  0  0  0
   56.1840   23.6890   45.0550 N   0  0  0  0  0  0  0  0  0  0  0  0
   56.8260   22.6330   45.7880 C   0  0  0  0  0  0  0  0  0  0  0  0
   57.3790   22.8790   46.8940 O   0  0  0  0  0  0  0  0  0  0  0  0
   56.8430   21.2340   45.2420 C   0  0  0  0  0  0  0  0  0  0  0  0
   57.7730   21.1000   44.0050 C   0  0  0  0  0  0  0  0  0  0  0  0
   57.0320   21.4680   42.7100 C   0  0  0  0  0  0  0  0  0  0  0  0
   59.0210   21.9820   44.1640 C   0  0  0  0  0  0  0  0  0  0  0  0
   55.2020   24.5390   45.7060 C   0  0  0  0  0  0  0  0  0  0  0  0
   55.8900   25.7650   46.3160 C   0  0  0  0  0  0  0  0  0  0  0  0
   58.8410   27.2670   47.1470 C   0  0  0  0  0  0  0  0  0  0  0  0
   59.1580   26.0820   47.7230 F   0  0  0  0  0  0  0  0  0  0  0  0
   59.5500   28.3770   47.6040 C   0  0  0  0  0  0  0  0  0  0  0  0
   59.3170   29.6560   47.0840 C   0  0  0  0  0  0  0  0  0  0  0  0
   60.0330   30.7670   47.5620 C   0  0  0  0  0  0  0  0  0  0  0  0
   60.9470   30.6130   48.4190 O   0  0  0  0  0  0  0  0  0  0  0  0
   63.7170   34.3530   51.0420 C   0  0  0  0  0  0  0  0  0  0  0  0
   64.9880   33.9550   51.4650 C   0  0  0  0  0  0  0  0  0  0  0  0
   68.7447   33.7558   51.7767 H   0  0  0  0  0  0  0  0  0  0  0  0
   68.9263   32.8209   50.2536 H   0  0  0  0  0  0  0  0  0  0  0  0
   68.0166   34.3698   50.2536 H   0  0  0  0  0  0  0  0  0  0  0  0
   65.8987   32.0632   48.7677 H   0  0  0  0  0  0  0  0  0  0  0  0
   63.6320   32.7737   48.0089 H   0  0  0  0  0  0  0  0  0  0  0  0
   61.3412   34.8850   50.1634 H   0  0  0  0  0  0  0  0  0  0  0  0
   62.0046   35.0978   48.5025 H   0  0  0  0  0  0  0  0  0  0  0  0
   60.8690   32.4710   49.5280 H   0  0  0  0  0  0  0  0  0  0  0  0
   58.5483   33.1807   45.6676 H   0  0  0  0  0  0  0  0  0  0  0  0
   56.3008   31.5365   45.1459 H   0  0  0  0  0  0  0  0  0  0  0  0
   57.0720   32.6902   42.6301 H   0  0  0  0  0  0  0  0  0  0  0  0
   58.5892   32.5779   42.9562 H   0  0  0  0  0  0  0  0  0  0  0  0
   56.4907   30.1443   42.6373 H   0  0  0  0  0  0  0  0  0  0  0  0
   57.9080   29.5894   42.9649 H   0  0  0  0  0  0  0  0  0  0  0  0
   56.8123   28.8494   44.8938 H   0  0  0  0  0  0  0  0  0  0  0  0
   57.7955   26.2210   43.6141 H   0  0  0  0  0  0  0  0  0  0  0  0
   58.6346   25.0871   44.8006 H   0  0  0  0  0  0  0  0  0  0  0  0
   56.1146   24.6734   43.2114 H   0  0  0  0  0  0  0  0  0  0  0  0
   57.5278   23.5915   43.4561 H   0  0  0  0  0  0  0  0  0  0  0  0
   57.1977   20.5510   46.0279 H   0  0  0  0  0  0  0  0  0  0  0  0
   55.8202   20.9818   44.9253 H   0  0  0  0  0  0  0  0  0  0  0  0
   58.0871   20.0479   43.9382 H   0  0  0  0  0  0  0  0  0  0  0  0
   56.0725   21.9445   42.9594 H   0  0  0  0  0  0  0  0  0  0  0  0
   57.6461   22.1658   42.1218 H   0  0  0  0  0  0  0  0  0  0  0  0
   56.8471   20.5570   42.1218 H   0  0  0  0  0  0  0  0  0  0  0  0
   59.2312   22.1305   45.2335 H   0  0  0  0  0  0  0  0  0  0  0  0
   59.8810   21.4900   43.6862 H   0  0  0  0  0  0  0  0  0  0  0  0
   58.8443   22.9569   43.6862 H   0  0  0  0  0  0  0  0  0  0  0  0
   54.4587   24.8695   44.9656 H   0  0  0  0  0  0  0  0  0  0  0  0
   54.7055   23.9693   46.5054 H   0  0  0  0  0  0  0  0  0  0  0  0
   55.1609   26.5885   46.3323 H   0  0  0  0  0  0  0  0  0  0  0  0
   56.2315   25.4520   47.3137 H   0  0  0  0  0  0  0  0  0  0  0  0
   60.3085   28.2452   48.3897 H   0  0  0  0  0  0  0  0  0  0  0  0
   63.1087   35.0106   51.6804 H   0  0  0  0  0  0  0  0  0  0  0  0
   65.3689   34.2923   52.4403 H   0  0  0  0  0  0  0  0  0  0  0  0
  1  2  1  0
  2  3  1  0
  3  4  2  0
  4  5  1  0
  5  6  2  0
  6  7  1  0
  7  8  1  0
  8  9  1  0
  9 10  2  0
  9 11  1  0
 11 12  2  0
 12 13  1  0
 13 14  1  0
 14 15  1  0
 15 16  1  0
 13 17  1  0
 17 18  2  0
 18 19  1  0
 19 20  1  0
 20 21  1  0
 21 22  1  0
 22 23  1  0
 23 24  1  0
 24 25  2  0
 24 26  1  0
 26 27  1  0
 27 28  1  0
 27 29  1  0
 23 30  1  0
 30 31  1  0
 19 32  2  0
 32 33  1  0
 32 34  1  0
 34 35  2  0
 35 36  1  0
 36 37  2  0
  6 38  1  0
 38 39  2  0
 39  3  1  0
 36 11  1  0
 16 14  1  0
 35 17  1  0
 31 20  1  0
  1 40  1  0
  1 41  1  0
  1 42  1  0
  4 43  1  0
  5 44  1  0
  7 45  1  0
  7 46  1  0
  8 47  1  0
 12 48  1  0
 14 49  1  0
 15 50  1  0
 15 51  1  0
 16 52  1  0
 16 53  1  0
 18 54  1  0
 21 55  1  0
 21 56  1  0
 22 57  1  0
 22 58  1  0
 26 59  1  0
 26 60  1  0
 27 61  1  0
 28 62  1  0
 28 63  1  0
 28 64  1  0
 29 65  1  0
 29 66  1  0
 29 67  1  0
 30 68  1  0
 30 69  1  0
 31 70  1  0
 31 71  1  0
 34 72  1  0
 38 73  1  0
 39 74  1  0
M  END
>  <UniqueID>  (14) 
13

>  <SMILES>  (14) 
COc1ccc(CNC(=O)c2cn(C3CC3)c3cc(N4CCN(C(=O)CC(C)C)CC4)c(F)cc3c2=O)cc1

>  <Energy>  (14) 
369.4244109920004

>  <Genealogy>  (14) 
COc1ccc(CNC(=O)c2cn(C3CC3)c3cc(N4CCN(C(=O)CC(C)C)CC4)c(F)cc3c2=O)cc1 (3D coordinates assigned)
COc1ccc(CNC(=O)c2cn(C3CC3)c3cc(N4CCN(C(=O)CC(C)C)CC4)c(F)cc3c2=O)cc1 (nonaromatic ring conformer: 369.4244109920004 kcal/mol)

>  <smiles>  (14) 
COc1ccc(CNC(=O)c2cn(C3CC3)c3cc(N4CCN(C(=O)CC(C)C)CC4)c(F)cc3c2=O)cc1

>  <score_type>  (14) 
oracle

>  <origin>  (14) 
adg

>  <m_score__min__energy>  (14) 
-8.4700000000000006

>  <m_primary>  (14) 
energy

$$$$
14:0
     RDKit          3D

 48 49  0  0  0  0  0  0  0  0999 V2000
   58.8710   33.5740   48.1160 C   0  0  0  0  0  0  0  0  0  0  0  0
   59.9350   34.5130   47.5560 C   0  0  0  0  0  0  0  0  0  0  0  0
   60.1140   34.2870   46.1590 O   0  0  0  0  0  0  0  0  0  0  0  0
   59.1520   33.6750   45.3450 C   0  0  0  0  0  0  0  0  0  0  0  0
   58.3710   34.3730   44.6430 O   0  0  0  0  0  0  0  0  0  0  0  0
   59.0880   32.2420   45.3020 N   0  0  0  0  0  0  0  0  0  0  0  0
   58.0860   31.4970   44.5890 C   0  0  0  0  0  0  0  0  0  0  0  0
   57.8730   31.7620   43.2290 C   0  0  0  0  0  0  0  0  0  0  0  0
   56.9270   31.0320   42.5070 C   0  0  0  0  0  0  0  0  0  0  0  0
   56.1900   30.0230   43.1320 C   0  0  0  0  0  0  0  0  0  0  0  0
   56.3940   29.7400   44.4940 C   0  0  0  0  0  0  0  0  0  0  0  0
   55.6940   28.6800   45.1630 N   0  0  0  0  0  0  0  0  0  0  0  0
   56.2720   27.4720   45.6710 C   0  0  0  0  0  0  0  0  0  0  0  0
   55.5430   26.5010   46.0100 O   0  0  0  0  0  0  0  0  0  0  0  0
   57.6890   27.4050   45.8520 N   0  0  0  0  0  0  0  0  0  0  0  0
   58.6520   27.7260   44.8050 C   0  0  0  0  0  0  0  0  0  0  0  0
   60.0000   28.1510   45.3950 C   0  0  0  0  0  0  0  0  0  0  0  0
   59.9330   29.4790   45.9240 O   0  0  0  0  0  0  0  0  0  0  0  0
   59.8810   29.8290   47.2850 C   0  0  0  0  0  0  0  0  0  0  0  0
   58.9720   29.2360   48.1850 C   0  0  0  0  0  0  0  0  0  0  0  0
   58.9500   29.6260   49.5240 C   0  0  0  0  0  0  0  0  0  0  0  0
   59.8430   30.5960   49.9860 C   0  0  0  0  0  0  0  0  0  0  0  0
   60.7610   31.1780   49.1110 C   0  0  0  0  0  0  0  0  0  0  0  0
   60.7880   30.7960   47.7540 C   0  0  0  0  0  0  0  0  0  0  0  0
   61.6920   31.3560   46.8370 O   0  0  0  0  0  0  0  0  0  0  0  0
   62.7670   32.2220   47.1860 C   0  0  0  0  0  0  0  0  0  0  0  0
   57.3600   30.4630   45.2090 C   0  0  0  0  0  0  0  0  0  0  0  0
   58.9007   33.6002   49.2153 H   0  0  0  0  0  0  0  0  0  0  0  0
   57.8783   33.8958   47.7682 H   0  0  0  0  0  0  0  0  0  0  0  0
   59.0668   32.5490   47.7682 H   0  0  0  0  0  0  0  0  0  0  0  0
   59.6199   35.5545   47.7170 H   0  0  0  0  0  0  0  0  0  0  0  0
   60.8870   34.3213   48.0727 H   0  0  0  0  0  0  0  0  0  0  0  0
   59.8850   31.7160   45.7270 H   0  0  0  0  0  0  0  0  0  0  0  0
   58.4546   32.5497   42.7278 H   0  0  0  0  0  0  0  0  0  0  0  0
   56.7613   31.2521   41.4421 H   0  0  0  0  0  0  0  0  0  0  0  0
   55.4485   29.4487   42.5572 H   0  0  0  0  0  0  0  0  0  0  0  0
   58.8022   26.8384   44.1728 H   0  0  0  0  0  0  0  0  0  0  0  0
   58.2537   28.5640   44.2141 H   0  0  0  0  0  0  0  0  0  0  0  0
   60.2745   27.4558   46.2021 H   0  0  0  0  0  0  0  0  0  0  0  0
   60.7546   28.1304   44.5949 H   0  0  0  0  0  0  0  0  0  0  0  0
   58.2764   28.4616   47.8293 H   0  0  0  0  0  0  0  0  0  0  0  0
   58.2284   29.1691   50.2173 H   0  0  0  0  0  0  0  0  0  0  0  0
   59.8224   30.9018   51.0424 H   0  0  0  0  0  0  0  0  0  0  0  0
   61.4658   31.9372   49.4810 H   0  0  0  0  0  0  0  0  0  0  0  0
   62.8459   32.2855   48.2813 H   0  0  0  0  0  0  0  0  0  0  0  0
   63.7063   31.8253   46.7731 H   0  0  0  0  0  0  0  0  0  0  0  0
   62.5794   33.2242   46.7731 H   0  0  0  0  0  0  0  0  0  0  0  0
   57.5520   30.2195   46.2644 H   0  0  0  0  0  0  0  0  0  0  0  0
  1  2  1  0
  2  3  1  0
  3  4  1  0
  4  5  2  0
  4  6  1  0
  6  7  1  0
  7  8  2  0
  8  9  1  0
  9 10  2  0
 10 11  1  0
 11 12  1  0
 12 13  1  0
 13 14  2  0
 13 15  1  0
 15 16  1  0
 16 17  1  0
 17 18  1  0
 18 19  1  0
 19 20  2  0
 20 21  1  0
 21 22  2  0
 22 23  1  0
 23 24  2  0
 24 25  1  0
 25 26  1  0
 11 27  2  0
 27  7  1  0
 24 19  1  0
  1 28  1  0
  1 29  1  0
  1 30  1  0
  2 31  1  0
  2 32  1  0
  6 33  1  0
  8 34  1  0
  9 35  1  0
 10 36  1  0
 16 37  1  0
 16 38  1  0
 17 39  1  0
 17 40  1  0
 20 41  1  0
 21 42  1  0
 22 43  1  0
 23 44  1  0
 26 45  1  0
 26 46  1  0
 26 47  1  0
 27 48  1  0
M  CHG  2  12  -1  15  -1
M  END
>  <UniqueID>  (15) 
14

>  <SMILES>  (15) 
CCOC(=O)Nc1cccc([N-]C(=O)[N-]CCOc2ccccc2OC)c1

>  <Energy>  (15) 
47.37973487244954

>  <Genealogy>  (15) 
CCOC(=O)Nc1cccc([N-]C(=O)[N-]CCOc2ccccc2OC)c1 (protonated)
CCOC(=O)Nc1cccc([N-]C(=O)[N-]CCOc2ccccc2OC)c1 (3D coordinates assigned)
CCOC(=O)Nc1cccc([N-]C(=O)[N-]CCOc2ccccc2OC)c1 (optimized conformer: 47.37973487244954 kcal/mol)

>  <smiles>  (15) 
CCOC(=O)Nc1cccc(NC(=O)NCCOc2ccccc2OC)c1

>  <score_type>  (15) 
oracle

>  <origin>  (15) 
adg

>  <m_score__min__energy>  (15) 
-10.58

>  <m_primary>  (15) 
energy

$$$$
15:0
     RDKit          3D

 54 57  0  0  0  0  0  0  0  0999 V2000
   58.5660   31.9860   50.1280 C   0  0  0  0  0  0  0  0  0  0  0  0
   59.6530   31.2240   49.9750 C   0  0  0  0  0  0  0  0  0  0  0  0
   59.5510   29.7940   49.5260 C   0  0  0  0  0  0  0  0  0  0  0  0
   59.8690   29.6780   48.1030 N   0  0  0  0  0  0  0  0  0  0  0  0
   58.8800   29.8320   47.0690 C   0  0  0  0  0  0  0  0  0  0  0  0
   58.1270   28.7300   46.6700 C   0  0  0  0  0  0  0  0  0  0  0  0
   57.1950   28.8430   45.6430 C   0  0  0  0  0  0  0  0  0  0  0  0
   56.5540   27.8090   45.3050 O   0  0  0  0  0  0  0  0  0  0  0  0
   56.9830   30.0440   45.0070 N   0  0  0  0  0  0  0  0  0  0  0  0
   55.9530   30.1010   43.9420 C   0  0  0  0  0  0  0  0  0  0  0  0
   56.5240   29.6160   42.6120 C   0  0  0  0  0  0  0  0  0  0  0  0
   57.7400   31.1530   45.3530 C   0  0  0  0  0  0  0  0  0  0  0  0
   57.6120   32.3900   44.6750 C   0  0  0  0  0  0  0  0  0  0  0  0
   58.3510   33.5070   45.0650 C   0  0  0  0  0  0  0  0  0  0  0  0
   59.2290   33.4340   46.1480 C   0  0  0  0  0  0  0  0  0  0  0  0
   60.0380   34.6380   46.5500 C   0  0  0  0  0  0  0  0  0  0  0  0
   61.2080   34.2150   47.3970 C   0  0  0  0  0  0  0  0  0  0  0  0
   61.1240   34.2640   48.7960 C   0  0  0  0  0  0  0  0  0  0  0  0
   62.1930   33.8330   49.5850 C   0  0  0  0  0  0  0  0  0  0  0  0
   63.3650   33.3350   48.9880 C   0  0  0  0  0  0  0  0  0  0  0  0
   64.4670   32.8870   49.8020 N   0  0  0  0  0  0  0  0  0  0  0  0
   64.4010   32.4750   51.0860 C   0  0  0  0  0  0  0  0  0  0  0  0
   65.6720   32.1310   51.5050 C   0  0  0  0  0  0  0  0  0  0  0  0
   66.4830   32.3610   50.4120 C   0  0  0  0  0  0  0  0  0  0  0  0
   65.7270   32.8170   49.3980 N   0  0  0  0  0  0  0  0  0  0  0  0
   63.4420   33.2790   47.5850 C   0  0  0  0  0  0  0  0  0  0  0  0
   62.3710   33.7100   46.7980 C   0  0  0  0  0  0  0  0  0  0  0  0
   59.4010   32.2150   46.8110 C   0  0  0  0  0  0  0  0  0  0  0  0
   58.6870   31.0650   46.4150 C   0  0  0  0  0  0  0  0  0  0  0  0
   58.6684   33.0303   50.4580 H   0  0  0  0  0  0  0  0  0  0  0  0
   57.5688   31.5689   49.9239 H   0  0  0  0  0  0  0  0  0  0  0  0
   60.6443   31.6533   50.1824 H   0  0  0  0  0  0  0  0  0  0  0  0
   60.2576   29.1817   50.1055 H   0  0  0  0  0  0  0  0  0  0  0  0
   58.5213   29.4433   49.6893 H   0  0  0  0  0  0  0  0  0  0  0  0
   60.8680   29.5250   47.8370 H   0  0  0  0  0  0  0  0  0  0  0  0
   58.2705   27.7615   47.1715 H   0  0  0  0  0  0  0  0  0  0  0  0
   55.1047   29.4608   44.2256 H   0  0  0  0  0  0  0  0  0  0  0  0
   55.6223   31.1436   43.8255 H   0  0  0  0  0  0  0  0  0  0  0  0
   57.3498   28.9145   42.8015 H   0  0  0  0  0  0  0  0  0  0  0  0
   55.7354   29.1074   42.0380 H   0  0  0  0  0  0  0  0  0  0  0  0
   56.8982   30.4765   42.0380 H   0  0  0  0  0  0  0  0  0  0  0  0
   56.9175   32.4713   43.8258 H   0  0  0  0  0  0  0  0  0  0  0  0
   58.2411   34.4531   44.5147 H   0  0  0  0  0  0  0  0  0  0  0  0
   60.4073   35.1463   45.6471 H   0  0  0  0  0  0  0  0  0  0  0  0
   59.4016   35.3221   47.1305 H   0  0  0  0  0  0  0  0  0  0  0  0
   60.2099   34.6445   49.2753 H   0  0  0  0  0  0  0  0  0  0  0  0
   62.1176   33.8834   50.6813 H   0  0  0  0  0  0  0  0  0  0  0  0
   63.4877   32.4220   51.6968 H   0  0  0  0  0  0  0  0  0  0  0  0
   65.9722   31.7555   52.4944 H   0  0  0  0  0  0  0  0  0  0  0  0
   67.5703   32.1979   50.3764 H   0  0  0  0  0  0  0  0  0  0  0  0
   66.0800   33.0970   48.4560 H   0  0  0  0  0  0  0  0  0  0  0  0
   64.3525   32.8929   47.1034 H   0  0  0  0  0  0  0  0  0  0  0  0
   62.4405   33.6528   45.7017 H   0  0  0  0  0  0  0  0  0  0  0  0
   60.1041   32.1520   47.6546 H   0  0  0  0  0  0  0  0  0  0  0  0
  1  2  2  0
  2  3  1  0
  3  4  1  0
  4  5  1  0
  5  6  2  0
  6  7  1  0
  7  8  2  0
  7  9  1  0
  9 10  1  0
 10 11  1  0
  9 12  1  0
 12 13  2  0
 13 14  1  0
 14 15  2  0
 15 16  1  0
 16 17  1  0
 17 18  2  0
 18 19  1  0
 19 20  2  0
 20 21  1  0
 21 22  1  0
 22 23  2  0
 23 24  1  0
 24 25  2  0
 20 26  1  0
 26 27  2  0
 15 28  1  0
 28 29  2  0
 29  5  1  0
 29 12  1  0
 27 17  1  0
 25 21  1  0
  1 30  1  0
  1 31  1  0
  2 32  1  0
  3 33  1  0
  3 34  1  0
  4 35  1  0
  6 36  1  0
 10 37  1  0
 10 38  1  0
 11 39  1  0
 11 40  1  0
 11 41  1  0
 13 42  1  0
 14 43  1  0
 16 44  1  0
 16 45  1  0
 18 46  1  0
 19 47  1  0
 22 48  1  0
 23 49  1  0
 24 50  1  0
 25 51  1  0
 26 52  1  0
 27 53  1  0
 28 54  1  0
M  CHG  1  25   1
M  END
>  <UniqueID>  (16) 
15

>  <SMILES>  (16) 
C=CCNc1cc(=O)n(CC)c2ccc(Cc3ccc(-n4ccc[nH+]4)cc3)cc12

>  <Energy>  (16) 
98.85127450049849

>  <Genealogy>  (16) 
C=CCNc1cc(=O)n(CC)c2ccc(Cc3ccc(-n4ccc[nH+]4)cc3)cc12 (protonated)
C=CCNc1cc(=O)n(CC)c2ccc(Cc3ccc(-n4ccc[nH+]4)cc3)cc12 (3D coordinates assigned)
C=CCNc1cc(=O)n(CC)c2ccc(Cc3ccc(-n4ccc[nH+]4)cc3)cc12 (optimized conformer: 98.85127450049849 kcal/mol)

>  <smiles>  (16) 
C=CCNc1cc(=O)n(CC)c2ccc(Cc3ccc(-n4cccn4)cc3)cc12

>  <score_type>  (16) 
oracle

>  <origin>  (16) 
adg

>  <m_score__min__energy>  (16) 
-7.5099999999999998

>  <m_primary>  (16) 
energy

$$$$
16:0
     RDKit          3D

 25 25  0  0  1  0  0  0  0  0999 V2000
   57.0430   28.8810   45.0550 C   0  0  0  0  0  0  0  0  0  0  0  0
   57.7880   28.1000   43.9940 C   0  0  0  0  0  0  0  0  0  0  0  0
   58.2720   26.7910   44.5750 C   0  0  0  0  0  0  0  0  0  0  0  0
   57.4540   26.2690   45.5760 O   0  0  0  0  0  0  0  0  0  0  0  0
   56.3410   25.4760   45.3510 C   0  0  0  0  0  0  0  0  0  0  0  0
   55.2760   25.6650   46.0190 O   0  0  0  0  0  0  0  0  0  0  0  0
   56.3080   24.4290   44.3890 N   0  0  0  0  0  0  0  0  0  0  0  0
   57.2060   23.4990   44.3640 C   0  0  0  0  0  0  0  0  0  0  0  0
   58.3810   23.6090   45.0340 N   0  0  0  0  0  0  0  0  0  0  0  0
   59.2630   22.6210   44.9690 C   0  0  0  0  0  0  0  0  0  0  0  0
   60.3550   22.7030   45.5820 O   0  0  0  0  0  0  0  0  0  0  0  0
   59.0440   21.4860   44.2560 N   0  0  0  0  0  0  0  0  0  0  0  0
   57.8810   21.3850   43.5960 N   0  0  0  0  0  0  0  0  0  0  0  0
   56.9580   22.3460   43.6250 C   0  0  0  0  0  0  0  0  0  0  0  0
   55.8870   22.2010   42.9910 O   0  0  0  0  0  0  0  0  0  0  0  0
   57.3643   28.5441   46.0516 H   0  0  0  0  0  0  0  0  0  0  0  0
   57.2615   29.9532   44.9422 H   0  0  0  0  0  0  0  0  0  0  0  0
   55.9617   28.7133   44.9422 H   0  0  0  0  0  0  0  0  0  0  0  0
   57.1151   27.8984   43.1475 H   0  0  0  0  0  0  0  0  0  0  0  0
   58.6509   28.6870   43.6463 H   0  0  0  0  0  0  0  0  0  0  0  0
   58.3322   26.0542   43.7605 H   0  0  0  0  0  0  0  0  0  0  0  0
   59.2474   26.9952   45.0406 H   0  0  0  0  0  0  0  0  0  0  0  0
   58.5910   24.4590   45.5930 H   0  0  0  0  0  0  0  0  0  0  0  0
   59.7360   20.7220   44.2100 H   0  0  0  0  0  0  0  0  0  0  0  0
   57.7480   20.5030   43.0610 H   0  0  0  0  0  0  0  0  0  0  0  0
  1  2  1  0
  2  3  1  0
  3  4  1  0
  4  5  1  0
  5  6  2  0
  5  7  1  0
  7  8  2  0
  8  9  1  0
  9 10  1  0
 10 11  2  0
 10 12  1  0
 12 13  1  0
 13 14  1  0
 14 15  2  0
 14  8  1  0
  1 16  1  0
  1 17  1  0
  1 18  1  0
  2 19  1  0
  2 20  1  0
  3 21  1  0
  3 22  1  0
  9 23  1  0
 12 24  1  0
 13 25  1  0
M  END
>  <smiles>  (17) 
CCCOC(=O)N=c1[nH]c(=O)[nH][nH]c1=O

>  <score_type>  (17) 
oracle

>  <origin>  (17) 
adg

>  <m_score__min__energy>  (17) 
-5.2800000000000002

>  <m_primary>  (17) 
energy

$$$$
17:0
     RDKit          3D

 45 47  0  0  0  0  0  0  0  0999 V2000
   58.1680   35.3244   44.0386 H   0  0  0  0  0  0  0  0  0  0  0  0
   58.3130   34.6420   44.8890 C   0  0  0  0  0  0  0  0  0  0  0  0
   59.5940   34.4180   45.3930 C   0  0  0  0  0  0  0  0  0  0  0  0
   60.4591   34.9187   44.9339 H   0  0  0  0  0  0  0  0  0  0  0  0
   59.7820   33.5590   46.4800 C   0  0  0  0  0  0  0  0  0  0  0  0
   60.7961   33.3841   46.8686 H   0  0  0  0  0  0  0  0  0  0  0  0
   58.6810   32.9150   47.0820 C   0  0  0  0  0  0  0  0  0  0  0  0
   58.8520   32.0300   48.2660 C   0  0  0  0  0  0  0  0  0  0  0  0
   58.8160   32.5260   49.4250 O   0  0  0  0  0  0  0  0  0  0  0  0
   59.0860   30.5530   48.1290 C   0  0  0  0  0  0  0  0  0  0  0  0
   58.1208   30.0350   48.0290 H   0  0  0  0  0  0  0  0  0  0  0  0
   59.6087   30.1766   49.0207 H   0  0  0  0  0  0  0  0  0  0  0  0
   59.8780   30.3120   46.9720 O   0  0  0  0  0  0  0  0  0  0  0  0
   59.5100   29.4290   45.9530 C   0  0  0  0  0  0  0  0  0  0  0  0
   60.3250   28.5500   45.5600 O   0  0  0  0  0  0  0  0  0  0  0  0
   58.1570   29.5240   45.3350 C   0  0  0  0  0  0  0  0  0  0  0  0
   57.8660   30.5950   44.4750 C   0  0  0  0  0  0  0  0  0  0  0  0
   58.6345   31.3552   44.2715 H   0  0  0  0  0  0  0  0  0  0  0  0
   56.6140   30.7030   43.8780 C   0  0  0  0  0  0  0  0  0  0  0  0
   56.3920   31.5414   43.2014 H   0  0  0  0  0  0  0  0  0  0  0  0
   55.6450   29.7400   44.1450 C   0  0  0  0  0  0  0  0  0  0  0  0
   54.6499   29.8226   43.6836 H   0  0  0  0  0  0  0  0  0  0  0  0
   55.9220   28.6980   44.9730 N   0  0  0  0  0  0  0  0  0  0  0  0
   55.1440   28.0310   45.1680 H   0  0  0  0  0  0  0  0  0  0  0  0
   57.1520   28.5470   45.5610 C   0  0  0  0  0  0  0  0  0  0  0  0
   57.4060   27.5350   46.3450 N   0  0  0  0  0  0  0  0  0  0  0  0
   57.6180   26.1630   45.9840 C   0  0  0  0  0  0  0  0  0  0  0  0
   58.9140   25.6210   45.9560 C   0  0  0  0  0  0  0  0  0  0  0  0
   59.7836   26.2703   46.1354 H   0  0  0  0  0  0  0  0  0  0  0  0
   59.1020   24.2600   45.7010 C   0  0  0  0  0  0  0  0  0  0  0  0
   60.1192   23.8429   45.6642 H   0  0  0  0  0  0  0  0  0  0  0  0
   58.0000   23.4300   45.4930 C   0  0  0  0  0  0  0  0  0  0  0  0
   58.1505   22.3605   45.2843 H   0  0  0  0  0  0  0  0  0  0  0  0
   56.7070   23.9530   45.5490 C   0  0  0  0  0  0  0  0  0  0  0  0
   55.8421   23.2923   45.3894 H   0  0  0  0  0  0  0  0  0  0  0  0
   56.5040   25.3230   45.8090 C   0  0  0  0  0  0  0  0  0  0  0  0
   55.2210   25.8840   45.9010 O   0  0  0  0  0  0  0  0  0  0  0  0
   54.0140   25.1910   45.5990 C   0  0  0  0  0  0  0  0  0  0  0  0
   53.5125   24.9031   46.5348 H   0  0  0  0  0  0  0  0  0  0  0  0
   53.3514   25.8462   45.0145 H   0  0  0  0  0  0  0  0  0  0  0  0
   54.2458   24.2884   45.0145 H   0  0  0  0  0  0  0  0  0  0  0  0
   57.3960   33.1390   46.5500 C   0  0  0  0  0  0  0  0  0  0  0  0
   56.5267   32.6314   46.9935 H   0  0  0  0  0  0  0  0  0  0  0  0
   57.2150   34.0000   45.4640 C   0  0  0  0  0  0  0  0  0  0  0  0
   56.2057   34.1720   45.0618 H   0  0  0  0  0  0  0  0  0  0  0  0
  1  2  1  0
  2  3  2  0
  3  4  1  0
  3  5  1  0
  5  6  1  0
  5  7  2  0
  7  8  1  0
  8  9  2  0
  8 10  1  0
 10 11  1  0
 10 12  1  0
 10 13  1  0
 13 14  1  0
 14 15  2  0
 14 16  1  0
 16 17  2  0
 17 18  1  0
 17 19  1  0
 19 20  1  0
 19 21  2  0
 21 22  1  0
 21 23  1  0
 23 24  1  0
 23 25  1  0
 25 26  2  0
 26 27  1  0
 27 28  2  0
 28 29  1  0
 28 30  1  0
 30 31  1  0
 30 32  2  0
 32 33  1  0
 32 34  1  0
 34 35  1  0
 34 36  2  0
 36 37  1  0
 37 38  1  0
 38 39  1  0
 38 40  1  0
 38 41  1  0
  7 42  1  0
 42 43  1  0
 42 44  2  0
 44 45  1  0
 44  2  1  0
 25 16  1  0
 36 27  1  0
M  END
>  <UniqueID>  (18) 
16

>  <SMILES>  (18) 
COc1ccccc1/N=c1\[nH]cccc1C(=O)OCC(=O)c1ccccc1

>  <Energy>  (18) 
52.80128732176027

>  <Genealogy>  (18) 
COc1ccccc1/N=c1\[nH]cccc1C(=O)OCC(=O)c1ccccc1 (cis-trans isomerization)
COc1ccccc1/N=c1\[nH]cccc1C(=O)OCC(=O)c1ccccc1 (3D coordinates assigned)
COc1ccccc1/N=c1\[nH]cccc1C(=O)OCC(=O)c1ccccc1 (optimized conformer: 52.80128732176027 kcal/mol)

>  <smiles>  (18) 
COc1ccccc1N=c1[nH]cccc1C(=O)OCC(=O)c1ccccc1

>  <score_type>  (18) 
oracle

>  <origin>  (18) 
adg

>  <m_score__min__energy>  (18) 
-8.1500000000000004

>  <m_primary>  (18) 
energy

$$$$
18:0
     RDKit          3D

 30 31  0  0  0  0  0  0  0  0999 V2000
   55.3290   29.3220   44.8780 N   0  0  0  0  0  0  0  0  0  0  0  0
   57.0210   29.2680   44.5340 S   0  0  0  0  0  0  0  0  0  0  0  0
   57.7230   28.4550   45.5870 O   0  0  0  0  0  0  0  0  0  0  0  0
   57.2420   28.6210   43.1960 O   0  0  0  0  0  0  0  0  0  0  0  0
   57.6650   30.9070   44.5170 C   0  0  0  0  0  0  0  0  0  0  0  0
   57.4490   31.7380   43.4110 C   0  0  0  0  0  0  0  0  0  0  0  0
   57.9730   33.0310   43.3940 C   0  0  0  0  0  0  0  0  0  0  0  0
   58.7200   33.5020   44.4760 C   0  0  0  0  0  0  0  0  0  0  0  0
   58.9530   32.6780   45.5930 C   0  0  0  0  0  0  0  0  0  0  0  0
   59.7510   33.1740   46.7440 C   0  0  0  0  0  0  0  0  0  0  0  0
   59.1160   33.7830   47.8420 C   0  0  0  0  0  0  0  0  0  0  0  0
   59.8670   34.2590   48.9180 C   0  0  0  0  0  0  0  0  0  0  0  0
   61.2570   34.1280   48.9180 C   0  0  0  0  0  0  0  0  0  0  0  0
   61.9070   33.5090   47.8410 C   0  0  0  0  0  0  0  0  0  0  0  0
   63.4070   33.3960   47.8240 C   0  0  0  0  0  0  0  0  0  0  0  0
   63.8430   32.9630   46.5650 O   0  0  0  0  0  0  0  0  0  0  0  0
   61.1520   33.0460   46.7520 C   0  0  0  0  0  0  0  0  0  0  0  0
   58.4210   31.3750   45.6010 C   0  0  0  0  0  0  0  0  0  0  0  0
   55.1500   28.6250   45.6370 H   0  0  0  0  0  0  0  0  0  0  0  0
   56.8652   31.3708   42.5540 H   0  0  0  0  0  0  0  0  0  0  0  0
   57.7971   33.6820   42.5250 H   0  0  0  0  0  0  0  0  0  0  0  0
   59.1287   34.5230   44.4551 H   0  0  0  0  0  0  0  0  0  0  0  0
   58.0208   33.8846   47.8525 H   0  0  0  0  0  0  0  0  0  0  0  0
   59.3618   34.7391   49.7691 H   0  0  0  0  0  0  0  0  0  0  0  0
   61.8439   34.5116   49.7656 H   0  0  0  0  0  0  0  0  0  0  0  0
   63.8484   34.3793   48.0435 H   0  0  0  0  0  0  0  0  0  0  0  0
   63.7217   32.6662   48.5845 H   0  0  0  0  0  0  0  0  0  0  0  0
   64.6070   32.3490   46.7260 H   0  0  0  0  0  0  0  0  0  0  0  0
   61.6609   32.5784   45.8962 H   0  0  0  0  0  0  0  0  0  0  0  0
   58.5999   30.7182   46.4651 H   0  0  0  0  0  0  0  0  0  0  0  0
  1  2  1  0
  2  3  2  0
  2  4  2  0
  2  5  1  0
  5  6  2  0
  6  7  1  0
  7  8  2  0
  8  9  1  0
  9 10  1  0
 10 11  2  0
 11 12  1  0
 12 13  2  0
 13 14  1  0
 14 15  1  0
 15 16  1  0
 14 17  2  0
  9 18  2  0
 18  5  1  0
 17 10  1  0
  1 19  1  0
  6 20  1  0
  7 21  1  0
  8 22  1  0
 11 23  1  0
 12 24  1  0
 13 25  1  0
 15 26  1  0
 15 27  1  0
 16 28  1  0
 17 29  1  0
 18 30  1  0
M  CHG  1   1  -1
M  END
>  <UniqueID>  (19) 
17

>  <SMILES>  (19) 
[NH-]S(=O)(=O)c1cccc(-c2cccc(CO)c2)c1

>  <Energy>  (19) 
34.92043411528929

>  <Genealogy>  (19) 
[NH-]S(=O)(=O)c1cccc(-c2cccc(CO)c2)c1 (protonated)
[NH-]S(=O)(=O)c1cccc(-c2cccc(CO)c2)c1 (3D coordinates assigned)
[NH-]S(=O)(=O)c1cccc(-c2cccc(CO)c2)c1 (optimized conformer: 34.92043411528929 kcal/mol)

>  <smiles>  (19) 
NS(=O)(=O)c1cccc(-c2cccc(CO)c2)c1

>  <score_type>  (19) 
oracle

>  <origin>  (19) 
adg

>  <m_score__min__energy>  (19) 
-10.25

>  <m_primary>  (19) 
energy

$$$$
19:0
     RDKit          3D

 38 41  0  0  0  0  0  0  0  0999 V2000
   57.1641   34.1351   43.8056 H   0  0  0  0  0  0  0  0  0  0  0  0
   57.8640   33.7350   44.5540 C   0  0  0  0  0  0  0  0  0  0  0  0
   58.6080   34.6200   45.2380 C   0  0  0  0  0  0  0  0  0  0  0  0
   58.6071   35.6615   44.8839 H   0  0  0  0  0  0  0  0  0  0  0  0
   59.4280   34.3080   46.4280 C   0  0  0  0  0  0  0  0  0  0  0  0
   58.9190   34.4490   47.7320 C   0  0  0  0  0  0  0  0  0  0  0  0
   57.8804   34.7790   47.8813 H   0  0  0  0  0  0  0  0  0  0  0  0
   59.7260   34.1720   48.8380 C   0  0  0  0  0  0  0  0  0  0  0  0
   59.3169   34.2690   49.8545 H   0  0  0  0  0  0  0  0  0  0  0  0
   61.0520   33.7720   48.6550 C   0  0  0  0  0  0  0  0  0  0  0  0
   61.6835   33.5466   49.5270 H   0  0  0  0  0  0  0  0  0  0  0  0
   61.5770   33.6580   47.3640 C   0  0  0  0  0  0  0  0  0  0  0  0
   63.3940   33.1270   47.1140 Br  0  0  0  0  0  0  0  0  0  0  0  0
   60.7710   33.9340   46.2540 C   0  0  0  0  0  0  0  0  0  0  0  0
   61.1910   33.8578   45.2402 H   0  0  0  0  0  0  0  0  0  0  0  0
   57.9090   32.2660   44.7250 C   0  0  0  0  0  0  0  0  0  0  0  0
   57.7450   31.4380   43.6090 C   0  0  0  0  0  0  0  0  0  0  0  0
   57.5637   31.8819   42.6190 H   0  0  0  0  0  0  0  0  0  0  0  0
   57.8090   30.0870   43.7440 N   0  0  0  0  0  0  0  0  0  0  0  0
   58.0470   29.4840   44.9420 C   0  0  0  0  0  0  0  0  0  0  0  0
   58.0950   28.0060   44.9980 C   0  0  0  0  0  0  0  0  0  0  0  0
   59.0050   27.1380   46.1380 S   0  0  0  0  0  0  0  0  0  0  0  0
   58.5290   25.6520   45.5210 C   0  0  0  0  0  0  0  0  0  0  0  0
   58.8810   24.3750   45.9510 C   0  0  0  0  0  0  0  0  0  0  0  0
   59.5578   24.2319   46.8063 H   0  0  0  0  0  0  0  0  0  0  0  0
   58.3460   23.2750   45.2600 C   0  0  0  0  0  0  0  0  0  0  0  0
   58.6033   22.2529   45.5749 H   0  0  0  0  0  0  0  0  0  0  0  0
   57.4810   23.4750   44.1650 C   0  0  0  0  0  0  0  0  0  0  0  0
   57.0681   22.6069   43.6303 H   0  0  0  0  0  0  0  0  0  0  0  0
   57.1420   24.7740   43.7510 C   0  0  0  0  0  0  0  0  0  0  0  0
   56.4677   24.9326   42.8965 H   0  0  0  0  0  0  0  0  0  0  0  0
   57.6790   25.8610   44.4470 C   0  0  0  0  0  0  0  0  0  0  0  0
   57.4380   27.1660   44.1540 N   0  0  0  0  0  0  0  0  0  0  0  0
   56.8240   27.4650   43.3650 H   0  0  0  0  0  0  0  0  0  0  0  0
   58.2510   30.2830   46.0790 C   0  0  0  0  0  0  0  0  0  0  0  0
   58.4567   29.8166   47.0537 H   0  0  0  0  0  0  0  0  0  0  0  0
   58.1910   31.6720   45.9640 C   0  0  0  0  0  0  0  0  0  0  0  0
   58.3654   32.3034   46.8477 H   0  0  0  0  0  0  0  0  0  0  0  0
  1  2  1  0
  2  3  2  0
  3  4  1  0
  3  5  1  0
  5  6  2  0
  6  7  1  0
  6  8  1  0
  8  9  1  0
  8 10  2  0
 10 11  1  0
 10 12  1  0
 12 13  1  0
 12 14  2  0
 14 15  1  0
  2 16  1  0
 16 17  2  0
 17 18  1  0
 17 19  1  0
 19 20  2  0
 20 21  1  0
 21 22  1  0
 22 23  1  0
 23 24  2  0
 24 25  1  0
 24 26  1  0
 26 27  1  0
 26 28  2  0
 28 29  1  0
 28 30  1  0
 30 31  1  0
 30 32  2  0
 32 33  1  0
 33 34  1  0
 20 35  1  0
 35 36  1  0
 35 37  2  0
 37 38  1  0
 14  5  1  0
 37 16  1  0
 33 21  2  0
 32 23  1  0
M  CHG  1  33   1
M  END
>  <UniqueID>  (20) 
18

>  <SMILES>  (20) 
Brc1cccc(/C=C\c2ccc(-c3[nH+]c4ccccc4s3)nc2)c1

>  <Energy>  (20) 
88.22734052097664

>  <Genealogy>  (20) 
Brc1cccc(C=Cc2ccc(-c3[nH+]c4ccccc4s3)nc2)c1 (protonated)
Brc1cccc(/C=C\c2ccc(-c3[nH+]c4ccccc4s3)nc2)c1 (cis-trans isomerization)
Brc1cccc(/C=C\c2ccc(-c3[nH+]c4ccccc4s3)nc2)c1 (3D coordinates assigned)
Brc1cccc(/C=C\c2ccc(-c3[nH+]c4ccccc4s3)nc2)c1 (optimized conformer: 88.22734052097664 kcal/mol)

>  <smiles>  (20) 
Brc1cccc(C=Cc2ccc(-c3nc4ccccc4s3)nc2)c1

>  <score_type>  (20) 
oracle

>  <origin>  (20) 
adg

>  <m_score__min__energy>  (20) 
-8.0500000000000007

>  <m_primary>  (20) 
energy

$$$$
20:0
     RDKit          3D

 34 36  0  0  0  0  0  0  0  0999 V2000
   58.9390   33.4170   51.8710 C   0  0  0  0  0  0  0  0  0  0  0  0
   58.3190   32.7150   50.8020 O   0  0  0  0  0  0  0  0  0  0  0  0
   59.0340   31.8830   49.9350 C   0  0  0  0  0  0  0  0  0  0  0  0
   58.5190   30.8140   49.5080 O   0  0  0  0  0  0  0  0  0  0  0  0
   60.4080   32.3070   49.4740 C   0  0  1  0  0  0  0  0  0  0  0  0
   61.3910   31.1330   49.3290 C   0  0  0  0  0  0  0  0  0  0  0  0
   61.2900   29.9360   50.2290 C   0  0  0  0  0  0  0  0  0  0  0  0
   62.4460   31.2460   48.5700 N   0  0  0  0  0  0  0  0  0  0  0  0
   62.6240   32.3990   47.7520 C   0  0  0  0  0  0  0  0  0  0  0  0
   63.6910   32.6630   46.9860 N   0  0  0  0  0  0  0  0  0  0  0  0
   63.3300   33.8100   46.3650 C   0  0  0  0  0  0  0  0  0  0  0  0
   62.0910   34.2180   46.7310 N   0  0  0  0  0  0  0  0  0  0  0  0
   61.6760   33.3240   47.6120 N   0  0  0  0  0  0  0  0  0  0  0  0
   60.3450   33.2240   48.2060 C   0  0  1  0  0  0  0  0  0  0  0  0
   59.3530   32.7420   47.1600 C   0  0  0  0  0  0  0  0  0  0  0  0
   58.2850   33.5680   46.7740 C   0  0  0  0  0  0  0  0  0  0  0  0
   57.3610   33.1100   45.8320 C   0  0  0  0  0  0  0  0  0  0  0  0
   57.4920   31.8680   45.2950 N   0  0  0  0  0  0  0  0  0  0  0  0
   58.5100   31.0430   45.6520 C   0  0  0  0  0  0  0  0  0  0  0  0
   59.4550   31.4600   46.5910 C   0  0  0  0  0  0  0  0  0  0  0  0
   58.5826   33.0134   52.8302 H   0  0  0  0  0  0  0  0  0  0  0  0
   60.0303   33.2959   51.8051 H   0  0  0  0  0  0  0  0  0  0  0  0
   58.6840   34.4850   51.8051 H   0  0  0  0  0  0  0  0  0  0  0  0
   60.8274   32.9254   50.2813 H   0  0  0  0  0  0  0  0  0  0  0  0
   61.3176   30.2632   51.2788 H   0  0  0  0  0  0  0  0  0  0  0  0
   60.3442   29.4093   50.0339 H   0  0  0  0  0  0  0  0  0  0  0  0
   62.1342   29.2583   50.0339 H   0  0  0  0  0  0  0  0  0  0  0  0
   64.5700   32.1110   46.8770 H   0  0  0  0  0  0  0  0  0  0  0  0
   63.9674   34.3477   45.6476 H   0  0  0  0  0  0  0  0  0  0  0  0
   59.9920   34.2099   48.5429 H   0  0  0  0  0  0  0  0  0  0  0  0
   58.1766   34.5714   47.2116 H   0  0  0  0  0  0  0  0  0  0  0  0
   56.5254   33.7557   45.5240 H   0  0  0  0  0  0  0  0  0  0  0  0
   58.5901   30.0434   45.2000 H   0  0  0  0  0  0  0  0  0  0  0  0
   60.2757   30.7889   46.8845 H   0  0  0  0  0  0  0  0  0  0  0  0
  1  2  1  0
  2  3  1  0
  3  4  2  0
  3  5  1  0
  5  6  1  0
  6  7  1  0
  6  8  2  0
  8  9  1  0
  9 10  2  0
 10 11  1  0
 11 12  2  0
 12 13  1  0
 13 14  1  0
 14 15  1  0
 15 16  2  0
 16 17  1  0
 17 18  2  0
 18 19  1  0
 19 20  2  0
 14  5  1  0
 20 15  1  0
 13  9  1  0
  1 21  1  0
  1 22  1  0
  1 23  1  0
  5 24  1  1
  7 25  1  0
  7 26  1  0
  7 27  1  0
 10 28  1  0
 11 29  1  0
 14 30  1  1
 16 31  1  0
 17 32  1  0
 19 33  1  0
 20 34  1  0
M  CHG  1  10   1
M  END
>  <UniqueID>  (21) 
19

>  <SMILES>  (21) 
COC(=O)[C@H]1C(C)=Nc2[nH+]cnn2[C@H]1c1ccncc1

>  <Energy>  (21) 
76.2349056349495

>  <Genealogy>  (21) 
COC(=O)C1C(C)=Nc2[nH+]cnn2C1c1ccncc1 (protonated)
COC(=O)[C@H]1C(C)=Nc2[nH+]cnn2[C@H]1c1ccncc1 (chirality)
COC(=O)[C@H]1C(C)=Nc2[nH+]cnn2[C@H]1c1ccncc1 (3D coordinates assigned)
COC(=O)[C@H]1C(C)=Nc2[nH+]cnn2[C@H]1c1ccncc1 (nonaromatic ring conformer: 76.2349056349495 kcal/mol)

>  <smiles>  (21) 
COC(=O)C1C(C)=Nc2ncnn2C1c1ccncc1

>  <score_type>  (21) 
oracle

>  <origin>  (21) 
adg

>  <m_score__min__energy>  (21) 
-4.8399999999999999

>  <m_primary>  (21) 
energy

$$$$
21:0
     RDKit          3D

 46 49  0  0  0  0  0  0  0  0999 V2000
   56.3480   20.7910   44.2460 C   0  0  0  0  0  0  0  0  0  0  0  0
   55.5480   21.6410   44.8910 C   0  0  0  0  0  0  0  0  0  0  0  0
   55.9020   23.0360   45.2350 C   0  0  0  0  0  0  0  0  0  0  0  0
   54.9410   24.0440   45.4430 C   0  0  0  0  0  0  0  0  0  0  0  0
   55.3520   25.3390   45.7750 C   0  0  0  0  0  0  0  0  0  0  0  0
   54.3910   26.3260   45.9750 O   0  0  0  0  0  0  0  0  0  0  0  0
   56.7200   25.6270   45.9050 C   0  0  0  0  0  0  0  0  0  0  0  0
   57.1780   26.9140   46.2360 C   0  0  0  0  0  0  0  0  0  0  0  0
   58.5520   27.1590   46.3610 C   0  0  0  0  0  0  0  0  0  0  0  0
   59.0220   28.4760   46.7000 C   0  0  0  0  0  0  0  0  0  0  0  0
   59.4230   29.5780   46.9800 C   0  0  0  0  0  0  0  0  0  0  0  0
   59.9150   30.8880   47.3090 C   0  0  0  0  0  0  0  0  0  0  0  0
   60.8680   31.1220   48.1740 O   0  0  0  0  0  0  0  0  0  0  0  0
   61.0410   32.4260   48.2120 C   0  0  0  0  0  0  0  0  0  0  0  0
   62.0650   33.0830   49.0530 C   0  0  0  0  0  0  0  0  0  0  0  0
   61.6570   33.6340   50.2820 C   0  0  0  0  0  0  0  0  0  0  0  0
   62.5900   34.1960   51.1560 C   0  0  0  0  0  0  0  0  0  0  0  0
   63.9420   34.2150   50.8160 C   0  0  0  0  0  0  0  0  0  0  0  0
   64.3620   33.6940   49.5920 C   0  0  0  0  0  0  0  0  0  0  0  0
   63.4360   33.1470   48.6940 C   0  0  0  0  0  0  0  0  0  0  0  0
   63.9120   32.7190   47.4530 O   0  0  0  0  0  0  0  0  0  0  0  0
   60.2170   33.0830   47.3650 N   0  0  0  0  0  0  0  0  0  0  0  0
   59.4960   32.0980   46.7950 C   0  0  0  0  0  0  0  0  0  0  0  0
   58.4490   32.3290   45.7880 C   0  0  0  0  0  0  0  0  0  0  0  0
   57.4350   31.5790   45.7640 O   0  0  0  0  0  0  0  0  0  0  0  0
   58.5790   33.3730   44.8680 O   0  0  0  0  0  0  0  0  0  0  0  0
   58.9750   34.6860   45.2450 C   0  0  0  0  0  0  0  0  0  0  0  0
   59.4720   26.1230   46.1560 C   0  0  0  0  0  0  0  0  0  0  0  0
   59.0230   24.8410   45.8260 C   0  0  0  0  0  0  0  0  0  0  0  0
   57.6530   24.5880   45.6990 C   0  0  0  0  0  0  0  0  0  0  0  0
   57.2220   23.3400   45.3770 N   0  0  0  0  0  0  0  0  0  0  0  0
   56.0044   19.7686   44.0300 H   0  0  0  0  0  0  0  0  0  0  0  0
   57.3515   21.1123   43.9300 H   0  0  0  0  0  0  0  0  0  0  0  0
   54.5529   21.2789   45.1889 H   0  0  0  0  0  0  0  0  0  0  0  0
   53.8699   23.8135   45.3446 H   0  0  0  0  0  0  0  0  0  0  0  0
   56.4574   27.7294   46.3970 H   0  0  0  0  0  0  0  0  0  0  0  0
   60.5920   33.6219   50.5571 H   0  0  0  0  0  0  0  0  0  0  0  0
   62.2580   34.6240   52.1134 H   0  0  0  0  0  0  0  0  0  0  0  0
   64.6781   34.6412   51.5135 H   0  0  0  0  0  0  0  0  0  0  0  0
   65.4300   33.7128   49.3294 H   0  0  0  0  0  0  0  0  0  0  0  0
   64.8430   32.3540   47.3070 H   0  0  0  0  0  0  0  0  0  0  0  0
   58.9977   34.7613   46.3422 H   0  0  0  0  0  0  0  0  0  0  0  0
   59.9767   34.8967   44.8422 H   0  0  0  0  0  0  0  0  0  0  0  0
   58.2569   35.4154   44.8422 H   0  0  0  0  0  0  0  0  0  0  0  0
   60.5500   26.3186   46.2549 H   0  0  0  0  0  0  0  0  0  0  0  0
   59.7483   24.0296   45.6659 H   0  0  0  0  0  0  0  0  0  0  0  0
  1  2  2  0
  2  3  1  0
  3  4  2  0
  4  5  1  0
  5  6  1  0
  5  7  2  0
  7  8  1  0
  8  9  2  0
  9 10  1  0
 10 11  3  0
 11 12  1  0
 12 13  1  0
 13 14  1  0
 14 15  1  0
 15 16  2  0
 16 17  1  0
 17 18  2  0
 18 19  1  0
 19 20  2  0
 20 21  1  0
 14 22  2  0
 22 23  1  0
 23 24  1  0
 24 25  2  0
 24 26  1  0
 26 27  1  0
  9 28  1  0
 28 29  2  0
 29 30  1  0
 30 31  2  0
 31  3  1  0
 30  7  1  0
 23 12  2  0
 20 15  1  0
  1 32  1  0
  1 33  1  0
  2 34  1  0
  4 35  1  0
  8 36  1  0
 16 37  1  0
 17 38  1  0
 18 39  1  0
 19 40  1  0
 21 41  1  0
 27 42  1  0
 27 43  1  0
 27 44  1  0
 28 45  1  0
 29 46  1  0
M  CHG  1   6  -1
M  END
>  <UniqueID>  (22) 
20

>  <SMILES>  (22) 
C=Cc1cc([O-])c2cc(C#Cc3oc(-c4ccccc4O)nc3C(=O)OC)ccc2n1

>  <Energy>  (22) 
84.00003425048425

>  <Genealogy>  (22) 
C=Cc1cc([O-])c2cc(C#Cc3oc(-c4ccccc4O)nc3C(=O)OC)ccc2n1 (protonated)
C=Cc1cc([O-])c2cc(C#Cc3oc(-c4ccccc4O)nc3C(=O)OC)ccc2n1 (3D coordinates assigned)
C=Cc1cc([O-])c2cc(C#Cc3oc(-c4ccccc4O)nc3C(=O)OC)ccc2n1 (optimized conformer: 84.00003425048425 kcal/mol)

>  <smiles>  (22) 
C=Cc1cc(O)c2cc(C#Cc3oc(-c4ccccc4O)nc3C(=O)OC)ccc2n1

>  <score_type>  (22) 
oracle

>  <origin>  (22) 
adg

>  <m_score__min__energy>  (22) 
-10.890000000000001

>  <m_primary>  (22) 
energy

$$$$
22:0
     RDKit          3D

 47 49  0  0  0  0  0  0  0  0999 V2000
   60.1980   30.6530   50.2940 C   0  0  0  0  0  0  0  0  0  0  0  0
   61.4910   30.3520   49.7770 O   0  0  0  0  0  0  0  0  0  0  0  0
   62.3280   31.2810   49.1380 C   0  0  0  0  0  0  0  0  0  0  0  0
   63.4430   31.8500   49.7850 C   0  0  0  0  0  0  0  0  0  0  0  0
   64.2480   32.7760   49.1180 C   0  0  0  0  0  0  0  0  0  0  0  0
   63.9460   33.1540   47.8110 C   0  0  0  0  0  0  0  0  0  0  0  0
   62.8440   32.5980   47.1580 C   0  0  0  0  0  0  0  0  0  0  0  0
   62.0380   31.6440   47.8100 C   0  0  0  0  0  0  0  0  0  0  0  0
   60.8850   31.0710   47.1730 N   0  0  0  0  0  0  0  0  0  0  0  0
   60.7370   29.7160   46.7330 C   0  0  0  0  0  0  0  0  0  0  0  0
   60.9380   29.4070   45.5270 O   0  0  0  0  0  0  0  0  0  0  0  0
   60.4090   28.7030   47.6910 N   0  0  0  0  0  0  0  0  0  0  0  0
   60.2970   27.2900   47.3360 C   0  0  0  0  0  0  0  0  0  0  0  0
   58.9080   26.9830   46.8470 C   0  0  0  0  0  0  0  0  0  0  0  0
   58.3530   25.7070   47.0200 C   0  0  0  0  0  0  0  0  0  0  0  0
   57.0520   25.4400   46.5870 C   0  0  0  0  0  0  0  0  0  0  0  0
   56.2980   26.4420   45.9720 C   0  0  0  0  0  0  0  0  0  0  0  0
   56.8430   27.7160   45.7750 C   0  0  0  0  0  0  0  0  0  0  0  0
   56.0360   28.7260   45.1500 N   0  0  0  0  0  0  0  0  0  0  0  0
   56.4750   29.6750   44.1680 C   0  0  0  0  0  0  0  0  0  0  0  0
   56.2510   29.4300   42.9520 O   0  0  0  0  0  0  0  0  0  0  0  0
   57.2240   30.8990   44.5350 C   0  0  0  0  0  0  0  0  0  0  0  0
   57.7410   31.0470   45.8330 C   0  0  0  0  0  0  0  0  0  0  0  0
   58.4530   32.1980   46.1850 C   0  0  0  0  0  0  0  0  0  0  0  0
   58.6470   33.2170   45.2480 C   0  0  0  0  0  0  0  0  0  0  0  0
   59.6220   34.7870   45.7300 Br  0  0  0  0  0  0  0  0  0  0  0  0
   58.1220   33.0870   43.9580 C   0  0  0  0  0  0  0  0  0  0  0  0
   57.4090   31.9380   43.6030 C   0  0  0  0  0  0  0  0  0  0  0  0
   58.1420   27.9910   46.2360 C   0  0  0  0  0  0  0  0  0  0  0  0
   60.2318   30.6451   51.3935 H   0  0  0  0  0  0  0  0  0  0  0  0
   59.8856   31.6479   49.9439 H   0  0  0  0  0  0  0  0  0  0  0  0
   59.4783   29.8984   49.9439 H   0  0  0  0  0  0  0  0  0  0  0  0
   63.6804   31.5635   50.8202 H   0  0  0  0  0  0  0  0  0  0  0  0
   65.1229   33.2082   49.6257 H   0  0  0  0  0  0  0  0  0  0  0  0
   64.5767   33.8915   47.2930 H   0  0  0  0  0  0  0  0  0  0  0  0
   62.6041   32.9063   46.1297 H   0  0  0  0  0  0  0  0  0  0  0  0
   60.2340   28.9860   48.6810 H   0  0  0  0  0  0  0  0  0  0  0  0
   61.0212   27.0570   46.5415 H   0  0  0  0  0  0  0  0  0  0  0  0
   60.5057   26.6796   48.2270 H   0  0  0  0  0  0  0  0  0  0  0  0
   58.9446   24.9128   47.4988 H   0  0  0  0  0  0  0  0  0  0  0  0
   56.6204   24.4385   46.7307 H   0  0  0  0  0  0  0  0  0  0  0  0
   55.2709   26.2288   45.6409 H   0  0  0  0  0  0  0  0  0  0  0  0
   57.5847   30.2523   46.5773 H   0  0  0  0  0  0  0  0  0  0  0  0
   58.8612   32.3017   47.2012 H   0  0  0  0  0  0  0  0  0  0  0  0
   58.2704   33.8904   43.2214 H   0  0  0  0  0  0  0  0  0  0  0  0
   56.9903   31.8452   42.5901 H   0  0  0  0  0  0  0  0  0  0  0  0
   58.5617   29.0009   46.1180 H   0  0  0  0  0  0  0  0  0  0  0  0
  1  2  1  0
  2  3  1  0
  3  4  2  0
  4  5  1  0
  5  6  2  0
  6  7  1  0
  7  8  2  0
  8  9  1  0
  9 10  1  0
 10 11  2  0
 10 12  1  0
 12 13  1  0
 13 14  1  0
 14 15  2  0
 15 16  1  0
 16 17  2  0
 17 18  1  0
 18 19  1  0
 19 20  1  0
 20 21  2  0
 20 22  1  0
 22 23  2  0
 23 24  1  0
 24 25  2  0
 25 26  1  0
 25 27  1  0
 27 28  2  0
 18 29  2  0
  8  3  1  0
 29 14  1  0
 28 22  1  0
  1 30  1  0
  1 31  1  0
  1 32  1  0
  4 33  1  0
  5 34  1  0
  6 35  1  0
  7 36  1  0
 12 37  1  0
 13 38  1  0
 13 39  1  0
 15 40  1  0
 16 41  1  0
 17 42  1  0
 23 43  1  0
 24 44  1  0
 27 45  1  0
 28 46  1  0
 29 47  1  0
M  CHG  2   9  -1  19  -1
M  END
>  <UniqueID>  (23) 
21

>  <SMILES>  (23) 
COc1ccccc1[N-]C(=O)NCc1cccc([N-]C(=O)c2ccc(Br)cc2)c1

>  <Energy>  (23) 
56.18903401953031

>  <Genealogy>  (23) 
COc1ccccc1[N-]C(=O)NCc1cccc([N-]C(=O)c2ccc(Br)cc2)c1 (protonated)
COc1ccccc1[N-]C(=O)NCc1cccc([N-]C(=O)c2ccc(Br)cc2)c1 (3D coordinates assigned)
COc1ccccc1[N-]C(=O)NCc1cccc([N-]C(=O)c2ccc(Br)cc2)c1 (optimized conformer: 56.18903401953031 kcal/mol)

>  <smiles>  (23) 
COc1ccccc1NC(=O)NCc1cccc(NC(=O)c2ccc(Br)cc2)c1

>  <score_type>  (23) 
oracle

>  <origin>  (23) 
adg

>  <m_score__min__energy>  (23) 
-12.390000000000001

>  <m_primary>  (23) 
energy

$$$$
23:0
     RDKit          3D

 59 63  0  0  0  0  0  0  0  0999 V2000
   58.7920   21.5370   45.6430 C   0  0  0  0  0  0  0  0  0  0  0  0
   57.9170   22.1190   44.6040 C   0  0  0  0  0  0  0  0  0  0  0  0
   57.1650   21.2640   43.7960 C   0  0  0  0  0  0  0  0  0  0  0  0
   56.3290   21.7880   42.8060 C   0  0  0  0  0  0  0  0  0  0  0  0
   56.2790   23.1560   42.6630 C   0  0  0  0  0  0  0  0  0  0  0  0
   57.0330   23.9790   43.4740 C   0  0  0  0  0  0  0  0  0  0  0  0
   57.1660   25.3130   43.5420 N   0  0  0  0  0  0  0  0  0  0  0  0
   58.0320   25.6530   44.5110 C   0  0  0  0  0  0  0  0  0  0  0  0
   58.4380   26.9930   44.8900 C   0  0  0  0  0  0  0  0  0  0  0  0
   58.9740   28.0110   44.1950 C   0  0  0  0  0  0  0  0  0  0  0  0
   59.2530   29.1650   44.8200 C   0  0  0  0  0  0  0  0  0  0  0  0
   58.9620   29.2310   46.1700 C   0  0  0  0  0  0  0  0  0  0  0  0
   59.1440   30.3260   47.1270 C   0  0  0  0  0  0  0  0  0  0  0  0
   58.9160   30.0610   48.4520 C   0  0  0  0  0  0  0  0  0  0  0  0
   59.0870   31.1050   49.3420 C   0  0  0  0  0  0  0  0  0  0  0  0
   59.4780   32.3670   48.8870 C   0  0  0  0  0  0  0  0  0  0  0  0
   59.6340   33.4090   49.9310 C   0  0  0  0  0  0  0  0  0  0  0  0
   60.5270   33.0060   51.0060 N   0  0  0  0  0  0  0  0  0  0  0  0
   59.9430   33.1490   52.2950 C   0  0  0  0  0  0  0  0  0  0  0  0
   58.5590   33.6460   52.3360 C   0  0  0  0  0  0  0  0  0  0  0  0
   57.6140   32.8530   52.0480 O   0  0  0  0  0  0  0  0  0  0  0  0
   58.1890   34.9380   52.6720 O   0  0  0  0  0  0  0  0  0  0  0  0
   61.7930   33.6820   50.8590 C   0  0  0  0  0  0  0  0  0  0  0  0
   62.4170   33.2830   49.5760 C   0  0  0  0  0  0  0  0  0  0  0  0
   62.6860   34.2020   48.5800 C   0  0  0  0  0  0  0  0  0  0  0  0
   63.2760   33.8410   47.3730 C   0  0  0  0  0  0  0  0  0  0  0  0
   63.6180   32.5310   47.1180 C   0  0  0  0  0  0  0  0  0  0  0  0
   63.3570   31.5980   48.0980 C   0  0  0  0  0  0  0  0  0  0  0  0
   62.7720   31.9680   49.2950 C   0  0  0  0  0  0  0  0  0  0  0  0
   59.6910   32.5710   47.5530 C   0  0  0  0  0  0  0  0  0  0  0  0
   59.5250   31.5330   46.6320 C   0  0  0  0  0  0  0  0  0  0  0  0
   58.2700   27.6060   46.5830 S   0  0  0  0  0  0  0  0  0  0  0  0
   58.4680   24.5410   45.0810 N   0  0  0  0  0  0  0  0  0  0  0  0
   57.8710   23.4810   44.4650 C   0  0  0  0  0  0  0  0  0  0  0  0
   58.4020   21.7964   46.6383 H   0  0  0  0  0  0  0  0  0  0  0  0
   58.8153   20.4429   45.5321 H   0  0  0  0  0  0  0  0  0  0  0  0
   59.8101   21.9385   45.5321 H   0  0  0  0  0  0  0  0  0  0  0  0
   57.2306   20.1753   43.9389 H   0  0  0  0  0  0  0  0  0  0  0  0
   55.7299   21.1279   42.1615 H   0  0  0  0  0  0  0  0  0  0  0  0
   55.6301   23.5985   41.8929 H   0  0  0  0  0  0  0  0  0  0  0  0
   56.6460   25.9620   42.9050 H   0  0  0  0  0  0  0  0  0  0  0  0
   59.1826   27.8987   43.1208 H   0  0  0  0  0  0  0  0  0  0  0  0
   59.6927   30.0187   44.2834 H   0  0  0  0  0  0  0  0  0  0  0  0
   58.6101   29.0608   48.7927 H   0  0  0  0  0  0  0  0  0  0  0  0
   58.9140   30.9411   50.4159 H   0  0  0  0  0  0  0  0  0  0  0  0
   60.0381   34.3180   49.4616 H   0  0  0  0  0  0  0  0  0  0  0  0
   58.6423   33.5824   50.3741 H   0  0  0  0  0  0  0  0  0  0  0  0
   59.9584   32.1620   52.7805 H   0  0  0  0  0  0  0  0  0  0  0  0
   60.5439   33.9172   52.8038 H   0  0  0  0  0  0  0  0  0  0  0  0
   57.9430   35.6220   51.9680 H   0  0  0  0  0  0  0  0  0  0  0  0
   61.6312   34.7700   50.8659 H   0  0  0  0  0  0  0  0  0  0  0  0
   62.4562   33.4059   51.6920 H   0  0  0  0  0  0  0  0  0  0  0  0
   62.4242   35.2572   48.7475 H   0  0  0  0  0  0  0  0  0  0  0  0
   63.4720   34.6113   46.6125 H   0  0  0  0  0  0  0  0  0  0  0  0
   64.0834   32.2398   46.1648 H   0  0  0  0  0  0  0  0  0  0  0  0
   63.6179   30.5434   47.9255 H   0  0  0  0  0  0  0  0  0  0  0  0
   62.5804   31.1940   50.0527 H   0  0  0  0  0  0  0  0  0  0  0  0
   59.9975   33.5663   47.1988 H   0  0  0  0  0  0  0  0  0  0  0  0
   59.6949   31.6859   45.5560 H   0  0  0  0  0  0  0  0  0  0  0  0
  1  2  1  0
  2  3  2  0
  3  4  1  0
  4  5  2  0
  5  6  1  0
  6  7  1  0
  7  8  1  0
  8  9  1  0
  9 10  2  0
 10 11  1  0
 11 12  2  0
 12 13  1  0
 13 14  2  0
 14 15  1  0
 15 16  2  0
 16 17  1  0
 17 18  1  0
 18 19  1  0
 19 20  1  0
 20 21  2  0
 20 22  1  0
 18 23  1  0
 23 24  1  0
 24 25  2  0
 25 26  1  0
 26 27  2  0
 27 28  1  0
 28 29  2  0
 16 30  1  0
 30 31  2  0
 12 32  1  0
  8 33  2  0
 33 34  1  0
 34  2  1  0
 34  6  2  0
 32  9  1  0
 31 13  1  0
 29 24  1  0
  1 35  1  0
  1 36  1  0
  1 37  1  0
  3 38  1  0
  4 39  1  0
  5 40  1  0
  7 41  1  0
 10 42  1  0
 11 43  1  0
 14 44  1  0
 15 45  1  0
 17 46  1  0
 17 47  1  0
 19 48  1  0
 19 49  1  0
 22 50  1  0
 23 51  1  0
 23 52  1  0
 25 53  1  0
 26 54  1  0
 27 55  1  0
 28 56  1  0
 29 57  1  0
 30 58  1  0
 31 59  1  0
M  END
>  <smiles>  (24) 
Cc1cccc2[nH]c(-c3ccc(-c4ccc(CN(CC(=O)O)Cc5ccccc5)cc4)s3)nc12

>  <score_type>  (24) 
oracle

>  <origin>  (24) 
adg

>  <m_score__min__energy>  (24) 
-9.1799999999999997

>  <m_primary>  (24) 
energy

$$$$
24:0
     RDKit          3D

 32 33  0  0  0  0  0  0  0  0999 V2000
   59.8760   30.1160   46.1360 C   0  0  0  0  0  0  0  0  0  0  0  0
   58.8970   30.9630   46.9400 C   0  0  0  0  0  0  0  0  0  0  0  0
   58.7890   32.3460   46.3580 C   0  0  0  0  0  0  0  0  0  0  0  0
   59.2990   33.4800   47.0100 C   0  0  0  0  0  0  0  0  0  0  0  0
   58.9910   34.6760   46.3740 C   0  0  0  0  0  0  0  0  0  0  0  0
   58.0680   34.3310   45.0120 S   0  0  0  0  0  0  0  0  0  0  0  0
   58.0690   32.6640   45.2050 C   0  0  0  0  0  0  0  0  0  0  0  0
   57.3810   31.7250   44.3100 C   0  0  0  0  0  0  0  0  0  0  0  0
   57.7500   31.6390   43.1090 O   0  0  0  0  0  0  0  0  0  0  0  0
   56.3190   30.8870   44.7780 N   0  0  0  0  0  0  0  0  0  0  0  0
   56.0570   29.5490   44.2590 C   0  0  0  0  0  0  0  0  0  0  0  0
   56.8120   28.5090   45.0910 C   0  0  2  0  0  0  0  0  0  0  0  0
   57.8940   27.8030   44.2540 C   0  0  0  0  0  0  0  0  0  0  0  0
   58.4870   26.7640   45.0130 O   0  0  0  0  0  0  0  0  0  0  0  0
   57.5710   25.6950   45.1850 C   0  0  0  0  0  0  0  0  0  0  0  0
   56.2800   26.1630   45.7960 C   0  0  0  0  0  0  0  0  0  0  0  0
   55.5170   25.3490   46.3800 O   0  0  0  0  0  0  0  0  0  0  0  0
   55.8780   27.5220   45.6250 N   0  0  0  0  0  0  0  0  0  0  0  0
   60.5253   29.5542   46.8236 H   0  0  0  0  0  0  0  0  0  0  0  0
   59.3170   29.4120   45.5020 H   0  0  0  0  0  0  0  0  0  0  0  0
   60.4923   30.7704   45.5020 H   0  0  0  0  0  0  0  0  0  0  0  0
   57.9064   30.4851   46.9219 H   0  0  0  0  0  0  0  0  0  0  0  0
   59.2635   31.0418   47.9742 H   0  0  0  0  0  0  0  0  0  0  0  0
   59.8875   33.4264   47.9378 H   0  0  0  0  0  0  0  0  0  0  0  0
   59.2989   35.6787   46.7054 H   0  0  0  0  0  0  0  0  0  0  0  0
   54.9777   29.3430   44.3102 H   0  0  0  0  0  0  0  0  0  0  0  0
   56.3976   29.4931   43.2146 H   0  0  0  0  0  0  0  0  0  0  0  0
   57.3071   29.0333   45.9217 H   0  0  0  0  0  0  0  0  0  0  0  0
   57.4358   27.3780   43.3488 H   0  0  0  0  0  0  0  0  0  0  0  0
   58.6672   28.5324   43.9710 H   0  0  0  0  0  0  0  0  0  0  0  0
   57.3588   25.2458   44.2036 H   0  0  0  0  0  0  0  0  0  0  0  0
   58.0257   24.9594   45.8648 H   0  0  0  0  0  0  0  0  0  0  0  0
  1  2  1  0
  2  3  1  0
  3  4  1  0
  4  5  2  0
  5  6  1  0
  6  7  1  0
  7  8  1  0
  8  9  2  0
  8 10  1  0
 10 11  1  0
 11 12  1  0
 12 13  1  0
 13 14  1  0
 14 15  1  0
 15 16  1  0
 16 17  2  0
 16 18  1  0
  7  3  2  0
 18 12  1  0
  1 19  1  0
  1 20  1  0
  1 21  1  0
  2 22  1  0
  2 23  1  0
  4 24  1  0
  5 25  1  0
 11 26  1  0
 11 27  1  0
 12 28  1  1
 13 29  1  0
 13 30  1  0
 15 31  1  0
 15 32  1  0
M  CHG  2  10  -1  18  -1
M  END
>  <UniqueID>  (25) 
22

>  <SMILES>  (25) 
CCc1ccsc1C(=O)[N-]C[C@@H]1COCC(=O)[N-]1

>  <Energy>  (25) 
59.39699744025651

>  <Genealogy>  (25) 
CCc1ccsc1C(=O)[N-]CC1COCC(=O)[N-]1 (protonated)
CCc1ccsc1C(=O)[N-]C[C@@H]1COCC(=O)[N-]1 (chirality)
CCc1ccsc1C(=O)[N-]C[C@@H]1COCC(=O)[N-]1 (3D coordinates assigned)
CCc1ccsc1C(=O)[N-]C[C@@H]1COCC(=O)[N-]1 (nonaromatic ring conformer: 59.39699744025651 kcal/mol)

>  <smiles>  (25) 
CCc1ccsc1C(=O)NCC1COCC(=O)N1

>  <score_type>  (25) 
oracle

>  <origin>  (25) 
adg

>  <m_score__min__energy>  (25) 
-10.77

>  <m_primary>  (25) 
energy

$$$$
25:0
     RDKit          3D

 42 43  0  0  0  0  0  0  0  0999 V2000
   58.5020   31.5240   47.6130 C   0  0  0  0  0  0  0  0  0  0  0  0
   58.7150   32.7540   46.7740 C   0  0  0  0  0  0  0  0  0  0  0  0
   59.7240   33.6710   47.1120 C   0  0  0  0  0  0  0  0  0  0  0  0
   59.9350   34.8080   46.3300 C   0  0  0  0  0  0  0  0  0  0  0  0
   59.1370   35.0460   45.2090 C   0  0  0  0  0  0  0  0  0  0  0  0
   58.1340   34.1400   44.8610 C   0  0  0  0  0  0  0  0  0  0  0  0
   57.9290   32.9800   45.6250 C   0  0  0  0  0  0  0  0  0  0  0  0
   56.8960   32.0570   45.2700 N   0  0  0  0  0  0  0  0  0  0  0  0
   57.1380   30.7690   44.1360 S   0  0  0  0  0  0  0  0  0  0  0  0
   55.8690   30.5480   43.3620 O   0  0  0  0  0  0  0  0  0  0  0  0
   58.2210   31.1630   43.1720 O   0  0  0  0  0  0  0  0  0  0  0  0
   57.6110   29.2790   44.9490 C   0  0  0  0  0  0  0  0  0  0  0  0
   58.9590   29.0360   45.2400 C   0  0  0  0  0  0  0  0  0  0  0  0
   59.3390   27.8390   45.8500 C   0  0  0  0  0  0  0  0  0  0  0  0
   58.3780   26.8760   46.1680 C   0  0  0  0  0  0  0  0  0  0  0  0
   57.0200   27.1010   45.8770 C   0  0  0  0  0  0  0  0  0  0  0  0
   56.0000   26.0750   46.1940 C   0  0  0  0  0  0  0  0  0  0  0  0
   54.7800   26.3100   45.9830 O   0  0  0  0  0  0  0  0  0  0  0  0
   56.3990   24.8080   46.7350 N   0  0  0  0  0  0  0  0  0  0  0  0
   57.2470   23.8460   46.0380 C   0  0  0  0  0  0  0  0  0  0  0  0
   56.9830   23.8790   44.5300 C   0  0  0  0  0  0  0  0  0  0  0  0
   55.5670   22.8950   44.0560 S   0  0  0  0  0  0  0  0  0  0  0  0
   54.1660   23.3960   44.9350 N   0  0  0  0  0  0  0  0  0  0  0  0
   55.8490   21.4510   44.3600 O   0  0  0  0  0  0  0  0  0  0  0  0
   55.3120   23.0420   42.5820 O   0  0  0  0  0  0  0  0  0  0  0  0
   56.6460   28.3130   45.2650 C   0  0  0  0  0  0  0  0  0  0  0  0
   58.5488   31.7942   48.6783 H   0  0  0  0  0  0  0  0  0  0  0  0
   57.5157   31.0924   47.3872 H   0  0  0  0  0  0  0  0  0  0  0  0
   59.2857   30.7859   47.3872 H   0  0  0  0  0  0  0  0  0  0  0  0
   60.3513   33.4922   47.9977 H   0  0  0  0  0  0  0  0  0  0  0  0
   60.7315   35.5179   46.5974 H   0  0  0  0  0  0  0  0  0  0  0  0
   59.2989   35.9477   44.6001 H   0  0  0  0  0  0  0  0  0  0  0  0
   57.5006   34.3358   43.9833 H   0  0  0  0  0  0  0  0  0  0  0  0
   59.7197   29.7894   44.9876 H   0  0  0  0  0  0  0  0  0  0  0  0
   60.3984   27.6535   46.0810 H   0  0  0  0  0  0  0  0  0  0  0  0
   58.6852   25.9357   46.6491 H   0  0  0  0  0  0  0  0  0  0  0  0
   58.3023   24.0942   46.2247 H   0  0  0  0  0  0  0  0  0  0  0  0
   57.0179   22.8378   46.4135 H   0  0  0  0  0  0  0  0  0  0  0  0
   56.8048   24.9212   44.2266 H   0  0  0  0  0  0  0  0  0  0  0  0
   57.8654   23.4547   44.0287 H   0  0  0  0  0  0  0  0  0  0  0  0
   54.4690   24.1620   45.5790 H   0  0  0  0  0  0  0  0  0  0  0  0
   55.5877   28.5031   45.0331 H   0  0  0  0  0  0  0  0  0  0  0  0
  1  2  1  0
  2  3  2  0
  3  4  1  0
  4  5  2  0
  5  6  1  0
  6  7  2  0
  7  8  1  0
  8  9  1  0
  9 10  2  0
  9 11  2  0
  9 12  1  0
 12 13  2  0
 13 14  1  0
 14 15  2  0
 15 16  1  0
 16 17  1  0
 17 18  2  0
 17 19  1  0
 19 20  1  0
 20 21  1  0
 21 22  1  0
 22 23  1  0
 22 24  2  0
 22 25  2  0
 16 26  2  0
  7  2  1  0
 26 12  1  0
  1 27  1  0
  1 28  1  0
  1 29  1  0
  3 30  1  0
  4 31  1  0
  5 32  1  0
  6 33  1  0
 13 34  1  0
 14 35  1  0
 15 36  1  0
 20 37  1  0
 20 38  1  0
 21 39  1  0
 21 40  1  0
 23 41  1  0
 26 42  1  0
M  CHG  3   8  -1  19  -1  23  -1
M  END
>  <UniqueID>  (26) 
23

>  <SMILES>  (26) 
Cc1ccccc1[N-]S(=O)(=O)c1cccc(C(=O)[N-]CCS([NH-])(=O)=O)c1

>  <Energy>  (26) 
44.247326882767524

>  <Genealogy>  (26) 
Cc1ccccc1[N-]S(=O)(=O)c1cccc(C(=O)[N-]CCS([NH-])(=O)=O)c1 (protonated)
Cc1ccccc1[N-]S(=O)(=O)c1cccc(C(=O)[N-]CCS([NH-])(=O)=O)c1 (3D coordinates assigned)
Cc1ccccc1[N-]S(=O)(=O)c1cccc(C(=O)[N-]CCS([NH-])(=O)=O)c1 (optimized conformer: 44.247326882767524 kcal/mol)

>  <smiles>  (26) 
Cc1ccccc1NS(=O)(=O)c1cccc(C(=O)NCCS(N)(=O)=O)c1

>  <score_type>  (26) 
oracle

>  <origin>  (26) 
adg

>  <m_score__min__energy>  (26) 
-14.99

>  <m_primary>  (26) 
energy

$$$$
26:0
     RDKit          3D

 44 47  0  0  0  0  0  0  0  0999 V2000
   55.1390   26.7090   45.9990 O   0  0  0  0  0  0  0  0  0  0  0  0
   56.3900   26.6510   45.8560 C   0  0  0  0  0  0  0  0  0  0  0  0
   57.0880   25.4110   46.0270 N   0  0  0  0  0  0  0  0  0  0  0  0
   56.8580   24.1950   45.3000 C   0  0  0  0  0  0  0  0  0  0  0  0
   56.8350   24.2470   43.8850 C   0  0  0  0  0  0  0  0  0  0  0  0
   56.5960   23.0860   43.1280 C   0  0  0  0  0  0  0  0  0  0  0  0
   56.3670   21.8980   43.8160 C   0  0  0  0  0  0  0  0  0  0  0  0
   56.3670   21.8420   45.1710 C   0  0  0  0  0  0  0  0  0  0  0  0
   56.6020   22.9670   45.9580 C   0  0  0  0  0  0  0  0  0  0  0  0
   56.0990   20.5490   45.5780 O   0  0  0  0  0  0  0  0  0  0  0  0
   55.9250   19.7430   44.4040 C   0  0  0  0  0  0  0  0  0  0  0  0
   56.1040   20.6430   43.3020 O   0  0  0  0  0  0  0  0  0  0  0  0
   57.1490   27.8770   45.5680 C   0  0  0  0  0  0  0  0  0  0  0  0
   56.6150   29.0540   45.0740 C   0  0  0  0  0  0  0  0  0  0  0  0
   57.6790   29.9240   44.9640 C   0  0  0  0  0  0  0  0  0  0  0  0
   57.5960   31.5950   44.4310 S   0  0  0  0  0  0  0  0  0  0  0  0
   57.6850   31.6440   42.9310 O   0  0  0  0  0  0  0  0  0  0  0  0
   56.2740   32.1690   44.8570 O   0  0  0  0  0  0  0  0  0  0  0  0
   58.8980   32.5170   45.1410 N   0  0  0  0  0  0  0  0  0  0  0  0
   58.7970   33.9350   44.7250 C   0  0  0  0  0  0  0  0  0  0  0  0
   59.6050   34.8500   45.6490 C   0  0  0  0  0  0  0  0  0  0  0  0
   59.0680   34.7960   47.0910 C   0  0  0  0  0  0  0  0  0  0  0  0
   58.3540   33.4710   47.4080 C   0  0  0  0  0  0  0  0  0  0  0  0
   58.9590   32.3080   46.6100 C   0  0  0  0  0  0  0  0  0  0  0  0
   58.8080   29.2580   45.3930 C   0  0  0  0  0  0  0  0  0  0  0  0
   58.4770   28.0060   45.7580 N   0  0  0  0  0  0  0  0  0  0  0  0
   57.0058   25.2053   43.3727 H   0  0  0  0  0  0  0  0  0  0  0  0
   56.5903   23.1159   42.0284 H   0  0  0  0  0  0  0  0  0  0  0  0
   56.5892   22.9038   47.0561 H   0  0  0  0  0  0  0  0  0  0  0  0
   56.6760   18.9399   44.3724 H   0  0  0  0  0  0  0  0  0  0  0  0
   54.9392   19.2555   44.3816 H   0  0  0  0  0  0  0  0  0  0  0  0
   55.5630   29.2536   44.8221 H   0  0  0  0  0  0  0  0  0  0  0  0
   59.1805   34.0346   43.6988 H   0  0  0  0  0  0  0  0  0  0  0  0
   57.7404   34.2360   44.7792 H   0  0  0  0  0  0  0  0  0  0  0  0
   60.6564   34.5267   45.6449 H   0  0  0  0  0  0  0  0  0  0  0  0
   59.5166   35.8831   45.2819 H   0  0  0  0  0  0  0  0  0  0  0  0
   59.9122   34.9161   47.7859 H   0  0  0  0  0  0  0  0  0  0  0  0
   58.3318   35.6057   47.2025 H   0  0  0  0  0  0  0  0  0  0  0  0
   58.4533   33.2584   48.4827 H   0  0  0  0  0  0  0  0  0  0  0  0
   57.2950   33.5711   47.1279 H   0  0  0  0  0  0  0  0  0  0  0  0
   60.0127   32.1922   46.9039 H   0  0  0  0  0  0  0  0  0  0  0  0
   58.3671   31.4095   46.8389 H   0  0  0  0  0  0  0  0  0  0  0  0
   59.8214   29.6841   45.4309 H   0  0  0  0  0  0  0  0  0  0  0  0
   59.1330   27.2810   46.1250 H   0  0  0  0  0  0  0  0  0  0  0  0
  1  2  2  0
  2  3  1  0
  3  4  1  0
  4  5  2  0
  5  6  1  0
  6  7  2  0
  7  8  1  0
  8  9  2  0
  8 10  1  0
 10 11  1  0
 11 12  1  0
  2 13  1  0
 13 14  2  0
 14 15  1  0
 15 16  1  0
 16 17  2  0
 16 18  2  0
 16 19  1  0
 19 20  1  0
 20 21  1  0
 21 22  1  0
 22 23  1  0
 23 24  1  0
 15 25  2  0
 25 26  1  0
  9  4  1  0
 26 13  1  0
 12  7  1  0
 24 19  1  0
  5 27  1  0
  6 28  1  0
  9 29  1  0
 11 30  1  0
 11 31  1  0
 14 32  1  0
 20 33  1  0
 20 34  1  0
 21 35  1  0
 21 36  1  0
 22 37  1  0
 22 38  1  0
 23 39  1  0
 23 40  1  0
 24 41  1  0
 24 42  1  0
 25 43  1  0
 26 44  1  0
M  CHG  1   3  -1
M  END
>  <UniqueID>  (27) 
24

>  <SMILES>  (27) 
O=C([N-]c1ccc2c(c1)OCO2)c1cc(S(=O)(=O)N2CCCCC2)c[nH]1

>  <Energy>  (27) 
107.64054809346369

>  <Genealogy>  (27) 
O=C([N-]c1ccc2c(c1)OCO2)c1cc(S(=O)(=O)N2CCCCC2)c[nH]1 (protonated)
O=C([N-]c1ccc2c(c1)OCO2)c1cc(S(=O)(=O)N2CCCCC2)c[nH]1 (3D coordinates assigned)
O=C([N-]c1ccc2c(c1)OCO2)c1cc(S(=O)(=O)N2CCCCC2)c[nH]1 (nonaromatic ring conformer: 107.64054809346369 kcal/mol)

>  <smiles>  (27) 
O=C(Nc1ccc2c(c1)OCO2)c1cc(S(=O)(=O)N2CCCCC2)c[nH]1

>  <score_type>  (27) 
oracle

>  <origin>  (27) 
adg

>  <m_score__min__energy>  (27) 
-10.300000000000001

>  <m_primary>  (27) 
energy

$$$$
27:0
     RDKit          3D

 65 68  0  0  0  0  0  0  0  0999 V2000
   60.6280   34.0850   47.3520 C   0  0  0  0  0  0  0  0  0  0  0  0
   59.3190   34.5890   46.8960 N   0  0  0  0  0  0  0  0  0  0  0  0
   59.3000   34.7010   45.4140 C   0  0  0  0  0  0  0  0  0  0  0  0
   57.8860   34.5190   44.8360 C   0  0  0  0  0  0  0  0  0  0  0  0
   57.3150   33.1880   45.1720 N   0  0  0  0  0  0  0  0  0  0  0  0
   57.5250   32.2020   44.0860 C   0  0  0  0  0  0  0  0  0  0  0  0
   56.7490   30.9300   44.3350 C   0  0  0  0  0  0  0  0  0  0  0  0
   55.4970   30.9960   44.4990 O   0  0  0  0  0  0  0  0  0  0  0  0
   57.4080   29.6440   44.4190 N   0  0  0  0  0  0  0  0  0  0  0  0
   57.3050   28.7300   43.2720 C   0  0  0  0  0  0  0  0  0  0  0  0
   57.8510   27.3360   43.6040 C   0  0  0  0  0  0  0  0  0  0  0  0
   59.2690   27.4240   44.1880 C   0  0  0  0  0  0  0  0  0  0  0  0
   59.4160   28.5070   45.2920 C   0  0  2  0  0  0  0  0  0  0  0  0
   60.0710   27.9400   46.5320 C   0  0  0  0  0  0  0  0  0  0  0  0
   60.4770   26.7470   46.5210 O   0  0  0  0  0  0  0  0  0  0  0  0
   60.2400   28.7360   47.7180 N   0  0  0  0  0  0  0  0  0  0  0  0
   59.9770   28.1180   49.0270 C   0  0  0  0  0  0  0  0  0  0  0  0
   60.0260   29.1480   50.1640 C   0  0  0  0  0  0  0  0  0  0  0  0
   59.3540   30.3930   49.7580 N   0  0  0  0  0  0  0  0  0  0  0  0
   58.5630   31.1340   50.7080 C   0  0  0  0  0  0  0  0  0  0  0  0
   59.0120   32.3720   51.1940 C   0  0  0  0  0  0  0  0  0  0  0  0
   58.2270   33.0790   52.1050 C   0  0  0  0  0  0  0  0  0  0  0  0
   57.0090   32.5510   52.5280 C   0  0  0  0  0  0  0  0  0  0  0  0
   56.5910   31.3170   52.0300 C   0  0  0  0  0  0  0  0  0  0  0  0
   57.3670   30.6390   51.1420 N   0  0  0  0  0  0  0  0  0  0  0  0
   59.6100   30.9810   48.4340 C   0  0  0  0  0  0  0  0  0  0  0  0
   60.6250   30.1500   47.6480 C   0  0  0  0  0  0  0  0  0  0  0  0
   58.0810   29.1880   45.6480 C   0  0  0  0  0  0  0  0  0  0  0  0
   57.7930   32.6520   46.4700 C   0  0  0  0  0  0  0  0  0  0  0  0
   58.2060   33.7700   47.4390 C   0  0  0  0  0  0  0  0  0  0  0  0
   60.6542   34.0749   48.4516 H   0  0  0  0  0  0  0  0  0  0  0  0
   60.7803   33.0639   46.9722 H   0  0  0  0  0  0  0  0  0  0  0  0
   61.4257   34.7403   46.9722 H   0  0  0  0  0  0  0  0  0  0  0  0
   59.6740   35.6954   45.1290 H   0  0  0  0  0  0  0  0  0  0  0  0
   59.9370   33.9021   45.0066 H   0  0  0  0  0  0  0  0  0  0  0  0
   57.2307   35.3009   45.2473 H   0  0  0  0  0  0  0  0  0  0  0  0
   57.9541   34.5932   43.7406 H   0  0  0  0  0  0  0  0  0  0  0  0
   57.1932   32.6425   43.1342 H   0  0  0  0  0  0  0  0  0  0  0  0
   58.5955   31.9516   44.0497 H   0  0  0  0  0  0  0  0  0  0  0  0
   56.2475   28.6387   42.9833 H   0  0  0  0  0  0  0  0  0  0  0  0
   57.9051   29.1452   42.4489 H   0  0  0  0  0  0  0  0  0  0  0  0
   57.1884   26.8561   44.3393 H   0  0  0  0  0  0  0  0  0  0  0  0
   57.8903   26.7454   42.6768 H   0  0  0  0  0  0  0  0  0  0  0  0
   59.5287   26.4469   44.6214 H   0  0  0  0  0  0  0  0  0  0  0  0
   59.9420   27.7062   43.3649 H   0  0  0  0  0  0  0  0  0  0  0  0
   60.0692   29.2858   44.8714 H   0  0  0  0  0  0  0  0  0  0  0  0
   58.9791   27.6555   49.0083 H   0  0  0  0  0  0  0  0  0  0  0  0
   60.7580   27.3660   49.2131 H   0  0  0  0  0  0  0  0  0  0  0  0
   59.5200   28.7351   51.0491 H   0  0  0  0  0  0  0  0  0  0  0  0
   61.0774   29.3703   50.3989 H   0  0  0  0  0  0  0  0  0  0  0  0
   59.9762   32.7818   50.8588 H   0  0  0  0  0  0  0  0  0  0  0  0
   58.5690   34.0515   52.4887 H   0  0  0  0  0  0  0  0  0  0  0  0
   56.3840   33.1012   53.2467 H   0  0  0  0  0  0  0  0  0  0  0  0
   55.6309   30.8908   52.3563 H   0  0  0  0  0  0  0  0  0  0  0  0
   57.0220   29.7170   50.7920 H   0  0  0  0  0  0  0  0  0  0  0  0
   58.6661   31.0216   47.8706 H   0  0  0  0  0  0  0  0  0  0  0  0
   60.0209   31.9916   48.5747 H   0  0  0  0  0  0  0  0  0  0  0  0
   60.6362   30.4778   46.5980 H   0  0  0  0  0  0  0  0  0  0  0  0
   61.6284   30.2841   48.0783 H   0  0  0  0  0  0  0  0  0  0  0  0
   57.4340   28.4702   46.1734 H   0  0  0  0  0  0  0  0  0  0  0  0
   58.2777   30.0546   46.2964 H   0  0  0  0  0  0  0  0  0  0  0  0
   56.9852   32.0640   46.9302 H   0  0  0  0  0  0  0  0  0  0  0  0
   58.6781   32.0288   46.2743 H   0  0  0  0  0  0  0  0  0  0  0  0
   57.3391   34.4227   47.6194 H   0  0  0  0  0  0  0  0  0  0  0  0
   58.5507   33.3021   48.3729 H   0  0  0  0  0  0  0  0  0  0  0  0
  1  2  1  0
  2  3  1  0
  3  4  1  0
  4  5  1  0
  5  6  1  0
  6  7  1  0
  7  8  2  0
  7  9  1  0
  9 10  1  0
 10 11  1  0
 11 12  1  0
 12 13  1  0
 13 14  1  0
 14 15  2  0
 14 16  1  0
 16 17  1  0
 17 18  1  0
 18 19  1  0
 19 20  1  0
 20 21  2  0
 21 22  1  0
 22 23  2  0
 23 24  1  0
 24 25  2  0
 19 26  1  0
 26 27  1  0
 13 28  1  0
  5 29  1  0
 29 30  1  0
 30  2  1  0
 28  9  1  0
 27 16  1  0
 25 20  1  0
  1 31  1  0
  1 32  1  0
  1 33  1  0
  3 34  1  0
  3 35  1  0
  4 36  1  0
  4 37  1  0
  6 38  1  0
  6 39  1  0
 10 40  1  0
 10 41  1  0
 11 42  1  0
 11 43  1  0
 12 44  1  0
 12 45  1  0
 13 46  1  6
 17 47  1  0
 17 48  1  0
 18 49  1  0
 18 50  1  0
 21 51  1  0
 22 52  1  0
 23 53  1  0
 24 54  1  0
 25 55  1  0
 26 56  1  0
 26 57  1  0
 27 58  1  0
 27 59  1  0
 28 60  1  0
 28 61  1  0
 29 62  1  0
 29 63  1  0
 30 64  1  0
 30 65  1  0
M  CHG  1  25   1
M  END
>  <UniqueID>  (28) 
25

>  <SMILES>  (28) 
CN1CCN(CC(=O)N2CCC[C@H](C(=O)N3CCN(c4cccc[nH+]4)CC3)C2)CC1

>  <Energy>  (28) 
88.3620374058267

>  <Genealogy>  (28) 
CN1CCN(CC(=O)N2CCCC(C(=O)N3CCN(c4cccc[nH+]4)CC3)C2)CC1 (protonated)
CN1CCN(CC(=O)N2CCC[C@H](C(=O)N3CCN(c4cccc[nH+]4)CC3)C2)CC1 (chirality)
CN1CCN(CC(=O)N2CCC[C@H](C(=O)N3CCN(c4cccc[nH+]4)CC3)C2)CC1 (3D coordinates assigned)
CN1CCN(CC(=O)N2CCC[C@H](C(=O)N3CCN(c4cccc[nH+]4)CC3)C2)CC1 (nonaromatic ring conformer: 88.3620374058267 kcal/mol)

>  <smiles>  (28) 
CN1CCN(CC(=O)N2CCCC(C(=O)N3CCN(c4ccccn4)CC3)C2)CC1

>  <score_type>  (28) 
oracle

>  <origin>  (28) 
adg

>  <m_score__min__energy>  (28) 
-7.2999999999999998

>  <m_primary>  (28) 
energy

$$$$
28:0
     RDKit          3D

 45 48  0  0  1  0  0  0  0  0999 V2000
   59.1790   34.6490   46.9960 C   0  0  0  0  0  0  0  0  0  0  0  0
   59.6560   34.8930   45.7230 C   0  0  0  0  0  0  0  0  0  0  0  0
   59.0490   34.2070   44.6850 C   0  0  0  0  0  0  0  0  0  0  0  0
   58.0050   33.3080   44.9100 C   0  0  0  0  0  0  0  0  0  0  0  0
   57.4750   32.6740   43.7520 N   0  0  0  0  0  0  0  0  0  0  0  0
   57.3840   31.3930   43.7550 C   0  0  0  0  0  0  0  0  0  0  0  0
   56.6450   30.8250   42.7230 C   0  0  0  0  0  0  0  0  0  0  0  0
   56.4720   29.4590   42.6170 C   0  0  0  0  0  0  0  0  0  0  0  0
   57.0490   28.6850   43.5550 N   0  0  0  0  0  0  0  0  0  0  0  0
   57.7680   29.2500   44.5570 C   0  0  0  0  0  0  0  0  0  0  0  0
   58.2920   28.4490   45.4180 N   0  0  0  0  0  0  0  0  0  0  0  0
   59.1500   28.9450   46.4470 C   0  0  0  0  0  0  0  0  0  0  0  0
   58.8580   28.6910   47.7790 C   0  0  0  0  0  0  0  0  0  0  0  0
   59.6530   29.1470   48.8150 C   0  0  0  0  0  0  0  0  0  0  0  0
   60.7700   29.8790   48.4910 C   0  0  0  0  0  0  0  0  0  0  0  0
   61.6470   30.3910   49.4580 O   0  0  0  0  0  0  0  0  0  0  0  0
   62.0840   31.7150   49.3660 C   0  0  0  0  0  0  0  0  0  0  0  0
   61.2390   32.7790   49.6740 C   0  0  0  0  0  0  0  0  0  0  0  0
   61.6980   34.0730   49.5750 C   0  0  0  0  0  0  0  0  0  0  0  0
   62.9940   34.3520   49.1710 C   0  0  0  0  0  0  0  0  0  0  0  0
   63.8430   33.3090   48.8630 C   0  0  0  0  0  0  0  0  0  0  0  0
   63.3700   32.0160   48.9670 C   0  0  0  0  0  0  0  0  0  0  0  0
   61.0720   30.1400   47.1700 C   0  0  0  0  0  0  0  0  0  0  0  0
   60.2890   29.6900   46.1520 C   0  0  0  0  0  0  0  0  0  0  0  0
   57.9320   30.5840   44.6560 N   0  0  0  0  0  0  0  0  0  0  0  0
   57.5390   33.0740   46.1850 C   0  0  0  0  0  0  0  0  0  0  0  0
   58.1490   33.7640   47.2230 C   0  0  0  0  0  0  0  0  0  0  0  0
   59.6330   35.1744   47.8491 H   0  0  0  0  0  0  0  0  0  0  0  0
   60.4797   35.5994   45.5424 H   0  0  0  0  0  0  0  0  0  0  0  0
   59.3986   34.3748   43.6556 H   0  0  0  0  0  0  0  0  0  0  0  0
   56.1854   31.4821   41.9700 H   0  0  0  0  0  0  0  0  0  0  0  0
   55.8848   29.0200   41.7969 H   0  0  0  0  0  0  0  0  0  0  0  0
   56.9150   27.6560   43.4670 H   0  0  0  0  0  0  0  0  0  0  0  0
   57.9595   28.1043   48.0208 H   0  0  0  0  0  0  0  0  0  0  0  0
   59.3996   28.9309   49.8634 H   0  0  0  0  0  0  0  0  0  0  0  0
   60.2053   32.5851   49.9962 H   0  0  0  0  0  0  0  0  0  0  0  0
   61.0211   34.9041   49.8221 H   0  0  0  0  0  0  0  0  0  0  0  0
   63.3417   35.3929   49.0968 H   0  0  0  0  0  0  0  0  0  0  0  0
   64.8766   33.5037   48.5409 H   0  0  0  0  0  0  0  0  0  0  0  0
   64.0501   31.1874   48.7203 H   0  0  0  0  0  0  0  0  0  0  0  0
   61.9708   30.7283   46.9333 H   0  0  0  0  0  0  0  0  0  0  0  0
   60.5529   29.9123   45.1075 H   0  0  0  0  0  0  0  0  0  0  0  0
   58.4880   31.0080   45.4310 H   0  0  0  0  0  0  0  0  0  0  0  0
   56.7163   32.3684   46.3728 H   0  0  0  0  0  0  0  0  0  0  0  0
   57.8008   33.5997   48.2534 H   0  0  0  0  0  0  0  0  0  0  0  0
  1  2  2  0
  2  3  1  0
  3  4  2  0
  4  5  1  0
  5  6  2  0
  6  7  1  0
  7  8  2  0
  8  9  1  0
  9 10  1  0
 10 11  2  0
 11 12  1  0
 12 13  2  0
 13 14  1  0
 14 15  2  0
 15 16  1  0
 16 17  1  0
 17 18  2  0
 18 19  1  0
 19 20  2  0
 20 21  1  0
 21 22  2  0
 15 23  1  0
 23 24  2  0
 10 25  1  0
  4 26  1  0
 26 27  2  0
 27  1  1  0
 25  6  1  0
 24 12  1  0
 22 17  1  0
  1 28  1  0
  2 29  1  0
  3 30  1  0
  7 31  1  0
  8 32  1  0
  9 33  1  0
 13 34  1  0
 14 35  1  0
 18 36  1  0
 19 37  1  0
 20 38  1  0
 21 39  1  0
 22 40  1  0
 23 41  1  0
 24 42  1  0
 25 43  1  0
 26 44  1  0
 27 45  1  0
M  END
>  <smiles>  (29) 
c1ccc(N=c2cc[nH]c(=Nc3ccc(Oc4ccccc4)cc3)[nH]2)cc1

>  <score_type>  (29) 
oracle

>  <origin>  (29) 
adg

>  <m_score__min__energy>  (29) 
-8.7799999999999994

>  <m_primary>  (29) 
energy

$$$$
29:0
     RDKit          3D

 47 49  0  0  0  0  0  0  0  0999 V2000
   60.8201   29.5094   49.2363 H   0  0  0  0  0  0  0  0  0  0  0  0
   60.3310   29.5120   48.2510 C   0  0  0  0  0  0  0  0  0  0  0  0
   60.3220   30.7650   47.4720 C   0  0  0  0  0  0  0  0  0  0  0  0
   61.3230   31.0340   46.7550 O   0  0  0  0  0  0  0  0  0  0  0  0
   59.2320   31.7000   47.5600 N   0  0  0  0  0  0  0  0  0  0  0  0
   58.6110   31.6680   48.3980 H   0  0  0  0  0  0  0  0  0  0  0  0
   59.0350   32.7630   46.6130 C   0  0  0  0  0  0  0  0  0  0  0  0
   57.9000   32.7690   45.7800 C   0  0  0  0  0  0  0  0  0  0  0  0
   57.1929   31.9270   45.8138 H   0  0  0  0  0  0  0  0  0  0  0  0
   57.6660   33.8370   44.9110 C   0  0  0  0  0  0  0  0  0  0  0  0
   56.7819   33.8284   44.2566 H   0  0  0  0  0  0  0  0  0  0  0  0
   58.5520   34.9160   44.8710 C   0  0  0  0  0  0  0  0  0  0  0  0
   58.3631   35.7578   44.1886 H   0  0  0  0  0  0  0  0  0  0  0  0
   59.6770   34.9260   45.6970 C   0  0  0  0  0  0  0  0  0  0  0  0
   60.3700   35.7797   45.6660 H   0  0  0  0  0  0  0  0  0  0  0  0
   59.9300   33.8540   46.5670 C   0  0  0  0  0  0  0  0  0  0  0  0
   61.1210   33.8770   47.3690 N   0  0  0  0  0  0  0  0  0  0  0  0
   61.0480   34.1670   48.8020 C   0  0  0  0  0  0  0  0  0  0  0  0
   61.2076   35.2426   48.9679 H   0  0  0  0  0  0  0  0  0  0  0  0
   60.0573   33.8822   49.1858 H   0  0  0  0  0  0  0  0  0  0  0  0
   62.1310   33.3700   49.5350 C   0  0  0  0  0  0  0  0  0  0  0  0
   62.1622   33.6874   50.5877 H   0  0  0  0  0  0  0  0  0  0  0  0
   61.8891   32.2992   49.4652 H   0  0  0  0  0  0  0  0  0  0  0  0
   63.3990   33.5880   48.9470 O   0  0  0  0  0  0  0  0  0  0  0  0
   63.4140   33.0690   47.6280 C   0  0  0  0  0  0  0  0  0  0  0  0
   64.4295   33.1623   47.2157 H   0  0  0  0  0  0  0  0  0  0  0  0
   63.1091   32.0126   47.6622 H   0  0  0  0  0  0  0  0  0  0  0  0
   62.4360   33.8320   46.7300 C   0  0  0  0  0  0  0  0  0  0  0  0
   62.8037   34.8571   46.5752 H   0  0  0  0  0  0  0  0  0  0  0  0
   62.3547   33.3212   45.7592 H   0  0  0  0  0  0  0  0  0  0  0  0
   59.7700   28.3770   47.8120 C   0  0  0  0  0  0  0  0  0  0  0  0
   59.8245   27.4863   48.4552 H   0  0  0  0  0  0  0  0  0  0  0  0
   59.0790   28.2580   46.5040 C   0  0  0  0  0  0  0  0  0  0  0  0
   59.6240   27.5280   45.4290 C   0  0  0  0  0  0  0  0  0  0  0  0
   60.5993   27.0322   45.5426 H   0  0  0  0  0  0  0  0  0  0  0  0
   58.9310   27.4310   44.2190 C   0  0  0  0  0  0  0  0  0  0  0  0
   59.3656   26.8649   43.3819 H   0  0  0  0  0  0  0  0  0  0  0  0
   57.6900   28.0500   44.0700 C   0  0  0  0  0  0  0  0  0  0  0  0
   57.1537   27.9736   43.1126 H   0  0  0  0  0  0  0  0  0  0  0  0
   57.1220   28.7670   45.1280 C   0  0  0  0  0  0  0  0  0  0  0  0
   55.8680   29.3640   44.9280 O   0  0  0  0  0  0  0  0  0  0  0  0
   55.4990   30.0880   43.7580 C   0  0  0  0  0  0  0  0  0  0  0  0
   55.0172   31.0333   44.0485 H   0  0  0  0  0  0  0  0  0  0  0  0
   56.3976   30.3027   43.1610 H   0  0  0  0  0  0  0  0  0  0  0  0
   54.7972   29.4871   43.1610 H   0  0  0  0  0  0  0  0  0  0  0  0
   57.8210   28.8630   46.3480 C   0  0  0  0  0  0  0  0  0  0  0  0
   57.3765   29.4179   47.1873 H   0  0  0  0  0  0  0  0  0  0  0  0
  1  2  1  0
  2  3  1  0
  3  4  2  0
  3  5  1  0
  5  6  1  0
  5  7  1  0
  7  8  2  0
  8  9  1  0
  8 10  1  0
 10 11  1  0
 10 12  2  0
 12 13  1  0
 12 14  1  0
 14 15  1  0
 14 16  2  0
 16 17  1  0
 17 18  1  0
 18 19  1  0
 18 20  1  0
 18 21  1  0
 21 22  1  0
 21 23  1  0
 21 24  1  0
 24 25  1  0
 25 26  1  0
 25 27  1  0
 25 28  1  0
 28 29  1  0
 28 30  1  0
  2 31  2  0
 31 32  1  0
 31 33  1  0
 33 34  2  0
 34 35  1  0
 34 36  1  0
 36 37  1  0
 36 38  2  0
 38 39  1  0
 38 40  1  0
 40 41  1  0
 41 42  1  0
 42 43  1  0
 42 44  1  0
 42 45  1  0
 40 46  2  0
 46 47  1  0
 16  7  1  0
 28 17  1  0
 46 33  1  0
M  END
>  <UniqueID>  (30) 
26

>  <SMILES>  (30) 
COc1cccc(/C=C/C(=O)Nc2ccccc2N2CCOCC2)c1

>  <Energy>  (30) 
60.46231414762415

>  <Genealogy>  (30) 
COc1cccc(/C=C/C(=O)Nc2ccccc2N2CCOCC2)c1 (cis-trans isomerization)
COc1cccc(/C=C/C(=O)Nc2ccccc2N2CCOCC2)c1 (3D coordinates assigned)
COc1cccc(/C=C/C(=O)Nc2ccccc2N2CCOCC2)c1 (nonaromatic ring conformer: 60.46231414762415 kcal/mol)

>  <smiles>  (30) 
COc1cccc(C=CC(=O)Nc2ccccc2N2CCOCC2)c1

>  <score_type>  (30) 
oracle

>  <origin>  (30) 
adg

>  <m_score__min__energy>  (30) 
-7.7699999999999996

>  <m_primary>  (30) 
energy

$$$$
30:0
     RDKit          3D

 39 42  0  0  0  0  0  0  0  0999 V2000
   65.4323   32.7029   49.7268 H   0  0  0  0  0  0  0  0  0  0  0  0
   64.4710   33.1230   49.3960 C   0  0  0  0  0  0  0  0  0  0  0  0
   64.1160   33.0760   48.0450 C   0  0  0  0  0  0  0  0  0  0  0  0
   64.8011   32.6255   47.3117 H   0  0  0  0  0  0  0  0  0  0  0  0
   62.8890   33.6020   47.6250 C   0  0  0  0  0  0  0  0  0  0  0  0
   62.6166   33.5716   46.5597 H   0  0  0  0  0  0  0  0  0  0  0  0
   62.0060   34.1670   48.5540 C   0  0  0  0  0  0  0  0  0  0  0  0
   60.7930   34.6980   48.0930 O   0  0  0  0  0  0  0  0  0  0  0  0
   59.8790   34.0370   47.2570 C   0  0  0  0  0  0  0  0  0  0  0  0
   59.3590   34.6410   46.1000 C   0  0  0  0  0  0  0  0  0  0  0  0
   59.6782   35.6558   45.8204 H   0  0  0  0  0  0  0  0  0  0  0  0
   58.4370   33.9560   45.3030 C   0  0  0  0  0  0  0  0  0  0  0  0
   58.0553   34.4261   44.3847 H   0  0  0  0  0  0  0  0  0  0  0  0
   57.9950   32.6770   45.6630 C   0  0  0  0  0  0  0  0  0  0  0  0
   57.0630   32.0060   44.7990 N   0  0  0  0  0  0  0  0  0  0  0  0
   56.7280   30.7510   44.8540 C   0  0  0  0  0  0  0  0  0  0  0  0
   55.5140   30.3000   44.4950 N   0  0  0  0  0  0  0  0  0  0  0  0
   55.5360   28.9920   44.7040 N   0  0  0  0  0  0  0  0  0  0  0  0
   56.7630   28.7020   45.1860 C   0  0  0  0  0  0  0  0  0  0  0  0
   57.2180   27.3480   45.5560 C   0  0  0  0  0  0  0  0  0  0  0  0
   56.2930   26.3950   46.0180 C   0  0  0  0  0  0  0  0  0  0  0  0
   55.2286   26.6602   46.1005 H   0  0  0  0  0  0  0  0  0  0  0  0
   56.7200   25.1120   46.3730 C   0  0  0  0  0  0  0  0  0  0  0  0
   55.9918   24.3714   46.7354 H   0  0  0  0  0  0  0  0  0  0  0  0
   58.0710   24.7690   46.2680 C   0  0  0  0  0  0  0  0  0  0  0  0
   58.4048   23.7583   46.5455 H   0  0  0  0  0  0  0  0  0  0  0  0
   58.9970   25.7090   45.8110 C   0  0  0  0  0  0  0  0  0  0  0  0
   60.0601   25.4382   45.7307 H   0  0  0  0  0  0  0  0  0  0  0  0
   58.5750   26.9950   45.4550 C   0  0  0  0  0  0  0  0  0  0  0  0
   59.3077   27.7322   45.0949 H   0  0  0  0  0  0  0  0  0  0  0  0
   57.5000   29.7830   45.2840 O   0  0  0  0  0  0  0  0  0  0  0  0
   58.5220   32.0720   46.8200 C   0  0  0  0  0  0  0  0  0  0  0  0
   58.2057   31.0561   47.0992 H   0  0  0  0  0  0  0  0  0  0  0  0
   59.4460   32.7570   47.6160 C   0  0  0  0  0  0  0  0  0  0  0  0
   59.8346   32.2854   48.5307 H   0  0  0  0  0  0  0  0  0  0  0  0
   62.3790   34.2280   49.9100 C   0  0  0  0  0  0  0  0  0  0  0  0
   61.7030   34.6901   50.6444 H   0  0  0  0  0  0  0  0  0  0  0  0
   63.6060   33.7030   50.3260 C   0  0  0  0  0  0  0  0  0  0  0  0
   63.8905   33.7469   51.3877 H   0  0  0  0  0  0  0  0  0  0  0  0
  1  2  1  0
  2  3  2  0
  3  4  1  0
  3  5  1  0
  5  6  1  0
  5  7  2  0
  7  8  1  0
  8  9  1  0
  9 10  2  0
 10 11  1  0
 10 12  1  0
 12 13  1  0
 12 14  2  0
 14 15  1  0
 15 16  2  0
 16 17  1  0
 17 18  1  0
 18 19  2  0
 19 20  1  0
 20 21  2  0
 21 22  1  0
 21 23  1  0
 23 24  1  0
 23 25  2  0
 25 26  1  0
 25 27  1  0
 27 28  1  0
 27 29  2  0
 29 30  1  0
 19 31  1  0
 14 32  1  0
 32 33  1  0
 32 34  2  0
 34 35  1  0
  7 36  1  0
 36 37  1  0
 36 38  2  0
 38 39  1  0
 38  2  1  0
 34  9  1  0
 31 16  1  0
 29 20  1  0
M  CHG  1  17  -1
M  END
>  <UniqueID>  (31) 
27

>  <SMILES>  (31) 
c1ccc(Oc2ccc(/N=c3/[n-]nc(-c4ccccc4)o3)cc2)cc1

>  <Energy>  (31) 
90.5526232064079

>  <Genealogy>  (31) 
c1ccc(Oc2ccc(N=c3[n-]nc(-c4ccccc4)o3)cc2)cc1 (protonated)
c1ccc(Oc2ccc(/N=c3/[n-]nc(-c4ccccc4)o3)cc2)cc1 (cis-trans isomerization)
c1ccc(Oc2ccc(/N=c3/[n-]nc(-c4ccccc4)o3)cc2)cc1 (3D coordinates assigned)
c1ccc(Oc2ccc(/N=c3/[n-]nc(-c4ccccc4)o3)cc2)cc1 (optimized conformer: 90.5526232064079 kcal/mol)

>  <smiles>  (31) 
c1ccc(Oc2ccc(N=c3[nH]nc(-c4ccccc4)o3)cc2)cc1

>  <score_type>  (31) 
oracle

>  <origin>  (31) 
adg

>  <m_score__min__energy>  (31) 
-9.6099999999999994

>  <m_primary>  (31) 
energy

$$$$
31:0
     RDKit          3D

 68 72  0  0  0  0  0  0  0  0999 V2000
   66.7750   30.0750   52.0940 C   0  0  0  0  0  0  0  0  0  0  0  0
   65.9040   31.0020   51.2980 C   0  0  0  0  0  0  0  0  0  0  0  0
   66.4740   31.9630   50.4530 C   0  0  0  0  0  0  0  0  0  0  0  0
   65.6610   32.8550   49.7480 C   0  0  0  0  0  0  0  0  0  0  0  0
   64.2630   32.8020   49.8800 C   0  0  0  0  0  0  0  0  0  0  0  0
   63.3990   33.7750   49.1280 C   0  0  0  0  0  0  0  0  0  0  0  0
   63.6890   31.8510   50.7480 C   0  0  0  0  0  0  0  0  0  0  0  0
   62.2690   31.7970   50.9460 N   0  0  0  0  0  0  0  0  0  0  0  0
   61.4750   30.8040   50.2140 C   0  0  0  0  0  0  0  0  0  0  0  0
   60.5040   31.5240   49.2680 C   0  0  0  0  0  0  0  0  0  0  0  0
   59.9230   32.7270   49.8950 N   0  0  0  0  0  0  0  0  0  0  0  0
   59.4630   33.8160   49.0640 C   0  0  0  0  0  0  0  0  0  0  0  0
   59.4670   34.9960   49.5120 O   0  0  0  0  0  0  0  0  0  0  0  0
   59.0390   33.5930   47.6670 C   0  0  0  0  0  0  0  0  0  0  0  0
   59.8830   33.9610   46.6080 C   0  0  0  0  0  0  0  0  0  0  0  0
   59.5170   33.6900   45.2870 C   0  0  0  0  0  0  0  0  0  0  0  0
   58.2990   33.0480   45.0070 C   0  0  0  0  0  0  0  0  0  0  0  0
   57.9250   32.6990   43.5870 C   0  0  0  0  0  0  0  0  0  0  0  0
   58.1050   31.2700   43.3330 N   0  0  0  0  0  0  0  0  0  0  0  0
   57.4130   30.2620   44.0770 C   0  0  0  0  0  0  0  0  0  0  0  0
   57.6920   29.4510   45.1670 C   0  0  0  0  0  0  0  0  0  0  0  0
   58.7750   29.3160   46.0950 N   0  0  0  0  0  0  0  0  0  0  0  0
   60.1280   29.6350   45.6390 C   0  0  0  0  0  0  0  0  0  0  0  0
   61.0500   29.8360   46.8460 C   0  0  0  0  0  0  0  0  0  0  0  0
   60.9640   28.7390   47.7350 O   0  0  0  0  0  0  0  0  0  0  0  0
   59.6630   28.6710   48.2890 C   0  0  0  0  0  0  0  0  0  0  0  0
   58.6240   28.3720   47.2030 C   0  0  0  0  0  0  0  0  0  0  0  0
   56.4840   28.8040   44.9890 C   0  0  0  0  0  0  0  0  0  0  0  0
   55.8930   27.8530   45.5610 O   0  0  0  0  0  0  0  0  0  0  0  0
   56.1830   29.6500   43.9420 C   0  0  0  0  0  0  0  0  0  0  0  0
   55.2040   29.7840   43.1620 O   0  0  0  0  0  0  0  0  0  0  0  0
   57.4230   32.7500   46.0620 C   0  0  0  0  0  0  0  0  0  0  0  0
   57.7940   33.0120   47.3840 C   0  0  0  0  0  0  0  0  0  0  0  0
   60.1040   32.9220   51.3410 C   0  0  0  0  0  0  0  0  0  0  0  0
   61.6000   32.8910   51.6660 C   0  0  0  0  0  0  0  0  0  0  0  0
   64.5120   30.9610   51.4540 C   0  0  0  0  0  0  0  0  0  0  0  0
   66.6111   30.2494   53.1676 H   0  0  0  0  0  0  0  0  0  0  0  0
   66.5217   29.0330   51.8489 H   0  0  0  0  0  0  0  0  0  0  0  0
   67.8307   30.2630   51.8489 H   0  0  0  0  0  0  0  0  0  0  0  0
   67.5673   32.0159   50.3437 H   0  0  0  0  0  0  0  0  0  0  0  0
   66.1188   33.6039   49.0850 H   0  0  0  0  0  0  0  0  0  0  0  0
   62.8437   34.4004   49.8425 H   0  0  0  0  0  0  0  0  0  0  0  0
   64.0321   34.4147   48.4956 H   0  0  0  0  0  0  0  0  0  0  0  0
   62.6889   33.2220   48.4956 H   0  0  0  0  0  0  0  0  0  0  0  0
   62.1453   30.1571   49.6290 H   0  0  0  0  0  0  0  0  0  0  0  0
   60.9054   30.1907   50.9277 H   0  0  0  0  0  0  0  0  0  0  0  0
   61.0471   31.8225   48.3592 H   0  0  0  0  0  0  0  0  0  0  0  0
   59.6833   30.8323   49.0272 H   0  0  0  0  0  0  0  0  0  0  0  0
   60.8375   34.4654   46.8189 H   0  0  0  0  0  0  0  0  0  0  0  0
   60.1852   33.9805   44.4629 H   0  0  0  0  0  0  0  0  0  0  0  0
   56.8711   32.9645   43.4171 H   0  0  0  0  0  0  0  0  0  0  0  0
   58.5792   33.2611   42.9044 H   0  0  0  0  0  0  0  0  0  0  0  0
   58.8900   30.9710   42.7110 H   0  0  0  0  0  0  0  0  0  0  0  0
   60.5096   28.8082   45.0220 H   0  0  0  0  0  0  0  0  0  0  0  0
   60.1017   30.5603   45.0447 H   0  0  0  0  0  0  0  0  0  0  0  0
   62.0876   29.9340   46.4942 H   0  0  0  0  0  0  0  0  0  0  0  0
   60.7376   30.7459   47.3793 H   0  0  0  0  0  0  0  0  0  0  0  0
   59.6343   27.8726   49.0451 H   0  0  0  0  0  0  0  0  0  0  0  0
   59.4240   29.6417   48.7479 H   0  0  0  0  0  0  0  0  0  0  0  0
   58.7698   27.3471   46.8312 H   0  0  0  0  0  0  0  0  0  0  0  0
   57.6152   28.4731   47.6297 H   0  0  0  0  0  0  0  0  0  0  0  0
   56.4389   32.3078   45.8475 H   0  0  0  0  0  0  0  0  0  0  0  0
   57.1069   32.7616   48.2057 H   0  0  0  0  0  0  0  0  0  0  0  0
   59.6825   33.8938   51.6375 H   0  0  0  0  0  0  0  0  0  0  0  0
   59.5880   32.1212   51.8910 H   0  0  0  0  0  0  0  0  0  0  0  0
   62.0533   33.8482   51.3691 H   0  0  0  0  0  0  0  0  0  0  0  0
   61.7223   32.7279   52.7469 H   0  0  0  0  0  0  0  0  0  0  0  0
   64.0610   30.2249   52.1357 H   0  0  0  0  0  0  0  0  0  0  0  0
  1  2  1  0
  2  3  2  0
  3  4  1  0
  4  5  2  0
  5  6  1  0
  5  7  1  0
  7  8  1  0
  8  9  1  0
  9 10  1  0
 10 11  1  0
 11 12  1  0
 12 13  2  0
 12 14  1  0
 14 15  2  0
 15 16  1  0
 16 17  2  0
 17 18  1  0
 18 19  1  0
 19 20  1  0
 20 21  2  0
 21 22  1  0
 22 23  1  0
 23 24  1  0
 24 25  1  0
 25 26  1  0
 26 27  1  0
 21 28  1  0
 28 29  2  0
 28 30  1  0
 30 31  2  0
 17 32  1  0
 32 33  2  0
 11 34  1  0
 34 35  1  0
  7 36  2  0
 36  2  1  0
 35  8  1  0
 33 14  1  0
 30 20  1  0
 27 22  1  0
  1 37  1  0
  1 38  1  0
  1 39  1  0
  3 40  1  0
  4 41  1  0
  6 42  1  0
  6 43  1  0
  6 44  1  0
  9 45  1  0
  9 46  1  0
 10 47  1  0
 10 48  1  0
 15 49  1  0
 16 50  1  0
 18 51  1  0
 18 52  1  0
 19 53  1  0
 23 54  1  0
 23 55  1  0
 24 56  1  0
 24 57  1  0
 26 58  1  0
 26 59  1  0
 27 60  1  0
 27 61  1  0
 32 62  1  0
 33 63  1  0
 34 64  1  0
 34 65  1  0
 35 66  1  0
 35 67  1  0
 36 68  1  0
M  END
>  <UniqueID>  (32) 
28

>  <SMILES>  (32) 
Cc1ccc(C)c(N2CCN(C(=O)c3ccc(CNc4c(N5CCOCC5)c(=O)c4=O)cc3)CC2)c1

>  <Energy>  (32) 
72.55342084241879

>  <Genealogy>  (32) 
Cc1ccc(C)c(N2CCN(C(=O)c3ccc(CNc4c(N5CCOCC5)c(=O)c4=O)cc3)CC2)c1 (3D coordinates assigned)
Cc1ccc(C)c(N2CCN(C(=O)c3ccc(CNc4c(N5CCOCC5)c(=O)c4=O)cc3)CC2)c1 (nonaromatic ring conformer: 72.55342084241879 kcal/mol)

>  <smiles>  (32) 
Cc1ccc(C)c(N2CCN(C(=O)c3ccc(CNc4c(N5CCOCC5)c(=O)c4=O)cc3)CC2)c1

>  <score_type>  (32) 
oracle

>  <origin>  (32) 
adg

>  <m_score__min__energy>  (32) 
-9.1999999999999993

>  <m_primary>  (32) 
energy

$$$$
32:0
     RDKit          3D

 38 42  0  0  1  0  0  0  0  0999 V2000
   56.8030   24.3650   42.9450 F   0  0  0  0  0  0  0  0  0  0  0  0
   57.3960   25.4020   43.5580 C   0  0  0  0  0  0  0  0  0  0  0  0
   57.9900   26.4620   42.8930 C   0  0  0  0  0  0  0  0  0  0  0  0
   58.5920   27.5150   43.4890 C   0  0  0  0  0  0  0  0  0  0  0  0
   58.6530   27.6010   44.8930 C   0  0  0  0  0  0  0  0  0  0  0  0
   59.1890   28.5360   45.6120 N   0  0  0  0  0  0  0  0  0  0  0  0
   59.1660   28.4730   46.9570 C   0  0  0  0  0  0  0  0  0  0  0  0
   59.6990   29.3990   47.9120 N   0  0  0  0  0  0  0  0  0  0  0  0
   59.7230   30.6340   47.5800 C   0  0  0  0  0  0  0  0  0  0  0  0
   58.9650   30.9930   46.5030 N   0  0  0  0  0  0  0  0  0  0  0  0
   58.9260   32.2870   46.0730 C   0  0  0  0  0  0  0  0  0  0  0  0
   58.1520   32.6170   44.9820 C   0  0  0  0  0  0  0  0  0  0  0  0
   57.3860   31.5800   44.3020 C   0  0  0  0  0  0  0  0  0  0  0  0
   57.3690   31.4220   42.9340 C   0  0  0  0  0  0  0  0  0  0  0  0
   56.6660   30.4690   42.3010 N   0  0  0  0  0  0  0  0  0  0  0  0
   55.9340   29.6180   43.0380 C   0  0  0  0  0  0  0  0  0  0  0  0
   55.9370   29.7600   44.4040 C   0  0  0  0  0  0  0  0  0  0  0  0
   56.6460   30.7170   45.0220 N   0  0  0  0  0  0  0  0  0  0  0  0
   58.1540   33.9410   44.5960 C   0  0  0  0  0  0  0  0  0  0  0  0
   58.8860   34.9160   45.2510 C   0  0  0  0  0  0  0  0  0  0  0  0
   59.6610   34.5840   46.3430 C   0  0  0  0  0  0  0  0  0  0  0  0
   59.6560   33.2580   46.7260 C   0  0  0  0  0  0  0  0  0  0  0  0
   60.4130   32.8670   47.8120 C   0  0  0  0  0  0  0  0  0  0  0  0
   60.4360   31.5800   48.2190 N   0  0  0  0  0  0  0  0  0  0  0  0
   58.3130   26.9620   47.2850 S   0  0  0  0  0  0  0  0  0  0  0  0
   58.0570   26.5380   45.5560 C   0  0  0  0  0  0  0  0  0  0  0  0
   57.4430   25.4630   44.9410 C   0  0  0  0  0  0  0  0  0  0  0  0
   57.9702   26.4454   41.7933 H   0  0  0  0  0  0  0  0  0  0  0  0
   59.0373   28.3102   42.8731 H   0  0  0  0  0  0  0  0  0  0  0  0
   57.9658   32.1166   42.3247 H   0  0  0  0  0  0  0  0  0  0  0  0
   55.3441   28.8235   42.5575 H   0  0  0  0  0  0  0  0  0  0  0  0
   55.3381   29.0659   45.0119 H   0  0  0  0  0  0  0  0  0  0  0  0
   57.5460   34.2356   43.7279 H   0  0  0  0  0  0  0  0  0  0  0  0
   58.8498   35.9579   44.9001 H   0  0  0  0  0  0  0  0  0  0  0  0
   60.2533   35.3384   46.8815 H   0  0  0  0  0  0  0  0  0  0  0  0
   61.0075   33.6166   48.3549 H   0  0  0  0  0  0  0  0  0  0  0  0
   61.0150   31.3080   49.0440 H   0  0  0  0  0  0  0  0  0  0  0  0
   56.9946   24.6612   45.5460 H   0  0  0  0  0  0  0  0  0  0  0  0
  1  2  1  0
  2  3  2  0
  3  4  1  0
  4  5  2  0
  5  6  1  0
  6  7  2  0
  7  8  1  0
  8  9  2  0
  9 10  1  0
 10 11  2  0
 11 12  1  0
 12 13  1  0
 13 14  2  0
 14 15  1  0
 15 16  2  0
 16 17  1  0
 17 18  2  0
 12 19  2  0
 19 20  1  0
 20 21  2  0
 21 22  1  0
 22 23  2  0
 23 24  1  0
  7 25  1  0
 25 26  1  0
 26 27  2  0
 27  2  1  0
 26  5  1  0
 24  9  1  0
 22 11  1  0
 18 13  1  0
  3 28  1  0
  4 29  1  0
 14 30  1  0
 16 31  1  0
 17 32  1  0
 19 33  1  0
 20 34  1  0
 21 35  1  0
 23 36  1  0
 24 37  1  0
 27 38  1  0
M  END
>  <smiles>  (33) 
Fc1ccc2nc(N=c3nc4c(-c5cnccn5)cccc4c[nH]3)sc2c1

>  <score_type>  (33) 
oracle

>  <origin>  (33) 
adg

>  <m_score__min__energy>  (33) 
-8.3399999999999999

>  <m_primary>  (33) 
energy

$$$$
33:0
     RDKit          3D

 38 40  0  0  0  0  0  0  0  0999 V2000
   60.2720   28.0150   44.4250 H   0  0  0  0  0  0  0  0  0  0  0  0
   59.6070   28.7220   44.1360 O   0  0  0  0  0  0  0  0  0  0  0  0
   58.2730   28.7280   44.5490 C   0  0  0  0  0  0  0  0  0  0  0  0
   57.5450   29.8580   44.3550 N   0  0  0  0  0  0  0  0  0  0  0  0
   56.2340   29.9230   44.6970 C   0  0  0  0  0  0  0  0  0  0  0  0
   55.5850   30.9840   44.5030 O   0  0  0  0  0  0  0  0  0  0  0  0
   55.6200   28.8440   45.2430 N   0  0  0  0  0  0  0  0  0  0  0  0
   56.2980   27.6890   45.4670 C   0  0  0  0  0  0  0  0  0  0  0  0
   55.6960   26.7160   45.9940 O   0  0  0  0  0  0  0  0  0  0  0  0
   57.6620   27.5950   45.1300 C   0  0  0  0  0  0  0  0  0  0  0  0
   58.4240   26.3540   45.3990 C   0  0  0  0  0  0  0  0  0  0  0  0
   59.6160   26.4630   45.9220 N   0  0  0  0  0  0  0  0  0  0  0  0
   60.0060   27.2670   47.0470 C   0  0  0  0  0  0  0  0  0  0  0  0
   60.2770   28.6410   46.9100 C   0  0  0  0  0  0  0  0  0  0  0  0
   60.2079   29.1178   45.9211 H   0  0  0  0  0  0  0  0  0  0  0  0
   60.6340   29.4020   48.0280 C   0  0  0  0  0  0  0  0  0  0  0  0
   60.8629   30.4719   47.9144 H   0  0  0  0  0  0  0  0  0  0  0  0
   60.7000   28.8040   49.2890 C   0  0  0  0  0  0  0  0  0  0  0  0
   60.9896   29.4011   50.1663 H   0  0  0  0  0  0  0  0  0  0  0  0
   60.3980   27.4470   49.4360 C   0  0  0  0  0  0  0  0  0  0  0  0
   60.4413   26.9790   50.4306 H   0  0  0  0  0  0  0  0  0  0  0  0
   60.0410   26.6840   48.3200 C   0  0  0  0  0  0  0  0  0  0  0  0
   59.7864   25.6209   48.4424 H   0  0  0  0  0  0  0  0  0  0  0  0
   57.7770   25.0400   45.1470 C   0  0  0  0  0  0  0  0  0  0  0  0
   57.0380   24.8390   43.9720 C   0  0  0  0  0  0  0  0  0  0  0  0
   56.9466   25.6522   43.2369 H   0  0  0  0  0  0  0  0  0  0  0  0
   56.4180   23.6120   43.7310 C   0  0  0  0  0  0  0  0  0  0  0  0
   55.8439   23.4606   42.8050 H   0  0  0  0  0  0  0  0  0  0  0  0
   56.5240   22.5750   44.6620 C   0  0  0  0  0  0  0  0  0  0  0  0
   55.9080   21.3570   44.4050 O   0  0  0  0  0  0  0  0  0  0  0  0
   57.2440   22.7610   45.8490 C   0  0  0  0  0  0  0  0  0  0  0  0
   57.3300   21.6930   46.7570 O   0  0  0  0  0  0  0  0  0  0  0  0
   57.7000   20.3640   46.4020 C   0  0  0  0  0  0  0  0  0  0  0  0
   57.8646   19.7729   47.3150 H   0  0  0  0  0  0  0  0  0  0  0  0
   56.8953   19.9055   45.8084 H   0  0  0  0  0  0  0  0  0  0  0  0
   58.6258   20.3873   45.8084 H   0  0  0  0  0  0  0  0  0  0  0  0
   57.8590   24.0040   46.0940 C   0  0  0  0  0  0  0  0  0  0  0  0
   58.4078   24.1656   47.0335 H   0  0  0  0  0  0  0  0  0  0  0  0
  1  2  1  0
  2  3  1  0
  3  4  1  0
  4  5  1  0
  5  6  2  0
  5  7  1  0
  7  8  1  0
  8  9  2  0
  8 10  1  0
 10 11  1  0
 11 12  2  0
 12 13  1  0
 13 14  2  0
 14 15  1  0
 14 16  1  0
 16 17  1  0
 16 18  2  0
 18 19  1  0
 18 20  1  0
 20 21  1  0
 20 22  2  0
 22 23  1  0
 11 24  1  0
 24 25  2  0
 25 26  1  0
 25 27  1  0
 27 28  1  0
 27 29  2  0
 29 30  1  0
 29 31  1  0
 31 32  1  0
 32 33  1  0
 33 34  1  0
 33 35  1  0
 33 36  1  0
 31 37  2  0
 37 38  1  0
 10  3  2  0
 22 13  1  0
 37 24  1  0
M  CHG  3   4  -1   7  -1  30  -1
M  END
>  <UniqueID>  (34) 
29

>  <SMILES>  (34) 
COc1cc(/C(=N\c2ccccc2)c2c(O)[n-]c(=O)[n-]c2=O)ccc1[O-]

>  <Energy>  (34) 
59.939385599826835

>  <Genealogy>  (34) 
COc1cc(C(=Nc2ccccc2)c2c(O)[n-]c(=O)[n-]c2=O)ccc1[O-] (protonated)
COc1cc(/C(=N\c2ccccc2)c2c(O)[n-]c(=O)[n-]c2=O)ccc1[O-] (cis-trans isomerization)
COc1cc(/C(=N\c2ccccc2)c2c(O)[n-]c(=O)[n-]c2=O)ccc1[O-] (3D coordinates assigned)
COc1cc(/C(=N\c2ccccc2)c2c(O)[n-]c(=O)[n-]c2=O)ccc1[O-] (optimized conformer: 59.939385599826835 kcal/mol)

>  <smiles>  (34) 
COc1cc(C(=Nc2ccccc2)c2c(O)[nH]c(=O)[nH]c2=O)ccc1O

>  <score_type>  (34) 
oracle

>  <origin>  (34) 
adg

>  <m_score__min__energy>  (34) 
-12.699999999999999

>  <m_primary>  (34) 
energy

$$$$
34:0
     RDKit          3D

 53 57  0  0  1  0  0  0  0  0999 V2000
   59.5660   26.3730   46.6870 C   0  0  0  0  0  0  0  0  0  0  0  0
   58.4620   26.0300   45.8220 N   0  0  0  0  0  0  0  0  0  0  0  0
   58.5250   26.7130   44.5490 C   0  0  0  0  0  0  0  0  0  0  0  0
   58.2230   28.1660   44.6850 C   0  0  0  0  0  0  0  0  0  0  0  0
   57.0290   28.5890   44.1020 C   0  0  0  0  0  0  0  0  0  0  0  0
   56.6970   29.9120   44.1940 C   0  0  0  0  0  0  0  0  0  0  0  0
   57.5480   30.7830   44.8560 C   0  0  0  0  0  0  0  0  0  0  0  0
   57.1550   32.1730   44.9280 N   0  0  0  0  0  0  0  0  0  0  0  0
   57.9840   33.0430   45.4360 C   0  0  0  0  0  0  0  0  0  0  0  0
   58.8560   32.8980   46.4070 N   0  0  0  0  0  0  0  0  0  0  0  0
   59.6120   33.8790   46.7940 C   0  0  0  0  0  0  0  0  0  0  0  0
   60.6190   33.8350   47.8620 C   0  0  0  0  0  0  0  0  0  0  0  0
   60.2620   34.1560   49.1640 C   0  0  0  0  0  0  0  0  0  0  0  0
   61.1900   34.1260   50.2070 C   0  0  0  0  0  0  0  0  0  0  0  0
   62.4950   33.7740   49.9630 C   0  0  0  0  0  0  0  0  0  0  0  0
   63.4310   33.7380   50.9770 C   0  0  0  0  0  0  0  0  0  0  0  0
   64.7350   33.3790   50.6960 C   0  0  0  0  0  0  0  0  0  0  0  0
   65.0810   33.0620   49.4000 C   0  0  0  0  0  0  0  0  0  0  0  0
   64.1270   33.1070   48.4060 C   0  0  0  0  0  0  0  0  0  0  0  0
   62.8260   33.4600   48.6600 C   0  0  0  0  0  0  0  0  0  0  0  0
   61.9090   33.4890   47.6320 C   0  0  0  0  0  0  0  0  0  0  0  0
   59.4160   35.0990   46.0910 C   0  0  0  0  0  0  0  0  0  0  0  0
   58.1070   34.7370   44.8740 S   0  0  0  0  0  0  0  0  0  0  0  0
   58.6930   30.3450   45.4080 N   0  0  0  0  0  0  0  0  0  0  0  0
   59.0660   29.0420   45.3440 C   0  0  0  0  0  0  0  0  0  0  0  0
   57.1820   26.1970   46.4730 C   0  0  0  0  0  0  0  0  0  0  0  0
   56.2130   25.2870   45.7820 C   0  0  0  0  0  0  0  0  0  0  0  0
   54.8700   25.3980   45.9760 N   0  0  0  0  0  0  0  0  0  0  0  0
   54.2460   24.4580   45.2360 C   0  0  0  0  0  0  0  0  0  0  0  0
   55.2520   23.7680   44.5830 C   0  0  0  0  0  0  0  0  0  0  0  0
   56.4590   24.2860   44.9250 N   0  0  0  0  0  0  0  0  0  0  0  0
   59.2530   26.2758   47.7370 H   0  0  0  0  0  0  0  0  0  0  0  0
   60.4095   25.6946   46.4915 H   0  0  0  0  0  0  0  0  0  0  0  0
   59.8766   27.4100   46.4915 H   0  0  0  0  0  0  0  0  0  0  0  0
   59.5364   26.5970   44.1324 H   0  0  0  0  0  0  0  0  0  0  0  0
   57.7701   26.2676   43.8843 H   0  0  0  0  0  0  0  0  0  0  0  0
   56.3715   27.8769   43.5818 H   0  0  0  0  0  0  0  0  0  0  0  0
   55.7627   30.2820   43.7466 H   0  0  0  0  0  0  0  0  0  0  0  0
   58.9320   31.9190   46.8860 H   0  0  0  0  0  0  0  0  0  0  0  0
   59.2218   34.4413   49.3799 H   0  0  0  0  0  0  0  0  0  0  0  0
   60.8745   34.3854   51.2284 H   0  0  0  0  0  0  0  0  0  0  0  0
   63.1392   33.9945   52.0061 H   0  0  0  0  0  0  0  0  0  0  0  0
   65.4883   33.3465   51.4970 H   0  0  0  0  0  0  0  0  0  0  0  0
   66.1151   32.7740   49.1597 H   0  0  0  0  0  0  0  0  0  0  0  0
   64.4182   32.8517   47.3764 H   0  0  0  0  0  0  0  0  0  0  0  0
   62.2279   33.2281   46.6121 H   0  0  0  0  0  0  0  0  0  0  0  0
   59.9399   36.0535   46.2471 H   0  0  0  0  0  0  0  0  0  0  0  0
   60.0050   28.6950   45.7999 H   0  0  0  0  0  0  0  0  0  0  0  0
   57.2614   25.9260   47.5361 H   0  0  0  0  0  0  0  0  0  0  0  0
   56.8466   27.2429   46.4137 H   0  0  0  0  0  0  0  0  0  0  0  0
   53.1631   24.2778   45.1664 H   0  0  0  0  0  0  0  0  0  0  0  0
   55.0970   22.9269   43.8913 H   0  0  0  0  0  0  0  0  0  0  0  0
   57.4070   23.9810   44.5990 H   0  0  0  0  0  0  0  0  0  0  0  0
  1  2  1  0
  2  3  1  0
  3  4  1  0
  4  5  2  0
  5  6  1  0
  6  7  2  0
  7  8  1  0
  8  9  2  0
  9 10  1  0
 10 11  1  0
 11 12  1  0
 12 13  2  0
 13 14  1  0
 14 15  2  0
 15 16  1  0
 16 17  2  0
 17 18  1  0
 18 19  2  0
 19 20  1  0
 20 21  2  0
 11 22  2  0
 22 23  1  0
  7 24  1  0
 24 25  2  0
  2 26  1  0
 26 27  1  0
 27 28  2  0
 28 29  1  0
 29 30  2  0
 30 31  1  0
 25  4  1  0
 31 27  1  0
 23  9  1  0
 21 12  1  0
 20 15  1  0
  1 32  1  0
  1 33  1  0
  1 34  1  0
  3 35  1  0
  3 36  1  0
  5 37  1  0
  6 38  1  0
 10 39  1  0
 13 40  1  0
 14 41  1  0
 16 42  1  0
 17 43  1  0
 18 44  1  0
 19 45  1  0
 21 46  1  0
 22 47  1  0
 25 48  1  0
 26 49  1  0
 26 50  1  0
 29 51  1  0
 30 52  1  0
 31 53  1  0
M  END
>  <smiles>  (35) 
CN(Cc1ccc(N=c2[nH]c(-c3ccc4ccccc4c3)cs2)nc1)Cc1ncc[nH]1

>  <score_type>  (35) 
oracle

>  <origin>  (35) 
adg

>  <m_score__min__energy>  (35) 
-9.5899999999999999

>  <m_primary>  (35) 
energy

$$$$
35:0
     RDKit          3D

 41 43  0  0  1  0  0  0  0  0999 V2000
   61.1480   28.6640   44.5760 C   0  0  0  0  0  0  0  0  0  0  0  0
   60.4920   29.6870   45.2690 O   0  0  0  0  0  0  0  0  0  0  0  0
   60.6980   29.9940   46.6030 C   0  0  0  0  0  0  0  0  0  0  0  0
   61.2310   31.1880   47.0040 C   0  0  0  0  0  0  0  0  0  0  0  0
   61.4380   31.4950   48.3440 C   0  0  0  0  0  0  0  0  0  0  0  0
   61.0770   30.5320   49.2540 C   0  0  0  0  0  0  0  0  0  0  0  0
   60.5340   29.3090   48.8900 C   0  0  0  0  0  0  0  0  0  0  0  0
   60.3390   29.0290   47.5510 C   0  0  0  0  0  0  0  0  0  0  0  0
   59.7850   27.7930   47.0970 N   0  0  0  0  0  0  0  0  0  0  0  0
   58.6100   27.7600   46.6080 C   0  0  0  0  0  0  0  0  0  0  0  0
   57.8890   26.5890   46.7470 C   0  0  0  0  0  0  0  0  0  0  0  0
   56.6080   26.4630   46.2480 C   0  0  0  0  0  0  0  0  0  0  0  0
   56.0990   27.5440   45.6180 N   0  0  0  0  0  0  0  0  0  0  0  0
   56.8070   28.6950   45.4800 C   0  0  0  0  0  0  0  0  0  0  0  0
   56.2240   29.6550   44.8650 N   0  0  0  0  0  0  0  0  0  0  0  0
   56.9720   30.7930   44.4460 C   0  0  0  0  0  0  0  0  0  0  0  0
   57.4330   31.7290   45.3710 C   0  0  0  0  0  0  0  0  0  0  0  0
   58.1550   32.8300   44.9700 C   0  0  0  0  0  0  0  0  0  0  0  0
   58.6660   33.8530   45.9150 C   0  0  0  0  0  0  0  0  0  0  0  0
   58.4380   33.0200   43.6270 C   0  0  0  0  0  0  0  0  0  0  0  0
   57.9920   32.1080   42.7010 C   0  0  0  0  0  0  0  0  0  0  0  0
   58.2890   32.3330   41.3960 F   0  0  0  0  0  0  0  0  0  0  0  0
   57.2670   31.0030   43.0940 C   0  0  0  0  0  0  0  0  0  0  0  0
   58.0570   28.8190   45.9670 N   0  0  0  0  0  0  0  0  0  0  0  0
   61.5972   27.9634   45.2953 H   0  0  0  0  0  0  0  0  0  0  0  0
   60.4252   28.1273   43.9439 H   0  0  0  0  0  0  0  0  0  0  0  0
   61.9373   29.0969   43.9439 H   0  0  0  0  0  0  0  0  0  0  0  0
   61.5052   31.9307   46.2403 H   0  0  0  0  0  0  0  0  0  0  0  0
   61.8678   32.4575   48.6584 H   0  0  0  0  0  0  0  0  0  0  0  0
   61.2258   30.7409   50.3237 H   0  0  0  0  0  0  0  0  0  0  0  0
   60.2617   28.5704   49.6583 H   0  0  0  0  0  0  0  0  0  0  0  0
   58.3475   25.7358   47.2684 H   0  0  0  0  0  0  0  0  0  0  0  0
   56.0325   25.5320   46.3576 H   0  0  0  0  0  0  0  0  0  0  0  0
   55.1410   27.4620   45.2400 H   0  0  0  0  0  0  0  0  0  0  0  0
   57.2159   31.5850   46.4397 H   0  0  0  0  0  0  0  0  0  0  0  0
   58.4971   33.5148   46.9480 H   0  0  0  0  0  0  0  0  0  0  0  0
   59.7434   34.0000   45.7489 H   0  0  0  0  0  0  0  0  0  0  0  0
   58.1364   34.8027   45.7489 H   0  0  0  0  0  0  0  0  0  0  0  0
   59.0173   33.8973   43.3034 H   0  0  0  0  0  0  0  0  0  0  0  0
   56.9182   30.2819   42.3402 H   0  0  0  0  0  0  0  0  0  0  0  0
   58.6060   29.7180   45.8570 H   0  0  0  0  0  0  0  0  0  0  0  0
  1  2  1  0
  2  3  1  0
  3  4  2  0
  4  5  1  0
  5  6  2  0
  6  7  1  0
  7  8  2  0
  8  9  1  0
  9 10  2  0
 10 11  1  0
 11 12  2  0
 12 13  1  0
 13 14  1  0
 14 15  2  0
 15 16  1  0
 16 17  2  0
 17 18  1  0
 18 19  1  0
 18 20  2  0
 20 21  1  0
 21 22  1  0
 21 23  2  0
 14 24  1  0
  8  3  1  0
 24 10  1  0
 23 16  1  0
  1 25  1  0
  1 26  1  0
  1 27  1  0
  4 28  1  0
  5 29  1  0
  6 30  1  0
  7 31  1  0
 11 32  1  0
 12 33  1  0
 13 34  1  0
 17 35  1  0
 19 36  1  0
 19 37  1  0
 19 38  1  0
 20 39  1  0
 23 40  1  0
 24 41  1  0
M  END
>  <smiles>  (36) 
COc1ccccc1N=c1cc[nH]c(=Nc2cc(C)cc(F)c2)[nH]1

>  <score_type>  (36) 
oracle

>  <origin>  (36) 
adg

>  <m_score__min__energy>  (36) 
-8.0500000000000007

>  <m_primary>  (36) 
energy

$$$$
36:0
     RDKit          3D

 38 40  0  0  0  0  0  0  0  0999 V2000
   57.0220   30.8950   45.2090 N   0  0  0  0  0  0  0  0  0  0  0  0
   57.6160   31.8610   45.4320 C   0  0  0  0  0  0  0  0  0  0  0  0
   58.3440   33.0760   45.6990 C   0  0  0  0  0  0  0  0  0  0  0  0
   58.6190   33.9440   44.6330 C   0  0  0  0  0  0  0  0  0  0  0  0
   59.2760   35.1550   44.8610 C   0  0  0  0  0  0  0  0  0  0  0  0
   59.6510   35.5130   46.1580 C   0  0  0  0  0  0  0  0  0  0  0  0
   59.3800   34.6550   47.2260 C   0  0  0  0  0  0  0  0  0  0  0  0
   58.7450   33.4240   47.0060 C   0  0  0  0  0  0  0  0  0  0  0  0
   58.4370   32.3460   48.4190 S   0  0  0  0  0  0  0  0  0  0  0  0
   60.1460   32.4030   48.9960 C   0  0  0  0  0  0  0  0  0  0  0  0
   60.4640   33.2740   50.0480 C   0  0  0  0  0  0  0  0  0  0  0  0
   61.7840   33.4140   50.4800 C   0  0  0  0  0  0  0  0  0  0  0  0
   62.7980   32.6720   49.8760 C   0  0  0  0  0  0  0  0  0  0  0  0
   62.4930   31.7720   48.8530 C   0  0  0  0  0  0  0  0  0  0  0  0
   61.1660   31.6140   48.4080 C   0  0  0  0  0  0  0  0  0  0  0  0
   60.8690   30.5610   47.4110 C   0  0  0  0  0  0  0  0  0  0  0  0
   61.6110   30.4470   46.3990 O   0  0  0  0  0  0  0  0  0  0  0  0
   59.7020   29.7310   47.5590 N   0  0  0  0  0  0  0  0  0  0  0  0
   59.1770   28.8640   46.5360 C   0  0  0  0  0  0  0  0  0  0  0  0
   59.6600   28.9910   45.2230 C   0  0  0  0  0  0  0  0  0  0  0  0
   59.1600   28.1800   44.2010 C   0  0  0  0  0  0  0  0  0  0  0  0
   58.1600   27.2440   44.4760 C   0  0  0  0  0  0  0  0  0  0  0  0
   57.6540   27.1220   45.7720 C   0  0  0  0  0  0  0  0  0  0  0  0
   56.3800   25.9650   46.1100 Cl  0  0  0  0  0  0  0  0  0  0  0  0
   58.1540   27.9320   46.7990 C   0  0  0  0  0  0  0  0  0  0  0  0
   58.3157   33.6698   43.6118 H   0  0  0  0  0  0  0  0  0  0  0  0
   59.4982   35.8271   44.0190 H   0  0  0  0  0  0  0  0  0  0  0  0
   60.1601   36.4713   46.3383 H   0  0  0  0  0  0  0  0  0  0  0  0
   59.6666   34.9468   48.2471 H   0  0  0  0  0  0  0  0  0  0  0  0
   59.6662   33.8521   50.5372 H   0  0  0  0  0  0  0  0  0  0  0  0
   62.0242   34.1100   51.2972 H   0  0  0  0  0  0  0  0  0  0  0  0
   63.8400   32.7958   50.2059 H   0  0  0  0  0  0  0  0  0  0  0  0
   63.2968   31.1807   48.3901 H   0  0  0  0  0  0  0  0  0  0  0  0
   59.1210   29.8580   48.4180 H   0  0  0  0  0  0  0  0  0  0  0  0
   60.4382   29.7350   44.9976 H   0  0  0  0  0  0  0  0  0  0  0  0
   59.5542   28.2786   43.1788 H   0  0  0  0  0  0  0  0  0  0  0  0
   57.7710   26.6028   43.6714 H   0  0  0  0  0  0  0  0  0  0  0  0
   57.7458   27.8400   47.8163 H   0  0  0  0  0  0  0  0  0  0  0  0
  1  2  3  0
  2  3  1  0
  3  4  2  0
  4  5  1  0
  5  6  2  0
  6  7  1  0
  7  8  2  0
  8  9  1  0
  9 10  1  0
 10 11  2  0
 11 12  1  0
 12 13  2  0
 13 14  1  0
 14 15  2  0
 15 16  1  0
 16 17  2  0
 16 18  1  0
 18 19  1  0
 19 20  2  0
 20 21  1  0
 21 22  2  0
 22 23  1  0
 23 24  1  0
 23 25  2  0
  8  3  1  0
 15 10  1  0
 25 19  1  0
  4 26  1  0
  5 27  1  0
  6 28  1  0
  7 29  1  0
 11 30  1  0
 12 31  1  0
 13 32  1  0
 14 33  1  0
 18 34  1  0
 20 35  1  0
 21 36  1  0
 22 37  1  0
 25 38  1  0
M  END
>  <UniqueID>  (37) 
30

>  <SMILES>  (37) 
N#Cc1ccccc1Sc1ccccc1C(=O)Nc1cccc(Cl)c1

>  <Energy>  (37) 
46.588428855812055

>  <Genealogy>  (37) 
N#Cc1ccccc1Sc1ccccc1C(=O)Nc1cccc(Cl)c1 (3D coordinates assigned)
N#Cc1ccccc1Sc1ccccc1C(=O)Nc1cccc(Cl)c1 (optimized conformer: 46.588428855812055 kcal/mol)

>  <smiles>  (37) 
N#Cc1ccccc1Sc1ccccc1C(=O)Nc1cccc(Cl)c1

>  <score_type>  (37) 
oracle

>  <origin>  (37) 
adg

>  <m_score__min__energy>  (37) 
-8.5500000000000007

>  <m_primary>  (37) 
energy

$$$$
37:0
     RDKit          3D

 39 41  0  0  1  0  0  0  0  0999 V2000
   58.0190   21.1140   43.7640 N   0  0  0  0  0  0  0  0  0  0  0  0
   56.5320   21.9650   43.9300 S   0  0  0  0  0  0  0  0  0  0  0  0
   55.9280   22.0570   42.5560 O   0  0  0  0  0  0  0  0  0  0  0  0
   55.5860   21.2730   44.8460 O   0  0  0  0  0  0  0  0  0  0  0  0
   56.8110   23.5910   44.5190 C   0  0  0  0  0  0  0  0  0  0  0  0
   57.4270   24.5180   43.7070 C   0  0  0  0  0  0  0  0  0  0  0  0
   57.6530   25.8190   44.1720 C   0  0  0  0  0  0  0  0  0  0  0  0
   57.2500   26.1490   45.4480 C   0  0  0  0  0  0  0  0  0  0  0  0
   57.4440   27.4590   46.0020 N   0  0  0  0  0  0  0  0  0  0  0  0
   57.0650   28.5070   45.3500 C   0  0  0  0  0  0  0  0  0  0  0  0
   55.8370   28.6300   44.8630 N   0  0  0  0  0  0  0  0  0  0  0  0
   55.4750   29.7390   44.1870 C   0  0  0  0  0  0  0  0  0  0  0  0
   56.3610   30.7960   43.9720 C   0  0  0  0  0  0  0  0  0  0  0  0
   57.6250   30.6340   44.4930 C   0  0  0  0  0  0  0  0  0  0  0  0
   58.4910   31.5940   44.3180 N   0  0  0  0  0  0  0  0  0  0  0  0
   58.6290   32.5990   45.3310 C   0  0  0  0  0  0  0  0  0  0  0  0
   59.0770   33.8420   44.8640 C   0  0  0  0  0  0  0  0  0  0  0  0
   59.2470   34.8950   45.7690 C   0  0  0  0  0  0  0  0  0  0  0  0
   58.9590   34.6490   47.0850 C   0  0  0  0  0  0  0  0  0  0  0  0
   58.5150   33.4190   47.5490 C   0  0  0  0  0  0  0  0  0  0  0  0
   58.3460   32.3730   46.6540 C   0  0  0  0  0  0  0  0  0  0  0  0
   57.9560   29.5000   45.1690 N   0  0  0  0  0  0  0  0  0  0  0  0
   56.6250   25.2340   46.2930 C   0  0  0  0  0  0  0  0  0  0  0  0
   56.4270   23.9720   45.7870 C   0  0  0  0  0  0  0  0  0  0  0  0
   58.0060   20.3470   43.0760 H   0  0  0  0  0  0  0  0  0  0  0  0
   58.3830   20.7650   44.6980 H   0  0  0  0  0  0  0  0  0  0  0  0
   57.7418   24.2354   42.6916 H   0  0  0  0  0  0  0  0  0  0  0  0
   58.1439   26.5651   43.5299 H   0  0  0  0  0  0  0  0  0  0  0  0
   55.1430   27.8780   44.9940 H   0  0  0  0  0  0  0  0  0  0  0  0
   54.4506   29.8130   43.7931 H   0  0  0  0  0  0  0  0  0  0  0  0
   56.0677   31.7016   43.4208 H   0  0  0  0  0  0  0  0  0  0  0  0
   59.2930   33.9883   43.7954 H   0  0  0  0  0  0  0  0  0  0  0  0
   59.5986   35.8828   45.4363 H   0  0  0  0  0  0  0  0  0  0  0  0
   59.0859   35.4666   47.8098 H   0  0  0  0  0  0  0  0  0  0  0  0
   58.2988   33.2747   48.6178 H   0  0  0  0  0  0  0  0  0  0  0  0
   57.9944   31.3884   46.9960 H   0  0  0  0  0  0  0  0  0  0  0  0
   58.9400   29.4400   45.5410 H   0  0  0  0  0  0  0  0  0  0  0  0
   56.3074   25.5073   47.3101 H   0  0  0  0  0  0  0  0  0  0  0  0
   55.9356   23.2255   46.4282 H   0  0  0  0  0  0  0  0  0  0  0  0
  1  2  1  0
  2  3  2  0
  2  4  2  0
  2  5  1  0
  5  6  2  0
  6  7  1  0
  7  8  2  0
  8  9  1  0
  9 10  2  0
 10 11  1  0
 11 12  1  0
 12 13  2  0
 13 14  1  0
 14 15  2  0
 15 16  1  0
 16 17  2  0
 17 18  1  0
 18 19  2  0
 19 20  1  0
 20 21  2  0
 14 22  1  0
  8 23  1  0
 23 24  2  0
 24  5  1  0
 22 10  1  0
 21 16  1  0
  1 25  1  0
  1 26  1  0
  6 27  1  0
  7 28  1  0
 11 29  1  0
 12 30  1  0
 13 31  1  0
 17 32  1  0
 18 33  1  0
 19 34  1  0
 20 35  1  0
 21 36  1  0
 22 37  1  0
 23 38  1  0
 24 39  1  0
M  END
>  <smiles>  (38) 
NS(=O)(=O)c1ccc(N=c2[nH]ccc(=Nc3ccccc3)[nH]2)cc1

>  <score_type>  (38) 
oracle

>  <origin>  (38) 
adg

>  <m_score__min__energy>  (38) 
-8.9199999999999999

>  <m_primary>  (38) 
energy

$$$$
38:0
     RDKit          3D

 50 53  0  0  0  0  0  0  0  0999 V2000
   55.6180   26.9770   45.6840 N   0  0  0  0  0  0  0  0  0  0  0  0
   57.2550   27.5270   45.7350 S   0  0  0  0  0  0  0  0  0  0  0  0
   57.6680   27.7420   47.1650 O   0  0  0  0  0  0  0  0  0  0  0  0
   58.1470   26.4720   45.1390 O   0  0  0  0  0  0  0  0  0  0  0  0
   57.3910   29.0370   44.8080 C   0  0  0  0  0  0  0  0  0  0  0  0
   56.6660   29.1490   43.6100 C   0  0  0  0  0  0  0  0  0  0  0  0
   56.7200   30.3230   42.8570 C   0  0  0  0  0  0  0  0  0  0  0  0
   57.4910   31.4020   43.2940 C   0  0  0  0  0  0  0  0  0  0  0  0
   58.2150   31.3100   44.4840 C   0  0  0  0  0  0  0  0  0  0  0  0
   58.1790   30.1290   45.2470 C   0  0  0  0  0  0  0  0  0  0  0  0
   58.9920   30.0640   46.4740 C   0  0  0  0  0  0  0  0  0  0  0  0
   58.5150   30.5760   47.6920 C   0  0  0  0  0  0  0  0  0  0  0  0
   59.2970   30.4730   48.8470 C   0  0  0  0  0  0  0  0  0  0  0  0
   60.5430   29.8370   48.7770 C   0  0  0  0  0  0  0  0  0  0  0  0
   61.2590   29.6990   49.8550 N   0  0  0  0  0  0  0  0  0  0  0  0
   62.5240   30.3980   50.1080 C   0  0  0  0  0  0  0  0  0  0  0  0
   62.3900   31.8700   49.7960 C   0  0  0  0  0  0  0  0  0  0  0  0
   62.6810   32.8300   50.7740 C   0  0  0  0  0  0  0  0  0  0  0  0
   62.5190   34.1960   50.4960 C   0  0  0  0  0  0  0  0  0  0  0  0
   62.0920   34.6090   49.2290 C   0  0  0  0  0  0  0  0  0  0  0  0
   61.8440   33.6660   48.2290 C   0  0  0  0  0  0  0  0  0  0  0  0
   61.4170   34.1040   46.9690 O   0  0  0  0  0  0  0  0  0  0  0  0
   60.0740   34.1520   46.5750 C   0  0  0  0  0  0  0  0  0  0  0  0
   59.7170   34.5910   45.2840 C   0  0  0  0  0  0  0  0  0  0  0  0
   58.3740   34.6040   44.8990 C   0  0  0  0  0  0  0  0  0  0  0  0
   57.3870   34.1510   45.7840 C   0  0  0  0  0  0  0  0  0  0  0  0
   57.7310   33.7610   47.0920 C   0  0  0  0  0  0  0  0  0  0  0  0
   59.0710   33.7770   47.4900 C   0  0  0  0  0  0  0  0  0  0  0  0
   61.9790   32.2920   48.5210 C   0  0  0  0  0  0  0  0  0  0  0  0
   61.0030   29.3810   47.5700 N   0  0  0  0  0  0  0  0  0  0  0  0
   60.2740   29.4990   46.4320 C   0  0  0  0  0  0  0  0  0  0  0  0
   55.1620   27.4520   44.8730 H   0  0  0  0  0  0  0  0  0  0  0  0
   56.0513   28.3054   43.2628 H   0  0  0  0  0  0  0  0  0  0  0  0
   56.1538   30.3984   41.9170 H   0  0  0  0  0  0  0  0  0  0  0  0
   57.5280   32.3266   42.6992 H   0  0  0  0  0  0  0  0  0  0  0  0
   58.8164   32.1650   44.8265 H   0  0  0  0  0  0  0  0  0  0  0  0
   57.5271   31.0576   47.7374 H   0  0  0  0  0  0  0  0  0  0  0  0
   58.9373   30.8872   49.8004 H   0  0  0  0  0  0  0  0  0  0  0  0
   62.7988   30.2763   51.1661 H   0  0  0  0  0  0  0  0  0  0  0  0
   63.3024   29.9678   49.4607 H   0  0  0  0  0  0  0  0  0  0  0  0
   63.0381   32.5116   51.7645 H   0  0  0  0  0  0  0  0  0  0  0  0
   62.7281   34.9434   51.2755 H   0  0  0  0  0  0  0  0  0  0  0  0
   61.9512   35.6797   49.0200 H   0  0  0  0  0  0  0  0  0  0  0  0
   60.4948   34.9229   44.5805 H   0  0  0  0  0  0  0  0  0  0  0  0
   58.0916   34.9700   43.9008 H   0  0  0  0  0  0  0  0  0  0  0  0
   56.3385   34.0999   45.4553 H   0  0  0  0  0  0  0  0  0  0  0  0
   56.9488   33.4450   47.7979 H   0  0  0  0  0  0  0  0  0  0  0  0
   59.3423   33.4965   48.5185 H   0  0  0  0  0  0  0  0  0  0  0  0
   61.7605   31.5452   47.7435 H   0  0  0  0  0  0  0  0  0  0  0  0
   60.6896   29.1508   45.4749 H   0  0  0  0  0  0  0  0  0  0  0  0
  1  2  1  0
  2  3  2  0
  2  4  2  0
  2  5  1  0
  5  6  2  0
  6  7  1  0
  7  8  2  0
  8  9  1  0
  9 10  2  0
 10 11  1  0
 11 12  1  0
 12 13  2  0
 13 14  1  0
 14 15  2  3
 15 16  1  0
 16 17  1  0
 17 18  2  0
 18 19  1  0
 19 20  2  0
 20 21  1  0
 21 22  1  0
 22 23  1  0
 23 24  2  0
 24 25  1  0
 25 26  2  0
 26 27  1  0
 27 28  2  0
 21 29  2  0
 14 30  1  0
 30 31  1  0
 10  5  1  0
 31 11  2  0
 29 17  1  0
 28 23  1  0
  1 32  1  0
  6 33  1  0
  7 34  1  0
  8 35  1  0
  9 36  1  0
 12 37  1  0
 13 38  1  0
 16 39  1  0
 16 40  1  0
 18 41  1  0
 19 42  1  0
 20 43  1  0
 24 44  1  0
 25 45  1  0
 26 46  1  0
 27 47  1  0
 28 48  1  0
 29 49  1  0
 31 50  1  0
M  CHG  2   1  -1  30  -1
M  END
>  <UniqueID>  (39) 
31

>  <SMILES>  (39) 
[NH-]S(=O)(=O)c1ccccc1-c1ccc(=NCc2cccc(Oc3ccccc3)c2)[n-]c1

>  <Energy>  (39) 
68.11409815308497

>  <Genealogy>  (39) 
[NH-]S(=O)(=O)c1ccccc1-c1ccc(=NCc2cccc(Oc3ccccc3)c2)[n-]c1 (protonated)
[NH-]S(=O)(=O)c1ccccc1-c1ccc(=NCc2cccc(Oc3ccccc3)c2)[n-]c1 (3D coordinates assigned)
[NH-]S(=O)(=O)c1ccccc1-c1ccc(=NCc2cccc(Oc3ccccc3)c2)[n-]c1 (optimized conformer: 68.11409815308497 kcal/mol)

>  <smiles>  (39) 
NS(=O)(=O)c1ccccc1-c1ccc(=NCc2cccc(Oc3ccccc3)c2)[nH]c1

>  <score_type>  (39) 
oracle

>  <origin>  (39) 
adg

>  <m_score__min__energy>  (39) 
-13.710000000000001

>  <m_primary>  (39) 
energy

$$$$
39:0
     RDKit          3D

 70 74  0  0  0  0  0  0  0  0999 V2000
   58.5420   29.8040   49.2850 N   0  0  0  0  0  0  0  0  0  0  0  0
   58.6170   30.9400   50.1720 C   0  0  0  0  0  0  0  0  0  0  0  0
   59.1540   32.1460   49.6730 C   0  0  0  0  0  0  0  0  0  0  0  0
   59.5410   32.2690   48.2920 N   0  0  0  0  0  0  0  0  0  0  0  0
   60.6160   31.4050   47.7830 C   0  0  0  0  0  0  0  0  0  0  0  0
   61.9670   32.0030   48.0750 C   0  0  0  0  0  0  0  0  0  0  0  0
   62.6880   31.5900   49.2070 C   0  0  0  0  0  0  0  0  0  0  0  0
   63.9490   32.1330   49.4760 C   0  0  0  0  0  0  0  0  0  0  0  0
   64.4970   33.0920   48.6200 C   0  0  0  0  0  0  0  0  0  0  0  0
   63.7840   33.5130   47.4930 C   0  0  0  0  0  0  0  0  0  0  0  0
   62.5230   32.9710   47.2190 C   0  0  0  0  0  0  0  0  0  0  0  0
   58.7930   33.1510   47.4220 C   0  0  0  0  0  0  0  0  0  0  0  0
   58.3900   34.2680   47.8530 O   0  0  0  0  0  0  0  0  0  0  0  0
   58.4890   32.7900   46.0280 C   0  0  0  0  0  0  0  0  0  0  0  0
   58.7890   33.6770   44.9830 C   0  0  0  0  0  0  0  0  0  0  0  0
   58.4920   33.3320   43.6610 C   0  0  0  0  0  0  0  0  0  0  0  0
   57.8880   32.1050   43.3770 C   0  0  0  0  0  0  0  0  0  0  0  0
   57.5660   31.2220   44.4170 C   0  0  0  0  0  0  0  0  0  0  0  0
   56.8410   29.6560   44.0630 S   0  0  0  0  0  0  0  0  0  0  0  0
   55.8680   29.3190   45.1600 O   0  0  0  0  0  0  0  0  0  0  0  0
   56.0830   29.7460   42.7670 O   0  0  0  0  0  0  0  0  0  0  0  0
   58.1150   28.4520   43.9660 N   0  0  0  0  0  0  0  0  0  0  0  0
   57.7060   27.1700   44.5900 C   0  0  0  0  0  0  0  0  0  0  0  0
   58.1280   27.0720   46.0740 C   0  0  0  0  0  0  0  0  0  0  0  0
   58.2350   28.3570   46.6500 O   0  0  0  0  0  0  0  0  0  0  0  0
   59.3220   29.0630   46.0780 C   0  0  0  0  0  0  0  0  0  0  0  0
   59.3850   28.9460   44.5350 C   0  0  0  0  0  0  0  0  0  0  0  0
   57.8590   31.5720   45.7420 C   0  0  0  0  0  0  0  0  0  0  0  0
   59.2720   33.2380   50.5350 C   0  0  0  0  0  0  0  0  0  0  0  0
   59.7440   34.3320   50.1270 O   0  0  0  0  0  0  0  0  0  0  0  0
   58.8690   33.1260   51.8190 N   0  0  0  0  0  0  0  0  0  0  0  0
   58.3410   31.9750   52.3020 C   0  0  0  0  0  0  0  0  0  0  0  0
   57.9800   31.9410   53.5100 O   0  0  0  0  0  0  0  0  0  0  0  0
   58.2040   30.8690   51.4920 N   0  0  0  0  0  0  0  0  0  0  0  0
   57.5720   29.6610   52.0630 C   0  0  0  0  0  0  0  0  0  0  0  0
   56.1190   29.9240   52.3830 C   0  0  0  0  0  0  0  0  0  0  0  0
   55.3940   30.9000   51.6770 C   0  0  0  0  0  0  0  0  0  0  0  0
   54.0600   31.1610   52.0010 C   0  0  0  0  0  0  0  0  0  0  0  0
   53.4380   30.4560   53.0330 C   0  0  0  0  0  0  0  0  0  0  0  0
   54.1490   29.4860   53.7430 C   0  0  0  0  0  0  0  0  0  0  0  0
   55.4850   29.2200   53.4230 C   0  0  0  0  0  0  0  0  0  0  0  0
   58.5050   29.8690   48.2480 H   0  0  0  0  0  0  0  0  0  0  0  0
   58.5670   28.8270   49.6570 H   0  0  0  0  0  0  0  0  0  0  0  0
   60.5458   30.4194   48.2665 H   0  0  0  0  0  0  0  0  0  0  0  0
   60.5025   31.3062   46.6933 H   0  0  0  0  0  0  0  0  0  0  0  0
   62.2598   30.8368   49.8847 H   0  0  0  0  0  0  0  0  0  0  0  0
   64.5102   31.8044   50.3631 H   0  0  0  0  0  0  0  0  0  0  0  0
   65.4895   33.5159   48.8327 H   0  0  0  0  0  0  0  0  0  0  0  0
   64.2145   34.2705   46.8215 H   0  0  0  0  0  0  0  0  0  0  0  0
   61.9648   33.3031   46.3312 H   0  0  0  0  0  0  0  0  0  0  0  0
   59.2592   34.6465   45.2044 H   0  0  0  0  0  0  0  0  0  0  0  0
   58.7342   34.0275   42.8439 H   0  0  0  0  0  0  0  0  0  0  0  0
   57.6646   31.8311   42.3353 H   0  0  0  0  0  0  0  0  0  0  0  0
   58.2750   28.2770   42.9440 H   0  0  0  0  0  0  0  0  0  0  0  0
   56.6114   27.0811   44.5280 H   0  0  0  0  0  0  0  0  0  0  0  0
   58.2096   26.3578   44.0453 H   0  0  0  0  0  0  0  0  0  0  0  0
   57.3744   26.4909   46.6258 H   0  0  0  0  0  0  0  0  0  0  0  0
   59.1089   26.5773   46.1301 H   0  0  0  0  0  0  0  0  0  0  0  0
   59.2264   30.1261   46.3438 H   0  0  0  0  0  0  0  0  0  0  0  0
   60.2454   28.6174   46.4763 H   0  0  0  0  0  0  0  0  0  0  0  0
   59.6017   29.9380   44.1121 H   0  0  0  0  0  0  0  0  0  0  0  0
   60.1751   28.2242   44.2807 H   0  0  0  0  0  0  0  0  0  0  0  0
   57.5931   30.8874   46.5609 H   0  0  0  0  0  0  0  0  0  0  0  0
   57.6392   28.8390   51.3351 H   0  0  0  0  0  0  0  0  0  0  0  0
   58.0969   29.3901   52.9910 H   0  0  0  0  0  0  0  0  0  0  0  0
   55.8796   31.4613   50.8651 H   0  0  0  0  0  0  0  0  0  0  0  0
   53.4986   31.9238   51.4415 H   0  0  0  0  0  0  0  0  0  0  0  0
   52.3882   30.6644   53.2869 H   0  0  0  0  0  0  0  0  0  0  0  0
   53.6579   28.9301   54.5553 H   0  0  0  0  0  0  0  0  0  0  0  0
   56.0419   28.4572   53.9870 H   0  0  0  0  0  0  0  0  0  0  0  0
  1  2  1  0
  2  3  2  0
  3  4  1  0
  4  5  1  0
  5  6  1  0
  6  7  2  0
  7  8  1  0
  8  9  2  0
  9 10  1  0
 10 11  2  0
  4 12  1  0
 12 13  2  0
 12 14  1  0
 14 15  2  0
 15 16  1  0
 16 17  2  0
 17 18  1  0
 18 19  1  0
 19 20  2  0
 19 21  2  0
 19 22  1  0
 22 23  1  0
 23 24  1  0
 24 25  1  0
 25 26  1  0
 26 27  1  0
 18 28  2  0
  3 29  1  0
 29 30  2  0
 29 31  1  0
 31 32  1  0
 32 33  2  0
 32 34  1  0
 34 35  1  0
 35 36  1  0
 36 37  2  0
 37 38  1  0
 38 39  2  0
 39 40  1  0
 40 41  2  0
 34  2  1  0
 41 36  1  0
 11  6  1  0
 28 14  1  0
 27 22  1  0
  1 42  1  0
  1 43  1  0
  5 44  1  0
  5 45  1  0
  7 46  1  0
  8 47  1  0
  9 48  1  0
 10 49  1  0
 11 50  1  0
 15 51  1  0
 16 52  1  0
 17 53  1  0
 22 54  1  0
 23 55  1  0
 23 56  1  0
 24 57  1  0
 24 58  1  0
 26 59  1  0
 26 60  1  0
 27 61  1  0
 27 62  1  0
 28 63  1  0
 35 64  1  0
 35 65  1  0
 37 66  1  0
 38 67  1  0
 39 68  1  0
 40 69  1  0
 41 70  1  0
M  CHG  2  22   1  31  -1
M  END
>  <UniqueID>  (40) 
32

>  <SMILES>  (40) 
Nc1c(N(Cc2ccccc2)C(=O)c2cccc(S(=O)(=O)[NH+]3CCOCC3)c2)c(=O)[n-]c(=O)n1Cc1ccccc1

>  <Energy>  (40) 
104.05840393570207

>  <Genealogy>  (40) 
Nc1c(N(Cc2ccccc2)C(=O)c2cccc(S(=O)(=O)[NH+]3CCOCC3)c2)c(=O)[n-]c(=O)n1Cc1ccccc1 (protonated)
Nc1c(N(Cc2ccccc2)C(=O)c2cccc(S(=O)(=O)[NH+]3CCOCC3)c2)c(=O)[n-]c(=O)n1Cc1ccccc1 (3D coordinates assigned)
Nc1c(N(Cc2ccccc2)C(=O)c2cccc(S(=O)(=O)[NH+]3CCOCC3)c2)c(=O)[n-]c(=O)n1Cc1ccccc1 (nonaromatic ring conformer: 104.05840393570207 kcal/mol)

>  <smiles>  (40) 
Nc1c(N(Cc2ccccc2)C(=O)c2cccc(S(=O)(=O)N3CCOCC3)c2)c(=O)[nH]c(=O)n1Cc1ccccc1

>  <score_type>  (40) 
oracle

>  <origin>  (40) 
adg

>  <m_score__min__energy>  (40) 
-11.34

>  <m_primary>  (40) 
energy

$$$$
40:0
     RDKit          3D

 34 35  0  0  0  0  0  0  0  0999 V2000
   60.4340   30.5380   47.8350 C   0  0  0  0  0  0  0  0  0  0  0  0
   61.4080   31.6850   47.7810 C   0  0  0  0  0  0  0  0  0  0  0  0
   62.5300   31.6680   48.6270 C   0  0  0  0  0  0  0  0  0  0  0  0
   63.4500   32.7200   48.6130 C   0  0  0  0  0  0  0  0  0  0  0  0
   64.9710   32.6740   49.7660 Br  0  0  0  0  0  0  0  0  0  0  0  0
   63.2560   33.8040   47.7560 C   0  0  0  0  0  0  0  0  0  0  0  0
   62.1440   33.8420   46.9150 C   0  0  0  0  0  0  0  0  0  0  0  0
   61.2030   32.7940   46.9150 C   0  0  0  0  0  0  0  0  0  0  0  0
   60.0670   32.8600   46.0180 N   0  0  0  0  0  0  0  0  0  0  0  0
   58.9410   33.5410   46.6220 C   0  0  0  0  0  0  0  0  0  0  0  0
   58.9030   33.7950   48.2480 S   0  0  0  0  0  0  0  0  0  0  0  0
   57.7240   33.7590   45.8840 N   0  0  0  0  0  0  0  0  0  0  0  0
   57.4660   33.2410   44.5410 C   0  0  0  0  0  0  0  0  0  0  0  0
   57.4190   31.7410   44.5450 C   0  0  0  0  0  0  0  0  0  0  0  0
   56.9900   31.0340   43.4120 C   0  0  0  0  0  0  0  0  0  0  0  0
   56.9480   29.6380   43.4510 C   0  0  0  0  0  0  0  0  0  0  0  0
   57.3190   28.9650   44.6170 C   0  0  0  0  0  0  0  0  0  0  0  0
   57.7250   29.7020   45.7310 C   0  0  0  0  0  0  0  0  0  0  0  0
   57.7630   31.0590   45.6720 N   0  0  0  0  0  0  0  0  0  0  0  0
   60.2209   30.2870   48.8846 H   0  0  0  0  0  0  0  0  0  0  0  0
   59.5002   30.8259   47.3299 H   0  0  0  0  0  0  0  0  0  0  0  0
   60.8694   29.6632   47.3299 H   0  0  0  0  0  0  0  0  0  0  0  0
   62.6858   30.8178   49.3074 H   0  0  0  0  0  0  0  0  0  0  0  0
   63.9818   34.6305   47.7437 H   0  0  0  0  0  0  0  0  0  0  0  0
   62.0001   34.7012   46.2433 H   0  0  0  0  0  0  0  0  0  0  0  0
   60.3700   33.3400   45.1440 H   0  0  0  0  0  0  0  0  0  0  0  0
   59.7560   31.9000   45.7430 H   0  0  0  0  0  0  0  0  0  0  0  0
   56.9360   34.2510   46.3660 H   0  0  0  0  0  0  0  0  0  0  0  0
   56.5012   33.6305   44.1840 H   0  0  0  0  0  0  0  0  0  0  0  0
   58.2808   33.5651   43.8770 H   0  0  0  0  0  0  0  0  0  0  0  0
   56.6896   31.5734   42.5016 H   0  0  0  0  0  0  0  0  0  0  0  0
   56.6237   29.0708   42.5660 H   0  0  0  0  0  0  0  0  0  0  0  0
   57.2916   27.8661   44.6573 H   0  0  0  0  0  0  0  0  0  0  0  0
   58.0143   29.1838   46.6572 H   0  0  0  0  0  0  0  0  0  0  0  0
  1  2  1  0
  2  3  2  0
  3  4  1  0
  4  5  1  0
  4  6  2  0
  6  7  1  0
  7  8  2  0
  8  9  1  0
  9 10  1  0
 10 11  2  0
 10 12  1  0
 12 13  1  0
 13 14  1  0
 14 15  2  0
 15 16  1  0
 16 17  2  0
 17 18  1  0
 18 19  2  0
  8  2  1  0
 19 14  1  0
  1 20  1  0
  1 21  1  0
  1 22  1  0
  3 23  1  0
  6 24  1  0
  7 25  1  0
  9 26  1  0
  9 27  1  0
 12 28  1  0
 13 29  1  0
 13 30  1  0
 15 31  1  0
 16 32  1  0
 17 33  1  0
 18 34  1  0
M  CHG  1   9   1
M  END
>  <UniqueID>  (41) 
33

>  <SMILES>  (41) 
Cc1cc(Br)ccc1[NH2+]C(=S)NCc1ccccn1

>  <Energy>  (41) 
35.67401747012949

>  <Genealogy>  (41) 
Cc1cc(Br)ccc1[NH2+]C(=S)NCc1ccccn1 (protonated)
Cc1cc(Br)ccc1[NH2+]C(=S)NCc1ccccn1 (3D coordinates assigned)
Cc1cc(Br)ccc1[NH2+]C(=S)NCc1ccccn1 (optimized conformer: 35.67401747012949 kcal/mol)

>  <smiles>  (41) 
Cc1cc(Br)ccc1NC(=S)NCc1ccccn1

>  <score_type>  (41) 
oracle

>  <origin>  (41) 
adg

>  <m_score__min__energy>  (41) 
-6.2599999999999998

>  <m_primary>  (41) 
energy

$$$$
41:0
     RDKit          3D

 34 36  0  0  0  0  0  0  0  0999 V2000
   54.2400   24.8260   45.5940 C   0  0  0  0  0  0  0  0  0  0  0  0
   54.8160   26.0650   45.9440 O   0  0  0  0  0  0  0  0  0  0  0  0
   56.2240   26.0130   45.8070 C   0  0  0  0  0  0  0  0  0  0  0  0
   56.8210   27.4200   45.8360 C   0  0  0  0  0  0  0  0  0  0  0  0
   55.8840   28.3660   45.2430 N   0  0  0  0  0  0  0  0  0  0  0  0
   56.1940   29.6360   44.6510 C   0  0  0  0  0  0  0  0  0  0  0  0
   55.4810   30.0260   43.6890 O   0  0  0  0  0  0  0  0  0  0  0  0
   57.3100   30.5050   45.0960 C   0  0  0  0  0  0  0  0  0  0  0  0
   57.3470   31.8900   44.9150 C   0  0  0  0  0  0  0  0  0  0  0  0
   58.4930   32.4860   45.4630 C   0  0  0  0  0  0  0  0  0  0  0  0
   58.8190   33.8460   45.4400 C   0  0  0  0  0  0  0  0  0  0  0  0
   58.0540   34.6810   44.8850 O   0  0  0  0  0  0  0  0  0  0  0  0
   59.9800   34.2660   46.0280 N   0  0  0  0  0  0  0  0  0  0  0  0
   60.8390   33.3910   46.6420 C   0  0  0  0  0  0  0  0  0  0  0  0
   62.0240   33.8520   47.2360 C   0  0  0  0  0  0  0  0  0  0  0  0
   62.8940   32.9550   47.8620 C   0  0  0  0  0  0  0  0  0  0  0  0
   62.5920   31.5910   47.9010 C   0  0  0  0  0  0  0  0  0  0  0  0
   61.4170   31.1120   47.3140 C   0  0  0  0  0  0  0  0  0  0  0  0
   60.5370   32.0050   46.6830 C   0  0  0  0  0  0  0  0  0  0  0  0
   59.3480   31.5900   46.0790 C   0  0  0  0  0  0  0  0  0  0  0  0
   58.6960   30.0440   45.9550 S   0  0  0  0  0  0  0  0  0  0  0  0
   53.9818   24.2705   46.5077 H   0  0  0  0  0  0  0  0  0  0  0  0
   53.3301   24.9992   45.0007 H   0  0  0  0  0  0  0  0  0  0  0  0
   54.9589   24.2420   45.0007 H   0  0  0  0  0  0  0  0  0  0  0  0
   56.6460   25.4243   46.6349 H   0  0  0  0  0  0  0  0  0  0  0  0
   56.4688   25.5443   44.8425 H   0  0  0  0  0  0  0  0  0  0  0  0
   57.0224   27.7099   46.8778 H   0  0  0  0  0  0  0  0  0  0  0  0
   57.7587   27.4287   45.2611 H   0  0  0  0  0  0  0  0  0  0  0  0
   56.5587   32.4551   44.3962 H   0  0  0  0  0  0  0  0  0  0  0  0
   60.2120   35.2850   46.0030 H   0  0  0  0  0  0  0  0  0  0  0  0
   62.2691   34.9240   47.2088 H   0  0  0  0  0  0  0  0  0  0  0  0
   63.8205   33.3242   48.3260 H   0  0  0  0  0  0  0  0  0  0  0  0
   63.2817   30.8913   48.3957 H   0  0  0  0  0  0  0  0  0  0  0  0
   61.1827   30.0377   47.3466 H   0  0  0  0  0  0  0  0  0  0  0  0
  1  2  1  0
  2  3  1  0
  3  4  1  0
  4  5  1  0
  5  6  1  0
  6  7  2  0
  6  8  1  0
  8  9  2  0
  9 10  1  0
 10 11  1  0
 11 12  2  0
 11 13  1  0
 13 14  1  0
 14 15  2  0
 15 16  1  0
 16 17  2  0
 17 18  1  0
 18 19  2  0
 19 20  1  0
 20 21  1  0
 21  8  1  0
 20 10  2  0
 19 14  1  0
  1 22  1  0
  1 23  1  0
  1 24  1  0
  3 25  1  0
  3 26  1  0
  4 27  1  0
  4 28  1  0
  9 29  1  0
 13 30  1  0
 15 31  1  0
 16 32  1  0
 17 33  1  0
 18 34  1  0
M  CHG  1   5  -1
M  END
>  <UniqueID>  (42) 
34

>  <SMILES>  (42) 
COCC[N-]C(=O)c1cc2c(=O)[nH]c3ccccc3c2s1

>  <Energy>  (42) 
73.13952047608731

>  <Genealogy>  (42) 
COCC[N-]C(=O)c1cc2c(=O)[nH]c3ccccc3c2s1 (protonated)
COCC[N-]C(=O)c1cc2c(=O)[nH]c3ccccc3c2s1 (3D coordinates assigned)
COCC[N-]C(=O)c1cc2c(=O)[nH]c3ccccc3c2s1 (optimized conformer: 73.13952047608731 kcal/mol)

>  <smiles>  (42) 
COCCNC(=O)c1cc2c(=O)[nH]c3ccccc3c2s1

>  <score_type>  (42) 
oracle

>  <origin>  (42) 
adg

>  <m_score__min__energy>  (42) 
-9.7799999999999994

>  <m_primary>  (42) 
energy

$$$$
42:0
     RDKit          3D

 68 71  0  0  0  0  0  0  0  0999 V2000
   61.0660   32.5360   50.4550 C   0  0  0  0  0  0  0  0  0  0  0  0
   60.6210   32.5300   49.0740 N   0  0  0  0  0  0  0  0  0  0  0  0
   60.6780   33.7380   48.3320 C   0  0  0  0  0  0  0  0  0  0  0  0
   61.7600   34.4170   48.2850 O   0  0  0  0  0  0  0  0  0  0  0  0
   59.5360   34.3010   47.5750 C   0  0  0  0  0  0  0  0  0  0  0  0
   59.9250   34.1480   46.0970 C   0  0  0  0  0  0  0  0  0  0  0  0
   59.6340   32.7060   45.7340 C   0  0  0  0  0  0  0  0  0  0  0  0
   58.1940   32.6230   45.5920 N   0  0  0  0  0  0  0  0  0  0  0  0
   57.5740   31.8990   44.5420 C   0  0  0  0  0  0  0  0  0  0  0  0
   56.6360   30.9510   44.7050 N   0  0  0  0  0  0  0  0  0  0  0  0
   56.2640   30.4670   43.4980 C   0  0  0  0  0  0  0  0  0  0  0  0
   55.3990   29.5560   43.2100 N   0  0  0  0  0  0  0  0  0  0  0  0
   57.0050   31.1530   42.6110 N   0  0  0  0  0  0  0  0  0  0  0  0
   57.7990   32.0170   43.2230 N   0  0  0  0  0  0  0  0  0  0  0  0
   57.4130   33.3400   46.6080 C   0  0  0  0  0  0  0  0  0  0  0  0
   58.2550   33.5600   47.8540 C   0  0  0  0  0  0  0  0  0  0  0  0
   60.1510   31.2950   48.5550 C   0  0  0  0  0  0  0  0  0  0  0  0
   59.0420   30.6350   48.9730 C   0  0  0  0  0  0  0  0  0  0  0  0
   58.5910   29.4360   48.4650 C   0  0  0  0  0  0  0  0  0  0  0  0
   59.3460   28.8740   47.4440 C   0  0  0  0  0  0  0  0  0  0  0  0
   58.9600   27.6250   46.8470 N   0  0  0  0  0  0  0  0  0  0  0  0
   57.8150   27.4890   46.0390 C   0  0  0  0  0  0  0  0  0  0  0  0
   57.1170   28.5250   45.8470 O   0  0  0  0  0  0  0  0  0  0  0  0
   57.4300   26.2200   45.4370 C   0  0  0  0  0  0  0  0  0  0  0  0
   57.7350   25.8650   44.1430 C   0  0  0  0  0  0  0  0  0  0  0  0
   57.3710   24.6680   43.5770 C   0  0  0  0  0  0  0  0  0  0  0  0
   56.6630   23.7520   44.3150 C   0  0  0  0  0  0  0  0  0  0  0  0
   56.3470   24.0970   45.6260 C   0  0  0  0  0  0  0  0  0  0  0  0
   55.5750   23.1040   46.4400 C   0  0  0  0  0  0  0  0  0  0  0  0
   55.9860   21.7090   46.0610 C   0  0  0  0  0  0  0  0  0  0  0  0
   54.0930   23.2840   46.2930 C   0  0  0  0  0  0  0  0  0  0  0  0
   55.8890   23.2630   47.9190 C   0  0  0  0  0  0  0  0  0  0  0  0
   56.7180   25.3010   46.1840 C   0  0  0  0  0  0  0  0  0  0  0  0
   60.4850   29.4970   46.9750 C   0  0  0  0  0  0  0  0  0  0  0  0
   60.8900   30.7030   47.5250 C   0  0  0  0  0  0  0  0  0  0  0  0
   60.1914   32.5242   51.1221 H   0  0  0  0  0  0  0  0  0  0  0  0
   61.6841   31.6461   50.6449 H   0  0  0  0  0  0  0  0  0  0  0  0
   61.6599   33.4422   50.6449 H   0  0  0  0  0  0  0  0  0  0  0  0
   59.3492   35.3466   47.8612 H   0  0  0  0  0  0  0  0  0  0  0  0
   59.3265   34.8274   45.4723 H   0  0  0  0  0  0  0  0  0  0  0  0
   60.9832   34.3988   45.9315 H   0  0  0  0  0  0  0  0  0  0  0  0
   60.1291   32.4407   44.7882 H   0  0  0  0  0  0  0  0  0  0  0  0
   60.0084   32.0101   46.4992 H   0  0  0  0  0  0  0  0  0  0  0  0
   55.3790   29.0520   42.2990 H   0  0  0  0  0  0  0  0  0  0  0  0
   57.0130   31.0700   41.5530 H   0  0  0  0  0  0  0  0  0  0  0  0
   58.4810   32.6780   42.7610 H   0  0  0  0  0  0  0  0  0  0  0  0
   57.0983   34.3139   46.2048 H   0  0  0  0  0  0  0  0  0  0  0  0
   56.5289   32.7410   46.8718 H   0  0  0  0  0  0  0  0  0  0  0  0
   57.6646   34.1407   48.5780 H   0  0  0  0  0  0  0  0  0  0  0  0
   58.5268   32.5691   48.2467 H   0  0  0  0  0  0  0  0  0  0  0  0
   58.4555   31.0938   49.7826 H   0  0  0  0  0  0  0  0  0  0  0  0
   57.6815   28.9500   48.8479 H   0  0  0  0  0  0  0  0  0  0  0  0
   59.5840   26.8210   47.0520 H   0  0  0  0  0  0  0  0  0  0  0  0
   58.3017   26.5796   43.5280 H   0  0  0  0  0  0  0  0  0  0  0  0
   57.6458   24.4438   42.5357 H   0  0  0  0  0  0  0  0  0  0  0  0
   56.3580   22.7853   43.8879 H   0  0  0  0  0  0  0  0  0  0  0  0
   56.1602   21.1178   46.9721 H   0  0  0  0  0  0  0  0  0  0  0  0
   55.1878   21.2403   45.4667 H   0  0  0  0  0  0  0  0  0  0  0  0
   56.9109   21.7479   45.4667 H   0  0  0  0  0  0  0  0  0  0  0  0
   53.6299   23.3402   47.2892 H   0  0  0  0  0  0  0  0  0  0  0  0
   53.8895   24.2135   45.7410 H   0  0  0  0  0  0  0  0  0  0  0  0
   53.6729   22.4303   45.7410 H   0  0  0  0  0  0  0  0  0  0  0  0
   55.0646   22.8456   48.5158 H   0  0  0  0  0  0  0  0  0  0  0  0
   56.8205   22.7280   48.1557 H   0  0  0  0  0  0  0  0  0  0  0  0
   56.0090   24.3305   48.1557 H   0  0  0  0  0  0  0  0  0  0  0  0
   56.4471   25.5308   47.2251 H   0  0  0  0  0  0  0  0  0  0  0  0
   61.0706   29.0368   46.1655 H   0  0  0  0  0  0  0  0  0  0  0  0
   61.7979   31.1977   47.1495 H   0  0  0  0  0  0  0  0  0  0  0  0
  1  2  1  0
  2  3  1  0
  3  4  2  0
  3  5  1  0
  5  6  1  0
  6  7  1  0
  7  8  1  0
  8  9  1  0
  9 10  2  0
 10 11  1  0
 11 12  2  3
 11 13  1  0
 13 14  1  0
  8 15  1  0
 15 16  1  0
  2 17  1  0
 17 18  2  0
 18 19  1  0
 19 20  2  0
 20 21  1  0
 21 22  1  0
 22 23  2  0
 22 24  1  0
 24 25  2  0
 25 26  1  0
 26 27  2  0
 27 28  1  0
 28 29  1  0
 29 30  1  0
 29 31  1  0
 29 32  1  0
 28 33  2  0
 20 34  1  0
 34 35  2  0
 16  5  1  0
 35 17  1  0
 14  9  1  0
 33 24  1  0
  1 36  1  0
  1 37  1  0
  1 38  1  0
  5 39  1  0
  6 40  1  0
  6 41  1  0
  7 42  1  0
  7 43  1  0
 12 44  1  0
 13 45  1  0
 14 46  1  0
 15 47  1  0
 15 48  1  0
 16 49  1  0
 16 50  1  0
 18 51  1  0
 19 52  1  0
 21 53  1  0
 25 54  1  0
 26 55  1  0
 27 56  1  0
 30 57  1  0
 30 58  1  0
 30 59  1  0
 31 60  1  0
 31 61  1  0
 31 62  1  0
 32 63  1  0
 32 64  1  0
 32 65  1  0
 33 66  1  0
 34 67  1  0
 35 68  1  0
M  END
>  <smiles>  (43) 
CN(C(=O)C1CCN(c2nc(=N)[nH][nH]2)CC1)c1ccc(NC(=O)c2cccc(C(C)(C)C)c2)cc1

>  <score_type>  (43) 
oracle

>  <origin>  (43) 
adg

>  <m_score__min__energy>  (43) 
-9.5600000000000005

>  <m_primary>  (43) 
energy

$$$$
43:0
     RDKit          3D

 48 52  0  0  0  0  0  0  0  0999 V2000
   63.0875   30.7584   51.4213 H   0  0  0  0  0  0  0  0  0  0  0  0
   62.8770   30.9080   50.3520 C   0  0  0  0  0  0  0  0  0  0  0  0
   61.8010   30.2450   49.7530 C   0  0  0  0  0  0  0  0  0  0  0  0
   61.1657   29.5791   50.3555 H   0  0  0  0  0  0  0  0  0  0  0  0
   61.5260   30.4240   48.3860 C   0  0  0  0  0  0  0  0  0  0  0  0
   60.4130   29.7430   47.7780 N   0  0  0  0  0  0  0  0  0  0  0  0
   60.0560   28.4410   47.9030 C   0  0  0  0  0  0  0  0  0  0  0  0
   60.6630   27.6080   48.6270 O   0  0  0  0  0  0  0  0  0  0  0  0
   58.9440   28.1710   47.1830 N   0  0  0  0  0  0  0  0  0  0  0  0
   58.1930   27.0490   46.9750 C   0  0  0  0  0  0  0  0  0  0  0  0
   58.4930   25.7990   47.5440 C   0  0  0  0  0  0  0  0  0  0  0  0
   59.3709   25.6877   48.1974 H   0  0  0  0  0  0  0  0  0  0  0  0
   57.6730   24.6960   47.2780 C   0  0  0  0  0  0  0  0  0  0  0  0
   57.9091   23.7186   47.7241 H   0  0  0  0  0  0  0  0  0  0  0  0
   56.5550   24.8300   46.4480 C   0  0  0  0  0  0  0  0  0  0  0  0
   55.9149   23.9585   46.2462 H   0  0  0  0  0  0  0  0  0  0  0  0
   56.2480   26.0670   45.8740 C   0  0  0  0  0  0  0  0  0  0  0  0
   55.3689   26.1673   45.2204 H   0  0  0  0  0  0  0  0  0  0  0  0
   57.0590   27.1770   46.1310 C   0  0  0  0  0  0  0  0  0  0  0  0
   56.7610   28.3880   45.5710 N   0  0  0  0  0  0  0  0  0  0  0  0
   57.5300   29.4950   45.7950 C   0  0  0  0  0  0  0  0  0  0  0  0
   57.2390   30.6440   45.2580 N   0  0  0  0  0  0  0  0  0  0  0  0
   58.0510   31.8560   45.3860 C   0  0  0  0  0  0  0  0  0  0  0  0
   59.0989   31.5793   45.5739 H   0  0  0  0  0  0  0  0  0  0  0  0
   57.5670   32.7080   46.5880 C   0  0  0  0  0  0  0  0  0  0  0  0
   56.4862   32.5478   46.7153 H   0  0  0  0  0  0  0  0  0  0  0  0
   58.1437   32.3839   47.4668 H   0  0  0  0  0  0  0  0  0  0  0  0
   57.8190   34.2200   46.4130 C   0  0  0  0  0  0  0  0  0  0  0  0
   56.9357   34.6765   45.9425 H   0  0  0  0  0  0  0  0  0  0  0  0
   58.0049   34.6540   47.4065 H   0  0  0  0  0  0  0  0  0  0  0  0
   59.0450   34.4920   45.5360 C   0  0  0  0  0  0  0  0  0  0  0  0
   59.1939   35.5791   45.4579 H   0  0  0  0  0  0  0  0  0  0  0  0
   59.9159   34.0086   46.0028 H   0  0  0  0  0  0  0  0  0  0  0  0
   58.8710   33.9080   44.1200 C   0  0  0  0  0  0  0  0  0  0  0  0
   58.4226   34.6801   43.4775 H   0  0  0  0  0  0  0  0  0  0  0  0
   59.8684   33.6028   43.7708 H   0  0  0  0  0  0  0  0  0  0  0  0
   57.9720   32.6550   44.0780 C   0  0  0  0  0  0  0  0  0  0  0  0
   56.9305   32.9688   43.9142 H   0  0  0  0  0  0  0  0  0  0  0  0
   58.3222   32.0088   43.2596 H   0  0  0  0  0  0  0  0  0  0  0  0
   58.6420   29.3600   46.6280 C   0  0  0  0  0  0  0  0  0  0  0  0
   59.5190   30.3180   46.9820 N   0  0  0  0  0  0  0  0  0  0  0  0
   59.5220   31.3180   46.6790 H   0  0  0  0  0  0  0  0  0  0  0  0
   62.3410   31.2890   47.6330 C   0  0  0  0  0  0  0  0  0  0  0  0
   62.1319   31.4453   46.5644 H   0  0  0  0  0  0  0  0  0  0  0  0
   63.4150   31.9510   48.2350 C   0  0  0  0  0  0  0  0  0  0  0  0
   64.0489   32.6233   47.6382 H   0  0  0  0  0  0  0  0  0  0  0  0
   63.6860   31.7610   49.5940 C   0  0  0  0  0  0  0  0  0  0  0  0
   65.0330   32.5930   50.3480 Cl  0  0  0  0  0  0  0  0  0  0  0  0
  1  2  1  0
  2  3  2  0
  3  4  1  0
  3  5  1  0
  5  6  1  0
  6  7  1  0
  7  8  2  0
  7  9  1  0
  9 10  1  0
 10 11  2  0
 11 12  1  0
 11 13  1  0
 13 14  1  0
 13 15  2  0
 15 16  1  0
 15 17  1  0
 17 18  1  0
 17 19  2  0
 19 20  1  0
 20 21  1  0
 21 22  2  0
 22 23  1  0
 23 24  1  0
 23 25  1  0
 25 26  1  0
 25 27  1  0
 25 28  1  0
 28 29  1  0
 28 30  1  0
 28 31  1  0
 31 32  1  0
 31 33  1  0
 31 34  1  0
 34 35  1  0
 34 36  1  0
 34 37  1  0
 37 38  1  0
 37 39  1  0
 21 40  1  0
 40 41  2  0
 41 42  1  0
  5 43  2  0
 43 44  1  0
 43 45  1  0
 45 46  1  0
 45 47  2  0
 47 48  1  0
 47  2  1  0
 41  6  1  0
 40  9  1  0
 19 10  1  0
 37 23  1  0
M  CHG  2  20  -1  41   1
M  END
>  <UniqueID>  (44) 
35

>  <SMILES>  (44) 
O=c1n(-c2ccc(Cl)cc2)[nH+]c2/c(=N/C3CCCCC3)[n-]c3ccccc3n12

>  <Energy>  (44) 
110.20740606811886

>  <Genealogy>  (44) 
O=c1n(-c2ccc(Cl)cc2)[nH+]c2c(=NC3CCCCC3)[n-]c3ccccc3n12 (protonated)
O=c1n(-c2ccc(Cl)cc2)[nH+]c2/c(=N/C3CCCCC3)[n-]c3ccccc3n12 (cis-trans isomerization)
O=c1n(-c2ccc(Cl)cc2)[nH+]c2/c(=N/C3CCCCC3)[n-]c3ccccc3n12 (3D coordinates assigned)
O=c1n(-c2ccc(Cl)cc2)[nH+]c2/c(=N/C3CCCCC3)[n-]c3ccccc3n12 (nonaromatic ring conformer: 110.20740606811886 kcal/mol)

>  <smiles>  (44) 
O=c1n(-c2ccc(Cl)cc2)nc2c(=NC3CCCCC3)[nH]c3ccccc3n12

>  <score_type>  (44) 
oracle

>  <origin>  (44) 
adg

>  <m_score__min__energy>  (44) 
-8.8300000000000001

>  <m_primary>  (44) 
energy

$$$$
44:0
     RDKit          3D

 57 61  0  0  0  0  0  0  0  0999 V2000
   61.1720   26.4470   46.8990 C   0  0  0  0  0  0  0  0  0  0  0  0
   59.9440   26.5030   46.0180 C   0  0  0  0  0  0  0  0  0  0  0  0
   59.9090   27.4730   45.0770 C   0  0  0  0  0  0  0  0  0  0  0  0
   58.7070   27.7790   44.2340 C   0  0  0  0  0  0  0  0  0  0  0  0
   57.7670   26.5830   44.1360 C   0  0  0  0  0  0  0  0  0  0  0  0
   57.4380   25.9610   45.5240 C   0  0  1  0  0  0  0  0  0  0  0  0
   56.7660   27.0780   46.3820 C   0  0  0  0  0  0  0  0  0  0  0  0
   56.4670   24.7040   45.4120 C   0  0  1  0  0  0  0  0  0  0  0  0
   54.9380   24.9010   45.1100 C   0  0  2  0  0  0  0  0  0  0  0  0
   54.3610   25.8350   45.9830 O   0  0  0  0  0  0  0  0  0  0  0  0
   54.2050   23.5790   45.3210 C   0  0  0  0  0  0  0  0  0  0  0  0
   54.8520   22.3920   45.3670 C   0  0  0  0  0  0  0  0  0  0  0  0
   54.4710   21.3050   46.3510 C   0  0  2  0  0  0  0  0  0  0  0  0
   54.5000   21.8740   47.7920 C   0  0  0  0  0  0  0  0  0  0  0  0
   55.9000   22.3420   48.1370 C   0  0  0  0  0  0  0  0  0  0  0  0
   56.1030   23.0090   49.1840 O   0  0  0  0  0  0  0  0  0  0  0  0
   56.9860   22.0050   47.3030 O   0  0  0  0  0  0  0  0  0  0  0  0
   56.8140   21.2870   46.0670 C   0  0  1  0  0  0  0  0  0  0  0  0
   55.6400   20.3170   46.2370 C   0  0  0  0  0  0  0  0  0  0  0  0
   56.2840   22.1950   44.9390 C   0  0  2  0  0  0  0  0  0  0  0  0
   57.0100   23.5300   44.5120 C   0  0  1  0  0  0  0  0  0  0  0  0
   56.6250   23.7140   42.9980 C   0  0  0  0  0  0  0  0  0  0  0  0
   58.5650   23.4170   44.5760 C   0  0  0  0  0  0  0  0  0  0  0  0
   59.2200   24.0200   45.8360 C   0  0  1  0  0  0  0  0  0  0  0  0
   60.6170   23.8630   45.7640 O   0  0  0  0  0  0  0  0  0  0  0  0
   58.7850   25.4940   46.2460 C   0  0  1  0  0  0  0  0  0  0  0  0
   58.5360   25.4150   47.6410 O   0  0  0  0  0  0  0  0  0  0  0  0
   60.8662   26.4609   47.9555 H   0  0  0  0  0  0  0  0  0  0  0  0
   61.7306   25.5225   46.6911 H   0  0  0  0  0  0  0  0  0  0  0  0
   61.8124   27.3169   46.6911 H   0  0  0  0  0  0  0  0  0  0  0  0
   60.8169   28.0740   44.9202 H   0  0  0  0  0  0  0  0  0  0  0  0
   58.1633   28.6238   44.6820 H   0  0  0  0  0  0  0  0  0  0  0  0
   59.0538   28.0262   43.2198 H   0  0  0  0  0  0  0  0  0  0  0  0
   56.8281   26.9112   43.6662 H   0  0  0  0  0  0  0  0  0  0  0  0
   58.2735   25.8110   43.5381 H   0  0  0  0  0  0  0  0  0  0  0  0
   56.9020   26.8519   47.4499 H   0  0  0  0  0  0  0  0  0  0  0  0
   57.2307   28.0477   46.1505 H   0  0  0  0  0  0  0  0  0  0  0  0
   55.6915   27.1217   46.1505 H   0  0  0  0  0  0  0  0  0  0  0  0
   56.4961   24.4423   46.4800 H   0  0  0  0  0  0  0  0  0  0  0  0
   54.8491   25.2556   44.0725 H   0  0  0  0  0  0  0  0  0  0  0  0
   54.3800   26.7150   45.5240 H   0  0  0  0  0  0  0  0  0  0  0  0
   53.1115   23.5920   45.4399 H   0  0  0  0  0  0  0  0  0  0  0  0
   53.4762   20.8798   46.1523 H   0  0  0  0  0  0  0  0  0  0  0  0
   53.8044   22.7233   47.8623 H   0  0  0  0  0  0  0  0  0  0  0  0
   54.1989   21.0855   48.4975 H   0  0  0  0  0  0  0  0  0  0  0  0
   57.7907   20.8387   45.8324 H   0  0  0  0  0  0  0  0  0  0  0  0
   55.5295   19.6570   45.3640 H   0  0  0  0  0  0  0  0  0  0  0  0
   55.7381   19.6248   47.0863 H   0  0  0  0  0  0  0  0  0  0  0  0
   56.4728   21.6948   43.9777 H   0  0  0  0  0  0  0  0  0  0  0  0
   55.6346   24.1873   42.9264 H   0  0  0  0  0  0  0  0  0  0  0  0
   57.3729   24.3520   42.5044 H   0  0  0  0  0  0  0  0  0  0  0  0
   56.5983   22.7313   42.5044 H   0  0  0  0  0  0  0  0  0  0  0  0
   58.8300   22.3503   44.5330 H   0  0  0  0  0  0  0  0  0  0  0  0
   58.9470   24.0015   43.7260 H   0  0  0  0  0  0  0  0  0  0  0  0
   58.8148   23.4361   46.6756 H   0  0  0  0  0  0  0  0  0  0  0  0
   60.8150   23.2220   45.0310 H   0  0  0  0  0  0  0  0  0  0  0  0
   57.9320   24.6500   47.8380 H   0  0  0  0  0  0  0  0  0  0  0  0
  1  2  1  0
  2  3  2  0
  3  4  1  0
  4  5  1  0
  5  6  1  0
  6  7  1  1
  6  8  1  0
  8  9  1  0
  9 10  1  0
  9 11  1  0
 11 12  2  0
 12 13  1  0
 13 14  1  0
 14 15  1  0
 15 16  2  0
 15 17  1  0
 17 18  1  0
 18 19  1  0
 18 20  1  0
 20 21  1  0
 21 22  1  6
 21 23  1  0
 23 24  1  0
 24 25  1  0
 24 26  1  0
 26 27  1  1
 26  2  1  0
 26  6  1  0
 21  8  1  0
 20 12  1  0
 19 13  1  0
  1 28  1  0
  1 29  1  0
  1 30  1  0
  3 31  1  0
  4 32  1  0
  4 33  1  0
  5 34  1  0
  5 35  1  0
  7 36  1  0
  7 37  1  0
  7 38  1  0
  8 39  1  1
  9 40  1  6
 10 41  1  0
 11 42  1  0
 13 43  1  6
 14 44  1  0
 14 45  1  0
 18 46  1  6
 19 47  1  0
 19 48  1  0
 20 49  1  6
 22 50  1  0
 22 51  1  0
 22 52  1  0
 23 53  1  0
 23 54  1  0
 24 55  1  1
 25 56  1  0
 27 57  1  0
M  END
>  <UniqueID>  (45) 
36

>  <SMILES>  (45) 
CC1=CCC[C@@]2(C)[C@H]3C(O)C=C4C5CC(=O)OC(C5)C4C3(C)CC(O)C12O

>  <Energy>  (45) 
135.76762451412

>  <Genealogy>  (45) 
CC1=CCC[C@@]2(C)[C@H]3C(O)C=C4C5CC(=O)OC(C5)C4C3(C)CC(O)C12O (chirality)
CC1=CCC[C@@]2(C)[C@H]3C(O)C=C4C5CC(=O)OC(C5)C4C3(C)CC(O)C12O (3D coordinates assigned)
CC1=CCC[C@@]2(C)[C@H]3C(O)C=C4C5CC(=O)OC(C5)C4C3(C)CC(O)C12O (nonaromatic ring conformer: 135.76762451412 kcal/mol)

>  <smiles>  (45) 
CC1=CCCC2(C)C3C(O)C=C4C5CC(=O)OC(C5)C4C3(C)CC(O)C12O

>  <score_type>  (45) 
oracle

>  <origin>  (45) 
adg

>  <m_score__min__energy>  (45) 
-7.2599999999999998

>  <m_primary>  (45) 
energy

$$$$
45:0
     RDKit          3D

 57 60  0  0  0  0  0  0  0  0999 V2000
   58.5668   33.3795   50.0470 H   0  0  0  0  0  0  0  0  0  0  0  0
   58.9420   32.5490   49.4310 C   0  0  0  0  0  0  0  0  0  0  0  0
   59.6080   31.5520   50.0570 C   0  0  0  0  0  0  0  0  0  0  0  0
   58.8610   30.3830   50.5830 C   0  0  0  0  0  0  0  0  0  0  0  0
   57.9200   30.5420   51.4100 O   0  0  0  0  0  0  0  0  0  0  0  0
   59.2070   29.0960   50.1590 O   0  0  0  0  0  0  0  0  0  0  0  0
   59.5740   28.7990   48.8160 C   0  0  0  0  0  0  0  0  0  0  0  0
   60.1741   29.6261   48.4089 H   0  0  0  0  0  0  0  0  0  0  0  0
   58.6659   28.6698   48.2088 H   0  0  0  0  0  0  0  0  0  0  0  0
   60.3900   27.5180   48.7830 C   0  0  0  0  0  0  0  0  0  0  0  0
   60.5990   27.1898   49.8119 H   0  0  0  0  0  0  0  0  0  0  0  0
   59.8234   26.7358   48.2566 H   0  0  0  0  0  0  0  0  0  0  0  0
   61.3384   27.7009   48.2566 H   0  0  0  0  0  0  0  0  0  0  0  0
   61.0840   31.5720   50.2370 C   0  0  0  0  0  0  0  0  0  0  0  0
   61.5670   31.1020   51.3040 O   0  0  0  0  0  0  0  0  0  0  0  0
   62.0070   32.1130   49.2080 C   0  0  0  0  0  0  0  0  0  0  0  0
   62.3640   31.3220   48.1010 C   0  0  0  0  0  0  0  0  0  0  0  0
   61.9388   30.3137   47.9894 H   0  0  0  0  0  0  0  0  0  0  0  0
   63.2560   31.8100   47.1420 C   0  0  0  0  0  0  0  0  0  0  0  0
   63.5407   31.1805   46.2860 H   0  0  0  0  0  0  0  0  0  0  0  0
   63.7860   33.0950   47.2690 C   0  0  0  0  0  0  0  0  0  0  0  0
   64.4870   33.4774   46.5125 H   0  0  0  0  0  0  0  0  0  0  0  0
   63.4270   33.8960   48.3560 C   0  0  0  0  0  0  0  0  0  0  0  0
   63.8435   34.9095   48.4527 H   0  0  0  0  0  0  0  0  0  0  0  0
   62.5390   33.4110   49.3210 C   0  0  0  0  0  0  0  0  0  0  0  0
   62.2549   34.0469   50.1724 H   0  0  0  0  0  0  0  0  0  0  0  0
   58.6840   32.6000   47.9800 C   0  0  0  0  0  0  0  0  0  0  0  0
   58.1430   31.5670   47.2250 C   0  0  0  0  0  0  0  0  0  0  0  0
   57.7938   30.6061   47.6310 H   0  0  0  0  0  0  0  0  0  0  0  0
   58.1080   31.9140   45.9190 N   0  0  0  0  0  0  0  0  0  0  0  0
   57.5930   30.8870   44.6210 S   0  0  0  0  0  0  0  0  0  0  0  0
   58.2190   31.3380   43.3310 O   0  0  0  0  0  0  0  0  0  0  0  0
   56.1000   30.9740   44.4720 O   0  0  0  0  0  0  0  0  0  0  0  0
   58.0460   29.2250   44.9830 C   0  0  0  0  0  0  0  0  0  0  0  0
   59.3960   28.8600   45.0870 C   0  0  0  0  0  0  0  0  0  0  0  0
   60.1817   29.6135   44.9290 H   0  0  0  0  0  0  0  0  0  0  0  0
   59.7460   27.5410   45.3910 C   0  0  0  0  0  0  0  0  0  0  0  0
   60.8065   27.2576   45.4621 H   0  0  0  0  0  0  0  0  0  0  0  0
   58.7470   26.5760   45.6060 C   0  0  0  0  0  0  0  0  0  0  0  0
   59.1140   25.1530   45.9110 C   0  0  0  0  0  0  0  0  0  0  0  0
   59.1510   25.0094   47.0010 H   0  0  0  0  0  0  0  0  0  0  0  0
   58.3603   24.4790   45.4778 H   0  0  0  0  0  0  0  0  0  0  0  0
   60.0997   24.9276   45.4778 H   0  0  0  0  0  0  0  0  0  0  0  0
   57.3980   26.9420   45.4870 C   0  0  0  0  0  0  0  0  0  0  0  0
   56.6112   26.1868   45.6304 H   0  0  0  0  0  0  0  0  0  0  0  0
   57.0490   28.2620   45.1870 C   0  0  0  0  0  0  0  0  0  0  0  0
   55.9888   28.5454   45.1109 H   0  0  0  0  0  0  0  0  0  0  0  0
   58.6130   33.1620   45.8360 C   0  0  0  0  0  0  0  0  0  0  0  0
   58.8060   33.9430   44.6930 C   0  0  0  0  0  0  0  0  0  0  0  0
   58.5459   33.5612   43.6947 H   0  0  0  0  0  0  0  0  0  0  0  0
   59.3430   35.2320   44.8590 C   0  0  0  0  0  0  0  0  0  0  0  0
   59.5126   35.8697   43.9789 H   0  0  0  0  0  0  0  0  0  0  0  0
   59.6660   35.7140   46.1450 C   0  0  0  0  0  0  0  0  0  0  0  0
   60.0753   36.7283   46.2617 H   0  0  0  0  0  0  0  0  0  0  0  0
   59.4680   34.9060   47.2780 C   0  0  0  0  0  0  0  0  0  0  0  0
   59.7086   35.2747   48.2861 H   0  0  0  0  0  0  0  0  0  0  0  0
   58.9570   33.6220   47.0850 C   0  0  0  0  0  0  0  0  0  0  0  0
  1  2  1  0
  2  3  2  0
  3  4  1  0
  4  5  2  0
  4  6  1  0
  6  7  1  0
  7  8  1  0
  7  9  1  0
  7 10  1  0
 10 11  1  0
 10 12  1  0
 10 13  1  0
  3 14  1  0
 14 15  2  0
 14 16  1  0
 16 17  2  0
 17 18  1  0
 17 19  1  0
 19 20  1  0
 19 21  2  0
 21 22  1  0
 21 23  1  0
 23 24  1  0
 23 25  2  0
 25 26  1  0
  2 27  1  0
 27 28  2  0
 28 29  1  0
 28 30  1  0
 30 31  1  0
 31 32  2  0
 31 33  2  0
 31 34  1  0
 34 35  2  0
 35 36  1  0
 35 37  1  0
 37 38  1  0
 37 39  2  0
 39 40  1  0
 40 41  1  0
 40 42  1  0
 40 43  1  0
 39 44  1  0
 44 45  1  0
 44 46  2  0
 46 47  1  0
 30 48  1  0
 48 49  2  0
 49 50  1  0
 49 51  1  0
 51 52  1  0
 51 53  2  0
 53 54  1  0
 53 55  1  0
 55 56  1  0
 55 57  2  0
 25 16  1  0
 57 27  1  0
 46 34  1  0
 57 48  1  0
M  END
>  <UniqueID>  (46) 
37

>  <SMILES>  (46) 
CCOC(=O)/C(=C/c1cn(S(=O)(=O)c2ccc(C)cc2)c2ccccc12)C(=O)c1ccccc1

>  <Energy>  (46) 
98.8019106155488

>  <Genealogy>  (46) 
CCOC(=O)/C(=C/c1cn(S(=O)(=O)c2ccc(C)cc2)c2ccccc12)C(=O)c1ccccc1 (cis-trans isomerization)
CCOC(=O)/C(=C/c1cn(S(=O)(=O)c2ccc(C)cc2)c2ccccc12)C(=O)c1ccccc1 (3D coordinates assigned)
CCOC(=O)/C(=C/c1cn(S(=O)(=O)c2ccc(C)cc2)c2ccccc12)C(=O)c1ccccc1 (optimized conformer: 98.8019106155488 kcal/mol)

>  <smiles>  (46) 
CCOC(=O)C(=Cc1cn(S(=O)(=O)c2ccc(C)cc2)c2ccccc12)C(=O)c1ccccc1

>  <score_type>  (46) 
oracle

>  <origin>  (46) 
adg

>  <m_score__min__energy>  (46) 
-9.8100000000000005

>  <m_primary>  (46) 
energy

$$$$
46:0
     RDKit          3D

 39 41  0  0  0  0  0  0  0  0999 V2000
   64.1330   32.7320   48.7650 C   0  0  0  0  0  0  0  0  0  0  0  0
   63.2510   31.8370   48.0960 O   0  0  0  0  0  0  0  0  0  0  0  0
   62.1000   32.2240   47.3880 C   0  0  0  0  0  0  0  0  0  0  0  0
   61.9710   33.5130   46.8570 C   0  0  0  0  0  0  0  0  0  0  0  0
   60.8020   33.8970   46.2160 C   0  0  0  0  0  0  0  0  0  0  0  0
   59.7350   32.9960   46.0490 C   0  0  0  0  0  0  0  0  0  0  0  0
   58.5040   33.4550   45.5510 O   0  0  0  0  0  0  0  0  0  0  0  0
   57.3810   33.8300   46.3440 C   0  0  0  0  0  0  0  0  0  0  0  0
   59.8930   31.6380   46.4570 C   0  0  0  0  0  0  0  0  0  0  0  0
   61.0550   31.2920   47.2120 C   0  0  0  0  0  0  0  0  0  0  0  0
   61.1560   30.0570   47.7870 N   0  0  0  0  0  0  0  0  0  0  0  0
   60.1820   29.1240   47.6660 C   0  0  0  0  0  0  0  0  0  0  0  0
   59.0660   29.3620   46.8660 C   0  0  0  0  0  0  0  0  0  0  0  0
   58.1080   28.3480   46.6990 C   0  0  0  0  0  0  0  0  0  0  0  0
   57.0290   28.5270   45.8240 C   0  0  0  0  0  0  0  0  0  0  0  0
   56.0290   27.5180   45.6210 N   0  0  0  0  0  0  0  0  0  0  0  0
   56.2050   25.8280   45.9660 S   0  0  0  0  0  0  0  0  0  0  0  0
   57.2530   25.0590   44.7500 C   0  0  0  0  0  0  0  0  0  0  0  0
   56.8450   25.6760   47.3170 O   0  0  0  0  0  0  0  0  0  0  0  0
   54.8570   25.1640   45.9920 O   0  0  0  0  0  0  0  0  0  0  0  0
   56.9420   29.7080   45.0890 C   0  0  0  0  0  0  0  0  0  0  0  0
   57.8840   30.7260   45.2540 C   0  0  0  0  0  0  0  0  0  0  0  0
   58.9320   30.6070   46.1990 C   0  0  0  0  0  0  0  0  0  0  0  0
   64.0181   32.6154   49.8527 H   0  0  0  0  0  0  0  0  0  0  0  0
   65.1709   32.5057   48.4796 H   0  0  0  0  0  0  0  0  0  0  0  0
   63.8915   33.7665   48.4796 H   0  0  0  0  0  0  0  0  0  0  0  0
   62.8029   34.2268   46.9487 H   0  0  0  0  0  0  0  0  0  0  0  0
   60.7081   34.9235   45.8319 H   0  0  0  0  0  0  0  0  0  0  0  0
   57.6395   33.7437   47.4097 H   0  0  0  0  0  0  0  0  0  0  0  0
   57.1028   34.8698   46.1172 H   0  0  0  0  0  0  0  0  0  0  0  0
   56.5339   33.1660   46.1172 H   0  0  0  0  0  0  0  0  0  0  0  0
   61.9880   29.8020   48.3640 H   0  0  0  0  0  0  0  0  0  0  0  0
   60.2726   28.1690   48.2044 H   0  0  0  0  0  0  0  0  0  0  0  0
   58.2060   27.4066   47.2595 H   0  0  0  0  0  0  0  0  0  0  0  0
   58.0401   24.4814   45.2569 H   0  0  0  0  0  0  0  0  0  0  0  0
   56.6519   24.3860   44.1208 H   0  0  0  0  0  0  0  0  0  0  0  0
   57.7146   25.8343   44.1208 H   0  0  0  0  0  0  0  0  0  0  0  0
   56.1206   29.8401   44.3694 H   0  0  0  0  0  0  0  0  0  0  0  0
   57.8106   31.6354   44.6396 H   0  0  0  0  0  0  0  0  0  0  0  0
  1  2  1  0
  2  3  1  0
  3  4  2  0
  4  5  1  0
  5  6  2  0
  6  7  1  0
  7  8  1  0
  6  9  1  0
  9 10  2  0
 10 11  1  0
 11 12  2  0
 12 13  1  0
 13 14  2  0
 14 15  1  0
 15 16  1  0
 16 17  1  0
 17 18  1  0
 17 19  2  0
 17 20  2  0
 15 21  2  0
 21 22  1  0
 22 23  2  0
 10  3  1  0
 23 13  1  0
 23  9  1  0
  1 24  1  0
  1 25  1  0
  1 26  1  0
  4 27  1  0
  5 28  1  0
  8 29  1  0
  8 30  1  0
  8 31  1  0
 11 32  1  0
 12 33  1  0
 14 34  1  0
 18 35  1  0
 18 36  1  0
 18 37  1  0
 21 38  1  0
 22 39  1  0
M  CHG  2  11   1  16  -1
M  END
>  <UniqueID>  (47) 
38

>  <SMILES>  (47) 
COc1ccc(OC)c2c1[nH+]cc1cc([N-]S(C)(=O)=O)ccc12

>  <Energy>  (47) 
58.36008825997921

>  <Genealogy>  (47) 
COc1ccc(OC)c2c1[nH+]cc1cc([N-]S(C)(=O)=O)ccc12 (protonated)
COc1ccc(OC)c2c1[nH+]cc1cc([N-]S(C)(=O)=O)ccc12 (3D coordinates assigned)
COc1ccc(OC)c2c1[nH+]cc1cc([N-]S(C)(=O)=O)ccc12 (optimized conformer: 58.36008825997921 kcal/mol)

>  <smiles>  (47) 
COc1ccc(OC)c2c1ncc1cc(NS(C)(=O)=O)ccc12

>  <score_type>  (47) 
oracle

>  <origin>  (47) 
adg

>  <m_score__min__energy>  (47) 
-7.46

>  <m_primary>  (47) 
energy

$$$$
47:0
     RDKit          3D

 41 44  0  0  0  0  0  0  0  0999 V2000
   61.0370   30.1620   46.8090 O   0  0  0  0  0  0  0  0  0  0  0  0
   60.0120   30.6500   47.3610 C   0  0  0  0  0  0  0  0  0  0  0  0
   58.8030   29.8850   47.4300 N   0  0  0  0  0  0  0  0  0  0  0  0
   58.4950   28.8540   46.4440 C   0  0  0  0  0  0  0  0  0  0  0  0
   57.8760   29.4900   45.2290 C   0  0  0  0  0  0  0  0  0  0  0  0
   56.5620   29.1660   44.8560 C   0  0  0  0  0  0  0  0  0  0  0  0
   55.9540   29.8170   43.7790 C   0  0  0  0  0  0  0  0  0  0  0  0
   56.6500   30.8050   43.0740 C   0  0  0  0  0  0  0  0  0  0  0  0
   57.9540   31.1400   43.4450 C   0  0  0  0  0  0  0  0  0  0  0  0
   58.5660   30.4890   44.5210 C   0  0  0  0  0  0  0  0  0  0  0  0
   60.0280   32.0770   47.8430 C   0  0  0  0  0  0  0  0  0  0  0  0
   59.1890   32.9110   46.8980 C   0  0  0  0  0  0  0  0  0  0  0  0
   57.7930   32.7520   46.8710 C   0  0  0  0  0  0  0  0  0  0  0  0
   57.0210   33.4320   45.9260 C   0  0  0  0  0  0  0  0  0  0  0  0
   57.6360   34.2770   44.9980 C   0  0  0  0  0  0  0  0  0  0  0  0
   59.0220   34.4520   45.0220 C   0  0  0  0  0  0  0  0  0  0  0  0
   59.8000   33.7810   45.9720 C   0  0  0  0  0  0  0  0  0  0  0  0
   61.1790   33.9970   46.0060 O   0  0  0  0  0  0  0  0  0  0  0  0
   61.9880   33.4660   47.0130 C   0  0  0  0  0  0  0  0  0  0  0  0
   63.3340   33.8460   47.0840 C   0  0  0  0  0  0  0  0  0  0  0  0
   64.1490   33.3530   48.1060 C   0  0  0  0  0  0  0  0  0  0  0  0
   63.6250   32.4750   49.0580 C   0  0  0  0  0  0  0  0  0  0  0  0
   62.2850   32.0830   48.9860 C   0  0  0  0  0  0  0  0  0  0  0  0
   61.4560   32.5740   47.9640 C   0  0  0  0  0  0  0  0  0  0  0  0
   58.0250   30.2220   48.0420 H   0  0  0  0  0  0  0  0  0  0  0  0
   59.4208   28.3352   46.1547 H   0  0  0  0  0  0  0  0  0  0  0  0
   57.7894   28.1306   46.8785 H   0  0  0  0  0  0  0  0  0  0  0  0
   56.0084   28.3963   45.4138 H   0  0  0  0  0  0  0  0  0  0  0  0
   54.9275   29.5524   43.4854 H   0  0  0  0  0  0  0  0  0  0  0  0
   56.1701   31.3179   42.2275 H   0  0  0  0  0  0  0  0  0  0  0  0
   58.5005   31.9169   42.8902 H   0  0  0  0  0  0  0  0  0  0  0  0
   59.5910   30.7598   44.8142 H   0  0  0  0  0  0  0  0  0  0  0  0
   59.5897   32.1572   48.8487 H   0  0  0  0  0  0  0  0  0  0  0  0
   57.3048   32.0875   47.5990 H   0  0  0  0  0  0  0  0  0  0  0  0
   55.9288   33.3024   45.9122 H   0  0  0  0  0  0  0  0  0  0  0  0
   57.0284   34.8047   44.2481 H   0  0  0  0  0  0  0  0  0  0  0  0
   59.5031   35.1193   44.2918 H   0  0  0  0  0  0  0  0  0  0  0  0
   63.7504   34.5341   46.3335 H   0  0  0  0  0  0  0  0  0  0  0  0
   65.2048   33.6566   48.1612 H   0  0  0  0  0  0  0  0  0  0  0  0
   64.2672   32.0919   49.8647 H   0  0  0  0  0  0  0  0  0  0  0  0
   61.8778   31.3864   49.7336 H   0  0  0  0  0  0  0  0  0  0  0  0
  1  2  2  0
  2  3  1  0
  3  4  1  0
  4  5  1  0
  5  6  2  0
  6  7  1  0
  7  8  2  0
  8  9  1  0
  9 10  2  0
  2 11  1  0
 11 12  1  0
 12 13  2  0
 13 14  1  0
 14 15  2  0
 15 16  1  0
 16 17  2  0
 17 18  1  0
 18 19  1  0
 19 20  2  0
 20 21  1  0
 21 22  2  0
 22 23  1  0
 23 24  2  0
 10  5  1  0
 24 11  1  0
 17 12  1  0
 24 19  1  0
  3 25  1  0
  4 26  1  0
  4 27  1  0
  6 28  1  0
  7 29  1  0
  8 30  1  0
  9 31  1  0
 10 32  1  0
 11 33  1  0
 13 34  1  0
 14 35  1  0
 15 36  1  0
 16 37  1  0
 20 38  1  0
 21 39  1  0
 22 40  1  0
 23 41  1  0
M  END
>  <UniqueID>  (48) 
39

>  <SMILES>  (48) 
O=C(NCc1ccccc1)C1c2ccccc2Oc2ccccc21

>  <Energy>  (48) 
43.88243566202993

>  <Genealogy>  (48) 
O=C(NCc1ccccc1)C1c2ccccc2Oc2ccccc21 (3D coordinates assigned)
O=C(NCc1ccccc1)C1c2ccccc2Oc2ccccc21 (nonaromatic ring conformer: 43.88243566202993 kcal/mol)

>  <smiles>  (48) 
O=C(NCc1ccccc1)C1c2ccccc2Oc2ccccc21

>  <score_type>  (48) 
oracle

>  <origin>  (48) 
adg

>  <m_score__min__energy>  (48) 
-8.3000000000000007

>  <m_primary>  (48) 
energy

$$$$
48:0
     RDKit          3D

 32 33  0  0  0  0  0  0  0  0999 V2000
   59.5930   30.8750   46.7330 C   0  0  0  0  0  0  0  0  0  0  0  0
   58.8340   31.9270   45.9620 C   0  0  0  0  0  0  0  0  0  0  0  0
   58.6630   33.2270   46.4970 C   0  0  0  0  0  0  0  0  0  0  0  0
   59.2900   33.6800   48.0800 Cl  0  0  0  0  0  0  0  0  0  0  0  0
   57.9660   34.1970   45.7730 C   0  0  0  0  0  0  0  0  0  0  0  0
   57.4150   33.8900   44.5310 C   0  0  0  0  0  0  0  0  0  0  0  0
   57.5460   32.6060   44.0060 C   0  0  0  0  0  0  0  0  0  0  0  0
   58.2490   31.6120   44.7090 C   0  0  0  0  0  0  0  0  0  0  0  0
   58.3080   30.2680   44.1920 N   0  0  0  0  0  0  0  0  0  0  0  0
   57.5190   29.1790   44.6980 C   0  0  0  0  0  0  0  0  0  0  0  0
   56.6480   29.3730   45.5880 O   0  0  0  0  0  0  0  0  0  0  0  0
   57.7180   27.7950   44.1580 C   0  0  0  0  0  0  0  0  0  0  0  0
   58.2270   26.6450   45.4820 S   0  0  0  0  0  0  0  0  0  0  0  0
   56.6750   25.7410   45.5040 C   0  0  0  0  0  0  0  0  0  0  0  0
   55.5870   26.1480   46.1830 N   0  0  0  0  0  0  0  0  0  0  0  0
   54.6470   25.2340   45.9850 N   0  0  0  0  0  0  0  0  0  0  0  0
   55.1770   24.2830   45.1910 C   0  0  0  0  0  0  0  0  0  0  0  0
   56.4470   24.5800   44.8640 N   0  0  0  0  0  0  0  0  0  0  0  0
   57.3870   23.7330   44.1400 C   0  0  0  0  0  0  0  0  0  0  0  0
   59.4674   31.0491   47.8119 H   0  0  0  0  0  0  0  0  0  0  0  0
   59.2041   29.8790   46.4746 H   0  0  0  0  0  0  0  0  0  0  0  0
   60.6608   30.9300   46.4746 H   0  0  0  0  0  0  0  0  0  0  0  0
   57.8514   35.2100   46.1863 H   0  0  0  0  0  0  0  0  0  0  0  0
   56.8755   34.6627   43.9636 H   0  0  0  0  0  0  0  0  0  0  0  0
   57.0948   32.3676   43.0315 H   0  0  0  0  0  0  0  0  0  0  0  0
   58.9270   30.0800   43.3720 H   0  0  0  0  0  0  0  0  0  0  0  0
   56.7743   27.4414   43.7171 H   0  0  0  0  0  0  0  0  0  0  0  0
   58.5106   27.8260   43.3959 H   0  0  0  0  0  0  0  0  0  0  0  0
   54.6416   23.3828   44.8548 H   0  0  0  0  0  0  0  0  0  0  0  0
   58.0061   23.1752   44.8581 H   0  0  0  0  0  0  0  0  0  0  0  0
   56.8309   23.0251   43.5078 H   0  0  0  0  0  0  0  0  0  0  0  0
   58.0333   24.3596   43.5078 H   0  0  0  0  0  0  0  0  0  0  0  0
  1  2  1  0
  2  3  2  0
  3  4  1  0
  3  5  1  0
  5  6  2  0
  6  7  1  0
  7  8  2  0
  8  9  1  0
  9 10  1  0
 10 11  2  0
 10 12  1  0
 12 13  1  0
 13 14  1  0
 14 15  2  0
 15 16  1  0
 16 17  2  0
 17 18  1  0
 18 19  1  0
  8  2  1  0
 18 14  1  0
  1 20  1  0
  1 21  1  0
  1 22  1  0
  5 23  1  0
  6 24  1  0
  7 25  1  0
  9 26  1  0
 12 27  1  0
 12 28  1  0
 17 29  1  0
 19 30  1  0
 19 31  1  0
 19 32  1  0
M  END
>  <UniqueID>  (49) 
40

>  <SMILES>  (49) 
Cc1c(Cl)cccc1NC(=O)CSc1nncn1C

>  <Energy>  (49) 
65.66753186492646

>  <Genealogy>  (49) 
Cc1c(Cl)cccc1NC(=O)CSc1nncn1C (3D coordinates assigned)
Cc1c(Cl)cccc1NC(=O)CSc1nncn1C (optimized conformer: 65.66753186492646 kcal/mol)

>  <smiles>  (49) 
Cc1c(Cl)cccc1NC(=O)CSc1nncn1C

>  <score_type>  (49) 
oracle

>  <origin>  (49) 
adg

>  <m_score__min__energy>  (49) 
-7.6299999999999999

>  <m_primary>  (49) 
energy

$$$$
49:0
     RDKit          3D

 71 75  0  0  1  0  0  0  0  0999 V2000
   62.0610   33.7370   50.3100 C   0  0  0  0  0  0  0  0  0  0  0  0
   60.9040   34.2100   49.7180 C   0  0  0  0  0  0  0  0  0  0  0  0
   59.6960   34.1230   50.3850 C   0  0  0  0  0  0  0  0  0  0  0  0
   59.6550   33.5640   51.6360 C   0  0  0  0  0  0  0  0  0  0  0  0
   58.3700   33.4530   52.3890 C   0  0  0  0  0  0  0  0  0  0  0  0
   57.7200   32.1100   52.1470 C   0  0  0  0  0  0  0  0  0  0  0  0
   58.3300   31.2920   51.1870 N   0  0  0  0  0  0  0  0  0  0  0  0
   58.9600   30.1220   51.5830 C   0  0  0  0  0  0  0  0  0  0  0  0
   59.7850   29.4060   50.5810 C   0  0  0  0  0  0  0  0  0  0  0  0
   59.1510   29.4870   49.2140 C   0  0  0  0  0  0  0  0  0  0  0  0
   56.5650   29.7270   45.2130 N   0  0  0  0  0  0  0  0  0  0  0  0
   57.6940   29.2280   45.5190 C   0  0  0  0  0  0  0  0  0  0  0  0
   60.1180   28.1080   46.0090 N   0  0  0  0  0  0  0  0  0  0  0  0
   59.6070   28.0110   44.7720 C   0  0  0  0  0  0  0  0  0  0  0  0
   58.3790   28.5700   44.4920 C   0  0  0  0  0  0  0  0  0  0  0  0
   59.4730   28.7360   47.0070 C   0  0  0  0  0  0  0  0  0  0  0  0
   59.9160   28.8470   48.1970 N   0  0  0  0  0  0  0  0  0  0  0  0
   56.4700   30.5760   44.0430 C   0  0  0  0  0  0  0  0  0  0  0  0
   57.3640   31.7520   44.3470 C   0  0  0  0  0  0  0  0  0  0  0  0
   58.0970   32.5100   43.4560 C   0  0  0  0  0  0  0  0  0  0  0  0
   58.7570   33.4520   44.1630 N   0  0  0  0  0  0  0  0  0  0  0  0
   58.4650   33.3130   45.4590 N   0  0  0  0  0  0  0  0  0  0  0  0
   58.9780   34.1280   46.5140 C   0  0  0  0  0  0  0  0  0  0  0  0
   60.3980   34.5890   46.2740 C   0  0  0  0  0  0  0  0  0  0  0  0
   61.3690   33.5450   46.6460 C   0  0  0  0  0  0  0  0  0  0  0  0
   62.6960   33.9200   46.8010 C   0  0  0  0  0  0  0  0  0  0  0  0
   63.6750   32.9900   47.1500 C   0  0  0  0  0  0  0  0  0  0  0  0
   63.3190   31.6590   47.3480 C   0  0  0  0  0  0  0  0  0  0  0  0
   61.9970   31.2770   47.1970 C   0  0  0  0  0  0  0  0  0  0  0  0
   61.0450   32.2210   46.8490 C   0  0  0  0  0  0  0  0  0  0  0  0
   57.6090   32.2770   45.6190 C   0  0  0  0  0  0  0  0  0  0  0  0
   58.2660   29.2860   46.7340 N   0  0  0  0  0  0  0  0  0  0  0  0
   59.1590   30.9930   48.8890 C   0  0  0  0  0  0  0  0  0  0  0  0
   58.1430   31.5930   49.8340 C   0  0  0  0  0  0  0  0  0  0  0  0
   60.8020   33.0730   52.2710 C   0  0  0  0  0  0  0  0  0  0  0  0
   62.0010   33.1700   51.5850 C   0  0  0  0  0  0  0  0  0  0  0  0
   63.0224   33.8069   49.7800 H   0  0  0  0  0  0  0  0  0  0  0  0
   60.9450   34.6567   48.7136 H   0  0  0  0  0  0  0  0  0  0  0  0
   58.7752   34.4994   49.9155 H   0  0  0  0  0  0  0  0  0  0  0  0
   58.5712   33.5677   53.4644 H   0  0  0  0  0  0  0  0  0  0  0  0
   57.6880   34.2426   52.0405 H   0  0  0  0  0  0  0  0  0  0  0  0
   57.7159   31.5623   53.1009 H   0  0  0  0  0  0  0  0  0  0  0  0
   56.7191   32.3345   51.7496 H   0  0  0  0  0  0  0  0  0  0  0  0
   59.6167   30.3735   52.4288 H   0  0  0  0  0  0  0  0  0  0  0  0
   58.1370   29.4283   51.8097 H   0  0  0  0  0  0  0  0  0  0  0  0
   60.7849   29.8629   50.5432 H   0  0  0  0  0  0  0  0  0  0  0  0
   59.8602   28.3485   50.8745 H   0  0  0  0  0  0  0  0  0  0  0  0
   58.1646   29.0006   49.2335 H   0  0  0  0  0  0  0  0  0  0  0  0
   61.0460   27.6930   46.2190 H   0  0  0  0  0  0  0  0  0  0  0  0
   60.1669   27.4866   43.9836 H   0  0  0  0  0  0  0  0  0  0  0  0
   57.9468   28.5003   43.4829 H   0  0  0  0  0  0  0  0  0  0  0  0
   56.8221   30.0428   43.1476 H   0  0  0  0  0  0  0  0  0  0  0  0
   55.4344   30.8840   43.8364 H   0  0  0  0  0  0  0  0  0  0  0  0
   58.1363   32.3713   42.3655 H   0  0  0  0  0  0  0  0  0  0  0  0
   58.3349   35.0147   46.6150 H   0  0  0  0  0  0  0  0  0  0  0  0
   58.9833   33.5151   47.4274 H   0  0  0  0  0  0  0  0  0  0  0  0
   60.5214   34.8298   45.2078 H   0  0  0  0  0  0  0  0  0  0  0  0
   60.5855   35.4759   46.8970 H   0  0  0  0  0  0  0  0  0  0  0  0
   62.9813   34.9709   46.6456 H   0  0  0  0  0  0  0  0  0  0  0  0
   64.7219   33.3064   47.2681 H   0  0  0  0  0  0  0  0  0  0  0  0
   64.0825   30.9162   47.6224 H   0  0  0  0  0  0  0  0  0  0  0  0
   61.7038   30.2283   47.3527 H   0  0  0  0  0  0  0  0  0  0  0  0
   59.9982   31.9042   46.7311 H   0  0  0  0  0  0  0  0  0  0  0  0
   57.1867   31.9169   46.5687 H   0  0  0  0  0  0  0  0  0  0  0  0
   57.7300   29.7890   47.4950 H   0  0  0  0  0  0  0  0  0  0  0  0
   60.1557   31.4232   49.0664 H   0  0  0  0  0  0  0  0  0  0  0  0
   58.9171   31.1933   47.8348 H   0  0  0  0  0  0  0  0  0  0  0  0
   58.1796   32.6866   49.7216 H   0  0  0  0  0  0  0  0  0  0  0  0
   57.1742   31.1518   49.5568 H   0  0  0  0  0  0  0  0  0  0  0  0
   60.7527   32.6276   53.2756 H   0  0  0  0  0  0  0  0  0  0  0  0
   62.9228   32.7937   52.0527 H   0  0  0  0  0  0  0  0  0  0  0  0
  1  2  2  0
  2  3  1  0
  3  4  2  0
  4  5  1  0
  5  6  1  0
  6  7  1  0
  7  8  1  0
  8  9  1  0
  9 10  1  0
 10 11  1  0
 11 12  2  0
 12 13  1  0
 13 14  1  0
 14 15  2  0
 15 16  1  0
 16 17  2  0
 17 18  1  0
 18 19  1  0
 19 20  1  0
 20 21  2  0
 21 22  1  0
 22 23  1  0
 23 24  1  0
 24 25  1  0
 25 26  2  0
 26 27  1  0
 27 28  2  0
 28 29  1  0
 29 30  2  0
 22 31  1  0
 16 32  1  0
 10 33  1  0
 33 34  1  0
  4 35  1  0
 35 36  2  0
 36  1  1  0
 34  7  1  0
 32 12  1  0
 31 19  2  0
 30 25  1  0
  1 37  1  0
  2 38  1  0
  3 39  1  0
  5 40  1  0
  5 41  1  0
  6 42  1  0
  6 43  1  0
  8 44  1  0
  8 45  1  0
  9 46  1  0
  9 47  1  0
 10 48  1  0
 13 49  1  0
 14 50  1  0
 15 51  1  0
 18 52  1  0
 18 53  1  0
 20 54  1  0
 23 55  1  0
 23 56  1  0
 24 57  1  0
 24 58  1  0
 26 59  1  0
 27 60  1  0
 28 61  1  0
 29 62  1  0
 30 63  1  0
 31 64  1  0
 32 65  1  0
 33 66  1  0
 33 67  1  0
 34 68  1  0
 34 69  1  0
 35 70  1  0
 36 71  1  0
M  END
>  <smiles>  (50) 
c1ccc(CCN2CCC(N=c3[nH]ccc(=NCc4cnn(CCc5ccccc5)c4)[nH]3)CC2)cc1

>  <score_type>  (50) 
oracle

>  <origin>  (50) 
adg

>  <m_score__min__energy>  (50) 
-9.7699999999999996

>  <m_primary>  (50) 
energy

$$$$
50:0
     RDKit          3D

 21 22  0  0  0  0  0  0  0  0999 V2000
   60.7850   30.1500   46.9190 C   0  0  0  0  0  0  0  0  0  0  0  0
   59.4720   29.7800   46.3610 N   0  0  0  0  0  0  0  0  0  0  0  0
   58.7350   30.7150   45.6700 C   0  0  0  0  0  0  0  0  0  0  0  0
   59.1640   31.8850   45.4790 O   0  0  0  0  0  0  0  0  0  0  0  0
   57.4920   30.3440   45.1900 C   0  0  0  0  0  0  0  0  0  0  0  0
   56.5980   31.0810   44.5060 N   0  0  0  0  0  0  0  0  0  0  0  0
   55.5690   30.2090   44.3290 C   0  0  0  0  0  0  0  0  0  0  0  0
   55.7930   28.9890   44.8740 N   0  0  0  0  0  0  0  0  0  0  0  0
   57.0170   29.1010   45.4100 C   0  0  0  0  0  0  0  0  0  0  0  0
   57.7160   28.1590   46.1010 N   0  0  0  0  0  0  0  0  0  0  0  0
   57.1310   26.8320   46.3370 C   0  0  0  0  0  0  0  0  0  0  0  0
   58.9510   28.5180   46.6020 C   0  0  0  0  0  0  0  0  0  0  0  0
   59.6120   27.6900   47.2900 O   0  0  0  0  0  0  0  0  0  0  0  0
   60.7337   30.1355   48.0177 H   0  0  0  0  0  0  0  0  0  0  0  0
   61.5442   29.4308   46.5779 H   0  0  0  0  0  0  0  0  0  0  0  0
   61.0570   31.1598   46.5779 H   0  0  0  0  0  0  0  0  0  0  0  0
   54.6436   30.4695   43.7945 H   0  0  0  0  0  0  0  0  0  0  0  0
   55.1490   28.1670   44.8770 H   0  0  0  0  0  0  0  0  0  0  0  0
   57.0522   26.6533   47.4195 H   0  0  0  0  0  0  0  0  0  0  0  0
   56.1296   26.7869   45.8841 H   0  0  0  0  0  0  0  0  0  0  0  0
   57.7732   26.0623   45.8841 H   0  0  0  0  0  0  0  0  0  0  0  0
  1  2  1  0
  2  3  1  0
  3  4  2  0
  3  5  1  0
  5  6  1  0
  6  7  2  0
  7  8  1  0
  8  9  1  0
  9 10  1  0
 10 11  1  0
 10 12  1  0
 12 13  2  0
 12  2  1  0
  9  5  2  0
  1 14  1  0
  1 15  1  0
  1 16  1  0
  7 17  1  0
  8 18  1  0
 11 19  1  0
 11 20  1  0
 11 21  1  0
M  END
>  <UniqueID>  (51) 
41

>  <SMILES>  (51) 
Cn1c(=O)c2nc[nH]c2n(C)c1=O

>  <Energy>  (51) 
65.78107066232727

>  <Genealogy>  (51) 
Cn1c(=O)c2nc[nH]c2n(C)c1=O (3D coordinates assigned)
Cn1c(=O)c2nc[nH]c2n(C)c1=O (optimized conformer: 65.78107066232727 kcal/mol)

>  <smiles>  (51) 
Cn1c(=O)c2nc[nH]c2n(C)c1=O

>  <score_type>  (51) 
oracle

>  <origin>  (51) 
adg

>  <m_score__min__energy>  (51) 
-4.6600000000000001

>  <m_primary>  (51) 
energy

$$$$
51:0
     RDKit          3D

 54 57  0  0  0  0  0  0  0  0999 V2000
   56.6810   33.9720   45.4380 O   0  0  0  0  0  0  0  0  0  0  0  0
   57.6150   33.1770   45.1460 C   0  0  0  0  0  0  0  0  0  0  0  0
   58.9250   33.6820   44.8480 N   0  0  0  0  0  0  0  0  0  0  0  0
   59.2470   35.1060   44.9000 C   0  0  0  0  0  0  0  0  0  0  0  0
   59.9890   35.4390   46.1980 C   0  0  0  0  0  0  0  0  0  0  0  0
   60.0300   34.2400   47.1060 C   0  0  0  0  0  0  0  0  0  0  0  0
   61.2060   33.4840   47.2290 C   0  0  0  0  0  0  0  0  0  0  0  0
   61.2540   32.3880   48.0970 C   0  0  0  0  0  0  0  0  0  0  0  0
   60.1300   32.0450   48.8610 C   0  0  0  0  0  0  0  0  0  0  0  0
   60.1700   30.6520   49.9390 S   0  0  0  0  0  0  0  0  0  0  0  0
   61.5870   30.1590   50.0410 O   0  0  0  0  0  0  0  0  0  0  0  0
   59.3170   29.5460   49.3790 O   0  0  0  0  0  0  0  0  0  0  0  0
   59.5910   31.1080   51.5230 N   0  0  0  0  0  0  0  0  0  0  0  0
   59.8220   32.5480   51.7470 C   0  0  0  0  0  0  0  0  0  0  0  0
   58.8980   33.0780   52.8550 C   0  0  0  0  0  0  0  0  0  0  0  0
   57.5100   32.9290   52.5780 O   0  0  0  0  0  0  0  0  0  0  0  0
   57.2220   31.9180   51.6230 C   0  0  0  0  0  0  0  0  0  0  0  0
   58.1760   30.7140   51.7080 C   0  0  0  0  0  0  0  0  0  0  0  0
   58.9570   32.8030   48.7450 C   0  0  0  0  0  0  0  0  0  0  0  0
   58.9080   33.8980   47.8790 C   0  0  0  0  0  0  0  0  0  0  0  0
   57.3490   31.7310   45.1100 C   0  0  0  0  0  0  0  0  0  0  0  0
   58.1440   30.7310   45.6270 C   0  0  0  0  0  0  0  0  0  0  0  0
   57.5120   29.5690   45.3640 N   0  0  0  0  0  0  0  0  0  0  0  0
   57.9330   28.2300   45.6980 C   0  0  0  0  0  0  0  0  0  0  0  0
   56.9980   27.1870   45.8660 C   0  0  0  0  0  0  0  0  0  0  0  0
   57.4270   25.8960   46.1890 C   0  0  0  0  0  0  0  0  0  0  0  0
   58.7890   25.6270   46.3480 C   0  0  0  0  0  0  0  0  0  0  0  0
   59.7250   26.6500   46.1840 C   0  0  0  0  0  0  0  0  0  0  0  0
   59.3010   27.9430   45.8610 C   0  0  0  0  0  0  0  0  0  0  0  0
   56.3890   29.8550   44.7190 N   0  0  0  0  0  0  0  0  0  0  0  0
   56.2630   31.1630   44.5500 N   0  0  0  0  0  0  0  0  0  0  0  0
   59.6680   33.0200   44.5290 H   0  0  0  0  0  0  0  0  0  0  0  0
   59.8843   35.3650   44.0416 H   0  0  0  0  0  0  0  0  0  0  0  0
   58.3121   35.6846   44.8651 H   0  0  0  0  0  0  0  0  0  0  0  0
   61.0176   35.7463   45.9580 H   0  0  0  0  0  0  0  0  0  0  0  0
   59.4585   36.2548   46.7109 H   0  0  0  0  0  0  0  0  0  0  0  0
   62.0946   33.7547   46.6398 H   0  0  0  0  0  0  0  0  0  0  0  0
   62.1760   31.7939   48.1802 H   0  0  0  0  0  0  0  0  0  0  0  0
   60.8695   32.7042   52.0443 H   0  0  0  0  0  0  0  0  0  0  0  0
   59.6060   33.0911   50.8151 H   0  0  0  0  0  0  0  0  0  0  0  0
   59.1249   32.5333   53.7833 H   0  0  0  0  0  0  0  0  0  0  0  0
   59.0898   34.1580   52.9368 H   0  0  0  0  0  0  0  0  0  0  0  0
   56.1945   31.5623   51.7896 H   0  0  0  0  0  0  0  0  0  0  0  0
   57.3481   32.3650   50.6259 H   0  0  0  0  0  0  0  0  0  0  0  0
   58.0655   30.2435   52.6961 H   0  0  0  0  0  0  0  0  0  0  0  0
   57.9114   30.0156   50.9004 H   0  0  0  0  0  0  0  0  0  0  0  0
   58.0707   32.5345   49.3386 H   0  0  0  0  0  0  0  0  0  0  0  0
   57.9872   34.4948   47.8021 H   0  0  0  0  0  0  0  0  0  0  0  0
   59.1035   30.8558   46.1503 H   0  0  0  0  0  0  0  0  0  0  0  0
   55.9242   27.3908   45.7420 H   0  0  0  0  0  0  0  0  0  0  0  0
   56.6901   25.0896   46.3183 H   0  0  0  0  0  0  0  0  0  0  0  0
   59.1234   24.6103   46.6021 H   0  0  0  0  0  0  0  0  0  0  0  0
   60.7973   26.4387   46.3090 H   0  0  0  0  0  0  0  0  0  0  0  0
   60.0443   28.7437   45.7331 H   0  0  0  0  0  0  0  0  0  0  0  0
  1  2  2  0
  2  3  1  0
  3  4  1  0
  4  5  1  0
  5  6  1  0
  6  7  2  0
  7  8  1  0
  8  9  2  0
  9 10  1  0
 10 11  2  0
 10 12  2  0
 10 13  1  0
 13 14  1  0
 14 15  1  0
 15 16  1  0
 16 17  1  0
 17 18  1  0
  9 19  1  0
 19 20  2  0
  2 21  1  0
 21 22  2  0
 22 23  1  0
 23 24  1  0
 24 25  2  0
 25 26  1  0
 26 27  2  0
 27 28  1  0
 28 29  2  0
 23 30  1  0
 30 31  2  0
 20  6  1  0
 31 21  1  0
 18 13  1  0
 29 24  1  0
  3 32  1  0
  4 33  1  0
  4 34  1  0
  5 35  1  0
  5 36  1  0
  7 37  1  0
  8 38  1  0
 14 39  1  0
 14 40  1  0
 15 41  1  0
 15 42  1  0
 17 43  1  0
 17 44  1  0
 18 45  1  0
 18 46  1  0
 19 47  1  0
 20 48  1  0
 22 49  1  0
 25 50  1  0
 26 51  1  0
 27 52  1  0
 28 53  1  0
 29 54  1  0
M  END
>  <UniqueID>  (52) 
42

>  <SMILES>  (52) 
O=C(NCCc1ccc(S(=O)(=O)N2CCOCC2)cc1)c1cn(-c2ccccc2)nn1

>  <Energy>  (52) 
101.11714374833159

>  <Genealogy>  (52) 
O=C(NCCc1ccc(S(=O)(=O)N2CCOCC2)cc1)c1cn(-c2ccccc2)nn1 (3D coordinates assigned)
O=C(NCCc1ccc(S(=O)(=O)N2CCOCC2)cc1)c1cn(-c2ccccc2)nn1 (nonaromatic ring conformer: 101.11714374833159 kcal/mol)

>  <smiles>  (52) 
O=C(NCCc1ccc(S(=O)(=O)N2CCOCC2)cc1)c1cn(-c2ccccc2)nn1

>  <score_type>  (52) 
oracle

>  <origin>  (52) 
adg

>  <m_score__min__energy>  (52) 
-8.8399999999999999

>  <m_primary>  (52) 
energy

$$$$
52:0
     RDKit          3D

 39 40  0  0  0  0  0  0  0  0999 V2000
   61.3970   30.5260   48.7790 C   0  0  0  0  0  0  0  0  0  0  0  0
   61.2820   31.5450   47.7240 N   0  0  0  0  0  0  0  0  0  0  0  0
   60.2770   32.5650   48.0780 C   0  0  0  0  0  0  0  0  0  0  0  0
   59.6270   33.1130   46.8340 C   0  0  0  0  0  0  0  0  0  0  0  0
   59.7180   34.4790   46.5220 C   0  0  0  0  0  0  0  0  0  0  0  0
   59.0850   34.9830   45.3830 C   0  0  0  0  0  0  0  0  0  0  0  0
   58.3530   34.1320   44.5510 C   0  0  0  0  0  0  0  0  0  0  0  0
   58.2520   32.7650   44.8520 C   0  0  0  0  0  0  0  0  0  0  0  0
   57.4380   31.8470   43.9810 C   0  0  0  0  0  0  0  0  0  0  0  0
   56.4820   31.0990   44.7910 N   0  0  0  0  0  0  0  0  0  0  0  0
   56.5300   29.6780   44.9590 C   0  0  0  0  0  0  0  0  0  0  0  0
   55.4810   28.9890   44.8450 O   0  0  0  0  0  0  0  0  0  0  0  0
   57.8050   29.0200   45.2680 C   0  0  0  0  0  0  0  0  0  0  0  0
   58.9770   29.1190   44.5240 C   0  0  0  0  0  0  0  0  0  0  0  0
   60.0380   28.3850   45.0650 C   0  0  0  0  0  0  0  0  0  0  0  0
   59.6990   27.7140   46.2310 C   0  0  0  0  0  0  0  0  0  0  0  0
   60.7690   26.7040   47.1790 Cl  0  0  0  0  0  0  0  0  0  0  0  0
   58.0880   28.0240   46.5980 S   0  0  0  0  0  0  0  0  0  0  0  0
   58.8900   32.2610   45.9960 C   0  0  0  0  0  0  0  0  0  0  0  0
   62.8360   32.3010   47.4640 S   0  0  0  0  0  0  0  0  0  0  0  0
   63.5850   32.8240   48.9960 C   0  0  0  0  0  0  0  0  0  0  0  0
   62.6600   33.5030   46.5790 O   0  0  0  0  0  0  0  0  0  0  0  0
   63.7590   31.3320   46.7790 O   0  0  0  0  0  0  0  0  0  0  0  0
   61.3423   31.0110   49.7648 H   0  0  0  0  0  0  0  0  0  0  0  0
   60.5749   29.8018   48.6805 H   0  0  0  0  0  0  0  0  0  0  0  0
   62.3598   30.0033   48.6805 H   0  0  0  0  0  0  0  0  0  0  0  0
   59.5077   32.1093   48.7187 H   0  0  0  0  0  0  0  0  0  0  0  0
   60.7748   33.3870   48.6132 H   0  0  0  0  0  0  0  0  0  0  0  0
   60.2892   35.1542   47.1761 H   0  0  0  0  0  0  0  0  0  0  0  0
   59.1632   36.0531   45.1405 H   0  0  0  0  0  0  0  0  0  0  0  0
   57.8543   34.5348   43.6571 H   0  0  0  0  0  0  0  0  0  0  0  0
   56.8932   32.4433   43.2343 H   0  0  0  0  0  0  0  0  0  0  0  0
   58.1126   31.1390   43.4773 H   0  0  0  0  0  0  0  0  0  0  0  0
   59.0607   29.7146   43.6030 H   0  0  0  0  0  0  0  0  0  0  0  0
   61.0395   28.3440   44.6118 H   0  0  0  0  0  0  0  0  0  0  0  0
   58.8121   31.1907   46.2378 H   0  0  0  0  0  0  0  0  0  0  0  0
   63.0086   32.4216   49.8421 H   0  0  0  0  0  0  0  0  0  0  0  0
   64.6183   32.4501   49.0454 H   0  0  0  0  0  0  0  0  0  0  0  0
   63.5899   33.9229   49.0454 H   0  0  0  0  0  0  0  0  0  0  0  0
  1  2  1  0
  2  3  1  0
  3  4  1  0
  4  5  2  0
  5  6  1  0
  6  7  2  0
  7  8  1  0
  8  9  1  0
  9 10  1  0
 10 11  1  0
 11 12  2  0
 11 13  1  0
 13 14  2  0
 14 15  1  0
 15 16  2  0
 16 17  1  0
 16 18  1  0
  8 19  2  0
  2 20  1  0
 20 21  1  0
 20 22  2  0
 20 23  2  0
 19  4  1  0
 18 13  1  0
  1 24  1  0
  1 25  1  0
  1 26  1  0
  3 27  1  0
  3 28  1  0
  5 29  1  0
  6 30  1  0
  7 31  1  0
  9 32  1  0
  9 33  1  0
 14 34  1  0
 15 35  1  0
 19 36  1  0
 21 37  1  0
 21 38  1  0
 21 39  1  0
M  CHG  1  10  -1
M  END
>  <UniqueID>  (53) 
43

>  <SMILES>  (53) 
CN(Cc1cccc(C[N-]C(=O)c2ccc(Cl)s2)c1)S(C)(=O)=O

>  <Energy>  (53) 
55.84023588346703

>  <Genealogy>  (53) 
CN(Cc1cccc(C[N-]C(=O)c2ccc(Cl)s2)c1)S(C)(=O)=O (protonated)
CN(Cc1cccc(C[N-]C(=O)c2ccc(Cl)s2)c1)S(C)(=O)=O (3D coordinates assigned)
CN(Cc1cccc(C[N-]C(=O)c2ccc(Cl)s2)c1)S(C)(=O)=O (optimized conformer: 55.84023588346703 kcal/mol)

>  <smiles>  (53) 
CN(Cc1cccc(CNC(=O)c2ccc(Cl)s2)c1)S(C)(=O)=O

>  <score_type>  (53) 
oracle

>  <origin>  (53) 
adg

>  <m_score__min__energy>  (53) 
-9.7899999999999991

>  <m_primary>  (53) 
energy

$$$$
53:0
     RDKit          3D

 45 47  0  0  0  0  0  0  0  0999 V2000
   59.3320   33.3850   49.8530 C   0  0  0  0  0  0  0  0  0  0  0  0
   60.0150   33.6000   48.5380 C   0  0  0  0  0  0  0  0  0  0  0  0
   59.3680   33.9090   47.3560 C   0  0  0  0  0  0  0  0  0  0  0  0
   60.3500   34.0430   46.3920 C   0  0  0  0  0  0  0  0  0  0  0  0
   61.5580   33.8300   47.0300 C   0  0  0  0  0  0  0  0  0  0  0  0
   62.8990   33.8590   46.3630 C   0  0  0  0  0  0  0  0  0  0  0  0
   61.3530   33.5620   48.3380 N   0  0  0  0  0  0  0  0  0  0  0  0
   62.3620   33.2700   49.3180 C   0  0  0  0  0  0  0  0  0  0  0  0
   62.9410   34.3220   50.0450 C   0  0  0  0  0  0  0  0  0  0  0  0
   63.9390   34.0640   50.9850 C   0  0  0  0  0  0  0  0  0  0  0  0
   64.3630   32.7540   51.2130 C   0  0  0  0  0  0  0  0  0  0  0  0
   63.7910   31.6970   50.5000 C   0  0  0  0  0  0  0  0  0  0  0  0
   62.7930   31.9450   49.5400 C   0  0  0  0  0  0  0  0  0  0  0  0
   62.1610   30.8560   48.8470 N   0  0  0  0  0  0  0  0  0  0  0  0
   61.3090   29.8960   49.4850 C   0  0  0  0  0  0  0  0  0  0  0  0
   61.1510   29.9150   50.7360 O   0  0  0  0  0  0  0  0  0  0  0  0
   60.6330   28.9210   48.6830 N   0  0  0  0  0  0  0  0  0  0  0  0
   59.6340   29.1800   47.6870 C   0  0  0  0  0  0  0  0  0  0  0  0
   58.7560   28.1800   47.2320 C   0  0  0  0  0  0  0  0  0  0  0  0
   57.8100   28.4690   46.2440 C   0  0  0  0  0  0  0  0  0  0  0  0
   57.7410   29.7520   45.6850 C   0  0  0  0  0  0  0  0  0  0  0  0
   56.5400   30.1140   44.4520 S   0  0  0  0  0  0  0  0  0  0  0  0
   55.1470   29.1230   44.7020 N   0  0  0  0  0  0  0  0  0  0  0  0
   57.1140   29.8420   43.0900 O   0  0  0  0  0  0  0  0  0  0  0  0
   56.1450   31.5620   44.5300 O   0  0  0  0  0  0  0  0  0  0  0  0
   58.6270   30.7450   46.1250 C   0  0  0  0  0  0  0  0  0  0  0  0
   59.5740   30.4560   47.1120 C   0  0  0  0  0  0  0  0  0  0  0  0
   60.0335   33.6058   50.6710 H   0  0  0  0  0  0  0  0  0  0  0  0
   58.4607   34.0523   49.9270 H   0  0  0  0  0  0  0  0  0  0  0  0
   59.0000   32.3389   49.9270 H   0  0  0  0  0  0  0  0  0  0  0  0
   58.2839   34.0255   47.2108 H   0  0  0  0  0  0  0  0  0  0  0  0
   60.1998   34.2737   45.3270 H   0  0  0  0  0  0  0  0  0  0  0  0
   63.6889   33.8761   47.1284 H   0  0  0  0  0  0  0  0  0  0  0  0
   63.0158   32.9632   45.7354 H   0  0  0  0  0  0  0  0  0  0  0  0
   62.9770   34.7590   45.7354 H   0  0  0  0  0  0  0  0  0  0  0  0
   62.6060   35.3554   49.8726 H   0  0  0  0  0  0  0  0  0  0  0  0
   64.3922   34.8939   51.5471 H   0  0  0  0  0  0  0  0  0  0  0  0
   65.1492   32.5531   51.9556 H   0  0  0  0  0  0  0  0  0  0  0  0
   64.1228   30.6657   50.6904 H   0  0  0  0  0  0  0  0  0  0  0  0
   62.4120   30.6870   47.8470 H   0  0  0  0  0  0  0  0  0  0  0  0
   58.8138   27.1663   47.6552 H   0  0  0  0  0  0  0  0  0  0  0  0
   57.1167   27.6856   45.9039 H   0  0  0  0  0  0  0  0  0  0  0  0
   54.7390   29.3970   45.6250 H   0  0  0  0  0  0  0  0  0  0  0  0
   58.5770   31.7551   45.6923 H   0  0  0  0  0  0  0  0  0  0  0  0
   60.2770   31.2361   47.4394 H   0  0  0  0  0  0  0  0  0  0  0  0
  1  2  1  0
  2  3  2  0
  3  4  1  0
  4  5  2  0
  5  6  1  0
  5  7  1  0
  7  8  1  0
  8  9  2  0
  9 10  1  0
 10 11  2  0
 11 12  1  0
 12 13  2  0
 13 14  1  0
 14 15  1  0
 15 16  2  0
 15 17  1  0
 17 18  1  0
 18 19  2  0
 19 20  1  0
 20 21  2  0
 21 22  1  0
 22 23  1  0
 22 24  2  0
 22 25  2  0
 21 26  1  0
 26 27  2  0
  7  2  1  0
 13  8  1  0
 27 18  1  0
  1 28  1  0
  1 29  1  0
  1 30  1  0
  3 31  1  0
  4 32  1  0
  6 33  1  0
  6 34  1  0
  6 35  1  0
  9 36  1  0
 10 37  1  0
 11 38  1  0
 12 39  1  0
 14 40  1  0
 19 41  1  0
 20 42  1  0
 23 43  1  0
 26 44  1  0
 27 45  1  0
M  CHG  2  17  -1  23  -1
M  END
>  <UniqueID>  (54) 
44

>  <SMILES>  (54) 
Cc1ccc(C)n1-c1ccccc1NC(=O)[N-]c1ccc(S([NH-])(=O)=O)cc1

>  <Energy>  (54) 
83.91183069920672

>  <Genealogy>  (54) 
Cc1ccc(C)n1-c1ccccc1NC(=O)[N-]c1ccc(S([NH-])(=O)=O)cc1 (protonated)
Cc1ccc(C)n1-c1ccccc1NC(=O)[N-]c1ccc(S([NH-])(=O)=O)cc1 (3D coordinates assigned)
Cc1ccc(C)n1-c1ccccc1NC(=O)[N-]c1ccc(S([NH-])(=O)=O)cc1 (optimized conformer: 83.91183069920672 kcal/mol)

>  <smiles>  (54) 
Cc1ccc(C)n1-c1ccccc1NC(=O)Nc1ccc(S(N)(=O)=O)cc1

>  <score_type>  (54) 
oracle

>  <origin>  (54) 
adg

>  <m_score__min__energy>  (54) 
-11.94

>  <m_primary>  (54) 
energy

$$$$
54:0
     RDKit          3D

 49 50  0  0  0  0  0  0  0  0999 V2000
   62.4920   33.7130   50.2720 C   0  0  0  0  0  0  0  0  0  0  0  0
   62.0860   34.5590   49.2020 O   0  0  0  0  0  0  0  0  0  0  0  0
   61.0820   34.2400   48.2740 C   0  0  0  0  0  0  0  0  0  0  0  0
   59.7170   34.2360   48.6210 C   0  0  0  0  0  0  0  0  0  0  0  0
   58.7480   33.9090   47.6720 C   0  0  0  0  0  0  0  0  0  0  0  0
   59.1210   33.5840   46.3640 C   0  0  0  0  0  0  0  0  0  0  0  0
   57.8910   33.1490   45.1730 S   0  0  0  0  0  0  0  0  0  0  0  0
   58.4770   33.2580   43.7920 O   0  0  0  0  0  0  0  0  0  0  0  0
   56.7510   34.1240   45.2690 O   0  0  0  0  0  0  0  0  0  0  0  0
   57.2840   31.5270   45.4340 N   0  0  0  0  0  0  0  0  0  0  0  0
   58.2850   30.7420   46.1690 C   0  0  0  0  0  0  0  0  0  0  0  0
   56.9550   30.8770   44.1530 C   0  0  0  0  0  0  0  0  0  0  0  0
   55.9190   29.8030   44.3530 C   0  0  0  0  0  0  0  0  0  0  0  0
   54.8100   29.9050   43.7650 O   0  0  0  0  0  0  0  0  0  0  0  0
   56.1150   28.7080   45.2600 N   0  0  0  0  0  0  0  0  0  0  0  0
   57.2030   27.7350   45.2140 C   0  0  0  0  0  0  0  0  0  0  0  0
   57.5940   27.2790   46.5870 C   0  0  0  0  0  0  0  0  0  0  0  0
   58.5210   27.8820   47.1910 O   0  0  0  0  0  0  0  0  0  0  0  0
   57.0490   26.0640   47.1210 N   0  0  0  0  0  0  0  0  0  0  0  0
   56.4500   25.0830   46.5010 C   0  0  0  0  0  0  0  0  0  0  0  0
   57.1480   23.9260   46.3350 N   0  0  0  0  0  0  0  0  0  0  0  0
   56.6270   22.8370   45.7090 C   0  0  0  0  0  0  0  0  0  0  0  0
   55.3310   22.8780   45.2020 C   0  0  0  0  0  0  0  0  0  0  0  0
   54.5890   24.0500   45.3270 C   0  0  0  0  0  0  0  0  0  0  0  0
   55.1390   25.1700   45.9590 C   0  0  0  0  0  0  0  0  0  0  0  0
   54.3930   26.3420   45.9830 O   0  0  0  0  0  0  0  0  0  0  0  0
   60.4760   33.5960   46.0090 C   0  0  0  0  0  0  0  0  0  0  0  0
   61.4630   33.9160   46.9620 C   0  0  0  0  0  0  0  0  0  0  0  0
   62.8310   33.9230   46.6440 O   0  0  0  0  0  0  0  0  0  0  0  0
   63.7690   32.9510   47.0960 C   0  0  0  0  0  0  0  0  0  0  0  0
   62.2592   34.1980   51.2315 H   0  0  0  0  0  0  0  0  0  0  0  0
   61.9556   32.7550   50.2058 H   0  0  0  0  0  0  0  0  0  0  0  0
   63.5750   33.5322   50.2058 H   0  0  0  0  0  0  0  0  0  0  0  0
   59.4130   34.4923   49.6466 H   0  0  0  0  0  0  0  0  0  0  0  0
   57.6848   33.9068   47.9542 H   0  0  0  0  0  0  0  0  0  0  0  0
   58.1266   30.8663   47.2504 H   0  0  0  0  0  0  0  0  0  0  0  0
   58.1847   29.6793   45.9034 H   0  0  0  0  0  0  0  0  0  0  0  0
   59.2932   31.0927   45.9034 H   0  0  0  0  0  0  0  0  0  0  0  0
   56.5631   31.6316   43.4552 H   0  0  0  0  0  0  0  0  0  0  0  0
   57.8671   30.4175   43.7446 H   0  0  0  0  0  0  0  0  0  0  0  0
   56.8776   26.8631   44.6275 H   0  0  0  0  0  0  0  0  0  0  0  0
   58.0761   28.2170   44.7500 H   0  0  0  0  0  0  0  0  0  0  0  0
   57.2299   21.9231   45.6031 H   0  0  0  0  0  0  0  0  0  0  0  0
   54.8982   21.9953   44.7086 H   0  0  0  0  0  0  0  0  0  0  0  0
   53.5654   24.0950   44.9267 H   0  0  0  0  0  0  0  0  0  0  0  0
   60.7718   33.3536   44.9776 H   0  0  0  0  0  0  0  0  0  0  0  0
   63.7819   32.9376   48.1958 H   0  0  0  0  0  0  0  0  0  0  0  0
   63.4784   31.9587   46.7206 H   0  0  0  0  0  0  0  0  0  0  0  0
   64.7710   33.2061   46.7206 H   0  0  0  0  0  0  0  0  0  0  0  0
  1  2  1  0
  2  3  1  0
  3  4  2  0
  4  5  1  0
  5  6  2  0
  6  7  1  0
  7  8  2  0
  7  9  2  0
  7 10  1  0
 10 11  1  0
 10 12  1  0
 12 13  1  0
 13 14  2  0
 13 15  1  0
 15 16  1  0
 16 17  1  0
 17 18  2  0
 17 19  1  0
 19 20  2  3
 20 21  1  0
 21 22  1  0
 22 23  2  0
 23 24  1  0
 24 25  2  0
 25 26  1  0
  6 27  1  0
 27 28  2  0
 28 29  1  0
 29 30  1  0
 28  3  1  0
 25 20  1  0
  1 31  1  0
  1 32  1  0
  1 33  1  0
  4 34  1  0
  5 35  1  0
 11 36  1  0
 11 37  1  0
 11 38  1  0
 12 39  1  0
 12 40  1  0
 16 41  1  0
 16 42  1  0
 22 43  1  0
 23 44  1  0
 24 45  1  0
 27 46  1  0
 30 47  1  0
 30 48  1  0
 30 49  1  0
M  CHG  3  15  -1  21  -1  26  -1
M  END
>  <UniqueID>  (55) 
45

>  <SMILES>  (55) 
COc1ccc(S(=O)(=O)N(C)CC(=O)[N-]CC(=O)N=c2[n-]cccc2[O-])cc1OC

>  <Energy>  (55) 
54.574042862578295

>  <Genealogy>  (55) 
COc1ccc(S(=O)(=O)N(C)CC(=O)[N-]CC(=O)N=c2[n-]cccc2[O-])cc1OC (protonated)
COc1ccc(S(=O)(=O)N(C)CC(=O)[N-]CC(=O)N=c2[n-]cccc2[O-])cc1OC (3D coordinates assigned)
COc1ccc(S(=O)(=O)N(C)CC(=O)[N-]CC(=O)N=c2[n-]cccc2[O-])cc1OC (optimized conformer: 54.574042862578295 kcal/mol)

>  <smiles>  (55) 
COc1ccc(S(=O)(=O)N(C)CC(=O)NCC(=O)N=c2[nH]cccc2O)cc1OC

>  <score_type>  (55) 
oracle

>  <origin>  (55) 
adg

>  <m_score__min__energy>  (55) 
-15.44

>  <m_primary>  (55) 
energy

$$$$
55:0
     RDKit          3D

 55 59  0  0  0  0  0  0  0  0999 V2000
   58.3240   30.0590   53.3190 N   0  0  0  0  0  0  0  0  0  0  0  0
   58.9600   28.9410   52.7040 C   0  0  0  0  0  0  0  0  0  0  0  0
   58.6720   27.7780   53.0880 O   0  0  0  0  0  0  0  0  0  0  0  0
   59.9480   29.1720   51.6370 C   0  0  0  0  0  0  0  0  0  0  0  0
   60.3810   28.2120   50.8470 O   0  0  0  0  0  0  0  0  0  0  0  0
   61.2230   28.6600   49.9590 N   0  0  0  0  0  0  0  0  0  0  0  0
   61.3650   29.9800   50.1800 C   0  0  0  0  0  0  0  0  0  0  0  0
   62.1390   30.8780   49.3090 C   0  0  0  0  0  0  0  0  0  0  0  0
   63.2520   31.5800   49.8130 C   0  0  0  0  0  0  0  0  0  0  0  0
   63.7970   31.3640   51.4730 Cl  0  0  0  0  0  0  0  0  0  0  0  0
   63.9540   32.4620   48.9830 C   0  0  0  0  0  0  0  0  0  0  0  0
   63.5510   32.6580   47.6610 C   0  0  0  0  0  0  0  0  0  0  0  0
   62.4460   31.9700   47.1590 C   0  0  0  0  0  0  0  0  0  0  0  0
   61.7410   31.0750   47.9710 C   0  0  0  0  0  0  0  0  0  0  0  0
   60.3330   30.2570   47.3060 Cl  0  0  0  0  0  0  0  0  0  0  0  0
   60.5700   30.3520   51.2480 C   0  0  0  0  0  0  0  0  0  0  0  0
   60.3600   31.6920   51.7350 N   0  0  0  0  0  0  0  0  0  0  0  0
   60.1300   32.5890   50.6340 C   0  0  0  0  0  0  0  0  0  0  0  0
   59.0380   32.4060   49.7700 C   0  0  0  0  0  0  0  0  0  0  0  0
   58.8800   33.2580   48.6740 C   0  0  0  0  0  0  0  0  0  0  0  0
   59.7980   34.2890   48.4550 C   0  0  0  0  0  0  0  0  0  0  0  0
   59.6190   35.3730   47.0380 S   0  0  0  0  0  0  0  0  0  0  0  0
   58.8820   34.0880   46.0280 C   0  0  0  0  0  0  0  0  0  0  0  0
   57.5480   34.1790   45.6240 C   0  0  0  0  0  0  0  0  0  0  0  0
   56.9820   33.1580   44.8590 C   0  0  0  0  0  0  0  0  0  0  0  0
   57.7690   32.0560   44.4900 C   0  0  0  0  0  0  0  0  0  0  0  0
   57.1740   30.9050   43.7310 C   0  0  0  0  0  0  0  0  0  0  0  0
   57.3800   29.6540   44.4790 N   0  0  0  0  0  0  0  0  0  0  0  0
   58.6460   29.1540   44.6010 C   0  0  0  0  0  0  0  0  0  0  0  0
   58.8690   27.9380   45.2460 C   0  0  0  0  0  0  0  0  0  0  0  0
   60.1250   27.4400   45.3570 F   0  0  0  0  0  0  0  0  0  0  0  0
   57.7740   27.2450   45.7560 C   0  0  0  0  0  0  0  0  0  0  0  0
   57.9350   26.1400   46.3380 O   0  0  0  0  0  0  0  0  0  0  0  0
   56.5280   27.7620   45.6210 N   0  0  0  0  0  0  0  0  0  0  0  0
   56.3200   28.9480   44.9900 C   0  0  0  0  0  0  0  0  0  0  0  0
   55.1410   29.3800   44.8760 O   0  0  0  0  0  0  0  0  0  0  0  0
   59.0670   31.9940   44.8930 N   0  0  0  0  0  0  0  0  0  0  0  0
   59.6370   32.9760   45.6410 C   0  0  0  0  0  0  0  0  0  0  0  0
   60.8560   34.4610   49.3510 C   0  0  0  0  0  0  0  0  0  0  0  0
   61.0010   33.6130   50.4040 N   0  0  0  0  0  0  0  0  0  0  0  0
   58.6510   31.0330   53.1310 H   0  0  0  0  0  0  0  0  0  0  0  0
   64.8278   33.0034   49.3746 H   0  0  0  0  0  0  0  0  0  0  0  0
   64.1048   33.3551   47.0149 H   0  0  0  0  0  0  0  0  0  0  0  0
   62.1272   32.1322   46.1188 H   0  0  0  0  0  0  0  0  0  0  0  0
   61.2140   31.9900   52.2600 H   0  0  0  0  0  0  0  0  0  0  0  0
   59.5570   31.7430   52.3980 H   0  0  0  0  0  0  0  0  0  0  0  0
   58.3136   31.5991   49.9545 H   0  0  0  0  0  0  0  0  0  0  0  0
   58.0345   33.1176   47.9845 H   0  0  0  0  0  0  0  0  0  0  0  0
   56.9446   35.0537   45.9082 H   0  0  0  0  0  0  0  0  0  0  0  0
   55.9285   33.2165   44.5480 H   0  0  0  0  0  0  0  0  0  0  0  0
   56.0959   31.0757   43.5950 H   0  0  0  0  0  0  0  0  0  0  0  0
   57.6637   30.8257   42.7492 H   0  0  0  0  0  0  0  0  0  0  0  0
   59.4964   29.7156   44.1869 H   0  0  0  0  0  0  0  0  0  0  0  0
   60.6920   32.8959   45.9418 H   0  0  0  0  0  0  0  0  0  0  0  0
   61.5722   35.2830   49.2045 H   0  0  0  0  0  0  0  0  0  0  0  0
  1  2  1  0
  2  3  2  0
  2  4  1  0
  4  5  1  0
  5  6  1  0
  6  7  2  0
  7  8  1  0
  8  9  2  0
  9 10  1  0
  9 11  1  0
 11 12  2  0
 12 13  1  0
 13 14  2  0
 14 15  1  0
  7 16  1  0
 16 17  1  0
 17 18  1  0
 18 19  2  0
 19 20  1  0
 20 21  2  0
 21 22  1  0
 22 23  1  0
 23 24  2  0
 24 25  1  0
 25 26  2  0
 26 27  1  0
 27 28  1  0
 28 29  1  0
 29 30  2  0
 30 31  1  0
 30 32  1  0
 32 33  2  0
 32 34  1  0
 34 35  1  0
 35 36  2  0
 26 37  1  0
 37 38  2  0
 21 39  1  0
 39 40  2  0
 16  4  2  0
 40 18  1  0
 14  8  1  0
 38 23  1  0
 35 28  1  0
  1 41  1  0
 11 42  1  0
 12 43  1  0
 13 44  1  0
 17 45  1  0
 17 46  1  0
 19 47  1  0
 20 48  1  0
 24 49  1  0
 25 50  1  0
 27 51  1  0
 27 52  1  0
 29 53  1  0
 38 54  1  0
 39 55  1  0
M  CHG  3   1  -1  17   1  34  -1
M  END
>  <UniqueID>  (56) 
46

>  <SMILES>  (56) 
[NH-]C(=O)c1onc(-c2c(Cl)cccc2Cl)c1[NH2+]c1ccc(Sc2ccc(Cn3cc(F)c(=O)[n-]c3=O)nc2)cn1

>  <Energy>  (56) 
94.50125958713004

>  <Genealogy>  (56) 
[NH-]C(=O)c1onc(-c2c(Cl)cccc2Cl)c1[NH2+]c1ccc(Sc2ccc(Cn3cc(F)c(=O)[n-]c3=O)nc2)cn1 (protonated)
[NH-]C(=O)c1onc(-c2c(Cl)cccc2Cl)c1[NH2+]c1ccc(Sc2ccc(Cn3cc(F)c(=O)[n-]c3=O)nc2)cn1 (3D coordinates assigned)
[NH-]C(=O)c1onc(-c2c(Cl)cccc2Cl)c1[NH2+]c1ccc(Sc2ccc(Cn3cc(F)c(=O)[n-]c3=O)nc2)cn1 (optimized conformer: 94.50125958713004 kcal/mol)

>  <smiles>  (56) 
NC(=O)c1onc(-c2c(Cl)cccc2Cl)c1Nc1ccc(Sc2ccc(Cn3cc(F)c(=O)[nH]c3=O)nc2)cn1

>  <score_type>  (56) 
oracle

>  <origin>  (56) 
adg

>  <m_score__min__energy>  (56) 
-12.26

>  <m_primary>  (56) 
energy

$$$$
56:0
     RDKit          3D

 45 46  0  0  0  0  0  0  0  0999 V2000
   53.0110   24.1270   45.1790 C   0  0  0  0  0  0  0  0  0  0  0  0
   54.2910   24.0060   45.9980 C   0  0  0  0  0  0  0  0  0  0  0  0
   55.1890   25.1740   45.7420 C   0  0  0  0  0  0  0  0  0  0  0  0
   54.7860   26.3410   45.9980 O   0  0  0  0  0  0  0  0  0  0  0  0
   56.4820   24.9620   45.1650 N   0  0  0  0  0  0  0  0  0  0  0  0
   57.7320   25.2060   45.8730 C   0  0  0  0  0  0  0  0  0  0  0  0
   58.0950   26.6580   45.7950 C   0  0  0  0  0  0  0  0  0  0  0  0
   59.2500   27.0210   46.1470 O   0  0  0  0  0  0  0  0  0  0  0  0
   57.1600   27.6090   45.2600 N   0  0  0  0  0  0  0  0  0  0  0  0
   57.3670   29.0320   45.2560 C   0  0  0  0  0  0  0  0  0  0  0  0
   56.9800   29.8290   44.1630 C   0  0  0  0  0  0  0  0  0  0  0  0
   57.2080   31.2090   44.1800 C   0  0  0  0  0  0  0  0  0  0  0  0
   57.8440   31.8050   45.2750 C   0  0  0  0  0  0  0  0  0  0  0  0
   58.0990   33.5500   45.2990 S   0  0  0  0  0  0  0  0  0  0  0  0
   56.7660   34.2420   45.2620 O   0  0  0  0  0  0  0  0  0  0  0  0
   58.8890   33.9740   44.0930 O   0  0  0  0  0  0  0  0  0  0  0  0
   58.9410   34.0110   46.7460 N   0  0  0  0  0  0  0  0  0  0  0  0
   60.2280   34.6080   46.4040 C   0  0  0  0  0  0  0  0  0  0  0  0
   61.3280   33.6570   46.7790 C   0  0  0  0  0  0  0  0  0  0  0  0
   62.6620   33.9510   46.4500 C   0  0  0  0  0  0  0  0  0  0  0  0
   63.6880   33.0800   46.8290 C   0  0  0  0  0  0  0  0  0  0  0  0
   63.3920   31.9180   47.5470 C   0  0  0  0  0  0  0  0  0  0  0  0
   62.0690   31.6280   47.8930 C   0  0  0  0  0  0  0  0  0  0  0  0
   61.0390   32.4960   47.5160 C   0  0  0  0  0  0  0  0  0  0  0  0
   58.2510   31.0110   46.3560 C   0  0  0  0  0  0  0  0  0  0  0  0
   58.0210   29.6330   46.3410 C   0  0  0  0  0  0  0  0  0  0  0  0
   52.1484   24.2085   45.8567 H   0  0  0  0  0  0  0  0  0  0  0  0
   53.0650   25.0240   44.5447 H   0  0  0  0  0  0  0  0  0  0  0  0
   52.8960   23.2357   44.5447 H   0  0  0  0  0  0  0  0  0  0  0  0
   54.0349   23.9738   47.0673 H   0  0  0  0  0  0  0  0  0  0  0  0
   54.8146   23.0839   45.7055 H   0  0  0  0  0  0  0  0  0  0  0  0
   57.6148   24.9167   46.9278 H   0  0  0  0  0  0  0  0  0  0  0  0
   58.5309   24.6104   45.4073 H   0  0  0  0  0  0  0  0  0  0  0  0
   56.3240   27.2380   44.7530 H   0  0  0  0  0  0  0  0  0  0  0  0
   56.4959   29.3648   43.2911 H   0  0  0  0  0  0  0  0  0  0  0  0
   56.8862   31.8281   43.3296 H   0  0  0  0  0  0  0  0  0  0  0  0
   60.2659   34.8066   45.3227 H   0  0  0  0  0  0  0  0  0  0  0  0
   60.3541   35.5537   46.9514 H   0  0  0  0  0  0  0  0  0  0  0  0
   62.8999   34.8690   45.8927 H   0  0  0  0  0  0  0  0  0  0  0  0
   64.7300   33.3097   46.5616 H   0  0  0  0  0  0  0  0  0  0  0  0
   64.2001   31.2316   47.8399 H   0  0  0  0  0  0  0  0  0  0  0  0
   61.8376   30.7158   48.4626 H   0  0  0  0  0  0  0  0  0  0  0  0
   60.0000   32.2692   47.7972 H   0  0  0  0  0  0  0  0  0  0  0  0
   58.7528   31.4740   47.2184 H   0  0  0  0  0  0  0  0  0  0  0  0
   58.3556   29.0147   47.1870 H   0  0  0  0  0  0  0  0  0  0  0  0
  1  2  1  0
  2  3  1  0
  3  4  2  0
  3  5  1  0
  5  6  1  0
  6  7  1  0
  7  8  2  0
  7  9  1  0
  9 10  1  0
 10 11  2  0
 11 12  1  0
 12 13  2  0
 13 14  1  0
 14 15  2  0
 14 16  2  0
 14 17  1  0
 17 18  1  0
 18 19  1  0
 19 20  2  0
 20 21  1  0
 21 22  2  0
 22 23  1  0
 23 24  2  0
 13 25  1  0
 25 26  2  0
 26 10  1  0
 24 19  1  0
  1 27  1  0
  1 28  1  0
  1 29  1  0
  2 30  1  0
  2 31  1  0
  6 32  1  0
  6 33  1  0
  9 34  1  0
 11 35  1  0
 12 36  1  0
 18 37  1  0
 18 38  1  0
 20 39  1  0
 21 40  1  0
 22 41  1  0
 23 42  1  0
 24 43  1  0
 25 44  1  0
 26 45  1  0
M  CHG  2   5  -1  17  -1
M  END
>  <UniqueID>  (57) 
47

>  <SMILES>  (57) 
CCC(=O)[N-]CC(=O)Nc1ccc(S(=O)(=O)[N-]Cc2ccccc2)cc1

>  <Energy>  (57) 
38.46999784425827

>  <Genealogy>  (57) 
CCC(=O)[N-]CC(=O)Nc1ccc(S(=O)(=O)[N-]Cc2ccccc2)cc1 (protonated)
CCC(=O)[N-]CC(=O)Nc1ccc(S(=O)(=O)[N-]Cc2ccccc2)cc1 (3D coordinates assigned)
CCC(=O)[N-]CC(=O)Nc1ccc(S(=O)(=O)[N-]Cc2ccccc2)cc1 (optimized conformer: 38.46999784425827 kcal/mol)

>  <smiles>  (57) 
CCC(=O)NCC(=O)Nc1ccc(S(=O)(=O)NCc2ccccc2)cc1

>  <score_type>  (57) 
oracle

>  <origin>  (57) 
adg

>  <m_score__min__energy>  (57) 
-11.109999999999999

>  <m_primary>  (57) 
energy

$$$$
57:0
     RDKit          3D

 50 53  0  0  0  0  0  0  0  0999 V2000
   61.0540   28.9560   45.1620 C   0  0  0  0  0  0  0  0  0  0  0  0
   60.4880   28.8600   46.5980 C   0  0  1  0  0  0  0  0  0  0  0  0
   60.2960   30.2130   47.3320 C   0  0  2  0  0  0  0  0  0  0  0  0
   59.6490   31.2650   46.3900 C   0  0  0  0  0  0  0  0  0  0  0  0
   58.4120   30.5780   45.7120 C   0  0  0  0  0  0  0  0  0  0  0  0
   57.5310   31.3570   44.9560 C   0  0  0  0  0  0  0  0  0  0  0  0
   56.3370   30.8130   44.4850 C   0  0  0  0  0  0  0  0  0  0  0  0
   55.9940   29.4920   44.7800 C   0  0  0  0  0  0  0  0  0  0  0  0
   54.7850   28.9770   44.3290 O   0  0  0  0  0  0  0  0  0  0  0  0
   56.8570   28.6850   45.5280 C   0  0  0  0  0  0  0  0  0  0  0  0
   58.0960   29.1760   45.9790 C   0  0  0  0  0  0  0  0  0  0  0  0
   59.1040   28.2280   46.7510 C   0  0  1  0  0  0  0  0  0  0  0  0
   59.1120   26.8020   46.1510 C   0  0  0  0  0  0  0  0  0  0  0  0
   58.8470   28.1480   48.3430 C   0  0  0  0  0  0  0  0  0  0  0  0
   59.9690   28.8190   49.3050 C   0  0  0  0  0  0  0  0  0  0  0  0
   60.6870   30.0490   48.7450 N   0  0  2  0  0  0  0  0  0  0  0  0
   60.4910   31.2540   49.5400 C   0  0  0  0  0  0  0  0  0  0  0  0
   59.3700   31.5740   49.9140 O   0  0  0  0  0  0  0  0  0  0  0  0
   61.6530   32.1650   49.8430 C   0  0  0  0  0  0  0  0  0  0  0  0
   62.1430   32.8140   48.5730 C   0  0  0  0  0  0  0  0  0  0  0  0
   63.4090   32.4650   48.0680 C   0  0  0  0  0  0  0  0  0  0  0  0
   63.8590   32.9920   46.8550 C   0  0  0  0  0  0  0  0  0  0  0  0
   63.0510   33.8700   46.1320 C   0  0  0  0  0  0  0  0  0  0  0  0
   61.7910   34.2230   46.6180 C   0  0  0  0  0  0  0  0  0  0  0  0
   61.3280   33.6980   47.8320 C   0  0  0  0  0  0  0  0  0  0  0  0
   59.7160   34.1520   48.3740 Cl  0  0  0  0  0  0  0  0  0  0  0  0
   62.1376   29.1398   45.2065 H   0  0  0  0  0  0  0  0  0  0  0  0
   60.8637   28.0127   44.6290 H   0  0  0  0  0  0  0  0  0  0  0  0
   60.5633   29.7837   44.6290 H   0  0  0  0  0  0  0  0  0  0  0  0
   61.2850   28.2336   47.0252 H   0  0  0  0  0  0  0  0  0  0  0  0
   59.2964   29.8927   47.6609 H   0  0  0  0  0  0  0  0  0  0  0  0
   59.3232   32.1411   46.9699 H   0  0  0  0  0  0  0  0  0  0  0  0
   60.3696   31.6087   45.6333 H   0  0  0  0  0  0  0  0  0  0  0  0
   57.7812   32.4044   44.7317 H   0  0  0  0  0  0  0  0  0  0  0  0
   55.6595   31.4295   43.8759 H   0  0  0  0  0  0  0  0  0  0  0  0
   56.5632   27.6523   45.7670 H   0  0  0  0  0  0  0  0  0  0  0  0
   59.1162   26.0618   46.9647 H   0  0  0  0  0  0  0  0  0  0  0  0
   58.2146   26.6601   45.5308 H   0  0  0  0  0  0  0  0  0  0  0  0
   60.0109   26.6702   45.5308 H   0  0  0  0  0  0  0  0  0  0  0  0
   57.8898   28.6488   48.5502 H   0  0  0  0  0  0  0  0  0  0  0  0
   58.8701   27.0747   48.5826 H   0  0  0  0  0  0  0  0  0  0  0  0
   59.4746   29.1158   50.2417 H   0  0  0  0  0  0  0  0  0  0  0  0
   60.7484   28.0528   49.4292 H   0  0  0  0  0  0  0  0  0  0  0  0
   61.7150   29.8420   48.7500 H   0  0  0  0  0  0  0  0  0  0  0  0
   61.3308   32.9441   50.5496 H   0  0  0  0  0  0  0  0  0  0  0  0
   62.4691   31.5750   50.2857 H   0  0  0  0  0  0  0  0  0  0  0  0
   64.0495   31.7717   48.6328 H   0  0  0  0  0  0  0  0  0  0  0  0
   64.8512   32.7145   46.4696 H   0  0  0  0  0  0  0  0  0  0  0  0
   63.4074   34.2847   45.1775 H   0  0  0  0  0  0  0  0  0  0  0  0
   61.1582   34.9168   46.0451 H   0  0  0  0  0  0  0  0  0  0  0  0
  1  2  1  0
  2  3  1  0
  3  4  1  0
  4  5  1  0
  5  6  2  0
  6  7  1  0
  7  8  2  0
  8  9  1  0
  8 10  1  0
 10 11  2  0
 11 12  1  0
 12 13  1  6
 12 14  1  0
 14 15  1  0
 15 16  1  0
 16 17  1  0
 17 18  2  0
 17 19  1  0
 19 20  1  0
 20 21  2  0
 21 22  1  0
 22 23  2  0
 23 24  1  0
 24 25  2  0
 25 26  1  0
 12  2  1  0
 25 20  1  0
 16  3  1  0
 11  5  1  0
  1 27  1  0
  1 28  1  0
  1 29  1  0
  2 30  1  1
  3 31  1  6
  4 32  1  0
  4 33  1  0
  6 34  1  0
  7 35  1  0
 10 36  1  0
 13 37  1  0
 13 38  1  0
 13 39  1  0
 14 40  1  0
 14 41  1  0
 15 42  1  0
 15 43  1  0
 16 44  1  6
 19 45  1  0
 19 46  1  0
 21 47  1  0
 22 48  1  0
 23 49  1  0
 24 50  1  0
M  CHG  2   9  -1  16   1
M  END
>  <UniqueID>  (58) 
48

>  <SMILES>  (58) 
C[C@H]1[C@@H]2Cc3ccc([O-])cc3C1(C)CC[NH+]2C(=O)Cc1ccccc1Cl

>  <Energy>  (58) 
195.25864928129303

>  <Genealogy>  (58) 
CC1C2Cc3ccc([O-])cc3C1(C)CC[NH+]2C(=O)Cc1ccccc1Cl (protonated)
C[C@H]1[C@@H]2Cc3ccc([O-])cc3C1(C)CC[NH+]2C(=O)Cc1ccccc1Cl (chirality)
C[C@H]1[C@@H]2Cc3ccc([O-])cc3C1(C)CC[NH+]2C(=O)Cc1ccccc1Cl (3D coordinates assigned)
C[C@H]1[C@@H]2Cc3ccc([O-])cc3C1(C)CC[NH+]2C(=O)Cc1ccccc1Cl (nonaromatic ring conformer: 195.25864928129303 kcal/mol)

>  <smiles>  (58) 
CC1C2Cc3ccc(O)cc3C1(C)CCN2C(=O)Cc1ccccc1Cl

>  <score_type>  (58) 
oracle

>  <origin>  (58) 
adg

>  <m_score__min__energy>  (58) 
-10.67

>  <m_primary>  (58) 
energy

$$$$
58:0
     RDKit          3D

 42 44  0  0  0  0  0  0  0  0999 V2000
   57.1352   31.6860   42.4208 H   0  0  0  0  0  0  0  0  0  0  0  0
   57.1850   31.4790   43.5000 C   0  0  0  0  0  0  0  0  0  0  0  0
   56.8340   30.2520   43.9110 C   0  0  0  0  0  0  0  0  0  0  0  0
   56.0359   29.7368   43.3564 H   0  0  0  0  0  0  0  0  0  0  0  0
   57.4430   29.5410   45.0570 C   0  0  0  0  0  0  0  0  0  0  0  0
   58.5100   30.1380   45.7380 C   0  0  0  0  0  0  0  0  0  0  0  0
   58.8624   31.1369   45.4415 H   0  0  0  0  0  0  0  0  0  0  0  0
   59.1290   29.4620   46.7980 C   0  0  0  0  0  0  0  0  0  0  0  0
   60.2550   30.0870   47.5380 C   0  0  0  0  0  0  0  0  0  0  0  0
   60.4820   29.7740   48.8910 C   0  0  0  0  0  0  0  0  0  0  0  0
   59.8210   29.0607   49.4050 H   0  0  0  0  0  0  0  0  0  0  0  0
   61.5430   30.3640   49.5870 C   0  0  0  0  0  0  0  0  0  0  0  0
   61.7127   30.1141   50.6447 H   0  0  0  0  0  0  0  0  0  0  0  0
   62.3870   31.2700   48.9400 C   0  0  0  0  0  0  0  0  0  0  0  0
   63.2208   31.7329   49.4882 H   0  0  0  0  0  0  0  0  0  0  0  0
   62.1720   31.5880   47.5970 C   0  0  0  0  0  0  0  0  0  0  0  0
   62.8377   32.3007   47.0882 H   0  0  0  0  0  0  0  0  0  0  0  0
   61.1120   31.0020   46.8980 C   0  0  0  0  0  0  0  0  0  0  0  0
   60.9468   31.2578   45.8410 H   0  0  0  0  0  0  0  0  0  0  0  0
   58.6690   28.1830   47.1430 C   0  0  0  0  0  0  0  0  0  0  0  0
   59.1450   27.6341   47.9689 H   0  0  0  0  0  0  0  0  0  0  0  0
   57.6070   27.6020   46.4410 C   0  0  0  0  0  0  0  0  0  0  0  0
   57.2390   26.3930   46.7670 N   0  0  0  0  0  0  0  0  0  0  0  0
   56.0660   25.6900   46.3320 C   0  0  0  0  0  0  0  0  0  0  0  0
   55.0480   26.3480   45.9910 O   0  0  0  0  0  0  0  0  0  0  0  0
   56.0590   24.2020   46.1670 C   0  0  0  0  0  0  0  0  0  0  0  0
   56.0567   23.7233   47.1574 H   0  0  0  0  0  0  0  0  0  0  0  0
   55.1594   23.8989   45.6112 H   0  0  0  0  0  0  0  0  0  0  0  0
   56.9557   23.8905   45.6112 H   0  0  0  0  0  0  0  0  0  0  0  0
   57.0310   28.2860   45.4040 N   0  0  0  0  0  0  0  0  0  0  0  0
   56.3030   27.8300   44.8130 H   0  0  0  0  0  0  0  0  0  0  0  0
   57.6340   32.5760   44.3850 C   0  0  0  0  0  0  0  0  0  0  0  0
   58.7530   33.3400   44.0140 C   0  0  0  0  0  0  0  0  0  0  0  0
   59.2585   33.1422   43.0572 H   0  0  0  0  0  0  0  0  0  0  0  0
   59.2270   34.3510   44.8560 C   0  0  0  0  0  0  0  0  0  0  0  0
   60.0921   34.9584   44.5515 H   0  0  0  0  0  0  0  0  0  0  0  0
   58.6040   34.5910   46.0830 C   0  0  0  0  0  0  0  0  0  0  0  0
   58.9769   35.3886   46.7424 H   0  0  0  0  0  0  0  0  0  0  0  0
   57.5070   33.8180   46.4730 C   0  0  0  0  0  0  0  0  0  0  0  0
   57.0230   34.0014   47.4436 H   0  0  0  0  0  0  0  0  0  0  0  0
   57.0240   32.8120   45.6310 C   0  0  0  0  0  0  0  0  0  0  0  0
   56.1635   32.2023   45.9438 H   0  0  0  0  0  0  0  0  0  0  0  0
  1  2  1  0
  2  3  2  3
  3  4  1  0
  3  5  1  0
  5  6  2  0
  6  7  1  0
  6  8  1  0
  8  9  1  0
  9 10  2  0
 10 11  1  0
 10 12  1  0
 12 13  1  0
 12 14  2  0
 14 15  1  0
 14 16  1  0
 16 17  1  0
 16 18  2  0
 18 19  1  0
  8 20  2  0
 20 21  1  0
 20 22  1  0
 22 23  2  0
 23 24  1  0
 24 25  2  0
 24 26  1  0
 26 27  1  0
 26 28  1  0
 26 29  1  0
 22 30  1  0
 30 31  1  0
  2 32  1  0
 32 33  2  0
 33 34  1  0
 33 35  1  0
 35 36  1  0
 35 37  2  0
 37 38  1  0
 37 39  1  0
 39 40  1  0
 39 41  2  0
 41 42  1  0
 30  5  1  0
 41 32  1  0
 18  9  1  0
M  END
>  <UniqueID>  (59) 
49

>  <SMILES>  (59) 
CC(=O)/N=c1/cc(-c2ccccc2)cc(C=Cc2ccccc2)[nH]1

>  <Energy>  (59) 
64.38690813426565

>  <Genealogy>  (59) 
CC(=O)/N=c1/cc(-c2ccccc2)cc(C=Cc2ccccc2)[nH]1 (cis-trans isomerization)
CC(=O)/N=c1/cc(-c2ccccc2)cc(C=Cc2ccccc2)[nH]1 (3D coordinates assigned)
CC(=O)/N=c1/cc(-c2ccccc2)cc(C=Cc2ccccc2)[nH]1 (optimized conformer: 64.38690813426565 kcal/mol)

>  <smiles>  (59) 
CC(=O)N=c1cc(-c2ccccc2)cc(C=Cc2ccccc2)[nH]1

>  <score_type>  (59) 
oracle

>  <origin>  (59) 
adg

>  <m_score__min__energy>  (59) 
-8.3000000000000007

>  <m_primary>  (59) 
energy

$$$$
59:0
     RDKit          3D

 48 50  0  0  0  0  0  0  0  0999 V2000
   55.3420   29.2200   44.8700 N   0  0  0  0  0  0  0  0  0  0  0  0
   56.6930   29.7150   43.9120 S   0  0  0  0  0  0  0  0  0  0  0  0
   56.3330   30.9400   43.1200 O   0  0  0  0  0  0  0  0  0  0  0  0
   57.0480   28.6100   42.9550 O   0  0  0  0  0  0  0  0  0  0  0  0
   58.0560   30.0760   44.9700 C   0  0  0  0  0  0  0  0  0  0  0  0
   57.9000   31.0150   45.9950 C   0  0  0  0  0  0  0  0  0  0  0  0
   58.9540   31.2780   46.8740 C   0  0  0  0  0  0  0  0  0  0  0  0
   60.1790   30.6120   46.7270 C   0  0  0  0  0  0  0  0  0  0  0  0
   61.3300   30.9320   47.6480 C   0  0  0  0  0  0  0  0  0  0  0  0
   60.9010   30.9410   49.1220 C   0  0  0  0  0  0  0  0  0  0  0  0
   59.9620   29.8600   49.4140 N   0  0  0  0  0  0  0  0  0  0  0  0
   60.3070   28.4710   49.3720 C   0  0  0  0  0  0  0  0  0  0  0  0
   61.0150   27.9750   50.2890 O   0  0  0  0  0  0  0  0  0  0  0  0
   59.8820   27.6370   48.2270 C   0  0  0  0  0  0  0  0  0  0  0  0
   60.7790   26.7310   47.6350 C   0  0  0  0  0  0  0  0  0  0  0  0
   60.3880   25.9710   46.5310 C   0  0  0  0  0  0  0  0  0  0  0  0
   59.1050   26.1060   46.0040 C   0  0  0  0  0  0  0  0  0  0  0  0
   58.1980   27.0090   46.5690 C   0  0  0  0  0  0  0  0  0  0  0  0
   56.8740   27.0770   46.0190 N   0  0  0  0  0  0  0  0  0  0  0  0
   55.9140   26.0120   45.9270 C   0  0  0  0  0  0  0  0  0  0  0  0
   54.6790   26.2700   45.9810 O   0  0  0  0  0  0  0  0  0  0  0  0
   56.3770   24.6170   45.7030 C   0  0  0  0  0  0  0  0  0  0  0  0
   56.2920   23.6730   46.7420 C   0  0  0  0  0  0  0  0  0  0  0  0
   56.7440   22.3650   46.5570 C   0  0  0  0  0  0  0  0  0  0  0  0
   57.2880   21.9800   45.3300 C   0  0  0  0  0  0  0  0  0  0  0  0
   57.3590   22.8980   44.2800 C   0  0  0  0  0  0  0  0  0  0  0  0
   56.9000   24.2080   44.4570 C   0  0  0  0  0  0  0  0  0  0  0  0
   56.9830   25.0720   43.4110 F   0  0  0  0  0  0  0  0  0  0  0  0
   58.5860   27.7620   47.6920 C   0  0  0  0  0  0  0  0  0  0  0  0
   60.3360   29.6810   45.6880 C   0  0  0  0  0  0  0  0  0  0  0  0
   59.2780   29.4070   44.8190 C   0  0  0  0  0  0  0  0  0  0  0  0
   55.5040   28.2260   45.1290 H   0  0  0  0  0  0  0  0  0  0  0  0
   56.9446   31.5481   46.1095 H   0  0  0  0  0  0  0  0  0  0  0  0
   58.8221   32.0102   47.6842 H   0  0  0  0  0  0  0  0  0  0  0  0
   62.1156   30.1743   47.5113 H   0  0  0  0  0  0  0  0  0  0  0  0
   61.6986   31.9371   47.3950 H   0  0  0  0  0  0  0  0  0  0  0  0
   61.7929   30.8201   49.7544 H   0  0  0  0  0  0  0  0  0  0  0  0
   60.4001   31.8981   49.3294 H   0  0  0  0  0  0  0  0  0  0  0  0
   61.7942   26.6202   48.0437 H   0  0  0  0  0  0  0  0  0  0  0  0
   61.0956   25.2627   46.0753 H   0  0  0  0  0  0  0  0  0  0  0  0
   58.8034   25.4985   45.1380 H   0  0  0  0  0  0  0  0  0  0  0  0
   55.8645   23.9685   47.7115 H   0  0  0  0  0  0  0  0  0  0  0  0
   56.6715   21.6372   47.3786 H   0  0  0  0  0  0  0  0  0  0  0  0
   57.6604   20.9544   45.1905 H   0  0  0  0  0  0  0  0  0  0  0  0
   57.7773   22.5902   43.3103 H   0  0  0  0  0  0  0  0  0  0  0  0
   57.8696   28.4554   48.1567 H   0  0  0  0  0  0  0  0  0  0  0  0
   61.2983   29.1643   45.5577 H   0  0  0  0  0  0  0  0  0  0  0  0
   59.4038   28.6660   44.0158 H   0  0  0  0  0  0  0  0  0  0  0  0
  1  2  1  0
  2  3  2  0
  2  4  2  0
  2  5  1  0
  5  6  2  0
  6  7  1  0
  7  8  2  0
  8  9  1  0
  9 10  1  0
 10 11  1  0
 11 12  1  0
 12 13  2  0
 12 14  1  0
 14 15  2  0
 15 16  1  0
 16 17  2  0
 17 18  1  0
 18 19  1  0
 19 20  1  0
 20 21  2  0
 20 22  1  0
 22 23  2  0
 23 24  1  0
 24 25  2  0
 25 26  1  0
 26 27  2  0
 27 28  1  0
 18 29  2  0
  8 30  1  0
 30 31  2  0
 31  5  1  0
 29 14  1  0
 27 22  1  0
  1 32  1  0
  6 33  1  0
  7 34  1  0
  9 35  1  0
  9 36  1  0
 10 37  1  0
 10 38  1  0
 15 39  1  0
 16 40  1  0
 17 41  1  0
 23 42  1  0
 24 43  1  0
 25 44  1  0
 26 45  1  0
 29 46  1  0
 30 47  1  0
 31 48  1  0
M  CHG  3   1  -1  11  -1  19  -1
M  END
>  <UniqueID>  (60) 
50

>  <SMILES>  (60) 
[NH-]S(=O)(=O)c1ccc(CC[N-]C(=O)c2cccc([N-]C(=O)c3ccccc3F)c2)cc1

>  <Energy>  (60) 
52.45366414304786

>  <Genealogy>  (60) 
[NH-]S(=O)(=O)c1ccc(CC[N-]C(=O)c2cccc([N-]C(=O)c3ccccc3F)c2)cc1 (protonated)
[NH-]S(=O)(=O)c1ccc(CC[N-]C(=O)c2cccc([N-]C(=O)c3ccccc3F)c2)cc1 (3D coordinates assigned)
[NH-]S(=O)(=O)c1ccc(CC[N-]C(=O)c2cccc([N-]C(=O)c3ccccc3F)c2)cc1 (optimized conformer: 52.45366414304786 kcal/mol)

>  <smiles>  (60) 
NS(=O)(=O)c1ccc(CCNC(=O)c2cccc(NC(=O)c3ccccc3F)c2)cc1

>  <score_type>  (60) 
oracle

>  <origin>  (60) 
adg

>  <m_score__min__energy>  (60) 
-13.4

>  <m_primary>  (60) 
energy

$$$$
60:0
     RDKit          3D

 35 36  0  0  0  0  0  0  0  0999 V2000
   59.7140   28.3420   44.4790 C   0  0  0  0  0  0  0  0  0  0  0  0
   58.3140   27.8570   44.4040 N   0  0  0  0  0  0  0  0  0  0  0  0
   58.1380   27.1420   43.1170 C   0  0  0  0  0  0  0  0  0  0  0  0
   58.0690   26.8990   45.5070 C   0  0  0  0  0  0  0  0  0  0  0  0
   57.3430   28.9960   44.4440 C   0  0  0  0  0  0  0  0  0  0  0  0
   57.8660   30.2610   45.1210 C   0  0  0  0  0  0  0  0  0  0  0  0
   58.1450   30.2000   46.4970 C   0  0  0  0  0  0  0  0  0  0  0  0
   58.5700   31.3230   47.1960 C   0  0  0  0  0  0  0  0  0  0  0  0
   58.7530   32.5390   46.5360 C   0  0  0  0  0  0  0  0  0  0  0  0
   59.1920   33.6640   47.2540 C   0  0  0  0  0  0  0  0  0  0  0  0
   59.4090   34.8760   46.5990 C   0  0  0  0  0  0  0  0  0  0  0  0
   59.2010   34.9740   45.2240 C   0  0  0  0  0  0  0  0  0  0  0  0
   58.7630   33.8650   44.4950 C   0  0  0  0  0  0  0  0  0  0  0  0
   58.5140   32.6320   45.1390 C   0  0  0  0  0  0  0  0  0  0  0  0
   58.0650   31.4870   44.4260 C   0  0  0  0  0  0  0  0  0  0  0  0
   57.8010   31.5740   43.0170 N   0  0  0  0  0  0  0  0  0  0  0  0
   60.0105   28.4447   45.5333 H   0  0  0  0  0  0  0  0  0  0  0  0
   60.3788   27.6218   43.9797 H   0  0  0  0  0  0  0  0  0  0  0  0
   59.7908   29.3191   43.9797 H   0  0  0  0  0  0  0  0  0  0  0  0
   57.8793   26.0911   43.3138 H   0  0  0  0  0  0  0  0  0  0  0  0
   57.3299   27.6169   42.5412 H   0  0  0  0  0  0  0  0  0  0  0  0
   59.0742   27.1876   42.5412 H   0  0  0  0  0  0  0  0  0  0  0  0
   58.1997   27.4100   46.4723 H   0  0  0  0  0  0  0  0  0  0  0  0
   57.0426   26.5103   45.4339 H   0  0  0  0  0  0  0  0  0  0  0  0
   58.7828   26.0653   45.4339 H   0  0  0  0  0  0  0  0  0  0  0  0
   57.0705   29.2497   43.4089 H   0  0  0  0  0  0  0  0  0  0  0  0
   56.4889   28.6533   45.0465 H   0  0  0  0  0  0  0  0  0  0  0  0
   58.0247   29.2456   47.0305 H   0  0  0  0  0  0  0  0  0  0  0  0
   58.7635   31.2532   48.2766 H   0  0  0  0  0  0  0  0  0  0  0  0
   59.3653   33.5885   48.3376 H   0  0  0  0  0  0  0  0  0  0  0  0
   59.7446   35.7556   47.1679 H   0  0  0  0  0  0  0  0  0  0  0  0
   59.3826   35.9294   44.7100 H   0  0  0  0  0  0  0  0  0  0  0  0
   58.6106   33.9528   43.4092 H   0  0  0  0  0  0  0  0  0  0  0  0
   58.1320   30.8360   42.3580 H   0  0  0  0  0  0  0  0  0  0  0  0
   57.3080   32.3890   42.5950 H   0  0  0  0  0  0  0  0  0  0  0  0
  1  2  1  0
  2  3  1  0
  2  4  1  0
  2  5  1  0
  5  6  1  0
  6  7  2  0
  7  8  1  0
  8  9  2  0
  9 10  1  0
 10 11  2  0
 11 12  1  0
 12 13  2  0
 13 14  1  0
 14 15  2  0
 15 16  1  0
 15  6  1  0
 14  9  1  0
  1 17  1  0
  1 18  1  0
  1 19  1  0
  3 20  1  0
  3 21  1  0
  3 22  1  0
  4 23  1  0
  4 24  1  0
  4 25  1  0
  5 26  1  0
  5 27  1  0
  7 28  1  0
  8 29  1  0
 10 30  1  0
 11 31  1  0
 12 32  1  0
 13 33  1  0
 16 34  1  0
 16 35  1  0
M  CHG  1   2   1
M  END
>  <UniqueID>  (61) 
51

>  <SMILES>  (61) 
C[N+](C)(C)Cc1ccc2ccccc2c1N

>  <Energy>  (61) 
51.092245617464435

>  <Genealogy>  (61) 
C[N+](C)(C)Cc1ccc2ccccc2c1N (3D coordinates assigned)
C[N+](C)(C)Cc1ccc2ccccc2c1N (optimized conformer: 51.092245617464435 kcal/mol)

>  <smiles>  (61) 
C[N+](C)(C)Cc1ccc2ccccc2c1N

>  <score_type>  (61) 
oracle

>  <origin>  (61) 
adg

>  <m_score__min__energy>  (61) 
-4.4100000000000001

>  <m_primary>  (61) 
energy

$$$$
61:0
     RDKit          3D

 35 37  0  0  0  0  0  0  0  0999 V2000
   58.3250   23.3100   45.5190 C   0  0  0  0  0  0  0  0  0  0  0  0
   57.9890   24.3870   46.3880 O   0  0  0  0  0  0  0  0  0  0  0  0
   57.9560   25.7370   46.0040 C   0  0  0  0  0  0  0  0  0  0  0  0
   59.1190   26.4380   45.6380 C   0  0  0  0  0  0  0  0  0  0  0  0
   59.0490   27.7820   45.2630 C   0  0  0  0  0  0  0  0  0  0  0  0
   57.8180   28.4550   45.2520 C   0  0  0  0  0  0  0  0  0  0  0  0
   57.7560   29.8820   44.8530 C   0  0  0  0  0  0  0  0  0  0  0  0
   57.2640   30.4080   43.6550 C   0  0  0  0  0  0  0  0  0  0  0  0
   57.3930   31.7540   43.6690 N   0  0  0  0  0  0  0  0  0  0  0  0
   57.9490   32.1000   44.8180 N   0  0  0  0  0  0  0  0  0  0  0  0
   58.2820   33.3460   45.2390 C   0  0  0  0  0  0  0  0  0  0  0  0
   58.0430   34.3480   44.5110 O   0  0  0  0  0  0  0  0  0  0  0  0
   58.9040   33.4780   46.5060 C   0  0  0  0  0  0  0  0  0  0  0  0
   59.2930   34.7590   47.0410 N   0  0  0  0  0  0  0  0  0  0  0  0
   59.2980   34.9710   48.2710 O   0  0  0  0  0  0  0  0  0  0  0  0
   59.6720   35.7780   46.1970 O   0  0  0  0  0  0  0  0  0  0  0  0
   59.1450   32.2940   47.2470 C   0  0  0  0  0  0  0  0  0  0  0  0
   58.7830   31.0740   46.7570 N   0  0  0  0  0  0  0  0  0  0  0  0
   58.1780   31.0030   45.5480 C   0  0  0  0  0  0  0  0  0  0  0  0
   56.6540   27.7520   45.6080 C   0  0  0  0  0  0  0  0  0  0  0  0
   56.7190   26.3970   45.9870 C   0  0  0  0  0  0  0  0  0  0  0  0
   55.5730   25.6690   46.3510 O   0  0  0  0  0  0  0  0  0  0  0  0
   55.0540   24.5610   45.6230 C   0  0  0  0  0  0  0  0  0  0  0  0
   58.6000   22.4286   46.1169 H   0  0  0  0  0  0  0  0  0  0  0  0
   57.4599   23.0673   44.8844 H   0  0  0  0  0  0  0  0  0  0  0  0
   59.1747   23.6023   44.8844 H   0  0  0  0  0  0  0  0  0  0  0  0
   60.0915   25.9240   45.6471 H   0  0  0  0  0  0  0  0  0  0  0  0
   59.9660   28.3166   44.9742 H   0  0  0  0  0  0  0  0  0  0  0  0
   56.8382   29.8188   42.8295 H   0  0  0  0  0  0  0  0  0  0  0  0
   57.1130   32.4120   42.9080 H   0  0  0  0  0  0  0  0  0  0  0  0
   59.6311   32.3602   48.2316 H   0  0  0  0  0  0  0  0  0  0  0  0
   55.6815   28.2658   45.5904 H   0  0  0  0  0  0  0  0  0  0  0  0
   54.6954   23.7954   46.3268 H   0  0  0  0  0  0  0  0  0  0  0  0
   54.2195   24.8967   44.9899 H   0  0  0  0  0  0  0  0  0  0  0  0
   55.8461   24.1348   44.9899 H   0  0  0  0  0  0  0  0  0  0  0  0
  1  2  1  0
  2  3  1  0
  3  4  2  0
  4  5  1  0
  5  6  2  0
  6  7  1  0
  7  8  2  0
  8  9  1  0
  9 10  1  0
 10 11  1  0
 11 12  2  0
 11 13  1  0
 13 14  1  0
 14 15  2  0
 14 16  1  0
 13 17  2  0
 17 18  1  0
 18 19  2  0
  6 20  1  0
 20 21  2  0
 21 22  1  0
 22 23  1  0
 21  3  1  0
 19  7  1  0
 19 10  1  0
  1 24  1  0
  1 25  1  0
  1 26  1  0
  4 27  1  0
  5 28  1  0
  8 29  1  0
  9 30  1  0
 17 31  1  0
 20 32  1  0
 23 33  1  0
 23 34  1  0
 23 35  1  0
M  CHG  2  14   1  16  -1
M  END
>  <UniqueID>  (62) 
52

>  <SMILES>  (62) 
COc1ccc(-c2c[nH]n3c(=O)c([N+](=O)[O-])cnc23)cc1OC

>  <Energy>  (62) 
81.29085410190704

>  <Genealogy>  (62) 
COc1ccc(-c2c[nH]n3c(=O)c([N+](=O)[O-])cnc23)cc1OC (3D coordinates assigned)
COc1ccc(-c2c[nH]n3c(=O)c([N+](=O)[O-])cnc23)cc1OC (optimized conformer: 81.29085410190704 kcal/mol)

>  <smiles>  (62) 
COc1ccc(-c2c[nH]n3c(=O)c([N+](=O)[O-])cnc23)cc1OC

>  <score_type>  (62) 
oracle

>  <origin>  (62) 
adg

>  <m_score__min__energy>  (62) 
-6.5300000000000002

>  <m_primary>  (62) 
energy

$$$$
62:0
     RDKit          3D

 33 34  0  0  0  0  0  0  0  0999 V2000
   55.1960   29.7190   43.4380 C   0  0  0  0  0  0  0  0  0  0  0  0
   55.3320   29.2140   44.7630 O   0  0  0  0  0  0  0  0  0  0  0  0
   56.4950   28.6090   45.2660 C   0  0  0  0  0  0  0  0  0  0  0  0
   57.7540   29.2390   45.2110 C   0  0  0  0  0  0  0  0  0  0  0  0
   58.8940   28.5990   45.7210 C   0  0  0  0  0  0  0  0  0  0  0  0
   60.2270   29.2920   45.6940 C   0  0  0  0  0  0  0  0  0  0  0  0
   60.3310   30.4940   47.0090 S   0  0  0  0  0  0  0  0  0  0  0  0
   59.5310   30.0330   48.1950 O   0  0  0  0  0  0  0  0  0  0  0  0
   61.7660   30.6510   47.4280 O   0  0  0  0  0  0  0  0  0  0  0  0
   59.6940   32.0380   46.4330 C   0  0  0  0  0  0  0  0  0  0  0  0
   58.3430   32.1360   46.0690 C   0  0  0  0  0  0  0  0  0  0  0  0
   57.8380   33.3580   45.6230 C   0  0  0  0  0  0  0  0  0  0  0  0
   58.6780   34.4670   45.5480 C   0  0  0  0  0  0  0  0  0  0  0  0
   60.0160   34.3390   45.9230 C   0  0  0  0  0  0  0  0  0  0  0  0
   60.5030   33.1400   46.3600 N   0  0  0  0  0  0  0  0  0  0  0  0
   61.8270   33.0430   46.7350 O   0  0  0  0  0  0  0  0  0  0  0  0
   58.7690   27.3310   46.3070 C   0  0  0  0  0  0  0  0  0  0  0  0
   57.5240   26.6990   46.3640 C   0  0  0  0  0  0  0  0  0  0  0  0
   57.3890   24.9660   47.1640 Br  0  0  0  0  0  0  0  0  0  0  0  0
   56.3900   27.3360   45.8430 C   0  0  0  0  0  0  0  0  0  0  0  0
   55.1510   26.7060   45.9000 O   0  0  0  0  0  0  0  0  0  0  0  0
   54.9101   30.7805   43.4777 H   0  0  0  0  0  0  0  0  0  0  0  0
   56.1537   29.6168   42.9066 H   0  0  0  0  0  0  0  0  0  0  0  0
   54.4192   29.1497   42.9066 H   0  0  0  0  0  0  0  0  0  0  0  0
   57.8441   30.2404   44.7648 H   0  0  0  0  0  0  0  0  0  0  0  0
   61.0257   28.5463   45.8208 H   0  0  0  0  0  0  0  0  0  0  0  0
   60.3410   29.8082   44.7293 H   0  0  0  0  0  0  0  0  0  0  0  0
   57.6863   31.2560   46.1346 H   0  0  0  0  0  0  0  0  0  0  0  0
   56.7809   33.4454   45.3318 H   0  0  0  0  0  0  0  0  0  0  0  0
   58.2901   35.4344   45.1965 H   0  0  0  0  0  0  0  0  0  0  0  0
   60.6841   35.2110   45.8662 H   0  0  0  0  0  0  0  0  0  0  0  0
   62.1830   32.2290   47.2240 H   0  0  0  0  0  0  0  0  0  0  0  0
   59.6558   26.8313   46.7240 H   0  0  0  0  0  0  0  0  0  0  0  0
  1  2  1  0
  2  3  1  0
  3  4  2  0
  4  5  1  0
  5  6  1  0
  6  7  1  0
  7  8  2  0
  7  9  2  0
  7 10  1  0
 10 11  2  0
 11 12  1  0
 12 13  2  0
 13 14  1  0
 14 15  2  0
 15 16  1  0
  5 17  2  0
 17 18  1  0
 18 19  1  0
 18 20  2  0
 20 21  1  0
 20  3  1  0
 15 10  1  0
  1 22  1  0
  1 23  1  0
  1 24  1  0
  4 25  1  0
  6 26  1  0
  6 27  1  0
 11 28  1  0
 12 29  1  0
 13 30  1  0
 14 31  1  0
 16 32  1  0
 17 33  1  0
M  CHG  2  15   1  21  -1
M  END
>  <UniqueID>  (63) 
53

>  <SMILES>  (63) 
COc1cc(CS(=O)(=O)c2cccc[n+]2O)cc(Br)c1[O-]

>  <Energy>  (63) 
31.109158104376984

>  <Genealogy>  (63) 
COc1cc(CS(=O)(=O)c2cccc[n+]2O)cc(Br)c1[O-] (protonated)
COc1cc(CS(=O)(=O)c2cccc[n+]2O)cc(Br)c1[O-] (3D coordinates assigned)
COc1cc(CS(=O)(=O)c2cccc[n+]2O)cc(Br)c1[O-] (optimized conformer: 31.109158104376984 kcal/mol)

>  <smiles>  (63) 
COc1cc(CS(=O)(=O)c2cccc[n+]2[O-])cc(Br)c1O

>  <score_type>  (63) 
oracle

>  <origin>  (63) 
adg

>  <m_score__min__energy>  (63) 
-9.5500000000000007

>  <m_primary>  (63) 
energy

$$$$
63:0
     RDKit          3D

 38 40  0  0  0  0  0  0  0  0999 V2000
   51.0130   32.6770   49.3780 N   0  0  0  0  0  0  0  0  0  0  0  0
   51.4090   32.0610   50.6020 C   0  0  0  0  0  0  0  0  0  0  0  0
   51.2220   32.6690   51.6880 O   0  0  0  0  0  0  0  0  0  0  0  0
   51.9980   30.7070   50.5810 C   0  0  0  0  0  0  0  0  0  0  0  0
   51.7930   29.9760   49.5760 O   0  0  0  0  0  0  0  0  0  0  0  0
   52.8020   30.1660   51.6960 C   0  0  0  0  0  0  0  0  0  0  0  0
   54.0820   29.6190   51.6290 C   0  0  0  0  0  0  0  0  0  0  0  0
   54.5590   29.1730   52.8760 C   0  0  0  0  0  0  0  0  0  0  0  0
   55.8190   28.5990   53.0900 O   0  0  0  0  0  0  0  0  0  0  0  0
   56.9820   29.3300   53.4800 C   0  0  0  0  0  0  0  0  0  0  0  0
   57.4610   30.2120   52.3560 C   0  0  0  0  0  0  0  0  0  0  0  0
   58.3560   29.7190   51.3940 C   0  0  0  0  0  0  0  0  0  0  0  0
   58.7900   30.5380   50.3490 C   0  0  0  0  0  0  0  0  0  0  0  0
   58.3440   31.8680   50.2510 C   0  0  0  0  0  0  0  0  0  0  0  0
   58.8020   32.7390   49.1380 C   0  0  0  0  0  0  0  0  0  0  0  0
   59.9140   33.5840   49.3020 C   0  0  0  0  0  0  0  0  0  0  0  0
   60.3440   34.4020   48.2520 C   0  0  0  0  0  0  0  0  0  0  0  0
   59.6690   34.3850   47.0270 C   0  0  0  0  0  0  0  0  0  0  0  0
   60.1000   35.1990   45.9870 O   0  0  0  0  0  0  0  0  0  0  0  0
   58.5630   33.5490   46.8520 C   0  0  0  0  0  0  0  0  0  0  0  0
   57.9080   33.5250   45.6640 F   0  0  0  0  0  0  0  0  0  0  0  0
   58.1300   32.7300   47.9010 C   0  0  0  0  0  0  0  0  0  0  0  0
   57.4570   32.3610   51.2260 C   0  0  0  0  0  0  0  0  0  0  0  0
   57.0240   31.5410   52.2710 C   0  0  0  0  0  0  0  0  0  0  0  0
   53.6570   29.3470   53.9160 C   0  0  0  0  0  0  0  0  0  0  0  0
   52.2700   30.0590   53.2900 S   0  0  0  0  0  0  0  0  0  0  0  0
   51.3380   32.3020   48.4600 H   0  0  0  0  0  0  0  0  0  0  0  0
   54.6607   29.5435   50.6966 H   0  0  0  0  0  0  0  0  0  0  0  0
   56.7392   29.9560   54.3513 H   0  0  0  0  0  0  0  0  0  0  0  0
   57.7795   28.6157   53.7323 H   0  0  0  0  0  0  0  0  0  0  0  0
   58.7176   28.6824   51.4633 H   0  0  0  0  0  0  0  0  0  0  0  0
   59.4864   30.1393   49.5966 H   0  0  0  0  0  0  0  0  0  0  0  0
   60.4494   33.6018   50.2627 H   0  0  0  0  0  0  0  0  0  0  0  0
   61.2147   35.0599   48.3899 H   0  0  0  0  0  0  0  0  0  0  0  0
   57.2583   32.0745   47.7579 H   0  0  0  0  0  0  0  0  0  0  0  0
   57.1018   33.4003   51.1649 H   0  0  0  0  0  0  0  0  0  0  0  0
   56.3365   31.9405   53.0311 H   0  0  0  0  0  0  0  0  0  0  0  0
   53.8214   29.0675   54.9671 H   0  0  0  0  0  0  0  0  0  0  0  0
  1  2  1  0
  2  3  2  0
  2  4  1  0
  4  5  2  0
  4  6  1  0
  6  7  2  0
  7  8  1  0
  8  9  1  0
  9 10  1  0
 10 11  1  0
 11 12  2  0
 12 13  1  0
 13 14  2  0
 14 15  1  0
 15 16  2  0
 16 17  1  0
 17 18  2  0
 18 19  1  0
 18 20  1  0
 20 21  1  0
 20 22  2  0
 14 23  1  0
 23 24  2  0
  8 25  2  0
 25 26  1  0
 26  6  1  0
 24 11  1  0
 22 15  1  0
  1 27  1  0
  7 28  1  0
 10 29  1  0
 10 30  1  0
 12 31  1  0
 13 32  1  0
 16 33  1  0
 17 34  1  0
 22 35  1  0
 23 36  1  0
 24 37  1  0
 25 38  1  0
M  CHG  2   1  -1  19  -1
M  END
>  <UniqueID>  (64) 
54

>  <SMILES>  (64) 
[NH-]C(=O)C(=O)c1cc(OCc2ccc(-c3ccc([O-])c(F)c3)cc2)cs1

>  <Energy>  (64) 
71.0425706738941

>  <Genealogy>  (64) 
[NH-]C(=O)C(=O)c1cc(OCc2ccc(-c3ccc([O-])c(F)c3)cc2)cs1 (protonated)
[NH-]C(=O)C(=O)c1cc(OCc2ccc(-c3ccc([O-])c(F)c3)cc2)cs1 (3D coordinates assigned)
[NH-]C(=O)C(=O)c1cc(OCc2ccc(-c3ccc([O-])c(F)c3)cc2)cs1 (optimized conformer: 71.0425706738941 kcal/mol)

>  <smiles>  (64) 
NC(=O)C(=O)c1cc(OCc2ccc(-c3ccc(O)c(F)c3)cc2)cs1

>  <score_type>  (64) 
oracle

>  <origin>  (64) 
adg

>  <m_score__min__energy>  (64) 
-12.039999999999999

>  <m_primary>  (64) 
energy

$$$$
64:0
     RDKit          3D

 49 52  0  0  0  0  0  0  0  0999 V2000
   61.4620   31.4750   48.8160 O   0  0  0  0  0  0  0  0  0  0  0  0
   61.4430   31.5590   47.3140 S   0  0  0  0  0  0  0  0  0  0  0  0
   62.8180   31.2110   46.8190 O   0  0  0  0  0  0  0  0  0  0  0  0
   60.2950   30.3780   46.6820 C   0  0  0  0  0  0  0  0  0  0  0  0
   58.9940   30.3100   47.1990 C   0  0  0  0  0  0  0  0  0  0  0  0
   58.0740   29.4030   46.6700 C   0  0  0  0  0  0  0  0  0  0  0  0
   58.4400   28.5550   45.6110 C   0  0  0  0  0  0  0  0  0  0  0  0
   57.5100   27.6120   45.0590 N   0  0  0  0  0  0  0  0  0  0  0  0
   57.2340   26.3300   45.6410 C   0  0  0  0  0  0  0  0  0  0  0  0
   58.1500   25.3070   45.7830 C   0  0  0  0  0  0  0  0  0  0  0  0
   57.4410   24.2480   46.3210 C   0  0  0  0  0  0  0  0  0  0  0  0
   58.0140   23.0270   46.6720 O   0  0  0  0  0  0  0  0  0  0  0  0
   56.1360   24.5670   46.4850 N   0  0  0  0  0  0  0  0  0  0  0  0
   55.0750   23.7230   46.9590 C   0  0  0  0  0  0  0  0  0  0  0  0
   55.1730   23.0880   48.2080 C   0  0  0  0  0  0  0  0  0  0  0  0
   54.1450   22.2530   48.6570 C   0  0  0  0  0  0  0  0  0  0  0  0
   53.0160   22.0410   47.8610 C   0  0  0  0  0  0  0  0  0  0  0  0
   52.9150   22.6620   46.6130 C   0  0  0  0  0  0  0  0  0  0  0  0
   53.9420   23.4970   46.1600 C   0  0  0  0  0  0  0  0  0  0  0  0
   56.0090   25.8400   46.0580 C   0  0  0  0  0  0  0  0  0  0  0  0
   54.7970   26.5210   45.9900 O   0  0  0  0  0  0  0  0  0  0  0  0
   59.7550   28.5960   45.1260 C   0  0  0  0  0  0  0  0  0  0  0  0
   60.6750   29.5060   45.6530 C   0  0  0  0  0  0  0  0  0  0  0  0
   61.0540   33.1980   46.8290 N   0  0  0  0  0  0  0  0  0  0  0  0
   59.8520   33.2700   45.9700 C   0  0  0  0  0  0  0  0  0  0  0  0
   58.6010   33.7410   46.7290 C   0  0  0  0  0  0  0  0  0  0  0  0
   58.6730   33.3590   48.0830 O   0  0  0  0  0  0  0  0  0  0  0  0
   59.6780   34.1100   48.7360 C   0  0  0  0  0  0  0  0  0  0  0  0
   61.0220   34.1330   47.9690 C   0  0  0  0  0  0  0  0  0  0  0  0
   58.6968   30.9736   48.0244 H   0  0  0  0  0  0  0  0  0  0  0  0
   57.0564   29.3518   47.0847 H   0  0  0  0  0  0  0  0  0  0  0  0
   56.9920   27.8760   44.1900 H   0  0  0  0  0  0  0  0  0  0  0  0
   59.2186   25.3293   45.5231 H   0  0  0  0  0  0  0  0  0  0  0  0
   57.7870   22.5600   47.5400 H   0  0  0  0  0  0  0  0  0  0  0  0
   56.0621   23.2482   48.8356 H   0  0  0  0  0  0  0  0  0  0  0  0
   54.2251   21.7623   49.6382 H   0  0  0  0  0  0  0  0  0  0  0  0
   52.2072   21.3857   48.2166 H   0  0  0  0  0  0  0  0  0  0  0  0
   52.0268   22.4940   45.9861 H   0  0  0  0  0  0  0  0  0  0  0  0
   53.8620   23.9785   45.1742 H   0  0  0  0  0  0  0  0  0  0  0  0
   60.0642   27.9075   44.3257 H   0  0  0  0  0  0  0  0  0  0  0  0
   61.7014   29.5380   45.2587 H   0  0  0  0  0  0  0  0  0  0  0  0
   60.0496   33.9740   45.1483 H   0  0  0  0  0  0  0  0  0  0  0  0
   59.6500   32.2542   45.5995 H   0  0  0  0  0  0  0  0  0  0  0  0
   58.5300   34.8369   46.6652 H   0  0  0  0  0  0  0  0  0  0  0  0
   57.7132   33.2766   46.2749 H   0  0  0  0  0  0  0  0  0  0  0  0
   59.3227   35.1449   48.8485 H   0  0  0  0  0  0  0  0  0  0  0  0
   59.8655   33.6278   49.7067 H   0  0  0  0  0  0  0  0  0  0  0  0
   61.1918   35.1519   47.5909 H   0  0  0  0  0  0  0  0  0  0  0  0
   61.8066   33.8186   48.6730 H   0  0  0  0  0  0  0  0  0  0  0  0
  1  2  2  0
  2  3  2  0
  2  4  1  0
  4  5  2  0
  5  6  1  0
  6  7  2  0
  7  8  1  0
  8  9  1  0
  9 10  1  0
 10 11  2  0
 11 12  1  0
 11 13  1  0
 13 14  1  0
 14 15  2  0
 15 16  1  0
 16 17  2  0
 17 18  1  0
 18 19  2  0
 13 20  1  0
 20 21  1  0
  7 22  1  0
 22 23  2  0
  2 24  1  0
 24 25  1  0
 25 26  1  0
 26 27  1  0
 27 28  1  0
 28 29  1  0
 23  4  1  0
 29 24  1  0
 20  9  2  0
 19 14  1  0
  5 30  1  0
  6 31  1  0
  8 32  1  0
 10 33  1  0
 12 34  1  0
 15 35  1  0
 16 36  1  0
 17 37  1  0
 18 38  1  0
 19 39  1  0
 22 40  1  0
 23 41  1  0
 25 42  1  0
 25 43  1  0
 26 44  1  0
 26 45  1  0
 28 46  1  0
 28 47  1  0
 29 48  1  0
 29 49  1  0
M  CHG  1  21  -1
M  END
>  <UniqueID>  (65) 
55

>  <SMILES>  (65) 
O=S(=O)(c1ccc(Nc2cc(O)n(-c3ccccc3)c2[O-])cc1)N1CCOCC1

>  <Energy>  (65) 
102.46546711248581

>  <Genealogy>  (65) 
O=S(=O)(c1ccc(Nc2cc(O)n(-c3ccccc3)c2[O-])cc1)N1CCOCC1 (protonated)
O=S(=O)(c1ccc(Nc2cc(O)n(-c3ccccc3)c2[O-])cc1)N1CCOCC1 (3D coordinates assigned)
O=S(=O)(c1ccc(Nc2cc(O)n(-c3ccccc3)c2[O-])cc1)N1CCOCC1 (nonaromatic ring conformer: 102.46546711248581 kcal/mol)

>  <smiles>  (65) 
O=S(=O)(c1ccc(Nc2cc(O)n(-c3ccccc3)c2O)cc1)N1CCOCC1

>  <score_type>  (65) 
oracle

>  <origin>  (65) 
adg

>  <m_score__min__energy>  (65) 
-11.609999999999999

>  <m_primary>  (65) 
energy

$$$$
65:0
     RDKit          3D

 44 46  0  0  0  0  0  0  0  0999 V2000
   50.8054   33.1052   51.1090 H   0  0  0  0  0  0  0  0  0  0  0  0
   51.3640   32.3170   51.6350 C   0  0  0  0  0  0  0  0  0  0  0  0
   52.6330   32.0140   51.2540 N   0  0  0  0  0  0  0  0  0  0  0  0
   53.3680   31.0530   51.8860 C   0  0  0  0  0  0  0  0  0  0  0  0
   54.5860   30.7780   51.5110 N   0  0  0  0  0  0  0  0  0  0  0  0
   55.7810   30.9580   52.2890 C   0  0  0  0  0  0  0  0  0  0  0  0
   55.7150   30.8000   53.5380 O   0  0  0  0  0  0  0  0  0  0  0  0
   57.0690   31.3710   51.6820 C   0  0  0  0  0  0  0  0  0  0  0  0
   57.6140   32.6370   51.9510 C   0  0  0  0  0  0  0  0  0  0  0  0
   57.1093   33.3100   52.6598 H   0  0  0  0  0  0  0  0  0  0  0  0
   58.7930   33.0470   51.3240 C   0  0  0  0  0  0  0  0  0  0  0  0
   59.2023   34.0472   51.5291 H   0  0  0  0  0  0  0  0  0  0  0  0
   59.4580   32.1900   50.4340 C   0  0  0  0  0  0  0  0  0  0  0  0
   60.6280   32.6040   49.7200 N   0  0  0  0  0  0  0  0  0  0  0  0
   60.5890   33.4970   48.2350 S   0  0  0  0  0  0  0  0  0  0  0  0
   61.9140   33.3620   47.5390 O   0  0  0  0  0  0  0  0  0  0  0  0
   60.3420   34.9530   48.5180 O   0  0  0  0  0  0  0  0  0  0  0  0
   59.3300   32.8300   47.1980 C   0  0  0  0  0  0  0  0  0  0  0  0
   58.3550   33.6780   46.6610 C   0  0  0  0  0  0  0  0  0  0  0  0
   58.3531   34.7460   46.9244 H   0  0  0  0  0  0  0  0  0  0  0  0
   57.3830   33.1740   45.7910 C   0  0  0  0  0  0  0  0  0  0  0  0
   56.6034   33.8414   45.3950 H   0  0  0  0  0  0  0  0  0  0  0  0
   57.3980   31.8200   45.4210 C   0  0  0  0  0  0  0  0  0  0  0  0
   56.4120   31.2610   44.5410 N   0  0  0  0  0  0  0  0  0  0  0  0
   56.1450   29.8730   44.3010 C   0  0  0  0  0  0  0  0  0  0  0  0
   55.1560   29.3380   44.8670 O   0  0  0  0  0  0  0  0  0  0  0  0
   57.0240   29.0230   43.4340 C   0  0  0  0  0  0  0  0  0  0  0  0
   57.6702   28.3981   44.0679 H   0  0  0  0  0  0  0  0  0  0  0  0
   56.3991   28.3779   42.7989 H   0  0  0  0  0  0  0  0  0  0  0  0
   57.6478   29.6692   42.7989 H   0  0  0  0  0  0  0  0  0  0  0  0
   58.3560   30.9670   45.9840 C   0  0  0  0  0  0  0  0  0  0  0  0
   58.3498   29.8962   45.7321 H   0  0  0  0  0  0  0  0  0  0  0  0
   59.3200   31.4680   46.8640 C   0  0  0  0  0  0  0  0  0  0  0  0
   60.0728   30.7919   47.2956 H   0  0  0  0  0  0  0  0  0  0  0  0
   58.9580   30.9000   50.2240 C   0  0  0  0  0  0  0  0  0  0  0  0
   59.5025   30.2019   49.5711 H   0  0  0  0  0  0  0  0  0  0  0  0
   57.7690   30.4930   50.8400 C   0  0  0  0  0  0  0  0  0  0  0  0
   57.3809   29.4791   50.6632 H   0  0  0  0  0  0  0  0  0  0  0  0
   52.7960   30.3330   52.9420 C   0  0  0  0  0  0  0  0  0  0  0  0
   53.3690   29.5428   53.4492 H   0  0  0  0  0  0  0  0  0  0  0  0
   51.4910   30.6270   53.3460 C   0  0  0  0  0  0  0  0  0  0  0  0
   51.0332   30.0702   54.1769 H   0  0  0  0  0  0  0  0  0  0  0  0
   50.7690   31.6280   52.6940 C   0  0  0  0  0  0  0  0  0  0  0  0
   49.7439   31.8711   53.0105 H   0  0  0  0  0  0  0  0  0  0  0  0
  1  2  1  0
  2  3  1  0
  3  4  1  0
  4  5  2  0
  5  6  1  0
  6  7  2  0
  6  8  1  0
  8  9  2  0
  9 10  1  0
  9 11  1  0
 11 12  1  0
 11 13  2  0
 13 14  1  0
 14 15  1  0
 15 16  2  0
 15 17  2  0
 15 18  1  0
 18 19  2  0
 19 20  1  0
 19 21  1  0
 21 22  1  0
 21 23  2  0
 23 24  1  0
 24 25  1  0
 25 26  2  0
 25 27  1  0
 27 28  1  0
 27 29  1  0
 27 30  1  0
 23 31  1  0
 31 32  1  0
 31 33  2  0
 33 34  1  0
 13 35  1  0
 35 36  1  0
 35 37  2  0
 37 38  1  0
  4 39  1  0
 39 40  1  0
 39 41  2  0
 41 42  1  0
 41 43  1  0
 43 44  1  0
 43  2  2  0
 37  8  1  0
 33 18  1  0
M  CHG  3   3  -1  14  -1  24  -1
M  END
>  <UniqueID>  (66) 
56

>  <SMILES>  (66) 
CC(=O)[N-]c1ccc(S(=O)(=O)[N-]c2ccc(C(=O)/N=c3/cccc[n-]3)cc2)cc1

>  <Energy>  (66) 
60.647343266167894

>  <Genealogy>  (66) 
CC(=O)[N-]c1ccc(S(=O)(=O)[N-]c2ccc(C(=O)N=c3cccc[n-]3)cc2)cc1 (protonated)
CC(=O)[N-]c1ccc(S(=O)(=O)[N-]c2ccc(C(=O)/N=c3/cccc[n-]3)cc2)cc1 (cis-trans isomerization)
CC(=O)[N-]c1ccc(S(=O)(=O)[N-]c2ccc(C(=O)/N=c3/cccc[n-]3)cc2)cc1 (3D coordinates assigned)
CC(=O)[N-]c1ccc(S(=O)(=O)[N-]c2ccc(C(=O)/N=c3/cccc[n-]3)cc2)cc1 (optimized conformer: 60.647343266167894 kcal/mol)

>  <smiles>  (66) 
CC(=O)Nc1ccc(S(=O)(=O)Nc2ccc(C(=O)N=c3cccc[nH]3)cc2)cc1

>  <score_type>  (66) 
oracle

>  <origin>  (66) 
adg

>  <m_score__min__energy>  (66) 
-12.84

>  <m_primary>  (66) 
energy

$$$$
66:0
     RDKit          3D

 54 57  0  0  0  0  0  0  0  0999 V2000
   55.5240   27.0910   45.6500 N   0  0  0  0  0  0  0  0  0  0  0  0
   56.8820   27.4160   45.9390 C   0  0  0  0  0  0  0  0  0  0  0  0
   57.4530   26.8680   46.9210 O   0  0  0  0  0  0  0  0  0  0  0  0
   57.5910   28.4790   45.1380 C   0  0  1  0  0  0  0  0  0  0  0  0
   56.7590   29.0300   43.9730 C   0  0  0  0  0  0  0  0  0  0  0  0
   57.2300   30.4670   43.7910 C   0  0  0  0  0  0  0  0  0  0  0  0
   57.8490   30.8350   45.0550 N   0  0  0  0  0  0  0  0  0  0  0  0
   58.2780   32.1660   45.4010 C   0  0  0  0  0  0  0  0  0  0  0  0
   57.4160   33.2690   45.2720 C   0  0  0  0  0  0  0  0  0  0  0  0
   57.8760   34.5420   45.6100 C   0  0  0  0  0  0  0  0  0  0  0  0
   59.1780   34.7130   46.0780 C   0  0  0  0  0  0  0  0  0  0  0  0
   60.0140   33.5920   46.2130 C   0  0  0  0  0  0  0  0  0  0  0  0
   61.3380   33.7050   46.6600 O   0  0  0  0  0  0  0  0  0  0  0  0
   61.9240   32.9290   47.6700 C   0  0  0  0  0  0  0  0  0  0  0  0
   61.1040   32.1050   48.4470 C   0  0  0  0  0  0  0  0  0  0  0  0
   61.6480   31.3280   49.4730 C   0  0  0  0  0  0  0  0  0  0  0  0
   63.0230   31.3780   49.7550 C   0  0  0  0  0  0  0  0  0  0  0  0
   63.5860   30.5430   50.8440 C   0  0  0  0  0  0  0  0  0  0  0  0
   62.8410   29.7080   51.4280 O   0  0  0  0  0  0  0  0  0  0  0  0
   64.9570   30.6800   51.2550 N   0  0  0  0  0  0  0  0  0  0  0  0
   65.5590   29.8130   52.2660 C   0  0  0  0  0  0  0  0  0  0  0  0
   66.3150   28.6880   51.6090 C   0  0  0  0  0  0  0  0  0  0  0  0
   67.4880   28.9520   50.8820 C   0  0  0  0  0  0  0  0  0  0  0  0
   68.1800   27.9110   50.2560 C   0  0  0  0  0  0  0  0  0  0  0  0
   67.7040   26.5990   50.3480 C   0  0  0  0  0  0  0  0  0  0  0  0
   68.3750   25.5900   49.7380 F   0  0  0  0  0  0  0  0  0  0  0  0
   66.5360   26.3280   51.0660 C   0  0  0  0  0  0  0  0  0  0  0  0
   65.8400   27.3660   51.6940 C   0  0  0  0  0  0  0  0  0  0  0  0
   64.7040   27.0840   52.3820 F   0  0  0  0  0  0  0  0  0  0  0  0
   63.8460   32.2160   48.9800 C   0  0  0  0  0  0  0  0  0  0  0  0
   63.2990   32.9910   47.9520 C   0  0  0  0  0  0  0  0  0  0  0  0
   59.5460   32.3650   45.8590 N   0  0  0  0  0  0  0  0  0  0  0  0
   57.9580   29.7100   45.9680 C   0  0  0  0  0  0  0  0  0  0  0  0
   54.8000   27.0910   46.4020 H   0  0  0  0  0  0  0  0  0  0  0  0
   58.4835   27.9485   44.7748 H   0  0  0  0  0  0  0  0  0  0  0  0
   56.9407   28.4457   43.0589 H   0  0  0  0  0  0  0  0  0  0  0  0
   55.6793   28.9736   44.1758 H   0  0  0  0  0  0  0  0  0  0  0  0
   57.9611   30.5313   42.9716 H   0  0  0  0  0  0  0  0  0  0  0  0
   56.3990   31.1396   43.5319 H   0  0  0  0  0  0  0  0  0  0  0  0
   56.3875   33.1295   44.9076 H   0  0  0  0  0  0  0  0  0  0  0  0
   57.2106   35.4118   45.5071 H   0  0  0  0  0  0  0  0  0  0  0  0
   59.5472   35.7158   46.3390 H   0  0  0  0  0  0  0  0  0  0  0  0
   60.0226   32.0682   48.2491 H   0  0  0  0  0  0  0  0  0  0  0  0
   60.9936   30.6713   50.0651 H   0  0  0  0  0  0  0  0  0  0  0  0
   65.5420   31.4540   50.8710 H   0  0  0  0  0  0  0  0  0  0  0  0
   66.2518   30.4032   52.8838 H   0  0  0  0  0  0  0  0  0  0  0  0
   64.7613   29.3887   52.8935 H   0  0  0  0  0  0  0  0  0  0  0  0
   67.8637   29.9830   50.8050 H   0  0  0  0  0  0  0  0  0  0  0  0
   69.0994   28.1238   49.6908 H   0  0  0  0  0  0  0  0  0  0  0  0
   66.1631   25.2956   51.1374 H   0  0  0  0  0  0  0  0  0  0  0  0
   64.9260   32.2619   49.1838 H   0  0  0  0  0  0  0  0  0  0  0  0
   63.9491   33.6528   47.3610 H   0  0  0  0  0  0  0  0  0  0  0  0
   58.9852   29.6235   46.3518 H   0  0  0  0  0  0  0  0  0  0  0  0
   57.3002   29.8261   46.8419 H   0  0  0  0  0  0  0  0  0  0  0  0
  1  2  1  0
  2  3  2  0
  2  4  1  0
  4  5  1  0
  5  6  1  0
  6  7  1  0
  7  8  1  0
  8  9  2  0
  9 10  1  0
 10 11  2  0
 11 12  1  0
 12 13  1  0
 13 14  1  0
 14 15  2  0
 15 16  1  0
 16 17  2  0
 17 18  1  0
 18 19  2  0
 18 20  1  0
 20 21  1  0
 21 22  1  0
 22 23  2  0
 23 24  1  0
 24 25  2  0
 25 26  1  0
 25 27  1  0
 27 28  2  0
 28 29  1  0
 17 30  1  0
 30 31  2  0
 12 32  2  0
  7 33  1  0
 33  4  1  0
 32  8  1  0
 31 14  1  0
 28 22  1  0
  1 34  1  0
  4 35  1  6
  5 36  1  0
  5 37  1  0
  6 38  1  0
  6 39  1  0
  9 40  1  0
 10 41  1  0
 11 42  1  0
 15 43  1  0
 16 44  1  0
 20 45  1  0
 21 46  1  0
 21 47  1  0
 23 48  1  0
 24 49  1  0
 27 50  1  0
 30 51  1  0
 31 52  1  0
 33 53  1  0
 33 54  1  0
M  CHG  1   1  -1
M  END
>  <UniqueID>  (67) 
57

>  <SMILES>  (67) 
[NH-]C(=O)[C@H]1CCN(c2cccc(Oc3ccc(C(=O)NCc4ccc(F)cc4F)cc3)n2)C1

>  <Energy>  (67) 
66.75938671529012

>  <Genealogy>  (67) 
[NH-]C(=O)C1CCN(c2cccc(Oc3ccc(C(=O)NCc4ccc(F)cc4F)cc3)n2)C1 (protonated)
[NH-]C(=O)[C@H]1CCN(c2cccc(Oc3ccc(C(=O)NCc4ccc(F)cc4F)cc3)n2)C1 (chirality)
[NH-]C(=O)[C@H]1CCN(c2cccc(Oc3ccc(C(=O)NCc4ccc(F)cc4F)cc3)n2)C1 (3D coordinates assigned)
[NH-]C(=O)[C@H]1CCN(c2cccc(Oc3ccc(C(=O)NCc4ccc(F)cc4F)cc3)n2)C1 (nonaromatic ring conformer: 66.75938671529012 kcal/mol)

>  <smiles>  (67) 
NC(=O)C1CCN(c2cccc(Oc3ccc(C(=O)NCc4ccc(F)cc4F)cc3)n2)C1

>  <score_type>  (67) 
oracle

>  <origin>  (67) 
adg

>  <m_score__min__energy>  (67) 
-12.34

>  <m_primary>  (67) 
energy

$$$$
67:0
     RDKit          3D

 55 58  0  0  0  0  0  0  0  0999 V2000
   61.1820   30.4630   46.8060 C   0  0  0  0  0  0  0  0  0  0  0  0
   60.2050   29.7430   47.6300 N   0  0  0  0  0  0  0  0  0  0  0  0
   59.9160   30.1650   48.9790 C   0  0  0  0  0  0  0  0  0  0  0  0
   60.4160   29.5300   49.9470 O   0  0  0  0  0  0  0  0  0  0  0  0
   59.0810   31.3900   49.2630 C   0  0  0  0  0  0  0  0  0  0  0  0
   58.8640   32.2090   48.0200 C   0  0  0  0  0  0  0  0  0  0  0  0
   58.3570   31.5940   46.9180 N   0  0  0  0  0  0  0  0  0  0  0  0
   58.1510   32.2680   45.7550 C   0  0  0  0  0  0  0  0  0  0  0  0
   57.6120   31.5860   44.6130 N   0  0  0  0  0  0  0  0  0  0  0  0
   57.4500   32.2070   43.3110 C   0  0  0  0  0  0  0  0  0  0  0  0
   57.0200   31.0840   42.3750 C   0  0  0  0  0  0  0  0  0  0  0  0
   56.5320   29.9530   43.2810 C   0  0  0  0  0  0  0  0  0  0  0  0
   56.8970   28.7180   42.7730 F   0  0  0  0  0  0  0  0  0  0  0  0
   55.1530   30.0110   43.4000 F   0  0  0  0  0  0  0  0  0  0  0  0
   57.1810   30.2000   44.6390 C   0  0  0  0  0  0  0  0  0  0  0  0
   58.4610   33.5890   45.6810 N   0  0  0  0  0  0  0  0  0  0  0  0
   58.9740   34.2530   46.7470 C   0  0  0  0  0  0  0  0  0  0  0  0
   59.2520   35.4770   46.6430 O   0  0  0  0  0  0  0  0  0  0  0  0
   59.1950   33.5790   47.9530 C   0  0  0  0  0  0  0  0  0  0  0  0
   59.7330   34.2740   49.0400 O   0  0  0  0  0  0  0  0  0  0  0  0
   59.4410   28.6730   47.0430 C   0  0  0  0  0  0  0  0  0  0  0  0
   59.5700   28.3740   45.6770 C   0  0  0  0  0  0  0  0  0  0  0  0
   58.8280   27.3350   45.1100 C   0  0  0  0  0  0  0  0  0  0  0  0
   57.9430   26.5790   45.8960 C   0  0  0  0  0  0  0  0  0  0  0  0
   57.1660   25.5190   45.3030 N   0  0  0  0  0  0  0  0  0  0  0  0
   57.7790   24.6170   44.3220 C   0  0  0  0  0  0  0  0  0  0  0  0
   57.0020   23.2990   44.2410 C   0  0  0  0  0  0  0  0  0  0  0  0
   55.6320   23.5560   44.0040 O   0  0  0  0  0  0  0  0  0  0  0  0
   55.0410   24.1390   45.1520 C   0  0  0  0  0  0  0  0  0  0  0  0
   55.7550   25.3970   45.5620 C   0  0  0  0  0  0  0  0  0  0  0  0
   55.1240   26.3100   46.1590 O   0  0  0  0  0  0  0  0  0  0  0  0
   57.8100   26.8850   47.2610 C   0  0  0  0  0  0  0  0  0  0  0  0
   58.5580   27.9200   47.8310 C   0  0  0  0  0  0  0  0  0  0  0  0
   61.8952   30.9886   47.4581 H   0  0  0  0  0  0  0  0  0  0  0  0
   61.7246   29.7471   46.1710 H   0  0  0  0  0  0  0  0  0  0  0  0
   60.6589   31.1932   46.1710 H   0  0  0  0  0  0  0  0  0  0  0  0
   58.1042   31.0733   49.6575 H   0  0  0  0  0  0  0  0  0  0  0  0
   59.6167   32.0107   49.9964 H   0  0  0  0  0  0  0  0  0  0  0  0
   56.6785   32.9900   43.3519 H   0  0  0  0  0  0  0  0  0  0  0  0
   58.3782   32.6892   42.9705 H   0  0  0  0  0  0  0  0  0  0  0  0
   56.2081   31.4243   41.7155 H   0  0  0  0  0  0  0  0  0  0  0  0
   57.8467   30.7569   41.7273 H   0  0  0  0  0  0  0  0  0  0  0  0
   56.4539   30.0380   45.4484 H   0  0  0  0  0  0  0  0  0  0  0  0
   58.0207   29.5135   44.8224 H   0  0  0  0  0  0  0  0  0  0  0  0
   59.7760   35.2840   49.0830 H   0  0  0  0  0  0  0  0  0  0  0  0
   60.2583   28.9605   45.0507 H   0  0  0  0  0  0  0  0  0  0  0  0
   58.9378   27.1072   44.0395 H   0  0  0  0  0  0  0  0  0  0  0  0
   57.7743   25.1006   43.3340 H   0  0  0  0  0  0  0  0  0  0  0  0
   58.8111   24.4012   44.6355 H   0  0  0  0  0  0  0  0  0  0  0  0
   57.4051   22.6890   43.4192 H   0  0  0  0  0  0  0  0  0  0  0  0
   57.1074   22.7600   45.1941 H   0  0  0  0  0  0  0  0  0  0  0  0
   53.9911   24.3804   44.9298 H   0  0  0  0  0  0  0  0  0  0  0  0
   55.1108   23.4177   45.9796 H   0  0  0  0  0  0  0  0  0  0  0  0
   57.1130   26.3067   47.8852 H   0  0  0  0  0  0  0  0  0  0  0  0
   58.4534   28.1448   48.9027 H   0  0  0  0  0  0  0  0  0  0  0  0
  1  2  1  0
  2  3  1  0
  3  4  2  0
  3  5  1  0
  5  6  1  0
  6  7  1  0
  7  8  1  0
  8  9  1  0
  9 10  1  0
 10 11  1  0
 11 12  1  0
 12 13  1  0
 12 14  1  0
 12 15  1  0
  8 16  2  0
 16 17  1  0
 17 18  2  0
 17 19  1  0
 19 20  1  0
  2 21  1  0
 21 22  2  0
 22 23  1  0
 23 24  2  0
 24 25  1  0
 25 26  1  0
 26 27  1  0
 27 28  1  0
 28 29  1  0
 29 30  1  0
 30 31  2  0
 24 32  1  0
 32 33  2  0
 19  6  2  0
 33 21  1  0
 15  9  1  0
 30 25  1  0
  1 34  1  0
  1 35  1  0
  1 36  1  0
  5 37  1  0
  5 38  1  0
 10 39  1  0
 10 40  1  0
 11 41  1  0
 11 42  1  0
 15 43  1  0
 15 44  1  0
 20 45  1  0
 22 46  1  0
 23 47  1  0
 26 48  1  0
 26 49  1  0
 27 50  1  0
 27 51  1  0
 29 52  1  0
 29 53  1  0
 32 54  1  0
 33 55  1  0
M  CHG  1   7  -1
M  END
>  <UniqueID>  (68) 
58

>  <SMILES>  (68) 
CN(C(=O)Cc1[n-]c(N2CCC(F)(F)C2)nc(=O)c1O)c1ccc(N2CCOCC2=O)cc1

>  <Energy>  (68) 
71.95517378384382

>  <Genealogy>  (68) 
CN(C(=O)Cc1[n-]c(N2CCC(F)(F)C2)nc(=O)c1O)c1ccc(N2CCOCC2=O)cc1 (protonated)
CN(C(=O)Cc1[n-]c(N2CCC(F)(F)C2)nc(=O)c1O)c1ccc(N2CCOCC2=O)cc1 (3D coordinates assigned)
CN(C(=O)Cc1[n-]c(N2CCC(F)(F)C2)nc(=O)c1O)c1ccc(N2CCOCC2=O)cc1 (nonaromatic ring conformer: 71.95517378384382 kcal/mol)

>  <smiles>  (68) 
CN(C(=O)Cc1[nH]c(N2CCC(F)(F)C2)nc(=O)c1O)c1ccc(N2CCOCC2=O)cc1

>  <score_type>  (68) 
oracle

>  <origin>  (68) 
adg

>  <m_score__min__energy>  (68) 
-9.2400000000000002

>  <m_primary>  (68) 
energy

$$$$
68:0
     RDKit          3D

 46 48  0  0  0  0  0  0  0  0999 V2000
   57.3910   25.1530   44.3920 C   0  0  0  0  0  0  0  0  0  0  0  0
   57.7690   26.5240   44.8690 C   0  0  0  0  0  0  0  0  0  0  0  0
   57.4420   26.9350   46.1700 C   0  0  0  0  0  0  0  0  0  0  0  0
   57.8290   28.1980   46.6270 C   0  0  0  0  0  0  0  0  0  0  0  0
   58.5530   29.0660   45.7940 C   0  0  0  0  0  0  0  0  0  0  0  0
   58.9670   30.4310   46.2960 C   0  0  0  0  0  0  0  0  0  0  0  0
   57.9750   31.4820   45.9480 N   0  0  2  0  0  0  0  0  0  0  0  0
   58.1270   31.9900   44.6080 C   0  0  0  0  0  0  0  0  0  0  0  0
   58.3810   31.2550   43.6660 O   0  0  0  0  0  0  0  0  0  0  0  0
   57.8420   33.4290   44.3760 C   0  0  0  0  0  0  0  0  0  0  0  0
   57.3680   34.1270   45.9770 S   0  0  0  0  0  0  0  0  0  0  0  0
   57.9860   32.6530   46.8650 C   0  0  2  0  0  0  0  0  0  0  0  0
   59.3430   32.9720   47.4890 C   0  0  0  0  0  0  0  0  0  0  0  0
   59.5560   32.7200   48.8540 C   0  0  0  0  0  0  0  0  0  0  0  0
   60.7900   32.9970   49.4470 C   0  0  0  0  0  0  0  0  0  0  0  0
   61.8550   33.5340   48.6920 C   0  0  0  0  0  0  0  0  0  0  0  0
   63.1420   33.8230   49.3070 N   0  0  0  0  0  0  0  0  0  0  0  0
   64.3920   33.3900   48.6680 C   0  0  0  0  0  0  0  0  0  0  0  0
   63.2170   34.5560   50.5800 C   0  0  0  0  0  0  0  0  0  0  0  0
   61.6330   33.7820   47.3210 C   0  0  0  0  0  0  0  0  0  0  0  0
   60.3980   33.5040   46.7300 C   0  0  0  0  0  0  0  0  0  0  0  0
   58.8970   28.6440   44.4990 C   0  0  0  0  0  0  0  0  0  0  0  0
   58.5110   27.3810   44.0420 C   0  0  0  0  0  0  0  0  0  0  0  0
   57.2109   24.4999   45.2587 H   0  0  0  0  0  0  0  0  0  0  0  0
   56.4766   25.2156   43.7838 H   0  0  0  0  0  0  0  0  0  0  0  0
   58.2083   24.7381   43.7838 H   0  0  0  0  0  0  0  0  0  0  0  0
   56.8792   26.2610   46.8326 H   0  0  0  0  0  0  0  0  0  0  0  0
   57.5644   28.5143   47.6468 H   0  0  0  0  0  0  0  0  0  0  0  0
   59.0701   30.3897   47.3904 H   0  0  0  0  0  0  0  0  0  0  0  0
   59.9202   30.6934   45.8137 H   0  0  0  0  0  0  0  0  0  0  0  0
   57.0140   31.0670   45.9950 H   0  0  0  0  0  0  0  0  0  0  0  0
   58.7390   33.9364   43.9914 H   0  0  0  0  0  0  0  0  0  0  0  0
   57.0411   33.5600   43.6334 H   0  0  0  0  0  0  0  0  0  0  0  0
   57.3294   32.3777   47.7035 H   0  0  0  0  0  0  0  0  0  0  0  0
   58.7420   32.2998   49.4630 H   0  0  0  0  0  0  0  0  0  0  0  0
   60.9340   32.7936   50.5184 H   0  0  0  0  0  0  0  0  0  0  0  0
   65.1302   33.1343   49.4424 H   0  0  0  0  0  0  0  0  0  0  0  0
   64.1969   32.5071   48.0416 H   0  0  0  0  0  0  0  0  0  0  0  0
   64.7848   34.2044   48.0416 H   0  0  0  0  0  0  0  0  0  0  0  0
   63.1443   33.8458   51.4169 H   0  0  0  0  0  0  0  0  0  0  0  0
   64.1749   35.0938   50.6376 H   0  0  0  0  0  0  0  0  0  0  0  0
   62.3879   35.2766   50.6376 H   0  0  0  0  0  0  0  0  0  0  0  0
   62.4447   34.2007   46.7080 H   0  0  0  0  0  0  0  0  0  0  0  0
   60.2504   33.7040   45.6585 H   0  0  0  0  0  0  0  0  0  0  0  0
   59.4733   29.3112   43.8412 H   0  0  0  0  0  0  0  0  0  0  0  0
   58.7903   27.0570   43.0286 H   0  0  0  0  0  0  0  0  0  0  0  0
  1  2  1  0
  2  3  2  0
  3  4  1  0
  4  5  2  0
  5  6  1  0
  6  7  1  0
  7  8  1  0
  8  9  2  0
  8 10  1  0
 10 11  1  0
 11 12  1  0
 12 13  1  0
 13 14  2  0
 14 15  1  0
 15 16  2  0
 16 17  1  0
 17 18  1  0
 17 19  1  0
 16 20  1  0
 20 21  2  0
  5 22  1  0
 22 23  2  0
 23  2  1  0
 12  7  1  0
 21 13  1  0
  1 24  1  0
  1 25  1  0
  1 26  1  0
  3 27  1  0
  4 28  1  0
  6 29  1  0
  6 30  1  0
  7 31  1  6
 10 32  1  0
 10 33  1  0
 12 34  1  1
 14 35  1  0
 15 36  1  0
 18 37  1  0
 18 38  1  0
 18 39  1  0
 19 40  1  0
 19 41  1  0
 19 42  1  0
 20 43  1  0
 21 44  1  0
 22 45  1  0
 23 46  1  0
M  CHG  1   7   1
M  END
>  <UniqueID>  (69) 
59

>  <SMILES>  (69) 
Cc1ccc(C[N@@H+]2C(=O)CS[C@@H]2c2ccc(N(C)C)cc2)cc1

>  <Energy>  (69) 
53.77244339142378

>  <Genealogy>  (69) 
Cc1ccc(C[NH+]2C(=O)CSC2c2ccc(N(C)C)cc2)cc1 (protonated)
Cc1ccc(C[N@@H+]2C(=O)CS[C@@H]2c2ccc(N(C)C)cc2)cc1 (chirality)
Cc1ccc(C[N@@H+]2C(=O)CS[C@@H]2c2ccc(N(C)C)cc2)cc1 (3D coordinates assigned)
Cc1ccc(C[N@@H+]2C(=O)CS[C@@H]2c2ccc(N(C)C)cc2)cc1 (nonaromatic ring conformer: 53.77244339142378 kcal/mol)

>  <smiles>  (69) 
Cc1ccc(CN2C(=O)CSC2c2ccc(N(C)C)cc2)cc1

>  <score_type>  (69) 
oracle

>  <origin>  (69) 
adg

>  <m_score__min__energy>  (69) 
-5.7300000000000004

>  <m_primary>  (69) 
energy

$$$$
69:0
     RDKit          3D

 61 63  0  0  0  0  0  0  0  0999 V2000
   56.1140   23.3150   43.1030 C   0  0  0  0  0  0  0  0  0  0  0  0
   55.7290   22.9370   44.5300 C   0  0  0  0  0  0  0  0  0  0  0  0
   54.8610   24.0220   45.1720 C   0  0  0  0  0  0  0  0  0  0  0  0
   55.8730   25.2420   45.9930 S   0  0  0  0  0  0  0  0  0  0  0  0
   56.1410   24.8040   47.4050 O   0  0  0  0  0  0  0  0  0  0  0  0
   55.1630   26.5660   45.9950 O   0  0  0  0  0  0  0  0  0  0  0  0
   57.3710   25.3890   45.1380 N   0  0  0  0  0  0  0  0  0  0  0  0
   58.5100   26.0510   45.6940 C   0  0  0  0  0  0  0  0  0  0  0  0
   59.5480   25.3940   45.9820 O   0  0  0  0  0  0  0  0  0  0  0  0
   58.4840   27.5390   45.9180 C   0  0  0  0  0  0  0  0  0  0  0  0
   57.5740   28.2290   44.8950 C   0  0  0  0  0  0  0  0  0  0  0  0
   57.4180   29.7350   45.1910 C   0  0  0  0  0  0  0  0  0  0  0  0
   58.6740   30.4150   45.8510 C   0  0  0  0  0  0  0  0  0  0  0  0
   59.9570   29.6190   45.4790 C   0  0  0  0  0  0  0  0  0  0  0  0
   59.9130   28.1240   45.8680 C   0  0  0  0  0  0  0  0  0  0  0  0
   58.8310   31.8630   45.2850 C   0  0  0  0  0  0  0  0  0  0  0  0
   57.9360   32.8590   46.0360 C   0  0  0  0  0  0  0  0  0  0  0  0
   58.2660   32.9510   47.4840 N   0  0  0  0  0  0  0  0  0  0  0  0
   58.9410   34.2220   47.8290 C   0  0  0  0  0  0  0  0  0  0  0  0
   60.0540   34.5450   46.8230 C   0  0  0  0  0  0  0  0  0  0  0  0
   61.3950   34.0750   47.3240 C   0  0  0  0  0  0  0  0  0  0  0  0
   61.6510   33.9990   48.7040 C   0  0  0  0  0  0  0  0  0  0  0  0
   62.8800   33.5200   49.1670 C   0  0  0  0  0  0  0  0  0  0  0  0
   63.8580   33.1090   48.2570 C   0  0  0  0  0  0  0  0  0  0  0  0
   63.6090   33.1720   46.8840 C   0  0  0  0  0  0  0  0  0  0  0  0
   62.3800   33.6480   46.4180 C   0  0  0  0  0  0  0  0  0  0  0  0
   59.0320   31.7960   48.0030 C   0  0  0  0  0  0  0  0  0  0  0  0
   58.5150   30.4780   47.4160 C   0  0  0  0  0  0  0  0  0  0  0  0
   56.8987   24.0855   43.1268 H   0  0  0  0  0  0  0  0  0  0  0  0
   56.4897   22.4252   42.5766 H   0  0  0  0  0  0  0  0  0  0  0  0
   55.2312   23.7069   42.5766 H   0  0  0  0  0  0  0  0  0  0  0  0
   55.1673   21.9914   44.5121 H   0  0  0  0  0  0  0  0  0  0  0  0
   56.6490   22.8289   45.1232 H   0  0  0  0  0  0  0  0  0  0  0  0
   54.2643   24.5154   44.3907 H   0  0  0  0  0  0  0  0  0  0  0  0
   54.2029   23.5513   45.9172 H   0  0  0  0  0  0  0  0  0  0  0  0
   58.0721   27.7280   46.9203 H   0  0  0  0  0  0  0  0  0  0  0  0
   58.0087   28.1064   43.8920 H   0  0  0  0  0  0  0  0  0  0  0  0
   56.5789   27.7640   44.9541 H   0  0  0  0  0  0  0  0  0  0  0  0
   57.2104   30.2500   44.2414 H   0  0  0  0  0  0  0  0  0  0  0  0
   56.6007   29.8222   45.9220 H   0  0  0  0  0  0  0  0  0  0  0  0
   60.1016   29.6877   44.3907 H   0  0  0  0  0  0  0  0  0  0  0  0
   60.7832   30.0687   46.0493 H   0  0  0  0  0  0  0  0  0  0  0  0
   60.4958   27.5551   45.1286 H   0  0  0  0  0  0  0  0  0  0  0  0
   60.3302   28.0426   46.8825 H   0  0  0  0  0  0  0  0  0  0  0  0
   59.8804   32.1760   45.3892 H   0  0  0  0  0  0  0  0  0  0  0  0
   58.5286   31.8556   44.2274 H   0  0  0  0  0  0  0  0  0  0  0  0
   58.0599   33.8538   45.5832 H   0  0  0  0  0  0  0  0  0  0  0  0
   56.8993   32.5003   45.9543 H   0  0  0  0  0  0  0  0  0  0  0  0
   58.2012   35.0360   47.8204 H   0  0  0  0  0  0  0  0  0  0  0  0
   59.3905   34.1199   48.8278 H   0  0  0  0  0  0  0  0  0  0  0  0
   59.8318   34.0442   45.8691 H   0  0  0  0  0  0  0  0  0  0  0  0
   60.0956   35.6359   46.6881 H   0  0  0  0  0  0  0  0  0  0  0  0
   60.8813   34.3177   49.4224 H   0  0  0  0  0  0  0  0  0  0  0  0
   63.0774   33.4665   50.2478 H   0  0  0  0  0  0  0  0  0  0  0  0
   64.8257   32.7352   48.6228 H   0  0  0  0  0  0  0  0  0  0  0  0
   64.3798   32.8471   46.1696 H   0  0  0  0  0  0  0  0  0  0  0  0
   62.1832   33.6884   45.3365 H   0  0  0  0  0  0  0  0  0  0  0  0
   60.0914   31.9177   47.7330 H   0  0  0  0  0  0  0  0  0  0  0  0
   58.9113   31.7612   49.0958 H   0  0  0  0  0  0  0  0  0  0  0  0
   59.0804   29.6466   47.8623 H   0  0  0  0  0  0  0  0  0  0  0  0
   57.4420   30.4057   47.6474 H   0  0  0  0  0  0  0  0  0  0  0  0
  1  2  1  0
  2  3  1  0
  3  4  1  0
  4  5  2  0
  4  6  2  0
  4  7  1  0
  7  8  1  0
  8  9  2  0
  8 10  1  0
 10 11  1  0
 11 12  1  0
 12 13  1  0
 13 14  1  0
 14 15  1  0
 13 16  1  0
 16 17  1  0
 17 18  1  0
 18 19  1  0
 19 20  1  0
 20 21  1  0
 21 22  2  0
 22 23  1  0
 23 24  2  0
 24 25  1  0
 25 26  2  0
 18 27  1  0
 27 28  1  0
 15 10  1  0
 26 21  1  0
 28 13  1  0
  1 29  1  0
  1 30  1  0
  1 31  1  0
  2 32  1  0
  2 33  1  0
  3 34  1  0
  3 35  1  0
 10 36  1  0
 11 37  1  0
 11 38  1  0
 12 39  1  0
 12 40  1  0
 14 41  1  0
 14 42  1  0
 15 43  1  0
 15 44  1  0
 16 45  1  0
 16 46  1  0
 17 47  1  0
 17 48  1  0
 19 49  1  0
 19 50  1  0
 20 51  1  0
 20 52  1  0
 22 53  1  0
 23 54  1  0
 24 55  1  0
 25 56  1  0
 26 57  1  0
 27 58  1  0
 27 59  1  0
 28 60  1  0
 28 61  1  0
M  CHG  1   7  -1
M  END
>  <UniqueID>  (70) 
60

>  <SMILES>  (70) 
CCCS(=O)(=O)[N-]C(=O)C1CCC2(CC1)CCN(CCc1ccccc1)CC2

>  <Energy>  (70) 
67.83440772999708

>  <Genealogy>  (70) 
CCCS(=O)(=O)[N-]C(=O)C1CCC2(CC1)CCN(CCc1ccccc1)CC2 (protonated)
CCCS(=O)(=O)[N-]C(=O)C1CCC2(CC1)CCN(CCc1ccccc1)CC2 (3D coordinates assigned)
CCCS(=O)(=O)[N-]C(=O)C1CCC2(CC1)CCN(CCc1ccccc1)CC2 (nonaromatic ring conformer: 67.83440772999708 kcal/mol)

>  <smiles>  (70) 
CCCS(=O)(=O)NC(=O)C1CCC2(CC1)CCN(CCc1ccccc1)CC2

>  <score_type>  (70) 
oracle

>  <origin>  (70) 
adg

>  <m_score__min__energy>  (70) 
-11.68

>  <m_primary>  (70) 
energy

$$$$
70:0
     RDKit          3D

 37 39  0  0  0  0  0  0  0  0999 V2000
   56.2190   25.5870   47.4040 O   0  0  0  0  0  0  0  0  0  0  0  0
   56.1180   25.7670   46.1610 C   0  0  0  0  0  0  0  0  0  0  0  0
   55.7050   27.0390   45.6430 N   0  0  0  0  0  0  0  0  0  0  0  0
   56.5580   28.0940   45.1750 C   0  0  0  0  0  0  0  0  0  0  0  0
   55.9830   29.3360   44.8690 C   0  0  0  0  0  0  0  0  0  0  0  0
   56.7750   30.3840   44.3920 C   0  0  0  0  0  0  0  0  0  0  0  0
   58.1460   30.1950   44.2000 C   0  0  0  0  0  0  0  0  0  0  0  0
   58.7260   28.9540   44.4780 C   0  0  0  0  0  0  0  0  0  0  0  0
   60.0520   28.7650   44.2740 F   0  0  0  0  0  0  0  0  0  0  0  0
   57.9360   27.9020   44.9560 C   0  0  0  0  0  0  0  0  0  0  0  0
   56.4420   24.6800   45.2150 C   0  0  0  0  0  0  0  0  0  0  0  0
   55.4240   24.1690   44.4680 N   0  0  0  0  0  0  0  0  0  0  0  0
   55.6320   23.2330   43.5080 C   0  0  0  0  0  0  0  0  0  0  0  0
   56.9250   22.7850   43.2610 C   0  0  0  0  0  0  0  0  0  0  0  0
   57.9500   23.2650   44.0110 N   0  0  0  0  0  0  0  0  0  0  0  0
   57.7570   24.1880   44.9930 C   0  0  0  0  0  0  0  0  0  0  0  0
   58.9230   24.5670   45.8190 C   0  0  0  0  0  0  0  0  0  0  0  0
   59.9520   23.8370   45.8330 O   0  0  0  0  0  0  0  0  0  0  0  0
   58.9110   25.8010   46.5510 N   0  0  0  0  0  0  0  0  0  0  0  0
   60.0590   26.2630   47.3260 C   0  0  0  0  0  0  0  0  0  0  0  0
   59.7820   27.6160   47.9000 C   0  0  0  0  0  0  0  0  0  0  0  0
   60.6700   28.3860   48.6240 C   0  0  0  0  0  0  0  0  0  0  0  0
   59.9900   29.5450   48.9290 C   0  0  0  0  0  0  0  0  0  0  0  0
   58.7330   29.4100   48.3720 C   0  0  0  0  0  0  0  0  0  0  0  0
   58.6400   28.2490   47.7650 O   0  0  0  0  0  0  0  0  0  0  0  0
   54.9019   29.4862   45.0053 H   0  0  0  0  0  0  0  0  0  0  0  0
   56.3183   31.3592   44.1674 H   0  0  0  0  0  0  0  0  0  0  0  0
   58.7689   31.0228   43.8301 H   0  0  0  0  0  0  0  0  0  0  0  0
   58.3927   26.9225   45.1612 H   0  0  0  0  0  0  0  0  0  0  0  0
   54.7858   22.8324   42.9306 H   0  0  0  0  0  0  0  0  0  0  0  0
   57.1155   22.0491   42.4659 H   0  0  0  0  0  0  0  0  0  0  0  0
   58.0410   26.3810   46.5630 H   0  0  0  0  0  0  0  0  0  0  0  0
   60.2546   25.5541   48.1440 H   0  0  0  0  0  0  0  0  0  0  0  0
   60.9368   26.3252   46.6660 H   0  0  0  0  0  0  0  0  0  0  0  0
   61.7033   28.1285   48.8995 H   0  0  0  0  0  0  0  0  0  0  0  0
   60.3711   30.4042   49.5005 H   0  0  0  0  0  0  0  0  0  0  0  0
   57.9314   30.1611   48.4283 H   0  0  0  0  0  0  0  0  0  0  0  0
  1  2  2  0
  2  3  1  0
  3  4  1  0
  4  5  2  0
  5  6  1  0
  6  7  2  0
  7  8  1  0
  8  9  1  0
  8 10  2  0
  2 11  1  0
 11 12  2  0
 12 13  1  0
 13 14  2  0
 14 15  1  0
 15 16  2  0
 16 17  1  0
 17 18  2  0
 17 19  1  0
 19 20  1  0
 20 21  1  0
 21 22  2  0
 22 23  1  0
 23 24  2  0
 24 25  1  0
 10  4  1  0
 16 11  1  0
 25 21  1  0
  5 26  1  0
  6 27  1  0
  7 28  1  0
 10 29  1  0
 13 30  1  0
 14 31  1  0
 19 32  1  0
 20 33  1  0
 20 34  1  0
 22 35  1  0
 23 36  1  0
 24 37  1  0
M  CHG  1   3  -1
M  END
>  <UniqueID>  (71) 
61

>  <SMILES>  (71) 
O=C([N-]c1cccc(F)c1)c1nccnc1C(=O)NCc1ccco1

>  <Energy>  (71) 
75.33153786220868

>  <Genealogy>  (71) 
O=C([N-]c1cccc(F)c1)c1nccnc1C(=O)NCc1ccco1 (protonated)
O=C([N-]c1cccc(F)c1)c1nccnc1C(=O)NCc1ccco1 (3D coordinates assigned)
O=C([N-]c1cccc(F)c1)c1nccnc1C(=O)NCc1ccco1 (optimized conformer: 75.33153786220868 kcal/mol)

>  <smiles>  (71) 
O=C(NCc1ccco1)c1nccnc1C(=O)Nc1cccc(F)c1

>  <score_type>  (71) 
oracle

>  <origin>  (71) 
adg

>  <m_score__min__energy>  (71) 
-9.2300000000000004

>  <m_primary>  (71) 
energy

$$$$
71:0
     RDKit          3D

 51 54  0  0  0  0  0  0  0  0999 V2000
   62.9340   31.5950   50.8220 C   0  0  0  0  0  0  0  0  0  0  0  0
   61.4820   31.7820   50.7530 N   0  0  0  0  0  0  0  0  0  0  0  0
   60.8510   32.7270   51.6380 C   0  0  0  0  0  0  0  0  0  0  0  0
   61.5090   33.2640   52.5700 O   0  0  0  0  0  0  0  0  0  0  0  0
   59.4140   33.0970   51.4520 C   0  0  0  0  0  0  0  0  0  0  0  0
   59.2190   33.5730   50.0880 N   0  0  0  0  0  0  0  0  0  0  0  0
   59.3170   32.8350   49.0180 C   0  0  0  0  0  0  0  0  0  0  0  0
   59.0640   33.4650   47.6950 C   0  0  0  0  0  0  0  0  0  0  0  0
   57.7810   33.4000   47.1190 C   0  0  0  0  0  0  0  0  0  0  0  0
   57.5330   33.9810   45.8720 C   0  0  0  0  0  0  0  0  0  0  0  0
   58.5610   34.6290   45.1840 C   0  0  0  0  0  0  0  0  0  0  0  0
   59.8390   34.6960   45.7410 C   0  0  0  0  0  0  0  0  0  0  0  0
   60.0960   34.1170   46.9890 C   0  0  0  0  0  0  0  0  0  0  0  0
   61.3430   34.2200   47.5130 F   0  0  0  0  0  0  0  0  0  0  0  0
   59.6470   31.3830   49.1060 C   0  0  0  0  0  0  0  0  0  0  0  0
   58.9070   30.4750   48.3260 C   0  0  0  0  0  0  0  0  0  0  0  0
   59.1750   29.1000   48.3540 C   0  0  0  0  0  0  0  0  0  0  0  0
   58.3870   28.2180   47.5320 N   0  0  0  0  0  0  0  0  0  0  0  0
   59.0440   27.0060   46.4780 S   0  0  0  0  0  0  0  0  0  0  0  0
   60.1930   26.3320   47.1740 O   0  0  0  0  0  0  0  0  0  0  0  0
   57.9970   25.9720   46.1700 O   0  0  0  0  0  0  0  0  0  0  0  0
   59.6460   27.7670   44.9780 C   0  0  0  0  0  0  0  0  0  0  0  0
   58.6850   28.8190   44.5020 C   0  0  0  0  0  0  0  0  0  0  0  0
   57.5090   28.4520   43.8240 C   0  0  0  0  0  0  0  0  0  0  0  0
   56.5990   29.4300   43.4120 C   0  0  0  0  0  0  0  0  0  0  0  0
   56.8510   30.7790   43.6790 C   0  0  0  0  0  0  0  0  0  0  0  0
   58.0130   31.1520   44.3620 C   0  0  0  0  0  0  0  0  0  0  0  0
   58.9250   30.1760   44.7770 C   0  0  0  0  0  0  0  0  0  0  0  0
   60.2080   28.6280   49.1790 C   0  0  0  0  0  0  0  0  0  0  0  0
   60.9500   29.5140   49.9610 C   0  0  0  0  0  0  0  0  0  0  0  0
   60.6830   30.8940   49.9380 C   0  0  0  0  0  0  0  0  0  0  0  0
   63.2488   31.5545   51.8752 H   0  0  0  0  0  0  0  0  0  0  0  0
   63.2067   30.6543   50.3213 H   0  0  0  0  0  0  0  0  0  0  0  0
   63.4362   32.4359   50.3213 H   0  0  0  0  0  0  0  0  0  0  0  0
   58.7803   32.2155   51.6291 H   0  0  0  0  0  0  0  0  0  0  0  0
   59.1389   33.8885   52.1646 H   0  0  0  0  0  0  0  0  0  0  0  0
   56.9676   32.8882   47.6542 H   0  0  0  0  0  0  0  0  0  0  0  0
   56.5263   33.9277   45.4319 H   0  0  0  0  0  0  0  0  0  0  0  0
   58.3636   35.0865   44.2033 H   0  0  0  0  0  0  0  0  0  0  0  0
   60.6476   35.2060   45.1969 H   0  0  0  0  0  0  0  0  0  0  0  0
   58.1006   30.8530   47.6803 H   0  0  0  0  0  0  0  0  0  0  0  0
   57.3450   28.2650   47.5960 H   0  0  0  0  0  0  0  0  0  0  0  0
   60.6236   28.2314   45.1744 H   0  0  0  0  0  0  0  0  0  0  0  0
   59.7435   26.9949   44.2006 H   0  0  0  0  0  0  0  0  0  0  0  0
   57.3043   27.3912   43.6170 H   0  0  0  0  0  0  0  0  0  0  0  0
   55.6834   29.1377   42.8770 H   0  0  0  0  0  0  0  0  0  0  0  0
   56.1350   31.5473   43.3517 H   0  0  0  0  0  0  0  0  0  0  0  0
   58.2099   32.2135   44.5730 H   0  0  0  0  0  0  0  0  0  0  0  0
   59.8341   30.4720   45.3210 H   0  0  0  0  0  0  0  0  0  0  0  0
   60.4342   27.5519   49.2092 H   0  0  0  0  0  0  0  0  0  0  0  0
   61.7545   29.1275   50.6040 H   0  0  0  0  0  0  0  0  0  0  0  0
  1  2  1  0
  2  3  1  0
  3  4  2  0
  3  5  1  0
  5  6  1  0
  6  7  2  0
  7  8  1  0
  8  9  2  0
  9 10  1  0
 10 11  2  0
 11 12  1  0
 12 13  2  0
 13 14  1  0
  7 15  1  0
 15 16  2  0
 16 17  1  0
 17 18  1  0
 18 19  1  0
 19 20  2  0
 19 21  2  0
 19 22  1  0
 22 23  1  0
 23 24  2  0
 24 25  1  0
 25 26  2  0
 26 27  1  0
 27 28  2  0
 17 29  2  0
 29 30  1  0
 30 31  2  0
 31  2  1  0
 13  8  1  0
 31 15  1  0
 28 23  1  0
  1 32  1  0
  1 33  1  0
  1 34  1  0
  5 35  1  0
  5 36  1  0
  9 37  1  0
 10 38  1  0
 11 39  1  0
 12 40  1  0
 16 41  1  0
 18 42  1  0
 22 43  1  0
 22 44  1  0
 24 45  1  0
 25 46  1  0
 26 47  1  0
 27 48  1  0
 28 49  1  0
 29 50  1  0
 30 51  1  0
M  END
>  <UniqueID>  (72) 
62

>  <SMILES>  (72) 
CN1C(=O)CN=C(c2ccccc2F)c2cc(NS(=O)(=O)Cc3ccccc3)ccc21

>  <Energy>  (72) 
69.12390857699644

>  <Genealogy>  (72) 
CN1C(=O)CN=C(c2ccccc2F)c2cc(NS(=O)(=O)Cc3ccccc3)ccc21 (3D coordinates assigned)
CN1C(=O)CN=C(c2ccccc2F)c2cc(NS(=O)(=O)Cc3ccccc3)ccc21 (nonaromatic ring conformer: 69.12390857699644 kcal/mol)

>  <smiles>  (72) 
CN1C(=O)CN=C(c2ccccc2F)c2cc(NS(=O)(=O)Cc3ccccc3)ccc21

>  <score_type>  (72) 
oracle

>  <origin>  (72) 
adg

>  <m_score__min__energy>  (72) 
-8.3900000000000006

>  <m_primary>  (72) 
energy

$$$$
72:0
     RDKit          3D

 42 45  0  0  0  0  0  0  0  0999 V2000
   58.2800   27.4150   47.2210 C   0  0  0  0  0  0  0  0  0  0  0  0
   58.5620   28.3910   48.2180 O   0  0  0  0  0  0  0  0  0  0  0  0
   59.6880   29.2280   48.2110 C   0  0  0  0  0  0  0  0  0  0  0  0
   60.1340   29.8820   47.0470 C   0  0  0  0  0  0  0  0  0  0  0  0
   61.2690   30.6970   47.0880 C   0  0  0  0  0  0  0  0  0  0  0  0
   61.9900   30.8520   48.2850 C   0  0  0  0  0  0  0  0  0  0  0  0
   63.1810   31.6530   48.3420 N   0  0  0  0  0  0  0  0  0  0  0  0
   63.2560   32.9430   48.9730 C   0  0  0  0  0  0  0  0  0  0  0  0
   64.6640   33.4120   49.6600 S   0  0  0  0  0  0  0  0  0  0  0  0
   62.1400   33.8480   48.9820 N   0  0  0  0  0  0  0  0  0  0  0  0
   61.0950   33.8380   48.0010 C   0  0  0  0  0  0  0  0  0  0  0  0
   61.3460   34.2170   46.3750 S   0  0  0  0  0  0  0  0  0  0  0  0
   59.7290   34.0830   45.9460 C   0  0  0  0  0  0  0  0  0  0  0  0
   59.1670   34.2620   44.6840 C   0  0  0  0  0  0  0  0  0  0  0  0
   57.7870   34.0590   44.5370 C   0  0  0  0  0  0  0  0  0  0  0  0
   57.0050   33.6720   45.6390 C   0  0  0  0  0  0  0  0  0  0  0  0
   57.5920   33.4940   46.9030 C   0  0  0  0  0  0  0  0  0  0  0  0
   58.9660   33.7230   47.0540 C   0  0  0  0  0  0  0  0  0  0  0  0
   59.7340   33.5860   48.2280 C   0  0  0  0  0  0  0  0  0  0  0  0
   59.2090   33.1570   49.4920 N   0  0  0  0  0  0  0  0  0  0  0  0
   59.5070   33.6740   50.6990 C   0  0  0  0  0  0  0  0  0  0  0  0
   58.8340   32.9520   51.6590 C   0  0  0  0  0  0  0  0  0  0  0  0
   58.1350   31.9930   50.9520 C   0  0  0  0  0  0  0  0  0  0  0  0
   58.3810   32.1340   49.6350 N   0  0  0  0  0  0  0  0  0  0  0  0
   61.5210   30.2290   49.4490 C   0  0  0  0  0  0  0  0  0  0  0  0
   60.3850   29.4160   49.4090 C   0  0  0  0  0  0  0  0  0  0  0  0
   58.0057   26.4657   47.7044 H   0  0  0  0  0  0  0  0  0  0  0  0
   57.4453   27.7618   46.5941 H   0  0  0  0  0  0  0  0  0  0  0  0
   59.1710   27.2632   46.5941 H   0  0  0  0  0  0  0  0  0  0  0  0
   59.5873   29.7512   46.1015 H   0  0  0  0  0  0  0  0  0  0  0  0
   61.5999   31.2200   46.1786 H   0  0  0  0  0  0  0  0  0  0  0  0
   64.0510   31.2730   47.9050 H   0  0  0  0  0  0  0  0  0  0  0  0
   62.0460   34.5090   49.7840 H   0  0  0  0  0  0  0  0  0  0  0  0
   59.7891   34.5548   43.8254 H   0  0  0  0  0  0  0  0  0  0  0  0
   57.3143   34.2034   43.5543 H   0  0  0  0  0  0  0  0  0  0  0  0
   55.9250   33.5072   45.5108 H   0  0  0  0  0  0  0  0  0  0  0  0
   56.9814   33.1792   47.7621 H   0  0  0  0  0  0  0  0  0  0  0  0
   60.1746   34.5280   50.8863 H   0  0  0  0  0  0  0  0  0  0  0  0
   58.8495   33.1050   52.7482 H   0  0  0  0  0  0  0  0  0  0  0  0
   57.4780   31.2308   51.3964 H   0  0  0  0  0  0  0  0  0  0  0  0
   62.0507   30.3809   50.4011 H   0  0  0  0  0  0  0  0  0  0  0  0
   60.0363   28.9201   50.3268 H   0  0  0  0  0  0  0  0  0  0  0  0
  1  2  1  0
  2  3  1  0
  3  4  2  0
  4  5  1  0
  5  6  2  0
  6  7  1  0
  7  8  1  0
  8  9  2  0
  8 10  1  0
 10 11  1  0
 11 12  1  0
 12 13  1  0
 13 14  2  0
 14 15  1  0
 15 16  2  0
 16 17  1  0
 17 18  2  0
 18 19  1  0
 19 20  1  0
 20 21  1  0
 21 22  2  0
 22 23  1  0
 23 24  2  0
  6 25  1  0
 25 26  2  0
 26  3  1  0
 19 11  2  0
 24 20  1  0
 18 13  1  0
  1 27  1  0
  1 28  1  0
  1 29  1  0
  4 30  1  0
  5 31  1  0
  7 32  1  0
 10 33  1  0
 14 34  1  0
 15 35  1  0
 16 36  1  0
 17 37  1  0
 21 38  1  0
 22 39  1  0
 23 40  1  0
 25 41  1  0
 26 42  1  0
M  END
>  <UniqueID>  (73) 
63

>  <SMILES>  (73) 
COc1ccc(NC(=S)Nc2sc3ccccc3c2-n2cccn2)cc1

>  <Energy>  (73) 
115.9550246929297

>  <Genealogy>  (73) 
COc1ccc(NC(=S)Nc2sc3ccccc3c2-n2cccn2)cc1 (3D coordinates assigned)
COc1ccc(NC(=S)Nc2sc3ccccc3c2-n2cccn2)cc1 (optimized conformer: 115.9550246929297 kcal/mol)

>  <smiles>  (73) 
COc1ccc(NC(=S)Nc2sc3ccccc3c2-n2cccn2)cc1

>  <score_type>  (73) 
oracle

>  <origin>  (73) 
adg

>  <m_score__min__energy>  (73) 
-7.2699999999999996

>  <m_primary>  (73) 
energy

$$$$
73:0
     RDKit          3D

 28 29  0  0  0  0  0  0  0  0999 V2000
   59.4440   28.3880   47.1970 C   0  0  0  0  0  0  0  0  0  0  0  0
   58.5430   29.2080   46.3120 C   0  0  0  0  0  0  0  0  0  0  0  0
   57.2630   28.7220   45.9940 C   0  0  0  0  0  0  0  0  0  0  0  0
   56.4070   29.4630   45.1750 C   0  0  0  0  0  0  0  0  0  0  0  0
   55.1460   28.9700   44.8630 O   0  0  0  0  0  0  0  0  0  0  0  0
   56.8170   30.6980   44.6740 C   0  0  0  0  0  0  0  0  0  0  0  0
   58.0810   31.1980   44.9900 C   0  0  0  0  0  0  0  0  0  0  0  0
   58.9600   30.4610   45.8050 C   0  0  0  0  0  0  0  0  0  0  0  0
   60.2470   31.0050   46.1540 N   0  0  0  0  0  0  0  0  0  0  0  0
   60.4120   32.1270   47.0360 C   0  0  0  0  0  0  0  0  0  0  0  0
   59.4380   32.9010   47.2500 O   0  0  0  0  0  0  0  0  0  0  0  0
   61.7230   32.4180   47.6650 C   0  0  0  0  0  0  0  0  0  0  0  0
   62.6220   33.3370   47.0990 C   0  0  0  0  0  0  0  0  0  0  0  0
   63.7960   33.5810   47.6760 O   0  0  0  0  0  0  0  0  0  0  0  0
   64.1850   32.9790   48.7950 C   0  0  0  0  0  0  0  0  0  0  0  0
   65.3090   33.2590   49.2900 O   0  0  0  0  0  0  0  0  0  0  0  0
   63.3530   32.0400   49.4170 C   0  0  0  0  0  0  0  0  0  0  0  0
   63.8820   31.1490   51.0250 Br  0  0  0  0  0  0  0  0  0  0  0  0
   62.1150   31.7590   48.8380 C   0  0  0  0  0  0  0  0  0  0  0  0
   59.2126   28.5986   48.2516 H   0  0  0  0  0  0  0  0  0  0  0  0
   59.2843   27.3190   46.9930 H   0  0  0  0  0  0  0  0  0  0  0  0
   60.4933   28.6474   46.9930 H   0  0  0  0  0  0  0  0  0  0  0  0
   56.9328   27.7514   46.3927 H   0  0  0  0  0  0  0  0  0  0  0  0
   56.1426   31.2795   44.0282 H   0  0  0  0  0  0  0  0  0  0  0  0
   58.3931   32.1774   44.5983 H   0  0  0  0  0  0  0  0  0  0  0  0
   61.0960   30.6240   45.6780 H   0  0  0  0  0  0  0  0  0  0  0  0
   62.3529   33.8602   46.1696 H   0  0  0  0  0  0  0  0  0  0  0  0
   61.4462   31.0196   49.3027 H   0  0  0  0  0  0  0  0  0  0  0  0
  1  2  1  0
  2  3  2  0
  3  4  1  0
  4  5  1  0
  4  6  2  0
  6  7  1  0
  7  8  2  0
  8  9  1  0
  9 10  1  0
 10 11  2  0
 10 12  1  0
 12 13  2  0
 13 14  1  0
 14 15  1  0
 15 16  2  0
 15 17  1  0
 17 18  1  0
 17 19  2  0
  8  2  1  0
 19 12  1  0
  1 20  1  0
  1 21  1  0
  1 22  1  0
  3 23  1  0
  6 24  1  0
  7 25  1  0
  9 26  1  0
 13 27  1  0
 19 28  1  0
M  CHG  1   5  -1
M  END
>  <UniqueID>  (74) 
64

>  <SMILES>  (74) 
Cc1cc([O-])ccc1NC(=O)c1coc(=O)c(Br)c1

>  <Energy>  (74) 
37.128850492659694

>  <Genealogy>  (74) 
Cc1cc([O-])ccc1NC(=O)c1coc(=O)c(Br)c1 (protonated)
Cc1cc([O-])ccc1NC(=O)c1coc(=O)c(Br)c1 (3D coordinates assigned)
Cc1cc([O-])ccc1NC(=O)c1coc(=O)c(Br)c1 (optimized conformer: 37.128850492659694 kcal/mol)

>  <smiles>  (74) 
Cc1cc(O)ccc1NC(=O)c1coc(=O)c(Br)c1

>  <score_type>  (74) 
oracle

>  <origin>  (74) 
adg

>  <m_score__min__energy>  (74) 
-9.2699999999999996

>  <m_primary>  (74) 
energy

$$$$
74:0
     RDKit          3D

 60 63  0  0  0  0  0  0  0  0999 V2000
   58.0050   26.2410   47.4900 C   0  0  0  0  0  0  0  0  0  0  0  0
   57.5690   25.3610   46.3480 C   0  0  0  0  0  0  0  0  0  0  0  0
   58.2610   24.1590   46.1200 C   0  0  0  0  0  0  0  0  0  0  0  0
   57.8540   23.2810   45.1090 C   0  0  0  0  0  0  0  0  0  0  0  0
   58.7270   21.7700   44.8670 S   0  0  0  0  0  0  0  0  0  0  0  0
   60.0530   21.8550   45.5690 O   0  0  0  0  0  0  0  0  0  0  0  0
   58.9710   21.5450   43.3990 O   0  0  0  0  0  0  0  0  0  0  0  0
   57.7960   20.4500   45.5310 N   0  0  0  0  0  0  0  0  0  0  0  0
   56.5320   20.2590   44.8170 C   0  0  0  0  0  0  0  0  0  0  0  0
   55.5650   19.6230   45.8080 C   0  0  0  0  0  0  0  0  0  0  0  0
   56.1480   19.9100   47.1850 C   0  0  0  0  0  0  0  0  0  0  0  0
   57.4310   20.6900   46.9290 C   0  0  0  0  0  0  0  0  0  0  0  0
   56.7380   23.5960   44.3260 C   0  0  0  0  0  0  0  0  0  0  0  0
   56.0570   24.7980   44.5260 C   0  0  0  0  0  0  0  0  0  0  0  0
   56.4850   25.7030   45.5050 C   0  0  0  0  0  0  0  0  0  0  0  0
   55.7690   26.9370   45.6460 N   0  0  0  0  0  0  0  0  0  0  0  0
   56.3120   28.2240   45.3240 C   0  0  0  0  0  0  0  0  0  0  0  0
   55.5340   29.1560   44.9800 O   0  0  0  0  0  0  0  0  0  0  0  0
   57.7730   28.4750   45.4120 C   0  0  0  0  0  0  0  0  0  0  0  0
   58.2940   29.1660   46.5230 C   0  0  0  0  0  0  0  0  0  0  0  0
   59.6670   29.4250   46.6280 C   0  0  0  0  0  0  0  0  0  0  0  0
   60.3090   30.2860   48.0270 S   0  0  0  0  0  0  0  0  0  0  0  0
   61.1670   29.3590   48.8450 O   0  0  0  0  0  0  0  0  0  0  0  0
   59.1610   30.7480   48.8810 O   0  0  0  0  0  0  0  0  0  0  0  0
   61.2450   31.6680   47.5090 N   0  0  0  0  0  0  0  0  0  0  0  0
   61.9130   32.2910   48.6680 C   0  0  0  0  0  0  0  0  0  0  0  0
   62.2820   33.7530   48.3610 C   0  0  0  0  0  0  0  0  0  0  0  0
   61.1650   34.5800   48.0540 O   0  0  0  0  0  0  0  0  0  0  0  0
   60.0340   33.8620   47.5780 C   0  0  0  0  0  0  0  0  0  0  0  0
   60.4080   32.6210   46.7450 C   0  0  0  0  0  0  0  0  0  0  0  0
   60.5350   28.9840   45.6230 C   0  0  0  0  0  0  0  0  0  0  0  0
   60.0320   28.2980   44.5160 C   0  0  0  0  0  0  0  0  0  0  0  0
   58.6610   28.0440   44.4040 C   0  0  0  0  0  0  0  0  0  0  0  0
   58.2190   27.3660   43.3150 F   0  0  0  0  0  0  0  0  0  0  0  0
   57.7620   25.7506   48.4442 H   0  0  0  0  0  0  0  0  0  0  0  0
   59.0905   26.4088   47.4299 H   0  0  0  0  0  0  0  0  0  0  0  0
   57.4809   27.2062   47.4299 H   0  0  0  0  0  0  0  0  0  0  0  0
   59.1316   23.9057   46.7428 H   0  0  0  0  0  0  0  0  0  0  0  0
   58.3650   19.5730   45.4660 H   0  0  0  0  0  0  0  0  0  0  0  0
   56.1404   21.2275   44.4726 H   0  0  0  0  0  0  0  0  0  0  0  0
   56.6689   19.6216   43.9310 H   0  0  0  0  0  0  0  0  0  0  0  0
   54.5655   20.0722   45.7123 H   0  0  0  0  0  0  0  0  0  0  0  0
   55.4491   18.5436   45.6303 H   0  0  0  0  0  0  0  0  0  0  0  0
   55.4459   20.5102   47.7823 H   0  0  0  0  0  0  0  0  0  0  0  0
   56.3384   18.9847   47.7486 H   0  0  0  0  0  0  0  0  0  0  0  0
   57.2623   21.7638   47.0981 H   0  0  0  0  0  0  0  0  0  0  0  0
   58.2332   20.3674   47.6090 H   0  0  0  0  0  0  0  0  0  0  0  0
   56.3963   22.8945   43.5507 H   0  0  0  0  0  0  0  0  0  0  0  0
   55.1774   25.0361   43.9098 H   0  0  0  0  0  0  0  0  0  0  0  0
   57.6146   29.5066   47.3182 H   0  0  0  0  0  0  0  0  0  0  0  0
   61.2347   32.2638   49.5335 H   0  0  0  0  0  0  0  0  0  0  0  0
   62.8345   31.7321   48.8880 H   0  0  0  0  0  0  0  0  0  0  0  0
   62.7919   34.1730   49.2405 H   0  0  0  0  0  0  0  0  0  0  0  0
   62.9224   33.7384   47.4668 H   0  0  0  0  0  0  0  0  0  0  0  0
   59.4380   33.5355   48.4430 H   0  0  0  0  0  0  0  0  0  0  0  0
   59.4708   34.5395   46.9194 H   0  0  0  0  0  0  0  0  0  0  0  0
   59.4842   32.1112   46.4340 H   0  0  0  0  0  0  0  0  0  0  0  0
   60.9895   32.9601   45.8750 H   0  0  0  0  0  0  0  0  0  0  0  0
   61.6146   29.1780   45.7052 H   0  0  0  0  0  0  0  0  0  0  0  0
   60.7178   27.9552   43.7272 H   0  0  0  0  0  0  0  0  0  0  0  0
  1  2  1  0
  2  3  2  0
  3  4  1  0
  4  5  1  0
  5  6  2  0
  5  7  2  0
  5  8  1  0
  8  9  1  0
  9 10  1  0
 10 11  1  0
 11 12  1  0
  4 13  2  0
 13 14  1  0
 14 15  2  0
 15 16  1  0
 16 17  1  0
 17 18  2  0
 17 19  1  0
 19 20  2  0
 20 21  1  0
 21 22  1  0
 22 23  2  0
 22 24  2  0
 22 25  1  0
 25 26  1  0
 26 27  1  0
 27 28  1  0
 28 29  1  0
 29 30  1  0
 21 31  2  0
 31 32  1  0
 32 33  2  0
 33 34  1  0
 15  2  1  0
 33 19  1  0
 12  8  1  0
 30 25  1  0
  1 35  1  0
  1 36  1  0
  1 37  1  0
  3 38  1  0
  8 39  1  0
  9 40  1  0
  9 41  1  0
 10 42  1  0
 10 43  1  0
 11 44  1  0
 11 45  1  0
 12 46  1  0
 12 47  1  0
 13 48  1  0
 14 49  1  0
 20 50  1  0
 26 51  1  0
 26 52  1  0
 27 53  1  0
 27 54  1  0
 29 55  1  0
 29 56  1  0
 30 57  1  0
 30 58  1  0
 31 59  1  0
 32 60  1  0
M  CHG  2   8   1  16  -1
M  END
>  <UniqueID>  (75) 
65

>  <SMILES>  (75) 
Cc1cc(S(=O)(=O)[NH+]2CCCC2)ccc1[N-]C(=O)c1cc(S(=O)(=O)N2CCOCC2)ccc1F

>  <Energy>  (75) 
83.4825378808582

>  <Genealogy>  (75) 
Cc1cc(S(=O)(=O)[NH+]2CCCC2)ccc1[N-]C(=O)c1cc(S(=O)(=O)N2CCOCC2)ccc1F (protonated)
Cc1cc(S(=O)(=O)[NH+]2CCCC2)ccc1[N-]C(=O)c1cc(S(=O)(=O)N2CCOCC2)ccc1F (3D coordinates assigned)
Cc1cc(S(=O)(=O)[NH+]2CCCC2)ccc1[N-]C(=O)c1cc(S(=O)(=O)N2CCOCC2)ccc1F (nonaromatic ring conformer: 83.4825378808582 kcal/mol)

>  <smiles>  (75) 
Cc1cc(S(=O)(=O)N2CCCC2)ccc1NC(=O)c1cc(S(=O)(=O)N2CCOCC2)ccc1F

>  <score_type>  (75) 
oracle

>  <origin>  (75) 
adg

>  <m_score__min__energy>  (75) 
-11.41

>  <m_primary>  (75) 
energy

$$$$
75:0
     RDKit          3D

 38 40  0  0  0  0  0  0  0  0999 V2000
   57.9110   22.0620   44.4260 C   0  0  0  0  0  0  0  0  0  0  0  0
   56.8250   23.0090   44.8620 C   0  0  0  0  0  0  0  0  0  0  0  0
   55.4990   22.5600   44.9040 C   0  0  0  0  0  0  0  0  0  0  0  0
   54.4870   23.4440   45.2850 C   0  0  0  0  0  0  0  0  0  0  0  0
   53.2890   23.0570   45.3050 O   0  0  0  0  0  0  0  0  0  0  0  0
   54.7740   24.6960   45.6150 O   0  0  0  0  0  0  0  0  0  0  0  0
   56.0190   25.1720   45.6070 C   0  0  0  0  0  0  0  0  0  0  0  0
   56.2450   26.4990   45.9850 C   0  0  0  0  0  0  0  0  0  0  0  0
   57.5370   27.0280   45.9940 C   0  0  0  0  0  0  0  0  0  0  0  0
   57.7450   28.3750   46.4540 N   0  0  0  0  0  0  0  0  0  0  0  0
   57.3520   29.5470   45.7290 C   0  0  0  0  0  0  0  0  0  0  0  0
   56.3510   29.5120   44.9630 O   0  0  0  0  0  0  0  0  0  0  0  0
   58.0940   30.7620   45.9020 N   0  0  0  0  0  0  0  0  0  0  0  0
   57.5650   32.0670   45.6030 C   0  0  0  0  0  0  0  0  0  0  0  0
   56.3950   32.1790   45.1420 O   0  0  0  0  0  0  0  0  0  0  0  0
   58.3850   33.2910   45.7900 C   0  0  0  0  0  0  0  0  0  0  0  0
   59.0750   33.5330   46.9940 C   0  0  0  0  0  0  0  0  0  0  0  0
   59.8910   34.6620   47.1070 C   0  0  0  0  0  0  0  0  0  0  0  0
   60.0110   35.5420   46.0340 C   0  0  0  0  0  0  0  0  0  0  0  0
   59.2670   35.3100   44.8780 C   0  0  0  0  0  0  0  0  0  0  0  0
   58.4820   34.2030   44.7730 N   0  0  0  0  0  0  0  0  0  0  0  0
   58.6190   26.2040   45.6320 C   0  0  0  0  0  0  0  0  0  0  0  0
   58.4050   24.8780   45.2470 C   0  0  0  0  0  0  0  0  0  0  0  0
   57.1020   24.3450   45.2290 C   0  0  0  0  0  0  0  0  0  0  0  0
   58.4019   21.6339   45.3124 H   0  0  0  0  0  0  0  0  0  0  0  0
   57.4720   21.2531   43.8235 H   0  0  0  0  0  0  0  0  0  0  0  0
   58.6526   22.6070   43.8235 H   0  0  0  0  0  0  0  0  0  0  0  0
   55.2567   21.5202   44.6392 H   0  0  0  0  0  0  0  0  0  0  0  0
   55.3955   27.1332   46.2785 H   0  0  0  0  0  0  0  0  0  0  0  0
   58.1680   28.5160   47.4020 H   0  0  0  0  0  0  0  0  0  0  0  0
   59.0710   30.6640   46.2480 H   0  0  0  0  0  0  0  0  0  0  0  0
   58.9722   32.8376   47.8401 H   0  0  0  0  0  0  0  0  0  0  0  0
   60.4376   34.8553   48.0418 H   0  0  0  0  0  0  0  0  0  0  0  0
   60.6845   36.4093   46.0979 H   0  0  0  0  0  0  0  0  0  0  0  0
   59.3147   36.0267   44.0449 H   0  0  0  0  0  0  0  0  0  0  0  0
   57.9710   34.0490   43.8750 H   0  0  0  0  0  0  0  0  0  0  0  0
   59.6421   26.6074   45.6523 H   0  0  0  0  0  0  0  0  0  0  0  0
   59.2584   24.2477   44.9566 H   0  0  0  0  0  0  0  0  0  0  0  0
  1  2  1  0
  2  3  2  0
  3  4  1  0
  4  5  2  0
  4  6  1  0
  6  7  1  0
  7  8  2  0
  8  9  1  0
  9 10  1  0
 10 11  1  0
 11 12  2  0
 11 13  1  0
 13 14  1  0
 14 15  2  0
 14 16  1  0
 16 17  2  0
 17 18  1  0
 18 19  2  0
 19 20  1  0
 20 21  2  0
  9 22  2  0
 22 23  1  0
 23 24  2  0
 24  2  1  0
 24  7  1  0
 21 16  1  0
  1 25  1  0
  1 26  1  0
  1 27  1  0
  3 28  1  0
  8 29  1  0
 10 30  1  0
 13 31  1  0
 17 32  1  0
 18 33  1  0
 19 34  1  0
 20 35  1  0
 21 36  1  0
 22 37  1  0
 23 38  1  0
M  CHG  1  21   1
M  END
>  <UniqueID>  (76) 
66

>  <SMILES>  (76) 
Cc1cc(=O)oc2cc(NC(=O)NC(=O)c3cccc[nH+]3)ccc12

>  <Energy>  (76) 
53.843128435982

>  <Genealogy>  (76) 
Cc1cc(=O)oc2cc(NC(=O)NC(=O)c3cccc[nH+]3)ccc12 (protonated)
Cc1cc(=O)oc2cc(NC(=O)NC(=O)c3cccc[nH+]3)ccc12 (3D coordinates assigned)
Cc1cc(=O)oc2cc(NC(=O)NC(=O)c3cccc[nH+]3)ccc12 (optimized conformer: 53.843128435982 kcal/mol)

>  <smiles>  (76) 
Cc1cc(=O)oc2cc(NC(=O)NC(=O)c3ccccn3)ccc12

>  <score_type>  (76) 
oracle

>  <origin>  (76) 
adg

>  <m_score__min__energy>  (76) 
-6.5599999999999996

>  <m_primary>  (76) 
energy

$$$$
76:0
     RDKit          3D

 50 52  0  0  0  0  0  0  0  0999 V2000
   58.9010   29.7140   49.1890 C   0  0  0  0  0  0  0  0  0  0  0  0
   58.5320   30.4190   50.4900 C   0  0  0  0  0  0  0  0  0  0  0  0
   58.2580   31.9070   50.2560 C   0  0  0  0  0  0  0  0  0  0  0  0
   59.2220   32.4560   49.2960 N   0  0  0  0  0  0  0  0  0  0  0  0
   58.7480   32.9820   48.1660 N   0  0  0  0  0  0  0  0  0  0  0  0
   59.5440   33.4980   47.1950 C   0  0  0  0  0  0  0  0  0  0  0  0
   58.8710   34.1290   46.0420 C   0  0  0  0  0  0  0  0  0  0  0  0
   59.4730   35.0340   45.4010 O   0  0  0  0  0  0  0  0  0  0  0  0
   57.6050   33.6460   45.5770 N   0  0  0  0  0  0  0  0  0  0  0  0
   57.4660   32.7250   44.4560 C   0  0  0  0  0  0  0  0  0  0  0  0
   57.1620   31.3570   44.9780 C   0  0  0  0  0  0  0  0  0  0  0  0
   56.2170   30.6910   44.4750 O   0  0  0  0  0  0  0  0  0  0  0  0
   57.9950   30.7770   45.9880 N   0  0  0  0  0  0  0  0  0  0  0  0
   58.3960   29.3990   45.9710 C   0  0  0  0  0  0  0  0  0  0  0  0
   59.7360   29.0710   45.7170 C   0  0  0  0  0  0  0  0  0  0  0  0
   60.1340   27.7330   45.6450 C   0  0  0  0  0  0  0  0  0  0  0  0
   59.1960   26.7120   45.8070 C   0  0  0  0  0  0  0  0  0  0  0  0
   57.8510   27.0240   46.0470 C   0  0  0  0  0  0  0  0  0  0  0  0
   56.6530   25.7420   46.1840 S   0  0  0  0  0  0  0  0  0  0  0  0
   55.0710   26.4120   45.9950 N   0  0  0  0  0  0  0  0  0  0  0  0
   56.8880   24.7080   45.1180 O   0  0  0  0  0  0  0  0  0  0  0  0
   56.7620   25.0810   47.5290 O   0  0  0  0  0  0  0  0  0  0  0  0
   57.4540   28.3660   46.1260 C   0  0  0  0  0  0  0  0  0  0  0  0
   60.9470   33.4410   47.3590 C   0  0  0  0  0  0  0  0  0  0  0  0
   61.8500   33.8550   46.3560 C   0  0  0  0  0  0  0  0  0  0  0  0
   63.2290   33.7880   46.5700 C   0  0  0  0  0  0  0  0  0  0  0  0
   63.7300   33.2930   47.7730 C   0  0  0  0  0  0  0  0  0  0  0  0
   62.8550   32.8440   48.7620 C   0  0  0  0  0  0  0  0  0  0  0  0
   61.4620   32.9010   48.5630 C   0  0  0  0  0  0  0  0  0  0  0  0
   60.5690   32.4080   49.5320 C   0  0  0  0  0  0  0  0  0  0  0  0
   61.0080   31.9130   50.6070 O   0  0  0  0  0  0  0  0  0  0  0  0
   59.4000   28.7607   49.4173 H   0  0  0  0  0  0  0  0  0  0  0  0
   57.9888   29.5199   48.6056 H   0  0  0  0  0  0  0  0  0  0  0  0
   59.5803   30.3529   48.6056 H   0  0  0  0  0  0  0  0  0  0  0  0
   57.6296   29.9497   50.9088 H   0  0  0  0  0  0  0  0  0  0  0  0
   59.3773   30.3264   51.1878 H   0  0  0  0  0  0  0  0  0  0  0  0
   57.2396   32.0307   49.8590 H   0  0  0  0  0  0  0  0  0  0  0  0
   58.3574   32.4442   51.2107 H   0  0  0  0  0  0  0  0  0  0  0  0
   56.6462   33.0604   43.8038 H   0  0  0  0  0  0  0  0  0  0  0  0
   58.4025   32.7008   43.8794 H   0  0  0  0  0  0  0  0  0  0  0  0
   58.3640   31.3980   46.7440 H   0  0  0  0  0  0  0  0  0  0  0  0
   60.4774   29.8709   45.5737 H   0  0  0  0  0  0  0  0  0  0  0  0
   61.1894   27.4839   45.4602 H   0  0  0  0  0  0  0  0  0  0  0  0
   59.5132   25.6605   45.7462 H   0  0  0  0  0  0  0  0  0  0  0  0
   55.1720   27.4500   46.0600 H   0  0  0  0  0  0  0  0  0  0  0  0
   56.3981   28.6131   46.3105 H   0  0  0  0  0  0  0  0  0  0  0  0
   61.4646   34.2336   45.3978 H   0  0  0  0  0  0  0  0  0  0  0  0
   63.9221   34.1272   45.7861 H   0  0  0  0  0  0  0  0  0  0  0  0
   64.8163   33.2565   47.9424 H   0  0  0  0  0  0  0  0  0  0  0  0
   63.2559   32.4424   49.7043 H   0  0  0  0  0  0  0  0  0  0  0  0
  1  2  1  0
  2  3  1  0
  3  4  1  0
  4  5  1  0
  5  6  2  0
  6  7  1  0
  7  8  2  0
  7  9  1  0
  9 10  1  0
 10 11  1  0
 11 12  2  0
 11 13  1  0
 13 14  1  0
 14 15  2  0
 15 16  1  0
 16 17  2  0
 17 18  1  0
 18 19  1  0
 19 20  1  0
 19 21  2  0
 19 22  2  0
 18 23  2  0
  6 24  1  0
 24 25  2  0
 25 26  1  0
 26 27  2  0
 27 28  1  0
 28 29  2  0
 29 30  1  0
 30 31  2  0
 30  4  1  0
 23 14  1  0
 29 24  1  0
  1 32  1  0
  1 33  1  0
  1 34  1  0
  2 35  1  0
  2 36  1  0
  3 37  1  0
  3 38  1  0
 10 39  1  0
 10 40  1  0
 13 41  1  0
 15 42  1  0
 16 43  1  0
 17 44  1  0
 20 45  1  0
 23 46  1  0
 25 47  1  0
 26 48  1  0
 27 49  1  0
 28 50  1  0
M  CHG  2   9  -1  20  -1
M  END
>  <UniqueID>  (77) 
67

>  <SMILES>  (77) 
CCCn1nc(C(=O)[N-]CC(=O)Nc2cccc(S([NH-])(=O)=O)c2)c2ccccc2c1=O

>  <Energy>  (77) 
58.53870031606507

>  <Genealogy>  (77) 
CCCn1nc(C(=O)[N-]CC(=O)Nc2cccc(S([NH-])(=O)=O)c2)c2ccccc2c1=O (protonated)
CCCn1nc(C(=O)[N-]CC(=O)Nc2cccc(S([NH-])(=O)=O)c2)c2ccccc2c1=O (3D coordinates assigned)
CCCn1nc(C(=O)[N-]CC(=O)Nc2cccc(S([NH-])(=O)=O)c2)c2ccccc2c1=O (optimized conformer: 58.53870031606507 kcal/mol)

>  <smiles>  (77) 
CCCn1nc(C(=O)NCC(=O)Nc2cccc(S(N)(=O)=O)c2)c2ccccc2c1=O

>  <score_type>  (77) 
oracle

>  <origin>  (77) 
adg

>  <m_score__min__energy>  (77) 
-13.220000000000001

>  <m_primary>  (77) 
energy

$$$$
77:0
     RDKit          3D

 46 49  0  0  0  0  0  0  0  0999 V2000
   60.3820   26.1580   47.2130 O   0  0  0  0  0  0  0  0  0  0  0  0
   59.4100   26.1900   46.4100 C   0  0  0  0  0  0  0  0  0  0  0  0
   58.9250   25.0010   45.8660 C   0  0  0  0  0  0  0  0  0  0  0  0
   57.8290   25.0400   44.9820 C   0  0  0  0  0  0  0  0  0  0  0  0
   57.3060   23.8390   44.3730 N   0  0  0  0  0  0  0  0  0  0  0  0
   57.8330   22.5410   44.8100 C   0  0  0  0  0  0  0  0  0  0  0  0
   57.6080   21.4800   43.7320 C   0  0  0  0  0  0  0  0  0  0  0  0
   56.2680   21.4730   43.2940 O   0  0  0  0  0  0  0  0  0  0  0  0
   55.9790   22.6880   42.6460 C   0  0  0  0  0  0  0  0  0  0  0  0
   56.0410   23.8530   43.6280 C   0  0  0  0  0  0  0  0  0  0  0  0
   57.2720   26.2140   44.6840 O   0  0  0  0  0  0  0  0  0  0  0  0
   57.7020   27.3700   45.1790 C   0  0  0  0  0  0  0  0  0  0  0  0
   57.0610   28.5600   44.8210 C   0  0  0  0  0  0  0  0  0  0  0  0
   57.5460   29.7770   45.3110 C   0  0  0  0  0  0  0  0  0  0  0  0
   56.9000   30.9660   44.9640 O   0  0  0  0  0  0  0  0  0  0  0  0
   57.4210   31.8960   44.0110 C   0  0  0  0  0  0  0  0  0  0  0  0
   57.4040   33.3580   44.5120 C   0  0  0  0  0  0  0  0  0  0  0  0
   58.3180   33.5960   45.6920 C   0  0  0  0  0  0  0  0  0  0  0  0
   59.5100   34.3300   45.5450 C   0  0  0  0  0  0  0  0  0  0  0  0
   60.3340   34.5750   46.6520 C   0  0  0  0  0  0  0  0  0  0  0  0
   59.9950   34.0580   47.9050 C   0  0  0  0  0  0  0  0  0  0  0  0
   58.8360   33.2870   48.0500 C   0  0  0  0  0  0  0  0  0  0  0  0
   58.0090   33.0440   46.9470 C   0  0  0  0  0  0  0  0  0  0  0  0
   58.6250   29.7860   46.1440 N   0  0  0  0  0  0  0  0  0  0  0  0
   59.2570   28.6460   46.5270 C   0  0  0  0  0  0  0  0  0  0  0  0
   58.8050   27.4040   46.0540 C   0  0  0  0  0  0  0  0  0  0  0  0
   59.3945   24.0406   46.1251 H   0  0  0  0  0  0  0  0  0  0  0  0
   58.9114   22.6355   45.0051 H   0  0  0  0  0  0  0  0  0  0  0  0
   57.3068   22.2341   45.7259 H   0  0  0  0  0  0  0  0  0  0  0  0
   58.2641   21.6942   42.8755 H   0  0  0  0  0  0  0  0  0  0  0  0
   57.8389   20.4938   44.1610 H   0  0  0  0  0  0  0  0  0  0  0  0
   56.7136   22.8527   41.8440 H   0  0  0  0  0  0  0  0  0  0  0  0
   54.9628   22.6322   42.2285 H   0  0  0  0  0  0  0  0  0  0  0  0
   55.9604   24.7985   43.0717 H   0  0  0  0  0  0  0  0  0  0  0  0
   55.2098   23.7573   44.3421 H   0  0  0  0  0  0  0  0  0  0  0  0
   56.1825   28.5392   44.1594 H   0  0  0  0  0  0  0  0  0  0  0  0
   58.4603   31.6170   43.7830 H   0  0  0  0  0  0  0  0  0  0  0  0
   56.7748   31.8484   43.1221 H   0  0  0  0  0  0  0  0  0  0  0  0
   57.7206   34.0134   43.6873 H   0  0  0  0  0  0  0  0  0  0  0  0
   56.3786   33.5766   44.8447 H   0  0  0  0  0  0  0  0  0  0  0  0
   59.7967   34.7139   44.5548 H   0  0  0  0  0  0  0  0  0  0  0  0
   61.2485   35.1749   46.5342 H   0  0  0  0  0  0  0  0  0  0  0  0
   60.6376   34.2565   48.7755 H   0  0  0  0  0  0  0  0  0  0  0  0
   58.5741   32.8706   49.0339 H   0  0  0  0  0  0  0  0  0  0  0  0
   57.1123   32.4175   47.0632 H   0  0  0  0  0  0  0  0  0  0  0  0
   60.1209   28.6961   47.2061 H   0  0  0  0  0  0  0  0  0  0  0  0
  1  2  2  0
  2  3  1  0
  3  4  2  0
  4  5  1  0
  5  6  1  0
  6  7  1  0
  7  8  1  0
  8  9  1  0
  9 10  1  0
  4 11  1  0
 11 12  1  0
 12 13  2  0
 13 14  1  0
 14 15  1  0
 15 16  1  0
 16 17  1  0
 17 18  1  0
 18 19  2  0
 19 20  1  0
 20 21  2  0
 21 22  1  0
 22 23  2  0
 14 24  2  0
 24 25  1  0
 25 26  2  0
 26  2  1  0
 10  5  1  0
 26 12  1  0
 23 18  1  0
  3 27  1  0
  6 28  1  0
  6 29  1  0
  7 30  1  0
  7 31  1  0
  9 32  1  0
  9 33  1  0
 10 34  1  0
 10 35  1  0
 13 36  1  0
 16 37  1  0
 16 38  1  0
 17 39  1  0
 17 40  1  0
 19 41  1  0
 20 42  1  0
 21 43  1  0
 22 44  1  0
 23 45  1  0
 25 46  1  0
M  END
>  <UniqueID>  (78) 
68

>  <SMILES>  (78) 
O=c1cc(N2CCOCC2)oc2cc(OCCc3ccccc3)ncc12

>  <Energy>  (78) 
63.24407602910127

>  <Genealogy>  (78) 
O=c1cc(N2CCOCC2)oc2cc(OCCc3ccccc3)ncc12 (3D coordinates assigned)
O=c1cc(N2CCOCC2)oc2cc(OCCc3ccccc3)ncc12 (nonaromatic ring conformer: 63.24407602910127 kcal/mol)

>  <smiles>  (78) 
O=c1cc(N2CCOCC2)oc2cc(OCCc3ccccc3)ncc12

>  <score_type>  (78) 
oracle

>  <origin>  (78) 
adg

>  <m_score__min__energy>  (78) 
-8.0800000000000001

>  <m_primary>  (78) 
energy

$$$$
78:0
     RDKit          3D

 27 28  0  0  0  0  0  0  0  0999 V2000
   54.7680   30.3150   45.5940 H   0  0  0  0  0  0  0  0  0  0  0  0
   55.1470   29.6900   44.8490 N   0  0  0  0  0  0  0  0  0  0  0  0
   56.2490   29.0240   44.9850 C   0  0  0  0  0  0  0  0  0  0  0  0
   56.2960   27.8330   45.6170 N   0  0  0  0  0  0  0  0  0  0  0  0
   57.5990   27.4930   45.5480 C   0  0  0  0  0  0  0  0  0  0  0  0
   58.3240   25.8910   46.2830 Br  0  0  0  0  0  0  0  0  0  0  0  0
   58.3120   28.4670   44.8850 C   0  0  0  0  0  0  0  0  0  0  0  0
   59.3938   28.4546   44.6859 H   0  0  0  0  0  0  0  0  0  0  0  0
   57.4520   29.4360   44.5240 N   0  0  0  0  0  0  0  0  0  0  0  0
   57.7990   30.6850   43.8430 C   0  0  0  0  0  0  0  0  0  0  0  0
   58.6898   30.5208   43.2188 H   0  0  0  0  0  0  0  0  0  0  0  0
   56.9483   30.9961   43.2189 H   0  0  0  0  0  0  0  0  0  0  0  0
   58.0890   31.7700   44.8410 C   0  0  0  0  0  0  0  0  0  0  0  0
   58.8570   31.5240   45.9140 C   0  0  0  0  0  0  0  0  0  0  0  0
   59.1504   30.4871   46.1350 H   0  0  0  0  0  0  0  0  0  0  0  0
   59.3190   32.6060   46.8060 C   0  0  0  0  0  0  0  0  0  0  0  0
   59.6535   32.3515   47.8225 H   0  0  0  0  0  0  0  0  0  0  0  0
   59.3440   33.8920   46.4160 C   0  0  0  0  0  0  0  0  0  0  0  0
   59.8010   34.9570   47.3800 C   0  0  0  0  0  0  0  0  0  0  0  0
   60.9001   34.9576   47.4253 H   0  0  0  0  0  0  0  0  0  0  0  0
   59.4369   35.9346   47.0311 H   0  0  0  0  0  0  0  0  0  0  0  0
   59.2860   34.7100   48.6600 O   0  0  0  0  0  0  0  0  0  0  0  0
   59.1360   35.5970   49.0790 H   0  0  0  0  0  0  0  0  0  0  0  0
   58.9390   34.2640   45.0110 C   0  0  0  0  0  0  0  0  0  0  0  0
   58.7899   35.3520   44.9482 H   0  0  0  0  0  0  0  0  0  0  0  0
   59.7299   33.9615   44.3089 H   0  0  0  0  0  0  0  0  0  0  0  0
   57.3880   33.4130   44.5820 S   0  0  0  0  0  0  0  0  0  0  0  0
  1  2  1  0
  2  3  2  0
  3  4  1  0
  4  5  1  0
  5  6  1  0
  5  7  2  0
  7  8  1  0
  7  9  1  0
  9 10  1  0
 10 11  1  0
 10 12  1  0
 10 13  1  0
 13 14  2  0
 14 15  1  0
 14 16  1  0
 16 17  1  0
 16 18  2  0
 18 19  1  0
 19 20  1  0
 19 21  1  0
 19 22  1  0
 22 23  1  0
 18 24  1  0
 24 25  1  0
 24 26  1  0
 24 27  1  0
  9  3  1  0
 27 13  1  0
M  CHG  1   4  -1
M  END
>  <UniqueID>  (79) 
69

>  <SMILES>  (79) 
[H]/N=c1/[n-]c(Br)cn1CC1=CC=C(CO)CS1

>  <Energy>  (79) 
57.15762019512792

>  <Genealogy>  (79) 
N=c1[n-]c(Br)cn1CC1=CC=C(CO)CS1 (protonated)
[H]/N=c1/[n-]c(Br)cn1CC1=CC=C(CO)CS1 (cis-trans isomerization)
[H]/N=c1/[n-]c(Br)cn1CC1=CC=C(CO)CS1 (3D coordinates assigned)
[H]/N=c1/[n-]c(Br)cn1CC1=CC=C(CO)CS1 (nonaromatic ring conformer: 57.15762019512792 kcal/mol)

>  <smiles>  (79) 
N=c1[nH]c(Br)cn1CC1=CC=C(CO)CS1

>  <score_type>  (79) 
oracle

>  <origin>  (79) 
adg

>  <m_score__min__energy>  (79) 
-8.9600000000000009

>  <m_primary>  (79) 
energy

$$$$
79:0
     RDKit          3D

 38 39  0  0  0  0  0  0  0  0999 V2000
   58.2470   32.8310   47.8240 C   0  0  0  0  0  0  0  0  0  0  0  0
   59.1940   33.8500   47.1770 C   0  0  2  0  0  0  0  0  0  0  0  0
   58.7440   34.2450   45.7950 C   0  0  0  0  0  0  0  0  0  0  0  0
   59.2990   35.2020   45.1870 O   0  0  0  0  0  0  0  0  0  0  0  0
   57.6410   33.5570   45.1970 N   0  0  0  0  0  0  0  0  0  0  0  0
   57.7720   32.6700   44.0470 C   0  0  0  0  0  0  0  0  0  0  0  0
   57.5800   31.2400   44.4720 C   0  0  0  0  0  0  0  0  0  0  0  0
   58.4500   30.6440   45.4000 C   0  0  0  0  0  0  0  0  0  0  0  0
   58.2410   29.3260   45.8170 C   0  0  0  0  0  0  0  0  0  0  0  0
   57.1620   28.5890   45.3140 C   0  0  0  0  0  0  0  0  0  0  0  0
   56.8900   26.9390   45.8660 S   0  0  0  0  0  0  0  0  0  0  0  0
   55.1930   26.6560   46.0240 N   0  0  0  0  0  0  0  0  0  0  0  0
   57.5610   26.7320   47.1950 O   0  0  0  0  0  0  0  0  0  0  0  0
   57.4640   25.9640   44.8780 O   0  0  0  0  0  0  0  0  0  0  0  0
   56.2860   29.1840   44.3950 C   0  0  0  0  0  0  0  0  0  0  0  0
   56.4930   30.5020   43.9780 C   0  0  0  0  0  0  0  0  0  0  0  0
   60.6160   33.3270   47.1490 C   0  0  0  0  0  0  0  0  0  0  0  0
   61.6690   34.1690   46.7470 C   0  0  0  0  0  0  0  0  0  0  0  0
   62.9860   33.7010   46.7360 C   0  0  0  0  0  0  0  0  0  0  0  0
   63.2670   32.3910   47.1300 C   0  0  0  0  0  0  0  0  0  0  0  0
   62.2310   31.5460   47.5350 C   0  0  0  0  0  0  0  0  0  0  0  0
   60.9120   32.0100   47.5490 C   0  0  0  0  0  0  0  0  0  0  0  0
   58.3184   32.9078   48.9190 H   0  0  0  0  0  0  0  0  0  0  0  0
   57.2139   33.0387   47.5085 H   0  0  0  0  0  0  0  0  0  0  0  0
   58.5297   31.8159   47.5085 H   0  0  0  0  0  0  0  0  0  0  0  0
   59.1669   34.7558   47.8006 H   0  0  0  0  0  0  0  0  0  0  0  0
   57.0110   32.9319   43.2971 H   0  0  0  0  0  0  0  0  0  0  0  0
   58.7776   32.7854   43.6163 H   0  0  0  0  0  0  0  0  0  0  0  0
   59.2995   31.2168   45.8004 H   0  0  0  0  0  0  0  0  0  0  0  0
   58.9272   28.8661   46.5434 H   0  0  0  0  0  0  0  0  0  0  0  0
   54.7820   26.7200   45.0660 H   0  0  0  0  0  0  0  0  0  0  0  0
   55.4332   28.6118   44.0009 H   0  0  0  0  0  0  0  0  0  0  0  0
   55.8003   30.9634   43.2588 H   0  0  0  0  0  0  0  0  0  0  0  0
   61.4543   35.2030   46.4392 H   0  0  0  0  0  0  0  0  0  0  0  0
   63.8023   34.3655   46.4165 H   0  0  0  0  0  0  0  0  0  0  0  0
   64.3041   32.0246   47.1214 H   0  0  0  0  0  0  0  0  0  0  0  0
   62.4532   30.5138   47.8434 H   0  0  0  0  0  0  0  0  0  0  0  0
   60.1009   31.3421   47.8745 H   0  0  0  0  0  0  0  0  0  0  0  0
  1  2  1  0
  2  3  1  0
  3  4  2  0
  3  5  1  0
  5  6  1  0
  6  7  1  0
  7  8  2  0
  8  9  1  0
  9 10  2  0
 10 11  1  0
 11 12  1  0
 11 13  2  0
 11 14  2  0
 10 15  1  0
 15 16  2  0
  2 17  1  0
 17 18  2  0
 18 19  1  0
 19 20  2  0
 20 21  1  0
 21 22  2  0
 16  7  1  0
 22 17  1  0
  1 23  1  0
  1 24  1  0
  1 25  1  0
  2 26  1  1
  6 27  1  0
  6 28  1  0
  8 29  1  0
  9 30  1  0
 12 31  1  0
 15 32  1  0
 16 33  1  0
 18 34  1  0
 19 35  1  0
 20 36  1  0
 21 37  1  0
 22 38  1  0
M  CHG  2   5  -1  12  -1
M  END
>  <UniqueID>  (80) 
70

>  <SMILES>  (80) 
C[C@H](C(=O)[N-]Cc1ccc(S([NH-])(=O)=O)cc1)c1ccccc1

>  <Energy>  (80) 
34.0039136913345

>  <Genealogy>  (80) 
CC(C(=O)[N-]Cc1ccc(S([NH-])(=O)=O)cc1)c1ccccc1 (protonated)
C[C@H](C(=O)[N-]Cc1ccc(S([NH-])(=O)=O)cc1)c1ccccc1 (chirality)
C[C@H](C(=O)[N-]Cc1ccc(S([NH-])(=O)=O)cc1)c1ccccc1 (3D coordinates assigned)
C[C@H](C(=O)[N-]Cc1ccc(S([NH-])(=O)=O)cc1)c1ccccc1 (optimized conformer: 34.0039136913345 kcal/mol)

>  <smiles>  (80) 
CC(C(=O)NCc1ccc(S(N)(=O)=O)cc1)c1ccccc1

>  <score_type>  (80) 
oracle

>  <origin>  (80) 
adg

>  <m_score__min__energy>  (80) 
-11.890000000000001

>  <m_primary>  (80) 
energy

$$$$
80:0
     RDKit          3D

 51 55  0  0  0  0  0  0  0  0999 V2000
   59.2620   34.2090   43.7400 O   0  0  0  0  0  0  0  0  0  0  0  0
   58.7990   33.3470   44.5400 C   0  0  0  0  0  0  0  0  0  0  0  0
   58.0410   32.2660   44.0580 C   0  0  0  0  0  0  0  0  0  0  0  0
   57.7670   32.0940   42.6890 C   0  0  0  0  0  0  0  0  0  0  0  0
   57.0080   31.0020   42.2560 C   0  0  0  0  0  0  0  0  0  0  0  0
   56.5180   30.0760   43.1800 C   0  0  0  0  0  0  0  0  0  0  0  0
   56.7840   30.2350   44.5430 C   0  0  0  0  0  0  0  0  0  0  0  0
   57.5420   31.3240   44.9890 C   0  0  0  0  0  0  0  0  0  0  0  0
   57.7870   31.4650   46.2880 O   0  0  0  0  0  0  0  0  0  0  0  0
   58.4970   32.4740   46.7800 C   0  0  0  0  0  0  0  0  0  0  0  0
   58.7100   32.5560   48.1610 C   0  0  0  0  0  0  0  0  0  0  0  0
   59.4570   33.6180   48.7020 C   0  0  0  0  0  0  0  0  0  0  0  0
   59.6840   33.7520   50.0780 O   0  0  0  0  0  0  0  0  0  0  0  0
   59.7570   32.6680   51.0010 C   0  0  0  0  0  0  0  0  0  0  0  0
   61.1760   32.5680   51.5790 C   0  0  2  0  0  0  0  0  0  0  0  0
   61.8550   33.7860   51.4040 O   0  0  0  0  0  0  0  0  0  0  0  0
   62.0010   31.4130   50.9620 C   0  0  0  0  0  0  0  0  0  0  0  0
   61.9140   31.3920   49.4950 N   0  0  0  0  0  0  0  0  0  0  0  0
   62.4800   32.2490   48.5950 C   0  0  0  0  0  0  0  0  0  0  0  0
   63.3810   33.3930   48.9510 C   0  0  0  0  0  0  0  0  0  0  0  0
   62.6250   34.5570   49.1190 O   0  0  0  0  0  0  0  0  0  0  0  0
   62.1560   31.9670   47.3060 N   0  0  0  0  0  0  0  0  0  0  0  0
   61.3730   30.8810   47.4180 C   0  0  0  0  0  0  0  0  0  0  0  0
   60.7720   30.1620   46.3880 C   0  0  0  0  0  0  0  0  0  0  0  0
   60.0100   29.0320   46.7350 C   0  0  0  0  0  0  0  0  0  0  0  0
   59.8780   28.6480   48.0880 C   0  0  0  0  0  0  0  0  0  0  0  0
   60.4990   29.3950   49.1060 C   0  0  0  0  0  0  0  0  0  0  0  0
   61.2340   30.5210   48.7270 C   0  0  0  0  0  0  0  0  0  0  0  0
   59.9900   34.5900   47.8480 C   0  0  0  0  0  0  0  0  0  0  0  0
   59.7820   34.5170   46.4680 C   0  0  0  0  0  0  0  0  0  0  0  0
   59.0350   33.4600   45.9210 C   0  0  0  0  0  0  0  0  0  0  0  0
   58.1506   32.8202   41.9572 H   0  0  0  0  0  0  0  0  0  0  0  0
   56.7962   30.8719   41.1844 H   0  0  0  0  0  0  0  0  0  0  0  0
   55.9211   29.2193   42.8340 H   0  0  0  0  0  0  0  0  0  0  0  0
   56.3968   29.5027   45.2668 H   0  0  0  0  0  0  0  0  0  0  0  0
   58.2913   31.7865   48.8262 H   0  0  0  0  0  0  0  0  0  0  0  0
   59.0411   32.8367   51.8190 H   0  0  0  0  0  0  0  0  0  0  0  0
   59.5118   31.7312   50.4793 H   0  0  0  0  0  0  0  0  0  0  0  0
   61.0663   32.3470   52.6510 H   0  0  0  0  0  0  0  0  0  0  0  0
   61.2970   34.3600   50.8170 H   0  0  0  0  0  0  0  0  0  0  0  0
   63.0548   31.5354   51.2529 H   0  0  0  0  0  0  0  0  0  0  0  0
   61.5898   30.4649   51.3388 H   0  0  0  0  0  0  0  0  0  0  0  0
   63.9104   33.1631   49.8874 H   0  0  0  0  0  0  0  0  0  0  0  0
   64.1096   33.5469   48.1414 H   0  0  0  0  0  0  0  0  0  0  0  0
   61.7200   34.2600   49.3950 H   0  0  0  0  0  0  0  0  0  0  0  0
   60.8893   30.4677   45.3379 H   0  0  0  0  0  0  0  0  0  0  0  0
   59.5141   28.4440   45.9486 H   0  0  0  0  0  0  0  0  0  0  0  0
   59.2854   27.7584   48.3477 H   0  0  0  0  0  0  0  0  0  0  0  0
   60.4089   29.1028   50.1626 H   0  0  0  0  0  0  0  0  0  0  0  0
   60.5784   35.4196   48.2670 H   0  0  0  0  0  0  0  0  0  0  0  0
   60.2043   35.2892   45.8081 H   0  0  0  0  0  0  0  0  0  0  0  0
  1  2  2  0
  2  3  1  0
  3  4  2  0
  4  5  1  0
  5  6  2  0
  6  7  1  0
  7  8  2  0
  8  9  1  0
  9 10  1  0
 10 11  2  0
 11 12  1  0
 12 13  1  0
 13 14  1  0
 14 15  1  0
 15 16  1  0
 15 17  1  0
 17 18  1  0
 18 19  1  0
 19 20  1  0
 20 21  1  0
 19 22  2  0
 22 23  1  0
 23 24  2  0
 24 25  1  0
 25 26  2  0
 26 27  1  0
 27 28  2  0
 12 29  2  0
 29 30  1  0
 30 31  2  0
 31  2  1  0
  8  3  1  0
 31 10  1  0
 28 18  1  0
 28 23  1  0
  4 32  1  0
  5 33  1  0
  6 34  1  0
  7 35  1  0
 11 36  1  0
 14 37  1  0
 14 38  1  0
 15 39  1  1
 16 40  1  0
 17 41  1  0
 17 42  1  0
 20 43  1  0
 20 44  1  0
 21 45  1  0
 24 46  1  0
 25 47  1  0
 26 48  1  0
 27 49  1  0
 29 50  1  0
 30 51  1  0
M  END
>  <UniqueID>  (81) 
71

>  <SMILES>  (81) 
O=c1c2ccccc2oc2cc(OC[C@H](O)Cn3c(CO)nc4ccccc43)ccc12

>  <Energy>  (81) 
97.41080701774372

>  <Genealogy>  (81) 
O=c1c2ccccc2oc2cc(OC[C@H](O)Cn3c(CO)nc4ccccc43)ccc12 (chirality)
O=c1c2ccccc2oc2cc(OC[C@H](O)Cn3c(CO)nc4ccccc43)ccc12 (3D coordinates assigned)
O=c1c2ccccc2oc2cc(OC[C@H](O)Cn3c(CO)nc4ccccc43)ccc12 (optimized conformer: 97.41080701774372 kcal/mol)

>  <smiles>  (81) 
O=c1c2ccccc2oc2cc(OCC(O)Cn3c(CO)nc4ccccc43)ccc12

>  <score_type>  (81) 
oracle

>  <origin>  (81) 
adg

>  <m_score__min__energy>  (81) 
-10.199999999999999

>  <m_primary>  (81) 
energy

$$$$
81:0
     RDKit          3D

 37 39  0  0  0  0  0  0  0  0999 V2000
   55.6090   27.8450   44.9600 H   0  0  0  0  0  0  0  0  0  0  0  0
   55.5120   28.8800   44.8590 N   0  0  0  0  0  0  0  0  0  0  0  0
   56.4550   29.6850   45.2250 C   0  0  0  0  0  0  0  0  0  0  0  0
   57.4720   29.2230   45.9990 N   0  0  0  0  0  0  0  0  0  0  0  0
   58.4810   30.0390   46.4030 C   0  0  0  0  0  0  0  0  0  0  0  0
   59.4050   29.5690   47.1190 O   0  0  0  0  0  0  0  0  0  0  0  0
   58.4790   31.3910   46.0200 C   0  0  0  0  0  0  0  0  0  0  0  0
   59.4920   32.2870   46.4060 C   0  0  0  0  0  0  0  0  0  0  0  0
   60.3258   31.9350   47.0312 H   0  0  0  0  0  0  0  0  0  0  0  0
   59.4430   33.6300   45.9960 C   0  0  0  0  0  0  0  0  0  0  0  0
   60.5470   34.5740   46.3870 C   0  0  0  0  0  0  0  0  0  0  0  0
   61.2395   34.6944   45.5409 H   0  0  0  0  0  0  0  0  0  0  0  0
   60.1104   35.5476   46.6546 H   0  0  0  0  0  0  0  0  0  0  0  0
   61.2770   34.0440   47.5380 N   0  0  0  0  0  0  0  0  0  0  0  0
   60.8070   34.0750   48.4710 H   0  0  0  0  0  0  0  0  0  0  0  0
   62.6190   33.5420   47.4290 C   0  0  0  0  0  0  0  0  0  0  0  0
   63.2840   33.7670   46.3810 O   0  0  0  0  0  0  0  0  0  0  0  0
   63.2400   32.7770   48.5360 C   0  0  0  0  0  0  0  0  0  0  0  0
   64.5400   33.0750   48.9840 C   0  0  0  0  0  0  0  0  0  0  0  0
   65.1114   33.8827   48.5032 H   0  0  0  0  0  0  0  0  0  0  0  0
   65.1110   32.3520   50.0360 C   0  0  0  0  0  0  0  0  0  0  0  0
   66.1261   32.5978   50.3811 H   0  0  0  0  0  0  0  0  0  0  0  0
   64.3970   31.3160   50.6530 C   0  0  0  0  0  0  0  0  0  0  0  0
   64.9950   30.5680   51.8070 C   0  0  0  0  0  0  0  0  0  0  0  0
   64.6429   31.0085   52.7515 H   0  0  0  0  0  0  0  0  0  0  0  0
   64.6889   29.5126   51.7580 H   0  0  0  0  0  0  0  0  0  0  0  0
   66.0919   30.6343   51.7580 H   0  0  0  0  0  0  0  0  0  0  0  0
   63.0900   31.0350   50.2300 C   0  0  0  0  0  0  0  0  0  0  0  0
   62.5127   30.2418   50.7275 H   0  0  0  0  0  0  0  0  0  0  0  0
   62.5170   31.7570   49.1800 C   0  0  0  0  0  0  0  0  0  0  0  0
   61.4921   31.5258   48.8544 H   0  0  0  0  0  0  0  0  0  0  0  0
   58.3800   34.0700   45.1920 C   0  0  0  0  0  0  0  0  0  0  0  0
   58.3425   35.1186   44.8619 H   0  0  0  0  0  0  0  0  0  0  0  0
   57.3690   33.1850   44.8080 C   0  0  0  0  0  0  0  0  0  0  0  0
   56.5372   33.5406   44.1822 H   0  0  0  0  0  0  0  0  0  0  0  0
   57.4120   31.8490   45.2170 C   0  0  0  0  0  0  0  0  0  0  0  0
   56.4310   30.9890   44.8410 N   0  0  0  0  0  0  0  0  0  0  0  0
  1  2  1  0
  2  3  2  0
  3  4  1  0
  4  5  1  0
  5  6  2  0
  5  7  1  0
  7  8  2  0
  8  9  1  0
  8 10  1  0
 10 11  1  0
 11 12  1  0
 11 13  1  0
 11 14  1  0
 14 15  1  0
 14 16  1  0
 16 17  2  0
 16 18  1  0
 18 19  2  0
 19 20  1  0
 19 21  1  0
 21 22  1  0
 21 23  2  0
 23 24  1  0
 24 25  1  0
 24 26  1  0
 24 27  1  0
 23 28  1  0
 28 29  1  0
 28 30  2  0
 30 31  1  0
 10 32  2  0
 32 33  1  0
 32 34  1  0
 34 35  1  0
 34 36  2  0
 36 37  1  0
 37  3  1  0
 36  7  1  0
 30 18  1  0
M  CHG  2   4  -1  37  -1
M  END
>  <UniqueID>  (82) 
72

>  <SMILES>  (82) 
[H]/N=c1/[n-]c(=O)c2cc(CNC(=O)c3ccc(C)cc3)ccc2[n-]1

>  <Energy>  (82) 
43.01472458555823

>  <Genealogy>  (82) 
Cc1ccc(C(=O)NCc2ccc3[n-]c(=N)[n-]c(=O)c3c2)cc1 (protonated)
[H]/N=c1/[n-]c(=O)c2cc(CNC(=O)c3ccc(C)cc3)ccc2[n-]1 (cis-trans isomerization)
[H]/N=c1/[n-]c(=O)c2cc(CNC(=O)c3ccc(C)cc3)ccc2[n-]1 (3D coordinates assigned)
[H]/N=c1/[n-]c(=O)c2cc(CNC(=O)c3ccc(C)cc3)ccc2[n-]1 (optimized conformer: 43.01472458555823 kcal/mol)

>  <smiles>  (82) 
Cc1ccc(C(=O)NCc2ccc3[nH]c(=N)[nH]c(=O)c3c2)cc1

>  <score_type>  (82) 
oracle

>  <origin>  (82) 
adg

>  <m_score__min__energy>  (82) 
-11.539999999999999

>  <m_primary>  (82) 
energy

$$$$
82:0
     RDKit          3D

 60 64  0  0  0  0  0  0  0  0999 V2000
   60.7870   28.3790   50.0460 C   0  0  0  0  0  0  0  0  0  0  0  0
   60.5180   29.8080   49.0240 S   0  0  0  0  0  0  0  0  0  0  0  0
   61.8270   30.5150   48.7950 O   0  0  0  0  0  0  0  0  0  0  0  0
   59.5720   30.7510   49.7110 O   0  0  0  0  0  0  0  0  0  0  0  0
   59.8230   29.3070   47.4870 C   0  0  0  0  0  0  0  0  0  0  0  0
   58.5500   28.7220   47.4520 C   0  0  0  0  0  0  0  0  0  0  0  0
   58.0070   28.2840   46.2410 C   0  0  0  0  0  0  0  0  0  0  0  0
   58.7340   28.4250   45.0500 C   0  0  0  0  0  0  0  0  0  0  0  0
   58.1730   27.9020   43.7500 C   0  0  0  0  0  0  0  0  0  0  0  0
   57.0310   28.7840   43.2210 C   0  0  0  0  0  0  0  0  0  0  0  0
   56.9060   30.0630   43.9990 C   0  0  0  0  0  0  0  0  0  0  0  0
   55.9440   30.2120   44.7980 O   0  0  0  0  0  0  0  0  0  0  0  0
   57.8690   31.1120   43.8210 N   0  0  0  0  0  0  0  0  0  0  0  0
   58.0720   32.1620   44.7790 C   0  0  0  0  0  0  0  0  0  0  0  0
   57.1430   33.2060   44.8690 C   0  0  0  0  0  0  0  0  0  0  0  0
   57.3330   34.2400   45.7880 C   0  0  0  0  0  0  0  0  0  0  0  0
   58.4640   34.2510   46.6090 C   0  0  0  0  0  0  0  0  0  0  0  0
   59.4230   33.2320   46.5080 C   0  0  0  0  0  0  0  0  0  0  0  0
   60.6470   33.2680   47.3400 C   0  0  0  0  0  0  0  0  0  0  0  0
   60.5810   33.6360   48.6920 C   0  0  0  0  0  0  0  0  0  0  0  0
   61.7400   33.6820   49.4720 C   0  0  0  0  0  0  0  0  0  0  0  0
   62.9920   33.3770   48.9070 C   0  0  0  0  0  0  0  0  0  0  0  0
   64.2250   33.4610   49.7220 C   0  0  0  0  0  0  0  0  0  0  0  0
   64.3010   34.1790   50.8750 N   0  0  0  0  0  0  0  0  0  0  0  0
   65.5570   33.9470   51.2840 C   0  0  0  0  0  0  0  0  0  0  0  0
   66.1820   34.4240   52.4330 C   0  0  0  0  0  0  0  0  0  0  0  0
   67.5160   34.0300   52.6620 C   0  0  0  0  0  0  0  0  0  0  0  0
   68.3590   34.5970   54.0930 Cl  0  0  0  0  0  0  0  0  0  0  0  0
   68.1770   33.1760   51.7470 C   0  0  0  0  0  0  0  0  0  0  0  0
   67.5090   32.7130   50.5980 C   0  0  0  0  0  0  0  0  0  0  0  0
   66.1930   33.1270   50.4040 C   0  0  0  0  0  0  0  0  0  0  0  0
   65.3680   32.7950   49.4010 N   0  0  0  0  0  0  0  0  0  0  0  0
   63.0570   33.0050   47.5520 C   0  0  0  0  0  0  0  0  0  0  0  0
   61.8930   32.9460   46.7790 C   0  0  0  0  0  0  0  0  0  0  0  0
   59.2200   32.1890   45.5890 C   0  0  0  0  0  0  0  0  0  0  0  0
   60.0100   29.0100   45.0880 C   0  0  0  0  0  0  0  0  0  0  0  0
   60.5480   29.4530   46.2990 C   0  0  0  0  0  0  0  0  0  0  0  0
   60.7322   28.6703   51.1053 H   0  0  0  0  0  0  0  0  0  0  0  0
   60.0150   27.6250   49.8326 H   0  0  0  0  0  0  0  0  0  0  0  0
   61.7803   27.9573   49.8326 H   0  0  0  0  0  0  0  0  0  0  0  0
   57.9751   28.6069   48.3827 H   0  0  0  0  0  0  0  0  0  0  0  0
   57.0065   27.8273   46.2219 H   0  0  0  0  0  0  0  0  0  0  0  0
   58.9779   27.8755   43.0007 H   0  0  0  0  0  0  0  0  0  0  0  0
   57.7685   26.8958   43.9342 H   0  0  0  0  0  0  0  0  0  0  0  0
   57.2282   29.0268   42.1664 H   0  0  0  0  0  0  0  0  0  0  0  0
   56.0898   28.2251   43.3294 H   0  0  0  0  0  0  0  0  0  0  0  0
   58.4050   31.1470   42.9250 H   0  0  0  0  0  0  0  0  0  0  0  0
   56.2600   33.2115   44.2131 H   0  0  0  0  0  0  0  0  0  0  0  0
   56.5906   35.0480   45.8660 H   0  0  0  0  0  0  0  0  0  0  0  0
   58.6030   35.0628   47.3381 H   0  0  0  0  0  0  0  0  0  0  0  0
   59.6099   33.8903   49.1418 H   0  0  0  0  0  0  0  0  0  0  0  0
   61.6729   33.9585   50.5346 H   0  0  0  0  0  0  0  0  0  0  0  0
   65.6540   35.0844   53.1366 H   0  0  0  0  0  0  0  0  0  0  0  0
   69.2176   32.8728   51.9348 H   0  0  0  0  0  0  0  0  0  0  0  0
   68.0085   32.0476   49.8784 H   0  0  0  0  0  0  0  0  0  0  0  0
   64.0284   32.7592   47.0980 H   0  0  0  0  0  0  0  0  0  0  0  0
   61.9543   32.6448   45.7228 H   0  0  0  0  0  0  0  0  0  0  0  0
   59.9667   31.3859   45.5027 H   0  0  0  0  0  0  0  0  0  0  0  0
   60.5892   29.1201   44.1593 H   0  0  0  0  0  0  0  0  0  0  0  0
   61.5447   29.9180   46.3186 H   0  0  0  0  0  0  0  0  0  0  0  0
  1  2  1  0
  2  3  2  0
  2  4  2  0
  2  5  1  0
  5  6  2  0
  6  7  1  0
  7  8  2  0
  8  9  1  0
  9 10  1  0
 10 11  1  0
 11 12  2  0
 11 13  1  0
 13 14  1  0
 14 15  2  0
 15 16  1  0
 16 17  2  0
 17 18  1  0
 18 19  1  0
 19 20  2  0
 20 21  1  0
 21 22  2  0
 22 23  1  0
 23 24  2  0
 24 25  1  0
 25 26  2  0
 26 27  1  0
 27 28  1  0
 27 29  2  0
 29 30  1  0
 30 31  2  0
 31 32  1  0
 22 33  1  0
 33 34  2  0
 18 35  2  0
  8 36  1  0
 36 37  2  0
 37  5  1  0
 35 14  1  0
 34 19  1  0
 32 23  1  0
 31 25  1  0
  1 38  1  0
  1 39  1  0
  1 40  1  0
  6 41  1  0
  7 42  1  0
  9 43  1  0
  9 44  1  0
 10 45  1  0
 10 46  1  0
 13 47  1  0
 15 48  1  0
 16 49  1  0
 17 50  1  0
 20 51  1  0
 21 52  1  0
 26 53  1  0
 29 54  1  0
 30 55  1  0
 33 56  1  0
 34 57  1  0
 35 58  1  0
 36 59  1  0
 37 60  1  0
M  CHG  1  32  -1
M  END
>  <UniqueID>  (83) 
73

>  <SMILES>  (83) 
CS(=O)(=O)c1ccc(CCC(=O)Nc2cccc(-c3ccc(-c4nc5cc(Cl)ccc5[n-]4)cc3)c2)cc1

>  <Energy>  (83) 
101.30626074948304

>  <Genealogy>  (83) 
CS(=O)(=O)c1ccc(CCC(=O)Nc2cccc(-c3ccc(-c4nc5cc(Cl)ccc5[n-]4)cc3)c2)cc1 (protonated)
CS(=O)(=O)c1ccc(CCC(=O)Nc2cccc(-c3ccc(-c4nc5cc(Cl)ccc5[n-]4)cc3)c2)cc1 (3D coordinates assigned)
CS(=O)(=O)c1ccc(CCC(=O)Nc2cccc(-c3ccc(-c4nc5cc(Cl)ccc5[n-]4)cc3)c2)cc1 (optimized conformer: 101.30626074948304 kcal/mol)

>  <smiles>  (83) 
CS(=O)(=O)c1ccc(CCC(=O)Nc2cccc(-c3ccc(-c4nc5cc(Cl)ccc5[nH]4)cc3)c2)cc1

>  <score_type>  (83) 
oracle

>  <origin>  (83) 
adg

>  <m_score__min__energy>  (83) 
-12.130000000000001

>  <m_primary>  (83) 
energy

$$$$
83:0
     RDKit          3D

 48 51  0  0  0  0  0  0  0  0999 V2000
   64.8210   30.3120   52.5530 C   0  0  0  0  0  0  0  0  0  0  0  0
   64.6210   31.7010   52.3110 O   0  0  0  0  0  0  0  0  0  0  0  0
   64.0560   32.2320   51.1410 C   0  0  0  0  0  0  0  0  0  0  0  0
   62.7440   32.7420   51.1100 C   0  0  0  0  0  0  0  0  0  0  0  0
   62.2150   33.2620   49.9260 C   0  0  0  0  0  0  0  0  0  0  0  0
   60.9510   33.7480   49.9070 N   0  0  0  0  0  0  0  0  0  0  0  0
   60.4030   34.2620   48.7770 C   0  0  0  0  0  0  0  0  0  0  0  0
   59.2210   34.6970   48.8240 O   0  0  0  0  0  0  0  0  0  0  0  0
   61.1250   34.3040   47.6090 N   0  0  0  0  0  0  0  0  0  0  0  0
   60.5120   34.8300   46.3710 C   0  0  0  0  0  0  0  0  0  0  0  0
   59.5540   33.8220   45.7880 C   0  0  0  0  0  0  0  0  0  0  0  0
   58.9410   34.0590   44.5480 C   0  0  0  0  0  0  0  0  0  0  0  0
   58.0790   33.1100   43.9930 C   0  0  0  0  0  0  0  0  0  0  0  0
   57.8170   31.9020   44.6640 C   0  0  0  0  0  0  0  0  0  0  0  0
   56.9010   30.8950   44.0740 C   0  0  0  0  0  0  0  0  0  0  0  0
   56.6700   30.9160   42.8350 O   0  0  0  0  0  0  0  0  0  0  0  0
   56.3380   29.8680   44.9080 N   0  0  0  0  0  0  0  0  0  0  0  0
   56.8660   28.7310   45.2620 C   0  0  0  0  0  0  0  0  0  0  0  0
   56.1830   27.6080   45.5880 N   0  0  0  0  0  0  0  0  0  0  0  0
   57.0150   26.5900   45.9400 C   0  0  0  0  0  0  0  0  0  0  0  0
   58.3690   26.9000   45.9020 C   0  0  0  0  0  0  0  0  0  0  0  0
   58.5220   28.5050   45.4150 S   0  0  0  0  0  0  0  0  0  0  0  0
   58.4350   31.6680   45.9060 C   0  0  0  0  0  0  0  0  0  0  0  0
   59.2970   32.6180   46.4590 C   0  0  0  0  0  0  0  0  0  0  0  0
   62.4110   33.8170   47.5870 C   0  0  0  0  0  0  0  0  0  0  0  0
   63.0830   33.8470   46.5180 O   0  0  0  0  0  0  0  0  0  0  0  0
   62.9870   33.2830   48.7540 C   0  0  0  0  0  0  0  0  0  0  0  0
   64.2980   32.7740   48.7810 C   0  0  0  0  0  0  0  0  0  0  0  0
   64.8350   32.2490   49.9740 C   0  0  0  0  0  0  0  0  0  0  0  0
   66.1400   31.7320   50.0390 O   0  0  0  0  0  0  0  0  0  0  0  0
   67.2310   32.3730   50.6920 C   0  0  0  0  0  0  0  0  0  0  0  0
   64.8474   30.1288   53.6373 H   0  0  0  0  0  0  0  0  0  0  0  0
   63.9961   29.7391   52.1043 H   0  0  0  0  0  0  0  0  0  0  0  0
   65.7740   29.9951   52.1043 H   0  0  0  0  0  0  0  0  0  0  0  0
   62.1316   32.7310   52.0237 H   0  0  0  0  0  0  0  0  0  0  0  0
   59.9663   35.7566   46.6024 H   0  0  0  0  0  0  0  0  0  0  0  0
   61.3068   35.0317   45.6378 H   0  0  0  0  0  0  0  0  0  0  0  0
   59.1404   34.9975   44.0099 H   0  0  0  0  0  0  0  0  0  0  0  0
   57.6009   33.3093   43.0226 H   0  0  0  0  0  0  0  0  0  0  0  0
   55.1470   27.5020   45.6160 H   0  0  0  0  0  0  0  0  0  0  0  0
   56.6436   25.5968   46.2325 H   0  0  0  0  0  0  0  0  0  0  0  0
   59.1958   26.2170   46.1470 H   0  0  0  0  0  0  0  0  0  0  0  0
   58.2380   30.7300   46.4457 H   0  0  0  0  0  0  0  0  0  0  0  0
   59.7778   32.4200   47.4283 H   0  0  0  0  0  0  0  0  0  0  0  0
   64.9079   32.7857   47.8656 H   0  0  0  0  0  0  0  0  0  0  0  0
   67.1019   32.2971   51.7818 H   0  0  0  0  0  0  0  0  0  0  0  0
   68.1719   31.8841   50.3993 H   0  0  0  0  0  0  0  0  0  0  0  0
   67.2620   33.4329   50.3993 H   0  0  0  0  0  0  0  0  0  0  0  0
  1  2  1  0
  2  3  1  0
  3  4  2  0
  4  5  1  0
  5  6  1  0
  6  7  1  0
  7  8  2  0
  7  9  1  0
  9 10  1  0
 10 11  1  0
 11 12  2  0
 12 13  1  0
 13 14  2  0
 14 15  1  0
 15 16  2  0
 15 17  1  0
 17 18  2  3
 18 19  1  0
 19 20  1  0
 20 21  2  0
 21 22  1  0
 14 23  1  0
 23 24  2  0
  9 25  1  0
 25 26  2  0
 25 27  1  0
 27 28  1  0
 28 29  2  0
 29 30  1  0
 30 31  1  0
 29  3  1  0
 27  5  2  0
 24 11  1  0
 22 18  1  0
  1 32  1  0
  1 33  1  0
  1 34  1  0
  4 35  1  0
 10 36  1  0
 10 37  1  0
 12 38  1  0
 13 39  1  0
 19 40  1  0
 20 41  1  0
 21 42  1  0
 23 43  1  0
 24 44  1  0
 28 45  1  0
 31 46  1  0
 31 47  1  0
 31 48  1  0
M  CHG  1   6  -1
M  END
>  <UniqueID>  (84) 
74

>  <SMILES>  (84) 
COc1cc2[n-]c(=O)n(Cc3ccc(C(=O)N=c4[nH]ccs4)cc3)c(=O)c2cc1OC

>  <Energy>  (84) 
95.01674635308304

>  <Genealogy>  (84) 
COc1cc2[n-]c(=O)n(Cc3ccc(C(=O)N=c4[nH]ccs4)cc3)c(=O)c2cc1OC (protonated)
COc1cc2[n-]c(=O)n(Cc3ccc(C(=O)N=c4[nH]ccs4)cc3)c(=O)c2cc1OC (3D coordinates assigned)
COc1cc2[n-]c(=O)n(Cc3ccc(C(=O)N=c4[nH]ccs4)cc3)c(=O)c2cc1OC (optimized conformer: 95.01674635308304 kcal/mol)

>  <smiles>  (84) 
COc1cc2[nH]c(=O)n(Cc3ccc(C(=O)N=c4[nH]ccs4)cc3)c(=O)c2cc1OC

>  <score_type>  (84) 
oracle

>  <origin>  (84) 
adg

>  <m_score__min__energy>  (84) 
-9.9199999999999999

>  <m_primary>  (84) 
energy

$$$$
84:0
     RDKit          3D

 47 50  0  0  0  0  0  0  0  0999 V2000
   54.3840   29.3410   45.0250 H   0  0  0  0  0  0  0  0  0  0  0  0
   55.2130   29.7710   44.5580 N   0  0  0  0  0  0  0  0  0  0  0  0
   56.5240   29.6000   45.0930 C   0  0  0  0  0  0  0  0  0  0  0  0
   57.3610   30.5340   44.9850 O   0  0  0  0  0  0  0  0  0  0  0  0
   56.8880   28.3180   45.7260 C   0  0  0  0  0  0  0  0  0  0  0  0
   56.0630   27.2400   45.6130 N   0  0  0  0  0  0  0  0  0  0  0  0
   56.5730   26.1410   46.2100 C   0  0  0  0  0  0  0  0  0  0  0  0
   55.9660   24.9940   46.2760 N   0  0  0  0  0  0  0  0  0  0  0  0
   56.2180   23.8370   45.4590 C   0  0  0  0  0  0  0  0  0  0  0  0
   56.3010   24.0030   44.0700 C   0  0  0  0  0  0  0  0  0  0  0  0
   56.1841   25.0056   43.6329 H   0  0  0  0  0  0  0  0  0  0  0  0
   56.5310   22.9060   43.2350 C   0  0  0  0  0  0  0  0  0  0  0  0
   56.6097   23.0498   42.1473 H   0  0  0  0  0  0  0  0  0  0  0  0
   56.6610   21.6260   43.7820 C   0  0  0  0  0  0  0  0  0  0  0  0
   56.8545   20.7645   43.1260 H   0  0  0  0  0  0  0  0  0  0  0  0
   56.5450   21.4410   45.1630 C   0  0  0  0  0  0  0  0  0  0  0  0
   56.6750   19.8310   45.8440 Cl  0  0  0  0  0  0  0  0  0  0  0  0
   56.3150   22.5400   46.0000 C   0  0  0  0  0  0  0  0  0  0  0  0
   56.2096   22.3898   47.0846 H   0  0  0  0  0  0  0  0  0  0  0  0
   58.0530   26.4460   46.9340 S   0  0  0  0  0  0  0  0  0  0  0  0
   58.0710   28.0620   46.4390 C   0  0  0  0  0  0  0  0  0  0  0  0
   59.0610   29.0380   46.8150 N   0  0  0  0  0  0  0  0  0  0  0  0
   59.3050   29.7750   46.1210 H   0  0  0  0  0  0  0  0  0  0  0  0
   59.6790   29.1080   48.1130 C   0  0  0  0  0  0  0  0  0  0  0  0
   59.2580   28.3870   49.0570 O   0  0  0  0  0  0  0  0  0  0  0  0
   60.8070   30.0340   48.3680 C   0  0  0  0  0  0  0  0  0  0  0  0
   61.3990   30.1240   49.6410 C   0  0  0  0  0  0  0  0  0  0  0  0
   61.0316   29.4890   50.4606 H   0  0  0  0  0  0  0  0  0  0  0  0
   62.4510   31.0150   49.8710 C   0  0  0  0  0  0  0  0  0  0  0  0
   62.9017   31.0790   50.8724 H   0  0  0  0  0  0  0  0  0  0  0  0
   62.9360   31.8260   48.8400 C   0  0  0  0  0  0  0  0  0  0  0  0
   64.0180   32.7240   49.1240 N   0  0  0  0  0  0  0  0  0  0  0  0
   64.3460   33.4390   50.6690 S   0  0  0  0  0  0  0  0  0  0  0  0
   63.9030   32.4990   51.7540 O   0  0  0  0  0  0  0  0  0  0  0  0
   63.5810   34.7270   50.8040 O   0  0  0  0  0  0  0  0  0  0  0  0
   66.0670   33.7300   50.8360 C   0  0  0  0  0  0  0  0  0  0  0  0
   66.7650   34.8950   51.8260 S   0  0  0  0  0  0  0  0  0  0  0  0
   68.3570   34.5480   51.4010 C   0  0  0  0  0  0  0  0  0  0  0  0
   69.2518   35.0552   51.7909 H   0  0  0  0  0  0  0  0  0  0  0  0
   68.3490   33.5120   50.4740 C   0  0  0  0  0  0  0  0  0  0  0  0
   69.2650   33.0928   50.0322 H   0  0  0  0  0  0  0  0  0  0  0  0
   67.0670   33.0530   50.1560 C   0  0  0  0  0  0  0  0  0  0  0  0
   66.8726   32.2399   49.4411 H   0  0  0  0  0  0  0  0  0  0  0  0
   62.3460   31.7420   47.5670 C   0  0  0  0  0  0  0  0  0  0  0  0
   62.7198   32.3738   46.7478 H   0  0  0  0  0  0  0  0  0  0  0  0
   61.2870   30.8600   47.3370 C   0  0  0  0  0  0  0  0  0  0  0  0
   60.8247   30.8116   46.3400 H   0  0  0  0  0  0  0  0  0  0  0  0
  1  2  1  0
  2  3  1  0
  3  4  2  0
  3  5  1  0
  5  6  1  0
  6  7  1  0
  7  8  2  0
  8  9  1  0
  9 10  2  0
 10 11  1  0
 10 12  1  0
 12 13  1  0
 12 14  2  0
 14 15  1  0
 14 16  1  0
 16 17  1  0
 16 18  2  0
 18 19  1  0
  7 20  1  0
 20 21  1  0
 21 22  1  0
 22 23  1  0
 22 24  1  0
 24 25  2  0
 24 26  1  0
 26 27  2  0
 27 28  1  0
 27 29  1  0
 29 30  1  0
 29 31  2  0
 31 32  1  0
 32 33  1  0
 33 34  2  0
 33 35  2  0
 33 36  1  0
 36 37  1  0
 37 38  1  0
 38 39  1  0
 38 40  2  0
 40 41  1  0
 40 42  1  0
 42 43  1  0
 31 44  1  0
 44 45  1  0
 44 46  2  0
 46 47  1  0
 21  5  2  0
 46 26  1  0
 18  9  1  0
 42 36  2  0
M  CHG  3   2  -1   6  -1  32  -1
M  END
>  <UniqueID>  (85) 
75

>  <SMILES>  (85) 
[NH-]C(=O)c1[n-]/c(=N\c2cccc(Cl)c2)sc1NC(=O)c1ccc([N-]S(=O)(=O)c2cccs2)cc1

>  <Energy>  (85) 
122.97344142287473

>  <Genealogy>  (85) 
[NH-]C(=O)c1[n-]c(=Nc2cccc(Cl)c2)sc1NC(=O)c1ccc([N-]S(=O)(=O)c2cccs2)cc1 (protonated)
[NH-]C(=O)c1[n-]/c(=N\c2cccc(Cl)c2)sc1NC(=O)c1ccc([N-]S(=O)(=O)c2cccs2)cc1 (cis-trans isomerization)
[NH-]C(=O)c1[n-]/c(=N\c2cccc(Cl)c2)sc1NC(=O)c1ccc([N-]S(=O)(=O)c2cccs2)cc1 (3D coordinates assigned)
[NH-]C(=O)c1[n-]/c(=N\c2cccc(Cl)c2)sc1NC(=O)c1ccc([N-]S(=O)(=O)c2cccs2)cc1 (optimized conformer: 122.97344142287473 kcal/mol)

>  <smiles>  (85) 
NC(=O)c1[nH]c(=Nc2cccc(Cl)c2)sc1NC(=O)c1ccc(NS(=O)(=O)c2cccs2)cc1

>  <score_type>  (85) 
oracle

>  <origin>  (85) 
adg

>  <m_score__min__energy>  (85) 
-13.359999999999999

>  <m_primary>  (85) 
energy

$$$$
85:0
     RDKit          3D

 61 64  0  0  0  0  0  0  0  0999 V2000
   60.2550   31.6280   52.7480 C   0  0  0  0  0  0  0  0  0  0  0  0
   60.4770   30.3250   52.1250 N   0  0  0  0  0  0  0  0  0  0  0  0
   59.9430   29.1160   52.7550 C   0  0  0  0  0  0  0  0  0  0  0  0
   61.2470   30.2550   50.9140 C   0  0  0  0  0  0  0  0  0  0  0  0
   62.4010   30.7610   50.8930 O   0  0  0  0  0  0  0  0  0  0  0  0
   60.7360   29.5410   49.6750 C   0  0  1  0  0  0  0  0  0  0  0  0
   59.2290   29.3080   49.6260 C   0  0  0  0  0  0  0  0  0  0  0  0
   58.9050   29.1930   48.1320 C   0  0  2  0  0  0  0  0  0  0  0  0
   58.4200   27.8550   47.7420 N   0  0  0  0  0  0  0  0  0  0  0  0
   58.3470   27.6630   46.2840 C   0  0  0  0  0  0  0  0  0  0  0  0
   57.5640   28.7610   45.6000 C   0  0  0  0  0  0  0  0  0  0  0  0
   58.2210   29.9450   45.2240 C   0  0  0  0  0  0  0  0  0  0  0  0
   57.5310   30.9590   44.5370 C   0  0  0  0  0  0  0  0  0  0  0  0
   58.1640   32.1430   44.1300 O   0  0  0  0  0  0  0  0  0  0  0  0
   58.5580   33.1890   44.9770 C   0  0  0  0  0  0  0  0  0  0  0  0
   58.3280   33.0650   46.3530 C   0  0  0  0  0  0  0  0  0  0  0  0
   58.7240   34.0780   47.2310 C   0  0  0  0  0  0  0  0  0  0  0  0
   59.3610   35.2200   46.7410 C   0  0  0  0  0  0  0  0  0  0  0  0
   59.6110   35.3460   45.3710 C   0  0  0  0  0  0  0  0  0  0  0  0
   59.2190   34.3340   44.4910 C   0  0  0  0  0  0  0  0  0  0  0  0
   56.1880   30.7690   44.2010 C   0  0  0  0  0  0  0  0  0  0  0  0
   55.5250   29.5970   44.5720 C   0  0  0  0  0  0  0  0  0  0  0  0
   56.2040   28.5940   45.2710 C   0  0  0  0  0  0  0  0  0  0  0  0
   55.5230   27.4340   45.6210 O   0  0  0  0  0  0  0  0  0  0  0  0
   60.2300   29.5050   47.4250 C   0  0  0  0  0  0  0  0  0  0  0  0
   61.1020   30.1890   48.3970 N   0  0  0  0  0  0  0  0  0  0  0  0
   60.8360   31.6530   48.3760 C   0  0  0  0  0  0  0  0  0  0  0  0
   62.0520   32.3970   47.9120 C   0  0  0  0  0  0  0  0  0  0  0  0
   62.0930   33.2800   46.8510 C   0  0  0  0  0  0  0  0  0  0  0  0
   63.3910   33.7470   46.7920 C   0  0  0  0  0  0  0  0  0  0  0  0
   64.0800   33.1330   47.8180 C   0  0  0  0  0  0  0  0  0  0  0  0
   63.2600   32.3110   48.4980 N   0  0  0  0  0  0  0  0  0  0  0  0
   60.2736   31.5191   53.8424 H   0  0  0  0  0  0  0  0  0  0  0  0
   61.0475   32.3238   52.4353 H   0  0  0  0  0  0  0  0  0  0  0  0
   59.2768   32.0221   52.4353 H   0  0  0  0  0  0  0  0  0  0  0  0
   59.9896   29.2214   53.8489 H   0  0  0  0  0  0  0  0  0  0  0  0
   58.8975   28.9720   52.4447 H   0  0  0  0  0  0  0  0  0  0  0  0
   60.5407   28.2462   52.4447 H   0  0  0  0  0  0  0  0  0  0  0  0
   61.2521   28.5751   49.7777 H   0  0  0  0  0  0  0  0  0  0  0  0
   58.9619   28.3807   50.1540 H   0  0  0  0  0  0  0  0  0  0  0  0
   58.6653   30.1165   50.1145 H   0  0  0  0  0  0  0  0  0  0  0  0
   58.0896   29.8793   47.8597 H   0  0  0  0  0  0  0  0  0  0  0  0
   57.4970   27.6410   48.1870 H   0  0  0  0  0  0  0  0  0  0  0  0
   59.3689   27.6508   45.8770 H   0  0  0  0  0  0  0  0  0  0  0  0
   57.8284   26.7115   46.0950 H   0  0  0  0  0  0  0  0  0  0  0  0
   59.2848   30.0796   45.4695 H   0  0  0  0  0  0  0  0  0  0  0  0
   57.8325   32.1646   46.7453 H   0  0  0  0  0  0  0  0  0  0  0  0
   58.5336   33.9754   48.3095 H   0  0  0  0  0  0  0  0  0  0  0  0
   59.6658   36.0197   47.4321 H   0  0  0  0  0  0  0  0  0  0  0  0
   60.1171   36.2433   44.9854 H   0  0  0  0  0  0  0  0  0  0  0  0
   59.4272   34.4317   43.4153 H   0  0  0  0  0  0  0  0  0  0  0  0
   55.6495   31.5475   43.6407 H   0  0  0  0  0  0  0  0  0  0  0  0
   54.4644   29.4624   44.3133 H   0  0  0  0  0  0  0  0  0  0  0  0
   60.7041   28.5716   47.0873 H   0  0  0  0  0  0  0  0  0  0  0  0
   60.0582   30.1415   46.5445 H   0  0  0  0  0  0  0  0  0  0  0  0
   60.0007   31.8601   47.6909 H   0  0  0  0  0  0  0  0  0  0  0  0
   60.5806   31.9845   49.3933 H   0  0  0  0  0  0  0  0  0  0  0  0
   61.2602   33.5555   46.1873 H   0  0  0  0  0  0  0  0  0  0  0  0
   63.7971   34.4685   46.0677 H   0  0  0  0  0  0  0  0  0  0  0  0
   65.1441   33.2923   48.0465 H   0  0  0  0  0  0  0  0  0  0  0  0
   63.5150   31.7280   49.3260 H   0  0  0  0  0  0  0  0  0  0  0  0
  1  2  1  0
  2  3  1  0
  2  4  1  0
  4  5  2  0
  4  6  1  0
  6  7  1  0
  7  8  1  0
  8  9  1  0
  9 10  1  0
 10 11  1  0
 11 12  2  0
 12 13  1  0
 13 14  1  0
 14 15  1  0
 15 16  2  0
 16 17  1  0
 17 18  2  0
 18 19  1  0
 19 20  2  0
 13 21  2  0
 21 22  1  0
 22 23  2  0
 23 24  1  0
  8 25  1  0
 25 26  1  0
 26 27  1  0
 27 28  1  0
 28 29  2  0
 29 30  1  0
 30 31  2  0
 31 32  1  0
 26  6  1  0
 32 28  1  0
 23 11  1  0
 20 15  1  0
  1 33  1  0
  1 34  1  0
  1 35  1  0
  3 36  1  0
  3 37  1  0
  3 38  1  0
  6 39  1  6
  7 40  1  0
  7 41  1  0
  8 42  1  6
  9 43  1  0
 10 44  1  0
 10 45  1  0
 12 46  1  0
 16 47  1  0
 17 48  1  0
 18 49  1  0
 19 50  1  0
 20 51  1  0
 21 52  1  0
 22 53  1  0
 25 54  1  0
 25 55  1  0
 27 56  1  0
 27 57  1  0
 29 58  1  0
 30 59  1  0
 31 60  1  0
 32 61  1  0
M  CHG  1  24  -1
M  END
>  <UniqueID>  (86) 
76

>  <SMILES>  (86) 
CN(C)C(=O)[C@H]1C[C@H](NCc2cc(Oc3ccccc3)ccc2[O-])CN1Cc1ccc[nH]1

>  <Energy>  (86) 
107.12603334755553

>  <Genealogy>  (86) 
CN(C)C(=O)C1CC(NCc2cc(Oc3ccccc3)ccc2[O-])CN1Cc1ccc[nH]1 (protonated)
CN(C)C(=O)[C@H]1C[C@H](NCc2cc(Oc3ccccc3)ccc2[O-])CN1Cc1ccc[nH]1 (chirality)
CN(C)C(=O)[C@H]1C[C@H](NCc2cc(Oc3ccccc3)ccc2[O-])CN1Cc1ccc[nH]1 (3D coordinates assigned)
CN(C)C(=O)[C@H]1C[C@H](NCc2cc(Oc3ccccc3)ccc2[O-])CN1Cc1ccc[nH]1 (nonaromatic ring conformer: 107.12603334755553 kcal/mol)

>  <smiles>  (86) 
CN(C)C(=O)C1CC(NCc2cc(Oc3ccccc3)ccc2O)CN1Cc1ccc[nH]1

>  <score_type>  (86) 
oracle

>  <origin>  (86) 
adg

>  <m_score__min__energy>  (86) 
-11.18

>  <m_primary>  (86) 
energy

$$$$
86:0
     RDKit          3D

 28 29  0  0  0  0  0  0  0  0999 V2000
   58.9620   31.6950   46.8470 C   0  0  0  0  0  0  0  0  0  0  0  0
   58.1730   31.1220   45.7490 N   0  0  0  0  0  0  0  0  0  0  0  0
   57.4360   29.9900   45.9670 C   0  0  0  0  0  0  0  0  0  0  0  0
   56.6590   29.4320   44.9480 C   0  0  0  0  0  0  0  0  0  0  0  0
   55.9090   28.2370   45.2140 N   0  0  0  0  0  0  0  0  0  0  0  0
   56.3510   27.1180   45.9950 C   0  0  0  0  0  0  0  0  0  0  0  0
   55.5070   26.2410   46.3200 O   0  0  0  0  0  0  0  0  0  0  0  0
   57.7720   26.9360   46.3790 C   0  0  0  0  0  0  0  0  0  0  0  0
   58.6230   26.1110   45.6220 C   0  0  0  0  0  0  0  0  0  0  0  0
   59.9620   25.9460   45.9950 C   0  0  0  0  0  0  0  0  0  0  0  0
   60.4580   26.5930   47.1280 C   0  0  0  0  0  0  0  0  0  0  0  0
   59.6160   27.4020   47.8970 C   0  0  0  0  0  0  0  0  0  0  0  0
   58.2770   27.5700   47.5280 C   0  0  0  0  0  0  0  0  0  0  0  0
   56.6760   30.0280   43.6810 C   0  0  0  0  0  0  0  0  0  0  0  0
   57.4250   31.1830   43.4650 C   0  0  0  0  0  0  0  0  0  0  0  0
   57.4210   31.9310   41.8740 Cl  0  0  0  0  0  0  0  0  0  0  0  0
   58.1720   31.7270   44.5180 C   0  0  0  0  0  0  0  0  0  0  0  0
   58.8470   32.7770   44.3230 O   0  0  0  0  0  0  0  0  0  0  0  0
   58.5316   31.3824   47.8098 H   0  0  0  0  0  0  0  0  0  0  0  0
   60.0005   31.3392   46.7768 H   0  0  0  0  0  0  0  0  0  0  0  0
   58.9450   32.7926   46.7768 H   0  0  0  0  0  0  0  0  0  0  0  0
   57.4553   29.5126   46.9578 H   0  0  0  0  0  0  0  0  0  0  0  0
   58.2346   25.5930   44.7327 H   0  0  0  0  0  0  0  0  0  0  0  0
   60.6244   25.3054   45.3943 H   0  0  0  0  0  0  0  0  0  0  0  0
   61.5120   26.4663   47.4161 H   0  0  0  0  0  0  0  0  0  0  0  0
   60.0067   27.9068   48.7929 H   0  0  0  0  0  0  0  0  0  0  0  0
   57.6159   28.2013   48.1399 H   0  0  0  0  0  0  0  0  0  0  0  0
   56.0983   29.5846   42.8566 H   0  0  0  0  0  0  0  0  0  0  0  0
  1  2  1  0
  2  3  1  0
  3  4  2  0
  4  5  1  0
  5  6  1  0
  6  7  2  0
  6  8  1  0
  8  9  2  0
  9 10  1  0
 10 11  2  0
 11 12  1  0
 12 13  2  0
  4 14  1  0
 14 15  2  0
 15 16  1  0
 15 17  1  0
 17 18  2  0
 17  2  1  0
 13  8  1  0
  1 19  1  0
  1 20  1  0
  1 21  1  0
  3 22  1  0
  9 23  1  0
 10 24  1  0
 11 25  1  0
 12 26  1  0
 13 27  1  0
 14 28  1  0
M  CHG  1   5  -1
M  END
>  <UniqueID>  (87) 
77

>  <SMILES>  (87) 
Cn1cc([N-]C(=O)c2ccccc2)cc(Cl)c1=O

>  <Energy>  (87) 
37.862198740122196

>  <Genealogy>  (87) 
Cn1cc([N-]C(=O)c2ccccc2)cc(Cl)c1=O (protonated)
Cn1cc([N-]C(=O)c2ccccc2)cc(Cl)c1=O (3D coordinates assigned)
Cn1cc([N-]C(=O)c2ccccc2)cc(Cl)c1=O (optimized conformer: 37.862198740122196 kcal/mol)

>  <smiles>  (87) 
Cn1cc(NC(=O)c2ccccc2)cc(Cl)c1=O

>  <score_type>  (87) 
oracle

>  <origin>  (87) 
adg

>  <m_score__min__energy>  (87) 
-8.3000000000000007

>  <m_primary>  (87) 
energy

$$$$
87:0
     RDKit          3D

 45 47  0  0  0  0  0  0  0  0999 V2000
   54.8070   26.3350   45.9890 N   0  0  0  0  0  0  0  0  0  0  0  0
   55.6900   25.2360   46.2120 C   0  0  0  0  0  0  0  0  0  0  0  0
   56.1990   25.0940   47.3560 O   0  0  0  0  0  0  0  0  0  0  0  0
   55.9980   24.2570   45.1320 C   0  0  0  0  0  0  0  0  0  0  0  0
   55.0230   24.0110   44.1430 C   0  0  0  0  0  0  0  0  0  0  0  0
   55.2660   23.1120   43.1040 C   0  0  0  0  0  0  0  0  0  0  0  0
   56.4860   22.4470   43.0270 C   0  0  0  0  0  0  0  0  0  0  0  0
   57.4650   22.6660   43.9970 C   0  0  0  0  0  0  0  0  0  0  0  0
   57.2290   23.5500   45.0680 C   0  0  0  0  0  0  0  0  0  0  0  0
   58.2420   23.7700   46.0630 N   0  0  0  0  0  0  0  0  0  0  0  0
   59.2670   24.7740   46.0380 C   0  0  0  0  0  0  0  0  0  0  0  0
   60.4810   24.4380   45.9970 O   0  0  0  0  0  0  0  0  0  0  0  0
   58.8990   26.2080   46.1180 C   0  0  0  0  0  0  0  0  0  0  0  0
   58.9500   26.8920   47.3450 C   0  0  0  0  0  0  0  0  0  0  0  0
   58.6060   28.2430   47.4140 C   0  0  0  0  0  0  0  0  0  0  0  0
   58.2100   28.9290   46.2650 C   0  0  0  0  0  0  0  0  0  0  0  0
   58.1650   28.2680   45.0260 C   0  0  0  0  0  0  0  0  0  0  0  0
   57.7990   28.9330   43.8070 N   0  0  0  0  0  0  0  0  0  0  0  0
   56.7500   30.3070   43.6360 S   0  0  0  0  0  0  0  0  0  0  0  0
   55.8970   30.0960   42.4170 O   0  0  0  0  0  0  0  0  0  0  0  0
   55.8420   30.4350   44.8270 O   0  0  0  0  0  0  0  0  0  0  0  0
   57.6970   31.8060   43.3970 C   0  0  0  0  0  0  0  0  0  0  0  0
   58.0360   32.4520   44.7100 C   0  0  0  0  0  0  0  0  0  0  0  0
   58.9230   31.8230   45.6010 C   0  0  0  0  0  0  0  0  0  0  0  0
   59.1980   32.3990   46.8460 C   0  0  0  0  0  0  0  0  0  0  0  0
   58.5930   33.6060   47.2070 C   0  0  0  0  0  0  0  0  0  0  0  0
   57.7130   34.2390   46.3250 C   0  0  0  0  0  0  0  0  0  0  0  0
   57.4340   33.6660   45.0800 C   0  0  0  0  0  0  0  0  0  0  0  0
   58.4990   26.9080   44.9640 C   0  0  0  0  0  0  0  0  0  0  0  0
   55.1380   27.3200   46.0910 H   0  0  0  0  0  0  0  0  0  0  0  0
   54.0572   24.5354   44.1915 H   0  0  0  0  0  0  0  0  0  0  0  0
   54.4918   22.9286   42.3444 H   0  0  0  0  0  0  0  0  0  0  0  0
   56.6789   21.7476   42.2002 H   0  0  0  0  0  0  0  0  0  0  0  0
   58.4302   22.1433   43.9246 H   0  0  0  0  0  0  0  0  0  0  0  0
   59.2626   26.3598   48.2555 H   0  0  0  0  0  0  0  0  0  0  0  0
   58.6472   28.7696   48.3789 H   0  0  0  0  0  0  0  0  0  0  0  0
   57.9320   29.9913   46.3296 H   0  0  0  0  0  0  0  0  0  0  0  0
   58.6292   31.5604   42.8671 H   0  0  0  0  0  0  0  0  0  0  0  0
   57.0898   32.5106   42.8097 H   0  0  0  0  0  0  0  0  0  0  0  0
   59.4027   30.8743   45.3182 H   0  0  0  0  0  0  0  0  0  0  0  0
   59.8906   31.9017   47.5410 H   0  0  0  0  0  0  0  0  0  0  0  0
   58.8096   34.0581   48.1861 H   0  0  0  0  0  0  0  0  0  0  0  0
   57.2389   35.1896   46.6105 H   0  0  0  0  0  0  0  0  0  0  0  0
   56.7410   34.1676   44.3885 H   0  0  0  0  0  0  0  0  0  0  0  0
   58.4478   26.3804   44.0001 H   0  0  0  0  0  0  0  0  0  0  0  0
  1  2  1  0
  2  3  2  0
  2  4  1  0
  4  5  2  0
  5  6  1  0
  6  7  2  0
  7  8  1  0
  8  9  2  0
  9 10  1  0
 10 11  1  0
 11 12  2  0
 11 13  1  0
 13 14  2  0
 14 15  1  0
 15 16  2  0
 16 17  1  0
 17 18  1  0
 18 19  1  0
 19 20  2  0
 19 21  2  0
 19 22  1  0
 22 23  1  0
 23 24  2  0
 24 25  1  0
 25 26  2  0
 26 27  1  0
 27 28  2  0
 17 29  2  0
  9  4  1  0
 29 13  1  0
 28 23  1  0
  1 30  1  0
  5 31  1  0
  6 32  1  0
  7 33  1  0
  8 34  1  0
 14 35  1  0
 15 36  1  0
 16 37  1  0
 22 38  1  0
 22 39  1  0
 24 40  1  0
 25 41  1  0
 26 42  1  0
 27 43  1  0
 28 44  1  0
 29 45  1  0
M  CHG  3   1  -1  10  -1  18  -1
M  END
>  <UniqueID>  (88) 
78

>  <SMILES>  (88) 
[NH-]C(=O)c1ccccc1[N-]C(=O)c1cccc([N-]S(=O)(=O)Cc2ccccc2)c1

>  <Energy>  (88) 
52.44495940949777

>  <Genealogy>  (88) 
[NH-]C(=O)c1ccccc1[N-]C(=O)c1cccc([N-]S(=O)(=O)Cc2ccccc2)c1 (protonated)
[NH-]C(=O)c1ccccc1[N-]C(=O)c1cccc([N-]S(=O)(=O)Cc2ccccc2)c1 (3D coordinates assigned)
[NH-]C(=O)c1ccccc1[N-]C(=O)c1cccc([N-]S(=O)(=O)Cc2ccccc2)c1 (optimized conformer: 52.44495940949777 kcal/mol)

>  <smiles>  (88) 
NC(=O)c1ccccc1NC(=O)c1cccc(NS(=O)(=O)Cc2ccccc2)c1

>  <score_type>  (88) 
oracle

>  <origin>  (88) 
adg

>  <m_score__min__energy>  (88) 
-15.69

>  <m_primary>  (88) 
energy

$$$$
88:0
     RDKit          3D

 52 54  0  0  1  0  0  0  0  0999 V2000
   59.5910   27.5580   45.8390 O   0  0  0  0  0  0  0  0  0  0  0  0
   58.5640   26.9660   45.4030 C   0  0  0  0  0  0  0  0  0  0  0  0
   58.4960   25.4580   45.3990 C   0  0  0  0  0  0  0  0  0  0  0  0
   57.9200   25.0550   46.7310 C   0  0  0  0  0  0  0  0  0  0  0  0
   57.7580   23.5690   46.8610 C   0  0  0  0  0  0  0  0  0  0  0  0
   56.3490   23.1640   46.5380 C   0  0  0  0  0  0  0  0  0  0  0  0
   56.1770   22.9610   45.0520 C   0  0  0  0  0  0  0  0  0  0  0  0
   54.7990   23.4250   44.6500 C   0  0  0  0  0  0  0  0  0  0  0  0
   54.5510   24.7810   45.2510 C   0  0  0  0  0  0  0  0  0  0  0  0
   53.2470   25.1220   45.5630 O   0  0  0  0  0  0  0  0  0  0  0  0
   55.4940   25.6080   45.4760 N   0  0  0  0  0  0  0  0  0  0  0  0
   55.2240   26.7580   46.1340 O   0  0  0  0  0  0  0  0  0  0  0  0
   57.4310   27.6720   44.9000 N   0  0  0  0  0  0  0  0  0  0  0  0
   57.5040   29.0930   44.9090 C   0  0  0  0  0  0  0  0  0  0  0  0
   57.9080   29.9220   45.8870 C   0  0  0  0  0  0  0  0  0  0  0  0
   57.8950   31.2510   45.6740 C   0  0  0  0  0  0  0  0  0  0  0  0
   58.2680   32.3000   46.5420 C   0  0  0  0  0  0  0  0  0  0  0  0
   58.6990   32.0780   47.7310 N   0  0  0  0  0  0  0  0  0  0  0  0
   60.1180   31.9920   47.9650 C   0  0  0  0  0  0  0  0  0  0  0  0
   60.5140   31.0630   48.9240 C   0  0  0  0  0  0  0  0  0  0  0  0
   61.8570   30.9070   49.2170 C   0  0  0  0  0  0  0  0  0  0  0  0
   62.7810   31.6850   48.5430 C   0  0  0  0  0  0  0  0  0  0  0  0
   62.3580   32.5980   47.5970 C   0  0  0  0  0  0  0  0  0  0  0  0
   63.5510   33.5850   46.7430 Cl  0  0  0  0  0  0  0  0  0  0  0  0
   61.0190   32.7770   47.2820 C   0  0  0  0  0  0  0  0  0  0  0  0
   58.1780   33.5720   46.1310 N   0  0  0  0  0  0  0  0  0  0  0  0
   57.7460   33.9440   44.9180 C   0  0  0  0  0  0  0  0  0  0  0  0
   57.3810   32.9730   44.0650 N   0  0  0  0  0  0  0  0  0  0  0  0
   57.4600   31.6820   44.4460 C   0  0  0  0  0  0  0  0  0  0  0  0
   57.0450   30.1640   43.5330 S   0  0  0  0  0  0  0  0  0  0  0  0
   57.8471   25.1086   44.5824 H   0  0  0  0  0  0  0  0  0  0  0  0
   59.4905   25.0143   45.2438 H   0  0  0  0  0  0  0  0  0  0  0  0
   58.5921   25.4076   47.5272 H   0  0  0  0  0  0  0  0  0  0  0  0
   56.9214   25.5087   46.8144 H   0  0  0  0  0  0  0  0  0  0  0  0
   58.4473   23.0674   46.1658 H   0  0  0  0  0  0  0  0  0  0  0  0
   57.9842   23.2755   47.8967 H   0  0  0  0  0  0  0  0  0  0  0  0
   56.1152   22.2243   47.0598 H   0  0  0  0  0  0  0  0  0  0  0  0
   55.6683   23.9635   46.8658 H   0  0  0  0  0  0  0  0  0  0  0  0
   56.9356   23.5445   44.5097 H   0  0  0  0  0  0  0  0  0  0  0  0
   56.2974   21.8957   44.8057 H   0  0  0  0  0  0  0  0  0  0  0  0
   54.7354   23.4890   43.5537 H   0  0  0  0  0  0  0  0  0  0  0  0
   54.0437   22.7116   45.0114 H   0  0  0  0  0  0  0  0  0  0  0  0
   52.6050   25.5050   44.8800 H   0  0  0  0  0  0  0  0  0  0  0  0
   54.3080   27.0870   46.3690 H   0  0  0  0  0  0  0  0  0  0  0  0
   56.6110   27.1390   44.5530 H   0  0  0  0  0  0  0  0  0  0  0  0
   58.2462   29.5180   46.8526 H   0  0  0  0  0  0  0  0  0  0  0  0
   59.7611   30.4550   49.4470 H   0  0  0  0  0  0  0  0  0  0  0  0
   62.1842   30.1774   49.9724 H   0  0  0  0  0  0  0  0  0  0  0  0
   63.8538   31.5764   48.7607 H   0  0  0  0  0  0  0  0  0  0  0  0
   60.6944   33.5076   46.5264 H   0  0  0  0  0  0  0  0  0  0  0  0
   57.6924   35.0048   44.6319 H   0  0  0  0  0  0  0  0  0  0  0  0
   57.0390   33.1920   43.1150 H   0  0  0  0  0  0  0  0  0  0  0  0
  1  2  2  0
  2  3  1  0
  3  4  1  0
  4  5  1  0
  5  6  1  0
  6  7  1  0
  7  8  1  0
  8  9  1  0
  9 10  1  0
  9 11  2  0
 11 12  1  0
  2 13  1  0
 13 14  1  0
 14 15  2  0
 15 16  1  0
 16 17  1  0
 17 18  2  0
 18 19  1  0
 19 20  2  0
 20 21  1  0
 21 22  2  0
 22 23  1  0
 23 24  1  0
 23 25  2  0
 17 26  1  0
 26 27  2  0
 27 28  1  0
 28 29  1  0
 29 30  1  0
 30 14  1  0
 29 16  2  0
 25 19  1  0
  3 31  1  0
  3 32  1  0
  4 33  1  0
  4 34  1  0
  5 35  1  0
  5 36  1  0
  6 37  1  0
  6 38  1  0
  7 39  1  0
  7 40  1  0
  8 41  1  0
  8 42  1  0
 10 43  1  0
 12 44  1  0
 13 45  1  0
 15 46  1  0
 20 47  1  0
 21 48  1  0
 22 49  1  0
 25 50  1  0
 27 51  1  0
 28 52  1  0
M  END
>  <smiles>  (89) 
O=C(CCCCCCC(O)=NO)Nc1cc2c(=Nc3cccc(Cl)c3)nc[nH]c2s1

>  <score_type>  (89) 
oracle

>  <origin>  (89) 
adg

>  <m_score__min__energy>  (89) 
-9.3800000000000008

>  <m_primary>  (89) 
energy

$$$$
89:0
     RDKit          3D

 35 37  0  0  0  0  0  0  0  0999 V2000
   57.4070   32.3410   41.4320 C   0  0  0  0  0  0  0  0  0  0  0  0
   57.3070   31.5440   42.7060 C   0  0  0  0  0  0  0  0  0  0  0  0
   56.7240   30.2650   42.6600 C   0  0  0  0  0  0  0  0  0  0  0  0
   56.5900   29.4990   43.8190 C   0  0  0  0  0  0  0  0  0  0  0  0
   57.0290   30.0020   45.0430 C   0  0  0  0  0  0  0  0  0  0  0  0
   57.6080   31.2700   45.1110 C   0  0  0  0  0  0  0  0  0  0  0  0
   57.7640   32.0530   43.9520 C   0  0  0  0  0  0  0  0  0  0  0  0
   58.4200   33.4080   44.0940 C   0  0  0  0  0  0  0  0  0  0  0  0
   58.0110   34.1800   45.7010 S   0  0  0  0  0  0  0  0  0  0  0  0
   59.5800   33.7720   46.4740 C   0  0  0  0  0  0  0  0  0  0  0  0
   60.7670   34.2040   45.9730 N   0  0  0  0  0  0  0  0  0  0  0  0
   61.6620   33.6620   46.8190 C   0  0  0  0  0  0  0  0  0  0  0  0
   63.0480   33.7590   46.7700 C   0  0  0  0  0  0  0  0  0  0  0  0
   63.7720   33.0770   47.7650 C   0  0  0  0  0  0  0  0  0  0  0  0
   63.1190   32.3500   48.7300 N   0  0  0  0  0  0  0  0  0  0  0  0
   61.7550   32.2630   48.7650 C   0  0  0  0  0  0  0  0  0  0  0  0
   61.0320   32.9400   47.7850 C   0  0  0  0  0  0  0  0  0  0  0  0
   59.7070   33.0070   47.5920 N   0  0  0  0  0  0  0  0  0  0  0  0
   58.6630   32.3570   48.3810 C   0  0  0  0  0  0  0  0  0  0  0  0
   57.5406   33.4055   41.6750 H   0  0  0  0  0  0  0  0  0  0  0  0
   58.2679   31.9880   40.8453 H   0  0  0  0  0  0  0  0  0  0  0  0
   56.4856   32.2116   40.8453 H   0  0  0  0  0  0  0  0  0  0  0  0
   56.3694   29.8636   41.6992 H   0  0  0  0  0  0  0  0  0  0  0  0
   56.1377   28.4977   43.7667 H   0  0  0  0  0  0  0  0  0  0  0  0
   56.9189   29.3987   45.9562 H   0  0  0  0  0  0  0  0  0  0  0  0
   57.9463   31.6619   46.0815 H   0  0  0  0  0  0  0  0  0  0  0  0
   59.5110   33.2871   44.0220 H   0  0  0  0  0  0  0  0  0  0  0  0
   58.0466   34.0602   43.2907 H   0  0  0  0  0  0  0  0  0  0  0  0
   63.5559   34.3429   45.9882 H   0  0  0  0  0  0  0  0  0  0  0  0
   64.8709   33.1265   47.7701 H   0  0  0  0  0  0  0  0  0  0  0  0
   63.6790   31.8500   49.4570 H   0  0  0  0  0  0  0  0  0  0  0  0
   61.2441   31.6766   49.5429 H   0  0  0  0  0  0  0  0  0  0  0  0
   58.8764   32.4899   49.4519 H   0  0  0  0  0  0  0  0  0  0  0  0
   57.6886   32.8083   48.1425 H   0  0  0  0  0  0  0  0  0  0  0  0
   58.6380   31.2834   48.1425 H   0  0  0  0  0  0  0  0  0  0  0  0
  1  2  1  0
  2  3  2  0
  3  4  1  0
  4  5  2  0
  5  6  1  0
  6  7  2  0
  7  8  1  0
  8  9  1  0
  9 10  1  0
 10 11  2  0
 11 12  1  0
 12 13  2  0
 13 14  1  0
 14 15  2  0
 15 16  1  0
 16 17  2  0
 17 18  1  0
 18 19  1  0
  7  2  1  0
 18 10  1  0
 17 12  1  0
  1 20  1  0
  1 21  1  0
  1 22  1  0
  3 23  1  0
  4 24  1  0
  5 25  1  0
  6 26  1  0
  8 27  1  0
  8 28  1  0
 13 29  1  0
 14 30  1  0
 15 31  1  0
 16 32  1  0
 19 33  1  0
 19 34  1  0
 19 35  1  0
M  CHG  1  15   1
M  END
>  <UniqueID>  (90) 
79

>  <SMILES>  (90) 
Cc1ccccc1CSc1nc2cc[nH+]cc2n1C

>  <Energy>  (90) 
70.33996840856297

>  <Genealogy>  (90) 
Cc1ccccc1CSc1nc2cc[nH+]cc2n1C (protonated)
Cc1ccccc1CSc1nc2cc[nH+]cc2n1C (3D coordinates assigned)
Cc1ccccc1CSc1nc2cc[nH+]cc2n1C (optimized conformer: 70.33996840856297 kcal/mol)

>  <smiles>  (90) 
Cc1ccccc1CSc1nc2ccncc2n1C

>  <score_type>  (90) 
oracle

>  <origin>  (90) 
adg

>  <m_score__min__energy>  (90) 
-5.7400000000000002

>  <m_primary>  (90) 
energy

$$$$
90:0
     RDKit          3D

 45 48  0  0  0  0  0  0  0  0999 V2000
   57.6330   33.2970   44.4950 O   0  0  0  0  0  0  0  0  0  0  0  0
   58.6600   33.1320   45.2060 C   0  0  0  0  0  0  0  0  0  0  0  0
   59.4760   34.3220   45.6090 C   0  0  0  0  0  0  0  0  0  0  0  0
   60.0200   34.1240   46.9860 C   0  0  0  0  0  0  0  0  0  0  0  0
   59.2700   33.7180   48.0290 N   0  0  0  0  0  0  0  0  0  0  0  0
   60.1120   33.5790   49.0070 O   0  0  0  0  0  0  0  0  0  0  0  0
   61.3200   33.8700   48.5920 C   0  0  0  0  0  0  0  0  0  0  0  0
   62.5420   33.7820   49.4480 C   0  0  0  0  0  0  0  0  0  0  0  0
   63.6570   32.4530   48.8730 S   0  0  0  0  0  0  0  0  0  0  0  0
   62.3410   31.3660   48.3290 C   0  0  0  0  0  0  0  0  0  0  0  0
   61.8400   31.3630   47.0740 N   0  0  0  0  0  0  0  0  0  0  0  0
   60.8760   30.4600   46.9000 N   0  0  0  0  0  0  0  0  0  0  0  0
   60.6120   29.7500   48.0210 C   0  0  0  0  0  0  0  0  0  0  0  0
   59.7180   28.8100   48.1050 N   0  0  0  0  0  0  0  0  0  0  0  0
   59.8530   27.4620   47.6250 C   0  0  0  0  0  0  0  0  0  0  0  0
   60.9830   26.9020   47.5980 O   0  0  0  0  0  0  0  0  0  0  0  0
   58.6550   26.7250   47.1620 C   0  0  0  0  0  0  0  0  0  0  0  0
   58.7510   25.3940   46.7200 C   0  0  0  0  0  0  0  0  0  0  0  0
   57.6130   24.7130   46.2850 C   0  0  0  0  0  0  0  0  0  0  0  0
   56.3790   25.3670   46.2960 C   0  0  0  0  0  0  0  0  0  0  0  0
   55.3420   24.7670   45.9090 O   0  0  0  0  0  0  0  0  0  0  0  0
   56.2960   26.6530   46.7250 N   0  0  0  0  0  0  0  0  0  0  0  0
   57.3900   27.3380   47.1520 C   0  0  0  0  0  0  0  0  0  0  0  0
   61.5830   30.2230   49.3090 S   0  0  0  0  0  0  0  0  0  0  0  0
   61.3290   34.2280   47.2920 N   0  0  0  0  0  0  0  0  0  0  0  0
   59.0370   31.8200   45.6560 N   0  0  0  0  0  0  0  0  0  0  0  0
   58.4490   30.5990   45.1750 C   0  0  0  0  0  0  0  0  0  0  0  0
   59.2680   29.6300   44.5760 C   0  0  0  0  0  0  0  0  0  0  0  0
   58.7190   28.4390   44.0900 C   0  0  0  0  0  0  0  0  0  0  0  0
   57.3420   28.2180   44.1770 C   0  0  0  0  0  0  0  0  0  0  0  0
   56.5130   29.1890   44.7440 C   0  0  0  0  0  0  0  0  0  0  0  0
   55.1410   28.9740   44.8140 O   0  0  0  0  0  0  0  0  0  0  0  0
   57.0600   30.3770   45.2390 C   0  0  0  0  0  0  0  0  0  0  0  0
   60.3095   34.4486   44.9025 H   0  0  0  0  0  0  0  0  0  0  0  0
   58.8386   35.2184   45.5974 H   0  0  0  0  0  0  0  0  0  0  0  0
   63.0777   34.7420   49.4086 H   0  0  0  0  0  0  0  0  0  0  0  0
   62.2303   33.5540   50.4780 H   0  0  0  0  0  0  0  0  0  0  0  0
   59.7272   24.8870   46.7170 H   0  0  0  0  0  0  0  0  0  0  0  0
   57.6872   23.6721   45.9371 H   0  0  0  0  0  0  0  0  0  0  0  0
   57.2846   28.3788   47.4919 H   0  0  0  0  0  0  0  0  0  0  0  0
   59.7230   31.7560   46.4430 H   0  0  0  0  0  0  0  0  0  0  0  0
   60.3499   29.8083   44.4880 H   0  0  0  0  0  0  0  0  0  0  0  0
   59.3711   27.6763   43.6393 H   0  0  0  0  0  0  0  0  0  0  0  0
   56.9107   27.2793   43.7990 H   0  0  0  0  0  0  0  0  0  0  0  0
   56.4027   31.1409   45.6800 H   0  0  0  0  0  0  0  0  0  0  0  0
  1  2  2  0
  2  3  1  0
  3  4  1  0
  4  5  2  0
  5  6  1  0
  6  7  1  0
  7  8  1  0
  8  9  1  0
  9 10  1  0
 10 11  2  0
 11 12  1  0
 12 13  1  0
 13 14  2  3
 14 15  1  0
 15 16  2  0
 15 17  1  0
 17 18  1  0
 18 19  2  0
 19 20  1  0
 20 21  2  0
 20 22  1  0
 22 23  1  0
 13 24  1  0
  7 25  2  0
  2 26  1  0
 26 27  1  0
 27 28  2  0
 28 29  1  0
 29 30  2  0
 30 31  1  0
 31 32  1  0
 31 33  2  0
 25  4  1  0
 33 27  1  0
 24 10  1  0
 23 17  2  0
  3 34  1  0
  3 35  1  0
  8 36  1  0
  8 37  1  0
 18 38  1  0
 19 39  1  0
 23 40  1  0
 26 41  1  0
 28 42  1  0
 29 43  1  0
 30 44  1  0
 33 45  1  0
M  CHG  3  12  -1  22  -1  32  -1
M  END
>  <UniqueID>  (91) 
80

>  <SMILES>  (91) 
O=C(Cc1noc(CSc2n[n-]c(=NC(=O)c3ccc(=O)[n-]c3)s2)n1)Nc1cccc([O-])c1

>  <Energy>  (91) 
112.74919827482177

>  <Genealogy>  (91) 
O=C(Cc1noc(CSc2n[n-]c(=NC(=O)c3ccc(=O)[n-]c3)s2)n1)Nc1cccc([O-])c1 (protonated)
O=C(Cc1noc(CSc2n[n-]c(=NC(=O)c3ccc(=O)[n-]c3)s2)n1)Nc1cccc([O-])c1 (3D coordinates assigned)
O=C(Cc1noc(CSc2n[n-]c(=NC(=O)c3ccc(=O)[n-]c3)s2)n1)Nc1cccc([O-])c1 (optimized conformer: 112.74919827482177 kcal/mol)

>  <smiles>  (91) 
O=C(Cc1noc(CSc2n[nH]c(=NC(=O)c3ccc(=O)[nH]c3)s2)n1)Nc1cccc(O)c1

>  <score_type>  (91) 
oracle

>  <origin>  (91) 
adg

>  <m_score__min__energy>  (91) 
-17.16

>  <m_primary>  (91) 
energy

$$$$
91:0
     RDKit          3D

 55 58  0  0  1  0  0  0  0  0999 V2000
   60.1280   29.1740   48.4130 C   0  0  0  0  0  0  0  0  0  0  0  0
   59.5660   28.0620   47.7600 O   0  0  0  0  0  0  0  0  0  0  0  0
   58.9110   28.2330   46.5340 C   0  0  0  0  0  0  0  0  0  0  0  0
   58.2910   29.4440   46.2030 C   0  0  0  0  0  0  0  0  0  0  0  0
   57.6770   29.5320   44.9940 C   0  0  0  0  0  0  0  0  0  0  0  0
   57.0570   30.6960   44.6270 C   0  0  0  0  0  0  0  0  0  0  0  0
   57.0360   31.6850   45.3430 N   0  0  0  0  0  0  0  0  0  0  0  0
   57.9120   32.6830   45.6000 C   0  0  0  0  0  0  0  0  0  0  0  0
   58.1640   33.6540   44.6010 C   0  0  0  0  0  0  0  0  0  0  0  0
   58.9740   34.7440   44.8990 C   0  0  0  0  0  0  0  0  0  0  0  0
   59.5440   34.9110   46.1480 C   0  0  0  0  0  0  0  0  0  0  0  0
   59.2960   33.9600   47.1240 C   0  0  0  0  0  0  0  0  0  0  0  0
   60.0800   34.1830   48.8500 Br  0  0  0  0  0  0  0  0  0  0  0  0
   58.5010   32.8590   46.8790 C   0  0  0  0  0  0  0  0  0  0  0  0
   56.4540   30.7490   43.4140 N   0  0  0  0  0  0  0  0  0  0  0  0
   56.4190   29.7380   42.5430 C   0  0  0  0  0  0  0  0  0  0  0  0
   57.0220   28.5920   42.8910 N   0  0  0  0  0  0  0  0  0  0  0  0
   57.6340   28.4990   44.0880 C   0  0  0  0  0  0  0  0  0  0  0  0
   58.2330   27.3160   44.3990 C   0  0  0  0  0  0  0  0  0  0  0  0
   58.8600   27.2110   45.6170 C   0  0  0  0  0  0  0  0  0  0  0  0
   59.4840   26.0550   45.9930 O   0  0  0  0  0  0  0  0  0  0  0  0
   59.0770   24.7570   45.9840 C   0  0  0  0  0  0  0  0  0  0  0  0
   57.7950   24.4050   46.6640 C   0  0  0  0  0  0  0  0  0  0  0  0
   56.5820   24.7620   45.8120 C   0  0  0  0  0  0  0  0  0  0  0  0
   56.3420   23.7080   44.8870 N   0  0  0  0  0  0  0  0  0  0  0  0
   56.5440   23.9920   43.5100 C   0  0  0  0  0  0  0  0  0  0  0  0
   55.8960   22.9520   42.6580 C   0  0  0  0  0  0  0  0  0  0  0  0
   56.2000   21.6820   43.0580 O   0  0  0  0  0  0  0  0  0  0  0  0
   57.0720   21.5340   44.0990 C   0  0  0  0  0  0  0  0  0  0  0  0
   56.7350   22.4140   45.3030 C   0  0  0  0  0  0  0  0  0  0  0  0
   60.0573   29.0342   49.5018 H   0  0  0  0  0  0  0  0  0  0  0  0
   61.1847   29.2736   48.1239 H   0  0  0  0  0  0  0  0  0  0  0  0
   59.5815   30.0838   48.1239 H   0  0  0  0  0  0  0  0  0  0  0  0
   58.3006   30.2960   46.8987 H   0  0  0  0  0  0  0  0  0  0  0  0
   57.7233   33.5471   43.5988 H   0  0  0  0  0  0  0  0  0  0  0  0
   59.1671   35.4952   44.1189 H   0  0  0  0  0  0  0  0  0  0  0  0
   60.1815   35.7815   46.3620 H   0  0  0  0  0  0  0  0  0  0  0  0
   58.3242   32.1192   47.6736 H   0  0  0  0  0  0  0  0  0  0  0  0
   55.9620   31.6380   43.0940 H   0  0  0  0  0  0  0  0  0  0  0  0
   55.9124   29.8416   41.5721 H   0  0  0  0  0  0  0  0  0  0  0  0
   58.2153   26.4700   43.6961 H   0  0  0  0  0  0  0  0  0  0  0  0
   58.9788   24.4553   44.9307 H   0  0  0  0  0  0  0  0  0  0  0  0
   59.8448   24.2312   46.5706 H   0  0  0  0  0  0  0  0  0  0  0  0
   57.7836   23.3232   46.8632 H   0  0  0  0  0  0  0  0  0  0  0  0
   57.7360   24.9814   47.5990 H   0  0  0  0  0  0  0  0  0  0  0  0
   55.7021   24.8930   46.4589 H   0  0  0  0  0  0  0  0  0  0  0  0
   56.7715   25.6991   45.2681 H   0  0  0  0  0  0  0  0  0  0  0  0
   56.1078   24.9743   43.2758 H   0  0  0  0  0  0  0  0  0  0  0  0
   57.6245   23.9962   43.3038 H   0  0  0  0  0  0  0  0  0  0  0  0
   54.8052   23.0854   42.7074 H   0  0  0  0  0  0  0  0  0  0  0  0
   56.2738   23.0781   41.6327 H   0  0  0  0  0  0  0  0  0  0  0  0
   57.0559   20.4822   44.4205 H   0  0  0  0  0  0  0  0  0  0  0  0
   58.0640   21.8433   43.7382 H   0  0  0  0  0  0  0  0  0  0  0  0
   55.9122   21.9518   45.8682 H   0  0  0  0  0  0  0  0  0  0  0  0
   57.6310   22.5044   45.9347 H   0  0  0  0  0  0  0  0  0  0  0  0
  1  2  1  0
  2  3  1  0
  3  4  2  0
  4  5  1  0
  5  6  1  0
  6  7  2  0
  7  8  1  0
  8  9  2  0
  9 10  1  0
 10 11  2  0
 11 12  1  0
 12 13  1  0
 12 14  2  0
  6 15  1  0
 15 16  1  0
 16 17  2  0
 17 18  1  0
 18 19  1  0
 19 20  2  0
 20 21  1  0
 21 22  1  0
 22 23  1  0
 23 24  1  0
 24 25  1  0
 25 26  1  0
 26 27  1  0
 27 28  1  0
 28 29  1  0
 29 30  1  0
 20  3  1  0
 30 25  1  0
 18  5  2  0
 14  8  1  0
  1 31  1  0
  1 32  1  0
  1 33  1  0
  4 34  1  0
  9 35  1  0
 10 36  1  0
 11 37  1  0
 14 38  1  0
 15 39  1  0
 16 40  1  0
 19 41  1  0
 22 42  1  0
 22 43  1  0
 23 44  1  0
 23 45  1  0
 24 46  1  0
 24 47  1  0
 26 48  1  0
 26 49  1  0
 27 50  1  0
 27 51  1  0
 29 52  1  0
 29 53  1  0
 30 54  1  0
 30 55  1  0
M  END
>  <smiles>  (92) 
COc1cc2c(=Nc3cccc(Br)c3)[nH]cnc2cc1OCCCN1CCOCC1

>  <score_type>  (92) 
oracle

>  <origin>  (92) 
adg

>  <m_score__min__energy>  (92) 
-8.8800000000000008

>  <m_primary>  (92) 
energy

$$$$
