0:0
     RDKit          3D

 30 31  0  0  0  0  0  0  0  0999 V2000
   57.7790   22.8270   46.4480 N   0  0  0  0  0  0  0  0  0  0  0  0
   57.0050   24.1500   47.2450 S   0  0  0  0  0  0  0  0  0  0  0  0
   55.5140   23.9880   47.1490 O   0  0  0  0  0  0  0  0  0  0  0  0
   57.3950   24.1600   48.6970 O   0  0  0  0  0  0  0  0  0  0  0  0
   57.4940   25.6620   46.4880 C   0  0  0  0  0  0  0  0  0  0  0  0
   58.8480   25.9210   46.2380 C   0  0  0  0  0  0  0  0  0  0  0  0
   59.2320   27.1220   45.6360 C   0  0  0  0  0  0  0  0  0  0  0  0
   58.2700   28.0760   45.2940 C   0  0  0  0  0  0  0  0  0  0  0  0
   56.9110   27.8400   45.5700 C   0  0  0  0  0  0  0  0  0  0  0  0
   55.8880   28.7830   45.2180 N   0  0  0  0  0  0  0  0  0  0  0  0
   55.9550   29.7740   44.1850 C   0  0  0  0  0  0  0  0  0  0  0  0
   56.1170   29.4320   42.9840 O   0  0  0  0  0  0  0  0  0  0  0  0
   55.9530   31.1660   44.5140 N   0  0  0  0  0  0  0  0  0  0  0  0
   57.0620   31.9150   45.0300 C   0  0  0  0  0  0  0  0  0  0  0  0
   58.1440   31.2890   45.6770 C   0  0  0  0  0  0  0  0  0  0  0  0
   59.1960   32.0560   46.1890 C   0  0  0  0  0  0  0  0  0  0  0  0
   59.1700   33.4490   46.0740 C   0  0  0  0  0  0  0  0  0  0  0  0
   60.4900   34.4080   46.7190 Cl  0  0  0  0  0  0  0  0  0  0  0  0
   58.0850   34.0770   45.4560 C   0  0  0  0  0  0  0  0  0  0  0  0
   57.0310   33.3130   44.9450 C   0  0  0  0  0  0  0  0  0  0  0  0
   56.5310   26.6230   46.1510 C   0  0  0  0  0  0  0  0  0  0  0  0
   58.8090   22.9780   46.5360 H   0  0  0  0  0  0  0  0  0  0  0  0
   59.6098   25.1778   46.5160 H   0  0  0  0  0  0  0  0  0  0  0  0
   60.2949   27.3171   45.4307 H   0  0  0  0  0  0  0  0  0  0  0  0
   58.5762   29.0140   44.8077 H   0  0  0  0  0  0  0  0  0  0  0  0
   58.1625   30.1940   45.7803 H   0  0  0  0  0  0  0  0  0  0  0  0
   60.0455   31.5619   46.6832 H   0  0  0  0  0  0  0  0  0  0  0  0
   58.0601   35.1735   45.3715 H   0  0  0  0  0  0  0  0  0  0  0  0
   56.1722   33.8129   44.4733 H   0  0  0  0  0  0  0  0  0  0  0  0
   55.4673   26.4199   46.3444 H   0  0  0  0  0  0  0  0  0  0  0  0
  1  2  1  0
  2  3  2  0
  2  4  2  0
  2  5  1  0
  5  6  2  0
  6  7  1  0
  7  8  2  0
  8  9  1  0
  9 10  1  0
 10 11  1  0
 11 12  2  0
 11 13  1  0
 13 14  1  0
 14 15  2  0
 15 16  1  0
 16 17  2  0
 17 18  1  0
 17 19  1  0
 19 20  2  0
  9 21  2  0
 21  5  1  0
 20 14  1  0
  1 22  1  0
  6 23  1  0
  7 24  1  0
  8 25  1  0
 15 26  1  0
 16 27  1  0
 19 28  1  0
 20 29  1  0
 21 30  1  0
M  CHG  3   1  -1  10  -1  13  -1
M  END
>  <UniqueID>  (1) 
1

>  <SMILES>  (1) 
[NH-]S(=O)(=O)c1cccc([N-]C(=O)[N-]c2ccc(Cl)cc2)c1

>  <Energy>  (1) 
36.98665019880839

>  <Genealogy>  (1) 
[NH-]S(=O)(=O)c1cccc([N-]C(=O)[N-]c2ccc(Cl)cc2)c1 (protonated)
[NH-]S(=O)(=O)c1cccc([N-]C(=O)[N-]c2ccc(Cl)cc2)c1 (3D coordinates assigned)
[NH-]S(=O)(=O)c1cccc([N-]C(=O)[N-]c2ccc(Cl)cc2)c1 (optimized conformer: 36.98665019880839 kcal/mol)

>  <smiles>  (1) 
NS(=O)(=O)c1cccc(NC(=O)Nc2ccc(Cl)cc2)c1

>  <score_type>  (1) 
oracle

>  <origin>  (1) 
adg

>  <m_score__min__energy>  (1) 
-13.01

>  <m_primary>  (1) 
energy

$$$$
1:0
     RDKit          3D

 40 41  0  0  0  0  0  0  0  0999 V2000
   58.9450   30.2630   50.0820 C   0  0  0  0  0  0  0  0  0  0  0  0
   58.9050   30.9000   48.7310 C   0  0  0  0  0  0  0  0  0  0  0  0
   58.8070   30.1700   47.7090 O   0  0  0  0  0  0  0  0  0  0  0  0
   59.0730   32.3200   48.6050 N   0  0  0  0  0  0  0  0  0  0  0  0
   58.9730   33.0290   47.3600 C   0  0  0  0  0  0  0  0  0  0  0  0
   59.4600   34.3400   47.2220 C   0  0  0  0  0  0  0  0  0  0  0  0
   59.3430   35.0090   46.0020 C   0  0  0  0  0  0  0  0  0  0  0  0
   58.7420   34.3810   44.9090 C   0  0  0  0  0  0  0  0  0  0  0  0
   58.2560   33.0680   45.0270 C   0  0  0  0  0  0  0  0  0  0  0  0
   57.6280   32.3800   43.8380 C   0  0  0  0  0  0  0  0  0  0  0  0
   57.6540   30.8380   43.9370 C   0  0  0  0  0  0  0  0  0  0  0  0
   56.9290   30.3000   45.1050 N   0  0  0  0  0  0  0  0  0  0  0  0
   56.2510   29.0160   44.8670 C   0  0  0  0  0  0  0  0  0  0  0  0
   57.0060   27.8380   45.4480 C   0  0  0  0  0  0  0  0  0  0  0  0
   58.4110   27.8020   45.3900 C   0  0  0  0  0  0  0  0  0  0  0  0
   59.1150   26.7190   45.9230 C   0  0  0  0  0  0  0  0  0  0  0  0
   58.4240   25.6520   46.4990 C   0  0  0  0  0  0  0  0  0  0  0  0
   57.0270   25.6560   46.5270 C   0  0  0  0  0  0  0  0  0  0  0  0
   56.3150   26.7340   45.9910 C   0  0  0  0  0  0  0  0  0  0  0  0
   54.9260   26.6920   45.9910 O   0  0  0  0  0  0  0  0  0  0  0  0
   58.4070   32.3880   46.2480 C   0  0  0  0  0  0  0  0  0  0  0  0
   58.8960   31.0426   50.8565 H   0  0  0  0  0  0  0  0  0  0  0  0
   58.0878   29.5825   50.1920 H   0  0  0  0  0  0  0  0  0  0  0  0
   59.8806   29.6950   50.1920 H   0  0  0  0  0  0  0  0  0  0  0  0
   59.4100   32.8450   49.4440 H   0  0  0  0  0  0  0  0  0  0  0  0
   59.9351   34.8410   48.0783 H   0  0  0  0  0  0  0  0  0  0  0  0
   59.7259   36.0353   45.9014 H   0  0  0  0  0  0  0  0  0  0  0  0
   58.6488   34.9161   43.9525 H   0  0  0  0  0  0  0  0  0  0  0  0
   56.5806   32.7067   43.7592 H   0  0  0  0  0  0  0  0  0  0  0  0
   58.2182   32.6586   42.9525 H   0  0  0  0  0  0  0  0  0  0  0  0
   57.1970   30.4249   43.0257 H   0  0  0  0  0  0  0  0  0  0  0  0
   58.7076   30.5438   44.0527 H   0  0  0  0  0  0  0  0  0  0  0  0
   57.5950   30.1860   45.9050 H   0  0  0  0  0  0  0  0  0  0  0  0
   55.2525   29.0551   45.3268 H   0  0  0  0  0  0  0  0  0  0  0  0
   56.1929   28.8684   43.7785 H   0  0  0  0  0  0  0  0  0  0  0  0
   58.9595   28.6325   44.9216 H   0  0  0  0  0  0  0  0  0  0  0  0
   60.2144   26.7074   45.8886 H   0  0  0  0  0  0  0  0  0  0  0  0
   58.9798   24.8069   46.9314 H   0  0  0  0  0  0  0  0  0  0  0  0
   56.4853   24.8084   46.9721 H   0  0  0  0  0  0  0  0  0  0  0  0
   58.0777   31.3418   46.3324 H   0  0  0  0  0  0  0  0  0  0  0  0
  1  2  1  0
  2  3  2  0
  2  4  1  0
  4  5  1  0
  5  6  2  0
  6  7  1  0
  7  8  2  0
  8  9  1  0
  9 10  1  0
 10 11  1  0
 11 12  1  0
 12 13  1  0
 13 14  1  0
 14 15  2  0
 15 16  1  0
 16 17  2  0
 17 18  1  0
 18 19  2  0
 19 20  1  0
  9 21  2  0
 21  5  1  0
 19 14  1  0
  1 22  1  0
  1 23  1  0
  1 24  1  0
  4 25  1  0
  6 26  1  0
  7 27  1  0
  8 28  1  0
 10 29  1  0
 10 30  1  0
 11 31  1  0
 11 32  1  0
 12 33  1  0
 13 34  1  0
 13 35  1  0
 15 36  1  0
 16 37  1  0
 17 38  1  0
 18 39  1  0
 21 40  1  0
M  CHG  1  20  -1
M  END
>  <UniqueID>  (2) 
2

>  <SMILES>  (2) 
CC(=O)Nc1cccc(CCNCc2ccccc2[O-])c1

>  <Energy>  (2) 
41.82161106081117

>  <Genealogy>  (2) 
CC(=O)Nc1cccc(CCNCc2ccccc2[O-])c1 (protonated)
CC(=O)Nc1cccc(CCNCc2ccccc2[O-])c1 (3D coordinates assigned)
CC(=O)Nc1cccc(CCNCc2ccccc2[O-])c1 (optimized conformer: 41.82161106081117 kcal/mol)

>  <smiles>  (2) 
CC(=O)Nc1cccc(CCNCc2ccccc2O)c1

>  <score_type>  (2) 
oracle

>  <origin>  (2) 
adg

>  <m_score__min__energy>  (2) 
-11.369999999999999

>  <m_primary>  (2) 
energy

$$$$
2:0
     RDKit          3D

 63 67  0  0  0  0  0  0  0  0999 V2000
   60.4140   31.6580   49.2310 C   0  0  0  0  0  0  0  0  0  0  0  0
   60.0780   32.4570   48.0000 C   0  0  0  0  0  0  0  0  0  0  0  0
   58.9510   32.1220   47.2350 C   0  0  0  0  0  0  0  0  0  0  0  0
   58.6160   32.8550   46.0830 C   0  0  0  0  0  0  0  0  0  0  0  0
   57.3890   32.5360   45.3190 C   0  0  0  0  0  0  0  0  0  0  0  0
   56.6620   33.4700   44.8860 O   0  0  0  0  0  0  0  0  0  0  0  0
   57.0110   31.1650   45.1250 N   0  0  0  0  0  0  0  0  0  0  0  0
   57.8180   29.9760   45.1670 C   0  0  0  0  0  0  0  0  0  0  0  0
   59.0150   29.8250   44.4380 C   0  0  0  0  0  0  0  0  0  0  0  0
   59.7250   28.6220   44.4930 C   0  0  0  0  0  0  0  0  0  0  0  0
   59.2680   27.5700   45.2880 C   0  0  0  0  0  0  0  0  0  0  0  0
   58.1020   27.7200   46.0580 C   0  0  0  0  0  0  0  0  0  0  0  0
   57.6030   26.5930   46.9260 C   0  0  0  0  0  0  0  0  0  0  0  0
   56.5400   25.7890   46.2190 C   0  0  0  0  0  0  0  0  0  0  0  0
   55.2640   26.2540   46.2610 N   0  0  0  0  0  0  0  0  0  0  0  0
   54.2560   25.6140   45.6700 N   0  0  0  0  0  0  0  0  0  0  0  0
   54.4500   24.4640   44.9800 C   0  0  0  0  0  0  0  0  0  0  0  0
   53.4610   23.8920   44.4440 O   0  0  0  0  0  0  0  0  0  0  0  0
   55.7410   23.9230   44.8740 C   0  0  0  0  0  0  0  0  0  0  0  0
   56.8090   24.5720   45.5440 C   0  0  0  0  0  0  0  0  0  0  0  0
   58.2270   24.0360   45.4470 C   0  0  0  0  0  0  0  0  0  0  0  0
   58.2880   22.5730   45.0070 C   0  0  0  0  0  0  0  0  0  0  0  0
   57.4090   22.3540   43.7810 C   0  0  0  0  0  0  0  0  0  0  0  0
   55.9440   22.6190   44.1280 C   0  0  0  0  0  0  0  0  0  0  0  0
   57.3820   28.9250   45.9830 C   0  0  0  0  0  0  0  0  0  0  0  0
   59.4500   33.9140   45.6880 C   0  0  0  0  0  0  0  0  0  0  0  0
   60.5840   34.2410   46.4330 C   0  0  0  0  0  0  0  0  0  0  0  0
   60.9030   33.5260   47.6020 C   0  0  0  0  0  0  0  0  0  0  0  0
   62.0520   33.8570   48.4000 N   0  0  0  0  0  0  0  0  0  0  0  0
   63.5710   33.0250   48.3810 S   0  0  0  0  0  0  0  0  0  0  0  0
   64.3750   33.4480   47.1850 O   0  0  0  0  0  0  0  0  0  0  0  0
   63.3430   31.5400   48.3280 O   0  0  0  0  0  0  0  0  0  0  0  0
   64.4560   33.4380   49.8470 C   0  0  0  0  0  0  0  0  0  0  0  0
   65.7760   33.0000   50.0200 C   0  0  0  0  0  0  0  0  0  0  0  0
   66.4690   33.3100   51.1950 C   0  0  0  0  0  0  0  0  0  0  0  0
   65.8470   34.0560   52.1990 C   0  0  0  0  0  0  0  0  0  0  0  0
   64.5310   34.4940   52.0310 C   0  0  0  0  0  0  0  0  0  0  0  0
   63.8350   34.1840   50.8610 C   0  0  0  0  0  0  0  0  0  0  0  0
   60.1671   32.2451   50.1279 H   0  0  0  0  0  0  0  0  0  0  0  0
   59.8323   30.7244   49.2323 H   0  0  0  0  0  0  0  0  0  0  0  0
   61.4881   31.4207   49.2323 H   0  0  0  0  0  0  0  0  0  0  0  0
   58.3205   31.2740   47.5407 H   0  0  0  0  0  0  0  0  0  0  0  0
   59.3916   30.6563   43.8239 H   0  0  0  0  0  0  0  0  0  0  0  0
   60.6483   28.5041   43.9068 H   0  0  0  0  0  0  0  0  0  0  0  0
   59.8223   26.6202   45.3120 H   0  0  0  0  0  0  0  0  0  0  0  0
   58.4461   25.9320   47.1756 H   0  0  0  0  0  0  0  0  0  0  0  0
   57.1646   27.0239   47.8382 H   0  0  0  0  0  0  0  0  0  0  0  0
   58.7817   24.6442   44.7173 H   0  0  0  0  0  0  0  0  0  0  0  0
   58.6684   24.0940   46.4529 H   0  0  0  0  0  0  0  0  0  0  0  0
   59.3274   22.3110   44.7601 H   0  0  0  0  0  0  0  0  0  0  0  0
   57.9245   21.9365   45.8272 H   0  0  0  0  0  0  0  0  0  0  0  0
   57.7230   23.0409   42.9813 H   0  0  0  0  0  0  0  0  0  0  0  0
   57.5155   21.3122   43.4443 H   0  0  0  0  0  0  0  0  0  0  0  0
   55.3631   22.6545   43.1946 H   0  0  0  0  0  0  0  0  0  0  0  0
   55.6087   21.8054   44.7881 H   0  0  0  0  0  0  0  0  0  0  0  0
   56.4621   29.0441   46.5743 H   0  0  0  0  0  0  0  0  0  0  0  0
   59.2072   34.4908   44.7834 H   0  0  0  0  0  0  0  0  0  0  0  0
   61.2340   35.0649   46.1033 H   0  0  0  0  0  0  0  0  0  0  0  0
   66.2676   32.4119   49.2311 H   0  0  0  0  0  0  0  0  0  0  0  0
   67.5052   32.9658   51.3285 H   0  0  0  0  0  0  0  0  0  0  0  0
   66.3936   34.2987   53.1222 H   0  0  0  0  0  0  0  0  0  0  0  0
   64.0429   35.0835   52.8211 H   0  0  0  0  0  0  0  0  0  0  0  0
   62.7971   34.5253   50.7335 H   0  0  0  0  0  0  0  0  0  0  0  0
  1  2  1  0
  2  3  2  0
  3  4  1  0
  4  5  1  0
  5  6  2  0
  5  7  1  0
  7  8  1  0
  8  9  2  0
  9 10  1  0
 10 11  2  0
 11 12  1  0
 12 13  1  0
 13 14  1  0
 14 15  2  0
 15 16  1  0
 16 17  1  0
 17 18  2  0
 17 19  1  0
 19 20  2  0
 20 21  1  0
 21 22  1  0
 22 23  1  0
 23 24  1  0
 12 25  2  0
  4 26  2  0
 26 27  1  0
 27 28  2  0
 28 29  1  0
 29 30  1  0
 30 31  2  0
 30 32  2  0
 30 33  1  0
 33 34  2  0
 34 35  1  0
 35 36  2  0
 36 37  1  0
 37 38  2  0
 28  2  1  0
 38 33  1  0
 25  8  1  0
 20 14  1  0
 24 19  1  0
  1 39  1  0
  1 40  1  0
  1 41  1  0
  3 42  1  0
  9 43  1  0
 10 44  1  0
 11 45  1  0
 13 46  1  0
 13 47  1  0
 21 48  1  0
 21 49  1  0
 22 50  1  0
 22 51  1  0
 23 52  1  0
 23 53  1  0
 24 54  1  0
 24 55  1  0
 25 56  1  0
 26 57  1  0
 27 58  1  0
 34 59  1  0
 35 60  1  0
 36 61  1  0
 37 62  1  0
 38 63  1  0
M  CHG  3   7  -1  16  -1  29  -1
M  END
>  <UniqueID>  (3) 
3

>  <SMILES>  (3) 
Cc1cc(C(=O)[N-]c2cccc(Cc3n[n-]c(=O)c4c3CCCC4)c2)ccc1[N-]S(=O)(=O)c1ccccc1

>  <Energy>  (3) 
81.05434683107497

>  <Genealogy>  (3) 
Cc1cc(C(=O)[N-]c2cccc(Cc3n[n-]c(=O)c4c3CCCC4)c2)ccc1[N-]S(=O)(=O)c1ccccc1 (protonated)
Cc1cc(C(=O)[N-]c2cccc(Cc3n[n-]c(=O)c4c3CCCC4)c2)ccc1[N-]S(=O)(=O)c1ccccc1 (3D coordinates assigned)
Cc1cc(C(=O)[N-]c2cccc(Cc3n[n-]c(=O)c4c3CCCC4)c2)ccc1[N-]S(=O)(=O)c1ccccc1 (nonaromatic ring conformer: 81.05434683107497 kcal/mol)

>  <smiles>  (3) 
Cc1cc(C(=O)Nc2cccc(Cc3n[nH]c(=O)c4c3CCCC4)c2)ccc1NS(=O)(=O)c1ccccc1

>  <score_type>  (3) 
oracle

>  <origin>  (3) 
adg

>  <m_score__min__energy>  (3) 
-15.74

>  <m_primary>  (3) 
energy

$$$$
3:0
     RDKit          3D

 34 36  0  0  0  0  0  0  0  0999 V2000
   60.1137   28.1356   44.4273 H   0  0  0  0  0  0  0  0  0  0  0  0
   59.4400   28.3250   45.2760 C   0  0  0  0  0  0  0  0  0  0  0  0
   59.1430   27.3230   46.0550 N   0  0  0  0  0  0  0  0  0  0  0  0
   58.0830   26.3680   45.8800 C   0  0  0  0  0  0  0  0  0  0  0  0
   58.3460   25.0040   45.6600 C   0  0  0  0  0  0  0  0  0  0  0  0
   59.3857   24.6503   45.5970 H   0  0  0  0  0  0  0  0  0  0  0  0
   57.2930   24.0960   45.5210 C   0  0  0  0  0  0  0  0  0  0  0  0
   57.5074   23.0341   45.3302 H   0  0  0  0  0  0  0  0  0  0  0  0
   55.9590   24.5340   45.6240 C   0  0  0  0  0  0  0  0  0  0  0  0
   54.8710   23.6580   45.4880 O   0  0  0  0  0  0  0  0  0  0  0  0
   53.9720   23.3210   46.5390 C   0  0  0  0  0  0  0  0  0  0  0  0
   54.4574   23.5030   47.5092 H   0  0  0  0  0  0  0  0  0  0  0  0
   53.0667   23.9408   46.4600 H   0  0  0  0  0  0  0  0  0  0  0  0
   53.6972   22.2588   46.4600 H   0  0  0  0  0  0  0  0  0  0  0  0
   55.7020   25.8880   45.8790 C   0  0  0  0  0  0  0  0  0  0  0  0
   54.3920   26.3380   45.9970 O   0  0  0  0  0  0  0  0  0  0  0  0
   56.7580   26.7950   46.0170 C   0  0  0  0  0  0  0  0  0  0  0  0
   56.5448   27.8519   46.2349 H   0  0  0  0  0  0  0  0  0  0  0  0
   58.9280   29.7020   45.4610 C   0  0  0  0  0  0  0  0  0  0  0  0
   59.7190   30.6560   46.1170 C   0  0  0  0  0  0  0  0  0  0  0  0
   60.9900   30.3140   46.5730 O   0  0  0  0  0  0  0  0  0  0  0  0
   59.2270   31.9580   46.2940 C   0  0  0  0  0  0  0  0  0  0  0  0
   59.9830   32.9620   46.9250 C   0  0  0  0  0  0  0  0  0  0  0  0
   60.9918   32.7365   47.3012 H   0  0  0  0  0  0  0  0  0  0  0  0
   59.4520   34.2470   47.0740 C   0  0  0  0  0  0  0  0  0  0  0  0
   60.0449   35.0310   47.5678 H   0  0  0  0  0  0  0  0  0  0  0  0
   58.1710   34.5390   46.5980 C   0  0  0  0  0  0  0  0  0  0  0  0
   57.7591   35.5520   46.7171 H   0  0  0  0  0  0  0  0  0  0  0  0
   57.4120   33.5470   45.9710 C   0  0  0  0  0  0  0  0  0  0  0  0
   56.4039   33.7811   45.5984 H   0  0  0  0  0  0  0  0  0  0  0  0
   57.9310   32.2570   45.8160 C   0  0  0  0  0  0  0  0  0  0  0  0
   57.2000   31.3190   45.2260 O   0  0  0  0  0  0  0  0  0  0  0  0
   57.6350   30.0760   45.0420 C   0  0  0  0  0  0  0  0  0  0  0  0
   56.8660   29.2340   44.5040 O   0  0  0  0  0  0  0  0  0  0  0  0
  1  2  1  0
  2  3  2  0
  3  4  1  0
  4  5  2  0
  5  6  1  0
  5  7  1  0
  7  8  1  0
  7  9  2  0
  9 10  1  0
 10 11  1  0
 11 12  1  0
 11 13  1  0
 11 14  1  0
  9 15  1  0
 15 16  1  0
 15 17  2  0
 17 18  1  0
  2 19  1  0
 19 20  2  0
 20 21  1  0
 20 22  1  0
 22 23  2  0
 23 24  1  0
 23 25  1  0
 25 26  1  0
 25 27  2  0
 27 28  1  0
 27 29  1  0
 29 30  1  0
 29 31  2  0
 31 32  1  0
 32 33  1  0
 33 34  2  0
 17  4  1  0
 33 19  1  0
 31 22  1  0
M  CHG  2  16  -1  21  -1
M  END
>  <UniqueID>  (4) 
4

>  <SMILES>  (4) 
COc1ccc(/N=C\c2c([O-])c3ccccc3oc2=O)cc1[O-]

>  <Energy>  (4) 
54.64709227985299

>  <Genealogy>  (4) 
COc1ccc(N=Cc2c([O-])c3ccccc3oc2=O)cc1[O-] (protonated)
COc1ccc(/N=C\c2c([O-])c3ccccc3oc2=O)cc1[O-] (cis-trans isomerization)
COc1ccc(/N=C\c2c([O-])c3ccccc3oc2=O)cc1[O-] (3D coordinates assigned)
COc1ccc(/N=C\c2c([O-])c3ccccc3oc2=O)cc1[O-] (optimized conformer: 54.64709227985299 kcal/mol)

>  <smiles>  (4) 
COc1ccc(N=Cc2c(O)c3ccccc3oc2=O)cc1O

>  <score_type>  (4) 
oracle

>  <origin>  (4) 
adg

>  <m_score__min__energy>  (4) 
-11.94

>  <m_primary>  (4) 
energy

$$$$
4:0
     RDKit          3D

 55 57  0  0  0  0  0  0  0  0999 V2000
   59.8330   27.9590   48.2490 C   0  0  0  0  0  0  0  0  0  0  0  0
   59.8030   26.9510   47.1050 C   0  0  0  0  0  0  0  0  0  0  0  0
   60.8170   27.2470   46.1470 O   0  0  0  0  0  0  0  0  0  0  0  0
   60.7360   28.3110   45.2420 C   0  0  0  0  0  0  0  0  0  0  0  0
   61.7210   28.5930   44.5050 O   0  0  0  0  0  0  0  0  0  0  0  0
   59.4970   29.1000   45.1210 C   0  0  0  0  0  0  0  0  0  0  0  0
   59.3210   30.6340   45.7840 S   0  0  0  0  0  0  0  0  0  0  0  0
   57.7500   30.8930   45.2440 C   0  0  0  0  0  0  0  0  0  0  0  0
   57.0060   32.1080   45.4160 N   0  0  0  0  0  0  0  0  0  0  0  0
   57.5810   33.4160   45.5290 C   0  0  0  0  0  0  0  0  0  0  0  0
   57.0120   34.3850   44.9600 O   0  0  0  0  0  0  0  0  0  0  0  0
   58.8100   33.6540   46.3120 C   0  0  0  0  0  0  0  0  0  0  0  0
   58.7800   33.5780   47.7150 C   0  0  0  0  0  0  0  0  0  0  0  0
   59.9640   33.6670   48.4480 C   0  0  0  0  0  0  0  0  0  0  0  0
   61.1910   33.8350   47.7920 C   0  0  0  0  0  0  0  0  0  0  0  0
   62.6950   33.7800   48.7100 S   0  0  0  0  0  0  0  0  0  0  0  0
   62.8340   35.0450   49.5100 O   0  0  0  0  0  0  0  0  0  0  0  0
   63.8600   33.6960   47.7620 O   0  0  0  0  0  0  0  0  0  0  0  0
   62.7210   32.4060   49.7920 N   0  0  0  0  0  0  0  0  0  0  0  0
   62.1240   31.2290   49.1390 C   0  0  0  0  0  0  0  0  0  0  0  0
   61.9140   30.0990   50.1620 C   0  0  0  0  0  0  0  0  0  0  0  0
   62.8870   30.1940   51.3500 C   0  0  0  0  0  0  0  0  0  0  0  0
   64.2450   30.7450   50.9090 C   0  0  0  0  0  0  0  0  0  0  0  0
   64.1060   32.1240   50.2240 C   0  0  0  0  0  0  0  0  0  0  0  0
   61.2140   33.9750   46.3970 C   0  0  0  0  0  0  0  0  0  0  0  0
   60.0290   33.8930   45.6610 C   0  0  0  0  0  0  0  0  0  0  0  0
   57.3370   29.7980   44.4860 C   0  0  0  0  0  0  0  0  0  0  0  0
   56.0320   29.7610   43.7860 C   0  0  0  0  0  0  0  0  0  0  0  0
   54.8570   29.3400   44.4760 N   0  0  0  0  0  0  0  0  0  0  0  0
   55.9430   30.1290   42.5840 O   0  0  0  0  0  0  0  0  0  0  0  0
   58.3080   28.7600   44.4530 C   0  0  0  0  0  0  0  0  0  0  0  0
   58.0850   27.4210   43.8010 C   0  0  0  0  0  0  0  0  0  0  0  0
   59.8171   27.4237   49.2098 H   0  0  0  0  0  0  0  0  0  0  0  0
   60.7495   28.5635   48.1812 H   0  0  0  0  0  0  0  0  0  0  0  0
   58.9540   28.6169   48.1812 H   0  0  0  0  0  0  0  0  0  0  0  0
   59.9708   25.9415   47.5085 H   0  0  0  0  0  0  0  0  0  0  0  0
   58.8219   27.0056   46.6105 H   0  0  0  0  0  0  0  0  0  0  0  0
   57.8204   33.4480   48.2368 H   0  0  0  0  0  0  0  0  0  0  0  0
   59.9342   33.6050   49.5458 H   0  0  0  0  0  0  0  0  0  0  0  0
   61.1535   31.5091   48.7035 H   0  0  0  0  0  0  0  0  0  0  0  0
   62.8035   30.8750   48.3497 H   0  0  0  0  0  0  0  0  0  0  0  0
   60.8839   30.1553   50.5438 H   0  0  0  0  0  0  0  0  0  0  0  0
   62.1028   29.1440   49.6498 H   0  0  0  0  0  0  0  0  0  0  0  0
   62.4589   30.8618   52.1121 H   0  0  0  0  0  0  0  0  0  0  0  0
   63.0367   29.1842   51.7598 H   0  0  0  0  0  0  0  0  0  0  0  0
   64.8917   30.8492   51.7927 H   0  0  0  0  0  0  0  0  0  0  0  0
   64.6810   30.0432   50.1828 H   0  0  0  0  0  0  0  0  0  0  0  0
   64.4194   32.9035   50.9341 H   0  0  0  0  0  0  0  0  0  0  0  0
   64.7405   32.1156   49.3255 H   0  0  0  0  0  0  0  0  0  0  0  0
   62.1689   34.1501   45.8798 H   0  0  0  0  0  0  0  0  0  0  0  0
   60.0523   34.0162   44.5682 H   0  0  0  0  0  0  0  0  0  0  0  0
   54.7800   29.4350   45.5130 H   0  0  0  0  0  0  0  0  0  0  0  0
   57.9569   26.6521   44.5771 H   0  0  0  0  0  0  0  0  0  0  0  0
   57.1816   27.4640   43.1748 H   0  0  0  0  0  0  0  0  0  0  0  0
   58.9535   27.1689   43.1748 H   0  0  0  0  0  0  0  0  0  0  0  0
  1  2  1  0
  2  3  1  0
  3  4  1  0
  4  5  2  0
  4  6  1  0
  6  7  1  0
  7  8  1  0
  8  9  1  0
  9 10  1  0
 10 11  2  0
 10 12  1  0
 12 13  2  0
 13 14  1  0
 14 15  2  0
 15 16  1  0
 16 17  2  0
 16 18  2  0
 16 19  1  0
 19 20  1  0
 20 21  1  0
 21 22  1  0
 22 23  1  0
 23 24  1  0
 15 25  1  0
 25 26  2  0
  8 27  2  0
 27 28  1  0
 28 29  1  0
 28 30  2  0
 27 31  1  0
 31 32  1  0
 31  6  2  0
 26 12  1  0
 24 19  1  0
  1 33  1  0
  1 34  1  0
  1 35  1  0
  2 36  1  0
  2 37  1  0
 13 38  1  0
 14 39  1  0
 20 40  1  0
 20 41  1  0
 21 42  1  0
 21 43  1  0
 22 44  1  0
 22 45  1  0
 23 46  1  0
 23 47  1  0
 24 48  1  0
 24 49  1  0
 25 50  1  0
 26 51  1  0
 29 52  1  0
 32 53  1  0
 32 54  1  0
 32 55  1  0
M  CHG  2   9  -1  29  -1
M  END
>  <UniqueID>  (5) 
5

>  <SMILES>  (5) 
CCOC(=O)c1sc([N-]C(=O)c2ccc(S(=O)(=O)N3CCCCC3)cc2)c(C([NH-])=O)c1C

>  <Energy>  (5) 
89.41292235729489

>  <Genealogy>  (5) 
CCOC(=O)c1sc([N-]C(=O)c2ccc(S(=O)(=O)N3CCCCC3)cc2)c(C([NH-])=O)c1C (protonated)
CCOC(=O)c1sc([N-]C(=O)c2ccc(S(=O)(=O)N3CCCCC3)cc2)c(C([NH-])=O)c1C (3D coordinates assigned)
CCOC(=O)c1sc([N-]C(=O)c2ccc(S(=O)(=O)N3CCCCC3)cc2)c(C([NH-])=O)c1C (nonaromatic ring conformer: 89.41292235729489 kcal/mol)

>  <smiles>  (5) 
CCOC(=O)c1sc(NC(=O)c2ccc(S(=O)(=O)N3CCCCC3)cc2)c(C(N)=O)c1C

>  <score_type>  (5) 
oracle

>  <origin>  (5) 
adg

>  <m_score__min__energy>  (5) 
-14.65

>  <m_primary>  (5) 
energy

$$$$
5:0
     RDKit          3D

 35 37  0  0  0  0  0  0  0  0999 V2000
   56.6499   31.3507   42.3711 H   0  0  0  0  0  0  0  0  0  0  0  0
   57.1080   31.1950   43.3590 C   0  0  0  0  0  0  0  0  0  0  0  0
   57.2660   32.2430   44.2080 N   0  0  0  0  0  0  0  0  0  0  0  0
   57.8410   32.0770   45.4310 C   0  0  0  0  0  0  0  0  0  0  0  0
   57.9780   33.0740   46.2570 N   0  0  0  0  0  0  0  0  0  0  0  0
   59.1430   33.3960   47.0330 C   0  0  0  0  0  0  0  0  0  0  0  0
   58.9720   33.8000   48.3620 C   0  0  0  0  0  0  0  0  0  0  0  0
   57.9585   33.8903   48.7800 H   0  0  0  0  0  0  0  0  0  0  0  0
   60.0800   34.0890   49.1600 C   0  0  0  0  0  0  0  0  0  0  0  0
   59.9351   34.4191   50.1993 H   0  0  0  0  0  0  0  0  0  0  0  0
   61.3720   33.9610   48.6450 C   0  0  0  0  0  0  0  0  0  0  0  0
   62.2397   34.1959   49.2790 H   0  0  0  0  0  0  0  0  0  0  0  0
   61.5690   33.5330   47.3190 C   0  0  0  0  0  0  0  0  0  0  0  0
   62.9350   33.3620   46.7650 C   0  0  0  0  0  0  0  0  0  0  0  0
   63.4030   34.2310   45.9800 O   0  0  0  0  0  0  0  0  0  0  0  0
   63.7480   32.2370   47.1130 N   0  0  0  0  0  0  0  0  0  0  0  0
   64.6820   32.1120   46.6630 H   0  0  0  0  0  0  0  0  0  0  0  0
   63.4770   31.5770   47.8730 H   0  0  0  0  0  0  0  0  0  0  0  0
   60.4460   33.2330   46.5260 C   0  0  0  0  0  0  0  0  0  0  0  0
   60.5879   32.8670   45.4984 H   0  0  0  0  0  0  0  0  0  0  0  0
   58.2450   30.8370   45.8180 N   0  0  0  0  0  0  0  0  0  0  0  0
   58.0940   29.7560   45.0050 C   0  0  0  0  0  0  0  0  0  0  0  0
   58.5360   28.4860   45.3970 O   0  0  0  0  0  0  0  0  0  0  0  0
   57.7050   27.4030   45.7230 C   0  0  0  0  0  0  0  0  0  0  0  0
   56.3190   27.5550   45.5990 C   0  0  0  0  0  0  0  0  0  0  0  0
   55.9022   28.5083   45.2420 H   0  0  0  0  0  0  0  0  0  0  0  0
   55.4860   26.5290   45.9180 N   0  0  0  0  0  0  0  0  0  0  0  0
   55.9570   25.3380   46.3730 C   0  0  0  0  0  0  0  0  0  0  0  0
   55.1530   24.4120   46.6540 O   0  0  0  0  0  0  0  0  0  0  0  0
   57.3320   25.1460   46.5310 C   0  0  0  0  0  0  0  0  0  0  0  0
   57.7198   24.1864   46.9036 H   0  0  0  0  0  0  0  0  0  0  0  0
   58.2090   26.1850   46.2110 C   0  0  0  0  0  0  0  0  0  0  0  0
   59.2930   26.0502   46.3408 H   0  0  0  0  0  0  0  0  0  0  0  0
   57.5270   29.9220   43.7410 C   0  0  0  0  0  0  0  0  0  0  0  0
   57.4131   29.0657   43.0600 H   0  0  0  0  0  0  0  0  0  0  0  0
  1  2  1  0
  2  3  1  0
  3  4  1  0
  4  5  2  0
  5  6  1  0
  6  7  2  0
  7  8  1  0
  7  9  1  0
  9 10  1  0
  9 11  2  0
 11 12  1  0
 11 13  1  0
 13 14  1  0
 14 15  2  0
 14 16  1  0
 16 17  1  0
 16 18  1  0
 13 19  2  0
 19 20  1  0
  4 21  1  0
 21 22  2  0
 22 23  1  0
 23 24  1  0
 24 25  2  0
 25 26  1  0
 25 27  1  0
 27 28  1  0
 28 29  2  0
 28 30  1  0
 30 31  1  0
 30 32  2  0
 32 33  1  0
 22 34  1  0
 34 35  1  0
 34  2  2  0
 19  6  1  0
 32 24  1  0
M  CHG  2   3  -1  27  -1
M  END
>  <UniqueID>  (6) 
6

>  <SMILES>  (6) 
NC(=O)c1cccc(/N=c2/nc(Oc3ccc(=O)[n-]c3)cc[n-]2)c1

>  <Energy>  (6) 
52.288204057111464

>  <Genealogy>  (6) 
NC(=O)c1cccc(N=c2nc(Oc3ccc(=O)[n-]c3)cc[n-]2)c1 (protonated)
NC(=O)c1cccc(/N=c2/nc(Oc3ccc(=O)[n-]c3)cc[n-]2)c1 (cis-trans isomerization)
NC(=O)c1cccc(/N=c2/nc(Oc3ccc(=O)[n-]c3)cc[n-]2)c1 (3D coordinates assigned)
NC(=O)c1cccc(/N=c2/nc(Oc3ccc(=O)[n-]c3)cc[n-]2)c1 (optimized conformer: 52.288204057111464 kcal/mol)

>  <smiles>  (6) 
NC(=O)c1cccc(N=c2nc(Oc3ccc(=O)[nH]c3)cc[nH]2)c1

>  <score_type>  (6) 
oracle

>  <origin>  (6) 
adg

>  <m_score__min__energy>  (6) 
-11.27

>  <m_primary>  (6) 
energy

$$$$
6:0
     RDKit          3D

 42 44  0  0  0  0  0  0  0  0999 V2000
   59.5310   35.0080   47.1020 C   0  0  0  0  0  0  0  0  0  0  0  0
   58.8960   33.9060   46.3060 C   0  0  0  0  0  0  0  0  0  0  0  0
   58.3620   34.1740   45.0360 C   0  0  0  0  0  0  0  0  0  0  0  0
   57.7510   33.1570   44.2970 C   0  0  0  0  0  0  0  0  0  0  0  0
   57.6590   31.8600   44.8220 C   0  0  0  0  0  0  0  0  0  0  0  0
   56.9340   30.5590   43.8780 S   0  0  0  0  0  0  0  0  0  0  0  0
   56.6700   31.0090   42.4680 O   0  0  0  0  0  0  0  0  0  0  0  0
   55.6330   30.1660   44.5190 O   0  0  0  0  0  0  0  0  0  0  0  0
   58.0020   29.1920   43.8500 N   0  0  0  0  0  0  0  0  0  0  0  0
   57.9220   28.1150   44.8020 C   0  0  0  0  0  0  0  0  0  0  0  0
   59.0730   27.3670   45.0940 C   0  0  0  0  0  0  0  0  0  0  0  0
   59.0100   26.2810   45.9730 C   0  0  0  0  0  0  0  0  0  0  0  0
   57.7940   25.9200   46.5630 C   0  0  0  0  0  0  0  0  0  0  0  0
   57.7490   24.7760   47.4270 N   0  0  0  0  0  0  0  0  0  0  0  0
   57.3250   23.4570   47.0590 C   0  0  0  0  0  0  0  0  0  0  0  0
   57.2170   22.5830   47.9590 O   0  0  0  0  0  0  0  0  0  0  0  0
   57.0820   23.0850   45.6480 C   0  0  0  0  0  0  0  0  0  0  0  0
   56.0480   23.6870   44.9130 C   0  0  0  0  0  0  0  0  0  0  0  0
   55.8560   23.3280   43.5770 C   0  0  0  0  0  0  0  0  0  0  0  0
   56.6860   22.3740   42.9870 C   0  0  0  0  0  0  0  0  0  0  0  0
   57.6980   21.7860   43.7490 C   0  0  0  0  0  0  0  0  0  0  0  0
   57.8700   22.1500   45.0470 N   0  0  0  0  0  0  0  0  0  0  0  0
   56.6540   26.7070   46.3250 C   0  0  0  0  0  0  0  0  0  0  0  0
   56.7160   27.7900   45.4460 C   0  0  0  0  0  0  0  0  0  0  0  0
   58.1690   31.5960   46.1000 C   0  0  0  0  0  0  0  0  0  0  0  0
   58.7800   32.6130   46.8410 C   0  0  0  0  0  0  0  0  0  0  0  0
   59.4115   34.8006   48.1756 H   0  0  0  0  0  0  0  0  0  0  0  0
   60.6017   35.0672   46.8570 H   0  0  0  0  0  0  0  0  0  0  0  0
   59.0453   35.9641   46.8570 H   0  0  0  0  0  0  0  0  0  0  0  0
   58.4247   35.1903   44.6198 H   0  0  0  0  0  0  0  0  0  0  0  0
   57.3408   33.3749   43.2999 H   0  0  0  0  0  0  0  0  0  0  0  0
   58.6080   29.0780   43.0050 H   0  0  0  0  0  0  0  0  0  0  0  0
   60.0321   27.6370   44.6279 H   0  0  0  0  0  0  0  0  0  0  0  0
   59.9208   25.7081   46.2015 H   0  0  0  0  0  0  0  0  0  0  0  0
   55.3946   24.4352   45.3856 H   0  0  0  0  0  0  0  0  0  0  0  0
   55.0517   23.7966   42.9908 H   0  0  0  0  0  0  0  0  0  0  0  0
   56.5449   22.0884   41.9341 H   0  0  0  0  0  0  0  0  0  0  0  0
   58.3559   21.0282   43.2985 H   0  0  0  0  0  0  0  0  0  0  0  0
   55.7083   26.4685   46.8338 H   0  0  0  0  0  0  0  0  0  0  0  0
   55.8154   28.3925   45.2564 H   0  0  0  0  0  0  0  0  0  0  0  0
   58.0885   30.5837   46.5228 H   0  0  0  0  0  0  0  0  0  0  0  0
   59.1711   32.3990   47.8466 H   0  0  0  0  0  0  0  0  0  0  0  0
  1  2  1  0
  2  3  2  0
  3  4  1  0
  4  5  2  0
  5  6  1  0
  6  7  2  0
  6  8  2  0
  6  9  1  0
  9 10  1  0
 10 11  2  0
 11 12  1  0
 12 13  2  0
 13 14  1  0
 14 15  1  0
 15 16  2  0
 15 17  1  0
 17 18  2  0
 18 19  1  0
 19 20  2  0
 20 21  1  0
 21 22  2  0
 13 23  1  0
 23 24  2  0
  5 25  1  0
 25 26  2  0
 26  2  1  0
 24 10  1  0
 22 17  1  0
  1 27  1  0
  1 28  1  0
  1 29  1  0
  3 30  1  0
  4 31  1  0
  9 32  1  0
 11 33  1  0
 12 34  1  0
 18 35  1  0
 19 36  1  0
 20 37  1  0
 21 38  1  0
 23 39  1  0
 24 40  1  0
 25 41  1  0
 26 42  1  0
M  CHG  1  14  -1
M  END
>  <UniqueID>  (7) 
7

>  <SMILES>  (7) 
Cc1ccc(S(=O)(=O)Nc2ccc([N-]C(=O)c3ccccn3)cc2)cc1

>  <Energy>  (7) 
50.76174199913661

>  <Genealogy>  (7) 
Cc1ccc(S(=O)(=O)Nc2ccc([N-]C(=O)c3ccccn3)cc2)cc1 (protonated)
Cc1ccc(S(=O)(=O)Nc2ccc([N-]C(=O)c3ccccn3)cc2)cc1 (3D coordinates assigned)
Cc1ccc(S(=O)(=O)Nc2ccc([N-]C(=O)c3ccccn3)cc2)cc1 (optimized conformer: 50.76174199913661 kcal/mol)

>  <smiles>  (7) 
Cc1ccc(S(=O)(=O)Nc2ccc(NC(=O)c3ccccn3)cc2)cc1

>  <score_type>  (7) 
oracle

>  <origin>  (7) 
adg

>  <m_score__min__energy>  (7) 
-10.85

>  <m_primary>  (7) 
energy

$$$$
7:0
     RDKit          3D

 52 54  0  0  0  0  0  0  0  0999 V2000
   60.9750   26.7370   45.8810 H   0  0  0  0  0  0  0  0  0  0  0  0
   60.3370   26.4220   46.6030 O   0  0  0  0  0  0  0  0  0  0  0  0
   58.9540   26.4910   46.4360 C   0  0  0  0  0  0  0  0  0  0  0  0
   58.1380   25.4800   46.9660 C   0  0  0  0  0  0  0  0  0  0  0  0
   58.5939   24.6428   47.5148 H   0  0  0  0  0  0  0  0  0  0  0  0
   56.7470   25.5280   46.8020 C   0  0  0  0  0  0  0  0  0  0  0  0
   55.8990   24.5180   47.3690 N   0  0  0  0  0  0  0  0  0  0  0  0
   56.2910   23.4010   47.9120 C   0  0  0  0  0  0  0  0  0  0  0  0
   57.3674   23.2491   48.0802 H   0  0  0  0  0  0  0  0  0  0  0  0
   55.3380   22.3060   48.3210 C   0  0  0  0  0  0  0  0  0  0  0  0
   54.3345   22.7387   48.4464 H   0  0  0  0  0  0  0  0  0  0  0  0
   55.7077   21.8712   49.2614 H   0  0  0  0  0  0  0  0  0  0  0  0
   55.2640   21.1790   47.2780 C   0  0  0  0  0  0  0  0  0  0  0  0
   54.8215   20.2911   47.7533 H   0  0  0  0  0  0  0  0  0  0  0  0
   56.2891   20.9913   46.9260 H   0  0  0  0  0  0  0  0  0  0  0  0
   54.4330   21.5410   46.0690 C   0  0  0  0  0  0  0  0  0  0  0  0
   54.9910   21.6710   44.9470 O   0  0  0  0  0  0  0  0  0  0  0  0
   53.0000   21.5610   46.1230 N   0  0  0  0  0  0  0  0  0  0  0  0
   52.1370   22.5320   45.5140 C   0  0  0  0  0  0  0  0  0  0  0  0
   50.8450   22.1750   45.0920 C   0  0  0  0  0  0  0  0  0  0  0  0
   50.5041   21.1345   45.1972 H   0  0  0  0  0  0  0  0  0  0  0  0
   49.9910   23.1320   44.5400 C   0  0  0  0  0  0  0  0  0  0  0  0
   48.9873   22.8405   44.1971 H   0  0  0  0  0  0  0  0  0  0  0  0
   50.4100   24.4580   44.4230 C   0  0  0  0  0  0  0  0  0  0  0  0
   49.7393   25.2098   43.9814 H   0  0  0  0  0  0  0  0  0  0  0  0
   51.6820   24.8310   44.8670 C   0  0  0  0  0  0  0  0  0  0  0  0
   52.0058   25.8786   44.7798 H   0  0  0  0  0  0  0  0  0  0  0  0
   52.5480   23.8780   45.4230 C   0  0  0  0  0  0  0  0  0  0  0  0
   53.8440   24.2840   45.8790 N   0  0  0  0  0  0  0  0  0  0  0  0
   53.9770   25.2050   46.3530 H   0  0  0  0  0  0  0  0  0  0  0  0
   54.6850   23.6780   45.7500 H   0  0  0  0  0  0  0  0  0  0  0  0
   56.1700   26.6210   46.1470 C   0  0  0  0  0  0  0  0  0  0  0  0
   54.7880   26.7020   46.0080 O   0  0  0  0  0  0  0  0  0  0  0  0
   56.9760   27.6300   45.6140 C   0  0  0  0  0  0  0  0  0  0  0  0
   56.5120   28.4742   45.0829 H   0  0  0  0  0  0  0  0  0  0  0  0
   58.3770   27.5770   45.7500 C   0  0  0  0  0  0  0  0  0  0  0  0
   59.2260   28.6100   45.2040 N   0  0  0  0  0  0  0  0  0  0  0  0
   60.2450   28.5990   45.4320 H   0  0  0  0  0  0  0  0  0  0  0  0
   58.7450   29.7340   44.4010 C   0  0  0  0  0  0  0  0  0  0  0  0
   59.3435   29.8026   43.4806 H   0  0  0  0  0  0  0  0  0  0  0  0
   57.6860   29.5660   44.1556 H   0  0  0  0  0  0  0  0  0  0  0  0
   58.8660   31.0250   45.1670 C   0  0  0  0  0  0  0  0  0  0  0  0
   59.6560   31.0990   46.3270 C   0  0  0  0  0  0  0  0  0  0  0  0
   60.1896   30.2061   46.6847 H   0  0  0  0  0  0  0  0  0  0  0  0
   59.7660   32.3040   47.0280 C   0  0  0  0  0  0  0  0  0  0  0  0
   60.3902   32.3574   47.9322 H   0  0  0  0  0  0  0  0  0  0  0  0
   59.0850   33.4410   46.5830 C   0  0  0  0  0  0  0  0  0  0  0  0
   59.2260   34.9510   47.4640 Cl  0  0  0  0  0  0  0  0  0  0  0  0
   58.2890   33.3720   45.4350 C   0  0  0  0  0  0  0  0  0  0  0  0
   57.7504   34.2652   45.0855 H   0  0  0  0  0  0  0  0  0  0  0  0
   58.1770   32.1690   44.7310 C   0  0  0  0  0  0  0  0  0  0  0  0
   57.5462   32.1182   43.8313 H   0  0  0  0  0  0  0  0  0  0  0  0
  1  2  1  0
  2  3  1  0
  3  4  2  0
  4  5  1  0
  4  6  1  0
  6  7  1  0
  7  8  2  0
  8  9  1  0
  8 10  1  0
 10 11  1  0
 10 12  1  0
 10 13  1  0
 13 14  1  0
 13 15  1  0
 13 16  1  0
 16 17  2  0
 16 18  1  0
 18 19  1  0
 19 20  2  0
 20 21  1  0
 20 22  1  0
 22 23  1  0
 22 24  2  0
 24 25  1  0
 24 26  1  0
 26 27  1  0
 26 28  2  0
 28 29  1  0
 29 30  1  0
 29 31  1  0
  6 32  2  0
 32 33  1  0
 32 34  1  0
 34 35  1  0
 34 36  2  0
 36 37  1  0
 37 38  1  0
 37 39  1  0
 39 40  1  0
 39 41  1  0
 39 42  1  0
 42 43  2  0
 43 44  1  0
 43 45  1  0
 45 46  1  0
 45 47  2  0
 47 48  1  0
 47 49  1  0
 49 50  1  0
 49 51  2  0
 51 52  1  0
 36  3  1  0
 51 42  1  0
 28 19  1  0
M  CHG  2  18  -1  33  -1
M  END
>  <UniqueID>  (8) 
8

>  <SMILES>  (8) 
Nc1ccccc1[N-]C(=O)CC/C=N\c1cc(O)c(NCc2ccc(Cl)cc2)cc1[O-]

>  <Energy>  (8) 
65.00589908867477

>  <Genealogy>  (8) 
Nc1ccccc1[N-]C(=O)CCC=Nc1cc(O)c(NCc2ccc(Cl)cc2)cc1[O-] (protonated)
Nc1ccccc1[N-]C(=O)CC/C=N\c1cc(O)c(NCc2ccc(Cl)cc2)cc1[O-] (cis-trans isomerization)
Nc1ccccc1[N-]C(=O)CC/C=N\c1cc(O)c(NCc2ccc(Cl)cc2)cc1[O-] (3D coordinates assigned)
Nc1ccccc1[N-]C(=O)CC/C=N\c1cc(O)c(NCc2ccc(Cl)cc2)cc1[O-] (optimized conformer: 65.00589908867477 kcal/mol)

>  <smiles>  (8) 
Nc1ccccc1NC(=O)CCC=Nc1cc(O)c(NCc2ccc(Cl)cc2)cc1O

>  <score_type>  (8) 
oracle

>  <origin>  (8) 
adg

>  <m_score__min__energy>  (8) 
-12.279999999999999

>  <m_primary>  (8) 
energy

$$$$
8:0
     RDKit          3D

 58 60  0  0  0  0  0  0  0  0999 V2000
   60.0770   34.1760   49.1310 C   0  0  0  0  0  0  0  0  0  0  0  0
   60.7560   34.4750   47.8000 C   0  0  0  0  0  0  0  0  0  0  0  0
   59.7960   34.2520   46.6200 C   0  0  0  0  0  0  0  0  0  0  0  0
   58.6720   33.2950   47.0160 C   0  0  0  0  0  0  0  0  0  0  0  0
   58.3360   32.3020   45.9280 C   0  0  0  0  0  0  0  0  0  0  0  0
   58.0790   32.7070   44.6690 N   0  0  0  0  0  0  0  0  0  0  0  0
   57.7770   31.5990   43.9810 C   0  0  0  0  0  0  0  0  0  0  0  0
   57.3540   31.5860   42.2780 Cl  0  0  0  0  0  0  0  0  0  0  0  0
   57.8580   30.5150   44.8270 C   0  0  0  0  0  0  0  0  0  0  0  0
   57.6070   29.0830   44.4320 C   0  0  0  0  0  0  0  0  0  0  0  0
   56.2840   28.6270   44.9520 C   0  0  0  0  0  0  0  0  0  0  0  0
   55.2620   29.3440   44.7930 O   0  0  0  0  0  0  0  0  0  0  0  0
   56.1800   27.4210   45.6310 O   0  0  0  0  0  0  0  0  0  0  0  0
   58.1810   30.9520   46.0710 N   0  0  0  0  0  0  0  0  0  0  0  0
   58.5310   30.0730   47.2030 C   0  0  0  0  0  0  0  0  0  0  0  0
   59.8390   30.4210   47.8600 C   0  0  0  0  0  0  0  0  0  0  0  0
   60.0250   30.2320   49.2340 C   0  0  0  0  0  0  0  0  0  0  0  0
   61.2040   30.6600   49.8450 C   0  0  0  0  0  0  0  0  0  0  0  0
   62.2250   31.2700   49.0870 C   0  0  0  0  0  0  0  0  0  0  0  0
   63.3590   31.8010   49.7140 O   0  0  0  0  0  0  0  0  0  0  0  0
   63.3300   32.5280   50.9440 C   0  0  0  0  0  0  0  0  0  0  0  0
   64.6740   33.1570   51.2020 C   0  0  0  0  0  0  0  0  0  0  0  0
   64.7570   34.4100   51.8390 C   0  0  0  0  0  0  0  0  0  0  0  0
   65.9960   35.0360   52.0100 C   0  0  0  0  0  0  0  0  0  0  0  0
   67.1600   34.4170   51.5510 C   0  0  0  0  0  0  0  0  0  0  0  0
   67.0870   33.1750   50.9100 C   0  0  0  0  0  0  0  0  0  0  0  0
   65.8510   32.5450   50.7320 C   0  0  0  0  0  0  0  0  0  0  0  0
   65.8020   31.3390   50.1090 F   0  0  0  0  0  0  0  0  0  0  0  0
   62.0880   31.3430   47.6800 C   0  0  0  0  0  0  0  0  0  0  0  0
   63.0750   31.8500   46.8140 O   0  0  0  0  0  0  0  0  0  0  0  0
   63.7720   33.0810   46.9630 C   0  0  0  0  0  0  0  0  0  0  0  0
   60.9020   30.9050   47.0850 C   0  0  0  0  0  0  0  0  0  0  0  0
   60.7427   34.4691   49.9562 H   0  0  0  0  0  0  0  0  0  0  0  0
   59.1371   34.7435   49.1988 H   0  0  0  0  0  0  0  0  0  0  0  0
   59.8611   33.0995   49.1988 H   0  0  0  0  0  0  0  0  0  0  0  0
   61.0910   35.5227   47.7962 H   0  0  0  0  0  0  0  0  0  0  0  0
   61.6109   33.7923   47.6856 H   0  0  0  0  0  0  0  0  0  0  0  0
   59.3609   35.2168   46.3204 H   0  0  0  0  0  0  0  0  0  0  0  0
   60.3582   33.8125   45.7829 H   0  0  0  0  0  0  0  0  0  0  0  0
   58.9829   32.7405   47.9137 H   0  0  0  0  0  0  0  0  0  0  0  0
   57.7722   33.9003   47.2005 H   0  0  0  0  0  0  0  0  0  0  0  0
   58.0930   33.6830   44.3010 H   0  0  0  0  0  0  0  0  0  0  0  0
   57.6131   29.0027   43.3350 H   0  0  0  0  0  0  0  0  0  0  0  0
   58.3977   28.4495   44.8603 H   0  0  0  0  0  0  0  0  0  0  0  0
   57.7338   30.1452   47.9575 H   0  0  0  0  0  0  0  0  0  0  0  0
   58.6365   29.0557   46.7981 H   0  0  0  0  0  0  0  0  0  0  0  0
   59.2410   29.7456   49.8329 H   0  0  0  0  0  0  0  0  0  0  0  0
   61.3385   30.5204   50.9278 H   0  0  0  0  0  0  0  0  0  0  0  0
   62.5646   33.3157   50.8837 H   0  0  0  0  0  0  0  0  0  0  0  0
   63.0905   31.8376   51.7661 H   0  0  0  0  0  0  0  0  0  0  0  0
   63.8421   34.8994   52.2043 H   0  0  0  0  0  0  0  0  0  0  0  0
   66.0532   36.0161   52.5062 H   0  0  0  0  0  0  0  0  0  0  0  0
   68.1352   34.9057   51.6932 H   0  0  0  0  0  0  0  0  0  0  0  0
   68.0055   32.6923   50.5447 H   0  0  0  0  0  0  0  0  0  0  0  0
   63.8981   33.3038   48.0328 H   0  0  0  0  0  0  0  0  0  0  0  0
   64.7600   33.0031   46.4857 H   0  0  0  0  0  0  0  0  0  0  0  0
   63.1969   33.8881   46.4857 H   0  0  0  0  0  0  0  0  0  0  0  0
   60.8008   30.9406   45.9902 H   0  0  0  0  0  0  0  0  0  0  0  0
  1  2  1  0
  2  3  1  0
  3  4  1  0
  4  5  1  0
  5  6  2  0
  6  7  1  0
  7  8  1  0
  7  9  2  0
  9 10  1  0
 10 11  1  0
 11 12  2  0
 11 13  1  0
  9 14  1  0
 14 15  1  0
 15 16  1  0
 16 17  2  0
 17 18  1  0
 18 19  2  0
 19 20  1  0
 20 21  1  0
 21 22  1  0
 22 23  2  0
 23 24  1  0
 24 25  2  0
 25 26  1  0
 26 27  2  0
 27 28  1  0
 19 29  1  0
 29 30  1  0
 30 31  1  0
 29 32  2  0
 14  5  1  0
 32 16  1  0
 27 22  1  0
  1 33  1  0
  1 34  1  0
  1 35  1  0
  2 36  1  0
  2 37  1  0
  3 38  1  0
  3 39  1  0
  4 40  1  0
  4 41  1  0
  6 42  1  0
 10 43  1  0
 10 44  1  0
 15 45  1  0
 15 46  1  0
 17 47  1  0
 18 48  1  0
 21 49  1  0
 21 50  1  0
 23 51  1  0
 24 52  1  0
 25 53  1  0
 26 54  1  0
 31 55  1  0
 31 56  1  0
 31 57  1  0
 32 58  1  0
M  CHG  2   6   1  13  -1
M  END
>  <UniqueID>  (9) 
9

>  <SMILES>  (9) 
CCCCc1[nH+]c(Cl)c(CC(=O)[O-])n1Cc1ccc(OCc2ccccc2F)c(OC)c1

>  <Energy>  (9) 
84.24766816165511

>  <Genealogy>  (9) 
CCCCc1[nH+]c(Cl)c(CC(=O)[O-])n1Cc1ccc(OCc2ccccc2F)c(OC)c1 (protonated)
CCCCc1[nH+]c(Cl)c(CC(=O)[O-])n1Cc1ccc(OCc2ccccc2F)c(OC)c1 (3D coordinates assigned)
CCCCc1[nH+]c(Cl)c(CC(=O)[O-])n1Cc1ccc(OCc2ccccc2F)c(OC)c1 (optimized conformer: 84.24766816165511 kcal/mol)

>  <smiles>  (9) 
CCCCc1nc(Cl)c(CC(=O)O)n1Cc1ccc(OCc2ccccc2F)c(OC)c1

>  <score_type>  (9) 
oracle

>  <origin>  (9) 
adg

>  <m_score__min__energy>  (9) 
-9.1999999999999993

>  <m_primary>  (9) 
energy

$$$$
9:0
     RDKit          3D

 54 57  0  0  0  0  0  0  0  0999 V2000
   56.6110   26.8580   45.6960 C   0  0  0  0  0  0  0  0  0  0  0  0
   56.6320   28.2880   45.2450 C   0  0  0  0  0  0  0  0  0  0  0  0
   55.5160   28.9610   44.8990 N   0  0  0  0  0  0  0  0  0  0  0  0
   55.8580   30.1780   44.5010 N   0  0  0  0  0  0  0  0  0  0  0  0
   57.1940   30.2900   44.5940 C   0  0  0  0  0  0  0  0  0  0  0  0
   58.0980   31.7690   44.1210 S   0  0  0  0  0  0  0  0  0  0  0  0
   58.7050   32.1310   45.8030 C   0  0  0  0  0  0  0  0  0  0  0  0
   58.6390   33.6040   46.0680 C   0  0  0  0  0  0  0  0  0  0  0  0
   57.7250   34.2840   45.5400 O   0  0  0  0  0  0  0  0  0  0  0  0
   59.5430   34.2400   46.9730 N   0  0  0  0  0  0  0  0  0  0  0  0
   60.8510   33.7750   47.3290 C   0  0  0  0  0  0  0  0  0  0  0  0
   61.9210   33.8870   46.4220 C   0  0  0  0  0  0  0  0  0  0  0  0
   63.2040   33.4800   46.7900 C   0  0  0  0  0  0  0  0  0  0  0  0
   63.4350   32.9700   48.0680 C   0  0  0  0  0  0  0  0  0  0  0  0
   62.3840   32.8690   48.9850 C   0  0  0  0  0  0  0  0  0  0  0  0
   61.0880   33.2660   48.6230 C   0  0  0  0  0  0  0  0  0  0  0  0
   60.0190   33.1580   49.5840 N   0  0  0  0  0  0  0  0  0  0  0  0
   60.1670   33.8490   50.8800 C   0  0  0  0  0  0  0  0  0  0  0  0
   59.0520   33.4700   51.8550 C   0  0  0  0  0  0  0  0  0  0  0  0
   58.6780   32.1250   51.6660 O   0  0  0  0  0  0  0  0  0  0  0  0
   57.9520   32.0170   50.4520 C   0  0  0  0  0  0  0  0  0  0  0  0
   58.8440   32.3420   49.2300 C   0  0  0  0  0  0  0  0  0  0  0  0
   57.7350   29.1140   45.0820 C   0  0  0  0  0  0  0  0  0  0  0  0
   59.1710   28.8070   45.2700 C   0  0  0  0  0  0  0  0  0  0  0  0
   60.0180   29.3730   44.5250 O   0  0  0  0  0  0  0  0  0  0  0  0
   59.6400   27.8850   46.2610 N   0  0  0  0  0  0  0  0  0  0  0  0
   60.1300   28.2210   47.5640 C   0  0  0  0  0  0  0  0  0  0  0  0
   60.2520   27.2540   48.5800 C   0  0  0  0  0  0  0  0  0  0  0  0
   60.7030   27.6270   49.8490 C   0  0  0  0  0  0  0  0  0  0  0  0
   61.0340   28.9570   50.1150 C   0  0  0  0  0  0  0  0  0  0  0  0
   60.9040   29.9220   49.1110 C   0  0  0  0  0  0  0  0  0  0  0  0
   60.4420   29.5570   47.8440 C   0  0  0  0  0  0  0  0  0  0  0  0
   56.6104   26.8202   46.7954 H   0  0  0  0  0  0  0  0  0  0  0  0
   55.7055   26.3656   45.3117 H   0  0  0  0  0  0  0  0  0  0  0  0
   57.5016   26.3392   45.3117 H   0  0  0  0  0  0  0  0  0  0  0  0
   58.0805   31.6009   46.5371 H   0  0  0  0  0  0  0  0  0  0  0  0
   59.7493   31.7961   45.8888 H   0  0  0  0  0  0  0  0  0  0  0  0
   61.7450   34.2978   45.4169 H   0  0  0  0  0  0  0  0  0  0  0  0
   64.0336   33.5613   46.0723 H   0  0  0  0  0  0  0  0  0  0  0  0
   64.4464   32.6465   48.3550 H   0  0  0  0  0  0  0  0  0  0  0  0
   62.5743   32.4765   49.9948 H   0  0  0  0  0  0  0  0  0  0  0  0
   61.1358   33.5733   51.3221 H   0  0  0  0  0  0  0  0  0  0  0  0
   60.1097   34.9325   50.6988 H   0  0  0  0  0  0  0  0  0  0  0  0
   59.4091   33.6065   52.8864 H   0  0  0  0  0  0  0  0  0  0  0  0
   58.1798   34.1147   51.6716 H   0  0  0  0  0  0  0  0  0  0  0  0
   57.5702   30.9901   50.3534 H   0  0  0  0  0  0  0  0  0  0  0  0
   57.1238   32.7405   50.4783 H   0  0  0  0  0  0  0  0  0  0  0  0
   59.1923   31.3971   48.7874 H   0  0  0  0  0  0  0  0  0  0  0  0
   58.2368   32.9241   48.5211 H   0  0  0  0  0  0  0  0  0  0  0  0
   59.9923   26.2049   48.3749 H   0  0  0  0  0  0  0  0  0  0  0  0
   60.7976   26.8698   50.6413 H   0  0  0  0  0  0  0  0  0  0  0  0
   61.3965   29.2455   51.1127 H   0  0  0  0  0  0  0  0  0  0  0  0
   61.1659   30.9699   49.3192 H   0  0  0  0  0  0  0  0  0  0  0  0
   60.3228   30.3225   47.0631 H   0  0  0  0  0  0  0  0  0  0  0  0
  1  2  1  0
  2  3  1  0
  3  4  1  0
  4  5  2  0
  5  6  1  0
  6  7  1  0
  7  8  1  0
  8  9  2  0
  8 10  1  0
 10 11  1  0
 11 12  2  0
 12 13  1  0
 13 14  2  0
 14 15  1  0
 15 16  2  0
 16 17  1  0
 17 18  1  0
 18 19  1  0
 19 20  1  0
 20 21  1  0
 21 22  1  0
  5 23  1  0
 23 24  1  0
 24 25  2  0
 24 26  1  0
 26 27  1  0
 27 28  2  0
 28 29  1  0
 29 30  2  0
 30 31  1  0
 31 32  2  0
 23  2  2  0
 32 27  1  0
 16 11  1  0
 22 17  1  0
  1 33  1  0
  1 34  1  0
  1 35  1  0
  7 36  1  0
  7 37  1  0
 12 38  1  0
 13 39  1  0
 14 40  1  0
 15 41  1  0
 18 42  1  0
 18 43  1  0
 19 44  1  0
 19 45  1  0
 21 46  1  0
 21 47  1  0
 22 48  1  0
 22 49  1  0
 28 50  1  0
 29 51  1  0
 30 52  1  0
 31 53  1  0
 32 54  1  0
M  CHG  3   3  -1  10  -1  26  -1
M  END
>  <UniqueID>  (10) 
10

>  <SMILES>  (10) 
Cc1[n-]nc(SCC(=O)[N-]c2ccccc2N2CCOCC2)c1C(=O)[N-]c1ccccc1

>  <Energy>  (10) 
99.68242565824619

>  <Genealogy>  (10) 
Cc1[n-]nc(SCC(=O)[N-]c2ccccc2N2CCOCC2)c1C(=O)[N-]c1ccccc1 (protonated)
Cc1[n-]nc(SCC(=O)[N-]c2ccccc2N2CCOCC2)c1C(=O)[N-]c1ccccc1 (3D coordinates assigned)
Cc1[n-]nc(SCC(=O)[N-]c2ccccc2N2CCOCC2)c1C(=O)[N-]c1ccccc1 (nonaromatic ring conformer: 99.68242565824619 kcal/mol)

>  <smiles>  (10) 
Cc1[nH]nc(SCC(=O)Nc2ccccc2N2CCOCC2)c1C(=O)Nc1ccccc1

>  <score_type>  (10) 
oracle

>  <origin>  (10) 
adg

>  <m_score__min__energy>  (10) 
-14.49

>  <m_primary>  (10) 
energy

$$$$
10:0
     RDKit          3D

 57 59  0  0  0  0  0  0  0  0999 V2000
   60.4500   27.0190   49.8010 C   0  0  0  0  0  0  0  0  0  0  0  0
   60.1290   27.8480   48.6360 N   0  0  0  0  0  0  0  0  0  0  0  0
   60.2290   27.2730   47.2820 C   0  0  0  0  0  0  0  0  0  0  0  0
   59.0740   27.6650   46.3860 C   0  0  0  0  0  0  0  0  0  0  0  0
   57.9320   27.3980   46.7410 O   0  0  0  0  0  0  0  0  0  0  0  0
   59.3090   28.2880   45.0960 N   0  0  0  0  0  0  0  0  0  0  0  0
   60.7510   28.4820   44.8850 C   0  0  0  0  0  0  0  0  0  0  0  0
   58.7310   27.4750   44.0140 C   0  0  0  0  0  0  0  0  0  0  0  0
   59.7550   29.2170   48.8790 C   0  0  0  0  0  0  0  0  0  0  0  0
   58.6760   29.4470   49.4920 O   0  0  0  0  0  0  0  0  0  0  0  0
   60.6220   30.3480   48.4620 C   0  0  0  0  0  0  0  0  0  0  0  0
   61.9400   30.4560   48.9690 C   0  0  0  0  0  0  0  0  0  0  0  0
   62.7760   31.5080   48.5710 C   0  0  0  0  0  0  0  0  0  0  0  0
   62.2560   32.4540   47.6940 C   0  0  0  0  0  0  0  0  0  0  0  0
   62.8890   33.5640   47.1780 C   0  0  0  0  0  0  0  0  0  0  0  0
   61.9450   34.2030   46.3880 C   0  0  0  0  0  0  0  0  0  0  0  0
   60.7780   33.4520   46.4610 C   0  0  0  0  0  0  0  0  0  0  0  0
   59.4950   33.8800   45.9570 N   0  0  0  0  0  0  0  0  0  0  0  0
   58.3390   33.9440   46.8530 C   0  0  0  0  0  0  0  0  0  0  0  0
   57.3880   32.7810   46.5360 C   0  0  0  0  0  0  0  0  0  0  0  0
   57.1490   32.5930   45.0820 N   0  0  0  0  0  0  0  0  0  0  0  0
   57.4460   30.9480   44.5530 S   0  0  0  0  0  0  0  0  0  0  0  0
   56.7010   30.5800   42.9710 C   0  0  0  0  0  0  0  0  0  0  0  0
   56.9060   29.9790   45.5740 O   0  0  0  0  0  0  0  0  0  0  0  0
   58.9320   30.7410   44.4380 O   0  0  0  0  0  0  0  0  0  0  0  0
   57.7580   33.6040   44.1920 C   0  0  0  0  0  0  0  0  0  0  0  0
   59.2390   33.8770   44.5120 C   0  0  0  0  0  0  0  0  0  0  0  0
   60.9880   32.3710   47.2470 N   0  0  0  0  0  0  0  0  0  0  0  0
   60.1680   31.3300   47.5550 C   0  0  0  0  0  0  0  0  0  0  0  0
   60.2326   27.5804   50.7216 H   0  0  0  0  0  0  0  0  0  0  0  0
   59.8416   26.1028   49.7779 H   0  0  0  0  0  0  0  0  0  0  0  0
   61.5167   26.7515   49.7779 H   0  0  0  0  0  0  0  0  0  0  0  0
   61.1645   27.6226   46.8210 H   0  0  0  0  0  0  0  0  0  0  0  0
   60.2069   26.1783   47.3871 H   0  0  0  0  0  0  0  0  0  0  0  0
   58.8560   29.2310   45.0690 H   0  0  0  0  0  0  0  0  0  0  0  0
   61.2581   28.5502   45.8587 H   0  0  0  0  0  0  0  0  0  0  0  0
   61.1566   27.6303   44.3192 H   0  0  0  0  0  0  0  0  0  0  0  0
   60.9171   29.4106   44.3192 H   0  0  0  0  0  0  0  0  0  0  0  0
   58.1452   26.6510   44.4474 H   0  0  0  0  0  0  0  0  0  0  0  0
   58.0759   28.1036   43.3929 H   0  0  0  0  0  0  0  0  0  0  0  0
   59.5399   27.0627   43.3929 H   0  0  0  0  0  0  0  0  0  0  0  0
   62.3115   29.7061   49.6829 H   0  0  0  0  0  0  0  0  0  0  0  0
   63.8095   31.5831   48.9401 H   0  0  0  0  0  0  0  0  0  0  0  0
   63.9280   33.8782   47.3559 H   0  0  0  0  0  0  0  0  0  0  0  0
   62.0922   35.1289   45.8126 H   0  0  0  0  0  0  0  0  0  0  0  0
   58.6781   33.8677   47.8967 H   0  0  0  0  0  0  0  0  0  0  0  0
   57.8137   34.8998   46.7099 H   0  0  0  0  0  0  0  0  0  0  0  0
   57.8229   31.8550   46.9403 H   0  0  0  0  0  0  0  0  0  0  0  0
   56.4179   33.0206   46.9959 H   0  0  0  0  0  0  0  0  0  0  0  0
   55.7249   30.0979   43.1286 H   0  0  0  0  0  0  0  0  0  0  0  0
   56.5620   31.5131   42.4053 H   0  0  0  0  0  0  0  0  0  0  0  0
   57.3575   29.9025   42.4053 H   0  0  0  0  0  0  0  0  0  0  0  0
   57.6842   33.2467   43.1543 H   0  0  0  0  0  0  0  0  0  0  0  0
   57.2108   34.5462   44.3432 H   0  0  0  0  0  0  0  0  0  0  0  0
   59.8542   33.0947   44.0435 H   0  0  0  0  0  0  0  0  0  0  0  0
   59.4951   34.8717   44.1183 H   0  0  0  0  0  0  0  0  0  0  0  0
   59.1673   31.2547   47.1045 H   0  0  0  0  0  0  0  0  0  0  0  0
  1  2  1  0
  2  3  1  0
  3  4  1  0
  4  5  2  0
  4  6  1  0
  6  7  1  0
  6  8  1  0
  2  9  1  0
  9 10  2  0
  9 11  1  0
 11 12  1  0
 12 13  2  0
 13 14  1  0
 14 15  2  0
 15 16  1  0
 16 17  2  0
 17 18  1  0
 18 19  1  0
 19 20  1  0
 20 21  1  0
 21 22  1  0
 22 23  1  0
 22 24  2  0
 22 25  2  0
 21 26  1  0
 26 27  1  0
 17 28  1  0
 28 29  1  0
 29 11  2  0
 28 14  1  0
 27 18  1  0
  1 30  1  0
  1 31  1  0
  1 32  1  0
  3 33  1  0
  3 34  1  0
  6 35  1  0
  7 36  1  0
  7 37  1  0
  7 38  1  0
  8 39  1  0
  8 40  1  0
  8 41  1  0
 12 42  1  0
 13 43  1  0
 15 44  1  0
 16 45  1  0
 19 46  1  0
 19 47  1  0
 20 48  1  0
 20 49  1  0
 23 50  1  0
 23 51  1  0
 23 52  1  0
 26 53  1  0
 26 54  1  0
 27 55  1  0
 27 56  1  0
 29 57  1  0
M  CHG  1   6   1
M  END
>  <UniqueID>  (11) 
11

>  <SMILES>  (11) 
CN(CC(=O)[NH+](C)C)C(=O)c1ccc2ccc(N3CCN(S(C)(=O)=O)CC3)n2c1

>  <Energy>  (11) 
99.71816110742395

>  <Genealogy>  (11) 
CN(CC(=O)[NH+](C)C)C(=O)c1ccc2ccc(N3CCN(S(C)(=O)=O)CC3)n2c1 (protonated)
CN(CC(=O)[NH+](C)C)C(=O)c1ccc2ccc(N3CCN(S(C)(=O)=O)CC3)n2c1 (3D coordinates assigned)
CN(CC(=O)[NH+](C)C)C(=O)c1ccc2ccc(N3CCN(S(C)(=O)=O)CC3)n2c1 (nonaromatic ring conformer: 99.71816110742395 kcal/mol)

>  <smiles>  (11) 
CN(C)C(=O)CN(C)C(=O)c1ccc2ccc(N3CCN(S(C)(=O)=O)CC3)n2c1

>  <score_type>  (11) 
oracle

>  <origin>  (11) 
adg

>  <m_score__min__energy>  (11) 
-7.2999999999999998

>  <m_primary>  (11) 
energy

$$$$
11:0
     RDKit          3D

 50 53  0  0  1  0  0  0  0  0999 V2000
   52.4070   24.4390   45.1660 C   0  0  0  0  0  0  0  0  0  0  0  0
   53.6110   25.0610   45.6220 O   0  0  0  0  0  0  0  0  0  0  0  0
   54.8230   24.5460   45.2290 C   0  0  0  0  0  0  0  0  0  0  0  0
   56.0330   25.0410   45.6880 C   0  0  0  0  0  0  0  0  0  0  0  0
   57.2250   24.4910   45.2650 C   0  0  0  0  0  0  0  0  0  0  0  0
   58.5590   25.0390   45.7700 C   0  0  0  0  0  0  0  0  0  0  0  0
   58.1790   25.8790   46.8400 N   0  0  0  0  0  0  0  0  0  0  0  0
   58.4770   27.1010   46.9340 C   0  0  0  0  0  0  0  0  0  0  0  0
   59.3810   27.4410   47.9510 C   0  0  0  0  0  0  0  0  0  0  0  0
   59.7880   28.7400   48.1580 C   0  0  0  0  0  0  0  0  0  0  0  0
   60.7430   29.1260   49.2290 C   0  0  0  0  0  0  0  0  0  0  0  0
   59.2550   29.6610   47.3120 N   0  0  0  0  0  0  0  0  0  0  0  0
   58.3950   29.3070   46.3500 C   0  0  0  0  0  0  0  0  0  0  0  0
   57.7700   30.1070   45.4180 C   0  0  0  0  0  0  0  0  0  0  0  0
   57.8780   31.5590   45.2300 C   0  0  0  0  0  0  0  0  0  0  0  0
   57.7950   32.3910   46.3470 C   0  0  0  0  0  0  0  0  0  0  0  0
   57.8990   33.7450   46.1400 C   0  0  0  0  0  0  0  0  0  0  0  0
   58.0790   34.3050   44.8790 C   0  0  0  0  0  0  0  0  0  0  0  0
   58.1530   33.4290   43.8170 C   0  0  0  0  0  0  0  0  0  0  0  0
   58.0550   32.0590   43.9600 C   0  0  0  0  0  0  0  0  0  0  0  0
   56.9980   29.2480   44.6730 C   0  0  0  0  0  0  0  0  0  0  0  0
   57.1470   27.9650   45.1350 N   0  0  0  0  0  0  0  0  0  0  0  0
   57.9840   28.0330   46.1320 N   0  0  0  0  0  0  0  0  0  0  0  0
   57.2130   23.4290   44.3660 C   0  0  0  0  0  0  0  0  0  0  0  0
   56.0250   22.9140   43.8910 C   0  0  0  0  0  0  0  0  0  0  0  0
   55.9570   21.8610   42.9980 O   0  0  0  0  0  0  0  0  0  0  0  0
   57.0750   21.0390   42.7930 C   0  0  0  0  0  0  0  0  0  0  0  0
   54.8680   23.5050   44.3510 C   0  0  0  0  0  0  0  0  0  0  0  0
   51.8044   24.1277   46.0320 H   0  0  0  0  0  0  0  0  0  0  0  0
   51.8329   25.1533   44.5576 H   0  0  0  0  0  0  0  0  0  0  0  0
   52.6574   23.5574   44.5576 H   0  0  0  0  0  0  0  0  0  0  0  0
   56.0431   25.8816   46.3974 H   0  0  0  0  0  0  0  0  0  0  0  0
   59.2123   24.2260   46.1197 H   0  0  0  0  0  0  0  0  0  0  0  0
   59.1317   25.5645   44.9916 H   0  0  0  0  0  0  0  0  0  0  0  0
   59.7762   26.6472   48.6019 H   0  0  0  0  0  0  0  0  0  0  0  0
   60.2856   28.9411   50.2122 H   0  0  0  0  0  0  0  0  0  0  0  0
   61.6617   28.5286   49.1338 H   0  0  0  0  0  0  0  0  0  0  0  0
   60.9886   30.1940   49.1338 H   0  0  0  0  0  0  0  0  0  0  0  0
   57.6515   31.9778   47.3563 H   0  0  0  0  0  0  0  0  0  0  0  0
   57.8373   34.4161   47.0094 H   0  0  0  0  0  0  0  0  0  0  0  0
   58.1583   35.3928   44.7365 H   0  0  0  0  0  0  0  0  0  0  0  0
   58.2970   33.8411   42.8073 H   0  0  0  0  0  0  0  0  0  0  0  0
   58.1163   31.3903   43.0888 H   0  0  0  0  0  0  0  0  0  0  0  0
   56.3557   29.5453   43.8309 H   0  0  0  0  0  0  0  0  0  0  0  0
   56.6160   27.2240   44.6560 H   0  0  0  0  0  0  0  0  0  0  0  0
   58.1653   22.9937   44.0291 H   0  0  0  0  0  0  0  0  0  0  0  0
   57.4894   20.7344   43.7654 H   0  0  0  0  0  0  0  0  0  0  0  0
   56.7742   20.1454   42.2264 H   0  0  0  0  0  0  0  0  0  0  0  0
   57.8382   21.5926   42.2264 H   0  0  0  0  0  0  0  0  0  0  0  0
   53.9110   23.1072   43.9824 H   0  0  0  0  0  0  0  0  0  0  0  0
  1  2  1  0
  2  3  1  0
  3  4  2  0
  4  5  1  0
  5  6  1  0
  6  7  1  0
  7  8  2  0
  8  9  1  0
  9 10  2  0
 10 11  1  0
 10 12  1  0
 12 13  2  0
 13 14  1  0
 14 15  1  0
 15 16  2  0
 16 17  1  0
 17 18  2  0
 18 19  1  0
 19 20  2  0
 14 21  2  0
 21 22  1  0
 22 23  1  0
  5 24  2  0
 24 25  1  0
 25 26  1  0
 26 27  1  0
 25 28  2  0
 28  3  1  0
 23  8  1  0
 23 13  1  0
 20 15  1  0
  1 29  1  0
  1 30  1  0
  1 31  1  0
  4 32  1  0
  6 33  1  0
  6 34  1  0
  9 35  1  0
 11 36  1  0
 11 37  1  0
 11 38  1  0
 16 39  1  0
 17 40  1  0
 18 41  1  0
 19 42  1  0
 20 43  1  0
 21 44  1  0
 22 45  1  0
 24 46  1  0
 27 47  1  0
 27 48  1  0
 27 49  1  0
 28 50  1  0
M  END
>  <smiles>  (12) 
COc1cc(CN=c2cc(C)nc3c(-c4ccccc4)c[nH]n23)cc(OC)c1

>  <score_type>  (12) 
oracle

>  <origin>  (12) 
adg

>  <m_score__min__energy>  (12) 
-8.5500000000000007

>  <m_primary>  (12) 
energy

$$$$
12:0
     RDKit          3D

 45 47  0  0  0  0  0  0  0  0999 V2000
   55.2230   29.4650   44.9000 N   0  0  0  0  0  0  0  0  0  0  0  0
   56.9120   29.2440   45.2080 S   0  0  0  0  0  0  0  0  0  0  0  0
   57.3980   30.3520   46.0990 O   0  0  0  0  0  0  0  0  0  0  0  0
   57.6410   29.2960   43.8940 O   0  0  0  0  0  0  0  0  0  0  0  0
   57.1880   27.6820   45.9970 C   0  0  0  0  0  0  0  0  0  0  0  0
   56.2770   26.6390   45.7630 C   0  0  0  0  0  0  0  0  0  0  0  0
   56.4800   25.3760   46.3220 C   0  0  0  0  0  0  0  0  0  0  0  0
   57.5950   25.1370   47.1240 C   0  0  0  0  0  0  0  0  0  0  0  0
   58.5050   26.1640   47.3770 C   0  0  0  0  0  0  0  0  0  0  0  0
   58.3090   27.4440   46.8320 C   0  0  0  0  0  0  0  0  0  0  0  0
   59.2890   28.5010   47.1570 C   0  0  0  0  0  0  0  0  0  0  0  0
   59.3720   29.0180   48.4590 C   0  0  0  0  0  0  0  0  0  0  0  0
   60.3040   30.0140   48.7650 C   0  0  0  0  0  0  0  0  0  0  0  0
   61.1800   30.4910   47.7770 C   0  0  0  0  0  0  0  0  0  0  0  0
   62.1620   31.5850   48.0960 C   0  0  0  0  0  0  0  0  0  0  0  0
   61.7570   32.8910   47.4090 C   0  0  0  0  0  0  0  0  0  0  0  0
   60.8880   33.7070   48.3130 C   0  0  0  0  0  0  0  0  0  0  0  0
   61.4190   34.4190   49.2080 O   0  0  0  0  0  0  0  0  0  0  0  0
   59.4660   33.7020   48.1120 N   0  0  0  0  0  0  0  0  0  0  0  0
   58.8010   33.7860   46.9930 C   0  0  0  0  0  0  0  0  0  0  0  0
   59.1880   34.7610   46.0630 C   0  0  0  0  0  0  0  0  0  0  0  0
   58.5030   34.8770   44.8530 C   0  0  0  0  0  0  0  0  0  0  0  0
   57.4460   34.0160   44.5710 C   0  0  0  0  0  0  0  0  0  0  0  0
   57.0930   33.0400   45.5030 C   0  0  0  0  0  0  0  0  0  0  0  0
   57.7690   32.9370   46.6820 N   0  0  0  0  0  0  0  0  0  0  0  0
   61.1000   29.9700   46.4750 C   0  0  0  0  0  0  0  0  0  0  0  0
   60.1660   28.9760   46.1700 C   0  0  0  0  0  0  0  0  0  0  0  0
   54.7280   29.3340   45.8100 H   0  0  0  0  0  0  0  0  0  0  0  0
   55.3939   26.8193   45.1324 H   0  0  0  0  0  0  0  0  0  0  0  0
   55.7589   24.5680   46.1293 H   0  0  0  0  0  0  0  0  0  0  0  0
   57.7573   24.1390   47.5572 H   0  0  0  0  0  0  0  0  0  0  0  0
   59.3841   25.9697   48.0090 H   0  0  0  0  0  0  0  0  0  0  0  0
   58.7003   28.6376   49.2427 H   0  0  0  0  0  0  0  0  0  0  0  0
   60.3512   30.4256   49.7840 H   0  0  0  0  0  0  0  0  0  0  0  0
   62.1870   31.7420   49.1845 H   0  0  0  0  0  0  0  0  0  0  0  0
   63.1558   31.2863   47.7311 H   0  0  0  0  0  0  0  0  0  0  0  0
   62.6615   33.4653   47.1599 H   0  0  0  0  0  0  0  0  0  0  0  0
   61.1962   32.6538   46.4929 H   0  0  0  0  0  0  0  0  0  0  0  0
   60.0297   35.4330   46.2867 H   0  0  0  0  0  0  0  0  0  0  0  0
   58.7973   35.6465   44.1241 H   0  0  0  0  0  0  0  0  0  0  0  0
   56.8949   34.1044   43.6231 H   0  0  0  0  0  0  0  0  0  0  0  0
   56.2646   32.3498   45.2852 H   0  0  0  0  0  0  0  0  0  0  0  0
   57.4910   32.1560   47.3130 H   0  0  0  0  0  0  0  0  0  0  0  0
   61.7752   30.3459   45.6922 H   0  0  0  0  0  0  0  0  0  0  0  0
   60.1182   28.5640   45.1512 H   0  0  0  0  0  0  0  0  0  0  0  0
  1  2  1  0
  2  3  2  0
  2  4  2  0
  2  5  1  0
  5  6  2  0
  6  7  1  0
  7  8  2  0
  8  9  1  0
  9 10  2  0
 10 11  1  0
 11 12  2  0
 12 13  1  0
 13 14  2  0
 14 15  1  0
 15 16  1  0
 16 17  1  0
 17 18  2  0
 17 19  1  0
 19 20  2  3
 20 21  1  0
 21 22  2  0
 22 23  1  0
 23 24  2  0
 24 25  1  0
 14 26  1  0
 26 27  2  0
 10  5  1  0
 27 11  1  0
 25 20  1  0
  1 28  1  0
  6 29  1  0
  7 30  1  0
  8 31  1  0
  9 32  1  0
 12 33  1  0
 13 34  1  0
 15 35  1  0
 15 36  1  0
 16 37  1  0
 16 38  1  0
 21 39  1  0
 22 40  1  0
 23 41  1  0
 24 42  1  0
 25 43  1  0
 26 44  1  0
 27 45  1  0
M  CHG  1   1  -1
M  END
>  <UniqueID>  (13) 
12

>  <SMILES>  (13) 
[NH-]S(=O)(=O)c1ccccc1-c1ccc(CCC(=O)N=c2cccc[nH]2)cc1

>  <Energy>  (13) 
59.261277040724956

>  <Genealogy>  (13) 
[NH-]S(=O)(=O)c1ccccc1-c1ccc(CCC(=O)N=c2cccc[nH]2)cc1 (protonated)
[NH-]S(=O)(=O)c1ccccc1-c1ccc(CCC(=O)N=c2cccc[nH]2)cc1 (3D coordinates assigned)
[NH-]S(=O)(=O)c1ccccc1-c1ccc(CCC(=O)N=c2cccc[nH]2)cc1 (optimized conformer: 59.261277040724956 kcal/mol)

>  <smiles>  (13) 
NS(=O)(=O)c1ccccc1-c1ccc(CCC(=O)N=c2cccc[nH]2)cc1

>  <score_type>  (13) 
oracle

>  <origin>  (13) 
adg

>  <m_score__min__energy>  (13) 
-11.470000000000001

>  <m_primary>  (13) 
energy

$$$$
13:0
     RDKit          3D

 38 40  0  0  0  0  0  0  0  0999 V2000
   56.1570   31.0800   53.4460 O   0  0  0  0  0  0  0  0  0  0  0  0
   56.0720   30.1940   52.5530 C   0  0  0  0  0  0  0  0  0  0  0  0
   54.8200   29.3860   52.4310 C   0  0  0  0  0  0  0  0  0  0  0  0
   53.6310   30.2980   52.3220 C   0  0  0  0  0  0  0  0  0  0  0  0
   53.2870   30.8690   51.0850 C   0  0  0  0  0  0  0  0  0  0  0  0
   52.1570   31.6860   50.9750 C   0  0  0  0  0  0  0  0  0  0  0  0
   51.3580   31.9310   52.0960 C   0  0  0  0  0  0  0  0  0  0  0  0
   50.2360   32.7430   51.9860 O   0  0  0  0  0  0  0  0  0  0  0  0
   51.6860   31.3550   53.3270 C   0  0  0  0  0  0  0  0  0  0  0  0
   52.8150   30.5370   53.4400 C   0  0  0  0  0  0  0  0  0  0  0  0
   57.1590   29.9500   51.6520 N   0  0  0  0  0  0  0  0  0  0  0  0
   58.1880   30.8840   51.2940 C   0  0  0  0  0  0  0  0  0  0  0  0
   58.1510   31.5960   50.0820 C   0  0  0  0  0  0  0  0  0  0  0  0
   59.1840   32.4870   49.7390 C   0  0  0  0  0  0  0  0  0  0  0  0
   59.1340   33.2430   48.4610 C   0  0  0  0  0  0  0  0  0  0  0  0
   60.0640   34.2670   48.1970 C   0  0  0  0  0  0  0  0  0  0  0  0
   60.0160   34.9750   46.9930 C   0  0  0  0  0  0  0  0  0  0  0  0
   59.0410   34.6720   46.0380 C   0  0  0  0  0  0  0  0  0  0  0  0
   58.9950   35.3770   44.8420 O   0  0  0  0  0  0  0  0  0  0  0  0
   58.1130   33.6580   46.2890 C   0  0  0  0  0  0  0  0  0  0  0  0
   58.1580   32.9460   47.4920 C   0  0  0  0  0  0  0  0  0  0  0  0
   60.2680   32.6430   50.6200 C   0  0  0  0  0  0  0  0  0  0  0  0
   60.3220   31.9180   51.8110 C   0  0  0  0  0  0  0  0  0  0  0  0
   59.2910   31.0360   52.1450 C   0  0  0  0  0  0  0  0  0  0  0  0
   59.3640   30.3160   53.3330 O   0  0  0  0  0  0  0  0  0  0  0  0
   54.8793   28.7551   51.5319 H   0  0  0  0  0  0  0  0  0  0  0  0
   54.7096   28.7524   53.3234 H   0  0  0  0  0  0  0  0  0  0  0  0
   53.9091   30.6726   50.1993 H   0  0  0  0  0  0  0  0  0  0  0  0
   51.8967   32.1362   50.0057 H   0  0  0  0  0  0  0  0  0  0  0  0
   51.0553   31.5454   54.2079 H   0  0  0  0  0  0  0  0  0  0  0  0
   53.0648   30.0790   54.4084 H   0  0  0  0  0  0  0  0  0  0  0  0
   57.3044   31.4546   49.3941 H   0  0  0  0  0  0  0  0  0  0  0  0
   60.8338   34.5114   48.9438 H   0  0  0  0  0  0  0  0  0  0  0  0
   60.7473   35.7728   46.7962 H   0  0  0  0  0  0  0  0  0  0  0  0
   57.3451   33.4191   45.5385 H   0  0  0  0  0  0  0  0  0  0  0  0
   57.4251   32.1481   47.6820 H   0  0  0  0  0  0  0  0  0  0  0  0
   61.0796   33.3417   50.3688 H   0  0  0  0  0  0  0  0  0  0  0  0
   61.1792   32.0412   52.4893 H   0  0  0  0  0  0  0  0  0  0  0  0
  1  2  2  0
  2  3  1  0
  3  4  1  0
  4  5  2  0
  5  6  1  0
  6  7  2  0
  7  8  1  0
  7  9  1  0
  9 10  2  0
  2 11  1  0
 11 12  1  0
 12 13  2  0
 13 14  1  0
 14 15  1  0
 15 16  2  0
 16 17  1  0
 17 18  2  0
 18 19  1  0
 18 20  1  0
 20 21  2  0
 14 22  2  0
 22 23  1  0
 23 24  2  0
 24 25  1  0
 10  4  1  0
 24 12  1  0
 21 15  1  0
  3 26  1  0
  3 27  1  0
  5 28  1  0
  6 29  1  0
  9 30  1  0
 10 31  1  0
 13 32  1  0
 16 33  1  0
 17 34  1  0
 20 35  1  0
 21 36  1  0
 22 37  1  0
 23 38  1  0
M  CHG  4   8  -1  11  -1  19  -1  25  -1
M  END
>  <UniqueID>  (14) 
13

>  <SMILES>  (14) 
O=C(Cc1ccc([O-])cc1)[N-]c1cc(-c2ccc([O-])cc2)ccc1[O-]

>  <Energy>  (14) 
47.975681573002696

>  <Genealogy>  (14) 
O=C(Cc1ccc([O-])cc1)[N-]c1cc(-c2ccc([O-])cc2)ccc1[O-] (protonated)
O=C(Cc1ccc([O-])cc1)[N-]c1cc(-c2ccc([O-])cc2)ccc1[O-] (3D coordinates assigned)
O=C(Cc1ccc([O-])cc1)[N-]c1cc(-c2ccc([O-])cc2)ccc1[O-] (optimized conformer: 47.975681573002696 kcal/mol)

>  <smiles>  (14) 
O=C(Cc1ccc(O)cc1)Nc1cc(-c2ccc(O)cc2)ccc1O

>  <score_type>  (14) 
oracle

>  <origin>  (14) 
adg

>  <m_score__min__energy>  (14) 
-14.6

>  <m_primary>  (14) 
energy

$$$$
14:0
     RDKit          3D

 60 65  0  0  0  0  0  0  0  0999 V2000
   54.5140   22.1720   49.3940 C   0  0  0  0  0  0  0  0  0  0  0  0
   55.6590   22.5280   48.0710 S   0  0  0  0  0  0  0  0  0  0  0  0
   57.0520   22.2380   48.5570 O   0  0  0  0  0  0  0  0  0  0  0  0
   55.5620   23.9940   47.7500 O   0  0  0  0  0  0  0  0  0  0  0  0
   55.3370   21.6190   46.6050 N   0  0  0  0  0  0  0  0  0  0  0  0
   56.5650   21.0860   45.9740 C   0  0  0  0  0  0  0  0  0  0  0  0
   56.9580   21.8300   44.6840 C   0  0  0  0  0  0  0  0  0  0  0  0
   56.6260   23.2580   44.8080 N   0  0  0  0  0  0  0  0  0  0  0  0
   57.2120   24.0440   43.7000 C   0  0  0  0  0  0  0  0  0  0  0  0
   57.3490   25.4880   44.1030 C   0  0  0  0  0  0  0  0  0  0  0  0
   57.8010   26.4380   43.1740 C   0  0  0  0  0  0  0  0  0  0  0  0
   57.9210   27.7810   43.5370 C   0  0  0  0  0  0  0  0  0  0  0  0
   57.6180   28.1850   44.8440 C   0  0  0  0  0  0  0  0  0  0  0  0
   57.7600   29.5980   45.2230 C   0  0  0  0  0  0  0  0  0  0  0  0
   57.1360   30.5930   44.5700 N   0  0  0  0  0  0  0  0  0  0  0  0
   57.3990   31.7060   45.2370 N   0  0  0  0  0  0  0  0  0  0  0  0
   58.1620   31.3730   46.2980 C   0  0  0  0  0  0  0  0  0  0  0  0
   58.4150   30.0480   46.3160 N   0  0  0  0  0  0  0  0  0  0  0  0
   59.2680   29.2940   47.1930 C   0  0  0  0  0  0  0  0  0  0  0  0
   59.9120   28.1930   46.7090 N   0  0  0  0  0  0  0  0  0  0  0  0
   60.6690   27.3850   47.4980 C   0  0  0  0  0  0  0  0  0  0  0  0
   60.7970   27.6630   48.8570 C   0  0  0  0  0  0  0  0  0  0  0  0
   60.1560   28.7840   49.3870 C   0  0  0  0  0  0  0  0  0  0  0  0
   59.3970   29.6210   48.5570 C   0  0  0  0  0  0  0  0  0  0  0  0
   58.7470   30.7590   49.1260 N   0  0  0  0  0  0  0  0  0  0  0  0
   58.9580   32.0730   48.5970 C   0  0  0  0  0  0  0  0  0  0  0  0
   59.3920   33.0860   49.4650 C   0  0  0  0  0  0  0  0  0  0  0  0
   59.5920   34.3850   48.9970 C   0  0  0  0  0  0  0  0  0  0  0  0
   59.3370   34.6920   47.6630 C   0  0  0  0  0  0  0  0  0  0  0  0
   58.8850   33.6980   46.7930 C   0  0  0  0  0  0  0  0  0  0  0  0
   58.7030   32.3770   47.2420 C   0  0  0  0  0  0  0  0  0  0  0  0
   57.1990   27.2360   45.7860 C   0  0  0  0  0  0  0  0  0  0  0  0
   57.0540   25.8960   45.4140 C   0  0  0  0  0  0  0  0  0  0  0  0
   55.1600   23.4590   44.9010 C   0  0  0  0  0  0  0  0  0  0  0  0
   54.4470   22.3240   45.6680 C   0  0  0  0  0  0  0  0  0  0  0  0
   55.0127   22.3270   50.3621 H   0  0  0  0  0  0  0  0  0  0  0  0
   53.6453   22.8425   49.3175 H   0  0  0  0  0  0  0  0  0  0  0  0
   54.1786   21.1272   49.3175 H   0  0  0  0  0  0  0  0  0  0  0  0
   57.3929   21.1723   46.6931 H   0  0  0  0  0  0  0  0  0  0  0  0
   56.3629   20.0403   45.6989 H   0  0  0  0  0  0  0  0  0  0  0  0
   58.0394   21.7204   44.5149 H   0  0  0  0  0  0  0  0  0  0  0  0
   56.4035   21.4018   43.8360 H   0  0  0  0  0  0  0  0  0  0  0  0
   58.2048   23.6398   43.4531 H   0  0  0  0  0  0  0  0  0  0  0  0
   56.5509   23.9770   42.8234 H   0  0  0  0  0  0  0  0  0  0  0  0
   58.0625   26.1225   42.1532 H   0  0  0  0  0  0  0  0  0  0  0  0
   58.2538   28.5227   42.7960 H   0  0  0  0  0  0  0  0  0  0  0  0
   61.1797   26.5129   47.0638 H   0  0  0  0  0  0  0  0  0  0  0  0
   61.3964   27.0066   49.5050 H   0  0  0  0  0  0  0  0  0  0  0  0
   60.2467   29.0114   50.4594 H   0  0  0  0  0  0  0  0  0  0  0  0
   58.4740   30.6940   50.1350 H   0  0  0  0  0  0  0  0  0  0  0  0
   59.5763   32.8540   50.5243 H   0  0  0  0  0  0  0  0  0  0  0  0
   59.9513   35.1670   49.6821 H   0  0  0  0  0  0  0  0  0  0  0  0
   59.4916   35.7170   47.2949 H   0  0  0  0  0  0  0  0  0  0  0  0
   58.6687   33.9505   45.7445 H   0  0  0  0  0  0  0  0  0  0  0  0
   56.9839   27.5456   46.8194 H   0  0  0  0  0  0  0  0  0  0  0  0
   56.7071   25.1577   46.1519 H   0  0  0  0  0  0  0  0  0  0  0  0
   54.9680   24.4091   45.4211 H   0  0  0  0  0  0  0  0  0  0  0  0
   54.7614   23.4667   43.8758 H   0  0  0  0  0  0  0  0  0  0  0  0
   53.6102   22.7561   46.2364 H   0  0  0  0  0  0  0  0  0  0  0  0
   54.1013   21.5899   44.9253 H   0  0  0  0  0  0  0  0  0  0  0  0
  1  2  1  0
  2  3  2  0
  2  4  2  0
  2  5  1  0
  5  6  1  0
  6  7  1  0
  7  8  1  0
  8  9  1  0
  9 10  1  0
 10 11  2  0
 11 12  1  0
 12 13  2  0
 13 14  1  0
 14 15  2  0
 15 16  1  0
 16 17  2  0
 17 18  1  0
 18 19  1  0
 19 20  2  0
 20 21  1  0
 21 22  2  0
 22 23  1  0
 23 24  2  0
 24 25  1  0
 25 26  1  0
 26 27  2  0
 27 28  1  0
 28 29  2  0
 29 30  1  0
 30 31  2  0
 13 32  1  0
 32 33  2  0
  8 34  1  0
 34 35  1  0
 35  5  1  0
 33 10  1  0
 18 14  1  0
 24 19  1  0
 31 26  1  0
 31 17  1  0
  1 36  1  0
  1 37  1  0
  1 38  1  0
  6 39  1  0
  6 40  1  0
  7 41  1  0
  7 42  1  0
  9 43  1  0
  9 44  1  0
 11 45  1  0
 12 46  1  0
 21 47  1  0
 22 48  1  0
 23 49  1  0
 25 50  1  0
 27 51  1  0
 28 52  1  0
 29 53  1  0
 30 54  1  0
 32 55  1  0
 33 56  1  0
 34 57  1  0
 34 58  1  0
 35 59  1  0
 35 60  1  0
M  END
>  <UniqueID>  (15) 
14

>  <SMILES>  (15) 
CS(=O)(=O)N1CCN(Cc2ccc(-c3nnc4n3-c3ncccc3Nc3ccccc3-4)cc2)CC1

>  <Energy>  (15) 
135.01577703364026

>  <Genealogy>  (15) 
CS(=O)(=O)N1CCN(Cc2ccc(-c3nnc4n3-c3ncccc3Nc3ccccc3-4)cc2)CC1 (3D coordinates assigned)
CS(=O)(=O)N1CCN(Cc2ccc(-c3nnc4n3-c3ncccc3Nc3ccccc3-4)cc2)CC1 (nonaromatic ring conformer: 135.01577703364026 kcal/mol)

>  <smiles>  (15) 
CS(=O)(=O)N1CCN(Cc2ccc(-c3nnc4n3-c3ncccc3Nc3ccccc3-4)cc2)CC1

>  <score_type>  (15) 
oracle

>  <origin>  (15) 
adg

>  <m_score__min__energy>  (15) 
-9.4499999999999993

>  <m_primary>  (15) 
energy

$$$$
15:0
     RDKit          3D

 43 46  0  0  0  0  0  0  0  0999 V2000
   55.2690   29.3700   44.5580 O   0  0  0  0  0  0  0  0  0  0  0  0
   56.2580   28.6910   44.9420 C   0  0  0  0  0  0  0  0  0  0  0  0
   57.6450   29.1750   44.6590 C   0  0  0  0  0  0  0  0  0  0  0  0
   57.6910   30.6480   44.7320 N   0  0  0  0  0  0  0  0  0  0  0  0
   57.3990   31.4060   43.6250 C   0  0  0  0  0  0  0  0  0  0  0  0
   57.1120   30.8600   42.5250 O   0  0  0  0  0  0  0  0  0  0  0  0
   57.4090   32.7600   43.6990 N   0  0  0  0  0  0  0  0  0  0  0  0
   57.6970   33.4120   44.8500 C   0  0  0  0  0  0  0  0  0  0  0  0
   57.6780   34.8070   44.8520 O   0  0  0  0  0  0  0  0  0  0  0  0
   58.0000   32.6700   46.0040 C   0  0  0  0  0  0  0  0  0  0  0  0
   58.2970   33.3330   47.2870 C   0  0  0  0  0  0  0  0  0  0  0  0
   59.4420   33.1600   47.9600 C   0  0  0  0  0  0  0  0  0  0  0  0
   59.5480   32.6870   49.3480 C   0  0  0  0  0  0  0  0  0  0  0  0
   60.7790   32.6400   49.7560 N   0  0  0  0  0  0  0  0  0  0  0  0
   61.5830   33.0720   48.6630 C   0  0  0  0  0  0  0  0  0  0  0  0
   62.9750   33.1480   48.6420 C   0  0  0  0  0  0  0  0  0  0  0  0
   63.6000   33.5570   47.4530 C   0  0  0  0  0  0  0  0  0  0  0  0
   62.8290   33.8660   46.3130 C   0  0  0  0  0  0  0  0  0  0  0  0
   61.4270   33.7760   46.3550 C   0  0  0  0  0  0  0  0  0  0  0  0
   60.8290   33.3890   47.5590 C   0  0  0  0  0  0  0  0  0  0  0  0
   57.9690   31.2690   45.9240 C   0  0  0  0  0  0  0  0  0  0  0  0
   58.2020   30.5850   46.9590 O   0  0  0  0  0  0  0  0  0  0  0  0
   56.0750   27.4690   45.6670 N   0  0  0  0  0  0  0  0  0  0  0  0
   56.9330   26.3180   45.6330 C   0  0  0  0  0  0  0  0  0  0  0  0
   56.6550   25.2150   44.8040 C   0  0  0  0  0  0  0  0  0  0  0  0
   57.5220   24.1190   44.7730 C   0  0  0  0  0  0  0  0  0  0  0  0
   58.6780   24.1190   45.5560 C   0  0  0  0  0  0  0  0  0  0  0  0
   58.9760   25.2190   46.3630 C   0  0  0  0  0  0  0  0  0  0  0  0
   58.1120   26.3200   46.3980 C   0  0  0  0  0  0  0  0  0  0  0  0
   58.5200   27.6930   47.4190 Cl  0  0  0  0  0  0  0  0  0  0  0  0
   58.3370   28.7518   45.4020 H   0  0  0  0  0  0  0  0  0  0  0  0
   57.9399   28.8545   43.6489 H   0  0  0  0  0  0  0  0  0  0  0  0
   57.2620   35.3510   44.1080 H   0  0  0  0  0  0  0  0  0  0  0  0
   57.5382   34.0052   47.7140 H   0  0  0  0  0  0  0  0  0  0  0  0
   58.6843   32.4057   49.9685 H   0  0  0  0  0  0  0  0  0  0  0  0
   63.5678   32.8943   49.5332 H   0  0  0  0  0  0  0  0  0  0  0  0
   64.6963   33.6368   47.4104 H   0  0  0  0  0  0  0  0  0  0  0  0
   63.3285   34.1796   45.3845 H   0  0  0  0  0  0  0  0  0  0  0  0
   60.8181   34.0031   45.4675 H   0  0  0  0  0  0  0  0  0  0  0  0
   55.7509   25.2155   44.1774 H   0  0  0  0  0  0  0  0  0  0  0  0
   57.2933   23.2556   44.1310 H   0  0  0  0  0  0  0  0  0  0  0  0
   59.3545   23.2518   45.5372 H   0  0  0  0  0  0  0  0  0  0  0  0
   59.8917   25.2204   46.9726 H   0  0  0  0  0  0  0  0  0  0  0  0
  1  2  2  0
  2  3  1  0
  3  4  1  0
  4  5  1  0
  5  6  2  0
  5  7  1  0
  7  8  1  0
  8  9  1  0
  8 10  2  0
 10 11  1  0
 11 12  2  3
 12 13  1  0
 13 14  2  0
 14 15  1  0
 15 16  2  0
 16 17  1  0
 17 18  2  0
 18 19  1  0
 19 20  2  0
 10 21  1  0
 21 22  2  0
  2 23  1  0
 23 24  1  0
 24 25  2  0
 25 26  1  0
 26 27  2  0
 27 28  1  0
 28 29  2  0
 29 30  1  0
 21  4  1  0
 29 24  1  0
 20 12  1  0
 20 15  1  0
  3 31  1  0
  3 32  1  0
  9 33  1  0
 11 34  1  0
 13 35  1  0
 16 36  1  0
 17 37  1  0
 18 38  1  0
 19 39  1  0
 25 40  1  0
 26 41  1  0
 27 42  1  0
 28 43  1  0
M  CHG  2   7  -1  23  -1
M  END
>  <UniqueID>  (16) 
15

>  <SMILES>  (16) 
O=C(Cn1c(=O)[n-]c(O)c(C=C2C=Nc3ccccc32)c1=O)[N-]c1ccccc1Cl

>  <Energy>  (16) 
94.69424018819112

>  <Genealogy>  (16) 
O=C(Cn1c(=O)[n-]c(O)c(C=C2C=Nc3ccccc32)c1=O)[N-]c1ccccc1Cl (protonated)
O=C(Cn1c(=O)[n-]c(O)c(C=C2C=Nc3ccccc32)c1=O)[N-]c1ccccc1Cl (3D coordinates assigned)
O=C(Cn1c(=O)[n-]c(O)c(C=C2C=Nc3ccccc32)c1=O)[N-]c1ccccc1Cl (nonaromatic ring conformer: 94.69424018819112 kcal/mol)

>  <smiles>  (16) 
O=C(Cn1c(=O)[nH]c(O)c(C=C2C=Nc3ccccc32)c1=O)Nc1ccccc1Cl

>  <score_type>  (16) 
oracle

>  <origin>  (16) 
adg

>  <m_score__min__energy>  (16) 
-12.06

>  <m_primary>  (16) 
energy

$$$$
16:0
     RDKit          3D

 44 46  0  0  0  0  0  0  0  0999 V2000
   63.7510   33.8340   45.8690 O   0  0  0  0  0  0  0  0  0  0  0  0
   63.1180   33.4100   46.8720 C   0  0  0  0  0  0  0  0  0  0  0  0
   63.7020   32.3090   47.7130 C   0  0  0  0  0  0  0  0  0  0  0  0
   63.1540   32.3870   49.1380 C   0  0  0  0  0  0  0  0  0  0  0  0
   61.7070   32.5850   49.1120 N   0  0  0  0  0  0  0  0  0  0  0  0
   61.1300   33.5180   48.1900 C   0  0  0  0  0  0  0  0  0  0  0  0
   59.4590   34.1180   48.4570 S   0  0  0  0  0  0  0  0  0  0  0  0
   59.0710   34.3270   46.6810 C   0  0  0  0  0  0  0  0  0  0  0  0
   58.5230   33.0690   46.0590 C   0  0  0  0  0  0  0  0  0  0  0  0
   59.2120   31.8530   46.1950 C   0  0  0  0  0  0  0  0  0  0  0  0
   58.7210   30.6920   45.5930 C   0  0  0  0  0  0  0  0  0  0  0  0
   57.5250   30.7250   44.8640 C   0  0  0  0  0  0  0  0  0  0  0  0
   56.8960   29.2580   44.1180 S   0  0  0  0  0  0  0  0  0  0  0  0
   58.0240   28.3910   43.6340 O   0  0  0  0  0  0  0  0  0  0  0  0
   56.0600   29.6430   42.9300 O   0  0  0  0  0  0  0  0  0  0  0  0
   55.8970   28.3930   45.2420 N   0  0  0  0  0  0  0  0  0  0  0  0
   56.2720   27.1780   45.9020 C   0  0  0  0  0  0  0  0  0  0  0  0
   55.3820   26.3190   46.1400 O   0  0  0  0  0  0  0  0  0  0  0  0
   57.6630   26.8970   46.3010 C   0  0  0  0  0  0  0  0  0  0  0  0
   58.3420   25.7970   45.7540 C   0  0  0  0  0  0  0  0  0  0  0  0
   59.6630   25.5270   46.1240 C   0  0  0  0  0  0  0  0  0  0  0  0
   60.3210   26.3660   47.0280 C   0  0  0  0  0  0  0  0  0  0  0  0
   59.6630   27.4810   47.5520 C   0  0  0  0  0  0  0  0  0  0  0  0
   58.3410   27.7530   47.1830 C   0  0  0  0  0  0  0  0  0  0  0  0
   56.8310   31.9360   44.7330 C   0  0  0  0  0  0  0  0  0  0  0  0
   57.3340   33.1040   45.3130 C   0  0  0  0  0  0  0  0  0  0  0  0
   61.8100   33.9250   47.1590 N   0  0  0  0  0  0  0  0  0  0  0  0
   63.4359   31.3361   47.2740 H   0  0  0  0  0  0  0  0  0  0  0  0
   64.7959   32.4209   47.7421 H   0  0  0  0  0  0  0  0  0  0  0  0
   63.3831   31.4502   49.6671 H   0  0  0  0  0  0  0  0  0  0  0  0
   63.6231   33.2359   49.6569 H   0  0  0  0  0  0  0  0  0  0  0  0
   61.1140   32.1530   49.8550 H   0  0  0  0  0  0  0  0  0  0  0  0
   58.3241   35.1275   46.5748 H   0  0  0  0  0  0  0  0  0  0  0  0
   60.0076   34.5767   46.1611 H   0  0  0  0  0  0  0  0  0  0  0  0
   60.1435   31.8145   46.7788 H   0  0  0  0  0  0  0  0  0  0  0  0
   59.2760   29.7474   45.6918 H   0  0  0  0  0  0  0  0  0  0  0  0
   57.8321   25.1440   45.0304 H   0  0  0  0  0  0  0  0  0  0  0  0
   60.1845   24.6544   45.7038 H   0  0  0  0  0  0  0  0  0  0  0  0
   61.3570   26.1481   47.3267 H   0  0  0  0  0  0  0  0  0  0  0  0
   60.1848   28.1462   48.2557 H   0  0  0  0  0  0  0  0  0  0  0  0
   57.8312   28.6408   47.5855 H   0  0  0  0  0  0  0  0  0  0  0  0
   55.8859   31.9672   44.1710 H   0  0  0  0  0  0  0  0  0  0  0  0
   56.7960   34.0548   45.1845 H   0  0  0  0  0  0  0  0  0  0  0  0
   61.3890   34.6230   46.5040 H   0  0  0  0  0  0  0  0  0  0  0  0
  1  2  2  0
  2  3  1  0
  3  4  1  0
  4  5  1  0
  5  6  1  0
  6  7  1  0
  7  8  1  0
  8  9  1  0
  9 10  2  0
 10 11  1  0
 11 12  2  0
 12 13  1  0
 13 14  2  0
 13 15  2  0
 13 16  1  0
 16 17  1  0
 17 18  2  0
 17 19  1  0
 19 20  2  0
 20 21  1  0
 21 22  2  0
 22 23  1  0
 23 24  2  0
 12 25  1  0
 25 26  2  0
  6 27  2  0
 27  2  1  0
 26  9  1  0
 24 19  1  0
  3 28  1  0
  3 29  1  0
  4 30  1  0
  4 31  1  0
  5 32  1  0
  8 33  1  0
  8 34  1  0
 10 35  1  0
 11 36  1  0
 20 37  1  0
 21 38  1  0
 22 39  1  0
 23 40  1  0
 24 41  1  0
 25 42  1  0
 26 43  1  0
 27 44  1  0
M  CHG  2  16  -1  27   1
M  END
>  <UniqueID>  (17) 
16

>  <SMILES>  (17) 
O=C1CCNC(SCc2ccc(S(=O)(=O)[N-]C(=O)c3ccccc3)cc2)=[NH+]1

>  <Energy>  (17) 
43.957079643707154

>  <Genealogy>  (17) 
O=C1CCNC(SCc2ccc(S(=O)(=O)[N-]C(=O)c3ccccc3)cc2)=[NH+]1 (protonated)
O=C1CCNC(SCc2ccc(S(=O)(=O)[N-]C(=O)c3ccccc3)cc2)=[NH+]1 (3D coordinates assigned)
O=C1CCNC(SCc2ccc(S(=O)(=O)[N-]C(=O)c3ccccc3)cc2)=[NH+]1 (nonaromatic ring conformer: 43.957079643707154 kcal/mol)

>  <smiles>  (17) 
O=C1CCNC(SCc2ccc(S(=O)(=O)NC(=O)c3ccccc3)cc2)=N1

>  <score_type>  (17) 
oracle

>  <origin>  (17) 
adg

>  <m_score__min__energy>  (17) 
-9.9399999999999995

>  <m_primary>  (17) 
energy

$$$$
17:0
     RDKit          3D

 60 63  0  0  0  0  0  0  0  0999 V2000
   63.7170   31.2300   49.5630 O   0  0  0  0  0  0  0  0  0  0  0  0
   62.6300   31.8600   49.4830 C   0  0  0  0  0  0  0  0  0  0  0  0
   62.6590   33.3480   49.2820 C   0  0  0  0  0  0  0  0  0  0  0  0
   61.3660   33.9330   49.4640 O   0  0  0  0  0  0  0  0  0  0  0  0
   60.3280   33.9310   48.5120 C   0  0  0  0  0  0  0  0  0  0  0  0
   60.3090   34.9430   47.5470 C   0  0  0  0  0  0  0  0  0  0  0  0
   59.3940   34.9010   46.4920 C   0  0  0  0  0  0  0  0  0  0  0  0
   58.4870   33.8380   46.3870 C   0  0  0  0  0  0  0  0  0  0  0  0
   57.5110   33.6460   44.9320 S   0  0  0  0  0  0  0  0  0  0  0  0
   56.4000   32.6720   45.2030 O   0  0  0  0  0  0  0  0  0  0  0  0
   56.9030   34.9630   44.5350 O   0  0  0  0  0  0  0  0  0  0  0  0
   58.5160   33.0030   43.6580 N   0  0  0  0  0  0  0  0  0  0  0  0
   57.7880   32.0360   42.8120 C   0  0  0  0  0  0  0  0  0  0  0  0
   57.2850   30.8550   43.6120 C   0  0  0  0  0  0  0  0  0  0  0  0
   58.1610   30.1420   44.4530 C   0  0  0  0  0  0  0  0  0  0  0  0
   57.6940   29.0460   45.1890 C   0  0  0  0  0  0  0  0  0  0  0  0
   56.3570   28.6500   45.0840 C   0  0  0  0  0  0  0  0  0  0  0  0
   55.4850   29.3470   44.2440 C   0  0  0  0  0  0  0  0  0  0  0  0
   55.9460   30.4430   43.5080 C   0  0  0  0  0  0  0  0  0  0  0  0
   58.4480   32.8660   47.3950 C   0  0  0  0  0  0  0  0  0  0  0  0
   59.3470   32.9220   48.4630 C   0  0  0  0  0  0  0  0  0  0  0  0
   61.3700   31.1920   49.6450 N   0  0  0  0  0  0  0  0  0  0  0  0
   60.8690   30.0450   48.9410 C   0  0  0  0  0  0  0  0  0  0  0  0
   60.8920   30.0730   47.5430 C   0  0  0  0  0  0  0  0  0  0  0  0
   60.3780   29.0080   46.8010 C   0  0  0  0  0  0  0  0  0  0  0  0
   59.8380   27.8930   47.4510 C   0  0  0  0  0  0  0  0  0  0  0  0
   59.1270   26.5830   46.5150 S   0  0  0  0  0  0  0  0  0  0  0  0
   59.2670   26.8560   45.0420 O   0  0  0  0  0  0  0  0  0  0  0  0
   59.8410   25.2980   46.8270 O   0  0  0  0  0  0  0  0  0  0  0  0
   57.4520   26.4160   46.9300 N   0  0  0  0  0  0  0  0  0  0  0  0
   56.6960   25.4410   46.5230 C   0  0  0  0  0  0  0  0  0  0  0  0
   57.2040   24.1360   46.5030 C   0  0  0  0  0  0  0  0  0  0  0  0
   56.3800   23.0840   46.0910 C   0  0  0  0  0  0  0  0  0  0  0  0
   55.0670   23.3440   45.6930 C   0  0  0  0  0  0  0  0  0  0  0  0
   54.5960   24.6580   45.7200 C   0  0  0  0  0  0  0  0  0  0  0  0
   55.4090   25.6660   46.1350 N   0  0  0  0  0  0  0  0  0  0  0  0
   59.8290   27.8490   48.8510 C   0  0  0  0  0  0  0  0  0  0  0  0
   60.3530   28.9120   49.5960 C   0  0  0  0  0  0  0  0  0  0  0  0
   63.3563   33.7920   50.0077 H   0  0  0  0  0  0  0  0  0  0  0  0
   62.9830   33.5478   48.2500 H   0  0  0  0  0  0  0  0  0  0  0  0
   61.0203   35.7790   47.6192 H   0  0  0  0  0  0  0  0  0  0  0  0
   59.3856   35.7050   45.7413 H   0  0  0  0  0  0  0  0  0  0  0  0
   58.8450   33.8230   43.1000 H   0  0  0  0  0  0  0  0  0  0  0  0
   56.9291   32.5441   42.3493 H   0  0  0  0  0  0  0  0  0  0  0  0
   58.4839   31.6592   42.0480 H   0  0  0  0  0  0  0  0  0  0  0  0
   59.2150   30.4468   44.5320 H   0  0  0  0  0  0  0  0  0  0  0  0
   58.3796   28.4960   45.8504 H   0  0  0  0  0  0  0  0  0  0  0  0
   55.9916   27.7891   45.6632 H   0  0  0  0  0  0  0  0  0  0  0  0
   54.4340   29.0331   44.1614 H   0  0  0  0  0  0  0  0  0  0  0  0
   55.2566   30.9853   42.8442 H   0  0  0  0  0  0  0  0  0  0  0  0
   57.7064   32.0551   47.3454 H   0  0  0  0  0  0  0  0  0  0  0  0
   59.2883   32.1752   49.2685 H   0  0  0  0  0  0  0  0  0  0  0  0
   61.3194   30.9429   47.0228 H   0  0  0  0  0  0  0  0  0  0  0  0
   60.3976   29.0456   45.7018 H   0  0  0  0  0  0  0  0  0  0  0  0
   58.2423   23.9402   46.8088 H   0  0  0  0  0  0  0  0  0  0  0  0
   56.7653   22.0537   46.0804 H   0  0  0  0  0  0  0  0  0  0  0  0
   54.4123   22.5242   45.3625 H   0  0  0  0  0  0  0  0  0  0  0  0
   53.5654   24.8783   45.4050 H   0  0  0  0  0  0  0  0  0  0  0  0
   59.4078   26.9742   49.3680 H   0  0  0  0  0  0  0  0  0  0  0  0
   60.3613   28.8613   50.6948 H   0  0  0  0  0  0  0  0  0  0  0  0
  1  2  2  0
  2  3  1  0
  3  4  1  0
  4  5  1  0
  5  6  2  0
  6  7  1  0
  7  8  2  0
  8  9  1  0
  9 10  2  0
  9 11  2  0
  9 12  1  0
 12 13  1  0
 13 14  1  0
 14 15  2  0
 15 16  1  0
 16 17  2  0
 17 18  1  0
 18 19  2  0
  8 20  1  0
 20 21  2  0
  2 22  1  0
 22 23  1  0
 23 24  2  0
 24 25  1  0
 25 26  2  0
 26 27  1  0
 27 28  2  0
 27 29  2  0
 27 30  1  0
 30 31  2  3
 31 32  1  0
 32 33  2  0
 33 34  1  0
 34 35  2  0
 35 36  1  0
 26 37  1  0
 37 38  2  0
 21  5  1  0
 38 23  1  0
 19 14  1  0
 36 31  1  0
  3 39  1  0
  3 40  1  0
  6 41  1  0
  7 42  1  0
 12 43  1  0
 13 44  1  0
 13 45  1  0
 15 46  1  0
 16 47  1  0
 17 48  1  0
 18 49  1  0
 19 50  1  0
 20 51  1  0
 21 52  1  0
 24 53  1  0
 25 54  1  0
 32 55  1  0
 33 56  1  0
 34 57  1  0
 35 58  1  0
 37 59  1  0
 38 60  1  0
M  CHG  2  22  -1  36  -1
M  END
>  <UniqueID>  (18) 
17

>  <SMILES>  (18) 
O=C(COc1ccc(S(=O)(=O)NCc2ccccc2)cc1)[N-]c1ccc(S(=O)(=O)N=c2cccc[n-]2)cc1

>  <Energy>  (18) 
69.99342417366196

>  <Genealogy>  (18) 
O=C(COc1ccc(S(=O)(=O)NCc2ccccc2)cc1)[N-]c1ccc(S(=O)(=O)N=c2cccc[n-]2)cc1 (protonated)
O=C(COc1ccc(S(=O)(=O)NCc2ccccc2)cc1)[N-]c1ccc(S(=O)(=O)N=c2cccc[n-]2)cc1 (3D coordinates assigned)
O=C(COc1ccc(S(=O)(=O)NCc2ccccc2)cc1)[N-]c1ccc(S(=O)(=O)N=c2cccc[n-]2)cc1 (optimized conformer: 69.99342417366196 kcal/mol)

>  <smiles>  (18) 
O=C(COc1ccc(S(=O)(=O)NCc2ccccc2)cc1)Nc1ccc(S(=O)(=O)N=c2cccc[nH]2)cc1

>  <score_type>  (18) 
oracle

>  <origin>  (18) 
adg

>  <m_score__min__energy>  (18) 
-12.01

>  <m_primary>  (18) 
energy

$$$$
18:0
     RDKit          3D

 40 42  0  0  0  0  0  0  0  0999 V2000
   56.2316   20.5055   42.8762 H   0  0  0  0  0  0  0  0  0  0  0  0
   56.6420   21.4030   43.3620 C   0  0  0  0  0  0  0  0  0  0  0  0
   55.9770   22.5900   43.3820 N   0  0  0  0  0  0  0  0  0  0  0  0
   56.6800   23.5420   44.0310 C   0  0  0  0  0  0  0  0  0  0  0  0
   56.2380   24.7550   44.1670 N   0  0  0  0  0  0  0  0  0  0  0  0
   56.2000   25.6210   45.6690 S   0  0  0  0  0  0  0  0  0  0  0  0
   56.7020   24.7290   46.7710 O   0  0  0  0  0  0  0  0  0  0  0  0
   54.7820   26.0140   45.9770 O   0  0  0  0  0  0  0  0  0  0  0  0
   57.1790   27.0800   45.5450 C   0  0  0  0  0  0  0  0  0  0  0  0
   58.5600   27.0060   45.7680 C   0  0  0  0  0  0  0  0  0  0  0  0
   59.0253   26.0396   46.0122 H   0  0  0  0  0  0  0  0  0  0  0  0
   59.3480   28.1570   45.6810 C   0  0  0  0  0  0  0  0  0  0  0  0
   60.4337   28.0931   45.8459 H   0  0  0  0  0  0  0  0  0  0  0  0
   58.7590   29.3880   45.3850 C   0  0  0  0  0  0  0  0  0  0  0  0
   59.3840   30.2898   45.3064 H   0  0  0  0  0  0  0  0  0  0  0  0
   57.3700   29.4790   45.1870 C   0  0  0  0  0  0  0  0  0  0  0  0
   56.7380   30.7230   44.8600 N   0  0  0  0  0  0  0  0  0  0  0  0
   57.3820   32.0000   44.8000 C   0  0  0  0  0  0  0  0  0  0  0  0
   57.8950   32.3720   43.7100 O   0  0  0  0  0  0  0  0  0  0  0  0
   57.3940   32.8760   45.9370 N   0  0  0  0  0  0  0  0  0  0  0  0
   56.8290   32.6300   46.7810 H   0  0  0  0  0  0  0  0  0  0  0  0
   58.0680   34.1720   45.9200 C   0  0  0  0  0  0  0  0  0  0  0  0
   58.2919   34.4519   44.8800 H   0  0  0  0  0  0  0  0  0  0  0  0
   57.4101   34.9255   46.3775 H   0  0  0  0  0  0  0  0  0  0  0  0
   59.3500   34.0990   46.7020 C   0  0  0  0  0  0  0  0  0  0  0  0
   59.3420   34.2000   48.1030 C   0  0  0  0  0  0  0  0  0  0  0  0
   58.3921   34.3552   48.6355 H   0  0  0  0  0  0  0  0  0  0  0  0
   60.5370   34.1040   48.8240 C   0  0  0  0  0  0  0  0  0  0  0  0
   60.5253   34.1883   49.9207 H   0  0  0  0  0  0  0  0  0  0  0  0
   61.7460   33.9010   48.1520 C   0  0  0  0  0  0  0  0  0  0  0  0
   62.6853   33.8270   48.7197 H   0  0  0  0  0  0  0  0  0  0  0  0
   61.7610   33.7920   46.7580 C   0  0  0  0  0  0  0  0  0  0  0  0
   62.7125   33.6304   46.2302 H   0  0  0  0  0  0  0  0  0  0  0  0
   60.5690   33.8880   46.0340 C   0  0  0  0  0  0  0  0  0  0  0  0
   60.5848   33.7981   44.9378 H   0  0  0  0  0  0  0  0  0  0  0  0
   56.5900   28.3160   45.2430 C   0  0  0  0  0  0  0  0  0  0  0  0
   55.5088   28.3732   45.0488 H   0  0  0  0  0  0  0  0  0  0  0  0
   58.1490   22.9490   44.6090 S   0  0  0  0  0  0  0  0  0  0  0  0
   57.8780   21.4060   44.0000 C   0  0  0  0  0  0  0  0  0  0  0  0
   58.5598   20.5475   44.0903 H   0  0  0  0  0  0  0  0  0  0  0  0
  1  2  1  0
  2  3  1  0
  3  4  1  0
  4  5  2  0
  5  6  1  0
  6  7  2  0
  6  8  2  0
  6  9  1  0
  9 10  2  0
 10 11  1  0
 10 12  1  0
 12 13  1  0
 12 14  2  0
 14 15  1  0
 14 16  1  0
 16 17  1  0
 17 18  1  0
 18 19  2  0
 18 20  1  0
 20 21  1  0
 20 22  1  0
 22 23  1  0
 22 24  1  0
 22 25  1  0
 25 26  2  0
 26 27  1  0
 26 28  1  0
 28 29  1  0
 28 30  2  0
 30 31  1  0
 30 32  1  0
 32 33  1  0
 32 34  2  0
 34 35  1  0
 16 36  2  0
 36 37  1  0
  4 38  1  0
 38 39  1  0
 39 40  1  0
 39  2  2  0
 36  9  1  0
 34 25  1  0
M  CHG  2   3  -1  17  -1
M  END
>  <UniqueID>  (19) 
18

>  <SMILES>  (19) 
O=C([N-]c1cccc(S(=O)(=O)/N=c2/[n-]ccs2)c1)NCc1ccccc1

>  <Energy>  (19) 
77.50823716567672

>  <Genealogy>  (19) 
O=C([N-]c1cccc(S(=O)(=O)N=c2[n-]ccs2)c1)NCc1ccccc1 (protonated)
O=C([N-]c1cccc(S(=O)(=O)/N=c2/[n-]ccs2)c1)NCc1ccccc1 (cis-trans isomerization)
O=C([N-]c1cccc(S(=O)(=O)/N=c2/[n-]ccs2)c1)NCc1ccccc1 (3D coordinates assigned)
O=C([N-]c1cccc(S(=O)(=O)/N=c2/[n-]ccs2)c1)NCc1ccccc1 (optimized conformer: 77.50823716567672 kcal/mol)

>  <smiles>  (19) 
O=C(NCc1ccccc1)Nc1cccc(S(=O)(=O)N=c2[nH]ccs2)c1

>  <score_type>  (19) 
oracle

>  <origin>  (19) 
adg

>  <m_score__min__energy>  (19) 
-11.83

>  <m_primary>  (19) 
energy

$$$$
19:0
     RDKit          3D

 41 43  0  0  0  0  0  0  0  0999 V2000
   56.8600   31.5900   44.6070 N   0  0  0  0  0  0  0  0  0  0  0  0
   56.5380   29.9030   44.4000 S   0  0  0  0  0  0  0  0  0  0  0  0
   55.1410   29.5890   44.8600 O   0  0  0  0  0  0  0  0  0  0  0  0
   56.6610   29.5580   42.9400 O   0  0  0  0  0  0  0  0  0  0  0  0
   57.6840   28.9470   45.3470 C   0  0  0  0  0  0  0  0  0  0  0  0
   57.3550   27.6300   45.7030 C   0  0  0  0  0  0  0  0  0  0  0  0
   58.2140   26.8790   46.5070 C   0  0  0  0  0  0  0  0  0  0  0  0
   59.4010   27.4400   46.9750 C   0  0  0  0  0  0  0  0  0  0  0  0
   59.7410   28.7490   46.6310 C   0  0  0  0  0  0  0  0  0  0  0  0
   58.8970   29.5110   45.8000 C   0  0  0  0  0  0  0  0  0  0  0  0
   59.2490   30.8420   45.3930 N   0  0  0  0  0  0  0  0  0  0  0  0
   59.0300   32.2880   46.3260 S   0  0  0  0  0  0  0  0  0  0  0  0
   58.5810   33.3950   45.4140 O   0  0  0  0  0  0  0  0  0  0  0  0
   57.9470   32.0330   47.3380 O   0  0  0  0  0  0  0  0  0  0  0  0
   60.5240   32.7870   47.1410 C   0  0  0  0  0  0  0  0  0  0  0  0
   61.5260   33.4040   46.3720 C   0  0  0  0  0  0  0  0  0  0  0  0
   62.6880   33.8880   46.9720 C   0  0  0  0  0  0  0  0  0  0  0  0
   62.8660   33.7660   48.3500 C   0  0  0  0  0  0  0  0  0  0  0  0
   61.8890   33.1450   49.1280 C   0  0  0  0  0  0  0  0  0  0  0  0
   60.7170   32.6390   48.5380 C   0  0  0  0  0  0  0  0  0  0  0  0
   59.7410   31.9570   49.4100 C   0  0  0  0  0  0  0  0  0  0  0  0
   58.9210   32.7070   50.2700 C   0  0  0  0  0  0  0  0  0  0  0  0
   58.0500   32.0620   51.1520 C   0  0  0  0  0  0  0  0  0  0  0  0
   58.0010   30.6650   51.1910 C   0  0  0  0  0  0  0  0  0  0  0  0
   58.8140   29.9130   50.3390 C   0  0  0  0  0  0  0  0  0  0  0  0
   59.6840   30.5550   49.4520 C   0  0  0  0  0  0  0  0  0  0  0  0
   57.7480   31.8080   44.1000 H   0  0  0  0  0  0  0  0  0  0  0  0
   57.0440   31.7550   45.6230 H   0  0  0  0  0  0  0  0  0  0  0  0
   56.4138   27.1865   45.3460 H   0  0  0  0  0  0  0  0  0  0  0  0
   57.9539   25.8434   46.7715 H   0  0  0  0  0  0  0  0  0  0  0  0
   60.0713   26.8496   47.6170 H   0  0  0  0  0  0  0  0  0  0  0  0
   60.6747   29.1887   47.0115 H   0  0  0  0  0  0  0  0  0  0  0  0
   61.3920   33.5061   45.2850 H   0  0  0  0  0  0  0  0  0  0  0  0
   63.4651   34.3665   46.3579 H   0  0  0  0  0  0  0  0  0  0  0  0
   63.7775   34.1598   48.8235 H   0  0  0  0  0  0  0  0  0  0  0  0
   62.0367   33.0501   50.2139 H   0  0  0  0  0  0  0  0  0  0  0  0
   58.9649   33.8059   50.2488 H   0  0  0  0  0  0  0  0  0  0  0  0
   57.4025   32.6535   51.8160 H   0  0  0  0  0  0  0  0  0  0  0  0
   57.3223   30.1580   51.8926 H   0  0  0  0  0  0  0  0  0  0  0  0
   58.7697   28.8142   50.3660 H   0  0  0  0  0  0  0  0  0  0  0  0
   60.3254   29.9597   48.7854 H   0  0  0  0  0  0  0  0  0  0  0  0
  1  2  1  0
  2  3  2  0
  2  4  2  0
  2  5  1  0
  5  6  2  0
  6  7  1  0
  7  8  2  0
  8  9  1  0
  9 10  2  0
 10 11  1  0
 11 12  1  0
 12 13  2  0
 12 14  2  0
 12 15  1  0
 15 16  2  0
 16 17  1  0
 17 18  2  0
 18 19  1  0
 19 20  2  0
 20 21  1  0
 21 22  2  0
 22 23  1  0
 23 24  2  0
 24 25  1  0
 25 26  2  0
 10  5  1  0
 20 15  1  0
 26 21  1  0
  1 27  1  0
  1 28  1  0
  6 29  1  0
  7 30  1  0
  8 31  1  0
  9 32  1  0
 16 33  1  0
 17 34  1  0
 18 35  1  0
 19 36  1  0
 22 37  1  0
 23 38  1  0
 24 39  1  0
 25 40  1  0
 26 41  1  0
M  CHG  1  11  -1
M  END
>  <UniqueID>  (20) 
19

>  <SMILES>  (20) 
NS(=O)(=O)c1ccccc1[N-]S(=O)(=O)c1ccccc1-c1ccccc1

>  <Energy>  (20) 
53.09014080471992

>  <Genealogy>  (20) 
NS(=O)(=O)c1ccccc1[N-]S(=O)(=O)c1ccccc1-c1ccccc1 (protonated)
NS(=O)(=O)c1ccccc1[N-]S(=O)(=O)c1ccccc1-c1ccccc1 (3D coordinates assigned)
NS(=O)(=O)c1ccccc1[N-]S(=O)(=O)c1ccccc1-c1ccccc1 (optimized conformer: 53.09014080471992 kcal/mol)

>  <smiles>  (20) 
NS(=O)(=O)c1ccccc1NS(=O)(=O)c1ccccc1-c1ccccc1

>  <score_type>  (20) 
oracle

>  <origin>  (20) 
adg

>  <m_score__min__energy>  (20) 
-9.4000000000000004

>  <m_primary>  (20) 
energy

$$$$
20:0
     RDKit          3D

 42 43  0  0  0  0  0  0  0  0999 V2000
   57.9090   26.4670   46.0220 C   0  0  0  0  0  0  0  0  0  0  0  0
   56.4360   26.7350   45.9640 C   0  0  0  0  0  0  0  0  0  0  0  0
   55.6530   25.9660   46.5820 O   0  0  0  0  0  0  0  0  0  0  0  0
   55.8920   27.8610   45.2630 N   0  0  0  0  0  0  0  0  0  0  0  0
   56.5430   29.1170   45.0240 C   0  0  0  0  0  0  0  0  0  0  0  0
   56.0030   29.9870   44.0700 C   0  0  0  0  0  0  0  0  0  0  0  0
   56.6270   31.2070   43.7920 C   0  0  0  0  0  0  0  0  0  0  0  0
   57.8100   31.5650   44.4490 C   0  0  0  0  0  0  0  0  0  0  0  0
   58.4150   32.8250   44.1340 N   0  0  0  0  0  0  0  0  0  0  0  0
   58.7010   34.1110   45.2620 S   0  0  0  0  0  0  0  0  0  0  0  0
   57.4030   34.5730   45.8630 O   0  0  0  0  0  0  0  0  0  0  0  0
   59.3500   35.2560   44.5360 O   0  0  0  0  0  0  0  0  0  0  0  0
   59.7650   33.5310   46.5560 C   0  0  0  0  0  0  0  0  0  0  0  0
   61.1490   33.6980   46.4050 C   0  0  0  0  0  0  0  0  0  0  0  0
   62.0300   33.2350   47.3760 C   0  0  0  0  0  0  0  0  0  0  0  0
   61.5470   32.5910   48.5120 C   0  0  0  0  0  0  0  0  0  0  0  0
   60.1660   32.4110   48.6980 C   0  0  0  0  0  0  0  0  0  0  0  0
   59.6570   31.7240   49.8540 N   0  0  0  0  0  0  0  0  0  0  0  0
   58.9960   30.1200   49.8910 S   0  0  0  0  0  0  0  0  0  0  0  0
   60.2260   28.9630   50.4540 C   0  0  0  0  0  0  0  0  0  0  0  0
   58.5810   29.7390   48.4980 O   0  0  0  0  0  0  0  0  0  0  0  0
   57.7880   30.0810   50.7830 O   0  0  0  0  0  0  0  0  0  0  0  0
   59.2590   32.9110   47.7300 C   0  0  0  0  0  0  0  0  0  0  0  0
   57.7720   32.7120   47.9260 C   0  0  0  0  0  0  0  0  0  0  0  0
   58.3700   30.6810   45.3870 C   0  0  0  0  0  0  0  0  0  0  0  0
   57.7450   29.4600   45.6650 C   0  0  0  0  0  0  0  0  0  0  0  0
   58.2300   26.4086   47.0725 H   0  0  0  0  0  0  0  0  0  0  0  0
   58.1285   25.5142   45.5180 H   0  0  0  0  0  0  0  0  0  0  0  0
   58.4500   27.2815   45.5180 H   0  0  0  0  0  0  0  0  0  0  0  0
   55.0824   29.7094   43.5358 H   0  0  0  0  0  0  0  0  0  0  0  0
   56.1851   31.8903   43.0518 H   0  0  0  0  0  0  0  0  0  0  0  0
   61.5419   34.2006   45.5089 H   0  0  0  0  0  0  0  0  0  0  0  0
   63.1129   33.3781   47.2461 H   0  0  0  0  0  0  0  0  0  0  0  0
   62.2524   32.2201   49.2702 H   0  0  0  0  0  0  0  0  0  0  0  0
   60.2404   28.9494   51.5538 H   0  0  0  0  0  0  0  0  0  0  0  0
   59.9835   27.9581   50.0780 H   0  0  0  0  0  0  0  0  0  0  0  0
   61.2142   29.2665   50.0780 H   0  0  0  0  0  0  0  0  0  0  0  0
   57.5448   32.6816   49.0018 H   0  0  0  0  0  0  0  0  0  0  0  0
   57.2259   33.5451   47.4593 H   0  0  0  0  0  0  0  0  0  0  0  0
   57.4642   31.7647   47.4593 H   0  0  0  0  0  0  0  0  0  0  0  0
   59.3028   30.9496   45.9045 H   0  0  0  0  0  0  0  0  0  0  0  0
   58.1970   28.7658   46.3887 H   0  0  0  0  0  0  0  0  0  0  0  0
  1  2  1  0
  2  3  2  0
  2  4  1  0
  4  5  1  0
  5  6  2  0
  6  7  1  0
  7  8  2  0
  8  9  1  0
  9 10  1  0
 10 11  2  0
 10 12  2  0
 10 13  1  0
 13 14  2  0
 14 15  1  0
 15 16  2  0
 16 17  1  0
 17 18  1  0
 18 19  1  0
 19 20  1  0
 19 21  2  0
 19 22  2  0
 17 23  2  0
 23 24  1  0
  8 25  1  0
 25 26  2  0
 26  5  1  0
 23 13  1  0
  1 27  1  0
  1 28  1  0
  1 29  1  0
  6 30  1  0
  7 31  1  0
 14 32  1  0
 15 33  1  0
 16 34  1  0
 20 35  1  0
 20 36  1  0
 20 37  1  0
 24 38  1  0
 24 39  1  0
 24 40  1  0
 25 41  1  0
 26 42  1  0
M  CHG  3   4  -1   9  -1  18  -1
M  END
>  <UniqueID>  (21) 
20

>  <SMILES>  (21) 
CC(=O)[N-]c1ccc([N-]S(=O)(=O)c2cccc([N-]S(C)(=O)=O)c2C)cc1

>  <Energy>  (21) 
51.77502028784346

>  <Genealogy>  (21) 
CC(=O)[N-]c1ccc([N-]S(=O)(=O)c2cccc([N-]S(C)(=O)=O)c2C)cc1 (protonated)
CC(=O)[N-]c1ccc([N-]S(=O)(=O)c2cccc([N-]S(C)(=O)=O)c2C)cc1 (3D coordinates assigned)
CC(=O)[N-]c1ccc([N-]S(=O)(=O)c2cccc([N-]S(C)(=O)=O)c2C)cc1 (optimized conformer: 51.77502028784346 kcal/mol)

>  <smiles>  (21) 
CC(=O)Nc1ccc(NS(=O)(=O)c2cccc(NS(C)(=O)=O)c2C)cc1

>  <score_type>  (21) 
oracle

>  <origin>  (21) 
adg

>  <m_score__min__energy>  (21) 
-12.140000000000001

>  <m_primary>  (21) 
energy

$$$$
21:0
     RDKit          3D

 42 45  0  0  0  0  0  0  0  0999 V2000
   54.4530   27.0780   46.7460 H   0  0  0  0  0  0  0  0  0  0  0  0
   55.0060   26.3450   46.2470 N   0  0  0  0  0  0  0  0  0  0  0  0
   56.3810   26.5540   45.9320 C   0  0  0  0  0  0  0  0  0  0  0  0
   57.1460   25.5560   45.8310 O   0  0  0  0  0  0  0  0  0  0  0  0
   56.9080   27.9240   45.7290 C   0  0  0  0  0  0  0  0  0  0  0  0
   58.0830   28.3440   46.3740 C   0  0  0  0  0  0  0  0  0  0  0  0
   58.6185   27.6489   47.0374 H   0  0  0  0  0  0  0  0  0  0  0  0
   58.5780   29.6360   46.1810 C   0  0  0  0  0  0  0  0  0  0  0  0
   59.5002   29.9481   46.6929 H   0  0  0  0  0  0  0  0  0  0  0  0
   57.9090   30.5410   45.3390 C   0  0  0  0  0  0  0  0  0  0  0  0
   58.4270   31.9170   45.1280 C   0  0  0  0  0  0  0  0  0  0  0  0
   58.0870   32.8850   43.7910 S   0  0  0  0  0  0  0  0  0  0  0  0
   58.9740   34.1980   44.3460 C   0  0  0  0  0  0  0  0  0  0  0  0
   59.1055   35.1588   43.8267 H   0  0  0  0  0  0  0  0  0  0  0  0
   59.5140   33.8510   45.5840 C   0  0  0  0  0  0  0  0  0  0  0  0
   60.3380   34.7710   46.3940 C   0  0  0  0  0  0  0  0  0  0  0  0
   59.8500   35.8750   46.7510 O   0  0  0  0  0  0  0  0  0  0  0  0
   61.6670   34.4310   46.8240 N   0  0  0  0  0  0  0  0  0  0  0  0
   61.9790   33.4380   47.6050 C   0  0  0  0  0  0  0  0  0  0  0  0
   61.0170   32.7210   48.2480 N   0  0  0  0  0  0  0  0  0  0  0  0
   61.3200   31.6750   49.0620 C   0  0  0  0  0  0  0  0  0  0  0  0
   60.2500   30.9680   49.7150 N   0  0  0  0  0  0  0  0  0  0  0  0
   58.8590   31.0220   49.4510 C   0  0  0  0  0  0  0  0  0  0  0  0
   58.3250   31.7580   48.5810 O   0  0  0  0  0  0  0  0  0  0  0  0
   58.1450   30.1320   50.2180 O   0  0  0  0  0  0  0  0  0  0  0  0
   59.0320   29.4030   51.0570 C   0  0  0  0  0  0  0  0  0  0  0  0
   58.9490   28.3242   50.8586 H   0  0  0  0  0  0  0  0  0  0  0  0
   58.8007   29.5523   52.1220 H   0  0  0  0  0  0  0  0  0  0  0  0
   60.4490   29.9100   50.7020 C   0  0  0  0  0  0  0  0  0  0  0  0
   61.0530   29.0954   50.2757 H   0  0  0  0  0  0  0  0  0  0  0  0
   60.9853   30.2763   51.5898 H   0  0  0  0  0  0  0  0  0  0  0  0
   62.6640   31.3040   49.2110 C   0  0  0  0  0  0  0  0  0  0  0  0
   62.9431   30.4496   49.8451 H   0  0  0  0  0  0  0  0  0  0  0  0
   63.6400   32.0400   48.5390 C   0  0  0  0  0  0  0  0  0  0  0  0
   64.7013   31.7717   48.6470 H   0  0  0  0  0  0  0  0  0  0  0  0
   63.2820   33.0880   47.7510 N   0  0  0  0  0  0  0  0  0  0  0  0
   59.2170   32.5880   46.0010 N   0  0  0  0  0  0  0  0  0  0  0  0
   59.5310   32.2100   46.9210 H   0  0  0  0  0  0  0  0  0  0  0  0
   56.7360   30.1180   44.6900 C   0  0  0  0  0  0  0  0  0  0  0  0
   56.2038   30.8108   44.0216 H   0  0  0  0  0  0  0  0  0  0  0  0
   56.2390   28.8270   44.8850 C   0  0  0  0  0  0  0  0  0  0  0  0
   55.3165   28.5147   44.3738 H   0  0  0  0  0  0  0  0  0  0  0  0
  1  2  1  0
  2  3  1  0
  3  4  2  0
  3  5  1  0
  5  6  2  0
  6  7  1  0
  6  8  1  0
  8  9  1  0
  8 10  2  0
 10 11  1  0
 11 12  1  0
 12 13  1  0
 13 14  1  0
 13 15  2  0
 15 16  1  0
 16 17  2  0
 16 18  1  0
 18 19  2  0
 19 20  1  0
 20 21  2  0
 21 22  1  0
 22 23  1  0
 23 24  2  0
 23 25  1  0
 25 26  1  0
 26 27  1  0
 26 28  1  0
 26 29  1  0
 29 30  1  0
 29 31  1  0
 21 32  1  0
 32 33  1  0
 32 34  2  0
 34 35  1  0
 34 36  1  0
 15 37  1  0
 37 38  1  0
 10 39  1  0
 39 40  1  0
 39 41  2  0
 41 42  1  0
 41  5  1  0
 37 11  2  0
 36 19  1  0
 29 22  1  0
M  CHG  3   2  -1  36  -1  37   1
M  END
>  <UniqueID>  (22) 
21

>  <SMILES>  (22) 
[NH-]C(=O)c1ccc(-c2[nH+]c(C(=O)/N=c3\nc(N4CCOC4=O)cc[n-]3)cs2)cc1

>  <Energy>  (22) 
101.14935108461427

>  <Genealogy>  (22) 
[NH-]C(=O)c1ccc(-c2[nH+]c(C(=O)N=c3nc(N4CCOC4=O)cc[n-]3)cs2)cc1 (protonated)
[NH-]C(=O)c1ccc(-c2[nH+]c(C(=O)/N=c3\nc(N4CCOC4=O)cc[n-]3)cs2)cc1 (cis-trans isomerization)
[NH-]C(=O)c1ccc(-c2[nH+]c(C(=O)/N=c3\nc(N4CCOC4=O)cc[n-]3)cs2)cc1 (3D coordinates assigned)
[NH-]C(=O)c1ccc(-c2[nH+]c(C(=O)/N=c3\nc(N4CCOC4=O)cc[n-]3)cs2)cc1 (nonaromatic ring conformer: 101.14935108461427 kcal/mol)

>  <smiles>  (22) 
NC(=O)c1ccc(-c2nc(C(=O)N=c3nc(N4CCOC4=O)cc[nH]3)cs2)cc1

>  <score_type>  (22) 
oracle

>  <origin>  (22) 
adg

>  <m_score__min__energy>  (22) 
-10.42

>  <m_primary>  (22) 
energy

$$$$
22:0
     RDKit          3D

 51 54  0  0  0  0  0  0  0  0999 V2000
   55.4170   23.3380   47.6320 C   0  0  0  0  0  0  0  0  0  0  0  0
   56.8900   23.2640   47.9130 C   0  0  0  0  0  0  0  0  0  0  0  0
   57.3750   22.2040   48.4000 O   0  0  0  0  0  0  0  0  0  0  0  0
   57.7600   24.3810   47.6760 N   0  0  0  0  0  0  0  0  0  0  0  0
   58.0410   24.9650   46.3640 C   0  0  2  0  0  0  0  0  0  0  0  0
   59.3130   25.8390   46.4270 C   0  0  0  0  0  0  0  0  0  0  0  0
   58.9080   27.1020   45.7720 C   0  0  0  0  0  0  0  0  0  0  0  0
   59.7370   28.1790   45.4520 C   0  0  0  0  0  0  0  0  0  0  0  0
   59.1760   29.3000   44.8170 C   0  0  0  0  0  0  0  0  0  0  0  0
   57.7960   29.3390   44.5300 C   0  0  0  0  0  0  0  0  0  0  0  0
   57.1190   30.7440   43.7110 S   0  0  0  0  0  0  0  0  0  0  0  0
   58.1000   31.3250   42.7310 O   0  0  0  0  0  0  0  0  0  0  0  0
   55.8940   30.3180   42.9510 O   0  0  0  0  0  0  0  0  0  0  0  0
   56.6660   31.9380   44.8890 N   0  0  0  0  0  0  0  0  0  0  0  0
   57.5560   32.5690   45.8190 C   0  0  0  0  0  0  0  0  0  0  0  0
   58.1480   31.8660   46.8840 C   0  0  0  0  0  0  0  0  0  0  0  0
   59.0350   32.5160   47.7480 C   0  0  0  0  0  0  0  0  0  0  0  0
   59.3270   33.8770   47.5780 C   0  0  0  0  0  0  0  0  0  0  0  0
   60.2970   34.5720   48.4970 C   0  0  0  0  0  0  0  0  0  0  0  0
   61.6910   34.0400   48.2980 C   0  0  0  0  0  0  0  0  0  0  0  0
   62.5410   33.8320   49.3960 C   0  0  0  0  0  0  0  0  0  0  0  0
   63.8390   33.3590   49.1820 C   0  0  0  0  0  0  0  0  0  0  0  0
   64.2750   33.1110   47.9180 N   0  0  0  0  0  0  0  0  0  0  0  0
   63.4730   33.3090   46.8350 C   0  0  0  0  0  0  0  0  0  0  0  0
   62.1680   33.7770   47.0040 C   0  0  0  0  0  0  0  0  0  0  0  0
   58.7280   34.5790   46.5210 C   0  0  0  0  0  0  0  0  0  0  0  0
   57.8620   33.9240   45.6410 C   0  0  0  0  0  0  0  0  0  0  0  0
   56.9800   28.2440   44.8740 C   0  0  0  0  0  0  0  0  0  0  0  0
   57.5670   27.1320   45.4830 C   0  0  0  0  0  0  0  0  0  0  0  0
   56.8840   25.8830   45.8990 C   0  0  0  0  0  0  0  0  0  0  0  0
   54.8634   23.3658   48.5821 H   0  0  0  0  0  0  0  0  0  0  0  0
   55.1993   24.2482   47.0540 H   0  0  0  0  0  0  0  0  0  0  0  0
   55.1091   22.4542   47.0540 H   0  0  0  0  0  0  0  0  0  0  0  0
   58.1685   24.1279   45.6619 H   0  0  0  0  0  0  0  0  0  0  0  0
   59.6141   26.0177   47.4698 H   0  0  0  0  0  0  0  0  0  0  0  0
   60.1780   25.3659   45.9392 H   0  0  0  0  0  0  0  0  0  0  0  0
   60.8100   28.1505   45.6927 H   0  0  0  0  0  0  0  0  0  0  0  0
   59.8164   30.1512   44.5425 H   0  0  0  0  0  0  0  0  0  0  0  0
   57.9127   30.8025   47.0376 H   0  0  0  0  0  0  0  0  0  0  0  0
   59.5076   31.9550   48.5678 H   0  0  0  0  0  0  0  0  0  0  0  0
   60.2880   35.6509   48.2827 H   0  0  0  0  0  0  0  0  0  0  0  0
   59.9928   34.3877   49.5379 H   0  0  0  0  0  0  0  0  0  0  0  0
   62.1882   34.0397   50.4170 H   0  0  0  0  0  0  0  0  0  0  0  0
   64.5088   33.1871   50.0375 H   0  0  0  0  0  0  0  0  0  0  0  0
   63.8542   33.0997   45.8246 H   0  0  0  0  0  0  0  0  0  0  0  0
   61.5192   33.9382   46.1304 H   0  0  0  0  0  0  0  0  0  0  0  0
   58.9409   35.6495   46.3844 H   0  0  0  0  0  0  0  0  0  0  0  0
   57.4168   34.4777   44.8012 H   0  0  0  0  0  0  0  0  0  0  0  0
   55.8998   28.2638   44.6669 H   0  0  0  0  0  0  0  0  0  0  0  0
   56.1820   26.0764   46.7235 H   0  0  0  0  0  0  0  0  0  0  0  0
   56.2858   25.4365   45.0910 H   0  0  0  0  0  0  0  0  0  0  0  0
  1  2  1  0
  2  3  2  0
  2  4  1  0
  4  5  1  0
  5  6  1  0
  6  7  1  0
  7  8  2  0
  8  9  1  0
  9 10  2  0
 10 11  1  0
 11 12  2  0
 11 13  2  0
 11 14  1  0
 14 15  1  0
 15 16  2  0
 16 17  1  0
 17 18  2  0
 18 19  1  0
 19 20  1  0
 20 21  2  0
 21 22  1  0
 22 23  2  0
 23 24  1  0
 24 25  2  0
 18 26  1  0
 26 27  2  0
 10 28  1  0
 28 29  2  0
 29 30  1  0
 30  5  1  0
 29  7  1  0
 27 15  1  0
 25 20  1  0
  1 31  1  0
  1 32  1  0
  1 33  1  0
  5 34  1  6
  6 35  1  0
  6 36  1  0
  8 37  1  0
  9 38  1  0
 16 39  1  0
 17 40  1  0
 19 41  1  0
 19 42  1  0
 21 43  1  0
 22 44  1  0
 24 45  1  0
 25 46  1  0
 26 47  1  0
 27 48  1  0
 28 49  1  0
 30 50  1  0
 30 51  1  0
M  CHG  2   4  -1  14  -1
M  END
>  <UniqueID>  (23) 
22

>  <SMILES>  (23) 
CC(=O)[N-][C@@H]1Cc2ccc(S(=O)(=O)[N-]c3ccc(Cc4ccncc4)cc3)cc2C1

>  <Energy>  (23) 
63.42873830436237

>  <Genealogy>  (23) 
CC(=O)[N-]C1Cc2ccc(S(=O)(=O)[N-]c3ccc(Cc4ccncc4)cc3)cc2C1 (protonated)
CC(=O)[N-][C@@H]1Cc2ccc(S(=O)(=O)[N-]c3ccc(Cc4ccncc4)cc3)cc2C1 (chirality)
CC(=O)[N-][C@@H]1Cc2ccc(S(=O)(=O)[N-]c3ccc(Cc4ccncc4)cc3)cc2C1 (3D coordinates assigned)
CC(=O)[N-][C@@H]1Cc2ccc(S(=O)(=O)[N-]c3ccc(Cc4ccncc4)cc3)cc2C1 (nonaromatic ring conformer: 63.42873830436237 kcal/mol)

>  <smiles>  (23) 
CC(=O)NC1Cc2ccc(S(=O)(=O)Nc3ccc(Cc4ccncc4)cc3)cc2C1

>  <score_type>  (23) 
oracle

>  <origin>  (23) 
adg

>  <m_score__min__energy>  (23) 
-12.390000000000001

>  <m_primary>  (23) 
energy

$$$$
23:0
     RDKit          3D

 35 35  0  0  0  0  0  0  0  0999 V2000
   59.7422   30.8338   45.2433 H   0  0  0  0  0  0  0  0  0  0  0  0
   59.3460   30.7280   46.2640 C   0  0  0  0  0  0  0  0  0  0  0  0
   58.2540   31.3630   46.5660 N   0  0  0  0  0  0  0  0  0  0  0  0
   57.3150   31.7280   45.6270 O   0  0  0  0  0  0  0  0  0  0  0  0
   57.5240   32.8610   44.8010 C   0  0  0  0  0  0  0  0  0  0  0  0
   56.7805   32.8655   43.9903 H   0  0  0  0  0  0  0  0  0  0  0  0
   58.5358   32.8191   44.3715 H   0  0  0  0  0  0  0  0  0  0  0  0
   57.3780   34.1280   45.6290 C   0  0  0  0  0  0  0  0  0  0  0  0
   57.4074   33.8725   46.6985 H   0  0  0  0  0  0  0  0  0  0  0  0
   58.2027   34.8168   45.3937 H   0  0  0  0  0  0  0  0  0  0  0  0
   56.4182   34.6112   45.3937 H   0  0  0  0  0  0  0  0  0  0  0  0
   60.0860   29.8720   47.2130 C   0  0  0  0  0  0  0  0  0  0  0  0
   61.1290   30.3240   47.7540 O   0  0  0  0  0  0  0  0  0  0  0  0
   59.6380   28.5480   47.5230 N   0  0  0  0  0  0  0  0  0  0  0  0
   60.5220   27.3920   47.5350 C   0  0  0  0  0  0  0  0  0  0  0  0
   61.5495   27.7137   47.3095 H   0  0  0  0  0  0  0  0  0  0  0  0
   60.4953   26.9202   48.5283 H   0  0  0  0  0  0  0  0  0  0  0  0
   60.0600   26.3870   46.4810 C   0  0  0  0  0  0  0  0  0  0  0  0
   60.4968   26.6570   45.5082 H   0  0  0  0  0  0  0  0  0  0  0  0
   60.3905   25.3817   46.7811 H   0  0  0  0  0  0  0  0  0  0  0  0
   58.5590   26.3900   46.3670 C   0  0  0  0  0  0  0  0  0  0  0  0
   57.8190   25.2640   46.7580 C   0  0  0  0  0  0  0  0  0  0  0  0
   58.3355   24.3852   47.1715 H   0  0  0  0  0  0  0  0  0  0  0  0
   56.4290   25.2550   46.6240 C   0  0  0  0  0  0  0  0  0  0  0  0
   55.8537   24.3725   46.9407 H   0  0  0  0  0  0  0  0  0  0  0  0
   55.7660   26.3630   46.0890 C   0  0  0  0  0  0  0  0  0  0  0  0
   54.3820   26.3390   45.9610 O   0  0  0  0  0  0  0  0  0  0  0  0
   56.4900   27.4920   45.6790 C   0  0  0  0  0  0  0  0  0  0  0  0
   55.7850   28.5800   45.1410 O   0  0  0  0  0  0  0  0  0  0  0  0
   56.3050   29.4700   44.1580 C   0  0  0  0  0  0  0  0  0  0  0  0
   56.7999   30.3171   44.6555 H   0  0  0  0  0  0  0  0  0  0  0  0
   57.0338   28.9370   43.5297 H   0  0  0  0  0  0  0  0  0  0  0  0
   55.4828   29.8432   43.5297 H   0  0  0  0  0  0  0  0  0  0  0  0
   57.8920   27.4980   45.8170 C   0  0  0  0  0  0  0  0  0  0  0  0
   58.4689   28.3764   45.4919 H   0  0  0  0  0  0  0  0  0  0  0  0
  1  2  1  0
  2  3  2  0
  3  4  1  0
  4  5  1  0
  5  6  1  0
  5  7  1  0
  5  8  1  0
  8  9  1  0
  8 10  1  0
  8 11  1  0
  2 12  1  0
 12 13  2  0
 12 14  1  0
 14 15  1  0
 15 16  1  0
 15 17  1  0
 15 18  1  0
 18 19  1  0
 18 20  1  0
 18 21  1  0
 21 22  2  0
 22 23  1  0
 22 24  1  0
 24 25  1  0
 24 26  2  0
 26 27  1  0
 26 28  1  0
 28 29  1  0
 29 30  1  0
 30 31  1  0
 30 32  1  0
 30 33  1  0
 28 34  2  0
 34 35  1  0
 34 21  1  0
M  CHG  2  14  -1  27  -1
M  END
>  <UniqueID>  (24) 
23

>  <SMILES>  (24) 
CCO/N=C\C(=O)[N-]CCc1ccc([O-])c(OC)c1

>  <Energy>  (24) 
20.680677813060065

>  <Genealogy>  (24) 
CCON=CC(=O)[N-]CCc1ccc([O-])c(OC)c1 (protonated)
CCO/N=C\C(=O)[N-]CCc1ccc([O-])c(OC)c1 (cis-trans isomerization)
CCO/N=C\C(=O)[N-]CCc1ccc([O-])c(OC)c1 (3D coordinates assigned)
CCO/N=C\C(=O)[N-]CCc1ccc([O-])c(OC)c1 (optimized conformer: 20.680677813060065 kcal/mol)

>  <smiles>  (24) 
CCON=CC(=O)NCCc1ccc(O)c(OC)c1

>  <score_type>  (24) 
oracle

>  <origin>  (24) 
adg

>  <m_score__min__energy>  (24) 
-10.09

>  <m_primary>  (24) 
energy

$$$$
24:0
     RDKit          3D

 49 51  0  0  0  0  0  0  0  0999 V2000
   63.4070   33.8680   47.4200 C   0  0  0  0  0  0  0  0  0  0  0  0
   62.6260   33.3330   48.5400 N   0  0  0  0  0  0  0  0  0  0  0  0
   62.5200   34.1020   49.7860 C   0  0  0  0  0  0  0  0  0  0  0  0
   61.9580   32.0590   48.3850 C   0  0  0  0  0  0  0  0  0  0  0  0
   61.7050   31.5020   47.1160 C   0  0  0  0  0  0  0  0  0  0  0  0
   61.0640   30.2660   47.0180 C   0  0  0  0  0  0  0  0  0  0  0  0
   60.6750   29.5780   48.1750 C   0  0  0  0  0  0  0  0  0  0  0  0
   59.9800   28.2730   48.0910 C   0  0  0  0  0  0  0  0  0  0  0  0
   60.1760   27.4160   48.9950 O   0  0  0  0  0  0  0  0  0  0  0  0
   59.0840   27.9630   47.0070 N   0  0  0  0  0  0  0  0  0  0  0  0
   59.0130   26.6030   46.4520 C   0  0  0  0  0  0  0  0  0  0  0  0
   57.5500   26.1600   46.3170 C   0  0  0  0  0  0  0  0  0  0  0  0
   56.6430   27.2140   45.6390 C   0  0  0  0  0  0  0  0  0  0  0  0
   57.3780   28.5220   45.2890 C   0  0  1  0  0  0  0  0  0  0  0  0
   56.3950   29.5760   44.8260 C   0  0  0  0  0  0  0  0  0  0  0  0
   55.1600   29.3450   44.9060 O   0  0  0  0  0  0  0  0  0  0  0  0
   56.8250   30.7840   44.1830 N   0  0  0  0  0  0  0  0  0  0  0  0
   57.5730   31.8510   44.7810 C   0  0  0  0  0  0  0  0  0  0  0  0
   58.0490   32.8860   43.9670 C   0  0  0  0  0  0  0  0  0  0  0  0
   58.7620   33.9530   44.5230 C   0  0  0  0  0  0  0  0  0  0  0  0
   58.9830   34.0030   45.9040 C   0  0  0  0  0  0  0  0  0  0  0  0
   59.8760   35.3410   46.6030 Cl  0  0  0  0  0  0  0  0  0  0  0  0
   58.4840   32.9890   46.7270 C   0  0  0  0  0  0  0  0  0  0  0  0
   57.7720   31.9210   46.1710 C   0  0  0  0  0  0  0  0  0  0  0  0
   58.1940   29.0150   46.4970 C   0  0  0  0  0  0  0  0  0  0  0  0
   60.9210   30.1730   49.4200 C   0  0  0  0  0  0  0  0  0  0  0  0
   61.5520   31.3740   49.4920 N   0  0  0  0  0  0  0  0  0  0  0  0
   64.2557   34.4494   47.8094 H   0  0  0  0  0  0  0  0  0  0  0  0
   63.7831   33.0370   46.8052 H   0  0  0  0  0  0  0  0  0  0  0  0
   62.7680   34.5189   46.8052 H   0  0  0  0  0  0  0  0  0  0  0  0
   62.6137   33.4221   50.6456 H   0  0  0  0  0  0  0  0  0  0  0  0
   63.3232   34.8527   49.8230 H   0  0  0  0  0  0  0  0  0  0  0  0
   61.5437   34.6074   49.8230 H   0  0  0  0  0  0  0  0  0  0  0  0
   62.0114   32.0389   46.2061 H   0  0  0  0  0  0  0  0  0  0  0  0
   60.8633   29.8301   46.0282 H   0  0  0  0  0  0  0  0  0  0  0  0
   59.4893   26.5901   45.4605 H   0  0  0  0  0  0  0  0  0  0  0  0
   59.5357   25.9117   47.1295 H   0  0  0  0  0  0  0  0  0  0  0  0
   57.5198   25.2382   45.7175 H   0  0  0  0  0  0  0  0  0  0  0  0
   57.1635   26.0098   47.3358 H   0  0  0  0  0  0  0  0  0  0  0  0
   56.2402   26.7818   44.7111 H   0  0  0  0  0  0  0  0  0  0  0  0
   55.8507   27.4700   46.3578 H   0  0  0  0  0  0  0  0  0  0  0  0
   58.0761   28.3257   44.4619 H   0  0  0  0  0  0  0  0  0  0  0  0
   57.8610   32.8598   42.8835 H   0  0  0  0  0  0  0  0  0  0  0  0
   59.1491   34.7530   43.8748 H   0  0  0  0  0  0  0  0  0  0  0  0
   58.6515   33.0311   47.8134 H   0  0  0  0  0  0  0  0  0  0  0  0
   57.3666   31.1335   46.8233 H   0  0  0  0  0  0  0  0  0  0  0  0
   58.8008   29.8798   46.1903 H   0  0  0  0  0  0  0  0  0  0  0  0
   57.4934   29.2945   47.2977 H   0  0  0  0  0  0  0  0  0  0  0  0
   60.6019   29.6656   50.3423 H   0  0  0  0  0  0  0  0  0  0  0  0
  1  2  1  0
  2  3  1  0
  2  4  1  0
  4  5  2  0
  5  6  1  0
  6  7  2  0
  7  8  1  0
  8  9  2  0
  8 10  1  0
 10 11  1  0
 11 12  1  0
 12 13  1  0
 13 14  1  0
 14 15  1  0
 15 16  2  0
 15 17  1  0
 17 18  1  0
 18 19  2  0
 19 20  1  0
 20 21  2  0
 21 22  1  0
 21 23  1  0
 23 24  2  0
 14 25  1  0
  7 26  1  0
 26 27  2  0
 27  4  1  0
 25 10  1  0
 24 18  1  0
  1 28  1  0
  1 29  1  0
  1 30  1  0
  3 31  1  0
  3 32  1  0
  3 33  1  0
  5 34  1  0
  6 35  1  0
 11 36  1  0
 11 37  1  0
 12 38  1  0
 12 39  1  0
 13 40  1  0
 13 41  1  0
 14 42  1  6
 19 43  1  0
 20 44  1  0
 23 45  1  0
 24 46  1  0
 25 47  1  0
 25 48  1  0
 26 49  1  0
M  CHG  1  17  -1
M  END
>  <UniqueID>  (25) 
24

>  <SMILES>  (25) 
CN(C)c1ccc(C(=O)N2CCC[C@@H](C(=O)[N-]c3ccc(Cl)cc3)C2)cn1

>  <Energy>  (25) 
61.061433757994465

>  <Genealogy>  (25) 
CN(C)c1ccc(C(=O)N2CCCC(C(=O)[N-]c3ccc(Cl)cc3)C2)cn1 (protonated)
CN(C)c1ccc(C(=O)N2CCC[C@@H](C(=O)[N-]c3ccc(Cl)cc3)C2)cn1 (chirality)
CN(C)c1ccc(C(=O)N2CCC[C@@H](C(=O)[N-]c3ccc(Cl)cc3)C2)cn1 (3D coordinates assigned)
CN(C)c1ccc(C(=O)N2CCC[C@@H](C(=O)[N-]c3ccc(Cl)cc3)C2)cn1 (nonaromatic ring conformer: 61.061433757994465 kcal/mol)

>  <smiles>  (25) 
CN(C)c1ccc(C(=O)N2CCCC(C(=O)Nc3ccc(Cl)cc3)C2)cn1

>  <score_type>  (25) 
oracle

>  <origin>  (25) 
adg

>  <m_score__min__energy>  (25) 
-9.5800000000000001

>  <m_primary>  (25) 
energy

$$$$
25:0
     RDKit          3D

 62 65  0  0  0  0  0  0  0  0999 V2000
   63.3929   30.7165   47.4949 H   0  0  0  0  0  0  0  0  0  0  0  0
   62.6590   31.5280   47.6080 C   0  0  0  0  0  0  0  0  0  0  0  0
   61.4480   31.2980   48.2740 C   0  0  0  0  0  0  0  0  0  0  0  0
   61.1390   29.9490   48.8400 C   0  0  0  0  0  0  0  0  0  0  0  0
   61.1509   30.0009   49.9387 H   0  0  0  0  0  0  0  0  0  0  0  0
   60.1439   29.6274   48.4988 H   0  0  0  0  0  0  0  0  0  0  0  0
   61.8949   29.2263   48.4988 H   0  0  0  0  0  0  0  0  0  0  0  0
   60.5440   32.3110   48.4020 N   0  0  0  0  0  0  0  0  0  0  0  0
   60.7760   33.5540   47.8940 C   0  0  0  0  0  0  0  0  0  0  0  0
   59.7700   34.6440   48.1090 C   0  0  0  0  0  0  0  0  0  0  0  0
   59.5990   34.7804   49.1870 H   0  0  0  0  0  0  0  0  0  0  0  0
   60.1451   35.5852   47.6806 H   0  0  0  0  0  0  0  0  0  0  0  0
   58.5170   34.2710   47.4580 N   0  0  0  0  0  0  0  0  0  0  0  0
   58.3910   33.5910   46.3540 C   0  0  0  0  0  0  0  0  0  0  0  0
   58.3100   32.2360   46.4360 N   0  0  0  0  0  0  0  0  0  0  0  0
   58.1520   31.4390   45.3420 C   0  0  0  0  0  0  0  0  0  0  0  0
   58.0920   30.0110   45.5070 N   0  0  0  0  0  0  0  0  0  0  0  0
   56.8940   29.2770   45.2050 C   0  0  0  0  0  0  0  0  0  0  0  0
   55.8330   29.8730   44.8750 O   0  0  0  0  0  0  0  0  0  0  0  0
   56.8980   27.7870   45.3430 C   0  0  0  0  0  0  0  0  0  0  0  0
   56.1282   27.3541   44.6873 H   0  0  0  0  0  0  0  0  0  0  0  0
   56.6824   27.5105   46.3856 H   0  0  0  0  0  0  0  0  0  0  0  0
   58.2880   27.2460   44.9370 C   0  0  2  0  0  0  0  0  0  0  0  0
   58.4974   27.5417   43.8984 H   0  0  0  0  0  0  0  0  0  0  0  0
   58.3260   25.6790   44.9650 C   0  0  0  0  0  0  0  0  0  0  0  0
   59.3614   25.4057   44.7135 H   0  0  0  0  0  0  0  0  0  0  0  0
   57.3930   25.0490   43.8960 C   0  0  0  0  0  0  0  0  0  0  0  0
   56.4460   25.6080   43.8679 H   0  0  0  0  0  0  0  0  0  0  0  0
   57.8920   25.0969   42.9169 H   0  0  0  0  0  0  0  0  0  0  0  0
   57.1030   23.5850   44.2310 C   0  0  0  0  0  0  0  0  0  0  0  0
   56.5374   23.1335   43.4026 H   0  0  0  0  0  0  0  0  0  0  0  0
   58.0621   23.0664   44.3768 H   0  0  0  0  0  0  0  0  0  0  0  0
   56.3140   23.4630   45.4750 N   0  0  0  0  0  0  0  0  0  0  0  0
   56.4390   21.8450   46.1310 S   0  0  0  0  0  0  0  0  0  0  0  0
   55.0620   21.2730   46.3130 O   0  0  0  0  0  0  0  0  0  0  0  0
   57.1180   21.9050   47.4710 O   0  0  0  0  0  0  0  0  0  0  0  0
   57.3710   20.7610   45.0610 C   0  0  0  0  0  0  0  0  0  0  0  0
   57.9675   20.0672   45.6716 H   0  0  0  0  0  0  0  0  0  0  0  0
   56.6788   20.1885   44.4261 H   0  0  0  0  0  0  0  0  0  0  0  0
   58.0408   21.3596   44.4261 H   0  0  0  0  0  0  0  0  0  0  0  0
   56.6040   24.5010   46.4930 C   0  0  0  0  0  0  0  0  0  0  0  0
   55.8767   25.3178   46.3754 H   0  0  0  0  0  0  0  0  0  0  0  0
   56.5311   24.0187   47.4790 H   0  0  0  0  0  0  0  0  0  0  0  0
   58.0230   25.0900   46.3780 C   0  0  0  0  0  0  0  0  0  0  0  0
   58.1309   25.8923   47.1227 H   0  0  0  0  0  0  0  0  0  0  0  0
   58.7349   24.2697   46.5521 H   0  0  0  0  0  0  0  0  0  0  0  0
   59.3770   27.8710   45.8590 C   0  0  0  0  0  0  0  0  0  0  0  0
   60.3367   27.8302   45.3229 H   0  0  0  0  0  0  0  0  0  0  0  0
   59.3565   27.2807   46.7870 H   0  0  0  0  0  0  0  0  0  0  0  0
   59.1360   29.3390   46.2900 C   0  0  0  0  0  0  0  0  0  0  0  0
   60.0763   29.8970   46.1694 H   0  0  0  0  0  0  0  0  0  0  0  0
   58.7964   29.3194   47.3361 H   0  0  0  0  0  0  0  0  0  0  0  0
   58.0940   32.0240   44.0690 C   0  0  0  0  0  0  0  0  0  0  0  0
   57.9700   31.3951   43.1750 H   0  0  0  0  0  0  0  0  0  0  0  0
   58.1950   33.4120   43.9450 C   0  0  0  0  0  0  0  0  0  0  0  0
   58.1492   33.8800   42.9506 H   0  0  0  0  0  0  0  0  0  0  0  0
   58.3540   34.2050   45.0830 C   0  0  0  0  0  0  0  0  0  0  0  0
   58.4495   35.2969   44.9904 H   0  0  0  0  0  0  0  0  0  0  0  0
   61.9840   33.8180   47.2330 C   0  0  0  0  0  0  0  0  0  0  0  0
   62.1882   34.8214   46.8310 H   0  0  0  0  0  0  0  0  0  0  0  0
   62.9260   32.7970   47.0890 C   0  0  0  0  0  0  0  0  0  0  0  0
   63.8753   32.9916   46.5685 H   0  0  0  0  0  0  0  0  0  0  0  0
  1  2  1  0
  2  3  2  0
  3  4  1  0
  4  5  1  0
  4  6  1  0
  4  7  1  0
  3  8  1  0
  8  9  2  0
  9 10  1  0
 10 11  1  0
 10 12  1  0
 10 13  1  0
 13 14  2  0
 14 15  1  0
 15 16  1  0
 16 17  1  0
 17 18  1  0
 18 19  2  0
 18 20  1  0
 20 21  1  0
 20 22  1  0
 20 23  1  0
 23 24  1  6
 23 25  1  0
 25 26  1  0
 25 27  1  0
 27 28  1  0
 27 29  1  0
 27 30  1  0
 30 31  1  0
 30 32  1  0
 30 33  1  0
 33 34  1  0
 34 35  2  0
 34 36  2  0
 34 37  1  0
 37 38  1  0
 37 39  1  0
 37 40  1  0
 33 41  1  0
 41 42  1  0
 41 43  1  0
 41 44  1  0
 44 45  1  0
 44 46  1  0
 23 47  1  0
 47 48  1  0
 47 49  1  0
 47 50  1  0
 50 51  1  0
 50 52  1  0
 16 53  2  0
 53 54  1  0
 53 55  1  0
 55 56  1  0
 55 57  2  0
 57 58  1  0
  9 59  1  0
 59 60  1  0
 59 61  2  0
 61 62  1  0
 61  2  1  0
 57 14  1  0
 50 17  1  0
 44 25  1  0
M  CHG  1  15  -1
M  END
>  <UniqueID>  (26) 
25

>  <SMILES>  (26) 
Cc1cccc(C/N=c2\cccc(N3CC[C@@H](C4CCN(S(C)(=O)=O)CC4)CC3=O)[n-]2)n1

>  <Energy>  (26) 
77.27240050336951

>  <Genealogy>  (26) 
Cc1cccc(CN=c2cccc(N3CCC(C4CCN(S(C)(=O)=O)CC4)CC3=O)[n-]2)n1 (protonated)
Cc1cccc(CN=c2cccc(N3CC[C@@H](C4CCN(S(C)(=O)=O)CC4)CC3=O)[n-]2)n1 (chirality)
Cc1cccc(C/N=c2\cccc(N3CC[C@@H](C4CCN(S(C)(=O)=O)CC4)CC3=O)[n-]2)n1 (cis-trans isomerization)
Cc1cccc(C/N=c2\cccc(N3CC[C@@H](C4CCN(S(C)(=O)=O)CC4)CC3=O)[n-]2)n1 (3D coordinates assigned)
Cc1cccc(C/N=c2\cccc(N3CC[C@@H](C4CCN(S(C)(=O)=O)CC4)CC3=O)[n-]2)n1 (nonaromatic ring conformer: 77.27240050336951 kcal/mol)

>  <smiles>  (26) 
Cc1cccc(CN=c2cccc(N3CCC(C4CCN(S(C)(=O)=O)CC4)CC3=O)[nH]2)n1

>  <score_type>  (26) 
oracle

>  <origin>  (26) 
adg

>  <m_score__min__energy>  (26) 
-11.640000000000001

>  <m_primary>  (26) 
energy

$$$$
26:0
     RDKit          3D

 18 19  0  0  0  0  0  0  0  0999 V2000
   60.7120   27.8700   45.2480 O   0  0  0  0  0  0  0  0  0  0  0  0
   59.4760   28.1100   45.1930 C   0  0  0  0  0  0  0  0  0  0  0  0
   59.0150   29.3980   44.6480 C   0  0  0  0  0  0  0  0  0  0  0  0
   57.7140   29.6870   44.5740 C   0  0  0  0  0  0  0  0  0  0  0  0
   56.6930   28.7290   45.0360 C   0  0  0  0  0  0  0  0  0  0  0  0
   55.4770   29.0460   44.9470 O   0  0  0  0  0  0  0  0  0  0  0  0
   57.1070   27.4140   45.5950 C   0  0  0  0  0  0  0  0  0  0  0  0
   56.1680   26.4610   46.0510 C   0  0  0  0  0  0  0  0  0  0  0  0
   54.8010   26.7140   45.9960 O   0  0  0  0  0  0  0  0  0  0  0  0
   56.6050   25.2380   46.5690 C   0  0  0  0  0  0  0  0  0  0  0  0
   57.9670   24.9480   46.6400 C   0  0  0  0  0  0  0  0  0  0  0  0
   58.9070   25.8790   46.1930 C   0  0  0  0  0  0  0  0  0  0  0  0
   58.4870   27.1140   45.6710 C   0  0  0  0  0  0  0  0  0  0  0  0
   59.7540   30.1331   44.2965 H   0  0  0  0  0  0  0  0  0  0  0  0
   57.3982   30.6565   44.1613 H   0  0  0  0  0  0  0  0  0  0  0  0
   55.8698   24.5001   46.9227 H   0  0  0  0  0  0  0  0  0  0  0  0
   58.3019   23.9834   47.0492 H   0  0  0  0  0  0  0  0  0  0  0  0
   59.9802   25.6446   46.2498 H   0  0  0  0  0  0  0  0  0  0  0  0
  1  2  2  0
  2  3  1  0
  3  4  2  0
  4  5  1  0
  5  6  2  0
  5  7  1  0
  7  8  2  0
  8  9  1  0
  8 10  1  0
 10 11  2  0
 11 12  1  0
 12 13  2  0
 13  2  1  0
 13  7  1  0
  3 14  1  0
  4 15  1  0
 10 16  1  0
 11 17  1  0
 12 18  1  0
M  CHG  1   9  -1
M  END
>  <UniqueID>  (27) 
26

>  <SMILES>  (27) 
O=C1C=CC(=O)c2c([O-])cccc21

>  <Energy>  (27) 
21.123724106743932

>  <Genealogy>  (27) 
O=C1C=CC(=O)c2c([O-])cccc21 (protonated)
O=C1C=CC(=O)c2c([O-])cccc21 (3D coordinates assigned)
O=C1C=CC(=O)c2c([O-])cccc21 (nonaromatic ring conformer: 21.123724106743932 kcal/mol)

>  <smiles>  (27) 
O=C1C=CC(=O)c2c(O)cccc21

>  <score_type>  (27) 
oracle

>  <origin>  (27) 
adg

>  <m_score__min__energy>  (27) 
-10.130000000000001

>  <m_primary>  (27) 
energy

$$$$
27:0
     RDKit          3D

 34 35  0  0  0  0  0  0  0  0999 V2000
   63.9520   32.3010   48.0740 N   0  0  0  0  0  0  0  0  0  0  0  0
   62.8090   33.4690   47.5140 S   0  0  0  0  0  0  0  0  0  0  0  0
   62.5620   34.4890   48.5920 O   0  0  0  0  0  0  0  0  0  0  0  0
   63.3570   34.1700   46.3030 O   0  0  0  0  0  0  0  0  0  0  0  0
   61.3000   32.6590   47.1040 C   0  0  0  0  0  0  0  0  0  0  0  0
   61.1810   31.2710   47.2550 C   0  0  0  0  0  0  0  0  0  0  0  0
   59.9870   30.6280   46.9160 C   0  0  0  0  0  0  0  0  0  0  0  0
   58.8960   31.3630   46.4380 C   0  0  0  0  0  0  0  0  0  0  0  0
   57.6960   30.6670   46.0750 N   0  0  0  0  0  0  0  0  0  0  0  0
   57.0370   30.7050   44.8020 C   0  0  0  0  0  0  0  0  0  0  0  0
   56.3710   31.7300   44.4970 O   0  0  0  0  0  0  0  0  0  0  0  0
   57.1570   29.5730   43.8140 C   0  0  0  0  0  0  0  0  0  0  0  0
   58.3670   28.7950   44.0630 N   0  0  0  0  0  0  0  0  0  0  0  0
   58.5720   27.8920   45.1590 C   0  0  0  0  0  0  0  0  0  0  0  0
   59.6380   27.2230   45.1930 O   0  0  0  0  0  0  0  0  0  0  0  0
   57.5960   27.8050   46.3070 C   0  0  0  0  0  0  0  0  0  0  0  0
   57.1430   26.3940   46.5450 C   0  0  0  0  0  0  0  0  0  0  0  0
   58.1470   25.1100   46.9730 S   0  0  0  0  0  0  0  0  0  0  0  0
   56.8790   24.0050   46.9420 C   0  0  0  0  0  0  0  0  0  0  0  0
   57.0020   22.7790   47.1980 O   0  0  0  0  0  0  0  0  0  0  0  0
   55.7020   24.5710   46.6030 N   0  0  0  0  0  0  0  0  0  0  0  0
   55.8510   25.9040   46.3760 C   0  0  0  0  0  0  0  0  0  0  0  0
   54.7790   26.7030   46.0010 O   0  0  0  0  0  0  0  0  0  0  0  0
   59.0300   32.7490   46.2520 C   0  0  0  0  0  0  0  0  0  0  0  0
   60.2230   33.3930   46.5890 C   0  0  0  0  0  0  0  0  0  0  0  0
   64.5170   32.0060   47.2470 H   0  0  0  0  0  0  0  0  0  0  0  0
   62.0289   30.6862   47.6411 H   0  0  0  0  0  0  0  0  0  0  0  0
   59.9043   29.5366   47.0257 H   0  0  0  0  0  0  0  0  0  0  0  0
   56.2797   28.9163   43.9094 H   0  0  0  0  0  0  0  0  0  0  0  0
   57.2107   29.9943   42.7993 H   0  0  0  0  0  0  0  0  0  0  0  0
   58.0833   28.1815   47.2185 H   0  0  0  0  0  0  0  0  0  0  0  0
   56.7133   28.4103   46.0531 H   0  0  0  0  0  0  0  0  0  0  0  0
   58.1919   33.3297   45.8392 H   0  0  0  0  0  0  0  0  0  0  0  0
   60.3173   34.4801   46.4496 H   0  0  0  0  0  0  0  0  0  0  0  0
  1  2  1  0
  2  3  2  0
  2  4  2  0
  2  5  1  0
  5  6  2  0
  6  7  1  0
  7  8  2  0
  8  9  1  0
  9 10  1  0
 10 11  2  0
 10 12  1  0
 12 13  1  0
 13 14  1  0
 14 15  2  0
 14 16  1  0
 16 17  1  0
 17 18  1  0
 18 19  1  0
 19 20  2  0
 19 21  1  0
 21 22  1  0
 22 23  1  0
  8 24  1  0
 24 25  2  0
 25  5  1  0
 22 17  2  0
  1 26  1  0
  6 27  1  0
  7 28  1  0
 12 29  1  0
 12 30  1  0
 16 31  1  0
 16 32  1  0
 24 33  1  0
 25 34  1  0
M  CHG  5   1  -1   9  -1  13  -1  21  -1  23  -1
M  END
>  <UniqueID>  (28) 
27

>  <SMILES>  (28) 
[NH-]S(=O)(=O)c1ccc([N-]C(=O)C[N-]C(=O)Cc2sc(=O)[n-]c2[O-])cc1

>  <Energy>  (28) 
68.27103644649901

>  <Genealogy>  (28) 
[NH-]S(=O)(=O)c1ccc([N-]C(=O)C[N-]C(=O)Cc2sc(=O)[n-]c2[O-])cc1 (protonated)
[NH-]S(=O)(=O)c1ccc([N-]C(=O)C[N-]C(=O)Cc2sc(=O)[n-]c2[O-])cc1 (3D coordinates assigned)
[NH-]S(=O)(=O)c1ccc([N-]C(=O)C[N-]C(=O)Cc2sc(=O)[n-]c2[O-])cc1 (optimized conformer: 68.27103644649901 kcal/mol)

>  <smiles>  (28) 
NS(=O)(=O)c1ccc(NC(=O)CNC(=O)Cc2sc(=O)[nH]c2O)cc1

>  <score_type>  (28) 
oracle

>  <origin>  (28) 
adg

>  <m_score__min__energy>  (28) 
-17.23

>  <m_primary>  (28) 
energy

$$$$
28:0
     RDKit          3D

 37 40  0  0  0  0  0  0  0  0999 V2000
   58.8450   35.3380   44.8250 O   0  0  0  0  0  0  0  0  0  0  0  0
   59.3320   34.4410   45.5620 C   0  0  0  0  0  0  0  0  0  0  0  0
   60.4190   34.7830   46.4330 N   0  0  0  0  0  0  0  0  0  0  0  0
   60.6940   34.1890   47.7080 C   0  0  0  0  0  0  0  0  0  0  0  0
   59.6510   34.0940   48.6400 C   0  0  0  0  0  0  0  0  0  0  0  0
   59.8770   33.5360   49.9000 C   0  0  0  0  0  0  0  0  0  0  0  0
   61.1430   33.0510   50.2330 C   0  0  0  0  0  0  0  0  0  0  0  0
   62.1820   33.1080   49.3000 C   0  0  0  0  0  0  0  0  0  0  0  0
   61.9650   33.6650   48.0330 C   0  0  0  0  0  0  0  0  0  0  0  0
   63.4050   33.6060   46.7680 Br  0  0  0  0  0  0  0  0  0  0  0  0
   58.7940   33.0680   45.4720 C   0  0  0  0  0  0  0  0  0  0  0  0
   57.9770   32.5870   44.4590 C   0  0  0  0  0  0  0  0  0  0  0  0
   57.6320   31.2310   44.6040 C   0  0  0  0  0  0  0  0  0  0  0  0
   58.1930   30.6160   45.7300 C   0  0  0  0  0  0  0  0  0  0  0  0
   59.1080   31.7960   46.5210 S   0  0  0  0  0  0  0  0  0  0  0  0
   58.0880   29.1900   46.1710 C   0  0  0  0  0  0  0  0  0  0  0  0
   59.0590   28.7210   47.0840 C   0  0  0  0  0  0  0  0  0  0  0  0
   59.0660   27.3970   47.5240 C   0  0  0  0  0  0  0  0  0  0  0  0
   58.1070   26.5050   47.0610 C   0  0  0  0  0  0  0  0  0  0  0  0
   57.1350   26.9370   46.1640 C   0  0  0  0  0  0  0  0  0  0  0  0
   57.0930   28.2650   45.7160 C   0  0  0  0  0  0  0  0  0  0  0  0
   56.0430   28.5630   44.8340 O   0  0  0  0  0  0  0  0  0  0  0  0
   55.6150   29.8470   44.4090 C   0  0  0  0  0  0  0  0  0  0  0  0
   56.7210   30.5460   43.6430 C   0  0  0  0  0  0  0  0  0  0  0  0
   58.6481   34.4614   48.3770 H   0  0  0  0  0  0  0  0  0  0  0  0
   59.0568   33.4786   50.6307 H   0  0  0  0  0  0  0  0  0  0  0  0
   61.3229   32.6236   51.2305 H   0  0  0  0  0  0  0  0  0  0  0  0
   63.1749   32.7136   49.5618 H   0  0  0  0  0  0  0  0  0  0  0  0
   57.6310   33.2086   43.6200 H   0  0  0  0  0  0  0  0  0  0  0  0
   59.8267   29.4153   47.4563 H   0  0  0  0  0  0  0  0  0  0  0  0
   59.8315   27.0592   48.2381 H   0  0  0  0  0  0  0  0  0  0  0  0
   58.1160   25.4595   47.4027 H   0  0  0  0  0  0  0  0  0  0  0  0
   56.3836   26.2215   45.7986 H   0  0  0  0  0  0  0  0  0  0  0  0
   54.7354   29.7386   43.7574 H   0  0  0  0  0  0  0  0  0  0  0  0
   55.3583   30.4485   45.2935 H   0  0  0  0  0  0  0  0  0  0  0  0
   57.2901   29.8052   43.0622 H   0  0  0  0  0  0  0  0  0  0  0  0
   56.2825   31.2880   42.9595 H   0  0  0  0  0  0  0  0  0  0  0  0
  1  2  2  0
  2  3  1  0
  3  4  1  0
  4  5  2  0
  5  6  1  0
  6  7  2  0
  7  8  1  0
  8  9  2  0
  9 10  1  0
  2 11  1  0
 11 12  2  0
 12 13  1  0
 13 14  2  0
 14 15  1  0
 14 16  1  0
 16 17  2  0
 17 18  1  0
 18 19  2  0
 19 20  1  0
 20 21  2  0
 21 22  1  0
 22 23  1  0
 23 24  1  0
  9  4  1  0
 15 11  1  0
 21 16  1  0
 24 13  1  0
  5 25  1  0
  6 26  1  0
  7 27  1  0
  8 28  1  0
 12 29  1  0
 17 30  1  0
 18 31  1  0
 19 32  1  0
 20 33  1  0
 23 34  1  0
 23 35  1  0
 24 36  1  0
 24 37  1  0
M  CHG  1   3  -1
M  END
>  <UniqueID>  (29) 
28

>  <SMILES>  (29) 
O=C([N-]c1ccccc1Br)c1cc2c(s1)-c1ccccc1OCC2

>  <Energy>  (29) 
85.02592667442565

>  <Genealogy>  (29) 
O=C([N-]c1ccccc1Br)c1cc2c(s1)-c1ccccc1OCC2 (protonated)
O=C([N-]c1ccccc1Br)c1cc2c(s1)-c1ccccc1OCC2 (3D coordinates assigned)
O=C([N-]c1ccccc1Br)c1cc2c(s1)-c1ccccc1OCC2 (nonaromatic ring conformer: 85.02592667442565 kcal/mol)

>  <smiles>  (29) 
O=C(Nc1ccccc1Br)c1cc2c(s1)-c1ccccc1OCC2

>  <score_type>  (29) 
oracle

>  <origin>  (29) 
adg

>  <m_score__min__energy>  (29) 
-8.0600000000000005

>  <m_primary>  (29) 
energy

$$$$
29:0
     RDKit          3D

 30 32  0  0  0  0  0  0  0  0999 V2000
   55.6350   23.9190   47.6250 H   0  0  0  0  0  0  0  0  0  0  0  0
   56.7180   30.7510   44.6070 N   0  0  0  0  0  0  0  0  0  0  0  0
   56.8910   29.5300   45.0160 C   0  0  0  0  0  0  0  0  0  0  0  0
   55.8190   28.7030   45.2380 N   0  0  0  0  0  0  0  0  0  0  0  0
   56.0560   27.4420   45.6680 C   0  0  0  0  0  0  0  0  0  0  0  0
   55.1400   26.5020   45.9380 N   0  0  0  0  0  0  0  0  0  0  0  0
   55.9270   25.4610   46.3210 C   0  0  0  0  0  0  0  0  0  0  0  0
   55.4410   24.3170   46.6800 N   0  0  0  0  0  0  0  0  0  0  0  0
   57.7870   31.6550   44.1860 C   0  0  0  0  0  0  0  0  0  0  0  0
   58.5793   31.0719   43.6939 H   0  0  0  0  0  0  0  0  0  0  0  0
   57.3678   32.3961   43.4895 H   0  0  0  0  0  0  0  0  0  0  0  0
   58.3740   32.3850   45.3750 C   0  0  0  0  0  0  0  0  0  0  0  0
   59.3350   31.7310   46.1680 C   0  0  0  0  0  0  0  0  0  0  0  0
   59.6310   30.6997   45.9254 H   0  0  0  0  0  0  0  0  0  0  0  0
   59.9160   32.3780   47.2590 C   0  0  0  0  0  0  0  0  0  0  0  0
   60.6665   31.8562   47.8709 H   0  0  0  0  0  0  0  0  0  0  0  0
   59.5470   33.6850   47.5750 C   0  0  0  0  0  0  0  0  0  0  0  0
   60.0065   34.1923   48.4361 H   0  0  0  0  0  0  0  0  0  0  0  0
   58.5950   34.3510   46.8000 C   0  0  0  0  0  0  0  0  0  0  0  0
   58.3074   35.3813   47.0563 H   0  0  0  0  0  0  0  0  0  0  0  0
   58.0010   33.7160   45.6950 C   0  0  0  0  0  0  0  0  0  0  0  0
   56.9730   34.4630   44.8850 C   0  0  0  0  0  0  0  0  0  0  0  0
   56.2719   34.9725   45.5624 H   0  0  0  0  0  0  0  0  0  0  0  0
   57.4763   35.2075   44.2506 H   0  0  0  0  0  0  0  0  0  0  0  0
   56.4204   33.7543   44.2506 H   0  0  0  0  0  0  0  0  0  0  0  0
   58.1670   29.0690   45.2260 N   0  0  0  0  0  0  0  0  0  0  0  0
   58.4010   27.7950   45.6580 C   0  0  0  0  0  0  0  0  0  0  0  0
   59.5770   27.3880   45.8480 O   0  0  0  0  0  0  0  0  0  0  0  0
   57.3060   26.9740   45.8810 C   0  0  0  0  0  0  0  0  0  0  0  0
   57.2660   25.7020   46.3030 N   0  0  0  0  0  0  0  0  0  0  0  0
  1  2  1  0
  2  3  2  0
  3  4  1  0
  4  5  1  0
  5  6  1  0
  6  7  1  0
  7  8  2  0
  8  9  1  0
  9 10  1  0
  9 11  1  0
  9 12  1  0
 12 13  2  0
 13 14  1  0
 13 15  1  0
 15 16  1  0
 15 17  2  0
 17 18  1  0
 17 19  1  0
 19 20  1  0
 19 21  2  0
 21 22  1  0
 22 23  1  0
 22 24  1  0
 22 25  1  0
  7 26  1  0
 26 27  1  0
 27 28  2  0
 27 29  1  0
 29 30  1  0
 30  3  1  0
 29  5  2  0
 21 12  1  0
M  CHG  4   4  -1   6  -1  26  -1  30  -1
M  END
>  <UniqueID>  (30) 
29

>  <SMILES>  (30) 
[H]/N=c1\[n-]c2[n-]/c(=N\Cc3ccccc3C)[n-]c(=O)c2[n-]1

>  <Energy>  (30) 
71.09274370004248

>  <Genealogy>  (30) 
Cc1ccccc1CN=c1[n-]c(=O)c2[n-]c(=N)[n-]c2[n-]1 (protonated)
[H]/N=c1\[n-]c2[n-]/c(=N\Cc3ccccc3C)[n-]c(=O)c2[n-]1 (cis-trans isomerization)
[H]/N=c1\[n-]c2[n-]/c(=N\Cc3ccccc3C)[n-]c(=O)c2[n-]1 (3D coordinates assigned)
[H]/N=c1\[n-]c2[n-]/c(=N\Cc3ccccc3C)[n-]c(=O)c2[n-]1 (optimized conformer: 71.09274370004248 kcal/mol)

>  <smiles>  (30) 
Cc1ccccc1CN=c1[nH]c(=O)c2[nH]c(=N)[nH]c2[nH]1

>  <score_type>  (30) 
oracle

>  <origin>  (30) 
adg

>  <m_score__min__energy>  (30) 
-13.94

>  <m_primary>  (30) 
energy

$$$$
30:0
     RDKit          3D

 48 49  0  0  0  0  0  0  0  0999 V2000
   59.6260   34.3250   48.0460 C   0  0  0  0  0  0  0  0  0  0  0  0
   59.8250   33.0760   48.8980 C   0  0  0  0  0  0  0  0  0  0  0  0
   58.5330   32.3670   49.0570 N   0  0  0  0  0  0  0  0  0  0  0  0
   58.1110   32.3160   50.4780 C   0  0  0  0  0  0  0  0  0  0  0  0
   57.6940   30.8910   50.8730 C   0  0  0  0  0  0  0  0  0  0  0  0
   56.6610   30.8910   52.0010 C   0  0  0  0  0  0  0  0  0  0  0  0
   55.6820   29.8330   51.7720 N   0  0  0  0  0  0  0  0  0  0  0  0
   54.3390   29.8610   52.2670 C   0  0  0  0  0  0  0  0  0  0  0  0
   54.1030   29.3720   53.4060 O   0  0  0  0  0  0  0  0  0  0  0  0
   53.2360   30.4900   51.5070 C   0  0  0  0  0  0  0  0  0  0  0  0
   52.8060   29.9410   50.2860 C   0  0  0  0  0  0  0  0  0  0  0  0
   51.7800   30.5520   49.5570 C   0  0  0  0  0  0  0  0  0  0  0  0
   51.1880   31.7260   50.0300 C   0  0  0  0  0  0  0  0  0  0  0  0
   50.1710   32.3310   49.2980 O   0  0  0  0  0  0  0  0  0  0  0  0
   51.6220   32.2930   51.2330 C   0  0  0  0  0  0  0  0  0  0  0  0
   51.0410   33.4650   51.7050 O   0  0  0  0  0  0  0  0  0  0  0  0
   52.6470   31.6810   51.9670 C   0  0  0  0  0  0  0  0  0  0  0  0
   58.5850   31.0070   48.4740 C   0  0  0  0  0  0  0  0  0  0  0  0
   59.3190   31.0280   47.1210 C   0  0  0  0  0  0  0  0  0  0  0  0
   58.3660   30.7520   45.9870 C   0  0  0  0  0  0  0  0  0  0  0  0
   58.3860   31.5540   44.8330 C   0  0  0  0  0  0  0  0  0  0  0  0
   57.4720   31.3270   43.8000 C   0  0  0  0  0  0  0  0  0  0  0  0
   56.5200   30.3100   43.9180 C   0  0  0  0  0  0  0  0  0  0  0  0
   56.4870   29.5100   45.0660 C   0  0  0  0  0  0  0  0  0  0  0  0
   55.5380   28.5020   45.1820 O   0  0  0  0  0  0  0  0  0  0  0  0
   57.4060   29.7300   46.0970 C   0  0  0  0  0  0  0  0  0  0  0  0
   59.4870   35.1975   48.7013 H   0  0  0  0  0  0  0  0  0  0  0  0
   60.5107   34.4805   47.4111 H   0  0  0  0  0  0  0  0  0  0  0  0
   58.7368   34.1979   47.4111 H   0  0  0  0  0  0  0  0  0  0  0  0
   60.5493   32.4099   48.4063 H   0  0  0  0  0  0  0  0  0  0  0  0
   60.2039   33.3680   49.8885 H   0  0  0  0  0  0  0  0  0  0  0  0
   58.9490   32.6360   51.1147 H   0  0  0  0  0  0  0  0  0  0  0  0
   57.2491   32.9858   50.6139 H   0  0  0  0  0  0  0  0  0  0  0  0
   57.2610   30.3907   49.9942 H   0  0  0  0  0  0  0  0  0  0  0  0
   58.5890   30.3606   51.2304 H   0  0  0  0  0  0  0  0  0  0  0  0
   57.1685   30.7178   52.9615 H   0  0  0  0  0  0  0  0  0  0  0  0
   56.1474   31.8635   52.0244 H   0  0  0  0  0  0  0  0  0  0  0  0
   53.2792   29.0254   49.9016 H   0  0  0  0  0  0  0  0  0  0  0  0
   51.4389   30.1076   48.6103 H   0  0  0  0  0  0  0  0  0  0  0  0
   52.9925   32.1346   52.9077 H   0  0  0  0  0  0  0  0  0  0  0  0
   59.1182   30.3372   49.1647 H   0  0  0  0  0  0  0  0  0  0  0  0
   57.5572   30.6483   48.3156 H   0  0  0  0  0  0  0  0  0  0  0  0
   59.7757   32.0179   46.9746 H   0  0  0  0  0  0  0  0  0  0  0  0
   60.0917   30.2452   47.1286 H   0  0  0  0  0  0  0  0  0  0  0  0
   59.1244   32.3642   44.7423 H   0  0  0  0  0  0  0  0  0  0  0  0
   57.5018   31.9492   42.8934 H   0  0  0  0  0  0  0  0  0  0  0  0
   55.7961   30.1384   43.1077 H   0  0  0  0  0  0  0  0  0  0  0  0
   57.3779   29.1005   46.9986 H   0  0  0  0  0  0  0  0  0  0  0  0
  1  2  1  0
  2  3  1  0
  3  4  1  0
  4  5  1  0
  5  6  1  0
  6  7  1  0
  7  8  1  0
  8  9  2  0
  8 10  1  0
 10 11  2  0
 11 12  1  0
 12 13  2  0
 13 14  1  0
 13 15  1  0
 15 16  1  0
 15 17  2  0
  3 18  1  0
 18 19  1  0
 19 20  1  0
 20 21  2  0
 21 22  1  0
 22 23  2  0
 23 24  1  0
 24 25  1  0
 24 26  2  0
 17 10  1  0
 26 20  1  0
  1 27  1  0
  1 28  1  0
  1 29  1  0
  2 30  1  0
  2 31  1  0
  4 32  1  0
  4 33  1  0
  5 34  1  0
  5 35  1  0
  6 36  1  0
  6 37  1  0
 11 38  1  0
 12 39  1  0
 17 40  1  0
 18 41  1  0
 18 42  1  0
 19 43  1  0
 19 44  1  0
 21 45  1  0
 22 46  1  0
 23 47  1  0
 26 48  1  0
M  CHG  4   7  -1  14  -1  16  -1  25  -1
M  END
>  <UniqueID>  (31) 
30

>  <SMILES>  (31) 
CCN(CCC[N-]C(=O)c1ccc([O-])c([O-])c1)CCc1cccc([O-])c1

>  <Energy>  (31) 
49.18279315354709

>  <Genealogy>  (31) 
CCN(CCC[N-]C(=O)c1ccc([O-])c([O-])c1)CCc1cccc([O-])c1 (protonated)
CCN(CCC[N-]C(=O)c1ccc([O-])c([O-])c1)CCc1cccc([O-])c1 (3D coordinates assigned)
CCN(CCC[N-]C(=O)c1ccc([O-])c([O-])c1)CCc1cccc([O-])c1 (optimized conformer: 49.18279315354709 kcal/mol)

>  <smiles>  (31) 
CCN(CCCNC(=O)c1ccc(O)c(O)c1)CCc1cccc(O)c1

>  <score_type>  (31) 
oracle

>  <origin>  (31) 
adg

>  <m_score__min__energy>  (31) 
-20.199999999999999

>  <m_primary>  (31) 
energy

$$$$
31:0
     RDKit          3D

 45 47  0  0  0  0  0  0  0  0999 V2000
   59.6850   31.1580   52.0340 N   0  0  0  0  0  0  0  0  0  0  0  0
   59.5340   29.8310   50.9400 S   0  0  0  0  0  0  0  0  0  0  0  0
   58.0750   29.5930   50.6550 O   0  0  0  0  0  0  0  0  0  0  0  0
   60.1180   28.5940   51.5630 O   0  0  0  0  0  0  0  0  0  0  0  0
   60.4020   30.2080   49.4490 C   0  0  0  0  0  0  0  0  0  0  0  0
   61.5050   31.0750   49.4840 C   0  0  0  0  0  0  0  0  0  0  0  0
   62.2230   31.3540   48.3200 C   0  0  0  0  0  0  0  0  0  0  0  0
   61.8430   30.7770   47.1100 C   0  0  0  0  0  0  0  0  0  0  0  0
   60.7430   29.9200   47.0580 C   0  0  0  0  0  0  0  0  0  0  0  0
   60.0150   29.6210   48.2240 C   0  0  0  0  0  0  0  0  0  0  0  0
   58.8870   28.7330   48.1980 N   0  0  0  0  0  0  0  0  0  0  0  0
   58.3350   27.8600   46.8080 S   0  0  0  0  0  0  0  0  0  0  0  0
   57.4640   26.7210   47.2620 O   0  0  0  0  0  0  0  0  0  0  0  0
   59.5220   27.3000   46.0810 O   0  0  0  0  0  0  0  0  0  0  0  0
   57.4740   28.9630   45.7280 C   0  0  0  0  0  0  0  0  0  0  0  0
   58.1110   30.1480   45.3390 C   0  0  0  0  0  0  0  0  0  0  0  0
   57.4720   31.0500   44.4700 C   0  0  0  0  0  0  0  0  0  0  0  0
   58.1390   32.2260   43.9900 N   0  0  0  0  0  0  0  0  0  0  0  0
   58.1200   33.5180   44.6180 C   0  0  0  0  0  0  0  0  0  0  0  0
   57.0820   34.2240   44.5300 O   0  0  0  0  0  0  0  0  0  0  0  0
   59.2500   34.0320   45.3410 N   0  0  0  0  0  0  0  0  0  0  0  0
   59.4680   33.9180   46.7540 C   0  0  0  0  0  0  0  0  0  0  0  0
   60.5710   34.5670   47.3240 C   0  0  0  0  0  0  0  0  0  0  0  0
   60.8000   34.4930   48.7010 C   0  0  0  0  0  0  0  0  0  0  0  0
   59.9370   33.7550   49.5130 C   0  0  0  0  0  0  0  0  0  0  0  0
   58.8450   33.0820   48.9520 C   0  0  0  0  0  0  0  0  0  0  0  0
   57.9980   32.3430   49.7720 O   0  0  0  0  0  0  0  0  0  0  0  0
   58.6160   33.1560   47.5720 C   0  0  0  0  0  0  0  0  0  0  0  0
   56.1640   30.7960   44.0570 C   0  0  0  0  0  0  0  0  0  0  0  0
   55.5210   29.6140   44.4380 C   0  0  0  0  0  0  0  0  0  0  0  0
   56.1750   28.6860   45.2530 C   0  0  0  0  0  0  0  0  0  0  0  0
   55.5280   27.5000   45.5800 O   0  0  0  0  0  0  0  0  0  0  0  0
   59.1430   31.9480   51.6260 H   0  0  0  0  0  0  0  0  0  0  0  0
   61.8058   31.5379   50.4354 H   0  0  0  0  0  0  0  0  0  0  0  0
   63.0898   32.0302   48.3580 H   0  0  0  0  0  0  0  0  0  0  0  0
   62.4111   30.9974   46.1942 H   0  0  0  0  0  0  0  0  0  0  0  0
   60.4428   29.4748   46.0979 H   0  0  0  0  0  0  0  0  0  0  0  0
   59.1191   30.3749   45.7162 H   0  0  0  0  0  0  0  0  0  0  0  0
   61.2605   35.1378   46.6846 H   0  0  0  0  0  0  0  0  0  0  0  0
   61.6600   35.0161   49.1446 H   0  0  0  0  0  0  0  0  0  0  0  0
   60.1155   33.7021   50.5971 H   0  0  0  0  0  0  0  0  0  0  0  0
   58.3590   31.7460   50.5110 H   0  0  0  0  0  0  0  0  0  0  0  0
   57.7670   32.6162   47.1272 H   0  0  0  0  0  0  0  0  0  0  0  0
   55.6360   31.5286   43.4289 H   0  0  0  0  0  0  0  0  0  0  0  0
   54.4954   29.4137   44.0945 H   0  0  0  0  0  0  0  0  0  0  0  0
  1  2  1  0
  2  3  2  0
  2  4  2  0
  2  5  1  0
  5  6  2  0
  6  7  1  0
  7  8  2  0
  8  9  1  0
  9 10  2  0
 10 11  1  0
 11 12  1  0
 12 13  2  0
 12 14  2  0
 12 15  1  0
 15 16  2  0
 16 17  1  0
 17 18  1  0
 18 19  1  0
 19 20  2  0
 19 21  1  0
 21 22  1  0
 22 23  2  0
 23 24  1  0
 24 25  2  0
 25 26  1  0
 26 27  1  0
 26 28  2  0
 17 29  2  0
 29 30  1  0
 30 31  2  0
 31 32  1  0
 10  5  1  0
 31 15  1  0
 28 22  1  0
  1 33  1  0
  6 34  1  0
  7 35  1  0
  8 36  1  0
  9 37  1  0
 16 38  1  0
 23 39  1  0
 24 40  1  0
 25 41  1  0
 27 42  1  0
 28 43  1  0
 29 44  1  0
 30 45  1  0
M  CHG  5   1  -1  11  -1  18  -1  21  -1  32  -1
M  END
>  <UniqueID>  (32) 
31

>  <SMILES>  (32) 
[NH-]S(=O)(=O)c1ccccc1[N-]S(=O)(=O)c1cc([N-]C(=O)[N-]c2cccc(O)c2)ccc1[O-]

>  <Energy>  (32) 
58.53888012059613

>  <Genealogy>  (32) 
[NH-]S(=O)(=O)c1ccccc1[N-]S(=O)(=O)c1cc([N-]C(=O)[N-]c2cccc(O)c2)ccc1[O-] (protonated)
[NH-]S(=O)(=O)c1ccccc1[N-]S(=O)(=O)c1cc([N-]C(=O)[N-]c2cccc(O)c2)ccc1[O-] (3D coordinates assigned)
[NH-]S(=O)(=O)c1ccccc1[N-]S(=O)(=O)c1cc([N-]C(=O)[N-]c2cccc(O)c2)ccc1[O-] (optimized conformer: 58.53888012059613 kcal/mol)

>  <smiles>  (32) 
NS(=O)(=O)c1ccccc1NS(=O)(=O)c1cc(NC(=O)Nc2cccc(O)c2)ccc1O

>  <score_type>  (32) 
oracle

>  <origin>  (32) 
adg

>  <m_score__min__energy>  (32) 
-16.059999999999999

>  <m_primary>  (32) 
energy

$$$$
32:0
     RDKit          3D

 60 63  0  0  0  0  0  0  0  0999 V2000
   61.8980   34.4980   49.4550 C   0  0  0  0  0  0  0  0  0  0  0  0
   61.1410   33.4910   48.5790 C   0  0  1  0  0  0  0  0  0  0  0  0
   59.6740   33.3650   49.0280 C   0  0  0  0  0  0  0  0  0  0  0  0
   58.9560   32.2460   48.2550 C   0  0  0  0  0  0  0  0  0  0  0  0
   59.3480   32.1830   46.7490 C   0  0  1  0  0  0  0  0  0  0  0  0
   59.9970   33.4930   46.2530 C   0  0  0  0  0  0  0  0  0  0  0  0
   61.2400   33.8790   47.0790 C   0  0  0  0  0  0  0  0  0  0  0  0
   60.2500   31.0540   46.4970 N   0  0  0  0  0  0  0  0  0  0  0  0
   59.6150   30.1690   45.5840 C   0  0  0  0  0  0  0  0  0  0  0  0
   60.1770   29.1440   45.1180 O   0  0  0  0  0  0  0  0  0  0  0  0
   58.3070   30.5810   45.2260 N   0  0  0  0  0  0  0  0  0  0  0  0
   57.5160   30.1210   44.0860 C   0  0  0  0  0  0  0  0  0  0  0  0
   56.1170   29.7710   44.4950 C   0  0  0  0  0  0  0  0  0  0  0  0
   55.1450   30.4660   44.0880 O   0  0  0  0  0  0  0  0  0  0  0  0
   55.8950   28.5800   45.2560 N   0  0  0  0  0  0  0  0  0  0  0  0
   56.8070   27.4830   45.3860 C   0  0  0  0  0  0  0  0  0  0  0  0
   58.0280   27.4500   44.6860 C   0  0  0  0  0  0  0  0  0  0  0  0
   58.8700   26.3390   44.8010 C   0  0  0  0  0  0  0  0  0  0  0  0
   58.4940   25.2500   45.5900 C   0  0  0  0  0  0  0  0  0  0  0  0
   57.2720   25.2660   46.2720 C   0  0  0  0  0  0  0  0  0  0  0  0
   56.8140   23.9210   47.3140 S   0  0  0  0  0  0  0  0  0  0  0  0
   57.1710   24.2270   48.7450 O   0  0  0  0  0  0  0  0  0  0  0  0
   57.5710   22.6920   46.8910 O   0  0  0  0  0  0  0  0  0  0  0  0
   55.1100   23.6090   47.1770 N   0  0  0  0  0  0  0  0  0  0  0  0
   54.6650   23.8670   45.8090 C   0  0  0  0  0  0  0  0  0  0  0  0
   55.4070   22.9540   44.8760 C   0  0  0  0  0  0  0  0  0  0  0  0
   55.6280   21.6120   45.2320 C   0  0  0  0  0  0  0  0  0  0  0  0
   56.3510   20.7690   44.3810 C   0  0  0  0  0  0  0  0  0  0  0  0
   56.8690   21.2620   43.1790 C   0  0  0  0  0  0  0  0  0  0  0  0
   56.6610   22.6010   42.8270 C   0  0  0  0  0  0  0  0  0  0  0  0
   55.9390   23.4470   43.6730 C   0  0  0  0  0  0  0  0  0  0  0  0
   56.4290   26.3820   46.1650 C   0  0  0  0  0  0  0  0  0  0  0  0
   58.1540   31.8310   45.8920 C   0  0  0  0  0  0  0  0  0  0  0  0
   57.1500   32.5770   45.7330 O   0  0  0  0  0  0  0  0  0  0  0  0
   61.7231   34.2654   50.5158 H   0  0  0  0  0  0  0  0  0  0  0  0
   62.9747   34.4356   49.2386 H   0  0  0  0  0  0  0  0  0  0  0  0
   61.5389   35.5150   49.2386 H   0  0  0  0  0  0  0  0  0  0  0  0
   61.6142   32.5057   48.7028 H   0  0  0  0  0  0  0  0  0  0  0  0
   59.6453   33.1352   50.1033 H   0  0  0  0  0  0  0  0  0  0  0  0
   59.1617   34.3168   48.8239 H   0  0  0  0  0  0  0  0  0  0  0  0
   59.2090   31.2825   48.7215 H   0  0  0  0  0  0  0  0  0  0  0  0
   57.8781   32.4605   48.3007 H   0  0  0  0  0  0  0  0  0  0  0  0
   60.2965   33.3638   45.2025 H   0  0  0  0  0  0  0  0  0  0  0  0
   59.2561   34.2985   46.3632 H   0  0  0  0  0  0  0  0  0  0  0  0
   62.1150   33.3716   46.6466 H   0  0  0  0  0  0  0  0  0  0  0  0
   61.3251   34.9749   47.0366 H   0  0  0  0  0  0  0  0  0  0  0  0
   61.2090   30.9300   46.8870 H   0  0  0  0  0  0  0  0  0  0  0  0
   57.4786   30.9200   43.3309 H   0  0  0  0  0  0  0  0  0  0  0  0
   57.9925   29.2181   43.6765 H   0  0  0  0  0  0  0  0  0  0  0  0
   58.3198   28.2978   44.0487 H   0  0  0  0  0  0  0  0  0  0  0  0
   59.8320   26.3231   44.2679 H   0  0  0  0  0  0  0  0  0  0  0  0
   59.1593   24.3782   45.6756 H   0  0  0  0  0  0  0  0  0  0  0  0
   53.5844   23.6768   45.7301 H   0  0  0  0  0  0  0  0  0  0  0  0
   54.8661   24.9153   45.5430 H   0  0  0  0  0  0  0  0  0  0  0  0
   55.2316   21.2238   46.1818 H   0  0  0  0  0  0  0  0  0  0  0  0
   56.5123   19.7167   44.6578 H   0  0  0  0  0  0  0  0  0  0  0  0
   57.4388   20.5989   42.5114 H   0  0  0  0  0  0  0  0  0  0  0  0
   57.0674   22.9885   41.8811 H   0  0  0  0  0  0  0  0  0  0  0  0
   55.7870   24.5008   43.3965 H   0  0  0  0  0  0  0  0  0  0  0  0
   55.4656   26.3926   46.6959 H   0  0  0  0  0  0  0  0  0  0  0  0
  1  2  1  0
  2  3  1  0
  3  4  1  0
  4  5  1  0
  5  6  1  0
  6  7  1  0
  5  8  1  1
  8  9  1  0
  9 10  2  0
  9 11  1  0
 11 12  1  0
 12 13  1  0
 13 14  2  0
 13 15  1  0
 15 16  1  0
 16 17  2  0
 17 18  1  0
 18 19  2  0
 19 20  1  0
 20 21  1  0
 21 22  2  0
 21 23  2  0
 21 24  1  0
 24 25  1  0
 25 26  1  0
 26 27  2  0
 27 28  1  0
 28 29  2  0
 29 30  1  0
 30 31  2  0
 20 32  2  0
 11 33  1  0
 33 34  2  0
  7  2  1  0
 32 16  1  0
 33  5  1  0
 31 26  1  0
  1 35  1  0
  1 36  1  0
  1 37  1  0
  2 38  1  6
  3 39  1  0
  3 40  1  0
  4 41  1  0
  4 42  1  0
  6 43  1  0
  6 44  1  0
  7 45  1  0
  7 46  1  0
  8 47  1  0
 12 48  1  0
 12 49  1  0
 17 50  1  0
 18 51  1  0
 19 52  1  0
 25 53  1  0
 25 54  1  0
 27 55  1  0
 28 56  1  0
 29 57  1  0
 30 58  1  0
 31 59  1  0
 32 60  1  0
M  CHG  2  15  -1  24  -1
M  END
>  <UniqueID>  (33) 
32

>  <SMILES>  (33) 
CC1CCC2(CC1)NC(=O)N(CC(=O)[N-]c1cccc(S(=O)(=O)[N-]Cc3ccccc3)c1)C2=O

>  <Energy>  (33) 
83.77475635790663

>  <Genealogy>  (33) 
CC1CCC2(CC1)NC(=O)N(CC(=O)[N-]c1cccc(S(=O)(=O)[N-]Cc3ccccc3)c1)C2=O (protonated)
CC1CCC2(CC1)NC(=O)N(CC(=O)[N-]c1cccc(S(=O)(=O)[N-]Cc3ccccc3)c1)C2=O (3D coordinates assigned)
CC1CCC2(CC1)NC(=O)N(CC(=O)[N-]c1cccc(S(=O)(=O)[N-]Cc3ccccc3)c1)C2=O (nonaromatic ring conformer: 83.77475635790663 kcal/mol)

>  <smiles>  (33) 
CC1CCC2(CC1)NC(=O)N(CC(=O)Nc1cccc(S(=O)(=O)NCc3ccccc3)c1)C2=O

>  <score_type>  (33) 
oracle

>  <origin>  (33) 
adg

>  <m_score__min__energy>  (33) 
-13.119999999999999

>  <m_primary>  (33) 
energy

$$$$
33:0
     RDKit          3D

 37 39  0  0  0  0  0  0  0  0999 V2000
   57.4900   26.3580   46.7950 O   0  0  0  0  0  0  0  0  0  0  0  0
   56.4850   26.3650   46.0330 C   0  0  0  0  0  0  0  0  0  0  0  0
   55.8920   27.6020   45.6170 N   0  0  0  0  0  0  0  0  0  0  0  0
   56.5740   28.8410   45.3730 C   0  0  0  0  0  0  0  0  0  0  0  0
   56.0560   29.7130   44.4080 C   0  0  0  0  0  0  0  0  0  0  0  0
   56.7000   30.9200   44.1220 C   0  0  0  0  0  0  0  0  0  0  0  0
   57.8880   31.2640   44.7920 C   0  0  0  0  0  0  0  0  0  0  0  0
   58.5900   32.4870   44.5250 N   0  0  0  0  0  0  0  0  0  0  0  0
   58.4740   33.9340   45.4750 S   0  0  0  0  0  0  0  0  0  0  0  0
   58.6740   35.1240   44.5780 O   0  0  0  0  0  0  0  0  0  0  0  0
   57.1070   34.0080   46.0910 O   0  0  0  0  0  0  0  0  0  0  0  0
   59.6790   33.9150   46.7580 C   0  0  0  0  0  0  0  0  0  0  0  0
   59.3140   34.2210   48.0770 C   0  0  0  0  0  0  0  0  0  0  0  0
   60.2760   34.2150   49.0910 C   0  0  0  0  0  0  0  0  0  0  0  0
   61.6060   33.9010   48.7930 C   0  0  0  0  0  0  0  0  0  0  0  0
   61.9750   33.5900   47.4800 C   0  0  0  0  0  0  0  0  0  0  0  0
   63.6430   33.1960   47.1070 Cl  0  0  0  0  0  0  0  0  0  0  0  0
   61.0120   33.5940   46.4650 C   0  0  0  0  0  0  0  0  0  0  0  0
   58.4170   30.3820   45.7410 C   0  0  0  0  0  0  0  0  0  0  0  0
   57.7720   29.1760   46.0270 C   0  0  0  0  0  0  0  0  0  0  0  0
   55.8870   25.0910   45.6140 C   0  0  0  0  0  0  0  0  0  0  0  0
   56.5480   24.0770   44.9440 C   0  0  0  0  0  0  0  0  0  0  0  0
   55.6210   23.0770   44.7480 C   0  0  0  0  0  0  0  0  0  0  0  0
   54.4510   23.5400   45.3100 C   0  0  0  0  0  0  0  0  0  0  0  0
   53.2480   22.8410   45.3360 O   0  0  0  0  0  0  0  0  0  0  0  0
   54.5980   24.7680   45.8430 N   0  0  0  0  0  0  0  0  0  0  0  0
   55.1343   29.4459   43.8703 H   0  0  0  0  0  0  0  0  0  0  0  0
   56.2766   31.6029   43.3708 H   0  0  0  0  0  0  0  0  0  0  0  0
   58.2683   34.4663   48.3141 H   0  0  0  0  0  0  0  0  0  0  0  0
   59.9868   34.4574   50.1243 H   0  0  0  0  0  0  0  0  0  0  0  0
   62.3624   33.8986   49.5917 H   0  0  0  0  0  0  0  0  0  0  0  0
   61.3017   33.3444   45.4336 H   0  0  0  0  0  0  0  0  0  0  0  0
   59.3484   30.6403   46.2662 H   0  0  0  0  0  0  0  0  0  0  0  0
   58.2036   28.4860   46.7670 H   0  0  0  0  0  0  0  0  0  0  0  0
   57.6024   24.0706   44.6306 H   0  0  0  0  0  0  0  0  0  0  0  0
   55.7812   22.1107   44.2474 H   0  0  0  0  0  0  0  0  0  0  0  0
   53.2310   21.8340   45.2340 H   0  0  0  0  0  0  0  0  0  0  0  0
  1  2  2  0
  2  3  1  0
  3  4  1  0
  4  5  2  0
  5  6  1  0
  6  7  2  0
  7  8  1  0
  8  9  1  0
  9 10  2  0
  9 11  2  0
  9 12  1  0
 12 13  2  0
 13 14  1  0
 14 15  2  0
 15 16  1  0
 16 17  1  0
 16 18  2  0
  7 19  1  0
 19 20  2  0
  2 21  1  0
 21 22  2  0
 22 23  1  0
 23 24  2  0
 24 25  1  0
 24 26  1  0
 20  4  1  0
 26 21  1  0
 18 12  1  0
  5 27  1  0
  6 28  1  0
 13 29  1  0
 14 30  1  0
 15 31  1  0
 18 32  1  0
 19 33  1  0
 20 34  1  0
 22 35  1  0
 23 36  1  0
 25 37  1  0
M  CHG  3   3  -1   8  -1  26  -1
M  END
>  <UniqueID>  (34) 
33

>  <SMILES>  (34) 
O=C([N-]c1ccc([N-]S(=O)(=O)c2cccc(Cl)c2)cc1)c1ccc(O)[n-]1

>  <Energy>  (34) 
69.44826893021488

>  <Genealogy>  (34) 
O=C([N-]c1ccc([N-]S(=O)(=O)c2cccc(Cl)c2)cc1)c1ccc(O)[n-]1 (protonated)
O=C([N-]c1ccc([N-]S(=O)(=O)c2cccc(Cl)c2)cc1)c1ccc(O)[n-]1 (3D coordinates assigned)
O=C([N-]c1ccc([N-]S(=O)(=O)c2cccc(Cl)c2)cc1)c1ccc(O)[n-]1 (optimized conformer: 69.44826893021488 kcal/mol)

>  <smiles>  (34) 
O=C(Nc1ccc(NS(=O)(=O)c2cccc(Cl)c2)cc1)c1ccc(O)[nH]1

>  <score_type>  (34) 
oracle

>  <origin>  (34) 
adg

>  <m_score__min__energy>  (34) 
-13.710000000000001

>  <m_primary>  (34) 
energy

$$$$
34:0
     RDKit          3D

 45 47  0  0  0  0  0  0  0  0999 V2000
   54.5520   25.1110   45.6300 C   0  0  0  0  0  0  0  0  0  0  0  0
   55.1140   26.3440   46.0660 O   0  0  0  0  0  0  0  0  0  0  0  0
   56.4910   26.5880   46.1980 C   0  0  0  0  0  0  0  0  0  0  0  0
   57.3310   25.7390   46.9470 C   0  0  0  0  0  0  0  0  0  0  0  0
   58.6950   26.0190   47.0610 C   0  0  0  0  0  0  0  0  0  0  0  0
   59.2330   27.1460   46.4390 C   0  0  0  0  0  0  0  0  0  0  0  0
   58.4110   27.9930   45.6940 C   0  0  0  0  0  0  0  0  0  0  0  0
   57.0410   27.7080   45.5530 C   0  0  0  0  0  0  0  0  0  0  0  0
   56.1790   28.5830   44.8120 N   0  0  0  0  0  0  0  0  0  0  0  0
   56.4500   29.9530   44.4970 C   0  0  0  0  0  0  0  0  0  0  0  0
   55.6010   30.8290   44.8140 O   0  0  0  0  0  0  0  0  0  0  0  0
   57.6260   30.3260   43.7630 N   0  0  0  0  0  0  0  0  0  0  0  0
   57.8700   31.6970   43.3120 C   0  0  0  0  0  0  0  0  0  0  0  0
   58.2810   32.5840   44.4610 C   0  0  0  0  0  0  0  0  0  0  0  0
   58.6510   33.9180   44.2220 C   0  0  0  0  0  0  0  0  0  0  0  0
   58.9970   34.7550   45.2860 C   0  0  0  0  0  0  0  0  0  0  0  0
   58.9880   34.2660   46.5960 C   0  0  0  0  0  0  0  0  0  0  0  0
   58.6310   32.9390   46.8510 C   0  0  0  0  0  0  0  0  0  0  0  0
   58.6500   32.4680   48.1710 O   0  0  0  0  0  0  0  0  0  0  0  0
   59.1790   31.2320   48.5700 C   0  0  0  0  0  0  0  0  0  0  0  0
   58.6700   30.5280   49.6790 C   0  0  0  0  0  0  0  0  0  0  0  0
   59.2160   29.2940   50.0420 C   0  0  0  0  0  0  0  0  0  0  0  0
   60.2660   28.7480   49.3010 C   0  0  0  0  0  0  0  0  0  0  0  0
   60.7640   29.4310   48.1870 C   0  0  0  0  0  0  0  0  0  0  0  0
   60.2170   30.6650   47.8190 C   0  0  0  0  0  0  0  0  0  0  0  0
   58.2350   32.1140   45.7850 C   0  0  0  0  0  0  0  0  0  0  0  0
   54.2755   24.5043   46.5049 H   0  0  0  0  0  0  0  0  0  0  0  0
   53.6559   25.3104   45.0241 H   0  0  0  0  0  0  0  0  0  0  0  0
   55.2904   24.5654   45.0241 H   0  0  0  0  0  0  0  0  0  0  0  0
   56.9106   24.8522   47.4439 H   0  0  0  0  0  0  0  0  0  0  0  0
   59.3461   25.3495   47.6423 H   0  0  0  0  0  0  0  0  0  0  0  0
   60.3062   27.3673   46.5358 H   0  0  0  0  0  0  0  0  0  0  0  0
   58.8365   28.8872   45.2151 H   0  0  0  0  0  0  0  0  0  0  0  0
   58.2830   29.5840   43.4330 H   0  0  0  0  0  0  0  0  0  0  0  0
   58.6722   31.6898   42.5594 H   0  0  0  0  0  0  0  0  0  0  0  0
   56.9384   32.0933   42.8818 H   0  0  0  0  0  0  0  0  0  0  0  0
   58.6684   34.3053   43.1926 H   0  0  0  0  0  0  0  0  0  0  0  0
   59.2771   35.8010   45.0927 H   0  0  0  0  0  0  0  0  0  0  0  0
   59.2632   34.9288   47.4297 H   0  0  0  0  0  0  0  0  0  0  0  0
   57.8389   30.9517   50.2619 H   0  0  0  0  0  0  0  0  0  0  0  0
   58.8181   28.7520   50.9126 H   0  0  0  0  0  0  0  0  0  0  0  0
   60.7012   27.7810   49.5934 H   0  0  0  0  0  0  0  0  0  0  0  0
   61.5867   28.9976   47.5994 H   0  0  0  0  0  0  0  0  0  0  0  0
   60.6041   31.1930   46.9351 H   0  0  0  0  0  0  0  0  0  0  0  0
   57.8858   31.0909   45.9883 H   0  0  0  0  0  0  0  0  0  0  0  0
  1  2  1  0
  2  3  1  0
  3  4  2  0
  4  5  1  0
  5  6  2  0
  6  7  1  0
  7  8  2  0
  8  9  1  0
  9 10  1  0
 10 11  2  0
 10 12  1  0
 12 13  1  0
 13 14  1  0
 14 15  2  0
 15 16  1  0
 16 17  2  0
 17 18  1  0
 18 19  1  0
 19 20  1  0
 20 21  2  0
 21 22  1  0
 22 23  2  0
 23 24  1  0
 24 25  2  0
 18 26  2  0
  8  3  1  0
 26 14  1  0
 25 20  1  0
  1 27  1  0
  1 28  1  0
  1 29  1  0
  4 30  1  0
  5 31  1  0
  6 32  1  0
  7 33  1  0
 12 34  1  0
 13 35  1  0
 13 36  1  0
 15 37  1  0
 16 38  1  0
 17 39  1  0
 21 40  1  0
 22 41  1  0
 23 42  1  0
 24 43  1  0
 25 44  1  0
 26 45  1  0
M  CHG  1   9  -1
M  END
>  <UniqueID>  (35) 
34

>  <SMILES>  (35) 
COc1ccccc1[N-]C(=O)NCc1cccc(Oc2ccccc2)c1

>  <Energy>  (35) 
54.0824942019387

>  <Genealogy>  (35) 
COc1ccccc1[N-]C(=O)NCc1cccc(Oc2ccccc2)c1 (protonated)
COc1ccccc1[N-]C(=O)NCc1cccc(Oc2ccccc2)c1 (3D coordinates assigned)
COc1ccccc1[N-]C(=O)NCc1cccc(Oc2ccccc2)c1 (optimized conformer: 54.0824942019387 kcal/mol)

>  <smiles>  (35) 
COc1ccccc1NC(=O)NCc1cccc(Oc2ccccc2)c1

>  <score_type>  (35) 
oracle

>  <origin>  (35) 
adg

>  <m_score__min__energy>  (35) 
-10.76

>  <m_primary>  (35) 
energy

$$$$
35:0
     RDKit          3D

 56 61  0  0  0  0  0  0  0  0999 V2000
   58.4010   27.7000   48.2400 O   0  0  0  0  0  0  0  0  0  0  0  0
   59.2340   28.6460   48.2500 C   0  0  0  0  0  0  0  0  0  0  0  0
   60.1100   28.9290   47.1590 N   0  0  0  0  0  0  0  0  0  0  0  0
   59.9850   28.4030   45.8020 C   0  0  0  0  0  0  0  0  0  0  0  0
   58.8440   29.0680   45.0770 C   0  0  0  0  0  0  0  0  0  0  0  0
   58.1320   28.3730   44.0880 C   0  0  0  0  0  0  0  0  0  0  0  0
   57.0700   28.9870   43.4180 C   0  0  0  0  0  0  0  0  0  0  0  0
   56.7060   30.2980   43.7380 C   0  0  0  0  0  0  0  0  0  0  0  0
   57.3900   30.9970   44.7350 C   0  0  0  0  0  0  0  0  0  0  0  0
   56.9990   32.3110   45.0290 O   0  0  0  0  0  0  0  0  0  0  0  0
   57.8340   33.2940   45.5810 C   0  0  0  0  0  0  0  0  0  0  0  0
   58.0640   33.2940   46.9630 C   0  0  0  0  0  0  0  0  0  0  0  0
   58.8950   34.2590   47.5400 C   0  0  0  0  0  0  0  0  0  0  0  0
   59.5170   35.2160   46.7340 C   0  0  0  0  0  0  0  0  0  0  0  0
   59.3130   35.2100   45.3530 C   0  0  0  0  0  0  0  0  0  0  0  0
   58.4790   34.2500   44.7730 C   0  0  0  0  0  0  0  0  0  0  0  0
   58.4770   30.3850   45.3870 C   0  0  0  0  0  0  0  0  0  0  0  0
   60.8050   30.1110   47.5480 C   0  0  0  0  0  0  0  0  0  0  0  0
   61.7340   30.8250   46.7860 C   0  0  0  0  0  0  0  0  0  0  0  0
   62.2650   32.0120   47.3200 C   0  0  0  0  0  0  0  0  0  0  0  0
   61.8630   32.4640   48.5930 C   0  0  0  0  0  0  0  0  0  0  0  0
   60.9320   31.7290   49.3450 C   0  0  0  0  0  0  0  0  0  0  0  0
   60.4200   30.5470   48.8020 C   0  0  0  0  0  0  0  0  0  0  0  0
   59.3920   29.6220   49.3810 C   0  0  2  0  0  0  0  0  0  0  0  0
   59.7920   28.9730   50.7190 C   0  0  0  0  0  0  0  0  0  0  0  0
   58.6250   29.3480   51.5830 C   0  0  0  0  0  0  0  0  0  0  0  0
   58.4470   28.9400   52.9990 C   0  0  0  0  0  0  0  0  0  0  0  0
   57.5490   29.6280   53.8360 C   0  0  0  0  0  0  0  0  0  0  0  0
   57.3900   29.2440   55.1730 C   0  0  0  0  0  0  0  0  0  0  0  0
   58.1250   28.1720   55.6880 C   0  0  0  0  0  0  0  0  0  0  0  0
   59.0170   27.4810   54.8650 C   0  0  0  0  0  0  0  0  0  0  0  0
   59.1770   27.8590   53.5270 C   0  0  0  0  0  0  0  0  0  0  0  0
   57.7630   30.0780   50.9580 N   0  0  0  0  0  0  0  0  0  0  0  0
   58.1740   30.2870   49.6680 O   0  0  0  0  0  0  0  0  0  0  0  0
   60.9200   28.5914   45.2540 H   0  0  0  0  0  0  0  0  0  0  0  0
   59.7870   27.3224   45.8580 H   0  0  0  0  0  0  0  0  0  0  0  0
   58.4111   27.3387   43.8383 H   0  0  0  0  0  0  0  0  0  0  0  0
   56.5206   28.4384   42.6388 H   0  0  0  0  0  0  0  0  0  0  0  0
   55.8764   30.7818   43.2017 H   0  0  0  0  0  0  0  0  0  0  0  0
   57.5885   32.5312   47.5971 H   0  0  0  0  0  0  0  0  0  0  0  0
   59.0590   34.2648   48.6277 H   0  0  0  0  0  0  0  0  0  0  0  0
   60.1691   35.9761   47.1889 H   0  0  0  0  0  0  0  0  0  0  0  0
   59.8089   35.9613   44.7209 H   0  0  0  0  0  0  0  0  0  0  0  0
   58.3263   34.2413   43.6837 H   0  0  0  0  0  0  0  0  0  0  0  0
   59.0432   30.9447   46.1460 H   0  0  0  0  0  0  0  0  0  0  0  0
   62.0421   30.4668   45.7926 H   0  0  0  0  0  0  0  0  0  0  0  0
   62.9988   32.5917   46.7407 H   0  0  0  0  0  0  0  0  0  0  0  0
   62.2805   33.3970   48.9995 H   0  0  0  0  0  0  0  0  0  0  0  0
   60.6129   32.0757   50.3390 H   0  0  0  0  0  0  0  0  0  0  0  0
   59.8897   27.8814   50.6246 H   0  0  0  0  0  0  0  0  0  0  0  0
   60.7668   29.3025   51.1078 H   0  0  0  0  0  0  0  0  0  0  0  0
   56.9683   30.4729   53.4373 H   0  0  0  0  0  0  0  0  0  0  0  0
   56.6851   29.7870   55.8197 H   0  0  0  0  0  0  0  0  0  0  0  0
   58.0010   27.8734   56.7394 H   0  0  0  0  0  0  0  0  0  0  0  0
   59.5954   26.6373   55.2695 H   0  0  0  0  0  0  0  0  0  0  0  0
   59.8782   27.3073   52.8837 H   0  0  0  0  0  0  0  0  0  0  0  0
  1  2  2  0
  2  3  1  0
  3  4  1  0
  4  5  1  0
  5  6  2  0
  6  7  1  0
  7  8  2  0
  8  9  1  0
  9 10  1  0
 10 11  1  0
 11 12  2  0
 12 13  1  0
 13 14  2  0
 14 15  1  0
 15 16  2  0
  9 17  2  0
  3 18  1  0
 18 19  2  0
 19 20  1  0
 20 21  2  0
 21 22  1  0
 22 23  2  0
 23 24  1  0
 24 25  1  0
 25 26  1  0
 26 27  1  0
 27 28  2  0
 28 29  1  0
 29 30  2  0
 30 31  1  0
 31 32  2  0
 26 33  2  0
 33 34  1  0
 24  2  1  0
 32 27  1  0
 17  5  1  0
 23 18  1  0
 24 34  1  1
 16 11  1  0
  4 35  1  0
  4 36  1  0
  6 37  1  0
  7 38  1  0
  8 39  1  0
 12 40  1  0
 13 41  1  0
 14 42  1  0
 15 43  1  0
 16 44  1  0
 17 45  1  0
 19 46  1  0
 20 47  1  0
 21 48  1  0
 22 49  1  0
 25 50  1  0
 25 51  1  0
 28 52  1  0
 29 53  1  0
 30 54  1  0
 31 55  1  0
 32 56  1  0
M  END
>  <UniqueID>  (36) 
35

>  <SMILES>  (36) 
O=C1N(Cc2cccc(Oc3ccccc3)c2)c2ccccc2[C@]12CC(c1ccccc1)=NO2

>  <Energy>  (36) 
104.26642902683653

>  <Genealogy>  (36) 
O=C1N(Cc2cccc(Oc3ccccc3)c2)c2ccccc2[C@]12CC(c1ccccc1)=NO2 (chirality)
O=C1N(Cc2cccc(Oc3ccccc3)c2)c2ccccc2[C@]12CC(c1ccccc1)=NO2 (3D coordinates assigned)
O=C1N(Cc2cccc(Oc3ccccc3)c2)c2ccccc2[C@]12CC(c1ccccc1)=NO2 (nonaromatic ring conformer: 104.26642902683653 kcal/mol)

>  <smiles>  (36) 
O=C1N(Cc2cccc(Oc3ccccc3)c2)c2ccccc2C12CC(c1ccccc1)=NO2

>  <score_type>  (36) 
oracle

>  <origin>  (36) 
adg

>  <m_score__min__energy>  (36) 
-10.199999999999999

>  <m_primary>  (36) 
energy

$$$$
36:0
     RDKit          3D

 41 43  0  0  0  0  0  0  0  0999 V2000
   56.2380   30.0280   43.1570 O   0  0  0  0  0  0  0  0  0  0  0  0
   56.6000   30.0100   44.3660 C   0  0  0  0  0  0  0  0  0  0  0  0
   56.1700   28.9540   45.2440 N   0  0  0  0  0  0  0  0  0  0  0  0
   56.8510   27.9020   45.6010 C   0  0  0  0  0  0  0  0  0  0  0  0
   58.2140   27.9030   45.5870 N   0  0  0  0  0  0  0  0  0  0  0  0
   58.9400   26.8120   45.9510 C   0  0  0  0  0  0  0  0  0  0  0  0
   58.2910   25.6440   46.3530 C   0  0  0  0  0  0  0  0  0  0  0  0
   56.8970   25.6130   46.3760 C   0  0  0  0  0  0  0  0  0  0  0  0
   56.1670   26.7430   45.9990 C   0  0  0  0  0  0  0  0  0  0  0  0
   54.7770   26.7090   46.0200 O   0  0  0  0  0  0  0  0  0  0  0  0
   57.4600   31.0960   44.8900 C   0  0  0  0  0  0  0  0  0  0  0  0
   57.0090   32.4280   44.8890 C   0  0  0  0  0  0  0  0  0  0  0  0
   57.7880   33.4410   45.4550 C   0  0  0  0  0  0  0  0  0  0  0  0
   59.0280   33.1400   46.0300 C   0  0  0  0  0  0  0  0  0  0  0  0
   59.9220   34.4010   46.8720 S   0  0  0  0  0  0  0  0  0  0  0  0
   59.5370   35.7330   46.2930 O   0  0  0  0  0  0  0  0  0  0  0  0
   61.4030   34.2090   46.6900 O   0  0  0  0  0  0  0  0  0  0  0  0
   59.5300   34.3860   48.5690 N   0  0  0  0  0  0  0  0  0  0  0  0
   59.8550   33.0960   49.1860 C   0  0  0  0  0  0  0  0  0  0  0  0
   61.3370   32.9660   49.4250 C   0  0  0  0  0  0  0  0  0  0  0  0
   62.1050   32.0950   48.6370 C   0  0  0  0  0  0  0  0  0  0  0  0
   63.4890   32.0200   48.8150 C   0  0  0  0  0  0  0  0  0  0  0  0
   64.1200   32.8050   49.7860 C   0  0  0  0  0  0  0  0  0  0  0  0
   65.8690   32.7150   49.9500 Cl  0  0  0  0  0  0  0  0  0  0  0  0
   63.3550   33.6570   50.5990 C   0  0  0  0  0  0  0  0  0  0  0  0
   64.1110   34.6700   51.8220 Cl  0  0  0  0  0  0  0  0  0  0  0  0
   61.9680   33.7270   50.4230 C   0  0  0  0  0  0  0  0  0  0  0  0
   59.5040   31.8230   45.9950 C   0  0  0  0  0  0  0  0  0  0  0  0
   58.7260   30.8070   45.4320 C   0  0  0  0  0  0  0  0  0  0  0  0
   60.0391   26.8504   45.9285 H   0  0  0  0  0  0  0  0  0  0  0  0
   58.8722   24.7580   46.6483 H   0  0  0  0  0  0  0  0  0  0  0  0
   56.3722   24.6990   46.6909 H   0  0  0  0  0  0  0  0  0  0  0  0
   56.0358   32.6745   44.4394 H   0  0  0  0  0  0  0  0  0  0  0  0
   57.4250   34.4793   45.4485 H   0  0  0  0  0  0  0  0  0  0  0  0
   59.3277   33.0151   50.1480 H   0  0  0  0  0  0  0  0  0  0  0  0
   59.5399   32.2933   48.5031 H   0  0  0  0  0  0  0  0  0  0  0  0
   61.6157   31.4689   47.8763 H   0  0  0  0  0  0  0  0  0  0  0  0
   64.0853   31.3403   48.1885 H   0  0  0  0  0  0  0  0  0  0  0  0
   61.3678   34.3827   51.0709 H   0  0  0  0  0  0  0  0  0  0  0  0
   60.4941   31.5872   46.4123 H   0  0  0  0  0  0  0  0  0  0  0  0
   59.1060   29.7749   45.4126 H   0  0  0  0  0  0  0  0  0  0  0  0
  1  2  2  0
  2  3  1  0
  3  4  2  3
  4  5  1  0
  5  6  1  0
  6  7  2  0
  7  8  1  0
  8  9  2  0
  9 10  1  0
  2 11  1  0
 11 12  2  0
 12 13  1  0
 13 14  2  0
 14 15  1  0
 15 16  2  0
 15 17  2  0
 15 18  1  0
 18 19  1  0
 19 20  1  0
 20 21  2  0
 21 22  1  0
 22 23  2  0
 23 24  1  0
 23 25  1  0
 25 26  1  0
 25 27  2  0
 14 28  1  0
 28 29  2  0
  9  4  1  0
 29 11  1  0
 27 20  1  0
  6 30  1  0
  7 31  1  0
  8 32  1  0
 12 33  1  0
 13 34  1  0
 19 35  1  0
 19 36  1  0
 21 37  1  0
 22 38  1  0
 27 39  1  0
 28 40  1  0
 29 41  1  0
M  CHG  3   5  -1  10  -1  18  -1
M  END
>  <UniqueID>  (37) 
36

>  <SMILES>  (37) 
O=C(N=c1[n-]cccc1[O-])c1ccc(S(=O)(=O)[N-]Cc2ccc(Cl)c(Cl)c2)cc1

>  <Energy>  (37) 
43.31821101883108

>  <Genealogy>  (37) 
O=C(N=c1[n-]cccc1[O-])c1ccc(S(=O)(=O)[N-]Cc2ccc(Cl)c(Cl)c2)cc1 (protonated)
O=C(N=c1[n-]cccc1[O-])c1ccc(S(=O)(=O)[N-]Cc2ccc(Cl)c(Cl)c2)cc1 (3D coordinates assigned)
O=C(N=c1[n-]cccc1[O-])c1ccc(S(=O)(=O)[N-]Cc2ccc(Cl)c(Cl)c2)cc1 (optimized conformer: 43.31821101883108 kcal/mol)

>  <smiles>  (37) 
O=C(N=c1[nH]cccc1O)c1ccc(S(=O)(=O)NCc2ccc(Cl)c(Cl)c2)cc1

>  <score_type>  (37) 
oracle

>  <origin>  (37) 
adg

>  <m_score__min__energy>  (37) 
-15.73

>  <m_primary>  (37) 
energy

$$$$
37:0
     RDKit          3D

 61 64  0  0  1  0  0  0  0  0999 V2000
   55.6600   29.7270   43.0000 N   0  0  0  0  0  0  0  0  0  0  0  0
   56.6200   29.8600   43.8220 C   0  0  0  0  0  0  0  0  0  0  0  0
   57.0220   28.8020   44.5980 N   0  0  0  0  0  0  0  0  0  0  0  0
   58.0310   29.2020   45.3840 C   0  0  0  0  0  0  0  0  0  0  0  0
   58.7720   28.4150   46.3750 C   0  0  0  0  0  0  0  0  0  0  0  0
   59.1500   27.1060   46.0780 C   0  0  0  0  0  0  0  0  0  0  0  0
   59.8460   26.4070   47.0410 C   0  0  0  0  0  0  0  0  0  0  0  0
   60.1540   26.9910   48.2520 C   0  0  0  0  0  0  0  0  0  0  0  0
   59.7750   28.3020   48.5470 C   0  0  0  0  0  0  0  0  0  0  0  0
   60.1420   28.8740   49.8860 C   0  0  0  0  0  0  0  0  0  0  0  0
   59.6830   30.2260   49.9430 N   0  0  0  0  0  0  0  0  0  0  0  0
   58.8530   30.7330   50.7620 C   0  0  0  0  0  0  0  0  0  0  0  0
   58.0830   29.9130   51.5240 C   0  0  0  0  0  0  0  0  0  0  0  0
   57.1930   30.4660   52.4020 C   0  0  0  0  0  0  0  0  0  0  0  0
   57.0940   31.8510   52.4980 C   0  0  0  0  0  0  0  0  0  0  0  0
   57.9120   32.6390   51.6890 C   0  0  0  0  0  0  0  0  0  0  0  0
   58.7830   32.0820   50.8290 N   0  0  0  0  0  0  0  0  0  0  0  0
   59.0880   28.9910   47.5970 C   0  0  0  0  0  0  0  0  0  0  0  0
   58.2360   30.4900   45.0850 N   0  0  0  0  0  0  0  0  0  0  0  0
   57.3780   30.9040   44.1290 N   0  0  0  0  0  0  0  0  0  0  0  0
   57.4480   32.2630   43.6420 C   0  0  0  0  0  0  0  0  0  0  0  0
   57.4220   33.2650   44.7630 C   0  0  0  0  0  0  0  0  0  0  0  0
   58.4470   34.3310   44.5610 C   0  0  0  0  0  0  0  0  0  0  0  0
   59.5120   34.2640   45.6040 C   0  0  0  0  0  0  0  0  0  0  0  0
   59.0460   34.8980   46.8460 N   0  0  0  0  0  0  0  0  0  0  0  0
   59.4400   33.8190   48.1340 S   0  0  0  0  0  0  0  0  0  0  0  0
   58.3780   32.7780   48.3180 O   0  0  0  0  0  0  0  0  0  0  0  0
   59.4900   34.6280   49.4050 O   0  0  0  0  0  0  0  0  0  0  0  0
   60.9880   33.0920   47.8120 C   0  0  0  0  0  0  0  0  0  0  0  0
   60.9970   31.7600   47.4310 C   0  0  0  0  0  0  0  0  0  0  0  0
   62.2100   31.1600   47.1700 C   0  0  0  0  0  0  0  0  0  0  0  0
   63.4140   31.8200   47.2700 C   0  0  0  0  0  0  0  0  0  0  0  0
   63.3960   33.1510   47.6510 C   0  0  0  0  0  0  0  0  0  0  0  0
   62.1820   33.7690   47.9170 C   0  0  0  0  0  0  0  0  0  0  0  0
   55.4740   29.0920   42.2490 H   0  0  0  0  0  0  0  0  0  0  0  0
   56.6300   27.8330   44.6020 H   0  0  0  0  0  0  0  0  0  0  0  0
   58.9016   26.6474   45.1095 H   0  0  0  0  0  0  0  0  0  0  0  0
   60.1593   25.3716   46.8413 H   0  0  0  0  0  0  0  0  0  0  0  0
   60.7109   26.4107   49.0024 H   0  0  0  0  0  0  0  0  0  0  0  0
   59.6647   28.2862   50.6840 H   0  0  0  0  0  0  0  0  0  0  0  0
   61.2328   28.8403   50.0240 H   0  0  0  0  0  0  0  0  0  0  0  0
   58.1744   28.8204   51.4357 H   0  0  0  0  0  0  0  0  0  0  0  0
   56.5594   29.8208   53.0283 H   0  0  0  0  0  0  0  0  0  0  0  0
   56.3842   32.3151   53.1986 H   0  0  0  0  0  0  0  0  0  0  0  0
   57.8436   33.7349   51.7554 H   0  0  0  0  0  0  0  0  0  0  0  0
   59.3950   32.6600   50.2240 H   0  0  0  0  0  0  0  0  0  0  0  0
   58.7765   30.0260   47.8015 H   0  0  0  0  0  0  0  0  0  0  0  0
   58.3818   32.3892   43.0744 H   0  0  0  0  0  0  0  0  0  0  0  0
   56.5685   32.4418   43.0059 H   0  0  0  0  0  0  0  0  0  0  0  0
   56.4257   33.7293   44.8057 H   0  0  0  0  0  0  0  0  0  0  0  0
   57.6472   32.7403   45.7032 H   0  0  0  0  0  0  0  0  0  0  0  0
   58.9072   34.2024   43.5702 H   0  0  0  0  0  0  0  0  0  0  0  0
   57.9496   35.3093   44.6351 H   0  0  0  0  0  0  0  0  0  0  0  0
   59.7592   33.2109   45.8040 H   0  0  0  0  0  0  0  0  0  0  0  0
   60.4037   34.7964   45.2416 H   0  0  0  0  0  0  0  0  0  0  0  0
   57.9950   34.9050   46.7670 H   0  0  0  0  0  0  0  0  0  0  0  0
   60.0580   31.1945   47.3390 H   0  0  0  0  0  0  0  0  0  0  0  0
   62.2164   30.1025   46.8671 H   0  0  0  0  0  0  0  0  0  0  0  0
   64.3618   31.3054   47.0537 H   0  0  0  0  0  0  0  0  0  0  0  0
   64.3364   33.7142   47.7422 H   0  0  0  0  0  0  0  0  0  0  0  0
   62.1738   34.8266   48.2194 H   0  0  0  0  0  0  0  0  0  0  0  0
  1  2  2  3
  2  3  1  0
  3  4  1  0
  4  5  1  0
  5  6  2  0
  6  7  1  0
  7  8  2  0
  8  9  1  0
  9 10  1  0
 10 11  1  0
 11 12  2  0
 12 13  1  0
 13 14  2  0
 14 15  1  0
 15 16  2  0
 16 17  1  0
  9 18  2  0
  4 19  2  0
 19 20  1  0
 20 21  1  0
 21 22  1  0
 22 23  1  0
 23 24  1  0
 24 25  1  0
 25 26  1  0
 26 27  2  0
 26 28  2  0
 26 29  1  0
 29 30  2  0
 30 31  1  0
 31 32  2  0
 32 33  1  0
 33 34  2  0
 20  2  1  0
 34 29  1  0
 18  5  1  0
 17 12  1  0
  1 35  1  0
  3 36  1  0
  6 37  1  0
  7 38  1  0
  8 39  1  0
 10 40  1  0
 10 41  1  0
 13 42  1  0
 14 43  1  0
 15 44  1  0
 16 45  1  0
 17 46  1  0
 18 47  1  0
 21 48  1  0
 21 49  1  0
 22 50  1  0
 22 51  1  0
 23 52  1  0
 23 53  1  0
 24 54  1  0
 24 55  1  0
 25 56  1  0
 30 57  1  0
 31 58  1  0
 32 59  1  0
 33 60  1  0
 34 61  1  0
M  END
>  <smiles>  (38) 
N=c1[nH]c(-c2cccc(CN=c3cccc[nH]3)c2)nn1CCCCNS(=O)(=O)c1ccccc1

>  <score_type>  (38) 
oracle

>  <origin>  (38) 
adg

>  <m_score__min__energy>  (38) 
-9.9499999999999993

>  <m_primary>  (38) 
energy

$$$$
38:0
     RDKit          3D

 24 25  0  0  0  0  0  0  0  0999 V2000
   56.3540   28.9480   45.6140 O   0  0  0  0  0  0  0  0  0  0  0  0
   57.2640   28.5680   44.8290 C   0  0  0  0  0  0  0  0  0  0  0  0
   58.0930   29.5410   44.1690 N   0  0  0  0  0  0  0  0  0  0  0  0
   58.1710   30.9240   44.5560 C   0  0  0  0  0  0  0  0  0  0  0  0
   57.7320   31.9520   43.7010 C   0  0  0  0  0  0  0  0  0  0  0  0
   57.7970   33.2880   44.1120 C   0  0  0  0  0  0  0  0  0  0  0  0
   58.2850   33.6080   45.3820 C   0  0  0  0  0  0  0  0  0  0  0  0
   58.3450   34.9020   45.7790 F   0  0  0  0  0  0  0  0  0  0  0  0
   58.7010   32.5920   46.2460 C   0  0  0  0  0  0  0  0  0  0  0  0
   58.6380   31.2550   45.8380 C   0  0  0  0  0  0  0  0  0  0  0  0
   57.4660   27.1250   44.5650 C   0  0  0  0  0  0  0  0  0  0  0  0
   57.9230   26.7780   43.4420 O   0  0  0  0  0  0  0  0  0  0  0  0
   57.1620   26.0730   45.5650 C   0  0  0  0  0  0  0  0  0  0  0  0
   58.2210   24.8860   46.1360 S   0  0  0  0  0  0  0  0  0  0  0  0
   57.0830   24.2300   47.1790 C   0  0  0  0  0  0  0  0  0  0  0  0
   57.2920   23.2450   47.9330 O   0  0  0  0  0  0  0  0  0  0  0  0
   55.9020   24.8780   47.1270 N   0  0  0  0  0  0  0  0  0  0  0  0
   55.9440   25.9020   46.2330 C   0  0  0  0  0  0  0  0  0  0  0  0
   54.8360   26.7120   46.0150 O   0  0  0  0  0  0  0  0  0  0  0  0
   58.5990   29.2500   43.3020 H   0  0  0  0  0  0  0  0  0  0  0  0
   57.3360   31.7042   42.7051 H   0  0  0  0  0  0  0  0  0  0  0  0
   57.4635   34.0878   43.4344 H   0  0  0  0  0  0  0  0  0  0  0  0
   59.0785   32.8434   47.2482 H   0  0  0  0  0  0  0  0  0  0  0  0
   58.9564   30.4581   46.5262 H   0  0  0  0  0  0  0  0  0  0  0  0
  1  2  2  0
  2  3  1  0
  3  4  1  0
  4  5  2  0
  5  6  1  0
  6  7  2  0
  7  8  1  0
  7  9  1  0
  9 10  2  0
  2 11  1  0
 11 12  2  0
 11 13  1  0
 13 14  1  0
 14 15  1  0
 15 16  2  0
 15 17  1  0
 17 18  1  0
 18 19  1  0
 10  4  1  0
 18 13  2  0
  3 20  1  0
  5 21  1  0
  6 22  1  0
  9 23  1  0
 10 24  1  0
M  CHG  2  17  -1  19  -1
M  END
>  <UniqueID>  (39) 
37

>  <SMILES>  (39) 
O=C(Nc1ccc(F)cc1)C(=O)c1sc(=O)[n-]c1[O-]

>  <Energy>  (39) 
61.129317578062

>  <Genealogy>  (39) 
O=C(Nc1ccc(F)cc1)C(=O)c1sc(=O)[n-]c1[O-] (protonated)
O=C(Nc1ccc(F)cc1)C(=O)c1sc(=O)[n-]c1[O-] (3D coordinates assigned)
O=C(Nc1ccc(F)cc1)C(=O)c1sc(=O)[n-]c1[O-] (optimized conformer: 61.129317578062 kcal/mol)

>  <smiles>  (39) 
O=C(Nc1ccc(F)cc1)C(=O)c1sc(=O)[nH]c1O

>  <score_type>  (39) 
oracle

>  <origin>  (39) 
adg

>  <m_score__min__energy>  (39) 
-13.15

>  <m_primary>  (39) 
energy

$$$$
39:0
     RDKit          3D

 66 69  0  0  0  0  0  0  0  0999 V2000
   57.8537   32.4733   45.3936 H   0  0  0  0  0  0  0  0  0  0  0  0
   57.4550   31.6650   44.7630 C   0  0  0  0  0  0  0  0  0  0  0  0
   57.0210   30.5100   45.3330 N   0  0  0  0  0  0  0  0  0  0  0  0
   56.5150   29.4810   44.5980 C   0  0  0  0  0  0  0  0  0  0  0  0
   56.1230   28.4060   45.2260 N   0  0  0  0  0  0  0  0  0  0  0  0
   56.8220   27.1230   45.3270 C   0  0  0  0  0  0  0  0  0  0  0  0
   57.8885   27.2746   45.1043 H   0  0  0  0  0  0  0  0  0  0  0  0
   56.3772   26.4208   44.6066 H   0  0  0  0  0  0  0  0  0  0  0  0
   56.6810   26.5380   46.7350 C   0  0  0  0  0  0  0  0  0  0  0  0
   56.1961   25.5527   46.6711 H   0  0  0  0  0  0  0  0  0  0  0  0
   56.0716   27.2206   47.3454 H   0  0  0  0  0  0  0  0  0  0  0  0
   57.9920   26.3890   47.3580 N   0  0  0  0  0  0  0  0  0  0  0  0
   58.8970   27.4800   47.5500 C   0  0  0  0  0  0  0  0  0  0  0  0
   59.9740   27.3030   48.1830 O   0  0  0  0  0  0  0  0  0  0  0  0
   58.5460   28.7820   47.0550 N   0  0  0  0  0  0  0  0  0  0  0  0
   57.5580   28.9290   46.7490 H   0  0  0  0  0  0  0  0  0  0  0  0
   59.4210   29.9210   47.1040 C   0  0  0  0  0  0  0  0  0  0  0  0
   58.9570   31.1850   47.5130 C   0  0  0  0  0  0  0  0  0  0  0  0
   57.9037   31.3128   47.8031 H   0  0  0  0  0  0  0  0  0  0  0  0
   59.8250   32.2780   47.5530 C   0  0  0  0  0  0  0  0  0  0  0  0
   59.4474   33.2661   47.8548 H   0  0  0  0  0  0  0  0  0  0  0  0
   61.1770   32.1220   47.2100 C   0  0  0  0  0  0  0  0  0  0  0  0
   62.0980   33.3130   47.2040 C   0  0  0  0  0  0  0  0  0  0  0  0
   61.5399   34.2039   47.5278 H   0  0  0  0  0  0  0  0  0  0  0  0
   62.4855   33.4582   46.1848 H   0  0  0  0  0  0  0  0  0  0  0  0
   63.2850   33.0820   48.1610 C   0  0  0  0  0  0  0  0  0  0  0  0
   64.1075   33.7495   47.8644 H   0  0  0  0  0  0  0  0  0  0  0  0
   63.5638   32.0207   48.0838 H   0  0  0  0  0  0  0  0  0  0  0  0
   62.9540   33.3460   49.5790 N   0  0  0  0  0  0  0  0  0  0  0  0
   63.0280   32.1430   50.4440 C   0  0  0  0  0  0  0  0  0  0  0  0
   63.4153   32.4367   51.4308 H   0  0  0  0  0  0  0  0  0  0  0  0
   63.6941   31.4133   49.9605 H   0  0  0  0  0  0  0  0  0  0  0  0
   61.6780   31.5010   50.6210 C   0  0  0  0  0  0  0  0  0  0  0  0
   61.5130   30.1110   50.6110 C   0  0  0  0  0  0  0  0  0  0  0  0
   62.3849   29.4567   50.4637 H   0  0  0  0  0  0  0  0  0  0  0  0
   60.2340   29.5470   50.7890 C   0  0  0  0  0  0  0  0  0  0  0  0
   60.0240   28.1590   50.7690 O   0  0  0  0  0  0  0  0  0  0  0  0
   61.0320   27.1870   51.0230 C   0  0  0  0  0  0  0  0  0  0  0  0
   61.1585   27.0651   52.1089 H   0  0  0  0  0  0  0  0  0  0  0  0
   60.7349   26.2258   50.5782 H   0  0  0  0  0  0  0  0  0  0  0  0
   61.9818   27.5189   50.5782 H   0  0  0  0  0  0  0  0  0  0  0  0
   59.1260   30.3880   50.9930 C   0  0  0  0  0  0  0  0  0  0  0  0
   57.8640   29.7970   51.1620 O   0  0  0  0  0  0  0  0  0  0  0  0
   57.1100   29.8350   52.3690 C   0  0  0  0  0  0  0  0  0  0  0  0
   57.7940   29.8005   53.2298 H   0  0  0  0  0  0  0  0  0  0  0  0
   56.5219   30.7639   52.4049 H   0  0  0  0  0  0  0  0  0  0  0  0
   56.4315   28.9699   52.4049 H   0  0  0  0  0  0  0  0  0  0  0  0
   59.3060   31.7850   51.0250 C   0  0  0  0  0  0  0  0  0  0  0  0
   58.4439   32.4456   51.1997 H   0  0  0  0  0  0  0  0  0  0  0  0
   60.5790   32.3340   50.8350 C   0  0  0  0  0  0  0  0  0  0  0  0
   60.8220   33.8120   50.8870 C   0  0  0  0  0  0  0  0  0  0  0  0
   61.2846   34.0722   51.8505 H   0  0  0  0  0  0  0  0  0  0  0  0
   59.8636   34.3414   50.7807 H   0  0  0  0  0  0  0  0  0  0  0  0
   61.7610   34.2270   49.7410 C   0  0  0  0  0  0  0  0  0  0  0  0
   62.1122   35.2510   49.9363 H   0  0  0  0  0  0  0  0  0  0  0  0
   61.1796   34.1463   48.8107 H   0  0  0  0  0  0  0  0  0  0  0  0
   61.6470   30.8590   46.8180 C   0  0  0  0  0  0  0  0  0  0  0  0
   62.7033   30.7293   46.5397 H   0  0  0  0  0  0  0  0  0  0  0  0
   60.7770   29.7650   46.7800 C   0  0  0  0  0  0  0  0  0  0  0  0
   61.1590   28.7740   46.4937 H   0  0  0  0  0  0  0  0  0  0  0  0
   56.4280   29.6190   43.1960 C   0  0  0  0  0  0  0  0  0  0  0  0
   56.0105   28.8062   42.5837 H   0  0  0  0  0  0  0  0  0  0  0  0
   56.8760   30.7950   42.5930 C   0  0  0  0  0  0  0  0  0  0  0  0
   56.8200   30.9092   41.5004 H   0  0  0  0  0  0  0  0  0  0  0  0
   57.3950   31.8260   43.3770 C   0  0  0  0  0  0  0  0  0  0  0  0
   57.7528   32.7549   42.9088 H   0  0  0  0  0  0  0  0  0  0  0  0
  1  2  1  0
  2  3  1  0
  3  4  1  0
  4  5  2  0
  5  6  1  0
  6  7  1  0
  6  8  1  0
  6  9  1  0
  9 10  1  0
  9 11  1  0
  9 12  1  0
 12 13  1  0
 13 14  2  0
 13 15  1  0
 15 16  1  0
 15 17  1  0
 17 18  2  0
 18 19  1  0
 18 20  1  0
 20 21  1  0
 20 22  2  0
 22 23  1  0
 23 24  1  0
 23 25  1  0
 23 26  1  0
 26 27  1  0
 26 28  1  0
 26 29  1  0
 29 30  1  0
 30 31  1  0
 30 32  1  0
 30 33  1  0
 33 34  2  0
 34 35  1  0
 34 36  1  0
 36 37  1  0
 37 38  1  0
 38 39  1  0
 38 40  1  0
 38 41  1  0
 36 42  2  0
 42 43  1  0
 43 44  1  0
 44 45  1  0
 44 46  1  0
 44 47  1  0
 42 48  1  0
 48 49  1  0
 48 50  2  0
 50 51  1  0
 51 52  1  0
 51 53  1  0
 51 54  1  0
 54 55  1  0
 54 56  1  0
 22 57  1  0
 57 58  1  0
 57 59  2  0
 59 60  1  0
  4 61  1  0
 61 62  1  0
 61 63  2  0
 63 64  1  0
 63 65  1  0
 65 66  1  0
 65  2  2  0
 59 17  1  0
 54 29  1  0
 50 33  1  0
M  CHG  2   3  -1  12  -1
M  END
>  <UniqueID>  (40) 
38

>  <SMILES>  (40) 
COc1cc2c(cc1OC)CN(CCc1ccc(NC(=O)[N-]CC/N=c3\cccc[n-]3)cc1)CC2

>  <Energy>  (40) 
81.50414849125013

>  <Genealogy>  (40) 
COc1cc2c(cc1OC)CN(CCc1ccc(NC(=O)[N-]CCN=c3cccc[n-]3)cc1)CC2 (protonated)
COc1cc2c(cc1OC)CN(CCc1ccc(NC(=O)[N-]CC/N=c3\cccc[n-]3)cc1)CC2 (cis-trans isomerization)
COc1cc2c(cc1OC)CN(CCc1ccc(NC(=O)[N-]CC/N=c3\cccc[n-]3)cc1)CC2 (3D coordinates assigned)
COc1cc2c(cc1OC)CN(CCc1ccc(NC(=O)[N-]CC/N=c3\cccc[n-]3)cc1)CC2 (nonaromatic ring conformer: 81.50414849125013 kcal/mol)

>  <smiles>  (40) 
COc1cc2c(cc1OC)CN(CCc1ccc(NC(=O)NCCN=c3cccc[nH]3)cc1)CC2

>  <score_type>  (40) 
oracle

>  <origin>  (40) 
adg

>  <m_score__min__energy>  (40) 
-12.19

>  <m_primary>  (40) 
energy

$$$$
40:0
     RDKit          3D

 57 61  0  0  0  0  0  0  0  0999 V2000
   59.6400   26.0150   48.2260 C   0  0  0  0  0  0  0  0  0  0  0  0
   58.6220   26.6930   47.3550 C   0  0  0  0  0  0  0  0  0  0  0  0
   57.4220   26.1600   46.9000 C   0  0  0  0  0  0  0  0  0  0  0  0
   56.8990   24.7880   47.0780 C   0  0  0  0  0  0  0  0  0  0  0  0
   55.8690   24.6120   47.7790 O   0  0  0  0  0  0  0  0  0  0  0  0
   57.5430   23.6460   46.5000 N   0  0  0  0  0  0  0  0  0  0  0  0
   57.2410   23.0580   45.2260 C   0  0  0  0  0  0  0  0  0  0  0  0
   57.5640   21.7200   44.9300 C   0  0  0  0  0  0  0  0  0  0  0  0
   57.2520   21.1830   43.6780 C   0  0  0  0  0  0  0  0  0  0  0  0
   56.6350   21.9770   42.7090 C   0  0  0  0  0  0  0  0  0  0  0  0
   56.3370   23.3150   42.9860 C   0  0  0  0  0  0  0  0  0  0  0  0
   56.6460   23.8550   44.2380 C   0  0  0  0  0  0  0  0  0  0  0  0
   56.7720   27.1900   46.2490 C   0  0  0  0  0  0  0  0  0  0  0  0
   55.5260   27.0870   45.6380 O   0  0  0  0  0  0  0  0  0  0  0  0
   57.5190   28.3120   46.2500 N   0  0  0  0  0  0  0  0  0  0  0  0
   57.1520   29.5520   45.6210 C   0  0  0  0  0  0  0  0  0  0  0  0
   56.1550   29.5990   44.6390 C   0  0  0  0  0  0  0  0  0  0  0  0
   55.8350   30.8320   44.0730 C   0  0  0  0  0  0  0  0  0  0  0  0
   56.4740   31.9550   44.4860 N   0  0  0  0  0  0  0  0  0  0  0  0
   57.4320   31.9080   45.4530 C   0  0  0  0  0  0  0  0  0  0  0  0
   58.0940   33.1140   45.8870 N   0  0  0  0  0  0  0  0  0  0  0  0
   58.2720   33.3710   47.3230 C   0  0  0  0  0  0  0  0  0  0  0  0
   59.4260   34.3510   47.5560 C   0  0  0  0  0  0  0  0  0  0  0  0
   59.2770   35.5040   46.7510 O   0  0  0  0  0  0  0  0  0  0  0  0
   59.4020   35.1450   45.3890 C   0  0  0  0  0  0  0  0  0  0  0  0
   58.2460   34.2410   44.9550 C   0  0  0  0  0  0  0  0  0  0  0  0
   57.7540   30.7080   46.0110 N   0  0  0  0  0  0  0  0  0  0  0  0
   58.6580   28.0170   46.9260 C   0  0  0  0  0  0  0  0  0  0  0  0
   59.7230   28.9890   47.2550 C   0  0  0  0  0  0  0  0  0  0  0  0
   60.5110   29.5490   46.2360 C   0  0  0  0  0  0  0  0  0  0  0  0
   61.5150   30.4710   46.5490 C   0  0  0  0  0  0  0  0  0  0  0  0
   61.7410   30.8360   47.8790 C   0  0  0  0  0  0  0  0  0  0  0  0
   60.9630   30.2800   48.8990 C   0  0  0  0  0  0  0  0  0  0  0  0
   59.9580   29.3590   48.5900 C   0  0  0  0  0  0  0  0  0  0  0  0
   59.3879   26.1829   49.2835 H   0  0  0  0  0  0  0  0  0  0  0  0
   59.6411   24.9352   48.0163 H   0  0  0  0  0  0  0  0  0  0  0  0
   60.6368   26.4302   48.0163 H   0  0  0  0  0  0  0  0  0  0  0  0
   58.0631   21.0958   45.6859 H   0  0  0  0  0  0  0  0  0  0  0  0
   57.4929   20.1330   43.4555 H   0  0  0  0  0  0  0  0  0  0  0  0
   56.3832   21.5497   41.7271 H   0  0  0  0  0  0  0  0  0  0  0  0
   55.8596   23.9424   42.2189 H   0  0  0  0  0  0  0  0  0  0  0  0
   56.4211   24.9109   44.4490 H   0  0  0  0  0  0  0  0  0  0  0  0
   55.6356   28.6829   44.3211 H   0  0  0  0  0  0  0  0  0  0  0  0
   55.0639   30.8944   43.2910 H   0  0  0  0  0  0  0  0  0  0  0  0
   57.3451   33.8003   47.7311 H   0  0  0  0  0  0  0  0  0  0  0  0
   58.5056   32.4216   47.8270 H   0  0  0  0  0  0  0  0  0  0  0  0
   59.4372   34.6495   48.6147 H   0  0  0  0  0  0  0  0  0  0  0  0
   60.3699   33.8538   47.2879 H   0  0  0  0  0  0  0  0  0  0  0  0
   59.3966   36.0570   44.7741 H   0  0  0  0  0  0  0  0  0  0  0  0
   60.3464   34.5972   45.2549 H   0  0  0  0  0  0  0  0  0  0  0  0
   57.3148   34.8264   44.9403 H   0  0  0  0  0  0  0  0  0  0  0  0
   58.4619   33.8454   43.9515 H   0  0  0  0  0  0  0  0  0  0  0  0
   60.3379   29.2615   45.1884 H   0  0  0  0  0  0  0  0  0  0  0  0
   62.1275   30.9094   45.7474 H   0  0  0  0  0  0  0  0  0  0  0  0
   62.5313   31.5610   48.1234 H   0  0  0  0  0  0  0  0  0  0  0  0
   61.1420   30.5676   49.9455 H   0  0  0  0  0  0  0  0  0  0  0  0
   59.3488   28.9222   49.3950 H   0  0  0  0  0  0  0  0  0  0  0  0
  1  2  1  0
  2  3  1  0
  3  4  1  0
  4  5  2  0
  4  6  1  0
  6  7  1  0
  7  8  2  0
  8  9  1  0
  9 10  2  0
 10 11  1  0
 11 12  2  0
  3 13  2  0
 13 14  1  0
 13 15  1  0
 15 16  1  0
 16 17  2  0
 17 18  1  0
 18 19  2  0
 19 20  1  0
 20 21  1  0
 21 22  1  0
 22 23  1  0
 23 24  1  0
 24 25  1  0
 25 26  1  0
 20 27  2  0
 15 28  1  0
 28 29  1  0
 29 30  2  0
 30 31  1  0
 31 32  2  0
 32 33  1  0
 33 34  2  0
 28  2  2  0
 34 29  1  0
 12  7  1  0
 27 16  1  0
 26 21  1  0
  1 35  1  0
  1 36  1  0
  1 37  1  0
  8 38  1  0
  9 39  1  0
 10 40  1  0
 11 41  1  0
 12 42  1  0
 17 43  1  0
 18 44  1  0
 22 45  1  0
 22 46  1  0
 23 47  1  0
 23 48  1  0
 25 49  1  0
 25 50  1  0
 26 51  1  0
 26 52  1  0
 30 53  1  0
 31 54  1  0
 32 55  1  0
 33 56  1  0
 34 57  1  0
M  CHG  2   6  -1  14  -1
M  END
>  <UniqueID>  (41) 
39

>  <SMILES>  (41) 
Cc1c(C(=O)[N-]c2ccccc2)c([O-])n(-c2ccnc(N3CCOCC3)n2)c1-c1ccccc1

>  <Energy>  (41) 
108.28386358132073

>  <Genealogy>  (41) 
Cc1c(C(=O)[N-]c2ccccc2)c([O-])n(-c2ccnc(N3CCOCC3)n2)c1-c1ccccc1 (protonated)
Cc1c(C(=O)[N-]c2ccccc2)c([O-])n(-c2ccnc(N3CCOCC3)n2)c1-c1ccccc1 (3D coordinates assigned)
Cc1c(C(=O)[N-]c2ccccc2)c([O-])n(-c2ccnc(N3CCOCC3)n2)c1-c1ccccc1 (nonaromatic ring conformer: 108.28386358132073 kcal/mol)

>  <smiles>  (41) 
Cc1c(C(=O)Nc2ccccc2)c(O)n(-c2ccnc(N3CCOCC3)n2)c1-c1ccccc1

>  <score_type>  (41) 
oracle

>  <origin>  (41) 
adg

>  <m_score__min__energy>  (41) 
-13

>  <m_primary>  (41) 
energy

$$$$
41:0
     RDKit          3D

 45 48  0  0  0  0  0  0  0  0999 V2000
   58.9020   31.7290   49.6520 C   0  0  0  0  0  0  0  0  0  0  0  0
   59.2540   33.1180   50.1700 C   0  0  0  0  0  0  0  0  0  0  0  0
   59.7290   33.9470   49.1100 O   0  0  0  0  0  0  0  0  0  0  0  0
   60.9720   33.8230   48.4630 C   0  0  0  0  0  0  0  0  0  0  0  0
   62.1940   33.8570   49.1680 C   0  0  0  0  0  0  0  0  0  0  0  0
   63.4090   33.7890   48.4800 C   0  0  0  0  0  0  0  0  0  0  0  0
   63.4240   33.6940   47.0890 C   0  0  0  0  0  0  0  0  0  0  0  0
   62.2230   33.6520   46.3790 C   0  0  0  0  0  0  0  0  0  0  0  0
   60.9960   33.6940   47.0590 C   0  0  0  0  0  0  0  0  0  0  0  0
   59.7410   33.6280   46.2880 C   0  0  0  0  0  0  0  0  0  0  0  0
   59.0890   34.6920   45.6830 C   0  0  0  0  0  0  0  0  0  0  0  0
   57.9630   34.2530   45.0710 N   0  0  0  0  0  0  0  0  0  0  0  0
   57.9710   32.9260   45.3170 C   0  0  0  0  0  0  0  0  0  0  0  0
   57.0370   32.0030   44.8660 C   0  0  0  0  0  0  0  0  0  0  0  0
   57.2400   30.6880   45.1660 N   0  0  0  0  0  0  0  0  0  0  0  0
   58.3240   30.2560   45.8880 C   0  0  0  0  0  0  0  0  0  0  0  0
   58.4950   28.7980   46.1420 C   0  0  0  0  0  0  0  0  0  0  0  0
   59.7680   28.2920   46.4680 C   0  0  0  0  0  0  0  0  0  0  0  0
   59.9510   26.9270   46.7100 C   0  0  0  0  0  0  0  0  0  0  0  0
   58.8720   26.0470   46.6220 C   0  0  0  0  0  0  0  0  0  0  0  0
   57.6010   26.5270   46.2850 C   0  0  0  0  0  0  0  0  0  0  0  0
   56.2310   25.4270   46.1660 S   0  0  0  0  0  0  0  0  0  0  0  0
   54.7740   26.3380   45.9810 N   0  0  0  0  0  0  0  0  0  0  0  0
   56.3930   24.5230   44.9760 O   0  0  0  0  0  0  0  0  0  0  0  0
   56.1510   24.5950   47.4150 O   0  0  0  0  0  0  0  0  0  0  0  0
   57.4150   27.8960   46.0490 C   0  0  0  0  0  0  0  0  0  0  0  0
   59.2610   31.2160   46.3370 C   0  0  0  0  0  0  0  0  0  0  0  0
   59.0240   32.5190   46.0390 N   0  0  0  0  0  0  0  0  0  0  0  0
   58.7307   31.0530   50.5027 H   0  0  0  0  0  0  0  0  0  0  0  0
   57.9900   31.7863   49.0397 H   0  0  0  0  0  0  0  0  0  0  0  0
   59.7312   31.3450   49.0397 H   0  0  0  0  0  0  0  0  0  0  0  0
   58.3572   33.5762   50.6124 H   0  0  0  0  0  0  0  0  0  0  0  0
   60.0470   33.0226   50.9264 H   0  0  0  0  0  0  0  0  0  0  0  0
   62.1904   33.9375   50.2650 H   0  0  0  0  0  0  0  0  0  0  0  0
   64.3567   33.8105   49.0380 H   0  0  0  0  0  0  0  0  0  0  0  0
   64.3826   33.6521   46.5510 H   0  0  0  0  0  0  0  0  0  0  0  0
   62.2383   33.5857   45.2811 H   0  0  0  0  0  0  0  0  0  0  0  0
   59.4345   35.7362   45.6978 H   0  0  0  0  0  0  0  0  0  0  0  0
   56.1598   32.3226   44.2843 H   0  0  0  0  0  0  0  0  0  0  0  0
   60.6264   28.9768   46.5329 H   0  0  0  0  0  0  0  0  0  0  0  0
   60.9493   26.5457   46.9707 H   0  0  0  0  0  0  0  0  0  0  0  0
   59.0202   24.9747   46.8177 H   0  0  0  0  0  0  0  0  0  0  0  0
   54.7890   27.0900   46.7040 H   0  0  0  0  0  0  0  0  0  0  0  0
   56.4145   28.2714   45.7881 H   0  0  0  0  0  0  0  0  0  0  0  0
   60.1519   30.9166   46.9085 H   0  0  0  0  0  0  0  0  0  0  0  0
  1  2  1  0
  2  3  1  0
  3  4  1  0
  4  5  2  0
  5  6  1  0
  6  7  2  0
  7  8  1  0
  8  9  2  0
  9 10  1  0
 10 11  2  0
 11 12  1  0
 12 13  2  0
 13 14  1  0
 14 15  2  0
 15 16  1  0
 16 17  1  0
 17 18  2  0
 18 19  1  0
 19 20  2  0
 20 21  1  0
 21 22  1  0
 22 23  1  0
 22 24  2  0
 22 25  2  0
 21 26  2  0
 16 27  2  0
 27 28  1  0
  9  4  1  0
 28 10  1  0
 28 13  1  0
 26 17  1  0
  1 29  1  0
  1 30  1  0
  1 31  1  0
  2 32  1  0
  2 33  1  0
  5 34  1  0
  6 35  1  0
  7 36  1  0
  8 37  1  0
 11 38  1  0
 14 39  1  0
 18 40  1  0
 19 41  1  0
 20 42  1  0
 23 43  1  0
 26 44  1  0
 27 45  1  0
M  CHG  1  23  -1
M  END
>  <UniqueID>  (42) 
40

>  <SMILES>  (42) 
CCOc1ccccc1-c1cnc2cnc(-c3cccc(S([NH-])(=O)=O)c3)cn12

>  <Energy>  (42) 
92.67197844365519

>  <Genealogy>  (42) 
CCOc1ccccc1-c1cnc2cnc(-c3cccc(S([NH-])(=O)=O)c3)cn12 (protonated)
CCOc1ccccc1-c1cnc2cnc(-c3cccc(S([NH-])(=O)=O)c3)cn12 (3D coordinates assigned)
CCOc1ccccc1-c1cnc2cnc(-c3cccc(S([NH-])(=O)=O)c3)cn12 (optimized conformer: 92.67197844365519 kcal/mol)

>  <smiles>  (42) 
CCOc1ccccc1-c1cnc2cnc(-c3cccc(S(N)(=O)=O)c3)cn12

>  <score_type>  (42) 
oracle

>  <origin>  (42) 
adg

>  <m_score__min__energy>  (42) 
-12.800000000000001

>  <m_primary>  (42) 
energy

$$$$
42:0
     RDKit          3D

 46 49  0  0  1  0  0  0  0  0999 V2000
   56.5930   24.4590   43.9810 N   0  0  0  0  0  0  0  0  0  0  0  0
   56.8040   24.9810   45.5980 S   0  0  0  0  0  0  0  0  0  0  0  0
   55.5150   25.1360   46.3420 O   0  0  0  0  0  0  0  0  0  0  0  0
   57.6540   23.9440   46.3050 O   0  0  0  0  0  0  0  0  0  0  0  0
   57.6270   26.5320   45.6880 C   0  0  0  0  0  0  0  0  0  0  0  0
   58.9800   26.5760   46.0290 C   0  0  0  0  0  0  0  0  0  0  0  0
   59.5820   27.8150   46.0860 C   0  0  0  0  0  0  0  0  0  0  0  0
   58.9130   28.9950   45.8260 C   0  0  0  0  0  0  0  0  0  0  0  0
   57.5730   28.9170   45.4910 C   0  0  0  0  0  0  0  0  0  0  0  0
   56.7810   30.0640   45.2030 N   0  0  0  0  0  0  0  0  0  0  0  0
   57.2990   31.1600   44.7560 C   0  0  0  0  0  0  0  0  0  0  0  0
   57.6120   31.2610   43.4520 N   0  0  0  0  0  0  0  0  0  0  0  0
   58.1560   32.3710   42.9110 C   0  0  0  0  0  0  0  0  0  0  0  0
   58.4030   33.4560   43.7460 C   0  0  0  0  0  0  0  0  0  0  0  0
   58.0720   33.3250   45.0830 C   0  0  0  0  0  0  0  0  0  0  0  0
   58.3140   34.3590   45.8430 N   0  0  0  0  0  0  0  0  0  0  0  0
   59.4620   34.2200   46.7060 C   0  0  0  0  0  0  0  0  0  0  0  0
   59.3180   34.3260   48.0830 C   0  0  0  0  0  0  0  0  0  0  0  0
   60.4400   34.1900   48.9070 C   0  0  0  0  0  0  0  0  0  0  0  0
   61.6920   33.9480   48.3520 C   0  0  0  0  0  0  0  0  0  0  0  0
   61.8240   33.8430   46.9700 C   0  0  0  0  0  0  0  0  0  0  0  0
   60.7110   33.9800   46.1670 C   0  0  0  0  0  0  0  0  0  0  0  0
   63.2440   33.5860   46.6130 C   0  0  0  0  0  0  0  0  0  0  0  0
   63.7870   32.9770   47.8800 C   0  0  0  0  0  0  0  0  0  0  0  0
   63.0520   33.7600   48.9620 C   0  0  0  0  0  0  0  0  0  0  0  0
   57.5280   32.1900   45.5770 N   0  0  0  0  0  0  0  0  0  0  0  0
   56.9110   27.6840   45.4180 C   0  0  0  0  0  0  0  0  0  0  0  0
   57.5370   24.1350   43.6520 H   0  0  0  0  0  0  0  0  0  0  0  0
   56.3450   25.2340   43.3150 H   0  0  0  0  0  0  0  0  0  0  0  0
   59.5445   25.6567   46.2441 H   0  0  0  0  0  0  0  0  0  0  0  0
   60.6482   27.8663   46.3518 H   0  0  0  0  0  0  0  0  0  0  0  0
   59.4287   29.9649   45.8834 H   0  0  0  0  0  0  0  0  0  0  0  0
   57.4260   30.4470   42.8320 H   0  0  0  0  0  0  0  0  0  0  0  0
   58.3976   32.4168   41.8388 H   0  0  0  0  0  0  0  0  0  0  0  0
   58.8457   34.3849   43.3571 H   0  0  0  0  0  0  0  0  0  0  0  0
   58.3278   34.5157   48.5230 H   0  0  0  0  0  0  0  0  0  0  0  0
   60.3317   34.2748   49.9984 H   0  0  0  0  0  0  0  0  0  0  0  0
   60.8201   33.8965   45.0756 H   0  0  0  0  0  0  0  0  0  0  0  0
   63.3222   32.8854   45.7686 H   0  0  0  0  0  0  0  0  0  0  0  0
   63.7869   34.4859   46.2883 H   0  0  0  0  0  0  0  0  0  0  0  0
   63.5532   31.9037   47.9374 H   0  0  0  0  0  0  0  0  0  0  0  0
   64.8823   33.0372   47.9618 H   0  0  0  0  0  0  0  0  0  0  0  0
   62.9928   33.1861   49.8986 H   0  0  0  0  0  0  0  0  0  0  0  0
   63.5464   34.7036   49.2361 H   0  0  0  0  0  0  0  0  0  0  0  0
   57.2880   32.1180   46.5930 H   0  0  0  0  0  0  0  0  0  0  0  0
   55.8449   27.6335   45.1517 H   0  0  0  0  0  0  0  0  0  0  0  0
  1  2  1  0
  2  3  2  0
  2  4  2  0
  2  5  1  0
  5  6  2  0
  6  7  1  0
  7  8  2  0
  8  9  1  0
  9 10  1  0
 10 11  2  0
 11 12  1  0
 12 13  1  0
 13 14  2  0
 14 15  1  0
 15 16  2  0
 16 17  1  0
 17 18  2  0
 18 19  1  0
 19 20  2  0
 20 21  1  0
 21 22  2  0
 21 23  1  0
 23 24  1  0
 24 25  1  0
 15 26  1  0
  9 27  2  0
 27  5  1  0
 26 11  1  0
 22 17  1  0
 25 20  1  0
  1 28  1  0
  1 29  1  0
  6 30  1  0
  7 31  1  0
  8 32  1  0
 12 33  1  0
 13 34  1  0
 14 35  1  0
 18 36  1  0
 19 37  1  0
 22 38  1  0
 23 39  1  0
 23 40  1  0
 24 41  1  0
 24 42  1  0
 25 43  1  0
 25 44  1  0
 26 45  1  0
 27 46  1  0
M  END
>  <smiles>  (43) 
NS(=O)(=O)c1cccc(N=c2[nH]ccc(=Nc3ccc4c(c3)CCC4)[nH]2)c1

>  <score_type>  (43) 
oracle

>  <origin>  (43) 
adg

>  <m_score__min__energy>  (43) 
-10.42

>  <m_primary>  (43) 
energy

$$$$
43:0
     RDKit          3D

 44 46  0  0  0  0  0  0  0  0999 V2000
   61.5806   33.8291   45.4824 H   0  0  0  0  0  0  0  0  0  0  0  0
   61.9710   33.4700   46.4460 C   0  0  0  0  0  0  0  0  0  0  0  0
   61.1260   32.9270   47.3620 N   0  0  0  0  0  0  0  0  0  0  0  0
   61.5710   32.4770   48.5670 C   0  0  0  0  0  0  0  0  0  0  0  0
   60.4050   31.7790   49.7380 S   0  0  0  0  0  0  0  0  0  0  0  0
   61.1610   30.1150   49.7350 C   0  0  0  0  0  0  0  0  0  0  0  0
   60.9122   29.6045   50.6771 H   0  0  0  0  0  0  0  0  0  0  0  0
   62.2509   30.2238   49.6338 H   0  0  0  0  0  0  0  0  0  0  0  0
   60.6520   29.3000   48.5860 C   0  0  0  0  0  0  0  0  0  0  0  0
   60.3720   28.0850   48.7670 O   0  0  0  0  0  0  0  0  0  0  0  0
   60.5250   29.8940   47.2850 N   0  0  0  0  0  0  0  0  0  0  0  0
   61.0510   30.7790   47.1010 H   0  0  0  0  0  0  0  0  0  0  0  0
   59.7780   29.3120   46.2010 C   0  0  0  0  0  0  0  0  0  0  0  0
   59.9640   27.9710   45.8180 C   0  0  0  0  0  0  0  0  0  0  0  0
   60.7068   27.3501   46.3402 H   0  0  0  0  0  0  0  0  0  0  0  0
   59.2090   27.4250   44.7770 C   0  0  0  0  0  0  0  0  0  0  0  0
   59.3672   26.3792   44.4748 H   0  0  0  0  0  0  0  0  0  0  0  0
   58.2540   28.2030   44.1190 C   0  0  0  0  0  0  0  0  0  0  0  0
   57.6711   27.7728   43.2913 H   0  0  0  0  0  0  0  0  0  0  0  0
   58.0370   29.5300   44.5110 C   0  0  0  0  0  0  0  0  0  0  0  0
   56.8360   30.5150   43.6820 S   0  0  0  0  0  0  0  0  0  0  0  0
   56.5420   29.9170   42.3340 O   0  0  0  0  0  0  0  0  0  0  0  0
   55.5720   30.5470   44.4960 O   0  0  0  0  0  0  0  0  0  0  0  0
   57.4650   32.1190   43.4950 N   0  0  0  0  0  0  0  0  0  0  0  0
   57.7740   32.9030   44.4830 C   0  0  0  0  0  0  0  0  0  0  0  0
   57.0750   32.8670   45.7070 N   0  0  0  0  0  0  0  0  0  0  0  0
   56.2740   32.2310   45.9210 H   0  0  0  0  0  0  0  0  0  0  0  0
   57.6210   33.8430   46.6270 C   0  0  0  0  0  0  0  0  0  0  0  0
   57.9953   33.3449   47.5335 H   0  0  0  0  0  0  0  0  0  0  0  0
   56.8563   34.5680   46.9426 H   0  0  0  0  0  0  0  0  0  0  0  0
   58.7780   34.5360   45.8820 C   0  0  0  0  0  0  0  0  0  0  0  0
   59.7232   34.3725   46.4204 H   0  0  0  0  0  0  0  0  0  0  0  0
   58.6039   35.6202   45.8174 H   0  0  0  0  0  0  0  0  0  0  0  0
   58.8590   33.9150   44.4780 C   0  0  0  0  0  0  0  0  0  0  0  0
   59.8379   33.4409   44.3138 H   0  0  0  0  0  0  0  0  0  0  0  0
   58.7480   34.6578   43.6743 H   0  0  0  0  0  0  0  0  0  0  0  0
   58.8000   30.0790   45.5510 C   0  0  0  0  0  0  0  0  0  0  0  0
   58.6301   31.1209   45.8601 H   0  0  0  0  0  0  0  0  0  0  0  0
   62.9310   32.5570   48.8850 C   0  0  0  0  0  0  0  0  0  0  0  0
   63.2989   32.1882   49.8538 H   0  0  0  0  0  0  0  0  0  0  0  0
   63.8160   33.1110   47.9570 C   0  0  0  0  0  0  0  0  0  0  0  0
   64.8879   33.1839   48.1931 H   0  0  0  0  0  0  0  0  0  0  0  0
   63.3370   33.5720   46.7290 C   0  0  0  0  0  0  0  0  0  0  0  0
   64.0263   34.0105   45.9924 H   0  0  0  0  0  0  0  0  0  0  0  0
  1  2  1  0
  2  3  2  0
  3  4  1  0
  4  5  1  0
  5  6  1  0
  6  7  1  0
  6  8  1  0
  6  9  1  0
  9 10  2  0
  9 11  1  0
 11 12  1  0
 11 13  1  0
 13 14  2  0
 14 15  1  0
 14 16  1  0
 16 17  1  0
 16 18  2  0
 18 19  1  0
 18 20  1  0
 20 21  1  0
 21 22  2  0
 21 23  2  0
 21 24  1  0
 24 25  2  0
 25 26  1  0
 26 27  1  0
 26 28  1  0
 28 29  1  0
 28 30  1  0
 28 31  1  0
 31 32  1  0
 31 33  1  0
 31 34  1  0
 34 35  1  0
 34 36  1  0
 20 37  2  0
 37 38  1  0
  4 39  2  0
 39 40  1  0
 39 41  1  0
 41 42  1  0
 41 43  2  0
 43 44  1  0
 43  2  1  0
 37 13  1  0
 34 25  1  0
M  END
>  <UniqueID>  (44) 
41

>  <SMILES>  (44) 
O=C(CSc1ccccn1)Nc1cccc(S(=O)(=O)/N=C2\CCCN2)c1

>  <Energy>  (44) 
52.685031742698676

>  <Genealogy>  (44) 
O=C(CSc1ccccn1)Nc1cccc(S(=O)(=O)/N=C2\CCCN2)c1 (cis-trans isomerization)
O=C(CSc1ccccn1)Nc1cccc(S(=O)(=O)/N=C2\CCCN2)c1 (3D coordinates assigned)
O=C(CSc1ccccn1)Nc1cccc(S(=O)(=O)/N=C2\CCCN2)c1 (nonaromatic ring conformer: 52.685031742698676 kcal/mol)

>  <smiles>  (44) 
O=C(CSc1ccccn1)Nc1cccc(S(=O)(=O)N=C2CCCN2)c1

>  <score_type>  (44) 
oracle

>  <origin>  (44) 
adg

>  <m_score__min__energy>  (44) 
-8.9000000000000004

>  <m_primary>  (44) 
energy

$$$$
44:0
     RDKit          3D

 54 56  0  0  0  0  0  0  0  0999 V2000
   56.2180   19.9720   44.4340 C   0  0  0  0  0  0  0  0  0  0  0  0
   56.8660   21.5960   44.0940 S   0  0  0  0  0  0  0  0  0  0  0  0
   55.8890   22.3300   43.2200 O   0  0  0  0  0  0  0  0  0  0  0  0
   58.1790   21.4860   43.3700 O   0  0  0  0  0  0  0  0  0  0  0  0
   57.0670   22.4720   45.5510 O   0  0  0  0  0  0  0  0  0  0  0  0
   57.1480   23.8680   45.6520 C   0  0  0  0  0  0  0  0  0  0  0  0
   58.3680   24.5690   45.6260 C   0  0  0  0  0  0  0  0  0  0  0  0
   58.3840   25.9620   45.7390 C   0  0  0  0  0  0  0  0  0  0  0  0
   57.1830   26.6780   45.8870 C   0  0  0  0  0  0  0  0  0  0  0  0
   57.1670   28.0770   45.9860 O   0  0  0  0  0  0  0  0  0  0  0  0
   58.2200   28.8720   46.4630 C   0  0  0  0  0  0  0  0  0  0  0  0
   58.6730   28.7910   47.7910 C   0  0  0  0  0  0  0  0  0  0  0  0
   59.7060   29.6200   48.2340 C   0  0  0  0  0  0  0  0  0  0  0  0
   60.2860   30.5590   47.3740 C   0  0  0  0  0  0  0  0  0  0  0  0
   61.2940   31.3920   47.8900 O   0  0  0  0  0  0  0  0  0  0  0  0
   62.3620   31.9810   47.1430 C   0  0  0  0  0  0  0  0  0  0  0  0
   62.5210   33.4770   47.4660 C   0  0  0  0  0  0  0  0  0  0  0  0
   61.2250   34.1830   47.9280 C   0  0  0  0  0  0  0  0  0  0  0  0
   60.0160   33.7420   47.1770 N   0  0  0  0  0  0  0  0  0  0  0  0
   59.5490   34.7230   46.2050 C   0  0  0  0  0  0  0  0  0  0  0  0
   60.1990   35.7280   45.9490 O   0  0  0  0  0  0  0  0  0  0  0  0
   58.2400   34.5090   45.4820 C   0  0  0  0  0  0  0  0  0  0  0  0
   57.5670   33.2060   45.9330 C   0  0  0  0  0  0  0  0  0  0  0  0
   57.5430   33.0960   47.4630 C   0  0  0  0  0  0  0  0  0  0  0  0
   58.8970   33.4150   48.0520 C   0  0  0  0  0  0  0  0  0  0  0  0
   59.0270   33.3660   49.2670 O   0  0  0  0  0  0  0  0  0  0  0  0
   59.8380   30.6320   46.0410 C   0  0  0  0  0  0  0  0  0  0  0  0
   58.8020   29.8030   45.5980 C   0  0  0  0  0  0  0  0  0  0  0  0
   55.9680   25.9830   45.8850 C   0  0  0  0  0  0  0  0  0  0  0  0
   54.7700   26.6780   46.0030 O   0  0  0  0  0  0  0  0  0  0  0  0
   55.9530   24.5890   45.7720 C   0  0  0  0  0  0  0  0  0  0  0  0
   56.1580   19.8216   45.5220 H   0  0  0  0  0  0  0  0  0  0  0  0
   55.2137   19.8786   43.9950 H   0  0  0  0  0  0  0  0  0  0  0  0
   56.8821   19.2129   43.9950 H   0  0  0  0  0  0  0  0  0  0  0  0
   59.3136   24.0179   45.5162 H   0  0  0  0  0  0  0  0  0  0  0  0
   59.3422   26.5016   45.7120 H   0  0  0  0  0  0  0  0  0  0  0  0
   58.2121   28.0719   48.4842 H   0  0  0  0  0  0  0  0  0  0  0  0
   60.0672   29.5338   49.2694 H   0  0  0  0  0  0  0  0  0  0  0  0
   63.2994   31.4609   47.3896 H   0  0  0  0  0  0  0  0  0  0  0  0
   62.1283   31.8829   46.0726 H   0  0  0  0  0  0  0  0  0  0  0  0
   63.2687   33.5764   48.2667 H   0  0  0  0  0  0  0  0  0  0  0  0
   62.8217   33.9657   46.5275 H   0  0  0  0  0  0  0  0  0  0  0  0
   61.0712   33.9675   48.9957 H   0  0  0  0  0  0  0  0  0  0  0  0
   61.3534   35.2588   47.7376 H   0  0  0  0  0  0  0  0  0  0  0  0
   60.2420   32.8710   46.6490 H   0  0  0  0  0  0  0  0  0  0  0  0
   57.5685   35.3534   45.6970 H   0  0  0  0  0  0  0  0  0  0  0  0
   58.4435   34.4421   44.4030 H   0  0  0  0  0  0  0  0  0  0  0  0
   56.5340   33.1861   45.5554 H   0  0  0  0  0  0  0  0  0  0  0  0
   58.1426   32.3590   45.5314 H   0  0  0  0  0  0  0  0  0  0  0  0
   56.8016   33.8036   47.8626 H   0  0  0  0  0  0  0  0  0  0  0  0
   57.2778   32.0637   47.7352 H   0  0  0  0  0  0  0  0  0  0  0  0
   60.3049   31.3443   45.3448 H   0  0  0  0  0  0  0  0  0  0  0  0
   58.4428   29.8844   44.5615 H   0  0  0  0  0  0  0  0  0  0  0  0
   54.9924   24.0530   45.7774 H   0  0  0  0  0  0  0  0  0  0  0  0
  1  2  1  0
  2  3  2  0
  2  4  2  0
  2  5  1  0
  5  6  1  0
  6  7  2  0
  7  8  1  0
  8  9  2  0
  9 10  1  0
 10 11  1  0
 11 12  2  0
 12 13  1  0
 13 14  2  0
 14 15  1  0
 15 16  1  0
 16 17  1  0
 17 18  1  0
 18 19  1  0
 19 20  1  0
 20 21  2  0
 20 22  1  0
 22 23  1  0
 23 24  1  0
 24 25  1  0
 25 26  2  0
 14 27  1  0
 27 28  2  0
  9 29  1  0
 29 30  1  0
 29 31  2  0
 31  6  1  0
 28 11  1  0
 25 19  1  0
  1 32  1  0
  1 33  1  0
  1 34  1  0
  7 35  1  0
  8 36  1  0
 12 37  1  0
 13 38  1  0
 16 39  1  0
 16 40  1  0
 17 41  1  0
 17 42  1  0
 18 43  1  0
 18 44  1  0
 19 45  1  0
 22 46  1  0
 22 47  1  0
 23 48  1  0
 23 49  1  0
 24 50  1  0
 24 51  1  0
 27 52  1  0
 28 53  1  0
 31 54  1  0
M  CHG  2  19   1  30  -1
M  END
>  <UniqueID>  (45) 
42

>  <SMILES>  (45) 
CS(=O)(=O)Oc1ccc(Oc2ccc(OCCC[NH+]3C(=O)CCCC3=O)cc2)c([O-])c1

>  <Energy>  (45) 
65.26846561574527

>  <Genealogy>  (45) 
CS(=O)(=O)Oc1ccc(Oc2ccc(OCCC[NH+]3C(=O)CCCC3=O)cc2)c([O-])c1 (protonated)
CS(=O)(=O)Oc1ccc(Oc2ccc(OCCC[NH+]3C(=O)CCCC3=O)cc2)c([O-])c1 (3D coordinates assigned)
CS(=O)(=O)Oc1ccc(Oc2ccc(OCCC[NH+]3C(=O)CCCC3=O)cc2)c([O-])c1 (nonaromatic ring conformer: 65.26846561574527 kcal/mol)

>  <smiles>  (45) 
CS(=O)(=O)Oc1ccc(Oc2ccc(OCCCN3C(=O)CCCC3=O)cc2)c(O)c1

>  <score_type>  (45) 
oracle

>  <origin>  (45) 
adg

>  <m_score__min__energy>  (45) 
-11.5

>  <m_primary>  (45) 
energy

$$$$
45:0
     RDKit          3D

 64 66  0  0  0  0  0  0  0  0999 V2000
   55.1850   26.4100   46.0200 N   0  0  0  0  0  0  0  0  0  0  0  0
   56.8080   26.0270   45.5590 S   0  0  0  0  0  0  0  0  0  0  0  0
   57.5800   25.6320   46.7860 O   0  0  0  0  0  0  0  0  0  0  0  0
   56.7830   24.8640   44.6060 O   0  0  0  0  0  0  0  0  0  0  0  0
   57.6320   27.4100   44.7540 C   0  0  2  0  0  0  0  0  0  0  0  0
   59.0020   27.7760   45.3680 C   0  0  0  0  0  0  0  0  0  0  0  0
   59.0330   28.0670   46.8840 C   0  0  0  0  0  0  0  0  0  0  0  0
   59.8830   29.2460   47.2800 C   0  0  0  0  0  0  0  0  0  0  0  0
   60.7840   29.8950   46.4590 C   0  0  0  0  0  0  0  0  0  0  0  0
   61.4390   30.8060   47.2750 C   0  0  0  0  0  0  0  0  0  0  0  0
   62.4600   31.6840   46.8940 O   0  0  0  0  0  0  0  0  0  0  0  0
   63.6590   31.8780   47.6460 C   0  0  0  0  0  0  0  0  0  0  0  0
   63.8420   33.3250   47.9940 C   0  0  0  0  0  0  0  0  0  0  0  0
   63.8400   34.2000   47.0810 O   0  0  0  0  0  0  0  0  0  0  0  0
   64.0570   33.7030   49.3550 N   0  0  0  0  0  0  0  0  0  0  0  0
   62.7430   33.9090   50.4670 S   0  0  0  0  0  0  0  0  0  0  0  0
   63.2230   34.7530   51.6140 O   0  0  0  0  0  0  0  0  0  0  0  0
   61.6190   34.6200   49.7680 O   0  0  0  0  0  0  0  0  0  0  0  0
   62.1720   32.3340   51.0400 C   0  0  0  0  0  0  0  0  0  0  0  0
   63.0350   31.2300   50.9730 C   0  0  0  0  0  0  0  0  0  0  0  0
   62.6220   29.9760   51.4290 C   0  0  0  0  0  0  0  0  0  0  0  0
   61.3370   29.8070   51.9450 C   0  0  0  0  0  0  0  0  0  0  0  0
   60.4590   30.8910   51.9960 C   0  0  0  0  0  0  0  0  0  0  0  0
   60.8610   32.1530   51.5400 C   0  0  0  0  0  0  0  0  0  0  0  0
   59.6870   33.4610   51.5980 Cl  0  0  0  0  0  0  0  0  0  0  0  0
   61.0040   30.7170   48.5070 O   0  0  0  0  0  0  0  0  0  0  0  0
   60.0910   29.7770   48.5440 C   0  0  0  0  0  0  0  0  0  0  0  0
   59.4720   29.3620   49.7140 O   0  0  0  0  0  0  0  0  0  0  0  0
   56.7400   28.6100   44.5780 C   0  0  0  0  0  0  0  0  0  0  0  0
   55.6610   28.7170   45.2210 O   0  0  0  0  0  0  0  0  0  0  0  0
   57.1350   29.6350   43.6610 N   0  0  0  0  0  0  0  0  0  0  0  0
   56.6450   31.0080   43.7240 C   0  0  0  0  0  0  0  0  0  0  0  0
   57.5150   31.8150   44.6490 C   0  0  0  0  0  0  0  0  0  0  0  0
   57.7540   31.3860   45.9640 C   0  0  0  0  0  0  0  0  0  0  0  0
   58.5240   32.1660   46.8330 C   0  0  0  0  0  0  0  0  0  0  0  0
   59.0530   33.3960   46.4080 C   0  0  0  0  0  0  0  0  0  0  0  0
   59.8630   34.2200   47.3380 C   0  0  0  0  0  0  0  0  0  0  0  0
   61.2920   34.1840   47.2590 N   0  0  0  0  0  0  0  0  0  0  0  0
   59.2870   34.9730   48.2270 N   0  0  0  0  0  0  0  0  0  0  0  0
   58.8080   33.8270   45.0920 C   0  0  0  0  0  0  0  0  0  0  0  0
   58.0430   33.0440   44.2210 C   0  0  0  0  0  0  0  0  0  0  0  0
   55.1490   27.4290   46.2570 H   0  0  0  0  0  0  0  0  0  0  0  0
   57.8594   27.0411   43.7430 H   0  0  0  0  0  0  0  0  0  0  0  0
   59.6867   26.9366   45.1767 H   0  0  0  0  0  0  0  0  0  0  0  0
   59.2871   28.7239   44.8883 H   0  0  0  0  0  0  0  0  0  0  0  0
   58.0026   28.2598   47.2173 H   0  0  0  0  0  0  0  0  0  0  0  0
   59.4834   27.1842   47.3613 H   0  0  0  0  0  0  0  0  0  0  0  0
   60.9478   29.7254   45.3846 H   0  0  0  0  0  0  0  0  0  0  0  0
   63.6024   31.2887   48.5731 H   0  0  0  0  0  0  0  0  0  0  0  0
   64.5141   31.5516   47.0359 H   0  0  0  0  0  0  0  0  0  0  0  0
   64.0461   31.3530   50.5576 H   0  0  0  0  0  0  0  0  0  0  0  0
   63.3113   29.1201   51.3811 H   0  0  0  0  0  0  0  0  0  0  0  0
   61.0160   28.8207   52.3113 H   0  0  0  0  0  0  0  0  0  0  0  0
   59.4441   30.7532   52.3972 H   0  0  0  0  0  0  0  0  0  0  0  0
   56.6706   31.4519   42.7179 H   0  0  0  0  0  0  0  0  0  0  0  0
   55.6120   31.0091   44.1021 H   0  0  0  0  0  0  0  0  0  0  0  0
   57.3335   30.4313   46.3129 H   0  0  0  0  0  0  0  0  0  0  0  0
   58.7168   31.8136   47.8570 H   0  0  0  0  0  0  0  0  0  0  0  0
   61.8810   34.7230   47.9300 H   0  0  0  0  0  0  0  0  0  0  0  0
   61.7750   33.6620   46.4950 H   0  0  0  0  0  0  0  0  0  0  0  0
   59.4980   34.8760   49.2460 H   0  0  0  0  0  0  0  0  0  0  0  0
   58.6170   35.7240   47.9430 H   0  0  0  0  0  0  0  0  0  0  0  0
   59.2205   34.7860   44.7453 H   0  0  0  0  0  0  0  0  0  0  0  0
   57.8539   33.3929   43.1951 H   0  0  0  0  0  0  0  0  0  0  0  0
  1  2  1  0
  2  3  2  0
  2  4  2  0
  2  5  1  0
  5  6  1  0
  6  7  1  0
  7  8  1  0
  8  9  1  0
  9 10  2  0
 10 11  1  0
 11 12  1  0
 12 13  1  0
 13 14  2  0
 13 15  1  0
 15 16  1  0
 16 17  2  0
 16 18  2  0
 16 19  1  0
 19 20  2  0
 20 21  1  0
 21 22  2  0
 22 23  1  0
 23 24  2  0
 24 25  1  0
 10 26  1  0
 26 27  1  0
 27 28  1  0
  5 29  1  0
 29 30  2  0
 29 31  1  0
 31 32  1  0
 32 33  1  0
 33 34  2  0
 34 35  1  0
 35 36  2  0
 36 37  1  0
 37 38  1  0
 37 39  2  0
 36 40  1  0
 40 41  2  0
 27  8  2  0
 41 33  1  0
 24 19  1  0
  1 42  1  0
  5 43  1  6
  6 44  1  0
  6 45  1  0
  7 46  1  0
  7 47  1  0
  9 48  1  0
 12 49  1  0
 12 50  1  0
 20 51  1  0
 21 52  1  0
 22 53  1  0
 23 54  1  0
 32 55  1  0
 32 56  1  0
 34 57  1  0
 35 58  1  0
 38 59  1  0
 38 60  1  0
 39 61  1  0
 39 62  1  0
 40 63  1  0
 41 64  1  0
M  CHG  5   1  -1  15  -1  28  -1  31  -1  39   1
M  END
>  <UniqueID>  (46) 
43

>  <SMILES>  (46) 
[NH-]S(=O)(=O)[C@H](CCc1cc(OCC(=O)[N-]S(=O)(=O)c2ccccc2Cl)oc1[O-])C(=O)[N-]Cc1ccc(C(N)=[NH2+])cc1

>  <Energy>  (46) 
94.66042152827468

>  <Genealogy>  (46) 
[NH-]S(=O)(=O)C(CCc1cc(OCC(=O)[N-]S(=O)(=O)c2ccccc2Cl)oc1[O-])C(=O)[N-]Cc1ccc(C(N)=[NH2+])cc1 (protonated)
[NH-]S(=O)(=O)[C@H](CCc1cc(OCC(=O)[N-]S(=O)(=O)c2ccccc2Cl)oc1[O-])C(=O)[N-]Cc1ccc(C(N)=[NH2+])cc1 (chirality)
[NH-]S(=O)(=O)[C@H](CCc1cc(OCC(=O)[N-]S(=O)(=O)c2ccccc2Cl)oc1[O-])C(=O)[N-]Cc1ccc(C(N)=[NH2+])cc1 (3D coordinates assigned)
[NH-]S(=O)(=O)[C@H](CCc1cc(OCC(=O)[N-]S(=O)(=O)c2ccccc2Cl)oc1[O-])C(=O)[N-]Cc1ccc(C(N)=[NH2+])cc1 (optimized conformer: 94.66042152827468 kcal/mol)

>  <smiles>  (46) 
N=C(N)c1ccc(CNC(=O)C(CCc2cc(OCC(=O)NS(=O)(=O)c3ccccc3Cl)oc2O)S(N)(=O)=O)cc1

>  <score_type>  (46) 
oracle

>  <origin>  (46) 
adg

>  <m_score__min__energy>  (46) 
-15.44

>  <m_primary>  (46) 
energy

$$$$
46:0
     RDKit          3D

 53 55  0  0  0  0  0  0  0  0999 V2000
   57.0170   21.0500   42.9440 C   0  0  0  0  0  0  0  0  0  0  0  0
   56.2930   22.2730   42.9800 O   0  0  0  0  0  0  0  0  0  0  0  0
   56.5320   23.2690   43.9290 C   0  0  0  0  0  0  0  0  0  0  0  0
   57.1330   24.3230   43.5810 O   0  0  0  0  0  0  0  0  0  0  0  0
   56.0910   23.1050   45.3430 C   0  0  0  0  0  0  0  0  0  0  0  0
   55.2970   21.9880   45.6790 C   0  0  0  0  0  0  0  0  0  0  0  0
   54.8940   21.7630   46.9960 C   0  0  0  0  0  0  0  0  0  0  0  0
   55.2750   22.6450   48.0050 C   0  0  0  0  0  0  0  0  0  0  0  0
   56.0580   23.7560   47.6990 C   0  0  0  0  0  0  0  0  0  0  0  0
   56.4750   24.0010   46.3790 C   0  0  0  0  0  0  0  0  0  0  0  0
   57.2660   25.1690   46.1120 N   0  0  0  0  0  0  0  0  0  0  0  0
   56.6910   26.4840   46.0390 C   0  0  0  0  0  0  0  0  0  0  0  0
   55.4650   26.6530   46.2850 O   0  0  0  0  0  0  0  0  0  0  0  0
   57.5420   27.6810   45.6960 C   0  0  1  0  0  0  0  0  0  0  0  0
   59.0250   27.4390   46.0590 C   0  0  0  0  0  0  0  0  0  0  0  0
   59.9860   28.2720   45.1990 C   0  0  0  0  0  0  0  0  0  0  0  0
   59.3210   29.5700   44.7280 C   0  0  0  0  0  0  0  0  0  0  0  0
   58.1470   29.3060   43.8660 N   0  0  0  0  0  0  0  0  0  0  0  0
   57.0990   30.7020   43.8350 S   0  0  0  0  0  0  0  0  0  0  0  0
   55.7920   30.3720   44.5020 O   0  0  0  0  0  0  0  0  0  0  0  0
   56.8270   31.0980   42.4110 O   0  0  0  0  0  0  0  0  0  0  0  0
   57.8690   32.0570   44.6600 C   0  0  0  0  0  0  0  0  0  0  0  0
   58.4630   33.0950   43.9320 C   0  0  0  0  0  0  0  0  0  0  0  0
   59.0450   34.1770   44.5980 C   0  0  0  0  0  0  0  0  0  0  0  0
   59.0370   34.2340   46.0000 C   0  0  0  0  0  0  0  0  0  0  0  0
   59.6430   35.4120   46.7020 C   0  0  0  0  0  0  0  0  0  0  0  0
   58.4300   33.1970   46.7280 C   0  0  0  0  0  0  0  0  0  0  0  0
   57.8550   32.1120   46.0600 C   0  0  0  0  0  0  0  0  0  0  0  0
   57.3890   28.0770   44.2120 C   0  0  0  0  0  0  0  0  0  0  0  0
   57.2171   20.7120   43.9715 H   0  0  0  0  0  0  0  0  0  0  0  0
   56.4242   20.2883   42.4163 H   0  0  0  0  0  0  0  0  0  0  0  0
   57.9699   21.2034   42.4163 H   0  0  0  0  0  0  0  0  0  0  0  0
   54.9911   21.2840   44.8911 H   0  0  0  0  0  0  0  0  0  0  0  0
   54.2740   20.8872   47.2381 H   0  0  0  0  0  0  0  0  0  0  0  0
   54.9578   22.4643   49.0426 H   0  0  0  0  0  0  0  0  0  0  0  0
   56.3535   24.4498   48.4998 H   0  0  0  0  0  0  0  0  0  0  0  0
   58.2860   25.0450   45.9340 H   0  0  0  0  0  0  0  0  0  0  0  0
   57.1820   28.5247   46.3031 H   0  0  0  0  0  0  0  0  0  0  0  0
   59.1771   27.7047   47.1155 H   0  0  0  0  0  0  0  0  0  0  0  0
   59.2451   26.3776   45.8723 H   0  0  0  0  0  0  0  0  0  0  0  0
   60.8772   28.5203   45.7941 H   0  0  0  0  0  0  0  0  0  0  0  0
   60.2644   27.6810   44.3140 H   0  0  0  0  0  0  0  0  0  0  0  0
   58.9943   30.1424   45.6087 H   0  0  0  0  0  0  0  0  0  0  0  0
   60.0570   30.1363   44.1385 H   0  0  0  0  0  0  0  0  0  0  0  0
   58.4716   33.0587   42.8326 H   0  0  0  0  0  0  0  0  0  0  0  0
   59.5118   34.9882   44.0201 H   0  0  0  0  0  0  0  0  0  0  0  0
   59.5691   35.2683   47.7901 H   0  0  0  0  0  0  0  0  0  0  0  0
   60.7009   35.5052   46.4155 H   0  0  0  0  0  0  0  0  0  0  0  0
   59.1036   36.3269   46.4155 H   0  0  0  0  0  0  0  0  0  0  0  0
   58.4071   33.2390   47.8270 H   0  0  0  0  0  0  0  0  0  0  0  0
   57.3898   31.2983   46.6357 H   0  0  0  0  0  0  0  0  0  0  0  0
   56.3232   28.2500   44.0020 H   0  0  0  0  0  0  0  0  0  0  0  0
   57.7948   27.2543   43.6050 H   0  0  0  0  0  0  0  0  0  0  0  0
  1  2  1  0
  2  3  1  0
  3  4  2  0
  3  5  1  0
  5  6  2  0
  6  7  1  0
  7  8  2  0
  8  9  1  0
  9 10  2  0
 10 11  1  0
 11 12  1  0
 12 13  2  0
 12 14  1  0
 14 15  1  0
 15 16  1  0
 16 17  1  0
 17 18  1  0
 18 19  1  0
 19 20  2  0
 19 21  2  0
 19 22  1  0
 22 23  2  0
 23 24  1  0
 24 25  2  0
 25 26  1  0
 25 27  1  0
 27 28  2  0
 18 29  1  0
 10  5  1  0
 29 14  1  0
 28 22  1  0
  1 30  1  0
  1 31  1  0
  1 32  1  0
  6 33  1  0
  7 34  1  0
  8 35  1  0
  9 36  1  0
 11 37  1  0
 14 38  1  1
 15 39  1  0
 15 40  1  0
 16 41  1  0
 16 42  1  0
 17 43  1  0
 17 44  1  0
 23 45  1  0
 24 46  1  0
 26 47  1  0
 26 48  1  0
 26 49  1  0
 27 50  1  0
 28 51  1  0
 29 52  1  0
 29 53  1  0
M  END
>  <UniqueID>  (47) 
44

>  <SMILES>  (47) 
COC(=O)c1ccccc1NC(=O)[C@H]1CCCN(S(=O)(=O)c2ccc(C)cc2)C1

>  <Energy>  (47) 
64.7183237967361

>  <Genealogy>  (47) 
COC(=O)c1ccccc1NC(=O)[C@H]1CCCN(S(=O)(=O)c2ccc(C)cc2)C1 (chirality)
COC(=O)c1ccccc1NC(=O)[C@H]1CCCN(S(=O)(=O)c2ccc(C)cc2)C1 (3D coordinates assigned)
COC(=O)c1ccccc1NC(=O)[C@H]1CCCN(S(=O)(=O)c2ccc(C)cc2)C1 (nonaromatic ring conformer: 64.7183237967361 kcal/mol)

>  <smiles>  (47) 
COC(=O)c1ccccc1NC(=O)C1CCCN(S(=O)(=O)c2ccc(C)cc2)C1

>  <score_type>  (47) 
oracle

>  <origin>  (47) 
adg

>  <m_score__min__energy>  (47) 
-10.09

>  <m_primary>  (47) 
energy

$$$$
47:0
     RDKit          3D

 41 43  0  0  0  0  0  0  0  0999 V2000
   57.1850   33.3800   47.1590 O   0  0  0  0  0  0  0  0  0  0  0  0
   57.9970   33.8810   46.3360 C   0  0  0  0  0  0  0  0  0  0  0  0
   57.7430   33.7040   44.8630 C   0  0  0  0  0  0  0  0  0  0  0  0
   57.7620   32.2250   44.4650 C   0  0  0  0  0  0  0  0  0  0  0  0
   56.5080   31.5820   44.8640 N   0  0  0  0  0  0  0  0  0  0  0  0
   56.4480   29.9260   44.3340 S   0  0  0  0  0  0  0  0  0  0  0  0
   55.1590   29.3080   44.7990 O   0  0  0  0  0  0  0  0  0  0  0  0
   56.4830   29.8760   42.8320 O   0  0  0  0  0  0  0  0  0  0  0  0
   57.7980   29.0130   45.0010 C   0  0  0  0  0  0  0  0  0  0  0  0
   59.1100   29.3240   44.6170 C   0  0  0  0  0  0  0  0  0  0  0  0
   60.1840   28.5800   45.1180 C   0  0  0  0  0  0  0  0  0  0  0  0
   59.9510   27.5230   46.0010 C   0  0  0  0  0  0  0  0  0  0  0  0
   58.6450   27.2050   46.3840 C   0  0  0  0  0  0  0  0  0  0  0  0
   57.5700   27.9470   45.8850 C   0  0  0  0  0  0  0  0  0  0  0  0
   59.0550   34.7120   46.8340 N   0  0  0  0  0  0  0  0  0  0  0  0
   60.3500   34.2820   47.2740 C   0  0  0  0  0  0  0  0  0  0  0  0
   61.3210   33.8190   46.3670 C   0  0  0  0  0  0  0  0  0  0  0  0
   62.5660   33.3800   46.8270 C   0  0  0  0  0  0  0  0  0  0  0  0
   62.8420   33.3850   48.1970 C   0  0  0  0  0  0  0  0  0  0  0  0
   61.8590   33.7900   49.1090 C   0  0  0  0  0  0  0  0  0  0  0  0
   60.6200   34.2430   48.6490 C   0  0  0  0  0  0  0  0  0  0  0  0
   62.1380   33.7340   50.4780 O   0  0  0  0  0  0  0  0  0  0  0  0
   63.2800   33.0260   50.9710 C   0  0  0  0  0  0  0  0  0  0  0  0
   64.4770   33.2290   50.0310 C   0  0  0  0  0  0  0  0  0  0  0  0
   64.0920   32.9800   48.6780 O   0  0  0  0  0  0  0  0  0  0  0  0
   56.7585   34.1281   44.6163 H   0  0  0  0  0  0  0  0  0  0  0  0
   58.5411   34.2210   44.3101 H   0  0  0  0  0  0  0  0  0  0  0  0
   57.8825   32.1428   43.3747 H   0  0  0  0  0  0  0  0  0  0  0  0
   58.6008   31.7257   44.9721 H   0  0  0  0  0  0  0  0  0  0  0  0
   59.2955   30.1548   43.9203 H   0  0  0  0  0  0  0  0  0  0  0  0
   61.2124   28.8277   44.8163 H   0  0  0  0  0  0  0  0  0  0  0  0
   60.7964   26.9402   46.3954 H   0  0  0  0  0  0  0  0  0  0  0  0
   58.4628   26.3711   47.0779 H   0  0  0  0  0  0  0  0  0  0  0  0
   56.5426   27.6945   46.1862 H   0  0  0  0  0  0  0  0  0  0  0  0
   61.0992   33.8024   45.2897 H   0  0  0  0  0  0  0  0  0  0  0  0
   63.3264   33.0316   46.1125 H   0  0  0  0  0  0  0  0  0  0  0  0
   59.8542   34.5700   49.3678 H   0  0  0  0  0  0  0  0  0  0  0  0
   63.5365   33.4025   51.9722 H   0  0  0  0  0  0  0  0  0  0  0  0
   63.0422   31.9532   51.0224 H   0  0  0  0  0  0  0  0  0  0  0  0
   64.8378   34.2642   50.1211 H   0  0  0  0  0  0  0  0  0  0  0  0
   65.2755   32.5262   50.3112 H   0  0  0  0  0  0  0  0  0  0  0  0
  1  2  2  0
  2  3  1  0
  3  4  1  0
  4  5  1  0
  5  6  1  0
  6  7  2  0
  6  8  2  0
  6  9  1  0
  9 10  2  0
 10 11  1  0
 11 12  2  0
 12 13  1  0
 13 14  2  0
  2 15  1  0
 15 16  1  0
 16 17  2  0
 17 18  1  0
 18 19  2  0
 19 20  1  0
 20 21  2  0
 20 22  1  0
 22 23  1  0
 23 24  1  0
 24 25  1  0
 14  9  1  0
 21 16  1  0
 25 19  1  0
  3 26  1  0
  3 27  1  0
  4 28  1  0
  4 29  1  0
 10 30  1  0
 11 31  1  0
 12 32  1  0
 13 33  1  0
 14 34  1  0
 17 35  1  0
 18 36  1  0
 21 37  1  0
 23 38  1  0
 23 39  1  0
 24 40  1  0
 24 41  1  0
M  CHG  2   5  -1  15  -1
M  END
>  <UniqueID>  (48) 
45

>  <SMILES>  (48) 
O=C(CC[N-]S(=O)(=O)c1ccccc1)[N-]c1ccc2c(c1)OCCO2

>  <Energy>  (48) 
45.51670202022387

>  <Genealogy>  (48) 
O=C(CC[N-]S(=O)(=O)c1ccccc1)[N-]c1ccc2c(c1)OCCO2 (protonated)
O=C(CC[N-]S(=O)(=O)c1ccccc1)[N-]c1ccc2c(c1)OCCO2 (3D coordinates assigned)
O=C(CC[N-]S(=O)(=O)c1ccccc1)[N-]c1ccc2c(c1)OCCO2 (nonaromatic ring conformer: 45.51670202022387 kcal/mol)

>  <smiles>  (48) 
O=C(CCNS(=O)(=O)c1ccccc1)Nc1ccc2c(c1)OCCO2

>  <score_type>  (48) 
oracle

>  <origin>  (48) 
adg

>  <m_score__min__energy>  (48) 
-11.380000000000001

>  <m_primary>  (48) 
energy

$$$$
48:0
     RDKit          3D

 39 41  0  0  0  0  0  0  0  0999 V2000
   62.9890   33.6550   46.8680 N   0  0  0  0  0  0  0  0  0  0  0  0
   62.2580   32.8070   47.1600 C   0  0  0  0  0  0  0  0  0  0  0  0
   61.3500   31.7520   47.5230 C   0  0  0  0  0  0  0  0  0  0  0  0
   61.6840   30.7310   48.3320 N   0  0  0  0  0  0  0  0  0  0  0  0
   60.5230   30.0510   48.4750 C   0  0  0  0  0  0  0  0  0  0  0  0
   60.3630   28.8340   49.2940 C   0  0  0  0  0  0  0  0  0  0  0  0
   60.1220   27.6030   48.8160 C   0  0  0  0  0  0  0  0  0  0  0  0
   59.5230   27.3040   47.4980 C   0  0  0  0  0  0  0  0  0  0  0  0
   60.1560   27.7590   46.3340 C   0  0  0  0  0  0  0  0  0  0  0  0
   59.6120   27.4750   45.0790 C   0  0  0  0  0  0  0  0  0  0  0  0
   58.4410   26.7210   44.9760 C   0  0  0  0  0  0  0  0  0  0  0  0
   57.8180   26.2270   46.1300 C   0  0  0  0  0  0  0  0  0  0  0  0
   56.3320   25.2900   46.0230 S   0  0  0  0  0  0  0  0  0  0  0  0
   54.9770   26.3620   45.9930 N   0  0  0  0  0  0  0  0  0  0  0  0
   56.3310   24.4580   44.7710 O   0  0  0  0  0  0  0  0  0  0  0  0
   56.2270   24.3760   47.2120 O   0  0  0  0  0  0  0  0  0  0  0  0
   58.3700   26.5040   47.3870 C   0  0  0  0  0  0  0  0  0  0  0  0
   59.5200   30.6140   47.8340 O   0  0  0  0  0  0  0  0  0  0  0  0
   60.0070   31.6640   47.2230 C   0  0  0  0  0  0  0  0  0  0  0  0
   59.2230   32.5650   46.4220 N   0  0  0  0  0  0  0  0  0  0  0  0
   58.5280   32.0230   45.2460 C   0  0  0  0  0  0  0  0  0  0  0  0
   58.0440   33.1280   44.3000 C   0  0  0  0  0  0  0  0  0  0  0  0
   57.3000   34.2040   45.0900 C   0  0  0  0  0  0  0  0  0  0  0  0
   58.1550   34.7510   46.0870 O   0  0  0  0  0  0  0  0  0  0  0  0
   59.0530   33.9480   46.7930 C   0  0  0  0  0  0  0  0  0  0  0  0
   59.7600   34.4650   47.6990 O   0  0  0  0  0  0  0  0  0  0  0  0
   60.4482   28.9445   50.3851 H   0  0  0  0  0  0  0  0  0  0  0  0
   60.3915   26.7495   49.4554 H   0  0  0  0  0  0  0  0  0  0  0  0
   61.0855   28.3425   46.4086 H   0  0  0  0  0  0  0  0  0  0  0  0
   60.1072   27.8462   44.1696 H   0  0  0  0  0  0  0  0  0  0  0  0
   58.0067   26.5144   43.9867 H   0  0  0  0  0  0  0  0  0  0  0  0
   55.1610   27.0680   45.2440 H   0  0  0  0  0  0  0  0  0  0  0  0
   57.8998   26.0940   48.2930 H   0  0  0  0  0  0  0  0  0  0  0  0
   59.2186   31.3649   44.6983 H   0  0  0  0  0  0  0  0  0  0  0  0
   57.6452   31.4704   45.6000 H   0  0  0  0  0  0  0  0  0  0  0  0
   58.9102   33.5804   43.7950 H   0  0  0  0  0  0  0  0  0  0  0  0
   57.3630   32.6920   43.5542 H   0  0  0  0  0  0  0  0  0  0  0  0
   56.9800   35.0033   44.4054 H   0  0  0  0  0  0  0  0  0  0  0  0
   56.4204   33.7547   45.5741 H   0  0  0  0  0  0  0  0  0  0  0  0
  1  2  3  0
  2  3  1  0
  3  4  1  0
  4  5  2  0
  5  6  1  0
  6  7  2  3
  7  8  1  0
  8  9  2  0
  9 10  1  0
 10 11  2  0
 11 12  1  0
 12 13  1  0
 13 14  1  0
 13 15  2  0
 13 16  2  0
 12 17  2  0
  5 18  1  0
 18 19  1  0
 19 20  1  0
 20 21  1  0
 21 22  1  0
 22 23  1  0
 23 24  1  0
 24 25  1  0
 25 26  2  0
 19  3  2  0
 25 20  1  0
 17  8  1  0
  6 27  1  0
  7 28  1  0
  9 29  1  0
 10 30  1  0
 11 31  1  0
 14 32  1  0
 17 33  1  0
 21 34  1  0
 21 35  1  0
 22 36  1  0
 22 37  1  0
 23 38  1  0
 23 39  1  0
M  CHG  1  14  -1
M  END
>  <UniqueID>  (49) 
46

>  <SMILES>  (49) 
N#Cc1nc(C=Cc2cccc(S([NH-])(=O)=O)c2)oc1N1CCCOC1=O

>  <Energy>  (49) 
79.33382305423825

>  <Genealogy>  (49) 
N#Cc1nc(C=Cc2cccc(S([NH-])(=O)=O)c2)oc1N1CCCOC1=O (protonated)
N#Cc1nc(C=Cc2cccc(S([NH-])(=O)=O)c2)oc1N1CCCOC1=O (3D coordinates assigned)
N#Cc1nc(C=Cc2cccc(S([NH-])(=O)=O)c2)oc1N1CCCOC1=O (nonaromatic ring conformer: 79.33382305423825 kcal/mol)

>  <smiles>  (49) 
N#Cc1nc(C=Cc2cccc(S(N)(=O)=O)c2)oc1N1CCCOC1=O

>  <score_type>  (49) 
oracle

>  <origin>  (49) 
adg

>  <m_score__min__energy>  (49) 
-11.039999999999999

>  <m_primary>  (49) 
energy

$$$$
49:0
     RDKit          3D

 27 29  0  0  0  0  0  0  0  0999 V2000
   57.6401   27.7774   44.6518 H   0  0  0  0  0  0  0  0  0  0  0  0
   57.7410   27.5440   45.7220 C   0  0  0  0  0  0  0  0  0  0  0  0
   58.3530   28.4580   46.5030 C   0  0  0  0  0  0  0  0  0  0  0  0
   58.3310   29.9120   46.2180 C   0  0  0  0  0  0  0  0  0  0  0  0
   59.2190   30.7920   46.7570 N   0  0  0  0  0  0  0  0  0  0  0  0
   58.8030   31.9680   46.2700 C   0  0  0  0  0  0  0  0  0  0  0  0
   59.3540   33.2270   46.4910 C   0  0  0  0  0  0  0  0  0  0  0  0
   60.2416   33.3568   47.1276 H   0  0  0  0  0  0  0  0  0  0  0  0
   58.7340   34.3290   45.8700 C   0  0  0  0  0  0  0  0  0  0  0  0
   59.1398   35.3404   46.0196 H   0  0  0  0  0  0  0  0  0  0  0  0
   57.5940   34.1430   45.0560 C   0  0  0  0  0  0  0  0  0  0  0  0
   57.1174   35.0101   44.5754 H   0  0  0  0  0  0  0  0  0  0  0  0
   57.0650   32.8530   44.8570 C   0  0  0  0  0  0  0  0  0  0  0  0
   56.1774   32.6924   44.2275 H   0  0  0  0  0  0  0  0  0  0  0  0
   57.7060   31.7870   45.4860 C   0  0  0  0  0  0  0  0  0  0  0  0
   57.3760   30.4890   45.4400 N   0  0  0  0  0  0  0  0  0  0  0  0
   59.0860   27.9840   47.7300 C   0  0  0  0  0  0  0  0  0  0  0  0
   58.5549   28.3275   48.6300 H   0  0  0  0  0  0  0  0  0  0  0  0
   59.1316   26.8849   47.7282 H   0  0  0  0  0  0  0  0  0  0  0  0
   60.1070   28.3933   47.7282 H   0  0  0  0  0  0  0  0  0  0  0  0
   57.1970   26.2570   46.1910 C   0  0  0  0  0  0  0  0  0  0  0  0
   57.9620   25.2720   46.6950 N   0  0  0  0  0  0  0  0  0  0  0  0
   57.0620   24.3410   47.0780 C   0  0  0  0  0  0  0  0  0  0  0  0
   57.4010   23.2440   47.5950 O   0  0  0  0  0  0  0  0  0  0  0  0
   55.7720   24.6810   46.8750 N   0  0  0  0  0  0  0  0  0  0  0  0
   55.8730   25.9020   46.3260 C   0  0  0  0  0  0  0  0  0  0  0  0
   54.7760   26.6870   45.9900 O   0  0  0  0  0  0  0  0  0  0  0  0
  1  2  1  0
  2  3  2  0
  3  4  1  0
  4  5  2  0
  5  6  1  0
  6  7  2  0
  7  8  1  0
  7  9  1  0
  9 10  1  0
  9 11  2  0
 11 12  1  0
 11 13  1  0
 13 14  1  0
 13 15  2  0
 15 16  1  0
  3 17  1  0
 17 18  1  0
 17 19  1  0
 17 20  1  0
  2 21  1  0
 21 22  1  0
 22 23  1  0
 23 24  2  0
 23 25  1  0
 25 26  1  0
 26 27  1  0
 16  4  1  0
 26 21  2  0
 15  6  1  0
M  CHG  4  16  -1  22  -1  25  -1  27  -1
M  END
>  <UniqueID>  (50) 
47

>  <SMILES>  (50) 
C/C(=C/c1[n-]c(=O)[n-]c1[O-])c1nc2ccccc2[n-]1

>  <Energy>  (50) 
101.16247565818054

>  <Genealogy>  (50) 
CC(=Cc1[n-]c(=O)[n-]c1[O-])c1nc2ccccc2[n-]1 (protonated)
C/C(=C/c1[n-]c(=O)[n-]c1[O-])c1nc2ccccc2[n-]1 (cis-trans isomerization)
C/C(=C/c1[n-]c(=O)[n-]c1[O-])c1nc2ccccc2[n-]1 (3D coordinates assigned)
C/C(=C/c1[n-]c(=O)[n-]c1[O-])c1nc2ccccc2[n-]1 (optimized conformer: 101.16247565818054 kcal/mol)

>  <smiles>  (50) 
CC(=Cc1[nH]c(=O)[nH]c1O)c1nc2ccccc2[nH]1

>  <score_type>  (50) 
oracle

>  <origin>  (50) 
adg

>  <m_score__min__energy>  (50) 
-17.059999999999999

>  <m_primary>  (50) 
energy

$$$$
50:0
     RDKit          3D

 51 53  0  0  0  0  0  0  0  0999 V2000
   56.6250   25.0320   46.3530 C   0  0  0  0  0  0  0  0  0  0  0  0
   55.6070   26.0670   45.9810 C   0  0  0  0  0  0  0  0  0  0  0  0
   54.3890   25.7490   45.9680 O   0  0  0  0  0  0  0  0  0  0  0  0
   55.9730   27.4180   45.6760 N   0  0  0  0  0  0  0  0  0  0  0  0
   57.5490   27.9220   45.1560 S   0  0  0  0  0  0  0  0  0  0  0  0
   57.8090   27.3850   43.7770 O   0  0  0  0  0  0  0  0  0  0  0  0
   58.5800   27.3620   46.0960 O   0  0  0  0  0  0  0  0  0  0  0  0
   57.6370   29.6800   45.1030 C   0  0  0  0  0  0  0  0  0  0  0  0
   58.1250   30.4050   46.1970 C   0  0  0  0  0  0  0  0  0  0  0  0
   58.1220   31.8020   46.1720 C   0  0  0  0  0  0  0  0  0  0  0  0
   57.6430   32.4880   45.0450 C   0  0  0  0  0  0  0  0  0  0  0  0
   57.5250   33.9870   45.0680 C   0  0  0  0  0  0  0  0  0  0  0  0
   58.8870   34.5800   45.2320 C   0  0  0  0  0  0  0  0  0  0  0  0
   59.6420   34.7070   44.2300 O   0  0  0  0  0  0  0  0  0  0  0  0
   59.3340   34.9660   46.5360 N   0  0  0  0  0  0  0  0  0  0  0  0
   60.3580   34.3140   47.2980 C   0  0  0  0  0  0  0  0  0  0  0  0
   61.4810   33.8130   46.6270 C   0  0  0  0  0  0  0  0  0  0  0  0
   62.5320   33.2340   47.3420 C   0  0  0  0  0  0  0  0  0  0  0  0
   62.4840   33.1690   48.7420 C   0  0  0  0  0  0  0  0  0  0  0  0
   63.6140   32.5870   49.4940 C   0  0  0  0  0  0  0  0  0  0  0  0
   64.8540   33.2470   49.4500 C   0  0  0  0  0  0  0  0  0  0  0  0
   65.9570   32.7290   50.1310 C   0  0  0  0  0  0  0  0  0  0  0  0
   65.8350   31.5490   50.8640 C   0  0  0  0  0  0  0  0  0  0  0  0
   64.6070   30.8870   50.9260 C   0  0  0  0  0  0  0  0  0  0  0  0
   63.4830   31.3980   50.2570 C   0  0  0  0  0  0  0  0  0  0  0  0
   61.9400   30.5400   50.4180 S   0  0  0  0  0  0  0  0  0  0  0  0
   60.9170   31.3470   51.5540 N   0  0  0  0  0  0  0  0  0  0  0  0
   61.2590   30.4750   49.0800 O   0  0  0  0  0  0  0  0  0  0  0  0
   62.1820   29.1420   50.9140 O   0  0  0  0  0  0  0  0  0  0  0  0
   61.3560   33.6600   49.4170 C   0  0  0  0  0  0  0  0  0  0  0  0
   60.3050   34.2410   48.7010 C   0  0  0  0  0  0  0  0  0  0  0  0
   57.1640   31.7580   43.9450 C   0  0  0  0  0  0  0  0  0  0  0  0
   57.1660   30.3620   43.9750 C   0  0  0  0  0  0  0  0  0  0  0  0
   56.6935   24.9623   47.4486 H   0  0  0  0  0  0  0  0  0  0  0  0
   56.3240   24.0572   45.9417 H   0  0  0  0  0  0  0  0  0  0  0  0
   57.6047   25.3168   45.9417 H   0  0  0  0  0  0  0  0  0  0  0  0
   58.5119   29.8732   47.0787 H   0  0  0  0  0  0  0  0  0  0  0  0
   58.4964   32.3663   47.0388 H   0  0  0  0  0  0  0  0  0  0  0  0
   57.0818   34.3366   44.1238 H   0  0  0  0  0  0  0  0  0  0  0  0
   56.8818   34.2963   45.9051 H   0  0  0  0  0  0  0  0  0  0  0  0
   61.5355   33.8760   45.5302 H   0  0  0  0  0  0  0  0  0  0  0  0
   63.4012   32.8272   46.8045 H   0  0  0  0  0  0  0  0  0  0  0  0
   64.9562   34.1789   48.8745 H   0  0  0  0  0  0  0  0  0  0  0  0
   66.9236   33.2523   50.0894 H   0  0  0  0  0  0  0  0  0  0  0  0
   66.7073   31.1391   51.3941 H   0  0  0  0  0  0  0  0  0  0  0  0
   64.5192   29.9557   51.5048 H   0  0  0  0  0  0  0  0  0  0  0  0
   61.5290   31.6910   52.3270 H   0  0  0  0  0  0  0  0  0  0  0  0
   61.2984   33.5875   50.5131 H   0  0  0  0  0  0  0  0  0  0  0  0
   59.4329   34.6427   49.2377 H   0  0  0  0  0  0  0  0  0  0  0  0
   56.7864   32.2872   43.0577 H   0  0  0  0  0  0  0  0  0  0  0  0
   56.7956   29.7954   43.1079 H   0  0  0  0  0  0  0  0  0  0  0  0
  1  2  1  0
  2  3  2  0
  2  4  1  0
  4  5  1  0
  5  6  2  0
  5  7  2  0
  5  8  1  0
  8  9  2  0
  9 10  1  0
 10 11  2  0
 11 12  1  0
 12 13  1  0
 13 14  2  0
 13 15  1  0
 15 16  1  0
 16 17  2  0
 17 18  1  0
 18 19  2  0
 19 20  1  0
 20 21  2  0
 21 22  1  0
 22 23  2  0
 23 24  1  0
 24 25  2  0
 25 26  1  0
 26 27  1  0
 26 28  2  0
 26 29  2  0
 19 30  1  0
 30 31  2  0
 11 32  1  0
 32 33  2  0
 33  8  1  0
 31 16  1  0
 25 20  1  0
  1 34  1  0
  1 35  1  0
  1 36  1  0
  9 37  1  0
 10 38  1  0
 12 39  1  0
 12 40  1  0
 17 41  1  0
 18 42  1  0
 21 43  1  0
 22 44  1  0
 23 45  1  0
 24 46  1  0
 27 47  1  0
 30 48  1  0
 31 49  1  0
 32 50  1  0
 33 51  1  0
M  CHG  3   4  -1  15  -1  27  -1
M  END
>  <UniqueID>  (51) 
48

>  <SMILES>  (51) 
CC(=O)[N-]S(=O)(=O)c1ccc(CC(=O)[N-]c2ccc(-c3ccccc3S([NH-])(=O)=O)cc2)cc1

>  <Energy>  (51) 
62.19856159116747

>  <Genealogy>  (51) 
CC(=O)[N-]S(=O)(=O)c1ccc(CC(=O)[N-]c2ccc(-c3ccccc3S([NH-])(=O)=O)cc2)cc1 (protonated)
CC(=O)[N-]S(=O)(=O)c1ccc(CC(=O)[N-]c2ccc(-c3ccccc3S([NH-])(=O)=O)cc2)cc1 (3D coordinates assigned)
CC(=O)[N-]S(=O)(=O)c1ccc(CC(=O)[N-]c2ccc(-c3ccccc3S([NH-])(=O)=O)cc2)cc1 (optimized conformer: 62.19856159116747 kcal/mol)

>  <smiles>  (51) 
CC(=O)NS(=O)(=O)c1ccc(CC(=O)Nc2ccc(-c3ccccc3S(N)(=O)=O)cc2)cc1

>  <score_type>  (51) 
oracle

>  <origin>  (51) 
adg

>  <m_score__min__energy>  (51) 
-13.859999999999999

>  <m_primary>  (51) 
energy

$$$$
51:0
     RDKit          3D

 26 27  0  0  0  0  0  0  0  0999 V2000
   52.4244   29.3872   54.3600 H   0  0  0  0  0  0  0  0  0  0  0  0
   52.9280   29.4490   53.3840 C   0  0  0  0  0  0  0  0  0  0  0  0
   54.0560   28.7390   53.2260 C   0  0  0  0  0  0  0  0  0  0  0  0
   53.9777   27.6436   53.2894 H   0  0  0  0  0  0  0  0  0  0  0  0
   55.3980   29.3130   52.9730 C   0  0  0  0  0  0  0  0  0  0  0  0
   55.5420   30.6030   52.4300 C   0  0  0  0  0  0  0  0  0  0  0  0
   54.6483   31.1899   52.1713 H   0  0  0  0  0  0  0  0  0  0  0  0
   56.8140   31.1440   52.2170 C   0  0  0  0  0  0  0  0  0  0  0  0
   56.9410   32.4140   51.6670 O   0  0  0  0  0  0  0  0  0  0  0  0
   57.9530   30.4100   52.5630 C   0  0  0  0  0  0  0  0  0  0  0  0
   59.2190   30.9420   52.3520 O   0  0  0  0  0  0  0  0  0  0  0  0
   57.8190   29.1380   53.1280 C   0  0  0  0  0  0  0  0  0  0  0  0
   58.7157   28.5649   53.4062 H   0  0  0  0  0  0  0  0  0  0  0  0
   56.5480   28.5910   53.3410 C   0  0  0  0  0  0  0  0  0  0  0  0
   56.4380   27.3250   53.9070 O   0  0  0  0  0  0  0  0  0  0  0  0
   52.3070   30.3080   52.3520 C   0  0  0  0  0  0  0  0  0  0  0  0
   52.3300   29.8910   51.0120 C   0  0  0  0  0  0  0  0  0  0  0  0
   52.7904   28.9278   50.7469 H   0  0  0  0  0  0  0  0  0  0  0  0
   51.7710   30.6930   50.0120 C   0  0  0  0  0  0  0  0  0  0  0  0
   51.7791   30.3520   48.9662 H   0  0  0  0  0  0  0  0  0  0  0  0
   51.2020   31.9270   50.3390 C   0  0  0  0  0  0  0  0  0  0  0  0
   50.6450   32.7180   49.3400 O   0  0  0  0  0  0  0  0  0  0  0  0
   51.2010   32.3660   51.6680 C   0  0  0  0  0  0  0  0  0  0  0  0
   50.6490   33.5990   51.9960 O   0  0  0  0  0  0  0  0  0  0  0  0
   51.7600   31.5650   52.6690 C   0  0  0  0  0  0  0  0  0  0  0  0
   51.7721   31.9198   53.7101 H   0  0  0  0  0  0  0  0  0  0  0  0
  1  2  1  0
  2  3  2  0
  3  4  1  0
  3  5  1  0
  5  6  2  0
  6  7  1  0
  6  8  1  0
  8  9  1  0
  8 10  2  0
 10 11  1  0
 10 12  1  0
 12 13  1  0
 12 14  2  0
 14 15  1  0
  2 16  1  0
 16 17  2  0
 17 18  1  0
 17 19  1  0
 19 20  1  0
 19 21  2  0
 21 22  1  0
 21 23  1  0
 23 24  1  0
 23 25  2  0
 25 26  1  0
 14  5  1  0
 25 16  1  0
M  CHG  5   9  -1  11  -1  15  -1  22  -1  24  -1
M  END
>  <UniqueID>  (52) 
49

>  <SMILES>  (52) 
[O-]c1ccc(/C=C\c2cc([O-])c([O-])cc2[O-])cc1[O-]

>  <Energy>  (52) 
37.86098714024326

>  <Genealogy>  (52) 
[O-]c1ccc(C=Cc2cc([O-])c([O-])cc2[O-])cc1[O-] (protonated)
[O-]c1ccc(/C=C\c2cc([O-])c([O-])cc2[O-])cc1[O-] (cis-trans isomerization)
[O-]c1ccc(/C=C\c2cc([O-])c([O-])cc2[O-])cc1[O-] (3D coordinates assigned)
[O-]c1ccc(/C=C\c2cc([O-])c([O-])cc2[O-])cc1[O-] (optimized conformer: 37.86098714024326 kcal/mol)

>  <smiles>  (52) 
Oc1ccc(C=Cc2cc(O)c(O)cc2O)cc1O

>  <score_type>  (52) 
oracle

>  <origin>  (52) 
adg

>  <m_score__min__energy>  (52) 
-17.579999999999998

>  <m_primary>  (52) 
energy

$$$$
52:0
     RDKit          3D

 53 56  0  0  0  0  0  0  0  0999 V2000
   57.4110   21.8820   44.3530 C   0  0  0  0  0  0  0  0  0  0  0  0
   56.5340   23.1140   44.1240 C   0  0  1  0  0  0  0  0  0  0  0  0
   56.5830   24.1000   45.3280 C   0  0  0  0  0  0  0  0  0  0  0  0
   57.0830   25.3620   44.7150 C   0  0  0  0  0  0  0  0  0  0  0  0
   57.3040   26.5930   45.3330 C   0  0  0  0  0  0  0  0  0  0  0  0
   57.7870   27.6700   44.5550 C   0  0  0  0  0  0  0  0  0  0  0  0
   58.0380   29.0050   45.1500 C   0  0  0  0  0  0  0  0  0  0  0  0
   58.0660   29.1170   46.4060 O   0  0  0  0  0  0  0  0  0  0  0  0
   58.2620   30.1660   44.3300 N   0  0  0  0  0  0  0  0  0  0  0  0
   58.4270   31.4820   44.8800 C   0  0  0  0  0  0  0  0  0  0  0  0
   58.9050   31.6220   46.1910 C   0  0  0  0  0  0  0  0  0  0  0  0
   59.0550   32.8940   46.7620 C   0  0  0  0  0  0  0  0  0  0  0  0
   59.5890   33.0570   48.4340 S   0  0  0  0  0  0  0  0  0  0  0  0
   59.6570   34.5150   48.7940 O   0  0  0  0  0  0  0  0  0  0  0  0
   58.5800   32.4050   49.3380 O   0  0  0  0  0  0  0  0  0  0  0  0
   61.1620   32.3350   48.6910 N   0  0  0  0  0  0  0  0  0  0  0  0
   61.7290   31.7550   47.4510 C   0  0  0  0  0  0  0  0  0  0  0  0
   63.2190   32.0590   47.2620 C   0  0  0  0  0  0  0  0  0  0  0  0
   63.4400   33.5670   47.3230 C   0  0  0  0  0  0  0  0  0  0  0  0
   62.9030   34.1780   48.6310 C   0  0  0  0  0  0  0  0  0  0  0  0
   62.0620   33.2040   49.4820 C   0  0  0  0  0  0  0  0  0  0  0  0
   58.7640   34.0320   45.9980 C   0  0  0  0  0  0  0  0  0  0  0  0
   58.3200   33.9010   44.6820 C   0  0  0  0  0  0  0  0  0  0  0  0
   58.1570   32.6330   44.1160 C   0  0  0  0  0  0  0  0  0  0  0  0
   57.7540   32.5270   42.7900 O   0  0  0  0  0  0  0  0  0  0  0  0
   58.0130   27.4720   43.1700 C   0  0  0  0  0  0  0  0  0  0  0  0
   57.7780   26.2210   42.5770 C   0  0  0  0  0  0  0  0  0  0  0  0
   57.3180   25.1850   43.3830 C   0  0  0  0  0  0  0  0  0  0  0  0
   57.0180   23.8700   42.9690 N   0  0  0  0  0  0  0  0  0  0  0  0
   57.5312   21.7132   45.4333 H   0  0  0  0  0  0  0  0  0  0  0  0
   56.9346   21.0025   43.8952 H   0  0  0  0  0  0  0  0  0  0  0  0
   58.3980   22.0443   43.8952 H   0  0  0  0  0  0  0  0  0  0  0  0
   55.5109   22.7372   43.9781 H   0  0  0  0  0  0  0  0  0  0  0  0
   55.5824   24.2420   45.7624 H   0  0  0  0  0  0  0  0  0  0  0  0
   57.2156   23.7415   46.1534 H   0  0  0  0  0  0  0  0  0  0  0  0
   57.1059   26.7234   46.4071 H   0  0  0  0  0  0  0  0  0  0  0  0
   58.4200   30.0600   43.3040 H   0  0  0  0  0  0  0  0  0  0  0  0
   59.1642   30.7272   46.7759 H   0  0  0  0  0  0  0  0  0  0  0  0
   61.5976   30.6634   47.4850 H   0  0  0  0  0  0  0  0  0  0  0  0
   61.1948   32.2124   46.6052 H   0  0  0  0  0  0  0  0  0  0  0  0
   63.7973   31.5707   48.0602 H   0  0  0  0  0  0  0  0  0  0  0  0
   63.5507   31.6782   46.2848 H   0  0  0  0  0  0  0  0  0  0  0  0
   64.5187   33.7707   47.2528 H   0  0  0  0  0  0  0  0  0  0  0  0
   62.8927   34.0241   46.4854 H   0  0  0  0  0  0  0  0  0  0  0  0
   63.7603   34.5118   49.2339 H   0  0  0  0  0  0  0  0  0  0  0  0
   62.2372   35.0056   48.3448 H   0  0  0  0  0  0  0  0  0  0  0  0
   62.7490   32.5619   50.0527 H   0  0  0  0  0  0  0  0  0  0  0  0
   61.4208   33.8200   50.1296 H   0  0  0  0  0  0  0  0  0  0  0  0
   58.8862   35.0328   46.4378 H   0  0  0  0  0  0  0  0  0  0  0  0
   58.0972   34.7991   44.0872 H   0  0  0  0  0  0  0  0  0  0  0  0
   58.3763   28.3071   42.5530 H   0  0  0  0  0  0  0  0  0  0  0  0
   57.9532   26.0644   41.5024 H   0  0  0  0  0  0  0  0  0  0  0  0
   57.0920   23.5070   41.9910 H   0  0  0  0  0  0  0  0  0  0  0  0
  1  2  1  0
  2  3  1  0
  3  4  1  0
  4  5  2  0
  5  6  1  0
  6  7  1  0
  7  8  2  0
  7  9  1  0
  9 10  1  0
 10 11  2  0
 11 12  1  0
 12 13  1  0
 13 14  2  0
 13 15  2  0
 13 16  1  0
 16 17  1  0
 17 18  1  0
 18 19  1  0
 19 20  1  0
 20 21  1  0
 12 22  2  0
 22 23  1  0
 23 24  2  0
 24 25  1  0
  6 26  2  0
 26 27  1  0
 27 28  2  0
 28 29  1  0
 29  2  1  0
 28  4  1  0
 24 10  1  0
 21 16  1  0
  1 30  1  0
  1 31  1  0
  1 32  1  0
  2 33  1  6
  3 34  1  0
  3 35  1  0
  5 36  1  0
  9 37  1  0
 11 38  1  0
 17 39  1  0
 17 40  1  0
 18 41  1  0
 18 42  1  0
 19 43  1  0
 19 44  1  0
 20 45  1  0
 20 46  1  0
 21 47  1  0
 21 48  1  0
 22 49  1  0
 23 50  1  0
 26 51  1  0
 27 52  1  0
 29 53  1  0
M  CHG  1  25  -1
M  END
>  <UniqueID>  (53) 
50

>  <SMILES>  (53) 
C[C@H]1Cc2cc(C(=O)Nc3cc(S(=O)(=O)N4CCCCC4)ccc3[O-])ccc2N1

>  <Energy>  (53) 
82.91421228331355

>  <Genealogy>  (53) 
CC1Cc2cc(C(=O)Nc3cc(S(=O)(=O)N4CCCCC4)ccc3[O-])ccc2N1 (protonated)
C[C@H]1Cc2cc(C(=O)Nc3cc(S(=O)(=O)N4CCCCC4)ccc3[O-])ccc2N1 (chirality)
C[C@H]1Cc2cc(C(=O)Nc3cc(S(=O)(=O)N4CCCCC4)ccc3[O-])ccc2N1 (3D coordinates assigned)
C[C@H]1Cc2cc(C(=O)Nc3cc(S(=O)(=O)N4CCCCC4)ccc3[O-])ccc2N1 (nonaromatic ring conformer: 82.91421228331355 kcal/mol)

>  <smiles>  (53) 
CC1Cc2cc(C(=O)Nc3cc(S(=O)(=O)N4CCCCC4)ccc3O)ccc2N1

>  <score_type>  (53) 
oracle

>  <origin>  (53) 
adg

>  <m_score__min__energy>  (53) 
-11.42

>  <m_primary>  (53) 
energy

$$$$
53:0
     RDKit          3D

 46 48  0  0  0  0  0  0  0  0999 V2000
   53.8260   29.7870   51.9940 C   0  0  0  0  0  0  0  0  0  0  0  0
   54.7660   30.8570   51.6690 N   0  0  0  0  0  0  0  0  0  0  0  0
   56.1670   30.7970   51.9730 C   0  0  0  0  0  0  0  0  0  0  0  0
   56.7450   29.6910   53.0480 S   0  0  0  0  0  0  0  0  0  0  0  0
   57.0770   31.6310   51.2300 N   0  0  0  0  0  0  0  0  0  0  0  0
   58.4260   31.2320   50.9400 C   0  0  0  0  0  0  0  0  0  0  0  0
   59.5280   31.9180   51.5020 C   0  0  0  0  0  0  0  0  0  0  0  0
   60.8350   31.5090   51.2090 C   0  0  0  0  0  0  0  0  0  0  0  0
   61.0490   30.4010   50.3740 C   0  0  0  0  0  0  0  0  0  0  0  0
   59.9560   29.7120   49.8140 C   0  0  0  0  0  0  0  0  0  0  0  0
   60.1080   28.5510   48.9950 N   0  0  0  0  0  0  0  0  0  0  0  0
   60.3010   28.4600   47.2780 S   0  0  0  0  0  0  0  0  0  0  0  0
   60.9350   27.1560   46.8790 O   0  0  0  0  0  0  0  0  0  0  0  0
   61.1420   29.6150   46.7920 O   0  0  0  0  0  0  0  0  0  0  0  0
   58.6740   28.5950   46.6050 C   0  0  0  0  0  0  0  0  0  0  0  0
   57.8720   27.4670   46.3780 C   0  0  0  0  0  0  0  0  0  0  0  0
   56.6540   27.6090   45.6950 C   0  0  0  0  0  0  0  0  0  0  0  0
   56.2520   28.8640   45.2140 C   0  0  0  0  0  0  0  0  0  0  0  0
   55.0610   28.9800   44.5020 O   0  0  0  0  0  0  0  0  0  0  0  0
   57.0500   29.9930   45.4320 C   0  0  0  0  0  0  0  0  0  0  0  0
   56.6480   31.2580   44.8820 N   0  0  0  0  0  0  0  0  0  0  0  0
   57.6860   32.6530   44.8550 S   0  0  0  0  0  0  0  0  0  0  0  0
   56.8580   33.9060   44.7850 O   0  0  0  0  0  0  0  0  0  0  0  0
   58.6050   32.5950   43.6680 O   0  0  0  0  0  0  0  0  0  0  0  0
   58.6310   32.7440   46.3300 C   0  0  0  0  0  0  0  0  0  0  0  0
   58.1360   33.0790   47.5760 C   0  0  0  0  0  0  0  0  0  0  0  0
   59.1420   33.3130   48.5290 C   0  0  0  0  0  0  0  0  0  0  0  0
   60.4310   33.1730   48.0340 C   0  0  0  0  0  0  0  0  0  0  0  0
   60.3110   32.7730   46.4020 S   0  0  0  0  0  0  0  0  0  0  0  0
   58.2380   29.8540   46.1780 C   0  0  0  0  0  0  0  0  0  0  0  0
   58.6580   30.1470   50.0850 C   0  0  0  0  0  0  0  0  0  0  0  0
   53.7423   29.6918   53.0867 H   0  0  0  0  0  0  0  0  0  0  0  0
   52.8392   30.0245   51.5700 H   0  0  0  0  0  0  0  0  0  0  0  0
   54.1887   28.8390   51.5700 H   0  0  0  0  0  0  0  0  0  0  0  0
   54.4500   31.5380   50.9430 H   0  0  0  0  0  0  0  0  0  0  0  0
   56.6520   32.3080   50.5550 H   0  0  0  0  0  0  0  0  0  0  0  0
   59.3580   32.7747   52.1707 H   0  0  0  0  0  0  0  0  0  0  0  0
   61.6915   32.0544   51.6320 H   0  0  0  0  0  0  0  0  0  0  0  0
   62.0750   30.0695   50.1562 H   0  0  0  0  0  0  0  0  0  0  0  0
   58.1955   26.4774   46.7329 H   0  0  0  0  0  0  0  0  0  0  0  0
   56.0108   26.7309   45.5359 H   0  0  0  0  0  0  0  0  0  0  0  0
   57.0616   33.1549   47.7996 H   0  0  0  0  0  0  0  0  0  0  0  0
   58.9271   33.5829   49.5735 H   0  0  0  0  0  0  0  0  0  0  0  0
   61.3629   33.3003   48.6044 H   0  0  0  0  0  0  0  0  0  0  0  0
   58.8299   30.7469   46.4276 H   0  0  0  0  0  0  0  0  0  0  0  0
   57.8050   29.6305   49.6206 H   0  0  0  0  0  0  0  0  0  0  0  0
  1  2  1  0
  2  3  1  0
  3  4  2  0
  3  5  1  0
  5  6  1  0
  6  7  2  0
  7  8  1  0
  8  9  2  0
  9 10  1  0
 10 11  1  0
 11 12  1  0
 12 13  2  0
 12 14  2  0
 12 15  1  0
 15 16  2  0
 16 17  1  0
 17 18  2  0
 18 19  1  0
 18 20  1  0
 20 21  1  0
 21 22  1  0
 22 23  2  0
 22 24  2  0
 22 25  1  0
 25 26  2  0
 26 27  1  0
 27 28  2  0
 28 29  1  0
 20 30  2  0
 10 31  2  0
 31  6  1  0
 30 15  1  0
 29 25  1  0
  1 32  1  0
  1 33  1  0
  1 34  1  0
  2 35  1  0
  5 36  1  0
  7 37  1  0
  8 38  1  0
  9 39  1  0
 16 40  1  0
 17 41  1  0
 26 42  1  0
 27 43  1  0
 28 44  1  0
 30 45  1  0
 31 46  1  0
M  CHG  3  11  -1  19  -1  21  -1
M  END
>  <UniqueID>  (54) 
51

>  <SMILES>  (54) 
CNC(=S)Nc1cccc([N-]S(=O)(=O)c2ccc([O-])c([N-]S(=O)(=O)c3cccs3)c2)c1

>  <Energy>  (54) 
94.9281694792195

>  <Genealogy>  (54) 
CNC(=S)Nc1cccc([N-]S(=O)(=O)c2ccc([O-])c([N-]S(=O)(=O)c3cccs3)c2)c1 (protonated)
CNC(=S)Nc1cccc([N-]S(=O)(=O)c2ccc([O-])c([N-]S(=O)(=O)c3cccs3)c2)c1 (3D coordinates assigned)
CNC(=S)Nc1cccc([N-]S(=O)(=O)c2ccc([O-])c([N-]S(=O)(=O)c3cccs3)c2)c1 (optimized conformer: 94.9281694792195 kcal/mol)

>  <smiles>  (54) 
CNC(=S)Nc1cccc(NS(=O)(=O)c2ccc(O)c(NS(=O)(=O)c3cccs3)c2)c1

>  <score_type>  (54) 
oracle

>  <origin>  (54) 
adg

>  <m_score__min__energy>  (54) 
-15.15

>  <m_primary>  (54) 
energy

$$$$
54:0
     RDKit          3D

 45 47  0  0  0  0  0  0  0  0999 V2000
   64.8590   32.6240   49.3750 C   0  0  0  0  0  0  0  0  0  0  0  0
   63.4800   32.0480   49.3540 C   0  0  0  0  0  0  0  0  0  0  0  0
   62.5100   32.5660   48.4930 C   0  0  0  0  0  0  0  0  0  0  0  0
   61.2170   32.0270   48.4920 C   0  0  0  0  0  0  0  0  0  0  0  0
   60.2010   32.6480   47.6110 C   0  0  0  0  0  0  0  0  0  0  0  0
   59.9240   32.0500   46.3710 C   0  0  0  0  0  0  0  0  0  0  0  0
   58.9600   32.5960   45.5200 C   0  0  0  0  0  0  0  0  0  0  0  0
   58.2610   33.7410   45.9020 C   0  0  0  0  0  0  0  0  0  0  0  0
   58.5260   34.3490   47.1310 C   0  0  0  0  0  0  0  0  0  0  0  0
   59.5040   33.8210   47.9920 C   0  0  0  0  0  0  0  0  0  0  0  0
   59.7720   34.5000   49.3080 C   0  0  0  0  0  0  0  0  0  0  0  0
   60.9020   30.9590   49.3700 C   0  0  0  0  0  0  0  0  0  0  0  0
   59.5530   30.3340   49.3850 C   0  0  0  0  0  0  0  0  0  0  0  0
   58.6030   30.8970   49.9920 O   0  0  0  0  0  0  0  0  0  0  0  0
   59.3470   29.0660   48.7450 N   0  0  0  0  0  0  0  0  0  0  0  0
   59.1840   28.8370   47.3390 C   0  0  0  0  0  0  0  0  0  0  0  0
   60.1700   28.1120   46.6590 C   0  0  0  0  0  0  0  0  0  0  0  0
   60.0540   27.8760   45.2870 C   0  0  0  0  0  0  0  0  0  0  0  0
   58.9600   28.3780   44.5790 C   0  0  0  0  0  0  0  0  0  0  0  0
   57.9840   29.1350   45.2390 C   0  0  0  0  0  0  0  0  0  0  0  0
   56.6060   29.7810   44.3510 S   0  0  0  0  0  0  0  0  0  0  0  0
   56.7430   29.3540   42.6820 N   0  0  0  0  0  0  0  0  0  0  0  0
   55.3320   29.2150   44.9120 O   0  0  0  0  0  0  0  0  0  0  0  0
   56.5670   31.2770   44.4820 O   0  0  0  0  0  0  0  0  0  0  0  0
   58.0970   29.3650   46.6180 C   0  0  0  0  0  0  0  0  0  0  0  0
   61.9180   30.4770   50.2250 C   0  0  0  0  0  0  0  0  0  0  0  0
   61.6980   29.5200   51.0140 O   0  0  0  0  0  0  0  0  0  0  0  0
   63.1580   31.0290   50.1930 N   0  0  0  0  0  0  0  0  0  0  0  0
   65.1839   32.7597   50.4171 H   0  0  0  0  0  0  0  0  0  0  0  0
   65.5502   31.9394   48.8617 H   0  0  0  0  0  0  0  0  0  0  0  0
   64.8579   33.5969   48.8617 H   0  0  0  0  0  0  0  0  0  0  0  0
   62.7610   33.3962   47.8165 H   0  0  0  0  0  0  0  0  0  0  0  0
   60.4702   31.1447   46.0674 H   0  0  0  0  0  0  0  0  0  0  0  0
   58.7522   32.1230   44.5488 H   0  0  0  0  0  0  0  0  0  0  0  0
   57.4985   34.1665   45.2330 H   0  0  0  0  0  0  0  0  0  0  0  0
   57.9653   35.2477   47.4276 H   0  0  0  0  0  0  0  0  0  0  0  0
   59.5043   33.8219   50.1317 H   0  0  0  0  0  0  0  0  0  0  0  0
   60.8392   34.7575   49.3771 H   0  0  0  0  0  0  0  0  0  0  0  0
   59.1683   35.4170   49.3771 H   0  0  0  0  0  0  0  0  0  0  0  0
   61.0413   27.7259   47.2084 H   0  0  0  0  0  0  0  0  0  0  0  0
   60.8262   27.2934   44.7632 H   0  0  0  0  0  0  0  0  0  0  0  0
   58.8647   28.1786   43.5014 H   0  0  0  0  0  0  0  0  0  0  0  0
   57.7280   29.5530   42.3960 H   0  0  0  0  0  0  0  0  0  0  0  0
   56.6150   28.3190   42.6190 H   0  0  0  0  0  0  0  0  0  0  0  0
   57.3325   29.9608   47.1382 H   0  0  0  0  0  0  0  0  0  0  0  0
  1  2  1  0
  2  3  2  0
  3  4  1  0
  4  5  1  0
  5  6  2  0
  6  7  1  0
  7  8  2  0
  8  9  1  0
  9 10  2  0
 10 11  1  0
  4 12  2  0
 12 13  1  0
 13 14  2  0
 13 15  1  0
 15 16  1  0
 16 17  2  0
 17 18  1  0
 18 19  2  0
 19 20  1  0
 20 21  1  0
 21 22  1  0
 21 23  2  0
 21 24  2  0
 20 25  2  0
 12 26  1  0
 26 27  2  0
 26 28  1  0
 28  2  1  0
 10  5  1  0
 25 16  1  0
  1 29  1  0
  1 30  1  0
  1 31  1  0
  3 32  1  0
  6 33  1  0
  7 34  1  0
  8 35  1  0
  9 36  1  0
 11 37  1  0
 11 38  1  0
 11 39  1  0
 17 40  1  0
 18 41  1  0
 19 42  1  0
 22 43  1  0
 22 44  1  0
 25 45  1  0
M  CHG  2  15  -1  28  -1
M  END
>  <UniqueID>  (55) 
52

>  <SMILES>  (55) 
Cc1cc(-c2ccccc2C)c(C(=O)[N-]c2cccc(S(N)(=O)=O)c2)c(=O)[n-]1

>  <Energy>  (55) 
62.07789761448353

>  <Genealogy>  (55) 
Cc1cc(-c2ccccc2C)c(C(=O)[N-]c2cccc(S(N)(=O)=O)c2)c(=O)[n-]1 (protonated)
Cc1cc(-c2ccccc2C)c(C(=O)[N-]c2cccc(S(N)(=O)=O)c2)c(=O)[n-]1 (3D coordinates assigned)
Cc1cc(-c2ccccc2C)c(C(=O)[N-]c2cccc(S(N)(=O)=O)c2)c(=O)[n-]1 (optimized conformer: 62.07789761448353 kcal/mol)

>  <smiles>  (55) 
Cc1cc(-c2ccccc2C)c(C(=O)Nc2cccc(S(N)(=O)=O)c2)c(=O)[nH]1

>  <score_type>  (55) 
oracle

>  <origin>  (55) 
adg

>  <m_score__min__energy>  (55) 
-11.470000000000001

>  <m_primary>  (55) 
energy

$$$$
55:0
     RDKit          3D

 49 52  0  0  0  0  0  0  0  0999 V2000
   57.5686   25.7846   43.5532 H   0  0  0  0  0  0  0  0  0  0  0  0
   57.4910   26.1350   44.5930 C   0  0  0  0  0  0  0  0  0  0  0  0
   56.9120   25.2040   45.5750 C   0  0  0  0  0  0  0  0  0  0  0  0
   57.5630   24.1570   46.1160 N   0  0  0  0  0  0  0  0  0  0  0  0
   56.6940   23.6970   47.0430 C   0  0  0  0  0  0  0  0  0  0  0  0
   56.9410   22.6940   47.7620 O   0  0  0  0  0  0  0  0  0  0  0  0
   55.5480   24.4020   47.1450 N   0  0  0  0  0  0  0  0  0  0  0  0
   55.7100   25.3600   46.2180 C   0  0  0  0  0  0  0  0  0  0  0  0
   54.7780   26.3610   45.9710 O   0  0  0  0  0  0  0  0  0  0  0  0
   57.9340   27.3790   44.8580 C   0  0  0  0  0  0  0  0  0  0  0  0
   57.7830   28.4340   43.9730 C   0  0  0  0  0  0  0  0  0  0  0  0
   57.3609   28.3827   42.9585 H   0  0  0  0  0  0  0  0  0  0  0  0
   58.2630   29.5610   44.6070 C   0  0  0  0  0  0  0  0  0  0  0  0
   58.2700   30.9350   44.0070 C   0  0  0  0  0  0  0  0  0  0  0  0
   58.2738   31.6860   44.8107 H   0  0  0  0  0  0  0  0  0  0  0  0
   59.1688   31.0589   43.3851 H   0  0  0  0  0  0  0  0  0  0  0  0
   57.3725   31.0681   43.3851 H   0  0  0  0  0  0  0  0  0  0  0  0
   58.7500   29.2430   45.8280 N   0  0  0  0  0  0  0  0  0  0  0  0
   59.3640   30.1590   46.7530 C   0  0  0  0  0  0  0  0  0  0  0  0
   58.8330   30.3300   48.0390 C   0  0  0  0  0  0  0  0  0  0  0  0
   57.9426   29.7606   48.3438 H   0  0  0  0  0  0  0  0  0  0  0  0
   59.4300   31.2210   48.9360 C   0  0  0  0  0  0  0  0  0  0  0  0
   59.0040   31.3541   49.9414 H   0  0  0  0  0  0  0  0  0  0  0  0
   60.5720   31.9470   48.5580 C   0  0  0  0  0  0  0  0  0  0  0  0
   61.1940   32.9380   49.5070 C   0  0  0  0  0  0  0  0  0  0  0  0
   61.2650   32.4818   50.5054 H   0  0  0  0  0  0  0  0  0  0  0  0
   62.1921   33.2022   49.1274 H   0  0  0  0  0  0  0  0  0  0  0  0
   60.3600   34.2170   49.6020 C   0  0  0  0  0  0  0  0  0  0  0  0
   59.3444   33.9647   49.9409 H   0  0  0  0  0  0  0  0  0  0  0  0
   60.8341   34.9035   50.3189 H   0  0  0  0  0  0  0  0  0  0  0  0
   60.2860   34.8670   48.2940 N   0  0  0  0  0  0  0  0  0  0  0  0
   59.4620   34.5670   47.3320 C   0  0  0  0  0  0  0  0  0  0  0  0
   58.3480   33.8460   47.6320 N   0  0  0  0  0  0  0  0  0  0  0  0
   57.4370   33.4890   46.6870 C   0  0  0  0  0  0  0  0  0  0  0  0
   56.5490   32.9058   46.9723 H   0  0  0  0  0  0  0  0  0  0  0  0
   57.6280   33.8620   45.3560 C   0  0  0  0  0  0  0  0  0  0  0  0
   56.8952   33.5758   44.5872 H   0  0  0  0  0  0  0  0  0  0  0  0
   58.7590   34.6020   45.0120 C   0  0  0  0  0  0  0  0  0  0  0  0
   58.9229   34.9026   43.9667 H   0  0  0  0  0  0  0  0  0  0  0  0
   59.6830   34.9610   45.9950 C   0  0  0  0  0  0  0  0  0  0  0  0
   60.5759   35.5461   45.7296 H   0  0  0  0  0  0  0  0  0  0  0  0
   61.0960   31.7820   47.2660 C   0  0  0  0  0  0  0  0  0  0  0  0
   61.9811   32.3572   46.9566 H   0  0  0  0  0  0  0  0  0  0  0  0
   60.4980   30.8900   46.3710 C   0  0  0  0  0  0  0  0  0  0  0  0
   60.9188   30.7610   45.3629 H   0  0  0  0  0  0  0  0  0  0  0  0
   58.5860   27.9040   45.9870 C   0  0  0  0  0  0  0  0  0  0  0  0
   59.1370   27.2120   46.9950 C   0  0  0  0  0  0  0  0  0  0  0  0
   59.6214   27.7439   47.8271 H   0  0  0  0  0  0  0  0  0  0  0  0
   59.1045   26.1125   46.9897 H   0  0  0  0  0  0  0  0  0  0  0  0
  1  2  1  0
  2  3  1  0
  3  4  1  0
  4  5  1  0
  5  6  2  0
  5  7  1  0
  7  8  1  0
  8  9  1  0
  2 10  2  3
 10 11  1  0
 11 12  1  0
 11 13  2  0
 13 14  1  0
 14 15  1  0
 14 16  1  0
 14 17  1  0
 13 18  1  0
 18 19  1  0
 19 20  2  0
 20 21  1  0
 20 22  1  0
 22 23  1  0
 22 24  2  0
 24 25  1  0
 25 26  1  0
 25 27  1  0
 25 28  1  0
 28 29  1  0
 28 30  1  0
 28 31  1  0
 31 32  2  0
 32 33  1  0
 33 34  1  0
 34 35  1  0
 34 36  2  0
 36 37  1  0
 36 38  1  0
 38 39  1  0
 38 40  2  0
 40 41  1  0
 24 42  1  0
 42 43  1  0
 42 44  2  0
 44 45  1  0
 18 46  1  0
 46 47  2  0
 47 48  1  0
 47 49  1  0
  8  3  2  0
 46 10  1  0
 44 19  1  0
 40 32  1  0
M  CHG  4   4  -1   7  -1   9  -1  33  -1
M  END
>  <UniqueID>  (56) 
53

>  <SMILES>  (56) 
C=c1c(=Cc2[n-]c(=O)[n-]c2[O-])cc(C)n1-c1ccc(CC/N=c2\cccc[n-]2)cc1

>  <Energy>  (56) 
126.98611677730635

>  <Genealogy>  (56) 
C=c1c(=Cc2[n-]c(=O)[n-]c2[O-])cc(C)n1-c1ccc(CCN=c2cccc[n-]2)cc1 (protonated)
C=c1c(=Cc2[n-]c(=O)[n-]c2[O-])cc(C)n1-c1ccc(CC/N=c2\cccc[n-]2)cc1 (cis-trans isomerization)
C=c1c(=Cc2[n-]c(=O)[n-]c2[O-])cc(C)n1-c1ccc(CC/N=c2\cccc[n-]2)cc1 (3D coordinates assigned)
C=c1c(=Cc2[n-]c(=O)[n-]c2[O-])cc(C)n1-c1ccc(CC/N=c2\cccc[n-]2)cc1 (optimized conformer: 126.98611677730635 kcal/mol)

>  <smiles>  (56) 
C=c1c(=Cc2[nH]c(=O)[nH]c2O)cc(C)n1-c1ccc(CCN=c2cccc[nH]2)cc1

>  <score_type>  (56) 
oracle

>  <origin>  (56) 
adg

>  <m_score__min__energy>  (56) 
-16.719999999999999

>  <m_primary>  (56) 
energy

$$$$
56:0
     RDKit          3D

 39 41  0  0  0  0  0  0  0  0999 V2000
   54.7710   27.0850   46.4410 H   0  0  0  0  0  0  0  0  0  0  0  0
   55.6490   26.5420   46.2790 N   0  0  0  0  0  0  0  0  0  0  0  0
   56.7500   27.5960   45.4630 S   0  0  0  0  0  0  0  0  0  0  0  0
   57.3950   26.8640   44.3210 O   0  0  0  0  0  0  0  0  0  0  0  0
   55.9860   28.7710   44.9220 O   0  0  0  0  0  0  0  0  0  0  0  0
   57.9970   28.1380   46.5930 C   0  0  0  0  0  0  0  0  0  0  0  0
   58.6920   27.2000   47.3720 C   0  0  0  0  0  0  0  0  0  0  0  0
   58.4588   26.1292   47.2769 H   0  0  0  0  0  0  0  0  0  0  0  0
   59.6790   27.6200   48.2680 C   0  0  0  0  0  0  0  0  0  0  0  0
   60.2261   26.8793   48.8697 H   0  0  0  0  0  0  0  0  0  0  0  0
   59.9710   28.9780   48.4000 C   0  0  0  0  0  0  0  0  0  0  0  0
   60.7437   29.3072   49.1103 H   0  0  0  0  0  0  0  0  0  0  0  0
   59.2840   29.9190   47.6320 C   0  0  0  0  0  0  0  0  0  0  0  0
   59.5050   30.9898   47.7526 H   0  0  0  0  0  0  0  0  0  0  0  0
   58.3110   29.5060   46.7050 C   0  0  0  0  0  0  0  0  0  0  0  0
   57.5660   30.4770   45.9510 N   0  0  0  0  0  0  0  0  0  0  0  0
   57.8970   31.7170   45.7110 C   0  0  0  0  0  0  0  0  0  0  0  0
   58.4210   32.5650   46.7080 C   0  0  0  0  0  0  0  0  0  0  0  0
   58.5715   32.1868   47.7299 H   0  0  0  0  0  0  0  0  0  0  0  0
   58.7500   33.8920   46.3940 C   0  0  0  0  0  0  0  0  0  0  0  0
   59.2320   34.7870   47.4110 N   0  0  0  0  0  0  0  0  0  0  0  0
   59.3090   35.7590   47.0290 H   0  0  0  0  0  0  0  0  0  0  0  0
   58.5500   34.8190   48.2050 H   0  0  0  0  0  0  0  0  0  0  0  0
   60.5130   34.3270   47.8850 C   0  0  0  0  0  0  0  0  0  0  0  0
   61.4960   33.8930   46.9750 C   0  0  0  0  0  0  0  0  0  0  0  0
   61.2971   33.9343   45.8939 H   0  0  0  0  0  0  0  0  0  0  0  0
   62.7230   33.4100   47.4380 C   0  0  0  0  0  0  0  0  0  0  0  0
   63.4885   33.0781   46.7211 H   0  0  0  0  0  0  0  0  0  0  0  0
   62.9790   33.3480   48.8120 C   0  0  0  0  0  0  0  0  0  0  0  0
   64.5190   32.7390   49.3900 Cl  0  0  0  0  0  0  0  0  0  0  0  0
   62.0040   33.7670   49.7230 C   0  0  0  0  0  0  0  0  0  0  0  0
   62.2040   33.7152   50.8034 H   0  0  0  0  0  0  0  0  0  0  0  0
   60.7770   34.2510   49.2640 C   0  0  0  0  0  0  0  0  0  0  0  0
   60.0125   34.5747   49.9856 H   0  0  0  0  0  0  0  0  0  0  0  0
   58.5710   34.3460   45.1230 N   0  0  0  0  0  0  0  0  0  0  0  0
   58.0960   33.5460   44.1350 C   0  0  0  0  0  0  0  0  0  0  0  0
   57.9765   33.9450   43.1169 H   0  0  0  0  0  0  0  0  0  0  0  0
   57.7580   32.2170   44.4060 C   0  0  0  0  0  0  0  0  0  0  0  0
   57.1450   31.2070   43.1010 Cl  0  0  0  0  0  0  0  0  0  0  0  0
  1  2  1  0
  2  3  1  0
  3  4  2  0
  3  5  2  0
  3  6  1  0
  6  7  2  0
  7  8  1  0
  7  9  1  0
  9 10  1  0
  9 11  2  0
 11 12  1  0
 11 13  1  0
 13 14  1  0
 13 15  2  0
 15 16  1  0
 16 17  2  0
 17 18  1  0
 18 19  1  0
 18 20  2  0
 20 21  1  0
 21 22  1  0
 21 23  1  0
 21 24  1  0
 24 25  2  0
 25 26  1  0
 25 27  1  0
 27 28  1  0
 27 29  2  0
 29 30  1  0
 29 31  1  0
 31 32  1  0
 31 33  2  0
 33 34  1  0
 20 35  1  0
 35 36  1  0
 36 37  1  0
 36 38  2  0
 38 39  1  0
 15  6  1  0
 38 17  1  0
 33 24  1  0
M  CHG  3   2  -1  21   1  35  -1
M  END
>  <UniqueID>  (57) 
54

>  <SMILES>  (57) 
[NH-]S(=O)(=O)c1ccccc1/N=c1\cc([NH2+]c2ccc(Cl)cc2)[n-]cc1Cl

>  <Energy>  (57) 
53.410961004133426

>  <Genealogy>  (57) 
[NH-]S(=O)(=O)c1ccccc1N=c1cc([NH2+]c2ccc(Cl)cc2)[n-]cc1Cl (protonated)
[NH-]S(=O)(=O)c1ccccc1/N=c1\cc([NH2+]c2ccc(Cl)cc2)[n-]cc1Cl (cis-trans isomerization)
[NH-]S(=O)(=O)c1ccccc1/N=c1\cc([NH2+]c2ccc(Cl)cc2)[n-]cc1Cl (3D coordinates assigned)
[NH-]S(=O)(=O)c1ccccc1/N=c1\cc([NH2+]c2ccc(Cl)cc2)[n-]cc1Cl (optimized conformer: 53.410961004133426 kcal/mol)

>  <smiles>  (57) 
NS(=O)(=O)c1ccccc1N=c1cc(Nc2ccc(Cl)cc2)[nH]cc1Cl

>  <score_type>  (57) 
oracle

>  <origin>  (57) 
adg

>  <m_score__min__energy>  (57) 
-11.279999999999999

>  <m_primary>  (57) 
energy

$$$$
57:0
     RDKit          3D

 49 51  0  0  0  0  0  0  0  0999 V2000
   50.7220   33.4600   52.5840 N   0  0  0  0  0  0  0  0  0  0  0  0
   50.9180   31.8350   52.0300 S   0  0  0  0  0  0  0  0  0  0  0  0
   50.6400   31.7760   50.5530 O   0  0  0  0  0  0  0  0  0  0  0  0
   49.9420   30.9390   52.7400 O   0  0  0  0  0  0  0  0  0  0  0  0
   52.5620   31.2970   52.3560 C   0  0  0  0  0  0  0  0  0  0  0  0
   53.5240   31.3300   51.3380 C   0  0  0  0  0  0  0  0  0  0  0  0
   54.8280   30.8930   51.5870 C   0  0  0  0  0  0  0  0  0  0  0  0
   55.1870   30.4240   52.8600 C   0  0  0  0  0  0  0  0  0  0  0  0
   56.5770   29.9220   53.1210 C   0  0  0  0  0  0  0  0  0  0  0  0
   57.2430   29.6650   51.8480 N   0  0  0  0  0  0  0  0  0  0  0  0
   58.0690   30.4700   51.2410 C   0  0  0  0  0  0  0  0  0  0  0  0
   59.4450   30.2320   51.3550 C   0  0  0  0  0  0  0  0  0  0  0  0
   60.3480   31.0760   50.7110 C   0  0  0  0  0  0  0  0  0  0  0  0
   59.8790   32.1530   49.9550 C   0  0  0  0  0  0  0  0  0  0  0  0
   61.0000   33.2210   49.1170 S   0  0  0  0  0  0  0  0  0  0  0  0
   60.7720   34.6280   49.5890 O   0  0  0  0  0  0  0  0  0  0  0  0
   62.4230   32.8320   49.4060 O   0  0  0  0  0  0  0  0  0  0  0  0
   60.7270   33.1470   47.4050 N   0  0  0  0  0  0  0  0  0  0  0  0
   59.7330   33.8860   46.6850 C   0  0  0  0  0  0  0  0  0  0  0  0
   60.0970   34.8910   46.0190 O   0  0  0  0  0  0  0  0  0  0  0  0
   58.2710   33.5220   46.7040 C   0  0  0  0  0  0  0  0  0  0  0  0
   58.0220   32.3030   45.8590 C   0  0  0  0  0  0  0  0  0  0  0  0
   58.3210   31.0210   46.3520 C   0  0  0  0  0  0  0  0  0  0  0  0
   58.0630   29.8890   45.5730 C   0  0  0  0  0  0  0  0  0  0  0  0
   57.4960   30.0260   44.3020 C   0  0  0  0  0  0  0  0  0  0  0  0
   57.1870   31.2980   43.8090 C   0  0  0  0  0  0  0  0  0  0  0  0
   57.4430   32.4320   44.5850 C   0  0  0  0  0  0  0  0  0  0  0  0
   58.5000   32.3690   49.8680 C   0  0  0  0  0  0  0  0  0  0  0  0
   57.6300   31.5360   50.5010 N   0  0  0  0  0  0  0  0  0  0  0  0
   54.2150   30.3680   53.8720 C   0  0  0  0  0  0  0  0  0  0  0  0
   52.9100   30.8050   53.6220 C   0  0  0  0  0  0  0  0  0  0  0  0
   49.9550   33.8850   52.0170 H   0  0  0  0  0  0  0  0  0  0  0  0
   53.2520   31.7013   50.3389 H   0  0  0  0  0  0  0  0  0  0  0  0
   55.5765   30.9168   50.7813 H   0  0  0  0  0  0  0  0  0  0  0  0
   57.1415   30.6792   53.6849 H   0  0  0  0  0  0  0  0  0  0  0  0
   56.5295   28.9922   53.7068 H   0  0  0  0  0  0  0  0  0  0  0  0
   59.8111   29.3825   51.9503 H   0  0  0  0  0  0  0  0  0  0  0  0
   61.4294   30.8942   50.7980 H   0  0  0  0  0  0  0  0  0  0  0  0
   57.9629   33.3142   47.7393 H   0  0  0  0  0  0  0  0  0  0  0  0
   57.6893   34.3624   46.2973 H   0  0  0  0  0  0  0  0  0  0  0  0
   58.7596   30.9080   47.3544 H   0  0  0  0  0  0  0  0  0  0  0  0
   58.3065   28.8888   45.9606 H   0  0  0  0  0  0  0  0  0  0  0  0
   57.2932   29.1343   43.6906 H   0  0  0  0  0  0  0  0  0  0  0  0
   56.7418   31.4061   42.8089 H   0  0  0  0  0  0  0  0  0  0  0  0
   57.1902   33.4297   44.1968 H   0  0  0  0  0  0  0  0  0  0  0  0
   58.1160   33.2182   49.2838 H   0  0  0  0  0  0  0  0  0  0  0  0
   56.6110   31.7430   50.3990 H   0  0  0  0  0  0  0  0  0  0  0  0
   54.4811   29.9787   54.8658 H   0  0  0  0  0  0  0  0  0  0  0  0
   52.1548   30.7626   54.4207 H   0  0  0  0  0  0  0  0  0  0  0  0
  1  2  1  0
  2  3  2  0
  2  4  2  0
  2  5  1  0
  5  6  2  0
  6  7  1  0
  7  8  2  0
  8  9  1  0
  9 10  1  0
 10 11  2  3
 11 12  1  0
 12 13  2  0
 13 14  1  0
 14 15  1  0
 15 16  2  0
 15 17  2  0
 15 18  1  0
 18 19  1  0
 19 20  2  0
 19 21  1  0
 21 22  1  0
 22 23  2  0
 23 24  1  0
 24 25  2  0
 25 26  1  0
 26 27  2  0
 14 28  2  0
 28 29  1  0
  8 30  1  0
 30 31  2  0
 31  5  1  0
 29 11  1  0
 27 22  1  0
  1 32  1  0
  6 33  1  0
  7 34  1  0
  9 35  1  0
  9 36  1  0
 12 37  1  0
 13 38  1  0
 21 39  1  0
 21 40  1  0
 23 41  1  0
 24 42  1  0
 25 43  1  0
 26 44  1  0
 27 45  1  0
 28 46  1  0
 29 47  1  0
 30 48  1  0
 31 49  1  0
M  CHG  2   1  -1  18  -1
M  END
>  <UniqueID>  (58) 
55

>  <SMILES>  (58) 
[NH-]S(=O)(=O)c1ccc(CN=c2ccc(S(=O)(=O)[N-]C(=O)Cc3ccccc3)c[nH]2)cc1

>  <Energy>  (58) 
53.29686364460814

>  <Genealogy>  (58) 
[NH-]S(=O)(=O)c1ccc(CN=c2ccc(S(=O)(=O)[N-]C(=O)Cc3ccccc3)c[nH]2)cc1 (protonated)
[NH-]S(=O)(=O)c1ccc(CN=c2ccc(S(=O)(=O)[N-]C(=O)Cc3ccccc3)c[nH]2)cc1 (3D coordinates assigned)
[NH-]S(=O)(=O)c1ccc(CN=c2ccc(S(=O)(=O)[N-]C(=O)Cc3ccccc3)c[nH]2)cc1 (optimized conformer: 53.29686364460814 kcal/mol)

>  <smiles>  (58) 
NS(=O)(=O)c1ccc(CN=c2ccc(S(=O)(=O)NC(=O)Cc3ccccc3)c[nH]2)cc1

>  <score_type>  (58) 
oracle

>  <origin>  (58) 
adg

>  <m_score__min__energy>  (58) 
-12.859999999999999

>  <m_primary>  (58) 
energy

$$$$
58:0
     RDKit          3D

 35 36  0  0  0  0  0  0  0  0999 V2000
   62.3420   34.1730   48.0590 O   0  0  0  0  0  0  0  0  0  0  0  0
   62.3230   33.7520   46.8860 N   0  0  0  0  0  0  0  0  0  0  0  0
   63.3620   34.0610   46.0380 O   0  0  0  0  0  0  0  0  0  0  0  0
   61.2500   33.0000   46.4510 O   0  0  0  0  0  0  0  0  0  0  0  0
   59.9240   33.5200   46.4160 C   0  0  0  0  0  0  0  0  0  0  0  0
   58.9850   32.5190   45.8010 C   0  0  0  0  0  0  0  0  0  0  0  0
   57.9890   32.9310   44.9070 C   0  0  0  0  0  0  0  0  0  0  0  0
   57.1170   31.9960   44.3470 C   0  0  0  0  0  0  0  0  0  0  0  0
   57.2250   30.6320   44.6660 C   0  0  0  0  0  0  0  0  0  0  0  0
   56.2630   29.7110   44.1280 N   0  0  0  0  0  0  0  0  0  0  0  0
   56.3150   29.3860   42.9240 O   0  0  0  0  0  0  0  0  0  0  0  0
   55.1470   29.3740   44.8590 O   0  0  0  0  0  0  0  0  0  0  0  0
   58.2620   30.2040   45.5320 C   0  0  0  0  0  0  0  0  0  0  0  0
   58.5520   28.4920   45.8820 S   0  0  0  0  0  0  0  0  0  0  0  0
   59.8470   28.0900   45.2320 O   0  0  0  0  0  0  0  0  0  0  0  0
   58.6330   28.2650   47.3650 O   0  0  0  0  0  0  0  0  0  0  0  0
   57.2500   27.5310   45.2550 N   0  0  0  0  0  0  0  0  0  0  0  0
   57.1060   26.1320   45.5400 C   0  0  0  0  0  0  0  0  0  0  0  0
   58.2190   25.2880   45.3980 C   0  0  0  0  0  0  0  0  0  0  0  0
   58.1100   23.9200   45.6640 C   0  0  0  0  0  0  0  0  0  0  0  0
   56.8830   23.3800   46.0570 C   0  0  0  0  0  0  0  0  0  0  0  0
   56.7770   22.0520   46.3120 F   0  0  0  0  0  0  0  0  0  0  0  0
   55.7630   24.2060   46.1780 C   0  0  0  0  0  0  0  0  0  0  0  0
   55.8660   25.5770   45.9150 C   0  0  0  0  0  0  0  0  0  0  0  0
   54.7500   26.3430   45.9810 F   0  0  0  0  0  0  0  0  0  0  0  0
   59.1130   31.1590   46.1090 C   0  0  0  0  0  0  0  0  0  0  0  0
   59.5949   33.7433   47.4416 H   0  0  0  0  0  0  0  0  0  0  0  0
   59.9160   34.4371   45.8087 H   0  0  0  0  0  0  0  0  0  0  0  0
   57.8935   33.9951   44.6452 H   0  0  0  0  0  0  0  0  0  0  0  0
   56.3364   32.3308   43.6480 H   0  0  0  0  0  0  0  0  0  0  0  0
   56.6610   27.9510   44.5020 H   0  0  0  0  0  0  0  0  0  0  0  0
   59.1838   25.7063   45.0751 H   0  0  0  0  0  0  0  0  0  0  0  0
   58.9906   23.2685   45.5638 H   0  0  0  0  0  0  0  0  0  0  0  0
   54.7963   23.7774   46.4811 H   0  0  0  0  0  0  0  0  0  0  0  0
   59.8925   30.8343   46.8140 H   0  0  0  0  0  0  0  0  0  0  0  0
  1  2  2  0
  2  3  1  0
  2  4  1  0
  4  5  1  0
  5  6  1  0
  6  7  2  0
  7  8  1  0
  8  9  2  0
  9 10  1  0
 10 11  2  0
 10 12  1  0
  9 13  1  0
 13 14  1  0
 14 15  2  0
 14 16  2  0
 14 17  1  0
 17 18  1  0
 18 19  2  0
 19 20  1  0
 20 21  2  0
 21 22  1  0
 21 23  1  0
 23 24  2  0
 24 25  1  0
 13 26  2  0
 26  6  1  0
 24 18  1  0
  5 27  1  0
  5 28  1  0
  7 29  1  0
  8 30  1  0
 17 31  1  0
 19 32  1  0
 20 33  1  0
 23 34  1  0
 26 35  1  0
M  CHG  4   2   1   3  -1  10   1  12  -1
M  END
>  <UniqueID>  (59) 
56

>  <SMILES>  (59) 
O=[N+]([O-])OCc1ccc([N+](=O)[O-])c(S(=O)(=O)Nc2ccc(F)cc2F)c1

>  <Energy>  (59) 
46.28271909406409

>  <Genealogy>  (59) 
O=[N+]([O-])OCc1ccc([N+](=O)[O-])c(S(=O)(=O)Nc2ccc(F)cc2F)c1 (3D coordinates assigned)
O=[N+]([O-])OCc1ccc([N+](=O)[O-])c(S(=O)(=O)Nc2ccc(F)cc2F)c1 (optimized conformer: 46.28271909406409 kcal/mol)

>  <smiles>  (59) 
O=[N+]([O-])OCc1ccc([N+](=O)[O-])c(S(=O)(=O)Nc2ccc(F)cc2F)c1

>  <score_type>  (59) 
oracle

>  <origin>  (59) 
adg

>  <m_score__min__energy>  (59) 
-7.9900000000000002

>  <m_primary>  (59) 
energy

$$$$
59:0
     RDKit          3D

 56 59  0  0  0  0  0  0  0  0999 V2000
   55.8000   29.7290   43.3630 C   0  0  0  0  0  0  0  0  0  0  0  0
   57.2860   29.9890   43.3620 C   0  0  0  0  0  0  0  0  0  0  0  0
   57.6650   30.7830   44.5390 N   0  0  0  0  0  0  0  0  0  0  0  0
   57.9580   30.2050   45.6890 C   0  0  0  0  0  0  0  0  0  0  0  0
   58.0690   28.4610   45.8560 S   0  0  0  0  0  0  0  0  0  0  0  0
   58.5290   27.8220   47.4630 C   0  0  0  0  0  0  0  0  0  0  0  0
   59.5940   28.7260   48.0640 C   0  0  0  0  0  0  0  0  0  0  0  0
   59.8480   28.7080   49.3830 N   0  0  0  0  0  0  0  0  0  0  0  0
   60.7420   29.4840   49.9830 C   0  0  0  0  0  0  0  0  0  0  0  0
   60.8970   29.3660   51.2100 O   0  0  0  0  0  0  0  0  0  0  0  0
   61.5000   30.4120   49.2050 C   0  0  0  0  0  0  0  0  0  0  0  0
   62.4340   31.2590   49.6480 C   0  0  0  0  0  0  0  0  0  0  0  0
   62.9120   31.4150   51.0870 C   0  0  0  0  0  0  0  0  0  0  0  0
   63.0560   32.0840   48.6920 C   0  0  0  0  0  0  0  0  0  0  0  0
   64.0780   33.0920   48.8140 C   0  0  0  0  0  0  0  0  0  0  0  0
   62.2740   31.6300   47.1230 S   0  0  0  0  0  0  0  0  0  0  0  0
   61.1830   30.3720   47.8850 C   0  0  0  0  0  0  0  0  0  0  0  0
   60.2770   29.5800   47.2880 N   0  0  0  0  0  0  0  0  0  0  0  0
   58.3240   30.9500   46.7330 N   0  0  0  0  0  0  0  0  0  0  0  0
   58.4270   32.2920   46.7030 C   0  0  0  0  0  0  0  0  0  0  0  0
   58.8760   33.1020   47.5930 N   0  0  0  0  0  0  0  0  0  0  0  0
   59.4000   34.0360   48.6030 C   0  0  0  0  0  0  0  0  0  0  0  0
   59.3340   33.3290   49.9460 C   0  0  0  0  0  0  0  0  0  0  0  0
   60.2490   33.8480   50.8820 C   0  0  0  0  0  0  0  0  0  0  0  0
   60.2050   33.2470   52.1140 C   0  0  0  0  0  0  0  0  0  0  0  0
   59.3820   32.2450   52.4520 C   0  0  0  0  0  0  0  0  0  0  0  0
   58.4930   31.7650   51.4810 C   0  0  0  0  0  0  0  0  0  0  0  0
   58.4680   32.3170   50.2070 C   0  0  0  0  0  0  0  0  0  0  0  0
   58.0970   32.8740   45.4220 C   0  0  0  0  0  0  0  0  0  0  0  0
   58.1380   34.2720   45.2270 N   0  0  0  0  0  0  0  0  0  0  0  0
   59.2030   34.8990   45.3950 O   0  0  0  0  0  0  0  0  0  0  0  0
   57.0120   34.9150   44.8100 O   0  0  0  0  0  0  0  0  0  0  0  0
   57.7220   32.0920   44.3720 C   0  0  0  0  0  0  0  0  0  0  0  0
   57.4300   32.5850   43.2590 O   0  0  0  0  0  0  0  0  0  0  0  0
   55.4395   29.6659   44.4003 H   0  0  0  0  0  0  0  0  0  0  0  0
   55.2837   30.5505   42.8447 H   0  0  0  0  0  0  0  0  0  0  0  0
   55.5933   28.7810   42.8447 H   0  0  0  0  0  0  0  0  0  0  0  0
   57.8225   29.0289   43.3837 H   0  0  0  0  0  0  0  0  0  0  0  0
   57.5511   30.5480   42.4525 H   0  0  0  0  0  0  0  0  0  0  0  0
   57.6467   27.8032   48.1196 H   0  0  0  0  0  0  0  0  0  0  0  0
   58.9216   26.7996   47.3600 H   0  0  0  0  0  0  0  0  0  0  0  0
   62.0962   31.1488   51.7752 H   0  0  0  0  0  0  0  0  0  0  0  0
   63.7710   30.7506   51.2621 H   0  0  0  0  0  0  0  0  0  0  0  0
   63.2137   32.4582   51.2621 H   0  0  0  0  0  0  0  0  0  0  0  0
   64.2756   33.2869   49.8784 H   0  0  0  0  0  0  0  0  0  0  0  0
   65.0001   32.7399   48.3284 H   0  0  0  0  0  0  0  0  0  0  0  0
   63.7387   34.0188   48.3284 H   0  0  0  0  0  0  0  0  0  0  0  0
   60.1220   29.6570   46.2630 H   0  0  0  0  0  0  0  0  0  0  0  0
   59.9300   33.4720   46.8490 H   0  0  0  0  0  0  0  0  0  0  0  0
   60.4413   34.3007   48.3672 H   0  0  0  0  0  0  0  0  0  0  0  0
   58.8092   34.9637   48.6207 H   0  0  0  0  0  0  0  0  0  0  0  0
   60.9423   34.6683   50.6445 H   0  0  0  0  0  0  0  0  0  0  0  0
   60.8987   33.6159   52.8839 H   0  0  0  0  0  0  0  0  0  0  0  0
   59.4036   31.8116   53.4628 H   0  0  0  0  0  0  0  0  0  0  0  0
   57.8074   30.9419   51.7307 H   0  0  0  0  0  0  0  0  0  0  0  0
   57.7727   31.9481   49.4385 H   0  0  0  0  0  0  0  0  0  0  0  0
  1  2  1  0
  2  3  1  0
  3  4  1  0
  4  5  1  0
  5  6  1  0
  6  7  1  0
  7  8  2  0
  8  9  1  0
  9 10  2  0
  9 11  1  0
 11 12  1  0
 12 13  1  0
 12 14  2  0
 14 15  1  0
 14 16  1  0
 16 17  1  0
 17 18  1  0
  4 19  2  0
 19 20  1  0
 20 21  1  0
 21 22  1  0
 22 23  1  0
 23 24  2  0
 24 25  1  0
 25 26  2  0
 26 27  1  0
 27 28  2  0
 20 29  2  0
 29 30  1  0
 30 31  2  0
 30 32  1  0
 29 33  1  0
 33 34  2  0
 33  3  1  0
 18  7  1  0
 28 23  1  0
 17 11  2  0
  1 35  1  0
  1 36  1  0
  1 37  1  0
  2 38  1  0
  2 39  1  0
  6 40  1  0
  6 41  1  0
 13 42  1  0
 13 43  1  0
 13 44  1  0
 15 45  1  0
 15 46  1  0
 15 47  1  0
 18 48  1  0
 21 49  1  0
 22 50  1  0
 22 51  1  0
 24 52  1  0
 25 53  1  0
 26 54  1  0
 27 55  1  0
 28 56  1  0
M  CHG  2  30   1  32  -1
M  END
>  <smiles>  (60) 
CCn1c(SCc2nc(=O)c3c(C)c(C)sc3[nH]2)nc(NCc2ccccc2)c([N+](=O)[O-])c1=O

>  <score_type>  (60) 
oracle

>  <origin>  (60) 
adg

>  <m_score__min__energy>  (60) 
-9.2899999999999991

>  <m_primary>  (60) 
energy

$$$$
60:0
     RDKit          3D

 47 49  0  0  0  0  0  0  0  0999 V2000
   59.9430   33.3820   49.4890 C   0  0  0  0  0  0  0  0  0  0  0  0
   59.2500   34.2560   48.6040 O   0  0  0  0  0  0  0  0  0  0  0  0
   59.0690   34.0220   47.2320 C   0  0  0  0  0  0  0  0  0  0  0  0
   59.4190   34.9800   46.2620 C   0  0  0  0  0  0  0  0  0  0  0  0
   59.2260   34.7150   44.9060 C   0  0  0  0  0  0  0  0  0  0  0  0
   58.6690   33.5020   44.5000 C   0  0  0  0  0  0  0  0  0  0  0  0
   58.3070   32.5380   45.4500 C   0  0  0  0  0  0  0  0  0  0  0  0
   57.5470   31.0310   44.9370 S   0  0  0  0  0  0  0  0  0  0  0  0
   58.2970   30.4310   43.7810 O   0  0  0  0  0  0  0  0  0  0  0  0
   56.1330   31.3290   44.5190 O   0  0  0  0  0  0  0  0  0  0  0  0
   57.5560   29.9200   46.2670 N   0  0  0  0  0  0  0  0  0  0  0  0
   58.1700   28.6220   46.2800 C   0  0  0  0  0  0  0  0  0  0  0  0
   57.8960   27.6890   45.2600 C   0  0  0  0  0  0  0  0  0  0  0  0
   58.4850   26.4260   45.2720 C   0  0  0  0  0  0  0  0  0  0  0  0
   59.3610   26.0740   46.2970 C   0  0  0  0  0  0  0  0  0  0  0  0
   59.6550   26.9870   47.3100 C   0  0  0  0  0  0  0  0  0  0  0  0
   59.0720   28.2710   47.3210 C   0  0  0  0  0  0  0  0  0  0  0  0
   59.4380   29.2130   48.4190 C   0  0  0  0  0  0  0  0  0  0  0  0
   58.6820   29.3300   49.4210 O   0  0  0  0  0  0  0  0  0  0  0  0
   60.6440   29.9790   48.3630 N   0  0  0  0  0  0  0  0  0  0  0  0
   61.0950   30.6750   47.1660 C   0  0  0  0  0  0  0  0  0  0  0  0
   62.1060   31.7200   47.5440 C   0  0  0  0  0  0  0  0  0  0  0  0
   62.2620   32.8660   46.7470 C   0  0  0  0  0  0  0  0  0  0  0  0
   63.2150   33.8330   47.0810 C   0  0  0  0  0  0  0  0  0  0  0  0
   64.0200   33.6600   48.2100 C   0  0  0  0  0  0  0  0  0  0  0  0
   63.8650   32.5270   49.0140 C   0  0  0  0  0  0  0  0  0  0  0  0
   62.9080   31.5620   48.6870 C   0  0  0  0  0  0  0  0  0  0  0  0
   58.5200   32.7920   46.8180 C   0  0  0  0  0  0  0  0  0  0  0  0
   58.1760   31.8190   47.7580 O   0  0  0  0  0  0  0  0  0  0  0  0
   59.7210   33.6620   50.5293 H   0  0  0  0  0  0  0  0  0  0  0  0
   59.6179   32.3464   49.3107 H   0  0  0  0  0  0  0  0  0  0  0  0
   61.0255   33.4624   49.3107 H   0  0  0  0  0  0  0  0  0  0  0  0
   59.8473   35.9436   46.5751 H   0  0  0  0  0  0  0  0  0  0  0  0
   59.5139   35.4649   44.1545 H   0  0  0  0  0  0  0  0  0  0  0  0
   58.5134   33.3017   43.4296 H   0  0  0  0  0  0  0  0  0  0  0  0
   57.2092   27.9608   44.4448 H   0  0  0  0  0  0  0  0  0  0  0  0
   58.2582   25.7063   44.4716 H   0  0  0  0  0  0  0  0  0  0  0  0
   59.8213   25.0750   46.3074 H   0  0  0  0  0  0  0  0  0  0  0  0
   60.3517   26.7012   48.1118 H   0  0  0  0  0  0  0  0  0  0  0  0
   61.5545   29.9539   46.4740 H   0  0  0  0  0  0  0  0  0  0  0  0
   60.2356   31.1569   46.6769 H   0  0  0  0  0  0  0  0  0  0  0  0
   61.6316   33.0033   45.8561 H   0  0  0  0  0  0  0  0  0  0  0  0
   63.3311   34.7300   46.4550 H   0  0  0  0  0  0  0  0  0  0  0  0
   64.7765   34.4162   48.4664 H   0  0  0  0  0  0  0  0  0  0  0  0
   64.4967   32.3947   49.9048 H   0  0  0  0  0  0  0  0  0  0  0  0
   62.7823   30.6759   49.3266 H   0  0  0  0  0  0  0  0  0  0  0  0
   58.6740   30.9400   47.8360 H   0  0  0  0  0  0  0  0  0  0  0  0
  1  2  1  0
  2  3  1  0
  3  4  2  0
  4  5  1  0
  5  6  2  0
  6  7  1  0
  7  8  1  0
  8  9  2  0
  8 10  2  0
  8 11  1  0
 11 12  1  0
 12 13  2  0
 13 14  1  0
 14 15  2  0
 15 16  1  0
 16 17  2  0
 17 18  1  0
 18 19  2  0
 18 20  1  0
 20 21  1  0
 21 22  1  0
 22 23  2  0
 23 24  1  0
 24 25  2  0
 25 26  1  0
 26 27  2  0
  7 28  2  0
 28 29  1  0
 28  3  1  0
 17 12  1  0
 27 22  1  0
  1 30  1  0
  1 31  1  0
  1 32  1  0
  4 33  1  0
  5 34  1  0
  6 35  1  0
 13 36  1  0
 14 37  1  0
 15 38  1  0
 16 39  1  0
 21 40  1  0
 21 41  1  0
 23 42  1  0
 24 43  1  0
 25 44  1  0
 26 45  1  0
 27 46  1  0
 29 47  1  0
M  CHG  2  11  -1  20  -1
M  END
>  <UniqueID>  (61) 
57

>  <SMILES>  (61) 
COc1cccc(S(=O)(=O)[N-]c2ccccc2C(=O)[N-]Cc2ccccc2)c1O

>  <Energy>  (61) 
49.380037701012036

>  <Genealogy>  (61) 
COc1cccc(S(=O)(=O)[N-]c2ccccc2C(=O)[N-]Cc2ccccc2)c1O (protonated)
COc1cccc(S(=O)(=O)[N-]c2ccccc2C(=O)[N-]Cc2ccccc2)c1O (3D coordinates assigned)
COc1cccc(S(=O)(=O)[N-]c2ccccc2C(=O)[N-]Cc2ccccc2)c1O (optimized conformer: 49.380037701012036 kcal/mol)

>  <smiles>  (61) 
COc1cccc(S(=O)(=O)Nc2ccccc2C(=O)NCc2ccccc2)c1O

>  <score_type>  (61) 
oracle

>  <origin>  (61) 
adg

>  <m_score__min__energy>  (61) 
-11.970000000000001

>  <m_primary>  (61) 
energy

$$$$
61:0
     RDKit          3D

 42 44  0  0  0  0  0  0  0  0999 V2000
   61.2090   30.1520   48.9450 O   0  0  0  0  0  0  0  0  0  0  0  0
   60.1500   29.6840   49.4440 C   0  0  0  0  0  0  0  0  0  0  0  0
   59.7850   28.3260   49.1840 N   0  0  0  0  0  0  0  0  0  0  0  0
   59.0790   27.9060   47.9810 C   0  0  0  0  0  0  0  0  0  0  0  0
   59.7120   28.5500   46.7470 C   0  0  0  0  0  0  0  0  0  0  0  0
   58.6870   29.2900   45.9280 C   0  0  0  0  0  0  0  0  0  0  0  0
   59.0480   30.4480   45.2200 C   0  0  0  0  0  0  0  0  0  0  0  0
   58.1070   31.1110   44.4270 C   0  0  0  0  0  0  0  0  0  0  0  0
   56.8030   30.6190   44.3270 C   0  0  0  0  0  0  0  0  0  0  0  0
   56.4380   29.4600   45.0190 C   0  0  0  0  0  0  0  0  0  0  0  0
   55.1430   28.9660   44.9120 O   0  0  0  0  0  0  0  0  0  0  0  0
   57.3760   28.7950   45.8160 C   0  0  0  0  0  0  0  0  0  0  0  0
   59.2940   30.5170   50.3200 C   0  0  0  0  0  0  0  0  0  0  0  0
   58.1980   29.9130   50.9630 C   0  0  0  0  0  0  0  0  0  0  0  0
   57.3750   30.6510   51.8170 C   0  0  0  0  0  0  0  0  0  0  0  0
   57.6330   32.0030   52.0390 C   0  0  0  0  0  0  0  0  0  0  0  0
   58.7060   32.6240   51.3990 C   0  0  0  0  0  0  0  0  0  0  0  0
   59.5350   31.8990   50.5320 C   0  0  0  0  0  0  0  0  0  0  0  0
   60.8420   32.7980   49.6770 S   0  0  0  0  0  0  0  0  0  0  0  0
   59.7660   33.2690   48.3220 C   0  0  0  0  0  0  0  0  0  0  0  0
   60.1970   34.2140   47.3800 C   0  0  0  0  0  0  0  0  0  0  0  0
   59.3550   34.5900   46.3290 C   0  0  0  0  0  0  0  0  0  0  0  0
   58.0830   34.0190   46.2110 C   0  0  0  0  0  0  0  0  0  0  0  0
   57.0260   34.4920   44.8930 Cl  0  0  0  0  0  0  0  0  0  0  0  0
   57.6550   33.0690   47.1450 C   0  0  0  0  0  0  0  0  0  0  0  0
   58.4960   32.6930   48.1970 C   0  0  0  0  0  0  0  0  0  0  0  0
   59.1359   26.8113   47.8895 H   0  0  0  0  0  0  0  0  0  0  0  0
   58.0278   28.2220   48.0522 H   0  0  0  0  0  0  0  0  0  0  0  0
   60.4898   29.2571   47.0712 H   0  0  0  0  0  0  0  0  0  0  0  0
   60.1447   27.7536   46.1237 H   0  0  0  0  0  0  0  0  0  0  0  0
   60.0754   30.8348   45.2898 H   0  0  0  0  0  0  0  0  0  0  0  0
   58.3936   32.0217   43.8807 H   0  0  0  0  0  0  0  0  0  0  0  0
   56.0636   31.1434   43.7039 H   0  0  0  0  0  0  0  0  0  0  0  0
   57.0867   27.8818   46.3568 H   0  0  0  0  0  0  0  0  0  0  0  0
   57.9867   28.8472   50.7912 H   0  0  0  0  0  0  0  0  0  0  0  0
   56.5228   30.1651   52.3147 H   0  0  0  0  0  0  0  0  0  0  0  0
   56.9900   32.5806   52.7194 H   0  0  0  0  0  0  0  0  0  0  0  0
   58.9030   33.6916   51.5763 H   0  0  0  0  0  0  0  0  0  0  0  0
   61.1987   34.6600   47.4680 H   0  0  0  0  0  0  0  0  0  0  0  0
   59.6929   35.3355   45.5941 H   0  0  0  0  0  0  0  0  0  0  0  0
   56.6562   32.6176   47.0516 H   0  0  0  0  0  0  0  0  0  0  0  0
   58.1591   31.9431   48.9279 H   0  0  0  0  0  0  0  0  0  0  0  0
  1  2  2  0
  2  3  1  0
  3  4  1  0
  4  5  1  0
  5  6  1  0
  6  7  2  0
  7  8  1  0
  8  9  2  0
  9 10  1  0
 10 11  1  0
 10 12  2  0
  2 13  1  0
 13 14  2  0
 14 15  1  0
 15 16  2  0
 16 17  1  0
 17 18  2  0
 18 19  1  0
 19 20  1  0
 20 21  2  0
 21 22  1  0
 22 23  2  0
 23 24  1  0
 23 25  1  0
 25 26  2  0
 12  6  1  0
 18 13  1  0
 26 20  1  0
  4 27  1  0
  4 28  1  0
  5 29  1  0
  5 30  1  0
  7 31  1  0
  8 32  1  0
  9 33  1  0
 12 34  1  0
 14 35  1  0
 15 36  1  0
 16 37  1  0
 17 38  1  0
 21 39  1  0
 22 40  1  0
 25 41  1  0
 26 42  1  0
M  CHG  2   3  -1  11  -1
M  END
>  <UniqueID>  (62) 
58

>  <SMILES>  (62) 
O=C([N-]CCc1cccc([O-])c1)c1ccccc1Sc1ccc(Cl)cc1

>  <Energy>  (62) 
38.79671170685947

>  <Genealogy>  (62) 
O=C([N-]CCc1cccc([O-])c1)c1ccccc1Sc1ccc(Cl)cc1 (protonated)
O=C([N-]CCc1cccc([O-])c1)c1ccccc1Sc1ccc(Cl)cc1 (3D coordinates assigned)
O=C([N-]CCc1cccc([O-])c1)c1ccccc1Sc1ccc(Cl)cc1 (optimized conformer: 38.79671170685947 kcal/mol)

>  <smiles>  (62) 
O=C(NCCc1cccc(O)c1)c1ccccc1Sc1ccc(Cl)cc1

>  <score_type>  (62) 
oracle

>  <origin>  (62) 
adg

>  <m_score__min__energy>  (62) 
-13.67

>  <m_primary>  (62) 
energy

$$$$
62:0
     RDKit          3D

 43 45  0  0  0  0  0  0  0  0999 V2000
   58.0970   29.7450   50.7270 O   0  0  0  0  0  0  0  0  0  0  0  0
   59.0440   29.8080   49.9000 C   0  0  0  0  0  0  0  0  0  0  0  0
   60.0660   30.8850   50.0450 C   0  0  0  0  0  0  0  0  0  0  0  0
   61.7330   30.1800   49.8610 S   0  0  0  0  0  0  0  0  0  0  0  0
   62.3140   31.5290   48.8310 C   0  0  0  0  0  0  0  0  0  0  0  0
   63.3330   32.3740   49.2920 C   0  0  0  0  0  0  0  0  0  0  0  0
   63.7670   33.4370   48.4950 C   0  0  0  0  0  0  0  0  0  0  0  0
   63.1860   33.6580   47.2390 C   0  0  0  0  0  0  0  0  0  0  0  0
   62.1720   32.8140   46.7790 C   0  0  0  0  0  0  0  0  0  0  0  0
   61.7380   31.7480   47.5710 C   0  0  0  0  0  0  0  0  0  0  0  0
   59.1810   28.8520   48.8370 N   0  0  0  0  0  0  0  0  0  0  0  0
   59.1740   29.0430   47.4120 C   0  0  0  0  0  0  0  0  0  0  0  0
   60.2300   28.4860   46.6770 C   0  0  0  0  0  0  0  0  0  0  0  0
   60.2810   28.6200   45.2870 C   0  0  0  0  0  0  0  0  0  0  0  0
   59.2740   29.3130   44.6140 C   0  0  0  0  0  0  0  0  0  0  0  0
   58.2090   29.8760   45.3300 C   0  0  0  0  0  0  0  0  0  0  0  0
   56.9390   30.7610   44.4890 S   0  0  0  0  0  0  0  0  0  0  0  0
   55.6720   29.9560   44.5420 O   0  0  0  0  0  0  0  0  0  0  0  0
   57.3120   30.9880   43.0500 O   0  0  0  0  0  0  0  0  0  0  0  0
   56.6690   32.2930   45.2550 N   0  0  0  0  0  0  0  0  0  0  0  0
   57.6960   33.1870   45.7000 C   0  0  0  0  0  0  0  0  0  0  0  0
   58.2740   34.0560   44.7670 C   0  0  0  0  0  0  0  0  0  0  0  0
   59.2630   34.9600   45.1610 C   0  0  0  0  0  0  0  0  0  0  0  0
   59.6900   34.9940   46.4890 C   0  0  0  0  0  0  0  0  0  0  0  0
   59.1310   34.1200   47.4260 C   0  0  0  0  0  0  0  0  0  0  0  0
   59.6630   34.1660   49.0940 Cl  0  0  0  0  0  0  0  0  0  0  0  0
   58.1380   33.2180   47.0360 C   0  0  0  0  0  0  0  0  0  0  0  0
   58.1620   29.7460   46.7260 C   0  0  0  0  0  0  0  0  0  0  0  0
   59.9046   31.6485   49.2698 H   0  0  0  0  0  0  0  0  0  0  0  0
   59.9728   31.3430   51.0408 H   0  0  0  0  0  0  0  0  0  0  0  0
   63.7896   32.2011   50.2777 H   0  0  0  0  0  0  0  0  0  0  0  0
   64.5664   34.1016   48.8544 H   0  0  0  0  0  0  0  0  0  0  0  0
   63.5285   34.4965   46.6149 H   0  0  0  0  0  0  0  0  0  0  0  0
   61.7155   32.9888   45.7936 H   0  0  0  0  0  0  0  0  0  0  0  0
   60.9439   31.0799   47.2061 H   0  0  0  0  0  0  0  0  0  0  0  0
   61.0271   27.9375   47.2002 H   0  0  0  0  0  0  0  0  0  0  0  0
   61.1158   28.1787   44.7227 H   0  0  0  0  0  0  0  0  0  0  0  0
   59.3162   29.4175   43.5198 H   0  0  0  0  0  0  0  0  0  0  0  0
   57.9472   34.0267   43.7171 H   0  0  0  0  0  0  0  0  0  0  0  0
   59.7058   35.6459   44.4237 H   0  0  0  0  0  0  0  0  0  0  0  0
   60.4667   35.7087   46.7987 H   0  0  0  0  0  0  0  0  0  0  0  0
   57.7005   32.5304   47.7748 H   0  0  0  0  0  0  0  0  0  0  0  0
   57.3306   30.1952   47.2891 H   0  0  0  0  0  0  0  0  0  0  0  0
  1  2  2  0
  2  3  1  0
  3  4  1  0
  4  5  1  0
  5  6  2  0
  6  7  1  0
  7  8  2  0
  8  9  1  0
  9 10  2  0
  2 11  1  0
 11 12  1  0
 12 13  2  0
 13 14  1  0
 14 15  2  0
 15 16  1  0
 16 17  1  0
 17 18  2  0
 17 19  2  0
 17 20  1  0
 20 21  1  0
 21 22  2  0
 22 23  1  0
 23 24  2  0
 24 25  1  0
 25 26  1  0
 25 27  2  0
 16 28  2  0
 10  5  1  0
 28 12  1  0
 27 21  1  0
  3 29  1  0
  3 30  1  0
  6 31  1  0
  7 32  1  0
  8 33  1  0
  9 34  1  0
 10 35  1  0
 13 36  1  0
 14 37  1  0
 15 38  1  0
 22 39  1  0
 23 40  1  0
 24 41  1  0
 27 42  1  0
 28 43  1  0
M  CHG  2  11  -1  20  -1
M  END
>  <UniqueID>  (63) 
59

>  <SMILES>  (63) 
O=C(CSc1ccccc1)[N-]c1cccc(S(=O)(=O)[N-]c2cccc(Cl)c2)c1

>  <Energy>  (63) 
47.59730599201412

>  <Genealogy>  (63) 
O=C(CSc1ccccc1)[N-]c1cccc(S(=O)(=O)[N-]c2cccc(Cl)c2)c1 (protonated)
O=C(CSc1ccccc1)[N-]c1cccc(S(=O)(=O)[N-]c2cccc(Cl)c2)c1 (3D coordinates assigned)
O=C(CSc1ccccc1)[N-]c1cccc(S(=O)(=O)[N-]c2cccc(Cl)c2)c1 (optimized conformer: 47.59730599201412 kcal/mol)

>  <smiles>  (63) 
O=C(CSc1ccccc1)Nc1cccc(S(=O)(=O)Nc2cccc(Cl)c2)c1

>  <score_type>  (63) 
oracle

>  <origin>  (63) 
adg

>  <m_score__min__energy>  (63) 
-11.800000000000001

>  <m_primary>  (63) 
energy

$$$$
63:0
     RDKit          3D

 38 40  0  0  0  0  0  0  0  0999 V2000
   60.3640   30.1220   45.7010 O   0  0  0  0  0  0  0  0  0  0  0  0
   59.4190   30.9320   45.8990 C   0  0  0  0  0  0  0  0  0  0  0  0
   59.6920   32.1650   46.6650 C   0  0  0  0  0  0  0  0  0  0  0  0
   60.2910   32.1250   47.9350 C   0  0  0  0  0  0  0  0  0  0  0  0
   60.5480   33.3200   48.6110 C   0  0  0  0  0  0  0  0  0  0  0  0
   60.2210   34.5390   48.0180 C   0  0  0  0  0  0  0  0  0  0  0  0
   59.6460   34.5450   46.7460 C   0  0  0  0  0  0  0  0  0  0  0  0
   59.4010   33.3720   46.1030 N   0  0  0  0  0  0  0  0  0  0  0  0
   58.1120   30.6440   45.3630 N   0  0  0  0  0  0  0  0  0  0  0  0
   57.3790   31.6270   44.5700 C   0  0  0  0  0  0  0  0  0  0  0  0
   56.5910   30.8290   43.5390 C   0  0  0  0  0  0  0  0  0  0  0  0
   56.4470   29.4290   44.1420 C   0  0  2  0  0  0  0  0  0  0  0  0
   55.2220   29.2980   44.8220 O   0  0  0  0  0  0  0  0  0  0  0  0
   57.6730   29.2820   45.0670 C   0  0  2  0  0  0  0  0  0  0  0  0
   57.4790   28.4030   46.3320 C   0  0  0  0  0  0  0  0  0  0  0  0
   58.7380   27.7930   46.9120 C   0  0  0  0  0  0  0  0  0  0  0  0
   59.2080   28.1850   48.1750 C   0  0  0  0  0  0  0  0  0  0  0  0
   60.3790   27.6200   48.6850 C   0  0  0  0  0  0  0  0  0  0  0  0
   61.0760   26.7150   47.9490 N   0  0  0  0  0  0  0  0  0  0  0  0
   60.6660   26.3400   46.7090 C   0  0  0  0  0  0  0  0  0  0  0  0
   59.5000   26.8810   46.1630 C   0  0  0  0  0  0  0  0  0  0  0  0
   60.5555   31.1606   48.3933 H   0  0  0  0  0  0  0  0  0  0  0  0
   61.0078   33.2995   49.6101 H   0  0  0  0  0  0  0  0  0  0  0  0
   60.4138   35.4844   48.5462 H   0  0  0  0  0  0  0  0  0  0  0  0
   59.3907   35.4998   46.2631 H   0  0  0  0  0  0  0  0  0  0  0  0
   56.6958   32.2032   45.2113 H   0  0  0  0  0  0  0  0  0  0  0  0
   58.0589   32.3462   44.0900 H   0  0  0  0  0  0  0  0  0  0  0  0
   55.6022   31.2818   43.3739 H   0  0  0  0  0  0  0  0  0  0  0  0
   57.0959   30.8066   42.5620 H   0  0  0  0  0  0  0  0  0  0  0  0
   56.4270   28.6312   43.3849 H   0  0  0  0  0  0  0  0  0  0  0  0
   54.7680   28.4800   44.4880 H   0  0  0  0  0  0  0  0  0  0  0  0
   58.4489   28.7041   44.5435 H   0  0  0  0  0  0  0  0  0  0  0  0
   57.0182   29.0291   47.1102 H   0  0  0  0  0  0  0  0  0  0  0  0
   56.8564   27.5543   46.0126 H   0  0  0  0  0  0  0  0  0  0  0  0
   58.6561   28.9345   48.7611 H   0  0  0  0  0  0  0  0  0  0  0  0
   60.7377   27.9081   49.6842 H   0  0  0  0  0  0  0  0  0  0  0  0
   61.2536   25.6090   46.1342 H   0  0  0  0  0  0  0  0  0  0  0  0
   59.1796   26.5942   45.1506 H   0  0  0  0  0  0  0  0  0  0  0  0
  1  2  2  0
  2  3  1  0
  3  4  2  0
  4  5  1  0
  5  6  2  0
  6  7  1  0
  7  8  2  0
  2  9  1  0
  9 10  1  0
 10 11  1  0
 11 12  1  0
 12 13  1  0
 12 14  1  0
 14 15  1  0
 15 16  1  0
 16 17  2  0
 17 18  1  0
 18 19  2  0
 19 20  1  0
 20 21  2  0
  8  3  1  0
 14  9  1  0
 21 16  1  0
  4 22  1  0
  5 23  1  0
  6 24  1  0
  7 25  1  0
 10 26  1  0
 10 27  1  0
 11 28  1  0
 11 29  1  0
 12 30  1  6
 13 31  1  0
 14 32  1  6
 15 33  1  0
 15 34  1  0
 17 35  1  0
 18 36  1  0
 20 37  1  0
 21 38  1  0
M  END
>  <UniqueID>  (64) 
60

>  <SMILES>  (64) 
O=C(c1ccccn1)N1CC[C@H](O)[C@@H]1Cc1ccncc1

>  <Energy>  (64) 
49.98888666286324

>  <Genealogy>  (64) 
O=C(c1ccccn1)N1CC[C@H](O)[C@@H]1Cc1ccncc1 (chirality)
O=C(c1ccccn1)N1CC[C@H](O)[C@@H]1Cc1ccncc1 (3D coordinates assigned)
O=C(c1ccccn1)N1CC[C@H](O)[C@@H]1Cc1ccncc1 (nonaromatic ring conformer: 49.98888666286324 kcal/mol)

>  <smiles>  (64) 
O=C(c1ccccn1)N1CCC(O)C1Cc1ccncc1

>  <score_type>  (64) 
oracle

>  <origin>  (64) 
adg

>  <m_score__min__energy>  (64) 
-7.1399999999999997

>  <m_primary>  (64) 
energy

$$$$
64:0
     RDKit          3D

 63 66  0  0  0  0  0  0  0  0999 V2000
   59.2030   34.6940   54.0710 C   0  0  0  0  0  0  0  0  0  0  0  0
   59.9370   33.8840   53.1590 O   0  0  0  0  0  0  0  0  0  0  0  0
   59.3920   33.2790   52.0150 C   0  0  0  0  0  0  0  0  0  0  0  0
   59.6920   33.7300   50.7180 C   0  0  0  0  0  0  0  0  0  0  0  0
   59.1470   33.0910   49.5940 C   0  0  0  0  0  0  0  0  0  0  0  0
   59.5170   33.5500   48.2320 C   0  0  0  0  0  0  0  0  0  0  0  0
   59.5020   34.7830   47.9750 O   0  0  0  0  0  0  0  0  0  0  0  0
   59.8500   32.6370   47.1760 N   0  0  0  0  0  0  0  0  0  0  0  0
   58.9660   31.6950   46.5520 C   0  0  0  0  0  0  0  0  0  0  0  0
   58.9240   30.3870   47.0720 C   0  0  0  0  0  0  0  0  0  0  0  0
   58.1400   29.4440   46.4190 C   0  0  0  0  0  0  0  0  0  0  0  0
   57.9950   28.1480   46.7230 N   0  0  0  0  0  0  0  0  0  0  0  0
   57.1350   27.7130   45.7640 C   0  0  0  0  0  0  0  0  0  0  0  0
   56.7060   26.2780   45.6350 C   0  0  0  0  0  0  0  0  0  0  0  0
   56.9800   25.4900   46.9300 C   0  0  0  0  0  0  0  0  0  0  0  0
   56.4400   24.0470   46.8430 C   0  0  0  0  0  0  0  0  0  0  0  0
   56.4220   23.4830   45.4080 C   0  0  0  0  0  0  0  0  0  0  0  0
   57.5350   24.0860   44.5480 C   0  0  0  0  0  0  0  0  0  0  0  0
   57.3970   25.6160   44.4170 C   0  0  0  0  0  0  0  0  0  0  0  0
   56.7640   28.6670   44.8700 N   0  0  0  0  0  0  0  0  0  0  0  0
   57.4110   29.7520   45.3160 C   0  0  0  0  0  0  0  0  0  0  0  0
   57.3870   31.0370   44.7840 C   0  0  0  0  0  0  0  0  0  0  0  0
   58.1580   32.0380   45.4200 C   0  0  0  0  0  0  0  0  0  0  0  0
   58.0640   33.3970   44.9530 N   0  0  0  0  0  0  0  0  0  0  0  0
   59.2850   34.0870   44.5340 C   0  0  0  0  0  0  0  0  0  0  0  0
   56.8750   34.1930   45.2650 C   0  0  0  0  0  0  0  0  0  0  0  0
   58.2420   32.0360   49.7810 C   0  0  0  0  0  0  0  0  0  0  0  0
   57.9410   31.5650   51.0700 C   0  0  0  0  0  0  0  0  0  0  0  0
   57.0420   30.5060   51.2780 O   0  0  0  0  0  0  0  0  0  0  0  0
   55.8380   30.6030   52.0310 C   0  0  0  0  0  0  0  0  0  0  0  0
   58.5360   32.1820   52.1850 C   0  0  0  0  0  0  0  0  0  0  0  0
   58.2680   31.7360   53.4830 O   0  0  0  0  0  0  0  0  0  0  0  0
   59.1780   30.9260   54.2180 C   0  0  0  0  0  0  0  0  0  0  0  0
   59.4601   34.4103   55.1022 H   0  0  0  0  0  0  0  0  0  0  0  0
   59.4564   35.7519   53.9077 H   0  0  0  0  0  0  0  0  0  0  0  0
   58.1253   34.5457   53.9077 H   0  0  0  0  0  0  0  0  0  0  0  0
   60.3609   34.5927   50.5828 H   0  0  0  0  0  0  0  0  0  0  0  0
   59.4970   30.1188   47.9718 H   0  0  0  0  0  0  0  0  0  0  0  0
   55.6190   26.2593   45.4675 H   0  0  0  0  0  0  0  0  0  0  0  0
   58.0657   25.4548   47.1033 H   0  0  0  0  0  0  0  0  0  0  0  0
   56.4658   26.0000   47.7580 H   0  0  0  0  0  0  0  0  0  0  0  0
   57.0761   23.3991   47.4639 H   0  0  0  0  0  0  0  0  0  0  0  0
   55.3981   24.0694   47.1952 H   0  0  0  0  0  0  0  0  0  0  0  0
   56.5571   22.3922   45.4521 H   0  0  0  0  0  0  0  0  0  0  0  0
   55.4563   23.7428   44.9499 H   0  0  0  0  0  0  0  0  0  0  0  0
   58.5060   23.8550   45.0103 H   0  0  0  0  0  0  0  0  0  0  0  0
   57.4609   23.6501   43.5408 H   0  0  0  0  0  0  0  0  0  0  0  0
   58.4025   26.0488   44.3088 H   0  0  0  0  0  0  0  0  0  0  0  0
   56.7637   25.8109   43.5389 H   0  0  0  0  0  0  0  0  0  0  0  0
   56.7849   31.2685   43.8930 H   0  0  0  0  0  0  0  0  0  0  0  0
   59.8493   34.4059   45.4227 H   0  0  0  0  0  0  0  0  0  0  0  0
   59.9035   33.4049   43.9322 H   0  0  0  0  0  0  0  0  0  0  0  0
   59.0198   34.9687   43.9322 H   0  0  0  0  0  0  0  0  0  0  0  0
   56.7609   34.2694   46.3564 H   0  0  0  0  0  0  0  0  0  0  0  0
   56.9852   35.2001   44.8365 H   0  0  0  0  0  0  0  0  0  0  0  0
   55.9859   33.7074   44.8365 H   0  0  0  0  0  0  0  0  0  0  0  0
   57.7617   31.5714   48.9073 H   0  0  0  0  0  0  0  0  0  0  0  0
   56.0747   30.5839   53.1051 H   0  0  0  0  0  0  0  0  0  0  0  0
   55.3265   31.5453   51.7849 H   0  0  0  0  0  0  0  0  0  0  0  0
   55.1823   29.7548   51.7849 H   0  0  0  0  0  0  0  0  0  0  0  0
   59.0123   31.0735   55.2954 H   0  0  0  0  0  0  0  0  0  0  0  0
   59.0154   29.8683   53.9634 H   0  0  0  0  0  0  0  0  0  0  0  0
   60.2098   31.2100   53.9634 H   0  0  0  0  0  0  0  0  0  0  0  0
  1  2  1  0
  2  3  1  0
  3  4  2  0
  4  5  1  0
  5  6  1  0
  6  7  2  0
  6  8  1  0
  8  9  1  0
  9 10  2  0
 10 11  1  0
 11 12  1  0
 12 13  1  0
 13 14  1  0
 14 15  1  0
 15 16  1  0
 16 17  1  0
 17 18  1  0
 18 19  1  0
 13 20  2  0
 20 21  1  0
 21 22  1  0
 22 23  2  0
 23 24  1  0
 24 25  1  0
 24 26  1  0
  5 27  2  0
 27 28  1  0
 28 29  1  0
 29 30  1  0
 28 31  2  0
 31 32  1  0
 32 33  1  0
 31  3  1  0
 23  9  1  0
 21 11  2  0
 19 14  1  0
  1 34  1  0
  1 35  1  0
  1 36  1  0
  4 37  1  0
 10 38  1  0
 14 39  1  0
 15 40  1  0
 15 41  1  0
 16 42  1  0
 16 43  1  0
 17 44  1  0
 17 45  1  0
 18 46  1  0
 18 47  1  0
 19 48  1  0
 19 49  1  0
 22 50  1  0
 25 51  1  0
 25 52  1  0
 25 53  1  0
 26 54  1  0
 26 55  1  0
 26 56  1  0
 27 57  1  0
 30 58  1  0
 30 59  1  0
 30 60  1  0
 33 61  1  0
 33 62  1  0
 33 63  1  0
M  CHG  2   8  -1  12  -1
M  END
>  <UniqueID>  (65) 
61

>  <SMILES>  (65) 
COc1cc(C(=O)[N-]c2cc3[n-]c(C4CCCCC4)nc3cc2N(C)C)cc(OC)c1OC

>  <Energy>  (65) 
114.30588178630427

>  <Genealogy>  (65) 
COc1cc(C(=O)[N-]c2cc3[n-]c(C4CCCCC4)nc3cc2N(C)C)cc(OC)c1OC (protonated)
COc1cc(C(=O)[N-]c2cc3[n-]c(C4CCCCC4)nc3cc2N(C)C)cc(OC)c1OC (3D coordinates assigned)
COc1cc(C(=O)[N-]c2cc3[n-]c(C4CCCCC4)nc3cc2N(C)C)cc(OC)c1OC (nonaromatic ring conformer: 114.30588178630427 kcal/mol)

>  <smiles>  (65) 
COc1cc(C(=O)Nc2cc3[nH]c(C4CCCCC4)nc3cc2N(C)C)cc(OC)c1OC

>  <score_type>  (65) 
oracle

>  <origin>  (65) 
adg

>  <m_score__min__energy>  (65) 
-10.31

>  <m_primary>  (65) 
energy

$$$$
65:0
     RDKit          3D

 35 36  0  0  0  0  0  0  0  0999 V2000
   56.8320   22.3200   46.4640 C   0  0  0  0  0  0  0  0  0  0  0  0
   57.0540   23.7900   46.3340 C   0  0  0  0  0  0  0  0  0  0  0  0
   55.9950   24.6270   46.2040 N   0  0  0  0  0  0  0  0  0  0  0  0
   56.1650   25.9710   46.1250 C   0  0  0  0  0  0  0  0  0  0  0  0
   55.1510   26.7080   45.9970 O   0  0  0  0  0  0  0  0  0  0  0  0
   57.4590   26.5270   46.1880 C   0  0  0  0  0  0  0  0  0  0  0  0
   57.6540   28.0320   46.1600 C   0  0  0  0  0  0  0  0  0  0  0  0
   57.4090   28.6290   44.7620 C   0  0  0  0  0  0  0  0  0  0  0  0
   56.3430   29.6960   44.7480 C   0  0  0  0  0  0  0  0  0  0  0  0
   55.1350   29.3580   44.8650 O   0  0  0  0  0  0  0  0  0  0  0  0
   56.6420   31.0610   44.4240 N   0  0  0  0  0  0  0  0  0  0  0  0
   57.4320   31.9670   45.2060 C   0  0  0  0  0  0  0  0  0  0  0  0
   57.4060   33.3340   44.9000 C   0  0  0  0  0  0  0  0  0  0  0  0
   58.1480   34.2420   45.6650 C   0  0  0  0  0  0  0  0  0  0  0  0
   58.9020   33.7890   46.7520 C   0  0  0  0  0  0  0  0  0  0  0  0
   59.6180   34.6690   47.4940 F   0  0  0  0  0  0  0  0  0  0  0  0
   58.9040   32.4300   47.0820 C   0  0  0  0  0  0  0  0  0  0  0  0
   58.1630   31.5230   46.3190 C   0  0  0  0  0  0  0  0  0  0  0  0
   58.5480   25.6320   46.3300 C   0  0  0  0  0  0  0  0  0  0  0  0
   59.9730   26.1010   46.3850 C   0  0  0  0  0  0  0  0  0  0  0  0
   58.3100   24.2960   46.4020 N   0  0  0  0  0  0  0  0  0  0  0  0
   56.7909   22.0482   47.5291 H   0  0  0  0  0  0  0  0  0  0  0  0
   55.8826   22.0483   45.9794 H   0  0  0  0  0  0  0  0  0  0  0  0
   57.6588   21.7800   45.9794 H   0  0  0  0  0  0  0  0  0  0  0  0
   56.9506   28.4927   46.8692 H   0  0  0  0  0  0  0  0  0  0  0  0
   58.6983   28.2404   46.4357 H   0  0  0  0  0  0  0  0  0  0  0  0
   58.3497   29.0703   44.4010 H   0  0  0  0  0  0  0  0  0  0  0  0
   57.0600   27.8109   44.1147 H   0  0  0  0  0  0  0  0  0  0  0  0
   56.8004   33.6952   44.0557 H   0  0  0  0  0  0  0  0  0  0  0  0
   58.1378   35.3122   45.4108 H   0  0  0  0  0  0  0  0  0  0  0  0
   59.4893   32.0745   47.9428 H   0  0  0  0  0  0  0  0  0  0  0  0
   58.1527   30.4574   46.5918 H   0  0  0  0  0  0  0  0  0  0  0  0
   60.2850   26.2037   47.4348 H   0  0  0  0  0  0  0  0  0  0  0  0
   60.6199   25.3684   45.8802 H   0  0  0  0  0  0  0  0  0  0  0  0
   60.0583   27.0746   45.8802 H   0  0  0  0  0  0  0  0  0  0  0  0
  1  2  1  0
  2  3  2  0
  3  4  1  0
  4  5  2  0
  4  6  1  0
  6  7  1  0
  7  8  1  0
  8  9  1  0
  9 10  2  0
  9 11  1  0
 11 12  1  0
 12 13  2  0
 13 14  1  0
 14 15  2  0
 15 16  1  0
 15 17  1  0
 17 18  2  0
  6 19  2  0
 19 20  1  0
 19 21  1  0
 21  2  1  0
 18 12  1  0
  1 22  1  0
  1 23  1  0
  1 24  1  0
  7 25  1  0
  7 26  1  0
  8 27  1  0
  8 28  1  0
 13 29  1  0
 14 30  1  0
 17 31  1  0
 18 32  1  0
 20 33  1  0
 20 34  1  0
 20 35  1  0
M  CHG  2  11  -1  21  -1
M  END
>  <UniqueID>  (66) 
62

>  <SMILES>  (66) 
Cc1nc(=O)c(CCC(=O)[N-]c2ccc(F)cc2)c(C)[n-]1

>  <Energy>  (66) 
38.28203717300482

>  <Genealogy>  (66) 
Cc1nc(=O)c(CCC(=O)[N-]c2ccc(F)cc2)c(C)[n-]1 (protonated)
Cc1nc(=O)c(CCC(=O)[N-]c2ccc(F)cc2)c(C)[n-]1 (3D coordinates assigned)
Cc1nc(=O)c(CCC(=O)[N-]c2ccc(F)cc2)c(C)[n-]1 (optimized conformer: 38.28203717300482 kcal/mol)

>  <smiles>  (66) 
Cc1nc(=O)c(CCC(=O)Nc2ccc(F)cc2)c(C)[nH]1

>  <score_type>  (66) 
oracle

>  <origin>  (66) 
adg

>  <m_score__min__energy>  (66) 
-10.91

>  <m_primary>  (66) 
energy

$$$$
66:0
     RDKit          3D

 38 40  0  0  0  0  0  0  0  0999 V2000
   55.5200   29.0360   44.9830 N   0  0  0  0  0  0  0  0  0  0  0  0
   56.5770   29.9770   44.8210 C   0  0  0  0  0  0  0  0  0  0  0  0
   56.3310   31.2110   44.8280 O   0  0  0  0  0  0  0  0  0  0  0  0
   58.2600   29.4020   44.6240 S   0  0  0  0  0  0  0  0  0  0  0  0
   58.5820   29.4590   46.3910 C   0  0  0  0  0  0  0  0  0  0  0  0
   58.1360   28.2200   47.4280 S   0  0  0  0  0  0  0  0  0  0  0  0
   58.6760   29.0120   48.8000 C   0  0  0  0  0  0  0  0  0  0  0  0
   59.1890   30.2480   48.4160 C   0  0  0  0  0  0  0  0  0  0  0  0
   59.7390   31.1630   49.4320 C   0  0  0  0  0  0  0  0  0  0  0  0
   59.1540   32.4260   49.6110 C   0  0  0  0  0  0  0  0  0  0  0  0
   59.6710   33.3150   50.5570 C   0  0  0  0  0  0  0  0  0  0  0  0
   60.7880   32.9570   51.3160 C   0  0  0  0  0  0  0  0  0  0  0  0
   61.3990   31.7160   51.1190 C   0  0  0  0  0  0  0  0  0  0  0  0
   60.8880   30.8230   50.1700 C   0  0  0  0  0  0  0  0  0  0  0  0
   61.5350   29.6120   49.9560 O   0  0  0  0  0  0  0  0  0  0  0  0
   59.1560   30.4990   47.0600 N   0  0  0  0  0  0  0  0  0  0  0  0
   59.5710   31.7500   46.3770 C   0  0  1  0  0  0  0  0  0  0  0  0
   58.5040   32.8130   46.4800 C   0  0  0  0  0  0  0  0  0  0  0  0
   57.5150   32.6660   47.2470 O   0  0  0  0  0  0  0  0  0  0  0  0
   58.5730   33.9400   45.6700 O   0  0  0  0  0  0  0  0  0  0  0  0
   60.9630   32.2110   46.7890 C   0  0  0  0  0  0  0  0  0  0  0  0
   61.3280   33.5740   46.8570 C   0  0  0  0  0  0  0  0  0  0  0  0
   62.6180   33.9410   47.2510 C   0  0  0  0  0  0  0  0  0  0  0  0
   63.5550   32.9630   47.5860 C   0  0  0  0  0  0  0  0  0  0  0  0
   63.2060   31.6130   47.5260 C   0  0  0  0  0  0  0  0  0  0  0  0
   61.9180   31.2380   47.1300 C   0  0  0  0  0  0  0  0  0  0  0  0
   54.5560   29.3510   45.2290 H   0  0  0  0  0  0  0  0  0  0  0  0
   58.6330   28.6230   49.8280 H   0  0  0  0  0  0  0  0  0  0  0  0
   58.2844   32.7175   49.0037 H   0  0  0  0  0  0  0  0  0  0  0  0
   59.1983   34.2973   50.7042 H   0  0  0  0  0  0  0  0  0  0  0  0
   61.1867   33.6526   52.0692 H   0  0  0  0  0  0  0  0  0  0  0  0
   62.2839   31.4401   51.7113 H   0  0  0  0  0  0  0  0  0  0  0  0
   59.6683   31.5295   45.3037 H   0  0  0  0  0  0  0  0  0  0  0  0
   60.5932   34.3507   46.5985 H   0  0  0  0  0  0  0  0  0  0  0  0
   62.8953   35.0045   47.2971 H   0  0  0  0  0  0  0  0  0  0  0  0
   64.5686   33.2559   47.8973 H   0  0  0  0  0  0  0  0  0  0  0  0
   63.9452   30.8425   47.7906 H   0  0  0  0  0  0  0  0  0  0  0  0
   61.6502   30.1720   47.0851 H   0  0  0  0  0  0  0  0  0  0  0  0
  1  2  1  0
  2  3  2  0
  2  4  1  0
  4  5  1  0
  5  6  1  0
  6  7  1  0
  7  8  2  0
  8  9  1  0
  9 10  2  0
 10 11  1  0
 11 12  2  0
 12 13  1  0
 13 14  2  0
 14 15  1  0
  8 16  1  0
 16 17  1  0
 17 18  1  0
 18 19  2  0
 18 20  1  0
 17 21  1  0
 21 22  2  0
 22 23  1  0
 23 24  2  0
 24 25  1  0
 25 26  2  0
 16  5  2  0
 26 21  1  0
 14  9  1  0
  1 27  1  0
  7 28  1  0
 10 29  1  0
 11 30  1  0
 12 31  1  0
 13 32  1  0
 17 33  1  6
 22 34  1  0
 23 35  1  0
 24 36  1  0
 25 37  1  0
 26 38  1  0
M  CHG  4   1  -1  15  -1  16   1  20  -1
M  END
>  <UniqueID>  (67) 
63

>  <SMILES>  (67) 
[NH-]C(=O)Sc1scc(-c2ccccc2[O-])[n+]1[C@@H](C(=O)[O-])c1ccccc1

>  <Energy>  (67) 
78.43169282074842

>  <Genealogy>  (67) 
[NH-]C(=O)Sc1scc(-c2ccccc2[O-])[n+]1C(C(=O)[O-])c1ccccc1 (protonated)
[NH-]C(=O)Sc1scc(-c2ccccc2[O-])[n+]1[C@@H](C(=O)[O-])c1ccccc1 (chirality)
[NH-]C(=O)Sc1scc(-c2ccccc2[O-])[n+]1[C@@H](C(=O)[O-])c1ccccc1 (3D coordinates assigned)
[NH-]C(=O)Sc1scc(-c2ccccc2[O-])[n+]1[C@@H](C(=O)[O-])c1ccccc1 (optimized conformer: 78.43169282074842 kcal/mol)

>  <smiles>  (67) 
NC(=O)Sc1scc(-c2ccccc2O)[n+]1C(C(=O)O)c1ccccc1

>  <score_type>  (67) 
oracle

>  <origin>  (67) 
adg

>  <m_score__min__energy>  (67) 
-11.83

>  <m_primary>  (67) 
energy

$$$$
67:0
     RDKit          3D

 32 33  0  0  1  0  0  0  0  0999 V2000
   58.2990   32.1460   46.0370 C   0  0  0  0  0  0  0  0  0  0  0  0
   57.8780   31.8350   44.6680 C   0  0  0  0  0  0  0  0  0  0  0  0
   58.1330   32.7020   43.6260 C   0  0  0  0  0  0  0  0  0  0  0  0
   57.7250   32.3810   42.3460 C   0  0  0  0  0  0  0  0  0  0  0  0
   57.0600   31.2150   42.0380 C   0  0  0  0  0  0  0  0  0  0  0  0
   56.8030   30.3450   43.0720 C   0  0  0  0  0  0  0  0  0  0  0  0
   57.2020   30.6350   44.3880 C   0  0  0  0  0  0  0  0  0  0  0  0
   55.4530   25.4230   45.7720 N   0  0  0  0  0  0  0  0  0  0  0  0
   56.3780   26.3160   45.7290 C   0  0  0  0  0  0  0  0  0  0  0  0
   56.1450   27.6190   45.6150 N   0  0  0  0  0  0  0  0  0  0  0  0
   57.1540   28.5370   45.5740 C   0  0  0  0  0  0  0  0  0  0  0  0
   56.8370   29.7330   45.3910 N   0  0  0  0  0  0  0  0  0  0  0  0
   54.1220   25.7550   45.5970 O   0  0  0  0  0  0  0  0  0  0  0  0
   57.6570   25.9110   45.8040 N   0  0  0  0  0  0  0  0  0  0  0  0
   58.6770   26.7810   45.7680 C   0  0  0  0  0  0  0  0  0  0  0  0
   58.4500   28.1740   45.6500 C   0  0  0  0  0  0  0  0  0  0  0  0
   59.6290   28.9810   45.7750 C   0  0  0  0  0  0  0  0  0  0  0  0
   60.2770   29.3410   44.5220 N   0  0  0  0  0  0  0  0  0  0  0  0
   60.1850   29.4250   46.7910 O   0  0  0  0  0  0  0  0  0  0  0  0
   57.6252   31.6482   46.7499 H   0  0  0  0  0  0  0  0  0  0  0  0
   59.3276   31.7892   46.1943 H   0  0  0  0  0  0  0  0  0  0  0  0
   58.2602   33.2340   46.1943 H   0  0  0  0  0  0  0  0  0  0  0  0
   58.6610   33.6485   43.8142 H   0  0  0  0  0  0  0  0  0  0  0  0
   57.9416   33.0906   41.5339 H   0  0  0  0  0  0  0  0  0  0  0  0
   56.7474   30.9888   41.0079 H   0  0  0  0  0  0  0  0  0  0  0  0
   56.2743   29.4029   42.8646 H   0  0  0  0  0  0  0  0  0  0  0  0
   55.1510   27.9310   45.5580 H   0  0  0  0  0  0  0  0  0  0  0  0
   53.6100   25.9640   46.4530 H   0  0  0  0  0  0  0  0  0  0  0  0
   57.8590   24.8760   45.8930 H   0  0  0  0  0  0  0  0  0  0  0  0
   59.7091   26.4057   45.8313 H   0  0  0  0  0  0  0  0  0  0  0  0
   59.7430   29.4030   43.6350 H   0  0  0  0  0  0  0  0  0  0  0  0
   61.2990   29.5470   44.4840 H   0  0  0  0  0  0  0  0  0  0  0  0
  1  2  1  0
  2  3  2  0
  3  4  1  0
  4  5  2  0
  5  6  1  0
  6  7  2  0
  7  8  1  0
  8  9  2  0
  9 10  1  0
 10 11  1  0
 11 12  2  0
 12 13  1  0
 11 14  1  0
 14 15  1  0
 15 16  2  0
 16 17  1  0
 17 18  1  0
 17 19  2  0
  7  2  1  0
 16  9  1  0
  1 20  1  0
  1 21  1  0
  1 22  1  0
  3 23  1  0
  4 24  1  0
  5 25  1  0
  6 26  1  0
 10 27  1  0
 13 28  1  0
 14 29  1  0
 15 30  1  0
 18 31  1  0
 18 32  1  0
M  END
>  <smiles>  (68) 
Cc1ccccc1N=c1[nH]c(=NO)[nH]cc1C(N)=O

>  <score_type>  (68) 
oracle

>  <origin>  (68) 
adg

>  <m_score__min__energy>  (68) 
-8.1400000000000006

>  <m_primary>  (68) 
energy

$$$$
68:0
     RDKit          3D

 40 42  0  0  0  0  0  0  0  0999 V2000
   64.1874   31.2177   50.1974 H   0  0  0  0  0  0  0  0  0  0  0  0
   63.7270   31.8350   49.4120 C   0  0  0  0  0  0  0  0  0  0  0  0
   64.2700   33.0820   49.0960 C   0  0  0  0  0  0  0  0  0  0  0  0
   65.1497   33.4521   49.6430 H   0  0  0  0  0  0  0  0  0  0  0  0
   63.6980   33.8610   48.0860 C   0  0  0  0  0  0  0  0  0  0  0  0
   64.1193   34.8495   47.8505 H   0  0  0  0  0  0  0  0  0  0  0  0
   62.5850   33.3840   47.3700 C   0  0  0  0  0  0  0  0  0  0  0  0
   61.9520   34.1770   46.3530 N   0  0  0  0  0  0  0  0  0  0  0  0
   60.7310   34.5550   46.3490 N   0  0  0  0  0  0  0  0  0  0  0  0
   59.6040   33.7510   45.9620 C   0  0  0  0  0  0  0  0  0  0  0  0
   58.9110   32.9650   46.8980 C   0  0  0  0  0  0  0  0  0  0  0  0
   59.2458   32.9376   47.9455 H   0  0  0  0  0  0  0  0  0  0  0  0
   57.7980   32.2180   46.5030 C   0  0  0  0  0  0  0  0  0  0  0  0
   57.2651   31.6004   47.2409 H   0  0  0  0  0  0  0  0  0  0  0  0
   57.3560   32.2500   45.1740 C   0  0  0  0  0  0  0  0  0  0  0  0
   56.2010   31.4810   44.8140 N   0  0  0  0  0  0  0  0  0  0  0  0
   56.1760   30.0850   44.4920 C   0  0  0  0  0  0  0  0  0  0  0  0
   55.2200   29.3530   44.8620 O   0  0  0  0  0  0  0  0  0  0  0  0
   57.2980   29.4930   43.7000 C   0  0  0  0  0  0  0  0  0  0  0  0
   56.9037   28.7043   43.0424 H   0  0  0  0  0  0  0  0  0  0  0  0
   57.7690   30.2813   43.0944 H   0  0  0  0  0  0  0  0  0  0  0  0
   58.3240   28.9020   44.6280 C   0  0  0  0  0  0  0  0  0  0  0  0
   59.5010   29.6060   44.9250 C   0  0  0  0  0  0  0  0  0  0  0  0
   59.6632   30.6066   44.4977 H   0  0  0  0  0  0  0  0  0  0  0  0
   60.4690   29.0410   45.7620 C   0  0  0  0  0  0  0  0  0  0  0  0
   61.3868   29.6002   45.9964 H   0  0  0  0  0  0  0  0  0  0  0  0
   60.2710   27.7660   46.3010 C   0  0  0  0  0  0  0  0  0  0  0  0
   61.0313   27.3235   46.9614 H   0  0  0  0  0  0  0  0  0  0  0  0
   59.1060   27.0540   46.0000 C   0  0  0  0  0  0  0  0  0  0  0  0
   58.9506   26.0509   46.4238 H   0  0  0  0  0  0  0  0  0  0  0  0
   58.1380   27.6150   45.1610 C   0  0  0  0  0  0  0  0  0  0  0  0
   57.2280   27.0470   44.9174 H   0  0  0  0  0  0  0  0  0  0  0  0
   58.0130   33.0860   44.2530 C   0  0  0  0  0  0  0  0  0  0  0  0
   57.6496   33.1516   43.2168 H   0  0  0  0  0  0  0  0  0  0  0  0
   59.1260   33.8340   44.6490 C   0  0  0  0  0  0  0  0  0  0  0  0
   59.6289   34.4915   43.9245 H   0  0  0  0  0  0  0  0  0  0  0  0
   62.0230   32.1480   47.7190 C   0  0  0  0  0  0  0  0  0  0  0  0
   61.1254   31.7875   47.1952 H   0  0  0  0  0  0  0  0  0  0  0  0
   62.5980   31.3710   48.7300 C   0  0  0  0  0  0  0  0  0  0  0  0
   62.1619   30.3948   48.9886 H   0  0  0  0  0  0  0  0  0  0  0  0
  1  2  1  0
  2  3  2  0
  3  4  1  0
  3  5  1  0
  5  6  1  0
  5  7  2  0
  7  8  1  0
  8  9  2  0
  9 10  1  0
 10 11  2  0
 11 12  1  0
 11 13  1  0
 13 14  1  0
 13 15  2  0
 15 16  1  0
 16 17  1  0
 17 18  2  0
 17 19  1  0
 19 20  1  0
 19 21  1  0
 19 22  1  0
 22 23  2  0
 23 24  1  0
 23 25  1  0
 25 26  1  0
 25 27  2  0
 27 28  1  0
 27 29  1  0
 29 30  1  0
 29 31  2  0
 31 32  1  0
 15 33  1  0
 33 34  1  0
 33 35  2  0
 35 36  1  0
  7 37  1  0
 37 38  1  0
 37 39  2  0
 39 40  1  0
 39  2  1  0
 35 10  1  0
 31 22  1  0
M  CHG  1  16  -1
M  END
>  <UniqueID>  (69) 
64

>  <SMILES>  (69) 
O=C(Cc1ccccc1)[N-]c1ccc(/N=N\c2ccccc2)cc1

>  <Energy>  (69) 
57.159729007792855

>  <Genealogy>  (69) 
O=C(Cc1ccccc1)[N-]c1ccc(N=Nc2ccccc2)cc1 (protonated)
O=C(Cc1ccccc1)[N-]c1ccc(/N=N\c2ccccc2)cc1 (cis-trans isomerization)
O=C(Cc1ccccc1)[N-]c1ccc(/N=N\c2ccccc2)cc1 (3D coordinates assigned)
O=C(Cc1ccccc1)[N-]c1ccc(/N=N\c2ccccc2)cc1 (optimized conformer: 57.159729007792855 kcal/mol)

>  <smiles>  (69) 
O=C(Cc1ccccc1)Nc1ccc(N=Nc2ccccc2)cc1

>  <score_type>  (69) 
oracle

>  <origin>  (69) 
adg

>  <m_score__min__energy>  (69) 
-10.76

>  <m_primary>  (69) 
energy

$$$$
69:0
     RDKit          3D

 49 51  0  0  0  0  0  0  0  0999 V2000
   61.0510   28.9110   45.2130 C   0  0  0  0  0  0  0  0  0  0  0  0
   60.6720   29.3450   46.6030 C   0  0  0  0  0  0  0  0  0  0  0  0
   61.4580   30.3200   47.2430 C   0  0  0  0  0  0  0  0  0  0  0  0
   61.1480   30.7480   48.5390 C   0  0  0  0  0  0  0  0  0  0  0  0
   62.1920   31.9130   49.3520 S   0  0  0  0  0  0  0  0  0  0  0  0
   63.5410   31.9560   48.6940 O   0  0  0  0  0  0  0  0  0  0  0  0
   62.3620   31.4720   50.7780 O   0  0  0  0  0  0  0  0  0  0  0  0
   61.5010   33.5070   49.3370 N   0  0  0  0  0  0  0  0  0  0  0  0
   60.1090   33.8290   49.4580 C   0  0  0  0  0  0  0  0  0  0  0  0
   59.5940   34.6030   48.6070 O   0  0  0  0  0  0  0  0  0  0  0  0
   59.2650   33.3120   50.5520 C   0  0  0  0  0  0  0  0  0  0  0  0
   59.4430   33.7990   51.8560 C   0  0  0  0  0  0  0  0  0  0  0  0
   58.6640   33.3020   52.9070 C   0  0  0  0  0  0  0  0  0  0  0  0
   57.6920   32.3290   52.6580 C   0  0  0  0  0  0  0  0  0  0  0  0
   57.4900   31.8590   51.3570 C   0  0  0  0  0  0  0  0  0  0  0  0
   58.2710   32.3510   50.3040 C   0  0  0  0  0  0  0  0  0  0  0  0
   60.0310   30.2180   49.1950 C   0  0  0  0  0  0  0  0  0  0  0  0
   59.2350   29.2630   48.5640 C   0  0  0  0  0  0  0  0  0  0  0  0
   59.5300   28.8350   47.2630 C   0  0  0  0  0  0  0  0  0  0  0  0
   58.4320   27.6270   46.4980 S   0  0  0  0  0  0  0  0  0  0  0  0
   57.4820   28.8720   45.6150 C   0  0  0  0  0  0  0  0  0  0  0  0
   58.0720   30.1070   45.3130 C   0  0  0  0  0  0  0  0  0  0  0  0
   57.3700   31.0750   44.5860 C   0  0  0  0  0  0  0  0  0  0  0  0
   58.0340   32.3030   44.2660 N   0  0  0  0  0  0  0  0  0  0  0  0
   57.9850   33.7430   45.2310 S   0  0  0  0  0  0  0  0  0  0  0  0
   59.6240   34.4290   45.3190 C   0  0  0  0  0  0  0  0  0  0  0  0
   57.5040   33.4190   46.6180 O   0  0  0  0  0  0  0  0  0  0  0  0
   57.0740   34.7550   44.5940 O   0  0  0  0  0  0  0  0  0  0  0  0
   56.0450   30.8130   44.1920 C   0  0  0  0  0  0  0  0  0  0  0  0
   55.4410   29.5970   44.5250 C   0  0  0  0  0  0  0  0  0  0  0  0
   56.1520   28.6290   45.2400 C   0  0  0  0  0  0  0  0  0  0  0  0
   55.5250   27.4390   45.5930 O   0  0  0  0  0  0  0  0  0  0  0  0
   61.7735   28.0836   45.2714 H   0  0  0  0  0  0  0  0  0  0  0  0
   60.1518   28.5753   44.6757 H   0  0  0  0  0  0  0  0  0  0  0  0
   61.5048   29.7568   44.6757 H   0  0  0  0  0  0  0  0  0  0  0  0
   62.3247   30.7503   46.7200 H   0  0  0  0  0  0  0  0  0  0  0  0
   60.1979   34.5745   52.0528 H   0  0  0  0  0  0  0  0  0  0  0  0
   58.8168   33.6773   53.9296 H   0  0  0  0  0  0  0  0  0  0  0  0
   57.0858   31.9329   53.4860 H   0  0  0  0  0  0  0  0  0  0  0  0
   56.7167   31.1018   51.1603 H   0  0  0  0  0  0  0  0  0  0  0  0
   58.1057   31.9841   49.2803 H   0  0  0  0  0  0  0  0  0  0  0  0
   59.7804   30.5559   50.2114 H   0  0  0  0  0  0  0  0  0  0  0  0
   58.3672   28.8416   49.0926 H   0  0  0  0  0  0  0  0  0  0  0  0
   59.0974   30.3175   45.6509 H   0  0  0  0  0  0  0  0  0  0  0  0
   59.9145   34.5506   46.3730 H   0  0  0  0  0  0  0  0  0  0  0  0
   60.3323   33.7518   44.8192 H   0  0  0  0  0  0  0  0  0  0  0  0
   59.6387   35.4088   44.8192 H   0  0  0  0  0  0  0  0  0  0  0  0
   55.4831   31.5666   43.6207 H   0  0  0  0  0  0  0  0  0  0  0  0
   54.4016   29.4011   44.2230 H   0  0  0  0  0  0  0  0  0  0  0  0
  1  2  1  0
  2  3  2  0
  3  4  1  0
  4  5  1  0
  5  6  2  0
  5  7  2  0
  5  8  1  0
  8  9  1  0
  9 10  2  0
  9 11  1  0
 11 12  2  0
 12 13  1  0
 13 14  2  0
 14 15  1  0
 15 16  2  0
  4 17  2  0
 17 18  1  0
 18 19  2  0
 19 20  1  0
 20 21  1  0
 21 22  2  0
 22 23  1  0
 23 24  1  0
 24 25  1  0
 25 26  1  0
 25 27  2  0
 25 28  2  0
 23 29  2  0
 29 30  1  0
 30 31  2  0
 31 32  1  0
 19  2  1  0
 31 21  1  0
 16 11  1  0
  1 33  1  0
  1 34  1  0
  1 35  1  0
  3 36  1  0
 12 37  1  0
 13 38  1  0
 14 39  1  0
 15 40  1  0
 16 41  1  0
 17 42  1  0
 18 43  1  0
 22 44  1  0
 26 45  1  0
 26 46  1  0
 26 47  1  0
 29 48  1  0
 30 49  1  0
M  CHG  3   8  -1  24  -1  32  -1
M  END
>  <UniqueID>  (70) 
65

>  <SMILES>  (70) 
Cc1cc(S(=O)(=O)[N-]C(=O)c2ccccc2)ccc1Sc1cc([N-]S(C)(=O)=O)ccc1[O-]

>  <Energy>  (70) 
52.89474454640508

>  <Genealogy>  (70) 
Cc1cc(S(=O)(=O)[N-]C(=O)c2ccccc2)ccc1Sc1cc([N-]S(C)(=O)=O)ccc1[O-] (protonated)
Cc1cc(S(=O)(=O)[N-]C(=O)c2ccccc2)ccc1Sc1cc([N-]S(C)(=O)=O)ccc1[O-] (3D coordinates assigned)
Cc1cc(S(=O)(=O)[N-]C(=O)c2ccccc2)ccc1Sc1cc([N-]S(C)(=O)=O)ccc1[O-] (optimized conformer: 52.89474454640508 kcal/mol)

>  <smiles>  (70) 
Cc1cc(S(=O)(=O)NC(=O)c2ccccc2)ccc1Sc1cc(NS(C)(=O)=O)ccc1O

>  <score_type>  (70) 
oracle

>  <origin>  (70) 
adg

>  <m_score__min__energy>  (70) 
-14.31

>  <m_primary>  (70) 
energy

$$$$
70:0
     RDKit          3D

 48 50  0  0  0  0  0  0  0  0999 V2000
   59.8360   26.3320   46.7960 C   0  0  0  0  0  0  0  0  0  0  0  0
   58.5670   26.6140   47.4890 N   0  0  0  0  0  0  0  0  0  0  0  0
   58.4850   28.0420   47.8680 C   0  0  0  0  0  0  0  0  0  0  0  0
   59.8170   28.5230   48.4560 C   0  0  0  0  0  0  0  0  0  0  0  0
   59.7570   29.9660   48.7390 N   0  0  0  0  0  0  0  0  0  0  0  0
   60.5290   30.8210   48.0030 C   0  0  0  0  0  0  0  0  0  0  0  0
   60.4680   32.1960   48.2190 C   0  0  0  0  0  0  0  0  0  0  0  0
   59.5920   32.6780   49.1880 C   0  0  0  0  0  0  0  0  0  0  0  0
   59.5040   33.9160   49.4050 O   0  0  0  0  0  0  0  0  0  0  0  0
   58.8270   31.8100   49.8970 N   0  0  0  0  0  0  0  0  0  0  0  0
   58.8970   30.4710   49.6830 C   0  0  0  0  0  0  0  0  0  0  0  0
   58.1600   29.7030   50.3590 O   0  0  0  0  0  0  0  0  0  0  0  0
   57.4240   26.2200   46.6340 C   0  0  0  0  0  0  0  0  0  0  0  0
   57.7150   26.5390   45.1640 C   0  0  0  0  0  0  0  0  0  0  0  0
   57.8370   27.9840   44.9660 N   0  0  0  0  0  0  0  0  0  0  0  0
   56.8560   28.9010   44.9740 C   0  0  0  0  0  0  0  0  0  0  0  0
   55.5180   28.6260   45.2340 O   0  0  0  0  0  0  0  0  0  0  0  0
   57.3930   30.1360   44.6780 C   0  0  0  0  0  0  0  0  0  0  0  0
   56.6320   31.4160   44.5020 C   0  0  0  0  0  0  0  0  0  0  0  0
   57.4410   32.5920   44.9800 C   0  0  0  0  0  0  0  0  0  0  0  0
   57.2710   33.0850   46.2840 C   0  0  0  0  0  0  0  0  0  0  0  0
   58.0430   34.1600   46.7360 C   0  0  0  0  0  0  0  0  0  0  0  0
   58.9990   34.7390   45.8950 C   0  0  0  0  0  0  0  0  0  0  0  0
   59.1870   34.2420   44.6020 C   0  0  0  0  0  0  0  0  0  0  0  0
   58.4130   33.1700   44.1450 C   0  0  0  0  0  0  0  0  0  0  0  0
   58.7180   30.0040   44.4510 N   0  0  0  0  0  0  0  0  0  0  0  0
   58.9460   28.6850   44.6430 C   0  0  0  0  0  0  0  0  0  0  0  0
   60.0870   28.1640   44.5200 O   0  0  0  0  0  0  0  0  0  0  0  0
   60.6281   26.1560   47.5387 H   0  0  0  0  0  0  0  0  0  0  0  0
   59.7189   25.4380   46.1659 H   0  0  0  0  0  0  0  0  0  0  0  0
   60.1086   27.1915   46.1659 H   0  0  0  0  0  0  0  0  0  0  0  0
   58.2473   28.6396   46.9756 H   0  0  0  0  0  0  0  0  0  0  0  0
   57.6986   28.1621   48.6277 H   0  0  0  0  0  0  0  0  0  0  0  0
   60.0198   27.9779   49.3897 H   0  0  0  0  0  0  0  0  0  0  0  0
   60.6196   28.3334   47.7281 H   0  0  0  0  0  0  0  0  0  0  0  0
   61.2045   30.4197   47.2332 H   0  0  0  0  0  0  0  0  0  0  0  0
   61.0976   32.8852   47.6372 H   0  0  0  0  0  0  0  0  0  0  0  0
   57.2478   25.1395   46.7414 H   0  0  0  0  0  0  0  0  0  0  0  0
   56.5340   26.7840   46.9498 H   0  0  0  0  0  0  0  0  0  0  0  0
   58.6561   26.0526   44.8677 H   0  0  0  0  0  0  0  0  0  0  0  0
   56.8838   26.1651   44.5482 H   0  0  0  0  0  0  0  0  0  0  0  0
   56.3956   31.5508   43.4362 H   0  0  0  0  0  0  0  0  0  0  0  0
   55.7081   31.3601   45.0964 H   0  0  0  0  0  0  0  0  0  0  0  0
   56.5283   32.6242   46.9519 H   0  0  0  0  0  0  0  0  0  0  0  0
   57.8982   34.5506   47.7541 H   0  0  0  0  0  0  0  0  0  0  0  0
   59.6034   35.5862   46.2514 H   0  0  0  0  0  0  0  0  0  0  0  0
   59.9437   34.6939   43.9438 H   0  0  0  0  0  0  0  0  0  0  0  0
   58.5656   32.7780   43.1286 H   0  0  0  0  0  0  0  0  0  0  0  0
  1  2  1  0
  2  3  1  0
  3  4  1  0
  4  5  1  0
  5  6  1  0
  6  7  2  0
  7  8  1  0
  8  9  2  0
  8 10  1  0
 10 11  1  0
 11 12  2  0
  2 13  1  0
 13 14  1  0
 14 15  1  0
 15 16  1  0
 16 17  1  0
 16 18  2  0
 18 19  1  0
 19 20  1  0
 20 21  2  0
 21 22  1  0
 22 23  2  0
 23 24  1  0
 24 25  2  0
 18 26  1  0
 26 27  1  0
 27 28  2  0
 11  5  1  0
 27 15  1  0
 25 20  1  0
  1 29  1  0
  1 30  1  0
  1 31  1  0
  3 32  1  0
  3 33  1  0
  4 34  1  0
  4 35  1  0
  6 36  1  0
  7 37  1  0
 13 38  1  0
 13 39  1  0
 14 40  1  0
 14 41  1  0
 19 42  1  0
 19 43  1  0
 21 44  1  0
 22 45  1  0
 23 46  1  0
 24 47  1  0
 25 48  1  0
M  CHG  3  10  -1  17  -1  26  -1
M  END
>  <UniqueID>  (71) 
66

>  <SMILES>  (71) 
CN(CCn1ccc(=O)[n-]c1=O)CCn1c([O-])c(Cc2ccccc2)[n-]c1=O

>  <Energy>  (71) 
81.22751105334319

>  <Genealogy>  (71) 
CN(CCn1ccc(=O)[n-]c1=O)CCn1c([O-])c(Cc2ccccc2)[n-]c1=O (protonated)
CN(CCn1ccc(=O)[n-]c1=O)CCn1c([O-])c(Cc2ccccc2)[n-]c1=O (3D coordinates assigned)
CN(CCn1ccc(=O)[n-]c1=O)CCn1c([O-])c(Cc2ccccc2)[n-]c1=O (optimized conformer: 81.22751105334319 kcal/mol)

>  <smiles>  (71) 
CN(CCn1ccc(=O)[nH]c1=O)CCn1c(O)c(Cc2ccccc2)[nH]c1=O

>  <score_type>  (71) 
oracle

>  <origin>  (71) 
adg

>  <m_score__min__energy>  (71) 
-14

>  <m_primary>  (71) 
energy

$$$$
71:0
     RDKit          3D

 55 57  0  0  0  0  0  0  0  0999 V2000
   57.8790   23.0840   45.3390 C   0  0  0  0  0  0  0  0  0  0  0  0
   57.5160   24.5380   45.3720 C   0  0  0  0  0  0  0  0  0  0  0  0
   58.1390   25.4480   44.5050 C   0  0  0  0  0  0  0  0  0  0  0  0
   57.8180   26.8080   44.5570 C   0  0  0  0  0  0  0  0  0  0  0  0
   56.8750   27.2800   45.4910 C   0  0  0  0  0  0  0  0  0  0  0  0
   56.5060   28.6630   45.5720 N   0  0  0  0  0  0  0  0  0  0  0  0
   56.8850   29.8560   44.3730 S   0  0  0  0  0  0  0  0  0  0  0  0
   56.6980   29.2690   43.0030 O   0  0  0  0  0  0  0  0  0  0  0  0
   55.9830   31.0470   44.5440 O   0  0  0  0  0  0  0  0  0  0  0  0
   58.5820   30.3940   44.5380 C   0  0  0  0  0  0  0  0  0  0  0  0
   59.2910   29.7170   45.7210 C   0  0  0  0  0  0  0  0  0  0  0  0
   59.6100   30.6840   46.7710 N   0  0  0  0  0  0  0  0  0  0  0  0
   59.1790   30.4970   48.1300 C   0  0  0  0  0  0  0  0  0  0  0  0
   58.5230   29.4640   48.4390 O   0  0  0  0  0  0  0  0  0  0  0  0
   59.5400   31.4640   49.1960 C   0  0  0  0  0  0  0  0  0  0  0  0
   58.6140   31.6850   50.2340 C   0  0  0  0  0  0  0  0  0  0  0  0
   58.9030   32.5730   51.2710 C   0  0  0  0  0  0  0  0  0  0  0  0
   60.1120   33.2650   51.2820 C   0  0  0  0  0  0  0  0  0  0  0  0
   61.0360   33.0740   50.2530 C   0  0  0  0  0  0  0  0  0  0  0  0
   60.7670   32.1750   49.2060 C   0  0  0  0  0  0  0  0  0  0  0  0
   61.7400   32.0710   48.0990 C   0  0  0  0  0  0  0  0  0  0  0  0
   62.6420   31.1940   48.1510 O   0  0  0  0  0  0  0  0  0  0  0  0
   61.6970   32.9590   46.9760 N   0  0  0  0  0  0  0  0  0  0  0  0
   60.9590   34.2160   46.9410 C   0  0  0  0  0  0  0  0  0  0  0  0
   59.5870   33.9700   46.3850 C   0  0  0  0  0  0  0  0  0  0  0  0
   59.3490   34.1040   45.0080 C   0  0  0  0  0  0  0  0  0  0  0  0
   58.0600   33.9330   44.4960 C   0  0  0  0  0  0  0  0  0  0  0  0
   56.9980   33.6370   45.3570 C   0  0  0  0  0  0  0  0  0  0  0  0
   57.2240   33.5130   46.7300 C   0  0  0  0  0  0  0  0  0  0  0  0
   58.5130   33.6800   47.2450 C   0  0  0  0  0  0  0  0  0  0  0  0
   56.2780   26.3710   46.3720 C   0  0  0  0  0  0  0  0  0  0  0  0
   56.5950   25.0100   46.3170 C   0  0  0  0  0  0  0  0  0  0  0  0
   57.9733   22.7062   46.3678 H   0  0  0  0  0  0  0  0  0  0  0  0
   57.0936   22.5219   44.8125 H   0  0  0  0  0  0  0  0  0  0  0  0
   58.8364   22.9570   44.8125 H   0  0  0  0  0  0  0  0  0  0  0  0
   58.8845   25.0896   43.7799 H   0  0  0  0  0  0  0  0  0  0  0  0
   58.3039   27.5122   43.8657 H   0  0  0  0  0  0  0  0  0  0  0  0
   59.1234   30.1485   43.6125 H   0  0  0  0  0  0  0  0  0  0  0  0
   58.5770   31.4785   44.7220 H   0  0  0  0  0  0  0  0  0  0  0  0
   58.6326   28.9401   46.1369 H   0  0  0  0  0  0  0  0  0  0  0  0
   60.2306   29.2756   45.3573 H   0  0  0  0  0  0  0  0  0  0  0  0
   60.2900   31.4460   46.5470 H   0  0  0  0  0  0  0  0  0  0  0  0
   57.6520   31.1516   50.2272 H   0  0  0  0  0  0  0  0  0  0  0  0
   58.1749   32.7268   52.0811 H   0  0  0  0  0  0  0  0  0  0  0  0
   60.3388   33.9623   52.1019 H   0  0  0  0  0  0  0  0  0  0  0  0
   61.9837   33.6323   50.2615 H   0  0  0  0  0  0  0  0  0  0  0  0
   60.8753   34.6215   47.9601 H   0  0  0  0  0  0  0  0  0  0  0  0
   61.4908   34.9381   46.3040 H   0  0  0  0  0  0  0  0  0  0  0  0
   60.1805   34.3446   44.3293 H   0  0  0  0  0  0  0  0  0  0  0  0
   57.8804   34.0312   43.4152 H   0  0  0  0  0  0  0  0  0  0  0  0
   55.9840   33.5018   44.9526 H   0  0  0  0  0  0  0  0  0  0  0  0
   56.3873   33.2838   47.4063 H   0  0  0  0  0  0  0  0  0  0  0  0
   58.6876   33.5842   48.3268 H   0  0  0  0  0  0  0  0  0  0  0  0
   55.5517   26.7309   47.1156 H   0  0  0  0  0  0  0  0  0  0  0  0
   56.1199   24.3077   47.0178 H   0  0  0  0  0  0  0  0  0  0  0  0
  1  2  1  0
  2  3  2  0
  3  4  1  0
  4  5  2  0
  5  6  1  0
  6  7  1  0
  7  8  2  0
  7  9  2  0
  7 10  1  0
 10 11  1  0
 11 12  1  0
 12 13  1  0
 13 14  2  0
 13 15  1  0
 15 16  2  0
 16 17  1  0
 17 18  2  0
 18 19  1  0
 19 20  2  0
 20 21  1  0
 21 22  2  0
 21 23  1  0
 23 24  1  0
 24 25  1  0
 25 26  2  0
 26 27  1  0
 27 28  2  0
 28 29  1  0
 29 30  2  0
  5 31  1  0
 31 32  2  0
 32  2  1  0
 20 15  1  0
 30 25  1  0
  1 33  1  0
  1 34  1  0
  1 35  1  0
  3 36  1  0
  4 37  1  0
 10 38  1  0
 10 39  1  0
 11 40  1  0
 11 41  1  0
 12 42  1  0
 16 43  1  0
 17 44  1  0
 18 45  1  0
 19 46  1  0
 24 47  1  0
 24 48  1  0
 26 49  1  0
 27 50  1  0
 28 51  1  0
 29 52  1  0
 30 53  1  0
 31 54  1  0
 32 55  1  0
M  CHG  2   6  -1  23  -1
M  END
>  <UniqueID>  (72) 
67

>  <SMILES>  (72) 
Cc1ccc([N-]S(=O)(=O)CCNC(=O)c2ccccc2C(=O)[N-]Cc2ccccc2)cc1

>  <Energy>  (72) 
58.286237236457374

>  <Genealogy>  (72) 
Cc1ccc([N-]S(=O)(=O)CCNC(=O)c2ccccc2C(=O)[N-]Cc2ccccc2)cc1 (protonated)
Cc1ccc([N-]S(=O)(=O)CCNC(=O)c2ccccc2C(=O)[N-]Cc2ccccc2)cc1 (3D coordinates assigned)
Cc1ccc([N-]S(=O)(=O)CCNC(=O)c2ccccc2C(=O)[N-]Cc2ccccc2)cc1 (optimized conformer: 58.286237236457374 kcal/mol)

>  <smiles>  (72) 
Cc1ccc(NS(=O)(=O)CCNC(=O)c2ccccc2C(=O)NCc2ccccc2)cc1

>  <score_type>  (72) 
oracle

>  <origin>  (72) 
adg

>  <m_score__min__energy>  (72) 
-12.66

>  <m_primary>  (72) 
energy

$$$$
72:0
     RDKit          3D

 40 41  0  0  0  0  0  0  0  0999 V2000
   55.1390   29.4500   44.9060 N   0  0  0  0  0  0  0  0  0  0  0  0
   56.6670   29.7430   44.1550 S   0  0  0  0  0  0  0  0  0  0  0  0
   57.5590   28.5500   44.3450 O   0  0  0  0  0  0  0  0  0  0  0  0
   56.4560   29.9660   42.6830 O   0  0  0  0  0  0  0  0  0  0  0  0
   57.4160   31.1570   44.8890 C   0  0  0  0  0  0  0  0  0  0  0  0
   56.7520   32.3910   44.9150 C   0  0  0  0  0  0  0  0  0  0  0  0
   57.3440   33.4930   45.5360 C   0  0  0  0  0  0  0  0  0  0  0  0
   58.6010   33.3720   46.1300 C   0  0  0  0  0  0  0  0  0  0  0  0
   59.2870   32.1480   46.0920 C   0  0  0  0  0  0  0  0  0  0  0  0
   60.6440   32.0120   46.7340 C   0  0  0  0  0  0  0  0  0  0  0  0
   60.5460   31.7500   48.2390 C   0  0  0  0  0  0  0  0  0  0  0  0
   59.3030   31.1300   48.5710 O   0  0  0  0  0  0  0  0  0  0  0  0
   59.1460   29.7500   48.7530 C   0  0  0  0  0  0  0  0  0  0  0  0
   58.7190   29.2980   49.8510 O   0  0  0  0  0  0  0  0  0  0  0  0
   59.4290   28.8550   47.6130 C   0  0  0  0  0  0  0  0  0  0  0  0
   59.3330   27.5160   47.6200 C   0  0  0  0  0  0  0  0  0  0  0  0
   58.3810   26.7290   46.8160 C   0  0  0  0  0  0  0  0  0  0  0  0
   58.8180   25.5630   46.1740 C   0  0  0  0  0  0  0  0  0  0  0  0
   57.9180   24.7840   45.4410 C   0  0  0  0  0  0  0  0  0  0  0  0
   56.5690   25.1460   45.3650 C   0  0  0  0  0  0  0  0  0  0  0  0
   55.6930   24.3520   44.6250 O   0  0  0  0  0  0  0  0  0  0  0  0
   56.1190   26.2940   46.0360 C   0  0  0  0  0  0  0  0  0  0  0  0
   54.7770   26.6530   45.9950 O   0  0  0  0  0  0  0  0  0  0  0  0
   57.0220   27.0810   46.7590 C   0  0  0  0  0  0  0  0  0  0  0  0
   58.6850   31.0410   45.4710 C   0  0  0  0  0  0  0  0  0  0  0  0
   55.2920   28.7230   45.6390 H   0  0  0  0  0  0  0  0  0  0  0  0
   55.7624   32.4918   44.4453 H   0  0  0  0  0  0  0  0  0  0  0  0
   56.8181   34.4589   45.5570 H   0  0  0  0  0  0  0  0  0  0  0  0
   59.0562   34.2396   46.6301 H   0  0  0  0  0  0  0  0  0  0  0  0
   61.1771   31.1735   46.2621 H   0  0  0  0  0  0  0  0  0  0  0  0
   61.1832   32.9599   46.5898 H   0  0  0  0  0  0  0  0  0  0  0  0
   61.3705   31.0885   48.5433 H   0  0  0  0  0  0  0  0  0  0  0  0
   60.6093   32.7129   48.7671 H   0  0  0  0  0  0  0  0  0  0  0  0
   59.7474   29.3285   46.6726 H   0  0  0  0  0  0  0  0  0  0  0  0
   60.0192   26.9624   48.2778 H   0  0  0  0  0  0  0  0  0  0  0  0
   59.8728   25.2595   46.2469 H   0  0  0  0  0  0  0  0  0  0  0  0
   58.2725   23.8817   44.9213 H   0  0  0  0  0  0  0  0  0  0  0  0
   54.7460   24.6460   44.4180 H   0  0  0  0  0  0  0  0  0  0  0  0
   56.6664   27.9792   47.2851 H   0  0  0  0  0  0  0  0  0  0  0  0
   59.2135   30.0767   45.4415 H   0  0  0  0  0  0  0  0  0  0  0  0
  1  2  1  0
  2  3  2  0
  2  4  2  0
  2  5  1  0
  5  6  2  0
  6  7  1  0
  7  8  2  0
  8  9  1  0
  9 10  1  0
 10 11  1  0
 11 12  1  0
 12 13  1  0
 13 14  2  0
 13 15  1  0
 15 16  2  3
 16 17  1  0
 17 18  2  0
 18 19  1  0
 19 20  2  0
 20 21  1  0
 20 22  1  0
 22 23  1  0
 22 24  2  0
  9 25  2  0
 25  5  1  0
 24 17  1  0
  1 26  1  0
  6 27  1  0
  7 28  1  0
  8 29  1  0
 10 30  1  0
 10 31  1  0
 11 32  1  0
 11 33  1  0
 15 34  1  0
 16 35  1  0
 18 36  1  0
 19 37  1  0
 21 38  1  0
 24 39  1  0
 25 40  1  0
M  CHG  2   1  -1  23  -1
M  END
>  <UniqueID>  (73) 
68

>  <SMILES>  (73) 
[NH-]S(=O)(=O)c1cccc(CCOC(=O)C=Cc2ccc(O)c([O-])c2)c1

>  <Energy>  (73) 
41.195042996531086

>  <Genealogy>  (73) 
[NH-]S(=O)(=O)c1cccc(CCOC(=O)C=Cc2ccc(O)c([O-])c2)c1 (protonated)
[NH-]S(=O)(=O)c1cccc(CCOC(=O)C=Cc2ccc(O)c([O-])c2)c1 (3D coordinates assigned)
[NH-]S(=O)(=O)c1cccc(CCOC(=O)C=Cc2ccc(O)c([O-])c2)c1 (optimized conformer: 41.195042996531086 kcal/mol)

>  <smiles>  (73) 
NS(=O)(=O)c1cccc(CCOC(=O)C=Cc2ccc(O)c(O)c2)c1

>  <score_type>  (73) 
oracle

>  <origin>  (73) 
adg

>  <m_score__min__energy>  (73) 
-14.390000000000001

>  <m_primary>  (73) 
energy

$$$$
73:0
     RDKit          3D

 45 47  0  0  0  0  0  0  0  0999 V2000
   56.2280   23.4530   47.7900 C   0  0  0  0  0  0  0  0  0  0  0  0
   56.9140   24.8120   47.6730 C   0  0  0  0  0  0  0  0  0  0  0  0
   57.4710   25.0300   46.2760 C   0  0  0  0  0  0  0  0  0  0  0  0
   58.2050   26.1170   45.9520 C   0  0  0  0  0  0  0  0  0  0  0  0
   57.6400   27.4120   45.5190 C   0  0  0  0  0  0  0  0  0  0  0  0
   56.2650   27.6360   45.6030 C   0  0  0  0  0  0  0  0  0  0  0  0
   55.4140   26.6340   46.0620 O   0  0  0  0  0  0  0  0  0  0  0  0
   55.7490   28.8330   45.2290 N   0  0  0  0  0  0  0  0  0  0  0  0
   56.5480   29.8370   44.7770 C   0  0  0  0  0  0  0  0  0  0  0  0
   56.0180   30.9310   44.4350 O   0  0  0  0  0  0  0  0  0  0  0  0
   57.9080   29.6630   44.6980 N   0  0  0  0  0  0  0  0  0  0  0  0
   58.7800   30.7670   44.2480 C   0  0  0  0  0  0  0  0  0  0  0  0
   58.6020   31.9740   45.1340 C   0  0  0  0  0  0  0  0  0  0  0  0
   58.5880   31.8360   46.5320 C   0  0  0  0  0  0  0  0  0  0  0  0
   58.3930   32.9540   47.3500 C   0  0  0  0  0  0  0  0  0  0  0  0
   58.2090   34.2160   46.7780 C   0  0  0  0  0  0  0  0  0  0  0  0
   58.2190   34.3620   45.3890 C   0  0  0  0  0  0  0  0  0  0  0  0
   58.4130   33.2460   44.5680 C   0  0  0  0  0  0  0  0  0  0  0  0
   58.4600   28.4650   45.0810 C   0  0  0  0  0  0  0  0  0  0  0  0
   59.7110   28.3010   45.0520 O   0  0  0  0  0  0  0  0  0  0  0  0
   57.2310   23.9950   45.2350 C   0  0  0  0  0  0  0  0  0  0  0  0
   56.1360   24.0940   44.3570 C   0  0  0  0  0  0  0  0  0  0  0  0
   55.9270   23.1230   43.3720 C   0  0  0  0  0  0  0  0  0  0  0  0
   56.8080   22.0460   43.2510 C   0  0  0  0  0  0  0  0  0  0  0  0
   56.6030   21.1070   42.2950 F   0  0  0  0  0  0  0  0  0  0  0  0
   57.8990   21.9370   44.1160 C   0  0  0  0  0  0  0  0  0  0  0  0
   58.1120   22.9040   45.1020 C   0  0  0  0  0  0  0  0  0  0  0  0
   56.0991   23.1976   48.8521 H   0  0  0  0  0  0  0  0  0  0  0  0
   55.2436   23.4959   47.3011 H   0  0  0  0  0  0  0  0  0  0  0  0
   56.8471   22.6864   47.3011 H   0  0  0  0  0  0  0  0  0  0  0  0
   56.1825   25.6031   47.8947 H   0  0  0  0  0  0  0  0  0  0  0  0
   57.7488   24.8427   48.3887 H   0  0  0  0  0  0  0  0  0  0  0  0
   59.2999   26.0321   46.0149 H   0  0  0  0  0  0  0  0  0  0  0  0
   54.7160   28.9820   45.2890 H   0  0  0  0  0  0  0  0  0  0  0  0
   59.8293   30.4394   44.2888 H   0  0  0  0  0  0  0  0  0  0  0  0
   58.5078   31.0385   43.2174 H   0  0  0  0  0  0  0  0  0  0  0  0
   58.7310   30.8441   46.9856 H   0  0  0  0  0  0  0  0  0  0  0  0
   58.3845   32.8398   48.4440 H   0  0  0  0  0  0  0  0  0  0  0  0
   58.0563   35.0946   47.4221 H   0  0  0  0  0  0  0  0  0  0  0  0
   58.0742   35.3557   44.9400 H   0  0  0  0  0  0  0  0  0  0  0  0
   58.4176   33.3649   43.4745 H   0  0  0  0  0  0  0  0  0  0  0  0
   55.4395   24.9408   44.4458 H   0  0  0  0  0  0  0  0  0  0  0  0
   55.0670   23.2078   42.6914 H   0  0  0  0  0  0  0  0  0  0  0  0
   58.5921   21.0881   44.0209 H   0  0  0  0  0  0  0  0  0  0  0  0
   58.9740   22.8126   45.7793 H   0  0  0  0  0  0  0  0  0  0  0  0
  1  2  1  0
  2  3  1  0
  3  4  2  3
  4  5  1  0
  5  6  2  0
  6  7  1  0
  6  8  1  0
  8  9  1  0
  9 10  2  0
  9 11  1  0
 11 12  1  0
 12 13  1  0
 13 14  2  0
 14 15  1  0
 15 16  2  0
 16 17  1  0
 17 18  2  0
 11 19  1  0
 19 20  2  0
  3 21  1  0
 21 22  2  0
 22 23  1  0
 23 24  2  0
 24 25  1  0
 24 26  1  0
 26 27  2  0
 19  5  1  0
 27 21  1  0
 18 13  1  0
  1 28  1  0
  1 29  1  0
  1 30  1  0
  2 31  1  0
  2 32  1  0
  4 33  1  0
  8 34  1  0
 12 35  1  0
 12 36  1  0
 14 37  1  0
 15 38  1  0
 16 39  1  0
 17 40  1  0
 18 41  1  0
 22 42  1  0
 23 43  1  0
 26 44  1  0
 27 45  1  0
M  CHG  1   7  -1
M  END
>  <UniqueID>  (74) 
69

>  <SMILES>  (74) 
CCC(=Cc1c([O-])[nH]c(=O)n(Cc2ccccc2)c1=O)c1ccc(F)cc1

>  <Energy>  (74) 
62.75871326943545

>  <Genealogy>  (74) 
CCC(=Cc1c([O-])[nH]c(=O)n(Cc2ccccc2)c1=O)c1ccc(F)cc1 (protonated)
CCC(=Cc1c([O-])[nH]c(=O)n(Cc2ccccc2)c1=O)c1ccc(F)cc1 (3D coordinates assigned)
CCC(=Cc1c([O-])[nH]c(=O)n(Cc2ccccc2)c1=O)c1ccc(F)cc1 (optimized conformer: 62.75871326943545 kcal/mol)

>  <smiles>  (74) 
CCC(=Cc1c(O)[nH]c(=O)n(Cc2ccccc2)c1=O)c1ccc(F)cc1

>  <score_type>  (74) 
oracle

>  <origin>  (74) 
adg

>  <m_score__min__energy>  (74) 
-11.619999999999999

>  <m_primary>  (74) 
energy

$$$$
74:0
     RDKit          3D

 44 46  0  0  0  0  0  0  0  0999 V2000
   60.3550   28.6380   44.8240 C   0  0  0  0  0  0  0  0  0  0  0  0
   59.6740   27.4280   45.3080 N   0  0  0  0  0  0  0  0  0  0  0  0
   59.5570   27.4290   46.7740 C   0  0  0  0  0  0  0  0  0  0  0  0
   58.3880   27.1600   44.6210 C   0  0  0  0  0  0  0  0  0  0  0  0
   57.1300   27.4910   45.4440 C   0  0  0  0  0  0  0  0  0  0  0  0
   56.4750   28.6380   44.9110 O   0  0  0  0  0  0  0  0  0  0  0  0
   57.0240   29.9290   44.8920 C   0  0  0  0  0  0  0  0  0  0  0  0
   56.8470   30.8140   43.7930 C   0  0  0  0  0  0  0  0  0  0  0  0
   57.4110   32.1010   43.8150 C   0  0  0  0  0  0  0  0  0  0  0  0
   58.1430   32.4750   44.9370 C   0  0  0  0  0  0  0  0  0  0  0  0
   58.3230   31.6270   46.0030 C   0  0  0  0  0  0  0  0  0  0  0  0
   57.7720   30.3470   46.0090 C   0  0  0  0  0  0  0  0  0  0  0  0
   59.1200   32.3020   47.0300 C   0  0  0  0  0  0  0  0  0  0  0  0
   59.4260   33.5260   46.5850 C   0  0  0  0  0  0  0  0  0  0  0  0
   60.1560   34.5720   47.3710 C   0  0  0  0  0  0  0  0  0  0  0  0
   61.5360   34.0870   47.7200 C   0  0  0  0  0  0  0  0  0  0  0  0
   61.9530   34.0400   49.0610 C   0  0  0  0  0  0  0  0  0  0  0  0
   63.2230   33.5530   49.3870 C   0  0  0  0  0  0  0  0  0  0  0  0
   64.0800   33.1010   48.3800 C   0  0  0  0  0  0  0  0  0  0  0  0
   63.6670   33.1320   47.0440 C   0  0  0  0  0  0  0  0  0  0  0  0
   62.3980   33.6180   46.7140 C   0  0  0  0  0  0  0  0  0  0  0  0
   58.8260   33.7100   45.2600 C   0  0  0  0  0  0  0  0  0  0  0  0
   58.8840   34.7450   44.5450 O   0  0  0  0  0  0  0  0  0  0  0  0
   60.6922   29.2372   45.6826 H   0  0  0  0  0  0  0  0  0  0  0  0
   61.2238   28.3505   44.2137 H   0  0  0  0  0  0  0  0  0  0  0  0
   59.6584   29.2315   44.2137 H   0  0  0  0  0  0  0  0  0  0  0  0
   60.5616   27.4204   47.2220 H   0  0  0  0  0  0  0  0  0  0  0  0
   59.0186   28.3318   47.0982 H   0  0  0  0  0  0  0  0  0  0  0  0
   59.0033   26.5356   47.0982 H   0  0  0  0  0  0  0  0  0  0  0  0
   58.3613   27.7610   43.7001 H   0  0  0  0  0  0  0  0  0  0  0  0
   58.3581   26.0761   44.4359 H   0  0  0  0  0  0  0  0  0  0  0  0
   56.4413   26.6338   45.4139 H   0  0  0  0  0  0  0  0  0  0  0  0
   57.4278   27.7006   46.4820 H   0  0  0  0  0  0  0  0  0  0  0  0
   56.2640   30.4886   42.9188 H   0  0  0  0  0  0  0  0  0  0  0  0
   57.2775   32.7922   42.9698 H   0  0  0  0  0  0  0  0  0  0  0  0
   57.9185   29.6769   46.8690 H   0  0  0  0  0  0  0  0  0  0  0  0
   59.4159   31.8759   48.0000 H   0  0  0  0  0  0  0  0  0  0  0  0
   60.2342   35.4901   46.7701 H   0  0  0  0  0  0  0  0  0  0  0  0
   59.6015   34.7777   48.2985 H   0  0  0  0  0  0  0  0  0  0  0  0
   61.2783   34.3874   49.8572 H   0  0  0  0  0  0  0  0  0  0  0  0
   63.5477   33.5258   50.4376 H   0  0  0  0  0  0  0  0  0  0  0  0
   65.0794   32.7208   48.6380 H   0  0  0  0  0  0  0  0  0  0  0  0
   64.3411   32.7737   46.2521 H   0  0  0  0  0  0  0  0  0  0  0  0
   62.0733   33.6333   45.6631 H   0  0  0  0  0  0  0  0  0  0  0  0
  1  2  1  0
  2  3  1  0
  2  4  1  0
  4  5  1  0
  5  6  1  0
  6  7  1  0
  7  8  2  0
  8  9  1  0
  9 10  2  0
 10 11  1  0
 11 12  2  0
 11 13  1  0
 13 14  2  0
 14 15  1  0
 15 16  1  0
 16 17  2  0
 17 18  1  0
 18 19  2  0
 19 20  1  0
 20 21  2  0
 14 22  1  0
 22 23  2  0
 12  7  1  0
 21 16  1  0
 22 10  1  0
  1 24  1  0
  1 25  1  0
  1 26  1  0
  3 27  1  0
  3 28  1  0
  3 29  1  0
  4 30  1  0
  4 31  1  0
  5 32  1  0
  5 33  1  0
  8 34  1  0
  9 35  1  0
 12 36  1  0
 13 37  1  0
 15 38  1  0
 15 39  1  0
 17 40  1  0
 18 41  1  0
 19 42  1  0
 20 43  1  0
 21 44  1  0
M  END
>  <UniqueID>  (75) 
70

>  <SMILES>  (75) 
CN(C)CCOc1ccc2c(c1)C=C(Cc1ccccc1)C2=O

>  <Energy>  (75) 
73.77683110193333

>  <Genealogy>  (75) 
CN(C)CCOc1ccc2c(c1)C=C(Cc1ccccc1)C2=O (3D coordinates assigned)
CN(C)CCOc1ccc2c(c1)C=C(Cc1ccccc1)C2=O (nonaromatic ring conformer: 73.77683110193333 kcal/mol)

>  <smiles>  (75) 
CN(C)CCOc1ccc2c(c1)C=C(Cc1ccccc1)C2=O

>  <score_type>  (75) 
oracle

>  <origin>  (75) 
adg

>  <m_score__min__energy>  (75) 
-7.9900000000000002

>  <m_primary>  (75) 
energy

$$$$
75:0
     RDKit          3D

 45 46  0  0  0  0  0  0  0  0999 V2000
   65.1730   32.7720   49.7210 C   0  0  0  0  0  0  0  0  0  0  0  0
   64.1340   32.5770   48.7050 N   0  0  0  0  0  0  0  0  0  0  0  0
   63.3790   33.8110   48.4250 C   0  0  0  0  0  0  0  0  0  0  0  0
   62.7230   33.7990   47.0330 C   0  0  0  0  0  0  0  0  0  0  0  0
   61.5540   32.9020   47.0240 N   0  0  0  0  0  0  0  0  0  0  0  0
   60.1960   33.4520   47.0530 C   0  0  0  0  0  0  0  0  0  0  0  0
   61.7200   31.4740   47.1170 C   0  0  0  0  0  0  0  0  0  0  0  0
   62.8840   30.9920   47.1740 O   0  0  0  0  0  0  0  0  0  0  0  0
   60.5590   30.5590   47.1470 C   0  0  0  0  0  0  0  0  0  0  0  0
   60.0060   30.1570   48.3710 C   0  0  0  0  0  0  0  0  0  0  0  0
   58.8950   29.3140   48.3820 C   0  0  0  0  0  0  0  0  0  0  0  0
   58.3540   28.8820   47.2130 N   0  0  0  0  0  0  0  0  0  0  0  0
   58.8590   29.2500   46.0020 C   0  0  0  0  0  0  0  0  0  0  0  0
   58.2440   28.7590   44.7950 N   0  0  0  0  0  0  0  0  0  0  0  0
   58.8460   27.6090   44.1130 C   0  0  0  0  0  0  0  0  0  0  0  0
   57.1730   29.5170   44.1320 C   0  0  0  0  0  0  0  0  0  0  0  0
   57.4030   30.9840   44.3080 C   0  0  0  0  0  0  0  0  0  0  0  0
   57.9920   31.8250   43.3850 C   0  0  0  0  0  0  0  0  0  0  0  0
   57.9590   33.0790   43.9560 C   0  0  0  0  0  0  0  0  0  0  0  0
   57.3490   32.9250   45.1860 C   0  0  0  0  0  0  0  0  0  0  0  0
   57.0260   31.6650   45.3650 O   0  0  0  0  0  0  0  0  0  0  0  0
   59.9620   30.1200   45.9550 C   0  0  0  0  0  0  0  0  0  0  0  0
   64.7265   32.6882   50.7228 H   0  0  0  0  0  0  0  0  0  0  0  0
   65.9517   32.0043   49.6012 H   0  0  0  0  0  0  0  0  0  0  0  0
   65.6203   33.7698   49.6012 H   0  0  0  0  0  0  0  0  0  0  0  0
   64.5680   32.2070   47.8270 H   0  0  0  0  0  0  0  0  0  0  0  0
   63.4620   31.8580   49.0620 H   0  0  0  0  0  0  0  0  0  0  0  0
   62.5915   33.9225   49.1849 H   0  0  0  0  0  0  0  0  0  0  0  0
   64.0896   34.6503   48.4518 H   0  0  0  0  0  0  0  0  0  0  0  0
   62.3996   34.8185   46.7759 H   0  0  0  0  0  0  0  0  0  0  0  0
   63.4557   33.4378   46.2963 H   0  0  0  0  0  0  0  0  0  0  0  0
   59.8752   33.5819   48.0971 H   0  0  0  0  0  0  0  0  0  0  0  0
   60.1839   34.4259   46.5418 H   0  0  0  0  0  0  0  0  0  0  0  0
   59.5095   32.7610   46.5418 H   0  0  0  0  0  0  0  0  0  0  0  0
   60.4459   30.5045   49.3174 H   0  0  0  0  0  0  0  0  0  0  0  0
   58.4556   28.9980   49.3397 H   0  0  0  0  0  0  0  0  0  0  0  0
   59.2202   26.8941   44.8605 H   0  0  0  0  0  0  0  0  0  0  0  0
   58.0890   27.1186   43.4834 H   0  0  0  0  0  0  0  0  0  0  0  0
   59.6804   27.9516   43.4834 H   0  0  0  0  0  0  0  0  0  0  0  0
   57.1657   29.2752   43.0589 H   0  0  0  0  0  0  0  0  0  0  0  0
   56.2062   29.2458   44.5812 H   0  0  0  0  0  0  0  0  0  0  0  0
   58.4013   31.5518   42.4012 H   0  0  0  0  0  0  0  0  0  0  0  0
   58.3413   34.0139   43.5203 H   0  0  0  0  0  0  0  0  0  0  0  0
   57.1622   33.7352   45.9062 H   0  0  0  0  0  0  0  0  0  0  0  0
   60.3569   30.4564   44.9850 H   0  0  0  0  0  0  0  0  0  0  0  0
  1  2  1  0
  2  3  1  0
  3  4  1  0
  4  5  1  0
  5  6  1  0
  5  7  1  0
  7  8  2  0
  7  9  1  0
  9 10  2  0
 10 11  1  0
 11 12  2  0
 12 13  1  0
 13 14  1  0
 14 15  1  0
 14 16  1  0
 16 17  1  0
 17 18  2  0
 18 19  1  0
 19 20  2  0
 20 21  1  0
 13 22  2  0
 22  9  1  0
 21 17  1  0
  1 23  1  0
  1 24  1  0
  1 25  1  0
  2 26  1  0
  2 27  1  0
  3 28  1  0
  3 29  1  0
  4 30  1  0
  4 31  1  0
  6 32  1  0
  6 33  1  0
  6 34  1  0
 10 35  1  0
 11 36  1  0
 15 37  1  0
 15 38  1  0
 15 39  1  0
 16 40  1  0
 16 41  1  0
 18 42  1  0
 19 43  1  0
 20 44  1  0
 22 45  1  0
M  CHG  1   2   1
M  END
>  <UniqueID>  (76) 
71

>  <SMILES>  (76) 
C[NH2+]CCN(C)C(=O)c1ccnc(N(C)Cc2ccco2)c1

>  <Energy>  (76) 
71.46303859901046

>  <Genealogy>  (76) 
C[NH2+]CCN(C)C(=O)c1ccnc(N(C)Cc2ccco2)c1 (protonated)
C[NH2+]CCN(C)C(=O)c1ccnc(N(C)Cc2ccco2)c1 (3D coordinates assigned)
C[NH2+]CCN(C)C(=O)c1ccnc(N(C)Cc2ccco2)c1 (optimized conformer: 71.46303859901046 kcal/mol)

>  <smiles>  (76) 
CNCCN(C)C(=O)c1ccnc(N(C)Cc2ccco2)c1

>  <score_type>  (76) 
oracle

>  <origin>  (76) 
adg

>  <m_score__min__energy>  (76) 
-5.0199999999999996

>  <m_primary>  (76) 
energy

$$$$
76:0
     RDKit          3D

 53 55  0  0  0  0  0  0  0  0999 V2000
   59.5580   34.9790   48.2130 N   0  0  0  0  0  0  0  0  0  0  0  0
   60.0130   34.8670   46.5490 S   0  0  0  0  0  0  0  0  0  0  0  0
   59.7260   36.1730   45.8640 O   0  0  0  0  0  0  0  0  0  0  0  0
   61.4860   34.5860   46.4500 O   0  0  0  0  0  0  0  0  0  0  0  0
   59.1070   33.5720   45.7740 C   0  0  0  0  0  0  0  0  0  0  0  0
   58.6330   32.4930   46.5330 C   0  0  0  0  0  0  0  0  0  0  0  0
   57.9010   31.4710   45.9220 C   0  0  0  0  0  0  0  0  0  0  0  0
   57.6510   31.5080   44.5400 C   0  0  0  0  0  0  0  0  0  0  0  0
   56.8700   30.4940   43.9000 N   0  0  0  0  0  0  0  0  0  0  0  0
   56.3150   29.3310   44.5290 C   0  0  0  0  0  0  0  0  0  0  0  0
   55.0960   29.3460   44.8490 O   0  0  0  0  0  0  0  0  0  0  0  0
   57.1040   28.0520   44.6530 C   0  0  0  0  0  0  0  0  0  0  0  0
   58.2950   28.0780   43.7820 N   0  0  0  0  0  0  0  0  0  0  0  0
   59.5600   27.9230   44.5320 C   0  0  0  0  0  0  0  0  0  0  0  0
   59.3010   27.2120   45.8860 C   0  0  0  0  0  0  0  0  0  0  0  0
   59.1320   28.2230   47.0250 C   0  0  0  0  0  0  0  0  0  0  0  0
   60.3700   29.0110   47.2420 N   0  0  0  0  0  0  0  0  0  0  0  0
   60.0730   30.2390   48.0070 C   0  0  0  0  0  0  0  0  0  0  0  0
   61.3440   30.9850   48.3220 C   0  0  0  0  0  0  0  0  0  0  0  0
   61.9550   30.8320   49.5780 C   0  0  0  0  0  0  0  0  0  0  0  0
   63.1360   31.5190   49.8750 C   0  0  0  0  0  0  0  0  0  0  0  0
   63.7130   32.3640   48.9220 C   0  0  0  0  0  0  0  0  0  0  0  0
   63.1100   32.5230   47.6710 C   0  0  0  0  0  0  0  0  0  0  0  0
   61.9300   31.8370   47.3700 C   0  0  0  0  0  0  0  0  0  0  0  0
   61.1320   29.2970   45.9950 C   0  0  0  0  0  0  0  0  0  0  0  0
   60.2420   29.2980   44.7440 C   0  0  0  0  0  0  0  0  0  0  0  0
   58.0890   32.6080   43.7930 C   0  0  0  0  0  0  0  0  0  0  0  0
   58.8210   33.6310   44.4030 C   0  0  0  0  0  0  0  0  0  0  0  0
   58.9040   35.7890   48.2960 H   0  0  0  0  0  0  0  0  0  0  0  0
   60.4200   35.2320   48.7490 H   0  0  0  0  0  0  0  0  0  0  0  0
   58.8378   32.4505   47.6129 H   0  0  0  0  0  0  0  0  0  0  0  0
   57.5192   30.6344   46.5256 H   0  0  0  0  0  0  0  0  0  0  0  0
   57.4251   27.9274   45.6977 H   0  0  0  0  0  0  0  0  0  0  0  0
   56.4625   27.2135   44.3441 H   0  0  0  0  0  0  0  0  0  0  0  0
   58.3090   29.0170   43.3170 H   0  0  0  0  0  0  0  0  0  0  0  0
   60.2441   27.2958   43.9415 H   0  0  0  0  0  0  0  0  0  0  0  0
   58.3848   26.6088   45.8040 H   0  0  0  0  0  0  0  0  0  0  0  0
   60.1684   26.5752   46.1142 H   0  0  0  0  0  0  0  0  0  0  0  0
   58.3106   28.9101   46.7738 H   0  0  0  0  0  0  0  0  0  0  0  0
   58.9104   27.6680   47.9485 H   0  0  0  0  0  0  0  0  0  0  0  0
   59.4119   30.8856   47.4113 H   0  0  0  0  0  0  0  0  0  0  0  0
   59.5810   29.9601   48.9505 H   0  0  0  0  0  0  0  0  0  0  0  0
   61.5025   30.1693   50.3304 H   0  0  0  0  0  0  0  0  0  0  0  0
   63.6115   31.3946   50.8591 H   0  0  0  0  0  0  0  0  0  0  0  0
   64.6421   32.9040   49.1569 H   0  0  0  0  0  0  0  0  0  0  0  0
   63.5646   33.1887   46.9226 H   0  0  0  0  0  0  0  0  0  0  0  0
   61.4582   31.9644   46.3845 H   0  0  0  0  0  0  0  0  0  0  0  0
   61.6056   30.2852   46.0908 H   0  0  0  0  0  0  0  0  0  0  0  0
   61.8784   28.4985   45.8712 H   0  0  0  0  0  0  0  0  0  0  0  0
   59.4653   30.0685   44.8584 H   0  0  0  0  0  0  0  0  0  0  0  0
   60.8755   29.5078   43.8696 H   0  0  0  0  0  0  0  0  0  0  0  0
   57.8558   32.6678   42.7197 H   0  0  0  0  0  0  0  0  0  0  0  0
   59.1735   34.4846   43.8054 H   0  0  0  0  0  0  0  0  0  0  0  0
  1  2  1  0
  2  3  2  0
  2  4  2  0
  2  5  1  0
  5  6  2  0
  6  7  1  0
  7  8  2  0
  8  9  1  0
  9 10  1  0
 10 11  2  0
 10 12  1  0
 12 13  1  0
 13 14  1  0
 14 15  1  0
 15 16  1  0
 16 17  1  0
 17 18  1  0
 18 19  1  0
 19 20  2  0
 20 21  1  0
 21 22  2  0
 22 23  1  0
 23 24  2  0
 17 25  1  0
 25 26  1  0
  8 27  1  0
 27 28  2  0
 28  5  1  0
 26 14  1  0
 24 19  1  0
  1 29  1  0
  1 30  1  0
  6 31  1  0
  7 32  1  0
 12 33  1  0
 12 34  1  0
 13 35  1  0
 14 36  1  0
 15 37  1  0
 15 38  1  0
 16 39  1  0
 16 40  1  0
 18 41  1  0
 18 42  1  0
 20 43  1  0
 21 44  1  0
 22 45  1  0
 23 46  1  0
 24 47  1  0
 25 48  1  0
 25 49  1  0
 26 50  1  0
 26 51  1  0
 27 52  1  0
 28 53  1  0
M  CHG  1   9  -1
M  END
>  <UniqueID>  (77) 
72

>  <SMILES>  (77) 
NS(=O)(=O)c1ccc([N-]C(=O)CNC2CCN(Cc3ccccc3)CC2)cc1

>  <Energy>  (77) 
68.59607161658903

>  <Genealogy>  (77) 
NS(=O)(=O)c1ccc([N-]C(=O)CNC2CCN(Cc3ccccc3)CC2)cc1 (protonated)
NS(=O)(=O)c1ccc([N-]C(=O)CNC2CCN(Cc3ccccc3)CC2)cc1 (3D coordinates assigned)
NS(=O)(=O)c1ccc([N-]C(=O)CNC2CCN(Cc3ccccc3)CC2)cc1 (nonaromatic ring conformer: 68.59607161658903 kcal/mol)

>  <smiles>  (77) 
NS(=O)(=O)c1ccc(NC(=O)CNC2CCN(Cc3ccccc3)CC2)cc1

>  <score_type>  (77) 
oracle

>  <origin>  (77) 
adg

>  <m_score__min__energy>  (77) 
-11

>  <m_primary>  (77) 
energy

$$$$
77:0
     RDKit          3D

 32 33  0  0  0  0  0  0  0  0999 V2000
   57.3400   25.9690   47.3690 N   0  0  0  0  0  0  0  0  0  0  0  0
   56.6870   26.6050   45.9010 S   0  0  0  0  0  0  0  0  0  0  0  0
   57.0900   25.7280   44.7490 O   0  0  0  0  0  0  0  0  0  0  0  0
   55.1880   26.6210   45.9980 O   0  0  0  0  0  0  0  0  0  0  0  0
   57.3060   28.2370   45.6410 C   0  0  0  0  0  0  0  0  0  0  0  0
   58.6450   28.5390   45.9290 C   0  0  0  0  0  0  0  0  0  0  0  0
   59.1500   29.8350   45.7300 C   0  0  0  0  0  0  0  0  0  0  0  0
   60.6240   30.0820   45.9710 C   0  0  0  0  0  0  0  0  0  0  0  0
   60.9210   30.1310   47.4000 N   0  0  0  0  0  0  0  0  0  0  0  0
   58.2950   30.8380   45.2200 C   0  0  0  0  0  0  0  0  0  0  0  0
   58.8630   32.5230   44.9280 S   0  0  0  0  0  0  0  0  0  0  0  0
   59.0940   32.8710   46.6750 C   0  0  0  0  0  0  0  0  0  0  0  0
   58.3460   32.1710   47.6300 C   0  0  0  0  0  0  0  0  0  0  0  0
   58.5220   32.4340   48.9920 C   0  0  0  0  0  0  0  0  0  0  0  0
   59.4420   33.4050   49.4040 C   0  0  0  0  0  0  0  0  0  0  0  0
   59.6610   33.7360   51.1130 Cl  0  0  0  0  0  0  0  0  0  0  0  0
   60.1800   34.1150   48.4520 C   0  0  0  0  0  0  0  0  0  0  0  0
   60.0040   33.8510   47.0900 C   0  0  0  0  0  0  0  0  0  0  0  0
   56.9660   30.5230   44.9080 C   0  0  0  0  0  0  0  0  0  0  0  0
   56.4700   29.2350   45.1230 C   0  0  0  0  0  0  0  0  0  0  0  0
   55.1430   28.9570   44.8130 O   0  0  0  0  0  0  0  0  0  0  0  0
   56.6430   25.2860   47.7420 H   0  0  0  0  0  0  0  0  0  0  0  0
   59.3083   27.7512   46.3156 H   0  0  0  0  0  0  0  0  0  0  0  0
   61.2047   29.2689   45.5108 H   0  0  0  0  0  0  0  0  0  0  0  0
   60.8942   31.0502   45.5241 H   0  0  0  0  0  0  0  0  0  0  0  0
   60.2170   29.5520   47.9120 H   0  0  0  0  0  0  0  0  0  0  0  0
   60.8210   31.1180   47.7310 H   0  0  0  0  0  0  0  0  0  0  0  0
   57.6179   31.4121   47.3077 H   0  0  0  0  0  0  0  0  0  0  0  0
   57.9374   31.8778   49.7396 H   0  0  0  0  0  0  0  0  0  0  0  0
   60.8996   34.8819   48.7746 H   0  0  0  0  0  0  0  0  0  0  0  0
   60.5819   34.4146   46.3428 H   0  0  0  0  0  0  0  0  0  0  0  0
   56.3066   31.2977   44.4896 H   0  0  0  0  0  0  0  0  0  0  0  0
  1  2  1  0
  2  3  2  0
  2  4  2  0
  2  5  1  0
  5  6  2  0
  6  7  1  0
  7  8  1  0
  8  9  1  0
  7 10  2  0
 10 11  1  0
 11 12  1  0
 12 13  2  0
 13 14  1  0
 14 15  2  0
 15 16  1  0
 15 17  1  0
 17 18  2  0
 10 19  1  0
 19 20  2  0
 20 21  1  0
 20  5  1  0
 18 12  1  0
  1 22  1  0
  6 23  1  0
  8 24  1  0
  8 25  1  0
  9 26  1  0
  9 27  1  0
 13 28  1  0
 14 29  1  0
 17 30  1  0
 18 31  1  0
 19 32  1  0
M  CHG  2   1  -1  21  -1
M  END
>  <UniqueID>  (78) 
73

>  <SMILES>  (78) 
[NH-]S(=O)(=O)c1cc(CN)c(Sc2ccc(Cl)cc2)cc1[O-]

>  <Energy>  (78) 
28.95314226572178

>  <Genealogy>  (78) 
[NH-]S(=O)(=O)c1cc(CN)c(Sc2ccc(Cl)cc2)cc1[O-] (protonated)
[NH-]S(=O)(=O)c1cc(CN)c(Sc2ccc(Cl)cc2)cc1[O-] (3D coordinates assigned)
[NH-]S(=O)(=O)c1cc(CN)c(Sc2ccc(Cl)cc2)cc1[O-] (optimized conformer: 28.95314226572178 kcal/mol)

>  <smiles>  (78) 
NCc1cc(S(N)(=O)=O)c(O)cc1Sc1ccc(Cl)cc1

>  <score_type>  (78) 
oracle

>  <origin>  (78) 
adg

>  <m_score__min__energy>  (78) 
-13.210000000000001

>  <m_primary>  (78) 
energy

$$$$
78:0
     RDKit          3D

 44 47  0  0  0  0  0  0  0  0999 V2000
   56.8870   34.4830   44.5040 O   0  0  0  0  0  0  0  0  0  0  0  0
   57.7220   33.6160   44.9130 C   0  0  0  0  0  0  0  0  0  0  0  0
   58.0880   32.5680   43.9960 N   0  0  0  0  0  0  0  0  0  0  0  0
   57.3900   31.4750   44.0700 C   0  0  0  0  0  0  0  0  0  0  0  0
   56.3060   31.3210   44.8630 N   0  0  0  0  0  0  0  0  0  0  0  0
   55.8430   30.0850   44.6720 N   0  0  0  0  0  0  0  0  0  0  0  0
   56.6040   29.4540   43.7830 N   0  0  0  0  0  0  0  0  0  0  0  0
   57.5560   30.3130   43.4130 N   0  0  0  0  0  0  0  0  0  0  0  0
   58.3020   33.6590   46.2520 C   0  0  0  0  0  0  0  0  0  0  0  0
   57.9270   32.7950   47.2570 C   0  0  0  0  0  0  0  0  0  0  0  0
   58.5160   32.8940   48.5050 C   0  0  0  0  0  0  0  0  0  0  0  0
   59.4840   33.8530   48.7730 C   0  0  0  0  0  0  0  0  0  0  0  0
   60.1160   33.9450   50.1410 C   0  0  0  0  0  0  0  0  0  0  0  0
   61.2050   32.9700   50.1000 N   0  0  0  0  0  0  0  0  0  0  0  0
   60.9120   31.7000   49.7700 N   0  0  0  0  0  0  0  0  0  0  0  0
   61.8610   30.7530   49.7140 C   0  0  0  0  0  0  0  0  0  0  0  0
   61.4850   29.4610   49.3650 O   0  0  0  0  0  0  0  0  0  0  0  0
   60.5600   29.3060   48.3400 C   0  0  0  0  0  0  0  0  0  0  0  0
   59.4970   28.4290   48.4020 C   0  0  0  0  0  0  0  0  0  0  0  0
   58.6600   28.3800   47.3070 C   0  0  0  0  0  0  0  0  0  0  0  0
   58.8690   29.1680   46.1970 C   0  0  0  0  0  0  0  0  0  0  0  0
   59.9320   30.0480   46.1290 C   0  0  0  0  0  0  0  0  0  0  0  0
   60.7720   30.1050   47.2160 C   0  0  0  0  0  0  0  0  0  0  0  0
   63.1910   31.0100   49.9850 C   0  0  0  0  0  0  0  0  0  0  0  0
   63.4950   32.3220   50.3260 C   0  0  0  0  0  0  0  0  0  0  0  0
   62.4680   33.2600   50.3670 C   0  0  0  0  0  0  0  0  0  0  0  0
   62.7920   34.4330   50.6790 O   0  0  0  0  0  0  0  0  0  0  0  0
   59.8670   34.7240   47.7700 C   0  0  0  0  0  0  0  0  0  0  0  0
   59.2680   34.6050   46.5410 C   0  0  0  0  0  0  0  0  0  0  0  0
   56.5030   28.4760   43.4230 H   0  0  0  0  0  0  0  0  0  0  0  0
   58.3240   30.1560   42.7240 H   0  0  0  0  0  0  0  0  0  0  0  0
   57.1612   32.0283   47.0679 H   0  0  0  0  0  0  0  0  0  0  0  0
   58.2113   32.1989   49.3012 H   0  0  0  0  0  0  0  0  0  0  0  0
   60.5056   34.9574   50.3234 H   0  0  0  0  0  0  0  0  0  0  0  0
   59.3993   33.7420   50.9505 H   0  0  0  0  0  0  0  0  0  0  0  0
   59.3246   27.7969   49.2856 H   0  0  0  0  0  0  0  0  0  0  0  0
   57.8015   27.6924   47.3206 H   0  0  0  0  0  0  0  0  0  0  0  0
   58.1750   29.0952   45.3467 H   0  0  0  0  0  0  0  0  0  0  0  0
   60.0993   30.6768   45.2421 H   0  0  0  0  0  0  0  0  0  0  0  0
   61.6288   30.7947   47.1992 H   0  0  0  0  0  0  0  0  0  0  0  0
   63.9605   30.2256   49.9340 H   0  0  0  0  0  0  0  0  0  0  0  0
   64.5295   32.6142   50.5595 H   0  0  0  0  0  0  0  0  0  0  0  0
   60.6323   35.4928   47.9524 H   0  0  0  0  0  0  0  0  0  0  0  0
   59.5725   35.2989   45.7437 H   0  0  0  0  0  0  0  0  0  0  0  0
  1  2  2  0
  2  3  1  0
  3  4  2  3
  4  5  1  0
  5  6  2  0
  6  7  1  0
  7  8  1  0
  2  9  1  0
  9 10  2  0
 10 11  1  0
 11 12  2  0
 12 13  1  0
 13 14  1  0
 14 15  1  0
 15 16  2  0
 16 17  1  0
 17 18  1  0
 18 19  2  0
 19 20  1  0
 20 21  2  0
 21 22  1  0
 22 23  2  0
 16 24  1  0
 24 25  2  0
 25 26  1  0
 26 27  2  0
 12 28  1  0
 28 29  2  0
  8  4  1  0
 29  9  1  0
 26 14  1  0
 23 18  1  0
  7 30  1  0
  8 31  1  0
 10 32  1  0
 11 33  1  0
 13 34  1  0
 13 35  1  0
 19 36  1  0
 20 37  1  0
 21 38  1  0
 22 39  1  0
 23 40  1  0
 24 41  1  0
 25 42  1  0
 28 43  1  0
 29 44  1  0
M  END
>  <smiles>  (79) 
O=C(N=c1nn[nH][nH]1)c1ccc(Cn2nc(Oc3ccccc3)ccc2=O)cc1

>  <score_type>  (79) 
oracle

>  <origin>  (79) 
adg

>  <m_score__min__energy>  (79) 
-9.8499999999999996

>  <m_primary>  (79) 
energy

$$$$
79:0
     RDKit          3D

 46 48  0  0  0  0  0  0  0  0999 V2000
   55.7030   26.7580   46.0820 N   0  0  0  0  0  0  0  0  0  0  0  0
   57.3400   26.6000   45.5510 S   0  0  0  0  0  0  0  0  0  0  0  0
   57.4880   27.1950   44.1780 O   0  0  0  0  0  0  0  0  0  0  0  0
   57.6960   25.1410   45.4890 O   0  0  0  0  0  0  0  0  0  0  0  0
   58.4050   27.4420   46.6720 C   0  0  0  0  0  0  0  0  0  0  0  0
   59.4140   26.7510   47.3570 C   0  0  0  0  0  0  0  0  0  0  0  0
   60.2430   27.4300   48.2550 C   0  0  0  0  0  0  0  0  0  0  0  0
   60.0740   28.8000   48.4680 C   0  0  0  0  0  0  0  0  0  0  0  0
   59.0790   29.5060   47.7700 C   0  0  0  0  0  0  0  0  0  0  0  0
   58.8640   30.9100   47.9790 N   0  0  0  0  0  0  0  0  0  0  0  0
   59.7550   31.8100   48.6520 C   0  0  0  0  0  0  0  0  0  0  0  0
   59.4680   32.1720   49.8220 O   0  0  0  0  0  0  0  0  0  0  0  0
   60.9470   32.3760   47.9740 C   0  0  0  0  0  0  0  0  0  0  0  0
   62.1480   31.6430   47.9950 C   0  0  0  0  0  0  0  0  0  0  0  0
   63.3160   32.1700   47.4400 C   0  0  0  0  0  0  0  0  0  0  0  0
   63.3020   33.4390   46.8620 C   0  0  0  0  0  0  0  0  0  0  0  0
   62.1190   34.1760   46.8220 C   0  0  0  0  0  0  0  0  0  0  0  0
   60.9300   33.6470   47.3470 C   0  0  0  0  0  0  0  0  0  0  0  0
   59.4440   34.6670   47.2770 S   0  0  0  0  0  0  0  0  0  0  0  0
   58.6420   33.6470   46.0320 C   0  0  0  0  0  0  0  0  0  0  0  0
   59.0380   33.7010   44.6940 C   0  0  0  0  0  0  0  0  0  0  0  0
   58.4050   32.8970   43.7440 C   0  0  0  0  0  0  0  0  0  0  0  0
   57.3830   32.0150   44.1510 C   0  0  0  0  0  0  0  0  0  0  0  0
   56.7410   31.2480   43.3140 N   0  0  0  0  0  0  0  0  0  0  0  0
   56.3910   29.8660   43.4860 C   0  0  0  0  0  0  0  0  0  0  0  0
   56.0740   29.3520   44.7850 N   0  0  0  0  0  0  0  0  0  0  0  0
   56.2430   29.1130   42.4420 N   0  0  0  0  0  0  0  0  0  0  0  0
   57.0200   31.9880   45.4610 N   0  0  0  0  0  0  0  0  0  0  0  0
   57.6220   32.7650   46.4000 C   0  0  0  0  0  0  0  0  0  0  0  0
   58.2360   28.8160   46.8890 C   0  0  0  0  0  0  0  0  0  0  0  0
   55.1430   27.0780   45.2590 H   0  0  0  0  0  0  0  0  0  0  0  0
   59.5538   25.6731   47.1878 H   0  0  0  0  0  0  0  0  0  0  0  0
   61.0304   26.8839   48.7952 H   0  0  0  0  0  0  0  0  0  0  0  0
   60.7213   29.3278   49.1839 H   0  0  0  0  0  0  0  0  0  0  0  0
   62.1670   30.6435   48.4538 H   0  0  0  0  0  0  0  0  0  0  0  0
   64.2469   31.5843   47.4587 H   0  0  0  0  0  0  0  0  0  0  0  0
   64.2255   33.8592   46.4370 H   0  0  0  0  0  0  0  0  0  0  0  0
   62.1178   35.1810   46.3749 H   0  0  0  0  0  0  0  0  0  0  0  0
   59.8495   34.3777   44.3881 H   0  0  0  0  0  0  0  0  0  0  0  0
   58.7014   32.9513   42.6861 H   0  0  0  0  0  0  0  0  0  0  0  0
   56.0260   29.9870   45.6130 H   0  0  0  0  0  0  0  0  0  0  0  0
   55.8250   28.3470   44.9160 H   0  0  0  0  0  0  0  0  0  0  0  0
   56.5630   28.1190   42.4430 H   0  0  0  0  0  0  0  0  0  0  0  0
   55.8010   29.4900   41.5730 H   0  0  0  0  0  0  0  0  0  0  0  0
   57.3058   32.6995   47.4515 H   0  0  0  0  0  0  0  0  0  0  0  0
   57.4353   29.3571   46.3636 H   0  0  0  0  0  0  0  0  0  0  0  0
  1  2  1  0
  2  3  2  0
  2  4  2  0
  2  5  1  0
  5  6  2  0
  6  7  1  0
  7  8  2  0
  8  9  1  0
  9 10  1  0
 10 11  1  0
 11 12  2  0
 11 13  1  0
 13 14  2  0
 14 15  1  0
 15 16  2  0
 16 17  1  0
 17 18  2  0
 18 19  1  0
 19 20  1  0
 20 21  1  0
 21 22  2  0
 22 23  1  0
 23 24  2  3
 24 25  1  0
 25 26  1  0
 25 27  2  0
 23 28  1  0
 28 29  1  0
  9 30  2  0
 30  5  1  0
 18 13  1  0
 29 20  2  0
  1 31  1  0
  6 32  1  0
  7 33  1  0
  8 34  1  0
 14 35  1  0
 15 36  1  0
 16 37  1  0
 17 38  1  0
 21 39  1  0
 22 40  1  0
 26 41  1  0
 26 42  1  0
 27 43  1  0
 27 44  1  0
 29 45  1  0
 30 46  1  0
M  CHG  4   1  -1  10  -1  27   1  28  -1
M  END
>  <UniqueID>  (80) 
74

>  <SMILES>  (80) 
[NH-]S(=O)(=O)c1cccc([N-]C(=O)c2ccccc2Sc2ccc(=NC(N)=[NH2+])[n-]c2)c1

>  <Energy>  (80) 
61.3292553126216

>  <Genealogy>  (80) 
[NH-]S(=O)(=O)c1cccc([N-]C(=O)c2ccccc2Sc2ccc(=NC(N)=[NH2+])[n-]c2)c1 (protonated)
[NH-]S(=O)(=O)c1cccc([N-]C(=O)c2ccccc2Sc2ccc(=NC(N)=[NH2+])[n-]c2)c1 (3D coordinates assigned)
[NH-]S(=O)(=O)c1cccc([N-]C(=O)c2ccccc2Sc2ccc(=NC(N)=[NH2+])[n-]c2)c1 (optimized conformer: 61.3292553126216 kcal/mol)

>  <smiles>  (80) 
N=C(N)N=c1ccc(Sc2ccccc2C(=O)Nc2cccc(S(N)(=O)=O)c2)c[nH]1

>  <score_type>  (80) 
oracle

>  <origin>  (80) 
adg

>  <m_score__min__energy>  (80) 
-14.31

>  <m_primary>  (80) 
energy

$$$$
80:0
     RDKit          3D

 48 50  0  0  0  0  0  0  0  0999 V2000
   55.8720   19.3010   44.0580 C   0  0  0  0  0  0  0  0  0  0  0  0
   56.0140   20.5590   43.4060 O   0  0  0  0  0  0  0  0  0  0  0  0
   56.7380   21.6450   43.9240 C   0  0  0  0  0  0  0  0  0  0  0  0
   58.0730   21.5180   44.3530 C   0  0  0  0  0  0  0  0  0  0  0  0
   58.7570   22.6210   44.8670 C   0  0  0  0  0  0  0  0  0  0  0  0
   58.1240   23.8630   44.9760 C   0  0  0  0  0  0  0  0  0  0  0  0
   58.8610   24.9870   45.4910 N   0  0  0  0  0  0  0  0  0  0  0  0
   58.3080   25.9580   46.3960 C   0  0  0  0  0  0  0  0  0  0  0  0
   57.2380   25.7070   47.0140 O   0  0  0  0  0  0  0  0  0  0  0  0
   59.0290   27.2240   46.6610 C   0  0  0  0  0  0  0  0  0  0  0  0
   60.0750   27.1930   47.3640 O   0  0  0  0  0  0  0  0  0  0  0  0
   58.5530   28.5280   46.1420 C   0  0  0  0  0  0  0  0  0  0  0  0
   59.4020   29.6430   46.0650 C   0  0  0  0  0  0  0  0  0  0  0  0
   58.9220   30.8630   45.5870 C   0  0  0  0  0  0  0  0  0  0  0  0
   57.5710   30.9760   45.2000 C   0  0  0  0  0  0  0  0  0  0  0  0
   57.0620   32.0840   44.7390 N   0  0  0  0  0  0  0  0  0  0  0  0
   57.3680   33.4210   45.1690 C   0  0  0  0  0  0  0  0  0  0  0  0
   56.6530   34.3680   44.7430 O   0  0  0  0  0  0  0  0  0  0  0  0
   58.4420   33.7000   46.1550 C   0  0  0  0  0  0  0  0  0  0  0  0
   58.2580   33.4150   47.5210 C   0  0  0  0  0  0  0  0  0  0  0  0
   59.2760   33.6810   48.4420 C   0  0  0  0  0  0  0  0  0  0  0  0
   60.4820   34.2390   48.0120 C   0  0  0  0  0  0  0  0  0  0  0  0
   60.6720   34.5340   46.6610 C   0  0  0  0  0  0  0  0  0  0  0  0
   59.6570   34.2700   45.7350 C   0  0  0  0  0  0  0  0  0  0  0  0
   56.7690   29.8810   45.2840 N   0  0  0  0  0  0  0  0  0  0  0  0
   57.2160   28.6840   45.7450 C   0  0  0  0  0  0  0  0  0  0  0  0
   56.8000   24.0000   44.5270 C   0  0  0  0  0  0  0  0  0  0  0  0
   56.1010   22.8930   44.0070 C   0  0  0  0  0  0  0  0  0  0  0  0
   54.7730   22.9940   43.5600 O   0  0  0  0  0  0  0  0  0  0  0  0
   53.7430   23.7020   44.2390 C   0  0  0  0  0  0  0  0  0  0  0  0
   55.8887   19.4489   45.1479 H   0  0  0  0  0  0  0  0  0  0  0  0
   54.9163   18.8419   43.7649 H   0  0  0  0  0  0  0  0  0  0  0  0
   56.7013   18.6404   43.7649 H   0  0  0  0  0  0  0  0  0  0  0  0
   58.5798   20.5442   44.2827 H   0  0  0  0  0  0  0  0  0  0  0  0
   59.8031   22.5121   45.1891 H   0  0  0  0  0  0  0  0  0  0  0  0
   59.8750   25.0540   45.2490 H   0  0  0  0  0  0  0  0  0  0  0  0
   60.4513   29.5547   46.3831 H   0  0  0  0  0  0  0  0  0  0  0  0
   59.5935   31.7311   45.5126 H   0  0  0  0  0  0  0  0  0  0  0  0
   57.3081   32.9806   47.8660 H   0  0  0  0  0  0  0  0  0  0  0  0
   59.1267   33.4504   49.5071 H   0  0  0  0  0  0  0  0  0  0  0  0
   61.2821   34.4460   48.7380 H   0  0  0  0  0  0  0  0  0  0  0  0
   61.6216   34.9749   46.3237 H   0  0  0  0  0  0  0  0  0  0  0  0
   59.8102   34.5097   44.6724 H   0  0  0  0  0  0  0  0  0  0  0  0
   56.5248   27.8305   45.8076 H   0  0  0  0  0  0  0  0  0  0  0  0
   56.3046   24.9806   44.5820 H   0  0  0  0  0  0  0  0  0  0  0  0
   53.8855   23.6041   45.3253 H   0  0  0  0  0  0  0  0  0  0  0  0
   53.7823   24.7649   43.9584 H   0  0  0  0  0  0  0  0  0  0  0  0
   52.7647   23.2846   43.9584 H   0  0  0  0  0  0  0  0  0  0  0  0
  1  2  1  0
  2  3  1  0
  3  4  2  0
  4  5  1  0
  5  6  2  0
  6  7  1  0
  7  8  1  0
  8  9  2  0
  8 10  1  0
 10 11  2  0
 10 12  1  0
 12 13  1  0
 13 14  2  0
 14 15  1  0
 15 16  2  3
 16 17  1  0
 17 18  2  0
 17 19  1  0
 19 20  2  0
 20 21  1  0
 21 22  2  0
 22 23  1  0
 23 24  2  0
 15 25  1  0
 25 26  1  0
  6 27  1  0
 27 28  2  0
 28 29  1  0
 29 30  1  0
 28  3  1  0
 26 12  2  0
 24 19  1  0
  1 31  1  0
  1 32  1  0
  1 33  1  0
  4 34  1  0
  5 35  1  0
  7 36  1  0
 13 37  1  0
 14 38  1  0
 20 39  1  0
 21 40  1  0
 22 41  1  0
 23 42  1  0
 24 43  1  0
 26 44  1  0
 27 45  1  0
 30 46  1  0
 30 47  1  0
 30 48  1  0
M  CHG  1  25  -1
M  END
>  <UniqueID>  (81) 
75

>  <SMILES>  (81) 
COc1ccc(NC(=O)C(=O)c2ccc(=NC(=O)c3ccccc3)[n-]c2)cc1OC

>  <Energy>  (81) 
68.24950011454133

>  <Genealogy>  (81) 
COc1ccc(NC(=O)C(=O)c2ccc(=NC(=O)c3ccccc3)[n-]c2)cc1OC (protonated)
COc1ccc(NC(=O)C(=O)c2ccc(=NC(=O)c3ccccc3)[n-]c2)cc1OC (3D coordinates assigned)
COc1ccc(NC(=O)C(=O)c2ccc(=NC(=O)c3ccccc3)[n-]c2)cc1OC (optimized conformer: 68.24950011454133 kcal/mol)

>  <smiles>  (81) 
COc1ccc(NC(=O)C(=O)c2ccc(=NC(=O)c3ccccc3)[nH]c2)cc1OC

>  <score_type>  (81) 
oracle

>  <origin>  (81) 
adg

>  <m_score__min__energy>  (81) 
-9.8499999999999996

>  <m_primary>  (81) 
energy

$$$$
81:0
     RDKit          3D

 52 54  0  0  0  0  0  0  0  0999 V2000
   53.5230   24.0630   45.5040 C   0  0  0  0  0  0  0  0  0  0  0  0
   54.9840   24.0930   45.5540 N   0  0  0  0  0  0  0  0  0  0  0  0
   55.6960   25.3120   45.8210 C   0  0  0  0  0  0  0  0  0  0  0  0
   55.0660   26.4000   45.9220 O   0  0  0  0  0  0  0  0  0  0  0  0
   57.1280   25.3290   45.9180 N   0  0  0  0  0  0  0  0  0  0  0  0
   57.9310   26.3680   46.4980 C   0  0  0  0  0  0  0  0  0  0  0  0
   57.4300   27.6780   46.5050 C   0  0  0  0  0  0  0  0  0  0  0  0
   58.1360   28.7060   47.1400 C   0  0  0  0  0  0  0  0  0  0  0  0
   59.3500   28.4310   47.7860 C   0  0  0  0  0  0  0  0  0  0  0  0
   60.2120   29.7020   48.6480 S   0  0  0  0  0  0  0  0  0  0  0  0
   59.3260   30.3550   49.6650 O   0  0  0  0  0  0  0  0  0  0  0  0
   61.3880   29.0960   49.3580 O   0  0  0  0  0  0  0  0  0  0  0  0
   60.7810   30.9050   47.5370 N   0  0  0  0  0  0  0  0  0  0  0  0
   61.7300   31.9380   47.8370 C   0  0  0  0  0  0  0  0  0  0  0  0
   63.1060   31.7430   47.6140 C   0  0  0  0  0  0  0  0  0  0  0  0
   64.0150   32.7680   47.8840 C   0  0  0  0  0  0  0  0  0  0  0  0
   63.5680   33.9930   48.3790 C   0  0  0  0  0  0  0  0  0  0  0  0
   62.2140   34.1910   48.6160 C   0  0  0  0  0  0  0  0  0  0  0  0
   61.2810   33.1760   48.3430 C   0  0  0  0  0  0  0  0  0  0  0  0
   59.5620   33.5110   48.6130 S   0  0  0  0  0  0  0  0  0  0  0  0
   59.2560   33.3290   50.0720 O   0  0  0  0  0  0  0  0  0  0  0  0
   59.2310   34.9350   48.2610 O   0  0  0  0  0  0  0  0  0  0  0  0
   58.5830   32.3970   47.7090 N   0  0  0  0  0  0  0  0  0  0  0  0
   58.3280   32.3910   46.2960 C   0  0  0  0  0  0  0  0  0  0  0  0
   58.6580   33.4720   45.4580 C   0  0  0  0  0  0  0  0  0  0  0  0
   58.3660   33.4170   44.0930 C   0  0  0  0  0  0  0  0  0  0  0  0
   57.7490   32.2880   43.5480 C   0  0  0  0  0  0  0  0  0  0  0  0
   57.4340   31.1980   44.3670 C   0  0  0  0  0  0  0  0  0  0  0  0
   56.6300   29.7890   43.6910 S   0  0  0  0  0  0  0  0  0  0  0  0
   55.3100   29.3430   44.7110 N   0  0  0  0  0  0  0  0  0  0  0  0
   56.1160   30.1060   42.3140 O   0  0  0  0  0  0  0  0  0  0  0  0
   57.6010   28.6460   43.5930 O   0  0  0  0  0  0  0  0  0  0  0  0
   57.7280   31.2520   45.7370 C   0  0  0  0  0  0  0  0  0  0  0  0
   59.8560   27.1220   47.7860 C   0  0  0  0  0  0  0  0  0  0  0  0
   59.1470   26.0930   47.1530 C   0  0  0  0  0  0  0  0  0  0  0  0
   53.1212   24.0547   46.5279 H   0  0  0  0  0  0  0  0  0  0  0  0
   53.1559   24.9538   44.9732 H   0  0  0  0  0  0  0  0  0  0  0  0
   53.1928   23.1579   44.9732 H   0  0  0  0  0  0  0  0  0  0  0  0
   55.5110   23.2170   45.3390 H   0  0  0  0  0  0  0  0  0  0  0  0
   56.4743   27.8992   46.0073 H   0  0  0  0  0  0  0  0  0  0  0  0
   57.7380   29.7315   47.1324 H   0  0  0  0  0  0  0  0  0  0  0  0
   63.4668   30.7792   47.2254 H   0  0  0  0  0  0  0  0  0  0  0  0
   65.0887   32.6086   47.7055 H   0  0  0  0  0  0  0  0  0  0  0  0
   64.2867   34.8008   48.5813 H   0  0  0  0  0  0  0  0  0  0  0  0
   61.8679   35.1530   49.0219 H   0  0  0  0  0  0  0  0  0  0  0  0
   59.1472   34.3628   45.8788 H   0  0  0  0  0  0  0  0  0  0  0  0
   58.6232   34.2670   43.4438 H   0  0  0  0  0  0  0  0  0  0  0  0
   57.5108   32.2560   42.4746 H   0  0  0  0  0  0  0  0  0  0  0  0
   55.1610   28.3170   44.5950 H   0  0  0  0  0  0  0  0  0  0  0  0
   57.4859   30.3930   46.3801 H   0  0  0  0  0  0  0  0  0  0  0  0
   60.8119   26.9034   48.2844 H   0  0  0  0  0  0  0  0  0  0  0  0
   59.5415   25.0663   47.1676 H   0  0  0  0  0  0  0  0  0  0  0  0
  1  2  1  0
  2  3  1  0
  3  4  2  0
  3  5  1  0
  5  6  1  0
  6  7  2  0
  7  8  1  0
  8  9  2  0
  9 10  1  0
 10 11  2  0
 10 12  2  0
 10 13  1  0
 13 14  1  0
 14 15  2  0
 15 16  1  0
 16 17  2  0
 17 18  1  0
 18 19  2  0
 19 20  1  0
 20 21  2  0
 20 22  2  0
 20 23  1  0
 23 24  1  0
 24 25  2  0
 25 26  1  0
 26 27  2  0
 27 28  1  0
 28 29  1  0
 29 30  1  0
 29 31  2  0
 29 32  2  0
 28 33  2  0
  9 34  1  0
 34 35  2  0
 35  6  1  0
 19 14  1  0
 33 24  1  0
  1 36  1  0
  1 37  1  0
  1 38  1  0
  2 39  1  0
  7 40  1  0
  8 41  1  0
 15 42  1  0
 16 43  1  0
 17 44  1  0
 18 45  1  0
 25 46  1  0
 26 47  1  0
 27 48  1  0
 30 49  1  0
 33 50  1  0
 34 51  1  0
 35 52  1  0
M  CHG  4   5  -1  13  -1  23  -1  30  -1
M  END
>  <UniqueID>  (82) 
76

>  <SMILES>  (82) 
CNC(=O)[N-]c1ccc(S(=O)(=O)[N-]c2ccccc2S(=O)(=O)[N-]c2cccc(S([NH-])(=O)=O)c2)cc1

>  <Energy>  (82) 
65.90016515323734

>  <Genealogy>  (82) 
CNC(=O)[N-]c1ccc(S(=O)(=O)[N-]c2ccccc2S(=O)(=O)[N-]c2cccc(S([NH-])(=O)=O)c2)cc1 (protonated)
CNC(=O)[N-]c1ccc(S(=O)(=O)[N-]c2ccccc2S(=O)(=O)[N-]c2cccc(S([NH-])(=O)=O)c2)cc1 (3D coordinates assigned)
CNC(=O)[N-]c1ccc(S(=O)(=O)[N-]c2ccccc2S(=O)(=O)[N-]c2cccc(S([NH-])(=O)=O)c2)cc1 (optimized conformer: 65.90016515323734 kcal/mol)

>  <smiles>  (82) 
CNC(=O)Nc1ccc(S(=O)(=O)Nc2ccccc2S(=O)(=O)Nc2cccc(S(N)(=O)=O)c2)cc1

>  <score_type>  (82) 
oracle

>  <origin>  (82) 
adg

>  <m_score__min__energy>  (82) 
-16.16

>  <m_primary>  (82) 
energy

$$$$
82:0
     RDKit          3D

 23 24  0  0  0  0  0  0  0  0999 V2000
   55.1470   27.9630   44.9840 H   0  0  0  0  0  0  0  0  0  0  0  0
   55.1510   28.9680   44.8780 O   0  0  0  0  0  0  0  0  0  0  0  0
   56.2860   29.7000   44.5240 C   0  0  0  0  0  0  0  0  0  0  0  0
   56.1120   30.8320   43.7170 C   0  0  0  0  0  0  0  0  0  0  0  0
   55.0996   31.1296   43.4063 H   0  0  0  0  0  0  0  0  0  0  0  0
   57.2110   31.5850   43.3040 C   0  0  0  0  0  0  0  0  0  0  0  0
   57.0631   32.4693   42.6667 H   0  0  0  0  0  0  0  0  0  0  0  0
   58.4960   31.2180   43.6980 C   0  0  0  0  0  0  0  0  0  0  0  0
   59.3617   31.8112   43.3684 H   0  0  0  0  0  0  0  0  0  0  0  0
   58.6870   30.0980   44.5110 C   0  0  0  0  0  0  0  0  0  0  0  0
   59.7039   29.8184   44.8238 H   0  0  0  0  0  0  0  0  0  0  0  0
   57.5880   29.3230   44.9340 C   0  0  0  0  0  0  0  0  0  0  0  0
   57.7980   28.1700   45.8430 C   0  0  0  0  0  0  0  0  0  0  0  0
   57.8770   28.3559   46.9243 H   0  0  0  0  0  0  0  0  0  0  0  0
   57.8950   26.9120   45.3970 C   0  0  0  0  0  0  0  0  0  0  0  0
   58.4660   26.7195   44.4767 H   0  0  0  0  0  0  0  0  0  0  0  0
   57.2650   25.7730   46.0930 C   0  0  0  0  0  0  0  0  0  0  0  0
   58.0420   24.3940   46.6860 S   0  0  0  0  0  0  0  0  0  0  0  0
   56.6110   23.7300   47.2620 C   0  0  0  0  0  0  0  0  0  0  0  0
   56.5290   22.6220   47.8530 O   0  0  0  0  0  0  0  0  0  0  0  0
   55.5400   24.5170   47.0260 N   0  0  0  0  0  0  0  0  0  0  0  0
   55.9050   25.6540   46.3750 C   0  0  0  0  0  0  0  0  0  0  0  0
   54.9710   26.6200   46.0220 O   0  0  0  0  0  0  0  0  0  0  0  0
  1  2  1  0
  2  3  1  0
  3  4  2  0
  4  5  1  0
  4  6  1  0
  6  7  1  0
  6  8  2  0
  8  9  1  0
  8 10  1  0
 10 11  1  0
 10 12  2  0
 12 13  1  0
 13 14  1  0
 13 15  2  0
 15 16  1  0
 15 17  1  0
 17 18  1  0
 18 19  1  0
 19 20  2  0
 19 21  1  0
 21 22  1  0
 22 23  1  0
 12  3  1  0
 22 17  2  0
M  CHG  2  21  -1  23  -1
M  END
>  <UniqueID>  (83) 
77

>  <SMILES>  (83) 
O=c1[n-]c([O-])c(/C=C/c2ccccc2O)s1

>  <Energy>  (83) 
59.22543265236513

>  <Genealogy>  (83) 
O=c1[n-]c([O-])c(C=Cc2ccccc2O)s1 (protonated)
O=c1[n-]c([O-])c(/C=C/c2ccccc2O)s1 (cis-trans isomerization)
O=c1[n-]c([O-])c(/C=C/c2ccccc2O)s1 (3D coordinates assigned)
O=c1[n-]c([O-])c(/C=C/c2ccccc2O)s1 (optimized conformer: 59.22543265236513 kcal/mol)

>  <smiles>  (83) 
O=c1[nH]c(O)c(C=Cc2ccccc2O)s1

>  <score_type>  (83) 
oracle

>  <origin>  (83) 
adg

>  <m_score__min__energy>  (83) 
-13.09

>  <m_primary>  (83) 
energy

$$$$
83:0
     RDKit          3D

 42 44  0  0  0  0  0  0  0  0999 V2000
   55.1480   29.3620   44.9370 N   0  0  0  0  0  0  0  0  0  0  0  0
   56.5500   29.6600   43.9710 S   0  0  0  0  0  0  0  0  0  0  0  0
   57.4020   28.4210   43.9250 O   0  0  0  0  0  0  0  0  0  0  0  0
   56.1320   30.0110   42.5710 O   0  0  0  0  0  0  0  0  0  0  0  0
   57.4690   30.9880   44.6720 C   0  0  0  0  0  0  0  0  0  0  0  0
   57.3820   32.2720   44.1170 C   0  0  0  0  0  0  0  0  0  0  0  0
   58.0840   33.3330   44.6920 C   0  0  0  0  0  0  0  0  0  0  0  0
   58.8820   33.1170   45.8190 C   0  0  0  0  0  0  0  0  0  0  0  0
   58.9950   31.8360   46.3730 C   0  0  0  0  0  0  0  0  0  0  0  0
   59.8050   31.6640   47.5440 N   0  0  0  0  0  0  0  0  0  0  0  0
   61.0700   30.9920   47.6230 C   0  0  0  0  0  0  0  0  0  0  0  0
   62.1450   31.6450   47.5800 O   0  0  0  0  0  0  0  0  0  0  0  0
   61.1310   29.5680   47.7480 N   0  0  0  0  0  0  0  0  0  0  0  0
   60.1290   28.6350   47.3150 C   0  0  0  0  0  0  0  0  0  0  0  0
   60.2210   27.9640   46.0820 C   0  0  0  0  0  0  0  0  0  0  0  0
   59.2130   27.0810   45.6850 C   0  0  0  0  0  0  0  0  0  0  0  0
   58.0970   26.8680   46.5040 C   0  0  0  0  0  0  0  0  0  0  0  0
   56.8260   25.7700   45.9750 S   0  0  0  0  0  0  0  0  0  0  0  0
   56.7820   24.5910   46.9040 O   0  0  0  0  0  0  0  0  0  0  0  0
   55.4860   26.4520   45.9980 O   0  0  0  0  0  0  0  0  0  0  0  0
   57.1610   25.2190   44.3650 N   0  0  0  0  0  0  0  0  0  0  0  0
   57.1800   23.9680   44.0200 C   0  0  0  0  0  0  0  0  0  0  0  0
   58.0940   23.1340   44.5840 N   0  0  0  0  0  0  0  0  0  0  0  0
   58.1450   21.8200   44.2450 C   0  0  0  0  0  0  0  0  0  0  0  0
   57.2530   21.3070   43.3030 C   0  0  0  0  0  0  0  0  0  0  0  0
   56.3210   22.1730   42.7340 C   0  0  0  0  0  0  0  0  0  0  0  0
   56.3010   23.4820   43.1000 N   0  0  0  0  0  0  0  0  0  0  0  0
   57.9900   27.5580   47.7180 C   0  0  0  0  0  0  0  0  0  0  0  0
   58.9970   28.4420   48.1160 C   0  0  0  0  0  0  0  0  0  0  0  0
   58.2640   30.7750   45.8070 C   0  0  0  0  0  0  0  0  0  0  0  0
   55.3970   28.6030   45.6100 H   0  0  0  0  0  0  0  0  0  0  0  0
   56.7594   32.4441   43.2266 H   0  0  0  0  0  0  0  0  0  0  0  0
   58.0089   34.3407   44.2573 H   0  0  0  0  0  0  0  0  0  0  0  0
   59.4248   33.9588   46.2737 H   0  0  0  0  0  0  0  0  0  0  0  0
   61.0890   28.1348   45.4283 H   0  0  0  0  0  0  0  0  0  0  0  0
   59.2966   26.5508   44.7248 H   0  0  0  0  0  0  0  0  0  0  0  0
   58.8899   21.1599   44.7133 H   0  0  0  0  0  0  0  0  0  0  0  0
   57.2845   20.2454   43.0165 H   0  0  0  0  0  0  0  0  0  0  0  0
   55.6028   21.7979   41.9900 H   0  0  0  0  0  0  0  0  0  0  0  0
   57.1106   27.4038   48.3605 H   0  0  0  0  0  0  0  0  0  0  0  0
   58.8994   28.9897   49.0649 H   0  0  0  0  0  0  0  0  0  0  0  0
   58.3167   29.7729   46.2576 H   0  0  0  0  0  0  0  0  0  0  0  0
  1  2  1  0
  2  3  2  0
  2  4  2  0
  2  5  1  0
  5  6  2  0
  6  7  1  0
  7  8  2  0
  8  9  1  0
  9 10  1  0
 10 11  1  0
 11 12  2  0
 11 13  1  0
 13 14  1  0
 14 15  2  0
 15 16  1  0
 16 17  2  0
 17 18  1  0
 18 19  2  0
 18 20  2  0
 18 21  1  0
 21 22  2  3
 22 23  1  0
 23 24  2  0
 24 25  1  0
 25 26  2  0
 26 27  1  0
 17 28  1  0
 28 29  2  0
  9 30  2  0
 30  5  1  0
 29 14  1  0
 27 22  1  0
  1 31  1  0
  6 32  1  0
  7 33  1  0
  8 34  1  0
 15 35  1  0
 16 36  1  0
 24 37  1  0
 25 38  1  0
 26 39  1  0
 28 40  1  0
 29 41  1  0
 30 42  1  0
M  CHG  4   1  -1  10  -1  13  -1  27  -1
M  END
>  <UniqueID>  (84) 
78

>  <SMILES>  (84) 
[NH-]S(=O)(=O)c1cccc([N-]C(=O)[N-]c2ccc(S(=O)(=O)N=c3nccc[n-]3)cc2)c1

>  <Energy>  (84) 
55.6225434251825

>  <Genealogy>  (84) 
[NH-]S(=O)(=O)c1cccc([N-]C(=O)[N-]c2ccc(S(=O)(=O)N=c3nccc[n-]3)cc2)c1 (protonated)
[NH-]S(=O)(=O)c1cccc([N-]C(=O)[N-]c2ccc(S(=O)(=O)N=c3nccc[n-]3)cc2)c1 (3D coordinates assigned)
[NH-]S(=O)(=O)c1cccc([N-]C(=O)[N-]c2ccc(S(=O)(=O)N=c3nccc[n-]3)cc2)c1 (optimized conformer: 55.6225434251825 kcal/mol)

>  <smiles>  (84) 
NS(=O)(=O)c1cccc(NC(=O)Nc2ccc(S(=O)(=O)N=c3nccc[nH]3)cc2)c1

>  <score_type>  (84) 
oracle

>  <origin>  (84) 
adg

>  <m_score__min__energy>  (84) 
-14.77

>  <m_primary>  (84) 
energy

$$$$
84:0
     RDKit          3D

 48 50  0  0  0  0  0  0  0  0999 V2000
   55.9500   21.1510   44.3930 H   0  0  0  0  0  0  0  0  0  0  0  0
   56.0200   21.3050   43.4140 O   0  0  0  0  0  0  0  0  0  0  0  0
   57.3790   21.5130   43.1340 C   0  0  0  0  0  0  0  0  0  0  0  0
   57.4774   21.9689   42.1378 H   0  0  0  0  0  0  0  0  0  0  0  0
   57.8996   20.5444   43.1616 H   0  0  0  0  0  0  0  0  0  0  0  0
   58.0050   22.4390   44.1740 C   0  0  0  0  0  0  0  0  0  0  0  0
   58.2736   23.3933   43.6974 H   0  0  0  0  0  0  0  0  0  0  0  0
   58.9060   21.9617   44.5869 H   0  0  0  0  0  0  0  0  0  0  0  0
   57.0550   22.6890   45.2570 N   0  0  0  0  0  0  0  0  0  0  0  0
   56.3320   23.7630   45.4140 C   0  0  0  0  0  0  0  0  0  0  0  0
   54.9440   23.6260   45.5180 C   0  0  0  0  0  0  0  0  0  0  0  0
   54.4832   22.6284   45.4689 H   0  0  0  0  0  0  0  0  0  0  0  0
   54.1460   24.7570   45.6840 C   0  0  0  0  0  0  0  0  0  0  0  0
   53.0539   24.6517   45.7633 H   0  0  0  0  0  0  0  0  0  0  0  0
   54.7150   25.9890   45.7480 N   0  0  0  0  0  0  0  0  0  0  0  0
   56.0610   26.1690   45.6600 C   0  0  0  0  0  0  0  0  0  0  0  0
   56.6230   27.5370   45.7260 C   0  0  0  0  0  0  0  0  0  0  0  0
   57.7780   27.7150   46.1970 O   0  0  0  0  0  0  0  0  0  0  0  0
   55.9180   28.6680   45.1980 N   0  0  0  0  0  0  0  0  0  0  0  0
   56.4760   29.7060   44.3780 C   0  0  0  0  0  0  0  0  0  0  0  0
   56.2030   29.7830   43.0020 C   0  0  0  0  0  0  0  0  0  0  0  0
   55.5660   29.0229   42.5261 H   0  0  0  0  0  0  0  0  0  0  0  0
   56.7380   30.8220   42.2360 C   0  0  0  0  0  0  0  0  0  0  0  0
   56.5315   30.8709   41.1567 H   0  0  0  0  0  0  0  0  0  0  0  0
   57.5340   31.7980   42.8380 C   0  0  0  0  0  0  0  0  0  0  0  0
   57.9545   32.6132   42.2309 H   0  0  0  0  0  0  0  0  0  0  0  0
   57.8000   31.7430   44.2160 C   0  0  0  0  0  0  0  0  0  0  0  0
   58.6270   32.8230   44.8670 C   0  0  0  0  0  0  0  0  0  0  0  0
   59.6406   32.8068   44.4400 H   0  0  0  0  0  0  0  0  0  0  0  0
   58.1460   33.7944   44.6796 H   0  0  0  0  0  0  0  0  0  0  0  0
   58.7140   32.6140   46.3270 N   0  0  0  0  0  0  0  0  0  0  0  0
   60.0930   32.2620   46.7430 C   0  0  0  0  0  0  0  0  0  0  0  0
   60.2522   31.1851   46.5854 H   0  0  0  0  0  0  0  0  0  0  0  0
   60.8012   32.8491   46.1398 H   0  0  0  0  0  0  0  0  0  0  0  0
   60.3230   32.5920   48.2260 C   0  0  0  0  0  0  0  0  0  0  0  0
   59.6023   32.0161   48.8251 H   0  0  0  0  0  0  0  0  0  0  0  0
   61.3663   32.3288   48.4544 H   0  0  0  0  0  0  0  0  0  0  0  0
   60.1660   33.9700   48.5390 O   0  0  0  0  0  0  0  0  0  0  0  0
   59.2970   34.6610   47.6520 C   0  0  0  0  0  0  0  0  0  0  0  0
   58.8356   35.4973   48.1976 H   0  0  0  0  0  0  0  0  0  0  0  0
   59.9065   35.0030   46.8026 H   0  0  0  0  0  0  0  0  0  0  0  0
   58.1760   33.7760   47.0780 C   0  0  0  0  0  0  0  0  0  0  0  0
   57.5556   33.4062   47.9076 H   0  0  0  0  0  0  0  0  0  0  0  0
   57.5845   34.3870   46.3803 H   0  0  0  0  0  0  0  0  0  0  0  0
   57.2550   30.7010   44.9820 C   0  0  0  0  0  0  0  0  0  0  0  0
   57.4411   30.6654   46.0656 H   0  0  0  0  0  0  0  0  0  0  0  0
   56.8970   25.0540   45.4820 C   0  0  0  0  0  0  0  0  0  0  0  0
   57.9856   25.1868   45.3962 H   0  0  0  0  0  0  0  0  0  0  0  0
  1  2  1  0
  2  3  1  0
  3  4  1  0
  3  5  1  0
  3  6  1  0
  6  7  1  0
  6  8  1  0
  6  9  1  0
  9 10  2  0
 10 11  1  0
 11 12  1  0
 11 13  2  0
 13 14  1  0
 13 15  1  0
 15 16  1  0
 16 17  1  0
 17 18  2  0
 17 19  1  0
 19 20  1  0
 20 21  2  0
 21 22  1  0
 21 23  1  0
 23 24  1  0
 23 25  2  0
 25 26  1  0
 25 27  1  0
 27 28  1  0
 28 29  1  0
 28 30  1  0
 28 31  1  0
 31 32  1  0
 32 33  1  0
 32 34  1  0
 32 35  1  0
 35 36  1  0
 35 37  1  0
 35 38  1  0
 38 39  1  0
 39 40  1  0
 39 41  1  0
 39 42  1  0
 42 43  1  0
 42 44  1  0
 27 45  2  0
 45 46  1  0
 16 47  2  0
 47 48  1  0
 47 10  1  0
 45 20  1  0
 42 31  1  0
M  CHG  2  15  -1  19  -1
M  END
>  <UniqueID>  (85) 
79

>  <SMILES>  (85) 
O=C([N-]c1cccc(CN2CCOCC2)c1)c1c/c(=N\CCO)cc[n-]1

>  <Energy>  (85) 
68.374310710377

>  <Genealogy>  (85) 
O=C([N-]c1cccc(CN2CCOCC2)c1)c1cc(=NCCO)cc[n-]1 (protonated)
O=C([N-]c1cccc(CN2CCOCC2)c1)c1c/c(=N\CCO)cc[n-]1 (cis-trans isomerization)
O=C([N-]c1cccc(CN2CCOCC2)c1)c1c/c(=N\CCO)cc[n-]1 (3D coordinates assigned)
O=C([N-]c1cccc(CN2CCOCC2)c1)c1c/c(=N\CCO)cc[n-]1 (nonaromatic ring conformer: 68.374310710377 kcal/mol)

>  <smiles>  (85) 
O=C(Nc1cccc(CN2CCOCC2)c1)c1cc(=NCCO)cc[nH]1

>  <score_type>  (85) 
oracle

>  <origin>  (85) 
adg

>  <m_score__min__energy>  (85) 
-11.960000000000001

>  <m_primary>  (85) 
energy

$$$$
85:0
     RDKit          3D

 51 53  0  0  0  0  0  0  0  0999 V2000
   59.3820   31.2860   46.8040 H   0  0  0  0  0  0  0  0  0  0  0  0
   59.0130   30.4350   46.3960 O   0  0  0  0  0  0  0  0  0  0  0  0
   58.2230   30.4120   45.2440 C   0  0  0  0  0  0  0  0  0  0  0  0
   58.1500   31.5860   44.4740 C   0  0  0  0  0  0  0  0  0  0  0  0
   58.8880   32.7390   44.9010 N   0  0  0  0  0  0  0  0  0  0  0  0
   58.8130   33.4410   46.4850 S   0  0  0  0  0  0  0  0  0  0  0  0
   58.3800   34.8770   46.3710 O   0  0  0  0  0  0  0  0  0  0  0  0
   57.8100   32.6880   47.3130 O   0  0  0  0  0  0  0  0  0  0  0  0
   60.3900   33.3200   47.2630 C   0  0  0  0  0  0  0  0  0  0  0  0
   60.4910   33.0810   48.6410 C   0  0  0  0  0  0  0  0  0  0  0  0
   59.5800   32.9498   49.2434 H   0  0  0  0  0  0  0  0  0  0  0  0
   61.7490   33.0090   49.2520 C   0  0  0  0  0  0  0  0  0  0  0  0
   61.8235   32.8246   50.3339 H   0  0  0  0  0  0  0  0  0  0  0  0
   62.9120   33.1710   48.4900 C   0  0  0  0  0  0  0  0  0  0  0  0
   64.4890   33.0820   49.2610 Cl  0  0  0  0  0  0  0  0  0  0  0  0
   62.8140   33.4030   47.1130 C   0  0  0  0  0  0  0  0  0  0  0  0
   63.7264   33.5274   46.5113 H   0  0  0  0  0  0  0  0  0  0  0  0
   61.5580   33.4770   46.5000 C   0  0  0  0  0  0  0  0  0  0  0  0
   61.4858   33.6587   45.4175 H   0  0  0  0  0  0  0  0  0  0  0  0
   57.3710   31.6040   43.3080 C   0  0  0  0  0  0  0  0  0  0  0  0
   57.2921   32.5277   42.7159 H   0  0  0  0  0  0  0  0  0  0  0  0
   56.6970   30.4570   42.8970 C   0  0  0  0  0  0  0  0  0  0  0  0
   56.0912   30.4777   41.9791 H   0  0  0  0  0  0  0  0  0  0  0  0
   56.7860   29.2820   43.6430 C   0  0  0  0  0  0  0  0  0  0  0  0
   56.2709   28.3751   43.2932 H   0  0  0  0  0  0  0  0  0  0  0  0
   57.5280   29.2440   44.8390 C   0  0  0  0  0  0  0  0  0  0  0  0
   57.6460   27.9730   45.6630 C   0  0  0  0  0  0  0  0  0  0  0  0
   58.1593   28.2168   46.6049 H   0  0  0  0  0  0  0  0  0  0  0  0
   58.2052   27.2475   45.0540 H   0  0  0  0  0  0  0  0  0  0  0  0
   56.3570   27.3550   45.9860 N   0  0  0  0  0  0  0  0  0  0  0  0
   56.0190   26.1340   45.6860 C   0  0  0  0  0  0  0  0  0  0  0  0
   54.7170   25.7430   45.7200 N   0  0  0  0  0  0  0  0  0  0  0  0
   54.3370   24.4780   45.4000 C   0  0  0  0  0  0  0  0  0  0  0  0
   52.8890   24.1020   45.4530 C   0  0  0  0  0  0  0  0  0  0  0  0
   52.5699   24.0191   46.5024 H   0  0  0  0  0  0  0  0  0  0  0  0
   52.2908   24.8746   44.9478 H   0  0  0  0  0  0  0  0  0  0  0  0
   52.7423   23.1360   44.9478 H   0  0  0  0  0  0  0  0  0  0  0  0
   55.3020   23.5320   45.0310 C   0  0  0  0  0  0  0  0  0  0  0  0
   54.9951   22.5082   44.7709 H   0  0  0  0  0  0  0  0  0  0  0  0
   56.6670   23.8890   44.9920 C   0  0  0  0  0  0  0  0  0  0  0  0
   57.6890   22.9150   44.6330 N   0  0  0  0  0  0  0  0  0  0  0  0
   57.3980   21.8400   43.6710 C   0  0  0  0  0  0  0  0  0  0  0  0
   57.1484   20.9178   44.2162 H   0  0  0  0  0  0  0  0  0  0  0  0
   56.5471   22.1340   43.0389 H   0  0  0  0  0  0  0  0  0  0  0  0
   58.2810   21.6647   43.0389 H   0  0  0  0  0  0  0  0  0  0  0  0
   59.0380   22.9970   45.2110 C   0  0  0  0  0  0  0  0  0  0  0  0
   58.9674   22.9927   46.3087 H   0  0  0  0  0  0  0  0  0  0  0  0
   59.6325   22.1333   44.8784 H   0  0  0  0  0  0  0  0  0  0  0  0
   59.5235   23.9263   44.8784 H   0  0  0  0  0  0  0  0  0  0  0  0
   57.0110   25.2180   45.3200 C   0  0  0  0  0  0  0  0  0  0  0  0
   58.0639   25.5349   45.2877 H   0  0  0  0  0  0  0  0  0  0  0  0
  1  2  1  0
  2  3  1  0
  3  4  2  0
  4  5  1  0
  5  6  1  0
  6  7  2  0
  6  8  2  0
  6  9  1  0
  9 10  2  0
 10 11  1  0
 10 12  1  0
 12 13  1  0
 12 14  2  0
 14 15  1  0
 14 16  1  0
 16 17  1  0
 16 18  2  0
 18 19  1  0
  4 20  1  0
 20 21  1  0
 20 22  2  0
 22 23  1  0
 22 24  1  0
 24 25  1  0
 24 26  2  0
 26 27  1  0
 27 28  1  0
 27 29  1  0
 27 30  1  0
 30 31  2  0
 31 32  1  0
 32 33  1  0
 33 34  1  0
 34 35  1  0
 34 36  1  0
 34 37  1  0
 33 38  2  0
 38 39  1  0
 38 40  1  0
 40 41  1  0
 41 42  1  0
 42 43  1  0
 42 44  1  0
 42 45  1  0
 41 46  1  0
 46 47  1  0
 46 48  1  0
 46 49  1  0
 40 50  2  0
 50 51  1  0
 26  3  1  0
 50 31  1  0
 18  9  1  0
M  CHG  2   5  -1  32  -1
M  END
>  <UniqueID>  (86) 
80

>  <SMILES>  (86) 
Cc1cc(N(C)C)c/c(=N/Cc2cccc([N-]S(=O)(=O)c3ccc(Cl)cc3)c2O)[n-]1

>  <Energy>  (86) 
60.912132167636024

>  <Genealogy>  (86) 
Cc1cc(N(C)C)cc(=NCc2cccc([N-]S(=O)(=O)c3ccc(Cl)cc3)c2O)[n-]1 (protonated)
Cc1cc(N(C)C)c/c(=N/Cc2cccc([N-]S(=O)(=O)c3ccc(Cl)cc3)c2O)[n-]1 (cis-trans isomerization)
Cc1cc(N(C)C)c/c(=N/Cc2cccc([N-]S(=O)(=O)c3ccc(Cl)cc3)c2O)[n-]1 (3D coordinates assigned)
Cc1cc(N(C)C)c/c(=N/Cc2cccc([N-]S(=O)(=O)c3ccc(Cl)cc3)c2O)[n-]1 (optimized conformer: 60.912132167636024 kcal/mol)

>  <smiles>  (86) 
Cc1cc(N(C)C)cc(=NCc2cccc(NS(=O)(=O)c3ccc(Cl)cc3)c2O)[nH]1

>  <score_type>  (86) 
oracle

>  <origin>  (86) 
adg

>  <m_score__min__energy>  (86) 
-12.75

>  <m_primary>  (86) 
energy

$$$$
86:0
     RDKit          3D

 52 55  0  0  0  0  0  0  0  0999 V2000
   59.5620   33.4890   50.5200 C   0  0  0  0  0  0  0  0  0  0  0  0
   59.6780   34.4370   49.3300 C   0  0  0  0  0  0  0  0  0  0  0  0
   60.9230   34.1420   48.5340 C   0  0  0  0  0  0  0  0  0  0  0  0
   62.1600   34.0300   49.1900 C   0  0  0  0  0  0  0  0  0  0  0  0
   63.3310   33.8060   48.4610 C   0  0  0  0  0  0  0  0  0  0  0  0
   63.2790   33.6990   47.0700 C   0  0  0  0  0  0  0  0  0  0  0  0
   62.0580   33.8240   46.4040 C   0  0  0  0  0  0  0  0  0  0  0  0
   60.8760   34.0600   47.1270 C   0  0  0  0  0  0  0  0  0  0  0  0
   59.6440   34.1770   46.4680 O   0  0  0  0  0  0  0  0  0  0  0  0
   58.9510   33.1240   45.8570 C   0  0  0  0  0  0  0  0  0  0  0  0
   58.5690   33.1670   44.5040 C   0  0  0  0  0  0  0  0  0  0  0  0
   57.8260   32.1160   43.9660 C   0  0  0  0  0  0  0  0  0  0  0  0
   57.4620   31.0340   44.7720 C   0  0  0  0  0  0  0  0  0  0  0  0
   56.4680   29.7370   44.1090 S   0  0  0  0  0  0  0  0  0  0  0  0
   55.1440   29.7230   44.8190 O   0  0  0  0  0  0  0  0  0  0  0  0
   56.2270   29.9630   42.6410 O   0  0  0  0  0  0  0  0  0  0  0  0
   57.2560   28.2030   44.3290 N   0  0  0  0  0  0  0  0  0  0  0  0
   56.9230   27.6140   45.6290 C   0  0  0  0  0  0  0  0  0  0  0  0
   58.1730   26.9800   46.2370 C   0  0  0  0  0  0  0  0  0  0  0  0
   59.3080   27.9590   46.2590 C   0  0  0  0  0  0  0  0  0  0  0  0
   60.1580   28.2710   45.2010 C   0  0  0  0  0  0  0  0  0  0  0  0
   61.0110   29.2590   45.5570 N   0  0  0  0  0  0  0  0  0  0  0  0
   60.6980   29.5830   46.8240 C   0  0  0  0  0  0  0  0  0  0  0  0
   61.2900   30.5660   47.6180 C   0  0  0  0  0  0  0  0  0  0  0  0
   60.7860   30.7510   48.9180 C   0  0  0  0  0  0  0  0  0  0  0  0
   59.7130   29.9630   49.3890 C   0  0  0  0  0  0  0  0  0  0  0  0
   59.1390   28.9780   48.5670 C   0  0  0  0  0  0  0  0  0  0  0  0
   59.6610   28.8150   47.2850 C   0  0  0  0  0  0  0  0  0  0  0  0
   57.8620   31.0230   46.1140 C   0  0  0  0  0  0  0  0  0  0  0  0
   58.5840   32.0580   46.6180 N   0  0  0  0  0  0  0  0  0  0  0  0
   59.6324   34.0640   51.4551 H   0  0  0  0  0  0  0  0  0  0  0  0
   58.5935   32.9689   50.4814 H   0  0  0  0  0  0  0  0  0  0  0  0
   60.3765   32.7507   50.4814 H   0  0  0  0  0  0  0  0  0  0  0  0
   58.7975   34.3132   48.6824 H   0  0  0  0  0  0  0  0  0  0  0  0
   59.7339   35.4698   49.7045 H   0  0  0  0  0  0  0  0  0  0  0  0
   62.2073   34.1192   50.2854 H   0  0  0  0  0  0  0  0  0  0  0  0
   64.2945   33.7139   48.9836 H   0  0  0  0  0  0  0  0  0  0  0  0
   64.2007   33.5161   46.4981 H   0  0  0  0  0  0  0  0  0  0  0  0
   62.0211   33.7373   45.3080 H   0  0  0  0  0  0  0  0  0  0  0  0
   58.8540   34.0230   43.8747 H   0  0  0  0  0  0  0  0  0  0  0  0
   57.5268   32.1390   42.9077 H   0  0  0  0  0  0  0  0  0  0  0  0
   56.5461   28.3989   46.3013 H   0  0  0  0  0  0  0  0  0  0  0  0
   56.1497   26.8433   45.4947 H   0  0  0  0  0  0  0  0  0  0  0  0
   57.9516   26.6610   47.2662 H   0  0  0  0  0  0  0  0  0  0  0  0
   58.4645   26.1151   45.6230 H   0  0  0  0  0  0  0  0  0  0  0  0
   60.1386   27.7832   44.2153 H   0  0  0  0  0  0  0  0  0  0  0  0
   61.7510   29.6910   44.9590 H   0  0  0  0  0  0  0  0  0  0  0  0
   62.1234   31.1761   47.2396 H   0  0  0  0  0  0  0  0  0  0  0  0
   61.2309   31.5150   49.5725 H   0  0  0  0  0  0  0  0  0  0  0  0
   59.3239   30.1211   50.4057 H   0  0  0  0  0  0  0  0  0  0  0  0
   58.3049   28.3560   48.9239 H   0  0  0  0  0  0  0  0  0  0  0  0
   57.5914   30.1755   46.7609 H   0  0  0  0  0  0  0  0  0  0  0  0
  1  2  1  0
  2  3  1  0
  3  4  2  0
  4  5  1  0
  5  6  2  0
  6  7  1  0
  7  8  2  0
  8  9  1  0
  9 10  1  0
 10 11  2  0
 11 12  1  0
 12 13  2  0
 13 14  1  0
 14 15  2  0
 14 16  2  0
 14 17  1  0
 17 18  1  0
 18 19  1  0
 19 20  1  0
 20 21  2  0
 21 22  1  0
 22 23  1  0
 23 24  2  0
 24 25  1  0
 25 26  2  0
 26 27  1  0
 27 28  2  0
 13 29  1  0
 29 30  2  0
  8  3  1  0
 30 10  1  0
 28 20  1  0
 28 23  1  0
  1 31  1  0
  1 32  1  0
  1 33  1  0
  2 34  1  0
  2 35  1  0
  4 36  1  0
  5 37  1  0
  6 38  1  0
  7 39  1  0
 11 40  1  0
 12 41  1  0
 18 42  1  0
 18 43  1  0
 19 44  1  0
 19 45  1  0
 21 46  1  0
 22 47  1  0
 24 48  1  0
 25 49  1  0
 26 50  1  0
 27 51  1  0
 29 52  1  0
M  CHG  1  17  -1
M  END
>  <UniqueID>  (87) 
81

>  <SMILES>  (87) 
CCc1ccccc1Oc1ccc(S(=O)(=O)[N-]CCc2c[nH]c3ccccc23)cn1

>  <Energy>  (87) 
86.41698443537288

>  <Genealogy>  (87) 
CCc1ccccc1Oc1ccc(S(=O)(=O)[N-]CCc2c[nH]c3ccccc23)cn1 (protonated)
CCc1ccccc1Oc1ccc(S(=O)(=O)[N-]CCc2c[nH]c3ccccc23)cn1 (3D coordinates assigned)
CCc1ccccc1Oc1ccc(S(=O)(=O)[N-]CCc2c[nH]c3ccccc23)cn1 (optimized conformer: 86.41698443537288 kcal/mol)

>  <smiles>  (87) 
CCc1ccccc1Oc1ccc(S(=O)(=O)NCCc2c[nH]c3ccccc23)cn1

>  <score_type>  (87) 
oracle

>  <origin>  (87) 
adg

>  <m_score__min__energy>  (87) 
-10.52

>  <m_primary>  (87) 
energy

$$$$
87:0
     RDKit          3D

 54 58  0  0  0  0  0  0  0  0999 V2000
   55.1600   29.2710   44.8620 O   0  0  0  0  0  0  0  0  0  0  0  0
   56.2290   29.8430   44.5210 C   0  0  0  0  0  0  0  0  0  0  0  0
   56.2440   31.2750   44.4290 N   0  0  0  0  0  0  0  0  0  0  0  0
   57.1070   32.0800   44.9760 C   0  0  0  0  0  0  0  0  0  0  0  0
   57.6320   33.1650   44.3450 N   0  0  0  0  0  0  0  0  0  0  0  0
   58.4510   33.6710   45.2780 C   0  0  0  0  0  0  0  0  0  0  0  0
   59.2490   34.8060   45.1850 C   0  0  0  0  0  0  0  0  0  0  0  0
   60.0270   35.1520   46.3050 C   0  0  0  0  0  0  0  0  0  0  0  0
   60.0000   34.3600   47.4780 C   0  0  0  0  0  0  0  0  0  0  0  0
   60.7790   34.7570   48.5740 O   0  0  0  0  0  0  0  0  0  0  0  0
   61.8250   34.0120   49.1390 C   0  0  0  0  0  0  0  0  0  0  0  0
   62.7880   33.4550   48.2900 C   0  0  0  0  0  0  0  0  0  0  0  0
   63.8380   32.6940   48.8130 C   0  0  0  0  0  0  0  0  0  0  0  0
   63.9270   32.4580   50.1960 C   0  0  0  0  0  0  0  0  0  0  0  0
   65.0470   31.6660   50.7560 C   0  0  0  0  0  0  0  0  0  0  0  0
   64.8970   30.4280   50.9450 O   0  0  0  0  0  0  0  0  0  0  0  0
   66.2930   32.2870   51.1180 N   0  0  0  0  0  0  0  0  0  0  0  0
   66.9640   31.8680   52.3520 C   0  0  0  0  0  0  0  0  0  0  0  0
   68.1980   32.7340   52.6060 C   0  0  0  0  0  0  0  0  0  0  0  0
   67.9120   34.0700   52.2500 O   0  0  0  0  0  0  0  0  0  0  0  0
   67.8570   34.2020   50.8390 C   0  0  0  0  0  0  0  0  0  0  0  0
   67.0250   33.1020   50.1390 C   0  0  0  0  0  0  0  0  0  0  0  0
   62.9540   33.0110   51.0460 C   0  0  0  0  0  0  0  0  0  0  0  0
   61.9050   33.7720   50.5210 C   0  0  0  0  0  0  0  0  0  0  0  0
   59.1580   33.2210   47.5350 C   0  0  0  0  0  0  0  0  0  0  0  0
   58.4050   32.9120   46.4060 C   0  0  0  0  0  0  0  0  0  0  0  0
   57.5540   31.8890   46.2440 N   0  0  0  0  0  0  0  0  0  0  0  0
   57.3860   29.0670   44.1760 N   0  0  0  0  0  0  0  0  0  0  0  0
   58.3610   28.5290   45.0820 C   0  0  0  0  0  0  0  0  0  0  0  0
   58.6560   27.1540   45.1340 C   0  0  0  0  0  0  0  0  0  0  0  0
   59.5960   26.6700   46.0500 C   0  0  0  0  0  0  0  0  0  0  0  0
   60.2360   27.5480   46.9270 C   0  0  0  0  0  0  0  0  0  0  0  0
   59.9310   28.9120   46.8980 C   0  0  0  0  0  0  0  0  0  0  0  0
   60.7940   30.1100   48.1100 Br  0  0  0  0  0  0  0  0  0  0  0  0
   58.9910   29.3990   45.9830 C   0  0  0  0  0  0  0  0  0  0  0  0
   59.2712   35.4123   44.2675 H   0  0  0  0  0  0  0  0  0  0  0  0
   60.6636   36.0483   46.2688 H   0  0  0  0  0  0  0  0  0  0  0  0
   62.7185   33.6169   47.2042 H   0  0  0  0  0  0  0  0  0  0  0  0
   64.5996   32.2771   48.1376 H   0  0  0  0  0  0  0  0  0  0  0  0
   66.2675   31.9722   53.1970 H   0  0  0  0  0  0  0  0  0  0  0  0
   67.2784   30.8189   52.2496 H   0  0  0  0  0  0  0  0  0  0  0  0
   68.4667   32.6872   53.6717 H   0  0  0  0  0  0  0  0  0  0  0  0
   69.0389   32.3635   52.0013 H   0  0  0  0  0  0  0  0  0  0  0  0
   67.4112   35.1787   50.5996 H   0  0  0  0  0  0  0  0  0  0  0  0
   68.8884   34.1066   50.4688 H   0  0  0  0  0  0  0  0  0  0  0  0
   66.3045   33.5765   49.4565 H   0  0  0  0  0  0  0  0  0  0  0  0
   67.7113   32.4464   49.5830 H   0  0  0  0  0  0  0  0  0  0  0  0
   63.0181   32.8441   52.1314 H   0  0  0  0  0  0  0  0  0  0  0  0
   61.1385   34.1848   51.1934 H   0  0  0  0  0  0  0  0  0  0  0  0
   59.1016   32.6014   48.4422 H   0  0  0  0  0  0  0  0  0  0  0  0
   58.1458   26.4576   44.4522 H   0  0  0  0  0  0  0  0  0  0  0  0
   59.8314   25.5959   46.0794 H   0  0  0  0  0  0  0  0  0  0  0  0
   60.9806   27.1662   47.6411 H   0  0  0  0  0  0  0  0  0  0  0  0
   58.7448   30.4710   45.9705 H   0  0  0  0  0  0  0  0  0  0  0  0
  1  2  2  0
  2  3  1  0
  3  4  2  3
  4  5  1  0
  5  6  1  0
  6  7  2  0
  7  8  1  0
  8  9  2  0
  9 10  1  0
 10 11  1  0
 11 12  2  0
 12 13  1  0
 13 14  2  0
 14 15  1  0
 15 16  2  0
 15 17  1  0
 17 18  1  0
 18 19  1  0
 19 20  1  0
 20 21  1  0
 21 22  1  0
 14 23  1  0
 23 24  2  0
  9 25  1  0
 25 26  2  0
 26 27  1  0
  2 28  1  0
 28 29  1  0
 29 30  2  0
 30 31  1  0
 31 32  2  0
 32 33  1  0
 33 34  1  0
 33 35  2  0
 27  4  1  0
 35 29  1  0
 26  6  1  0
 24 11  1  0
 22 17  1  0
  7 36  1  0
  8 37  1  0
 12 38  1  0
 13 39  1  0
 18 40  1  0
 18 41  1  0
 19 42  1  0
 19 43  1  0
 21 44  1  0
 21 45  1  0
 22 46  1  0
 22 47  1  0
 23 48  1  0
 24 49  1  0
 25 50  1  0
 30 51  1  0
 31 52  1  0
 32 53  1  0
 35 54  1  0
M  CHG  3   5  -1  27  -1  28  -1
M  END
>  <UniqueID>  (88) 
82

>  <SMILES>  (88) 
O=C(N=c1[n-]c2ccc(Oc3ccc(C(=O)N4CCOCC4)cc3)cc2[n-]1)[N-]c1cccc(Br)c1

>  <Energy>  (88) 
117.35510541261489

>  <Genealogy>  (88) 
O=C(N=c1[n-]c2ccc(Oc3ccc(C(=O)N4CCOCC4)cc3)cc2[n-]1)[N-]c1cccc(Br)c1 (protonated)
O=C(N=c1[n-]c2ccc(Oc3ccc(C(=O)N4CCOCC4)cc3)cc2[n-]1)[N-]c1cccc(Br)c1 (3D coordinates assigned)
O=C(N=c1[n-]c2ccc(Oc3ccc(C(=O)N4CCOCC4)cc3)cc2[n-]1)[N-]c1cccc(Br)c1 (nonaromatic ring conformer: 117.35510541261489 kcal/mol)

>  <smiles>  (88) 
O=C(N=c1[nH]c2ccc(Oc3ccc(C(=O)N4CCOCC4)cc3)cc2[nH]1)Nc1cccc(Br)c1

>  <score_type>  (88) 
oracle

>  <origin>  (88) 
adg

>  <m_score__min__energy>  (88) 
-12.699999999999999

>  <m_primary>  (88) 
energy

$$$$
88:0
     RDKit          3D

 35 36  0  0  0  0  0  0  0  0999 V2000
   60.0000   35.3130   46.7680 C   0  0  0  0  0  0  0  0  0  0  0  0
   59.0740   34.2730   46.1930 C   0  0  0  0  0  0  0  0  0  0  0  0
   58.6620   34.3830   44.8550 C   0  0  0  0  0  0  0  0  0  0  0  0
   57.8090   33.4320   44.2930 C   0  0  0  0  0  0  0  0  0  0  0  0
   57.3400   32.3600   45.0630 C   0  0  0  0  0  0  0  0  0  0  0  0
   56.4860   31.3520   44.5050 N   0  0  0  0  0  0  0  0  0  0  0  0
   56.5570   29.9380   44.7380 C   0  0  0  0  0  0  0  0  0  0  0  0
   55.4860   29.3020   44.9150 O   0  0  0  0  0  0  0  0  0  0  0  0
   57.8530   29.1790   44.6660 C   0  0  0  0  0  0  0  0  0  0  0  0
   58.4090   28.6650   46.3310 S   0  0  0  0  0  0  0  0  0  0  0  0
   57.5050   27.1180   46.3380 C   0  0  0  0  0  0  0  0  0  0  0  0
   58.1390   25.9630   46.6700 N   0  0  0  0  0  0  0  0  0  0  0  0
   57.4740   24.7790   46.6750 C   0  0  0  0  0  0  0  0  0  0  0  0
   58.0790   23.7200   46.9880 O   0  0  0  0  0  0  0  0  0  0  0  0
   56.1200   24.7400   46.3320 C   0  0  0  0  0  0  0  0  0  0  0  0
   55.4850   25.9370   45.9880 C   0  0  0  0  0  0  0  0  0  0  0  0
   54.1040   25.9480   45.6260 N   0  0  0  0  0  0  0  0  0  0  0  0
   56.1900   27.0990   45.9950 N   0  0  0  0  0  0  0  0  0  0  0  0
   57.7780   32.2190   46.3840 C   0  0  0  0  0  0  0  0  0  0  0  0
   58.6410   33.1650   46.9620 C   0  0  0  0  0  0  0  0  0  0  0  0
   59.0730   32.9930   48.3950 C   0  0  0  0  0  0  0  0  0  0  0  0
   59.9622   35.2705   47.8665 H   0  0  0  0  0  0  0  0  0  0  0  0
   61.0278   35.1167   46.4287 H   0  0  0  0  0  0  0  0  0  0  0  0
   59.6862   36.3112   46.4287 H   0  0  0  0  0  0  0  0  0  0  0  0
   59.0150   35.2268   44.2440 H   0  0  0  0  0  0  0  0  0  0  0  0
   57.5035   33.5247   43.2403 H   0  0  0  0  0  0  0  0  0  0  0  0
   57.7109   28.2839   44.0426 H   0  0  0  0  0  0  0  0  0  0  0  0
   58.6191   29.8367   44.2296 H   0  0  0  0  0  0  0  0  0  0  0  0
   55.5665   23.7894   46.3326 H   0  0  0  0  0  0  0  0  0  0  0  0
   53.4730   26.6990   45.9830 H   0  0  0  0  0  0  0  0  0  0  0  0
   53.7060   25.2080   45.0050 H   0  0  0  0  0  0  0  0  0  0  0  0
   57.4423   31.3562   46.9780 H   0  0  0  0  0  0  0  0  0  0  0  0
   58.2617   33.3160   49.0639 H   0  0  0  0  0  0  0  0  0  0  0  0
   59.3042   31.9343   48.5837 H   0  0  0  0  0  0  0  0  0  0  0  0
   59.9686   33.6031   48.5837 H   0  0  0  0  0  0  0  0  0  0  0  0
  1  2  1  0
  2  3  2  0
  3  4  1  0
  4  5  2  0
  5  6  1  0
  6  7  1  0
  7  8  2  0
  7  9  1  0
  9 10  1  0
 10 11  1  0
 11 12  2  0
 12 13  1  0
 13 14  2  0
 13 15  1  0
 15 16  2  0
 16 17  1  0
 16 18  1  0
  5 19  1  0
 19 20  2  0
 20 21  1  0
 20  2  1  0
 18 11  1  0
  1 22  1  0
  1 23  1  0
  1 24  1  0
  3 25  1  0
  4 26  1  0
  9 27  1  0
  9 28  1  0
 15 29  1  0
 17 30  1  0
 17 31  1  0
 19 32  1  0
 21 33  1  0
 21 34  1  0
 21 35  1  0
M  CHG  2   6  -1  18  -1
M  END
>  <UniqueID>  (89) 
83

>  <SMILES>  (89) 
Cc1ccc([N-]C(=O)CSc2nc(=O)cc(N)[n-]2)cc1C

>  <Energy>  (89) 
36.69976717724188

>  <Genealogy>  (89) 
Cc1ccc([N-]C(=O)CSc2nc(=O)cc(N)[n-]2)cc1C (protonated)
Cc1ccc([N-]C(=O)CSc2nc(=O)cc(N)[n-]2)cc1C (3D coordinates assigned)
Cc1ccc([N-]C(=O)CSc2nc(=O)cc(N)[n-]2)cc1C (optimized conformer: 36.69976717724188 kcal/mol)

>  <smiles>  (89) 
Cc1ccc(NC(=O)CSc2nc(=O)cc(N)[nH]2)cc1C

>  <score_type>  (89) 
oracle

>  <origin>  (89) 
adg

>  <m_score__min__energy>  (89) 
-11.33

>  <m_primary>  (89) 
energy

$$$$
89:0
     RDKit          3D

 47 49  0  0  0  0  0  0  0  0999 V2000
   59.6760   28.9810   49.2860 O   0  0  0  0  0  0  0  0  0  0  0  0
   60.5840   29.6140   48.6820 C   0  0  0  0  0  0  0  0  0  0  0  0
   61.5730   30.4240   49.4730 C   0  0  0  0  0  0  0  0  0  0  0  0
   62.0250   31.6480   48.7040 C   0  0  0  0  0  0  0  0  0  0  0  0
   63.1250   31.5060   47.8350 C   0  0  0  0  0  0  0  0  0  0  0  0
   63.5850   32.5850   47.0830 C   0  0  0  0  0  0  0  0  0  0  0  0
   62.9570   33.8220   47.1820 C   0  0  0  0  0  0  0  0  0  0  0  0
   61.8600   33.9860   48.0270 C   0  0  0  0  0  0  0  0  0  0  0  0
   61.3650   32.9080   48.7910 C   0  0  0  0  0  0  0  0  0  0  0  0
   60.1780   33.1290   49.7100 C   0  0  0  0  0  0  0  0  0  0  0  0
   60.5340   32.8700   51.0200 F   0  0  0  0  0  0  0  0  0  0  0  0
   59.1190   32.2950   49.3910 F   0  0  0  0  0  0  0  0  0  0  0  0
   59.7420   34.4370   49.6010 F   0  0  0  0  0  0  0  0  0  0  0  0
   60.6680   29.5770   47.2470 N   0  0  0  0  0  0  0  0  0  0  0  0
   59.6810   28.9640   46.4000 C   0  0  0  0  0  0  0  0  0  0  0  0
   59.9320   27.6930   45.8660 C   0  0  0  0  0  0  0  0  0  0  0  0
   58.9990   27.0840   45.0260 C   0  0  0  0  0  0  0  0  0  0  0  0
   57.8120   27.7440   44.6960 C   0  0  0  0  0  0  0  0  0  0  0  0
   57.5510   29.0310   45.1990 C   0  0  0  0  0  0  0  0  0  0  0  0
   56.3010   29.7390   44.8400 C   0  0  0  0  0  0  0  0  0  0  0  0
   55.2030   29.1170   44.8250 O   0  0  0  0  0  0  0  0  0  0  0  0
   56.3300   31.1340   44.5110 N   0  0  0  0  0  0  0  0  0  0  0  0
   57.4790   31.7990   43.9060 C   0  0  0  0  0  0  0  0  0  0  0  0
   58.0530   32.8140   44.8560 C   0  0  0  0  0  0  0  0  0  0  0  0
   57.7020   32.8090   46.2140 C   0  0  0  0  0  0  0  0  0  0  0  0
   58.2280   33.7760   47.0730 C   0  0  0  0  0  0  0  0  0  0  0  0
   59.0980   34.7430   46.5650 C   0  0  0  0  0  0  0  0  0  0  0  0
   59.4230   34.7400   45.2460 N   0  0  0  0  0  0  0  0  0  0  0  0
   58.9240   33.8100   44.3880 C   0  0  0  0  0  0  0  0  0  0  0  0
   58.4980   29.6380   46.0460 C   0  0  0  0  0  0  0  0  0  0  0  0
   61.1015   30.7459   50.4132 H   0  0  0  0  0  0  0  0  0  0  0  0
   62.4537   29.7960   49.6732 H   0  0  0  0  0  0  0  0  0  0  0  0
   63.6269   30.5310   47.7492 H   0  0  0  0  0  0  0  0  0  0  0  0
   64.4459   32.4583   46.4102 H   0  0  0  0  0  0  0  0  0  0  0  0
   63.3268   34.6735   46.5919 H   0  0  0  0  0  0  0  0  0  0  0  0
   61.3735   34.9699   48.0990 H   0  0  0  0  0  0  0  0  0  0  0  0
   61.5440   29.9280   46.7970 H   0  0  0  0  0  0  0  0  0  0  0  0
   60.8697   27.1725   46.1104 H   0  0  0  0  0  0  0  0  0  0  0  0
   59.1985   26.0805   44.6219 H   0  0  0  0  0  0  0  0  0  0  0  0
   57.0780   27.2541   44.0393 H   0  0  0  0  0  0  0  0  0  0  0  0
   58.2480   31.0496   43.6672 H   0  0  0  0  0  0  0  0  0  0  0  0
   57.1544   32.3108   42.9880 H   0  0  0  0  0  0  0  0  0  0  0  0
   57.0131   32.0441   46.6018 H   0  0  0  0  0  0  0  0  0  0  0  0
   57.9596   33.7761   48.1398 H   0  0  0  0  0  0  0  0  0  0  0  0
   59.5205   35.5077   47.2334 H   0  0  0  0  0  0  0  0  0  0  0  0
   59.2038   33.8386   43.3246 H   0  0  0  0  0  0  0  0  0  0  0  0
   58.3108   30.6498   46.4349 H   0  0  0  0  0  0  0  0  0  0  0  0
  1  2  2  0
  2  3  1  0
  3  4  1  0
  4  5  2  0
  5  6  1  0
  6  7  2  0
  7  8  1  0
  8  9  2  0
  9 10  1  0
 10 11  1  0
 10 12  1  0
 10 13  1  0
  2 14  1  0
 14 15  1  0
 15 16  2  0
 16 17  1  0
 17 18  2  0
 18 19  1  0
 19 20  1  0
 20 21  2  0
 20 22  1  0
 22 23  1  0
 23 24  1  0
 24 25  2  0
 25 26  1  0
 26 27  2  0
 27 28  1  0
 28 29  2  0
 19 30  2  0
  9  4  1  0
 30 15  1  0
 29 24  1  0
  3 31  1  0
  3 32  1  0
  5 33  1  0
  6 34  1  0
  7 35  1  0
  8 36  1  0
 14 37  1  0
 16 38  1  0
 17 39  1  0
 18 40  1  0
 23 41  1  0
 23 42  1  0
 25 43  1  0
 26 44  1  0
 27 45  1  0
 29 46  1  0
 30 47  1  0
M  CHG  1  22  -1
M  END
>  <UniqueID>  (90) 
84

>  <SMILES>  (90) 
O=C(Cc1ccccc1C(F)(F)F)Nc1cccc(C(=O)[N-]Cc2cccnc2)c1

>  <Energy>  (90) 
55.03720960666858

>  <Genealogy>  (90) 
O=C(Cc1ccccc1C(F)(F)F)Nc1cccc(C(=O)[N-]Cc2cccnc2)c1 (protonated)
O=C(Cc1ccccc1C(F)(F)F)Nc1cccc(C(=O)[N-]Cc2cccnc2)c1 (3D coordinates assigned)
O=C(Cc1ccccc1C(F)(F)F)Nc1cccc(C(=O)[N-]Cc2cccnc2)c1 (optimized conformer: 55.03720960666858 kcal/mol)

>  <smiles>  (90) 
O=C(Cc1ccccc1C(F)(F)F)Nc1cccc(C(=O)NCc2cccnc2)c1

>  <score_type>  (90) 
oracle

>  <origin>  (90) 
adg

>  <m_score__min__energy>  (90) 
-10.34

>  <m_primary>  (90) 
energy

$$$$
