0:0
     RDKit          3D

 34 35  0  0  0  0  0  0  0  0999 V2000
   60.9760   29.1660   50.2360 C   0  0  0  0  0  0  0  0  0  0  0  0
   60.2090   28.7580   49.0160 C   0  0  0  0  0  0  0  0  0  0  0  0
   60.7460   27.8620   48.1460 N   0  0  0  0  0  0  0  0  0  0  0  0
   60.0860   27.4770   47.0540 N   0  0  0  0  0  0  0  0  0  0  0  0
   58.8520   27.9700   46.7780 C   0  0  0  0  0  0  0  0  0  0  0  0
   57.9710   27.4330   45.3130 S   0  0  0  0  0  0  0  0  0  0  0  0
   57.8960   29.0970   44.5620 C   0  0  0  0  0  0  0  0  0  0  0  0
   56.5540   29.7210   44.7790 C   0  0  0  0  0  0  0  0  0  0  0  0
   55.5320   28.9870   44.8660 O   0  0  0  0  0  0  0  0  0  0  0  0
   56.4370   31.1470   44.8380 N   0  0  0  0  0  0  0  0  0  0  0  0
   57.4520   32.0610   45.2760 C   0  0  0  0  0  0  0  0  0  0  0  0
   57.3130   33.4540   45.1310 C   0  0  0  0  0  0  0  0  0  0  0  0
   58.3090   34.3120   45.6050 C   0  0  0  0  0  0  0  0  0  0  0  0
   59.4440   33.7930   46.2330 C   0  0  0  0  0  0  0  0  0  0  0  0
   59.5860   32.4100   46.3950 C   0  0  0  0  0  0  0  0  0  0  0  0
   60.9990   31.7510   47.2160 S   0  0  0  0  0  0  0  0  0  0  0  0
   61.2080   30.0940   46.7720 N   0  0  0  0  0  0  0  0  0  0  0  0
   62.2210   32.5330   46.8270 O   0  0  0  0  0  0  0  0  0  0  0  0
   60.8180   31.8510   48.7050 O   0  0  0  0  0  0  0  0  0  0  0  0
   58.5820   31.5500   45.9280 C   0  0  0  0  0  0  0  0  0  0  0  0
   58.2850   28.8690   47.6210 N   0  0  0  0  0  0  0  0  0  0  0  0
   58.9360   29.2750   48.7390 C   0  0  0  0  0  0  0  0  0  0  0  0
   58.3910   30.1070   49.5130 O   0  0  0  0  0  0  0  0  0  0  0  0
   60.4179   28.8691   51.1362 H   0  0  0  0  0  0  0  0  0  0  0  0
   61.9585   28.6713   50.2339 H   0  0  0  0  0  0  0  0  0  0  0  0
   61.1149   30.2572   50.2339 H   0  0  0  0  0  0  0  0  0  0  0  0
   58.6674   29.7337   45.0197 H   0  0  0  0  0  0  0  0  0  0  0  0
   58.0684   29.0020   43.4797 H   0  0  0  0  0  0  0  0  0  0  0  0
   56.4182   33.8683   44.6434 H   0  0  0  0  0  0  0  0  0  0  0  0
   58.1990   35.3997   45.4833 H   0  0  0  0  0  0  0  0  0  0  0  0
   60.2272   34.4723   46.6007 H   0  0  0  0  0  0  0  0  0  0  0  0
   60.2770   29.6310   46.8730 H   0  0  0  0  0  0  0  0  0  0  0  0
   61.8380   29.6640   47.4850 H   0  0  0  0  0  0  0  0  0  0  0  0
   58.6823   30.4645   46.0748 H   0  0  0  0  0  0  0  0  0  0  0  0
  1  2  1  0
  2  3  2  0
  3  4  1  0
  4  5  1  0
  5  6  1  0
  6  7  1  0
  7  8  1  0
  8  9  2  0
  8 10  1  0
 10 11  1  0
 11 12  2  0
 12 13  1  0
 13 14  2  0
 14 15  1  0
 15 16  1  0
 16 17  1  0
 16 18  2  0
 16 19  2  0
 15 20  2  0
  5 21  2  0
 21 22  1  0
 22 23  2  0
 22  2  1  0
 20 11  1  0
  1 24  1  0
  1 25  1  0
  1 26  1  0
  7 27  1  0
  7 28  1  0
 12 29  1  0
 13 30  1  0
 14 31  1  0
 17 32  1  0
 17 33  1  0
 20 34  1  0
M  CHG  2   4  -1  10  -1
M  END
>  <UniqueID>  (1) 
1

>  <SMILES>  (1) 
Cc1n[n-]c(SCC(=O)[N-]c2cccc(S(N)(=O)=O)c2)nc1=O

>  <Energy>  (1) 
32.372438161175516

>  <Genealogy>  (1) 
Cc1n[n-]c(SCC(=O)[N-]c2cccc(S(N)(=O)=O)c2)nc1=O (protonated)
Cc1n[n-]c(SCC(=O)[N-]c2cccc(S(N)(=O)=O)c2)nc1=O (3D coordinates assigned)
Cc1n[n-]c(SCC(=O)[N-]c2cccc(S(N)(=O)=O)c2)nc1=O (optimized conformer: 32.372438161175516 kcal/mol)

>  <smiles>  (1) 
Cc1n[nH]c(SCC(=O)Nc2cccc(S(N)(=O)=O)c2)nc1=O

>  <score_type>  (1) 
oracle

>  <origin>  (1) 
adg

>  <m_score__min__energy>  (1) 
-11.039999999999999

>  <m_primary>  (1) 
energy

$$$$
1:0
     RDKit          3D

 28 29  0  0  0  0  0  0  0  0999 V2000
   59.9140   34.5580   46.0210 C   0  0  0  0  0  0  0  0  0  0  0  0
   58.8960   34.6280   46.8820 C   0  0  0  0  0  0  0  0  0  0  0  0
   57.7460   33.6660   46.8010 C   0  0  0  0  0  0  0  0  0  0  0  0
   58.2180   32.2890   46.9740 N   0  0  0  0  0  0  0  0  0  0  0  0
   58.2390   31.2800   46.0710 C   0  0  0  0  0  0  0  0  0  0  0  0
   57.8030   31.3860   44.6620 C   0  0  0  0  0  0  0  0  0  0  0  0
   58.3010   32.4490   43.8910 C   0  0  0  0  0  0  0  0  0  0  0  0
   57.9910   32.5500   42.5350 C   0  0  0  0  0  0  0  0  0  0  0  0
   57.1900   31.5850   41.9280 C   0  0  0  0  0  0  0  0  0  0  0  0
   56.6880   30.5200   42.6780 C   0  0  0  0  0  0  0  0  0  0  0  0
   56.9740   30.4070   44.0520 C   0  0  0  0  0  0  0  0  0  0  0  0
   56.3600   29.2920   44.8170 C   0  0  0  0  0  0  0  0  0  0  0  0
   55.1450   29.3430   45.1450 O   0  0  0  0  0  0  0  0  0  0  0  0
   57.1180   28.2000   45.2240 O   0  0  0  0  0  0  0  0  0  0  0  0
   58.7380   30.1440   46.6050 N   0  0  0  0  0  0  0  0  0  0  0  0
   59.0440   30.4280   47.8610 N   0  0  0  0  0  0  0  0  0  0  0  0
   58.7340   31.7170   48.0820 C   0  0  0  0  0  0  0  0  0  0  0  0
   58.9620   32.4750   49.5170 S   0  0  0  0  0  0  0  0  0  0  0  0
   60.7478   35.2715   46.0960 H   0  0  0  0  0  0  0  0  0  0  0  0
   59.9189   33.7868   45.2367 H   0  0  0  0  0  0  0  0  0  0  0  0
   58.8998   35.4026   47.6630 H   0  0  0  0  0  0  0  0  0  0  0  0
   57.0195   33.9022   47.5925 H   0  0  0  0  0  0  0  0  0  0  0  0
   57.2721   33.7591   45.8127 H   0  0  0  0  0  0  0  0  0  0  0  0
   58.9418   33.2094   44.3613 H   0  0  0  0  0  0  0  0  0  0  0  0
   58.3794   33.3925   41.9440 H   0  0  0  0  0  0  0  0  0  0  0  0
   56.9529   31.6624   40.8566 H   0  0  0  0  0  0  0  0  0  0  0  0
   56.0611   29.7595   42.1894 H   0  0  0  0  0  0  0  0  0  0  0  0
   59.4550   29.7510   48.5410 H   0  0  0  0  0  0  0  0  0  0  0  0
  1  2  2  0
  2  3  1  0
  3  4  1  0
  4  5  1  0
  5  6  1  0
  6  7  2  0
  7  8  1  0
  8  9  2  0
  9 10  1  0
 10 11  2  0
 11 12  1  0
 12 13  2  0
 12 14  1  0
  5 15  2  0
 15 16  1  0
 16 17  1  0
 17 18  2  0
 17  4  1  0
 11  6  1  0
  1 19  1  0
  1 20  1  0
  2 21  1  0
  3 22  1  0
  3 23  1  0
  7 24  1  0
  8 25  1  0
  9 26  1  0
 10 27  1  0
 16 28  1  0
M  CHG  1  14  -1
M  END
>  <UniqueID>  (2) 
2

>  <SMILES>  (2) 
C=CCn1c(-c2ccccc2C(=O)[O-])n[nH]c1=S

>  <Energy>  (2) 
71.71663886763112

>  <Genealogy>  (2) 
C=CCn1c(-c2ccccc2C(=O)[O-])n[nH]c1=S (protonated)
C=CCn1c(-c2ccccc2C(=O)[O-])n[nH]c1=S (3D coordinates assigned)
C=CCn1c(-c2ccccc2C(=O)[O-])n[nH]c1=S (optimized conformer: 71.71663886763112 kcal/mol)

>  <smiles>  (2) 
C=CCn1c(-c2ccccc2C(=O)O)n[nH]c1=S

>  <score_type>  (2) 
oracle

>  <origin>  (2) 
adg

>  <m_score__min__energy>  (2) 
-8.8699999999999992

>  <m_primary>  (2) 
energy

$$$$
2:0
     RDKit          3D

 53 55  0  0  0  0  0  0  0  0999 V2000
   59.6220   35.5740   45.6170 C   0  0  0  0  0  0  0  0  0  0  0  0
   59.1770   34.1380   45.6710 C   0  0  0  0  0  0  0  0  0  0  0  0
   58.1870   33.7020   44.7740 C   0  0  0  0  0  0  0  0  0  0  0  0
   57.7550   32.3760   44.7770 C   0  0  0  0  0  0  0  0  0  0  0  0
   58.2940   31.4550   45.6880 C   0  0  0  0  0  0  0  0  0  0  0  0
   57.8410   30.0480   45.6830 C   0  0  0  0  0  0  0  0  0  0  0  0
   56.6930   29.7660   45.2410 O   0  0  0  0  0  0  0  0  0  0  0  0
   58.6920   29.0020   46.1750 N   0  0  0  0  0  0  0  0  0  0  0  0
   58.4060   27.5870   45.9460 C   0  0  0  0  0  0  0  0  0  0  0  0
   59.4650   26.7210   46.5690 C   0  0  0  0  0  0  0  0  0  0  0  0
   60.2130   27.2070   47.4580 O   0  0  0  0  0  0  0  0  0  0  0  0
   59.6290   25.3430   46.2050 N   0  0  0  0  0  0  0  0  0  0  0  0
   58.5940   24.4310   45.8120 C   0  0  0  0  0  0  0  0  0  0  0  0
   58.9530   23.1990   45.2510 C   0  0  0  0  0  0  0  0  0  0  0  0
   57.9710   22.2970   44.8360 C   0  0  0  0  0  0  0  0  0  0  0  0
   56.6180   22.6270   44.9620 C   0  0  0  0  0  0  0  0  0  0  0  0
   56.2450   23.8720   45.4880 C   0  0  0  0  0  0  0  0  0  0  0  0
   54.5440   24.3020   45.6390 S   0  0  0  0  0  0  0  0  0  0  0  0
   54.4100   25.9910   45.9790 N   0  0  0  0  0  0  0  0  0  0  0  0
   53.9120   23.5140   46.7530 O   0  0  0  0  0  0  0  0  0  0  0  0
   53.8260   23.9850   44.3560 O   0  0  0  0  0  0  0  0  0  0  0  0
   57.2330   24.7730   45.9060 C   0  0  0  0  0  0  0  0  0  0  0  0
   59.2920   31.8820   46.5790 C   0  0  0  0  0  0  0  0  0  0  0  0
   59.7570   33.2060   46.5680 C   0  0  0  0  0  0  0  0  0  0  0  0
   61.0460   33.6640   47.6950 S   0  0  0  0  0  0  0  0  0  0  0  0
   62.3540   33.8430   46.9750 O   0  0  0  0  0  0  0  0  0  0  0  0
   60.6720   34.9550   48.3650 O   0  0  0  0  0  0  0  0  0  0  0  0
   61.2520   32.4480   48.9160 N   0  0  0  0  0  0  0  0  0  0  0  0
   60.1870   31.8000   49.6260 C   0  0  0  0  0  0  0  0  0  0  0  0
   59.2240   32.5930   50.2620 C   0  0  0  0  0  0  0  0  0  0  0  0
   58.1600   32.0060   50.9540 C   0  0  0  0  0  0  0  0  0  0  0  0
   58.0550   30.6130   51.0180 C   0  0  0  0  0  0  0  0  0  0  0  0
   57.0240   30.0400   51.6870 F   0  0  0  0  0  0  0  0  0  0  0  0
   59.0030   29.8090   50.3740 C   0  0  0  0  0  0  0  0  0  0  0  0
   60.0650   30.3980   49.6790 C   0  0  0  0  0  0  0  0  0  0  0  0
   59.7415   35.9596   46.6403 H   0  0  0  0  0  0  0  0  0  0  0  0
   60.5829   35.6404   45.0856 H   0  0  0  0  0  0  0  0  0  0  0  0
   58.8671   36.1721   45.0856 H   0  0  0  0  0  0  0  0  0  0  0  0
   57.7476   34.4151   44.0610 H   0  0  0  0  0  0  0  0  0  0  0  0
   56.9867   32.0500   44.0605 H   0  0  0  0  0  0  0  0  0  0  0  0
   59.5370   29.2450   46.7350 H   0  0  0  0  0  0  0  0  0  0  0  0
   57.4305   27.3397   46.3902 H   0  0  0  0  0  0  0  0  0  0  0  0
   58.3911   27.4011   44.8619 H   0  0  0  0  0  0  0  0  0  0  0  0
   60.0159   22.9400   45.1365 H   0  0  0  0  0  0  0  0  0  0  0  0
   58.2622   21.3258   44.4095 H   0  0  0  0  0  0  0  0  0  0  0  0
   55.8457   21.9093   44.6482 H   0  0  0  0  0  0  0  0  0  0  0  0
   53.5530   26.3330   45.4870 H   0  0  0  0  0  0  0  0  0  0  0  0
   56.9425   25.7539   46.3102 H   0  0  0  0  0  0  0  0  0  0  0  0
   59.7167   31.1661   47.2981 H   0  0  0  0  0  0  0  0  0  0  0  0
   59.3053   33.6891   50.2168 H   0  0  0  0  0  0  0  0  0  0  0  0
   57.4072   32.6387   51.4470 H   0  0  0  0  0  0  0  0  0  0  0  0
   58.9129   28.7134   50.4144 H   0  0  0  0  0  0  0  0  0  0  0  0
   60.8072   29.7637   49.1722 H   0  0  0  0  0  0  0  0  0  0  0  0
  1  2  1  0
  2  3  2  0
  3  4  1  0
  4  5  2  0
  5  6  1  0
  6  7  2  0
  6  8  1  0
  8  9  1  0
  9 10  1  0
 10 11  2  0
 10 12  1  0
 12 13  1  0
 13 14  2  0
 14 15  1  0
 15 16  2  0
 16 17  1  0
 17 18  1  0
 18 19  1  0
 18 20  2  0
 18 21  2  0
 17 22  2  0
  5 23  1  0
 23 24  2  0
 24 25  1  0
 25 26  2  0
 25 27  2  0
 25 28  1  0
 28 29  1  0
 29 30  2  0
 30 31  1  0
 31 32  2  0
 32 33  1  0
 32 34  1  0
 34 35  2  0
 24  2  1  0
 35 29  1  0
 22 13  1  0
  1 36  1  0
  1 37  1  0
  1 38  1  0
  3 39  1  0
  4 40  1  0
  8 41  1  0
  9 42  1  0
  9 43  1  0
 14 44  1  0
 15 45  1  0
 16 46  1  0
 19 47  1  0
 22 48  1  0
 23 49  1  0
 30 50  1  0
 31 51  1  0
 34 52  1  0
 35 53  1  0
M  CHG  3  12  -1  19  -1  28  -1
M  END
>  <UniqueID>  (3) 
3

>  <SMILES>  (3) 
Cc1ccc(C(=O)NCC(=O)[N-]c2cccc(S([NH-])(=O)=O)c2)cc1S(=O)(=O)[N-]c1ccc(F)cc1

>  <Energy>  (3) 
64.59435549383831

>  <Genealogy>  (3) 
Cc1ccc(C(=O)NCC(=O)[N-]c2cccc(S([NH-])(=O)=O)c2)cc1S(=O)(=O)[N-]c1ccc(F)cc1 (protonated)
Cc1ccc(C(=O)NCC(=O)[N-]c2cccc(S([NH-])(=O)=O)c2)cc1S(=O)(=O)[N-]c1ccc(F)cc1 (3D coordinates assigned)
Cc1ccc(C(=O)NCC(=O)[N-]c2cccc(S([NH-])(=O)=O)c2)cc1S(=O)(=O)[N-]c1ccc(F)cc1 (optimized conformer: 64.59435549383831 kcal/mol)

>  <smiles>  (3) 
Cc1ccc(C(=O)NCC(=O)Nc2cccc(S(N)(=O)=O)c2)cc1S(=O)(=O)Nc1ccc(F)cc1

>  <score_type>  (3) 
oracle

>  <origin>  (3) 
adg

>  <m_score__min__energy>  (3) 
-15.220000000000001

>  <m_primary>  (3) 
energy

$$$$
3:0
     RDKit          3D

 25 25  0  0  0  0  0  0  0  0999 V2000
   61.1160   33.7470   47.4900 C   0  0  0  0  0  0  0  0  0  0  0  0
   60.1370   33.2150   46.7390 C   0  0  0  0  0  0  0  0  0  0  0  0
   60.1160   31.8700   46.5220 N   0  0  0  0  0  0  0  0  0  0  0  0
   59.1640   31.2660   45.7550 C   0  0  0  0  0  0  0  0  0  0  0  0
   59.2400   29.7730   45.5450 C   0  0  0  0  0  0  0  0  0  0  0  0
   58.1280   32.0370   45.1750 C   0  0  0  0  0  0  0  0  0  0  0  0
   57.1070   31.3740   44.3280 C   0  0  0  0  0  0  0  0  0  0  0  0
   56.1770   30.7120   44.8650 O   0  0  0  0  0  0  0  0  0  0  0  0
   57.1920   31.4740   42.9360 O   0  0  0  0  0  0  0  0  0  0  0  0
   58.1400   32.3110   42.2850 C   0  0  0  0  0  0  0  0  0  0  0  0
   58.1060   33.4410   45.3970 C   0  0  0  0  0  0  0  0  0  0  0  0
   57.1130   34.2150   44.9110 C   0  0  0  0  0  0  0  0  0  0  0  0
   59.1310   34.0270   46.1750 C   0  0  0  0  0  0  0  0  0  0  0  0
   59.1450   35.2770   46.3730 O   0  0  0  0  0  0  0  0  0  0  0  0
   61.1423   34.8316   47.6714 H   0  0  0  0  0  0  0  0  0  0  0  0
   61.8911   33.0979   47.9234 H   0  0  0  0  0  0  0  0  0  0  0  0
   60.8620   31.2740   46.9500 H   0  0  0  0  0  0  0  0  0  0  0  0
   59.2658   29.2663   46.5210 H   0  0  0  0  0  0  0  0  0  0  0  0
   58.3578   29.4367   44.9805 H   0  0  0  0  0  0  0  0  0  0  0  0
   60.1518   29.5281   44.9805 H   0  0  0  0  0  0  0  0  0  0  0  0
   58.7402   32.8409   43.0393 H   0  0  0  0  0  0  0  0  0  0  0  0
   58.8009   31.6964   41.6561 H   0  0  0  0  0  0  0  0  0  0  0  0
   57.6120   33.0430   41.6561 H   0  0  0  0  0  0  0  0  0  0  0  0
   57.1195   35.2991   45.0970 H   0  0  0  0  0  0  0  0  0  0  0  0
   56.2971   33.7617   44.3289 H   0  0  0  0  0  0  0  0  0  0  0  0
  1  2  2  0
  2  3  1  0
  3  4  1  0
  4  5  1  0
  4  6  2  0
  6  7  1  0
  7  8  2  0
  7  9  1  0
  9 10  1  0
  6 11  1  0
 11 12  2  0
 11 13  1  0
 13 14  2  0
 13  2  1  0
  1 15  1  0
  1 16  1  0
  3 17  1  0
  5 18  1  0
  5 19  1  0
  5 20  1  0
 10 21  1  0
 10 22  1  0
 10 23  1  0
 12 24  1  0
 12 25  1  0
M  END
>  <UniqueID>  (4) 
4

>  <SMILES>  (4) 
C=c1[nH]c(C)c(C(=O)OC)c(=C)c1=O

>  <Energy>  (4) 
36.08965143448382

>  <Genealogy>  (4) 
C=c1[nH]c(C)c(C(=O)OC)c(=C)c1=O (3D coordinates assigned)
C=c1[nH]c(C)c(C(=O)OC)c(=C)c1=O (optimized conformer: 36.08965143448382 kcal/mol)

>  <smiles>  (4) 
C=c1[nH]c(C)c(C(=O)OC)c(=C)c1=O

>  <score_type>  (4) 
oracle

>  <origin>  (4) 
adg

>  <m_score__min__energy>  (4) 
-5.1600000000000001

>  <m_primary>  (4) 
energy

$$$$
4:0
     RDKit          3D

 39 41  0  0  0  0  0  0  0  0999 V2000
   54.8070   26.3170   45.9840 N   0  0  0  0  0  0  0  0  0  0  0  0
   56.1580   25.2900   46.3050 S   0  0  0  0  0  0  0  0  0  0  0  0
   56.0870   24.7900   47.7200 O   0  0  0  0  0  0  0  0  0  0  0  0
   56.1160   24.1110   45.3730 O   0  0  0  0  0  0  0  0  0  0  0  0
   57.6510   26.1930   46.0730 C   0  0  0  0  0  0  0  0  0  0  0  0
   58.8930   25.6020   46.3420 C   0  0  0  0  0  0  0  0  0  0  0  0
   60.0710   26.3330   46.1580 C   0  0  0  0  0  0  0  0  0  0  0  0
   60.0150   27.6460   45.6860 C   0  0  0  0  0  0  0  0  0  0  0  0
   58.7840   28.2340   45.3730 C   0  0  0  0  0  0  0  0  0  0  0  0
   58.7520   29.5960   44.9240 N   0  0  0  0  0  0  0  0  0  0  0  0
   59.1720   30.6350   45.5850 C   0  0  0  0  0  0  0  0  0  0  0  0
   60.3930   30.7480   46.1630 N   0  0  0  0  0  0  0  0  0  0  0  0
   60.5460   31.9320   46.8190 C   0  0  0  0  0  0  0  0  0  0  0  0
   61.7870   32.2430   47.5580 C   0  0  0  0  0  0  0  0  0  0  0  0
   62.6470   33.2630   47.1200 C   0  0  0  0  0  0  0  0  0  0  0  0
   63.8240   33.5400   47.8230 C   0  0  0  0  0  0  0  0  0  0  0  0
   64.1550   32.7950   48.9570 C   0  0  0  0  0  0  0  0  0  0  0  0
   63.3130   31.7660   49.3880 C   0  0  0  0  0  0  0  0  0  0  0  0
   62.1350   31.4860   48.6880 C   0  0  0  0  0  0  0  0  0  0  0  0
   59.4190   32.7670   46.7730 C   0  0  0  0  0  0  0  0  0  0  0  0
   59.1990   34.0450   47.5290 C   0  0  0  0  0  0  0  0  0  0  0  0
   59.4980   33.8480   48.9800 C   0  0  0  0  0  0  0  0  0  0  0  0
   60.3290   34.5930   49.5630 O   0  0  0  0  0  0  0  0  0  0  0  0
   58.8290   32.8680   49.7010 O   0  0  0  0  0  0  0  0  0  0  0  0
   58.2140   31.9740   45.9010 S   0  0  0  0  0  0  0  0  0  0  0  0
   57.5980   27.5110   45.6000 C   0  0  0  0  0  0  0  0  0  0  0  0
   55.1520   27.0960   45.3800 H   0  0  0  0  0  0  0  0  0  0  0  0
   58.9413   24.5624   46.6981 H   0  0  0  0  0  0  0  0  0  0  0  0
   61.0438   25.8726   46.3856 H   0  0  0  0  0  0  0  0  0  0  0  0
   60.9438   28.2216   45.5594 H   0  0  0  0  0  0  0  0  0  0  0  0
   61.1290   30.0080   46.1550 H   0  0  0  0  0  0  0  0  0  0  0  0
   62.3944   33.8456   46.2218 H   0  0  0  0  0  0  0  0  0  0  0  0
   64.4902   34.3462   47.4821 H   0  0  0  0  0  0  0  0  0  0  0  0
   65.0787   33.0181   49.5111 H   0  0  0  0  0  0  0  0  0  0  0  0
   63.5770   31.1761   50.2782 H   0  0  0  0  0  0  0  0  0  0  0  0
   61.4787   30.6697   49.0240 H   0  0  0  0  0  0  0  0  0  0  0  0
   59.8616   34.8244   47.1246 H   0  0  0  0  0  0  0  0  0  0  0  0
   58.1477   34.3493   47.4186 H   0  0  0  0  0  0  0  0  0  0  0  0
   56.6239   27.9832   45.4050 H   0  0  0  0  0  0  0  0  0  0  0  0
  1  2  1  0
  2  3  2  0
  2  4  2  0
  2  5  1  0
  5  6  2  0
  6  7  1  0
  7  8  2  0
  8  9  1  0
  9 10  1  0
 10 11  2  3
 11 12  1  0
 12 13  1  0
 13 14  1  0
 14 15  2  0
 15 16  1  0
 16 17  2  0
 17 18  1  0
 18 19  2  0
 13 20  2  0
 20 21  1  0
 21 22  1  0
 22 23  2  0
 22 24  1  0
 20 25  1  0
  9 26  2  0
 26  5  1  0
 25 11  1  0
 19 14  1  0
  1 27  1  0
  6 28  1  0
  7 29  1  0
  8 30  1  0
 12 31  1  0
 15 32  1  0
 16 33  1  0
 17 34  1  0
 18 35  1  0
 19 36  1  0
 21 37  1  0
 21 38  1  0
 26 39  1  0
M  CHG  2   1  -1  24  -1
M  END
>  <UniqueID>  (5) 
5

>  <SMILES>  (5) 
[NH-]S(=O)(=O)c1cccc(N=c2[nH]c(-c3ccccc3)c(CC(=O)[O-])s2)c1

>  <Energy>  (5) 
81.46019418675637

>  <Genealogy>  (5) 
[NH-]S(=O)(=O)c1cccc(N=c2[nH]c(-c3ccccc3)c(CC(=O)[O-])s2)c1 (protonated)
[NH-]S(=O)(=O)c1cccc(N=c2[nH]c(-c3ccccc3)c(CC(=O)[O-])s2)c1 (3D coordinates assigned)
[NH-]S(=O)(=O)c1cccc(N=c2[nH]c(-c3ccccc3)c(CC(=O)[O-])s2)c1 (optimized conformer: 81.46019418675637 kcal/mol)

>  <smiles>  (5) 
NS(=O)(=O)c1cccc(N=c2[nH]c(-c3ccccc3)c(CC(=O)O)s2)c1

>  <score_type>  (5) 
oracle

>  <origin>  (5) 
adg

>  <m_score__min__energy>  (5) 
-12.52

>  <m_primary>  (5) 
energy

$$$$
5:0
     RDKit          3D

 47 49  0  0  1  0  0  0  0  0999 V2000
   57.8460   33.0710   43.8950 C   0  0  0  0  0  0  0  0  0  0  0  0
   57.6160   31.6290   44.8790 S   0  0  0  0  0  0  0  0  0  0  0  0
   57.7870   31.9640   46.3370 O   0  0  0  0  0  0  0  0  0  0  0  0
   56.1860   31.2030   44.7170 O   0  0  0  0  0  0  0  0  0  0  0  0
   58.6400   30.3210   44.4330 N   0  0  0  0  0  0  0  0  0  0  0  0
   59.2230   29.4290   45.3760 C   0  0  0  0  0  0  0  0  0  0  0  0
   60.1770   28.5410   44.8770 C   0  0  0  0  0  0  0  0  0  0  0  0
   60.7690   27.6530   45.7680 C   0  0  0  0  0  0  0  0  0  0  0  0
   60.4430   27.6310   47.1080 C   0  0  0  0  0  0  0  0  0  0  0  0
   59.5000   28.5110   47.6010 C   0  0  0  0  0  0  0  0  0  0  0  0
   59.1110   28.5490   48.9690 N   0  0  0  0  0  0  0  0  0  0  0  0
   59.0400   29.6630   49.5970 C   0  0  0  0  0  0  0  0  0  0  0  0
   58.1400   29.7690   50.6050 N   0  0  0  0  0  0  0  0  0  0  0  0
   57.9970   30.9040   51.3190 C   0  0  0  0  0  0  0  0  0  0  0  0
   58.7850   31.9960   51.0210 C   0  0  0  0  0  0  0  0  0  0  0  0
   58.6500   33.5010   51.9080 Cl  0  0  0  0  0  0  0  0  0  0  0  0
   59.7080   31.8710   49.9770 C   0  0  0  0  0  0  0  0  0  0  0  0
   60.4490   32.9010   49.7000 N   0  0  0  0  0  0  0  0  0  0  0  0
   60.3760   33.5250   48.4230 C   0  0  0  0  0  0  0  0  0  0  0  0
   59.4800   34.5820   48.2360 C   0  0  0  0  0  0  0  0  0  0  0  0
   59.3540   35.2310   47.0380 C   0  0  0  0  0  0  0  0  0  0  0  0
   60.1240   34.8440   45.9750 C   0  0  0  0  0  0  0  0  0  0  0  0
   61.0030   33.8070   46.1570 C   0  0  0  0  0  0  0  0  0  0  0  0
   61.1550   33.1310   47.3520 C   0  0  0  0  0  0  0  0  0  0  0  0
   62.2880   31.8130   47.5440 S   0  0  0  0  0  0  0  0  0  0  0  0
   63.8120   32.2490   46.8790 N   0  0  0  0  0  0  0  0  0  0  0  0
   61.7940   30.6280   46.7390 O   0  0  0  0  0  0  0  0  0  0  0  0
   62.5060   31.4460   48.9700 O   0  0  0  0  0  0  0  0  0  0  0  0
   59.8170   30.7170   49.2920 N   0  0  0  0  0  0  0  0  0  0  0  0
   58.9090   29.3980   46.7060 C   0  0  0  0  0  0  0  0  0  0  0  0
   57.9852   33.9436   44.5501 H   0  0  0  0  0  0  0  0  0  0  0  0
   58.7352   32.9436   43.2601 H   0  0  0  0  0  0  0  0  0  0  0  0
   56.9613   33.2266   43.2601 H   0  0  0  0  0  0  0  0  0  0  0  0
   58.8700   30.1380   43.4270 H   0  0  0  0  0  0  0  0  0  0  0  0
   60.4520   28.5436   43.8119 H   0  0  0  0  0  0  0  0  0  0  0  0
   61.5220   26.9448   45.3920 H   0  0  0  0  0  0  0  0  0  0  0  0
   60.9333   26.9138   47.7827 H   0  0  0  0  0  0  0  0  0  0  0  0
   57.5220   28.9590   50.8620 H   0  0  0  0  0  0  0  0  0  0  0  0
   57.2582   30.9584   52.1321 H   0  0  0  0  0  0  0  0  0  0  0  0
   58.8543   34.9031   49.0818 H   0  0  0  0  0  0  0  0  0  0  0  0
   58.6379   36.0590   46.9300 H   0  0  0  0  0  0  0  0  0  0  0  0
   60.0403   35.3503   45.0020 H   0  0  0  0  0  0  0  0  0  0  0  0
   61.6222   33.4959   45.3027 H   0  0  0  0  0  0  0  0  0  0  0  0
   64.2760   31.4920   46.3470 H   0  0  0  0  0  0  0  0  0  0  0  0
   64.4100   32.7120   47.5790 H   0  0  0  0  0  0  0  0  0  0  0  0
   60.5090   30.6350   48.5160 H   0  0  0  0  0  0  0  0  0  0  0  0
   58.1564   30.1049   47.0855 H   0  0  0  0  0  0  0  0  0  0  0  0
  1  2  1  0
  2  3  2  0
  2  4  2  0
  2  5  1  0
  5  6  1  0
  6  7  2  0
  7  8  1  0
  8  9  2  0
  9 10  1  0
 10 11  1  0
 11 12  2  0
 12 13  1  0
 13 14  1  0
 14 15  2  0
 15 16  1  0
 15 17  1  0
 17 18  2  0
 18 19  1  0
 19 20  2  0
 20 21  1  0
 21 22  2  0
 22 23  1  0
 23 24  2  0
 24 25  1  0
 25 26  1  0
 25 27  2  0
 25 28  2  0
 17 29  1  0
 10 30  2  0
 30  6  1  0
 29 12  1  0
 24 19  1  0
  1 31  1  0
  1 32  1  0
  1 33  1  0
  5 34  1  0
  7 35  1  0
  8 36  1  0
  9 37  1  0
 13 38  1  0
 14 39  1  0
 20 40  1  0
 21 41  1  0
 22 42  1  0
 23 43  1  0
 26 44  1  0
 26 45  1  0
 29 46  1  0
 30 47  1  0
M  END
>  <smiles>  (6) 
CS(=O)(=O)Nc1cccc(N=c2[nH]cc(Cl)c(=Nc3ccccc3S(N)(=O)=O)[nH]2)c1

>  <score_type>  (6) 
oracle

>  <origin>  (6) 
adg

>  <m_score__min__energy>  (6) 
-8.9800000000000004

>  <m_primary>  (6) 
energy

$$$$
6:0
     RDKit          3D

 63 66  0  0  0  0  0  0  0  0999 V2000
   51.4680   31.8290   50.5970 C   0  0  0  0  0  0  0  0  0  0  0  0
   52.1970   30.9050   51.5230 C   0  0  0  0  0  0  0  0  0  0  0  0
   51.5200   29.8510   52.1510 C   0  0  0  0  0  0  0  0  0  0  0  0
   52.2240   28.9870   52.9950 C   0  0  0  0  0  0  0  0  0  0  0  0
   53.5570   29.1610   53.1930 N   0  0  0  0  0  0  0  0  0  0  0  0
   54.2450   30.1640   52.5820 C   0  0  0  0  0  0  0  0  0  0  0  0
   55.9700   30.3270   52.8720 S   0  0  0  0  0  0  0  0  0  0  0  0
   56.6680   29.1110   52.3310 O   0  0  0  0  0  0  0  0  0  0  0  0
   56.2260   30.4330   54.3510 O   0  0  0  0  0  0  0  0  0  0  0  0
   56.5560   31.7490   52.0690 N   0  0  0  0  0  0  0  0  0  0  0  0
   57.7960   31.8070   51.3380 C   0  0  0  0  0  0  0  0  0  0  0  0
   58.5060   33.0160   51.2870 C   0  0  0  0  0  0  0  0  0  0  0  0
   59.7180   33.1010   50.5950 C   0  0  0  0  0  0  0  0  0  0  0  0
   60.2440   31.9740   49.9480 C   0  0  0  0  0  0  0  0  0  0  0  0
   61.5450   32.0560   49.1920 C   0  0  0  0  0  0  0  0  0  0  0  0
   61.3160   31.8960   47.7390 N   0  0  0  0  0  0  0  0  0  0  0  0
   60.2410   32.8020   47.2500 C   0  0  0  0  0  0  0  0  0  0  0  0
   58.8750   32.1040   47.1530 C   0  0  0  0  0  0  0  0  0  0  0  0
   58.9220   30.8820   46.1970 C   0  0  0  0  0  0  0  0  0  0  0  0
   58.3020   31.1970   44.8230 C   0  0  0  0  0  0  0  0  0  0  0  0
   56.8780   30.8650   44.8030 N   0  0  0  0  0  0  0  0  0  0  0  0
   56.3520   29.5340   44.8510 C   0  0  0  0  0  0  0  0  0  0  0  0
   55.1260   29.3590   44.6210 O   0  0  0  0  0  0  0  0  0  0  0  0
   57.2000   28.3640   45.1540 C   0  0  0  0  0  0  0  0  0  0  0  0
   58.4550   28.2280   44.5410 C   0  0  0  0  0  0  0  0  0  0  0  0
   59.2480   27.1060   44.7990 C   0  0  0  0  0  0  0  0  0  0  0  0
   58.7930   26.1040   45.6640 C   0  0  0  0  0  0  0  0  0  0  0  0
   59.8190   24.7060   45.9640 Cl  0  0  0  0  0  0  0  0  0  0  0  0
   57.5260   26.2220   46.2640 C   0  0  0  0  0  0  0  0  0  0  0  0
   56.9030   24.9750   47.3390 Cl  0  0  0  0  0  0  0  0  0  0  0  0
   56.7310   27.3450   46.0000 C   0  0  0  0  0  0  0  0  0  0  0  0
   60.3500   30.3040   46.0600 C   0  0  0  0  0  0  0  0  0  0  0  0
   61.1190   30.4650   47.3760 C   0  0  0  0  0  0  0  0  0  0  0  0
   59.5350   30.7680   49.9880 C   0  0  0  0  0  0  0  0  0  0  0  0
   58.3230   30.6810   50.6780 C   0  0  0  0  0  0  0  0  0  0  0  0
   53.5770   31.0480   51.7240 C   0  0  0  0  0  0  0  0  0  0  0  0
   50.8923   32.5587   51.1853 H   0  0  0  0  0  0  0  0  0  0  0  0
   52.1932   32.3598   49.9627 H   0  0  0  0  0  0  0  0  0  0  0  0
   50.7830   31.2472   49.9627 H   0  0  0  0  0  0  0  0  0  0  0  0
   50.4431   29.7046   51.9812 H   0  0  0  0  0  0  0  0  0  0  0  0
   51.6973   28.1640   53.5002 H   0  0  0  0  0  0  0  0  0  0  0  0
   55.9490   32.6010   52.1060 H   0  0  0  0  0  0  0  0  0  0  0  0
   58.1055   33.9051   51.7960 H   0  0  0  0  0  0  0  0  0  0  0  0
   60.2614   34.0567   50.5581 H   0  0  0  0  0  0  0  0  0  0  0  0
   62.0101   33.0352   49.3787 H   0  0  0  0  0  0  0  0  0  0  0  0
   62.2064   31.2476   49.5371 H   0  0  0  0  0  0  0  0  0  0  0  0
   60.1538   33.6511   47.9439 H   0  0  0  0  0  0  0  0  0  0  0  0
   60.5187   33.1306   46.2376 H   0  0  0  0  0  0  0  0  0  0  0  0
   58.5776   31.7615   48.1551 H   0  0  0  0  0  0  0  0  0  0  0  0
   58.1485   32.8259   46.7517 H   0  0  0  0  0  0  0  0  0  0  0  0
   58.3014   30.0999   46.6588 H   0  0  0  0  0  0  0  0  0  0  0  0
   58.4246   32.2692   44.6102 H   0  0  0  0  0  0  0  0  0  0  0  0
   58.8140   30.5921   44.0601 H   0  0  0  0  0  0  0  0  0  0  0  0
   58.8164   29.0077   43.8544 H   0  0  0  0  0  0  0  0  0  0  0  0
   60.2337   27.0102   44.3202 H   0  0  0  0  0  0  0  0  0  0  0  0
   55.7342   27.4294   46.4575 H   0  0  0  0  0  0  0  0  0  0  0  0
   60.2860   29.2357   45.8058 H   0  0  0  0  0  0  0  0  0  0  0  0
   60.8816   30.8496   45.2665 H   0  0  0  0  0  0  0  0  0  0  0  0
   60.5542   29.9699   48.1796 H   0  0  0  0  0  0  0  0  0  0  0  0
   62.1116   30.0090   47.2460 H   0  0  0  0  0  0  0  0  0  0  0  0
   59.9347   29.8822   49.4726 H   0  0  0  0  0  0  0  0  0  0  0  0
   57.7772   29.7263   50.7056 H   0  0  0  0  0  0  0  0  0  0  0  0
   54.1314   31.8483   51.2120 H   0  0  0  0  0  0  0  0  0  0  0  0
  1  2  1  0
  2  3  2  0
  3  4  1  0
  4  5  2  0
  5  6  1  0
  6  7  1  0
  7  8  2  0
  7  9  2  0
  7 10  1  0
 10 11  1  0
 11 12  2  0
 12 13  1  0
 13 14  2  0
 14 15  1  0
 15 16  1  0
 16 17  1  0
 17 18  1  0
 18 19  1  0
 19 20  1  0
 20 21  1  0
 21 22  1  0
 22 23  2  0
 22 24  1  0
 24 25  2  0
 25 26  1  0
 26 27  2  0
 27 28  1  0
 27 29  1  0
 29 30  1  0
 29 31  2  0
 19 32  1  0
 32 33  1  0
 14 34  1  0
 34 35  2  0
  6 36  2  0
 36  2  1  0
 35 11  1  0
 33 16  1  0
 31 24  1  0
  1 37  1  0
  1 38  1  0
  1 39  1  0
  3 40  1  0
  4 41  1  0
 10 42  1  0
 12 43  1  0
 13 44  1  0
 15 45  1  0
 15 46  1  0
 17 47  1  0
 17 48  1  0
 18 49  1  0
 18 50  1  0
 19 51  1  0
 20 52  1  0
 20 53  1  0
 25 54  1  0
 26 55  1  0
 31 56  1  0
 32 57  1  0
 32 58  1  0
 33 59  1  0
 33 60  1  0
 34 61  1  0
 35 62  1  0
 36 63  1  0
M  CHG  1  21  -1
M  END
>  <UniqueID>  (7) 
6

>  <SMILES>  (7) 
Cc1ccnc(S(=O)(=O)Nc2ccc(CN3CCC(C[N-]C(=O)c4ccc(Cl)c(Cl)c4)CC3)cc2)c1

>  <Energy>  (7) 
82.30015159754727

>  <Genealogy>  (7) 
Cc1ccnc(S(=O)(=O)Nc2ccc(CN3CCC(C[N-]C(=O)c4ccc(Cl)c(Cl)c4)CC3)cc2)c1 (protonated)
Cc1ccnc(S(=O)(=O)Nc2ccc(CN3CCC(C[N-]C(=O)c4ccc(Cl)c(Cl)c4)CC3)cc2)c1 (3D coordinates assigned)
Cc1ccnc(S(=O)(=O)Nc2ccc(CN3CCC(C[N-]C(=O)c4ccc(Cl)c(Cl)c4)CC3)cc2)c1 (nonaromatic ring conformer: 82.30015159754727 kcal/mol)

>  <smiles>  (7) 
Cc1ccnc(S(=O)(=O)Nc2ccc(CN3CCC(CNC(=O)c4ccc(Cl)c(Cl)c4)CC3)cc2)c1

>  <score_type>  (7) 
oracle

>  <origin>  (7) 
adg

>  <m_score__min__energy>  (7) 
-11.52

>  <m_primary>  (7) 
energy

$$$$
7:0
     RDKit          3D

 27 28  0  0  0  0  0  0  0  0999 V2000
   62.3000   33.1760   46.9440 C   0  0  0  0  0  0  0  0  0  0  0  0
   61.5810   32.2140   46.8440 C   0  0  0  0  0  0  0  0  0  0  0  0
   60.7360   31.0900   46.7280 C   0  0  0  0  0  0  0  0  0  0  0  0
   60.0160   30.1280   46.6380 C   0  0  0  0  0  0  0  0  0  0  0  0
   59.1500   28.9800   46.5480 C   0  0  0  0  0  0  0  0  0  0  0  0
   59.5210   27.7370   47.0500 C   0  0  0  0  0  0  0  0  0  0  0  0
   58.2430   26.6680   46.8270 S   0  0  0  0  0  0  0  0  0  0  0  0
   57.2130   27.7740   46.0950 C   0  0  0  0  0  0  0  0  0  0  0  0
   55.9110   27.4520   45.6040 N   0  0  0  0  0  0  0  0  0  0  0  0
   57.8490   29.0110   45.9980 C   0  0  0  0  0  0  0  0  0  0  0  0
   57.2120   30.2240   45.4360 C   0  0  0  0  0  0  0  0  0  0  0  0
   56.1260   30.1030   44.8080 O   0  0  0  0  0  0  0  0  0  0  0  0
   57.8060   31.5710   45.6060 C   0  0  0  0  0  0  0  0  0  0  0  0
   58.3910   32.2460   44.5180 C   0  0  0  0  0  0  0  0  0  0  0  0
   58.9590   33.5130   44.6930 C   0  0  0  0  0  0  0  0  0  0  0  0
   58.9400   34.1220   45.9500 C   0  0  0  0  0  0  0  0  0  0  0  0
   59.6570   35.7090   46.1680 Cl  0  0  0  0  0  0  0  0  0  0  0  0
   58.3470   33.4670   47.0340 C   0  0  0  0  0  0  0  0  0  0  0  0
   57.7790   32.2010   46.8630 C   0  0  0  0  0  0  0  0  0  0  0  0
   62.9563   34.0541   47.0353 H   0  0  0  0  0  0  0  0  0  0  0  0
   60.4880   27.4943   47.5147 H   0  0  0  0  0  0  0  0  0  0  0  0
   55.7240   26.5060   45.2040 H   0  0  0  0  0  0  0  0  0  0  0  0
   55.1400   28.1560   45.6010 H   0  0  0  0  0  0  0  0  0  0  0  0
   58.4017   31.7747   43.5241 H   0  0  0  0  0  0  0  0  0  0  0  0
   59.4212   34.0302   43.8393 H   0  0  0  0  0  0  0  0  0  0  0  0
   58.3274   33.9486   48.0228 H   0  0  0  0  0  0  0  0  0  0  0  0
   57.3076   31.6940   47.7178 H   0  0  0  0  0  0  0  0  0  0  0  0
  1  2  3  0
  2  3  1  0
  3  4  3  0
  4  5  1  0
  5  6  2  0
  6  7  1  0
  7  8  1  0
  8  9  1  0
  8 10  2  0
 10 11  1  0
 11 12  2  0
 11 13  1  0
 13 14  2  0
 14 15  1  0
 15 16  2  0
 16 17  1  0
 16 18  1  0
 18 19  2  0
 10  5  1  0
 19 13  1  0
  1 20  1  0
  6 21  1  0
  9 22  1  0
  9 23  1  0
 14 24  1  0
 15 25  1  0
 18 26  1  0
 19 27  1  0
M  END
>  <UniqueID>  (8) 
7

>  <SMILES>  (8) 
C#CC#Cc1csc(N)c1C(=O)c1ccc(Cl)cc1

>  <Energy>  (8) 
55.45108828384136

>  <Genealogy>  (8) 
C#CC#Cc1csc(N)c1C(=O)c1ccc(Cl)cc1 (3D coordinates assigned)
C#CC#Cc1csc(N)c1C(=O)c1ccc(Cl)cc1 (optimized conformer: 55.45108828384136 kcal/mol)

>  <smiles>  (8) 
C#CC#Cc1csc(N)c1C(=O)c1ccc(Cl)cc1

>  <score_type>  (8) 
oracle

>  <origin>  (8) 
adg

>  <m_score__min__energy>  (8) 
-6.71

>  <m_primary>  (8) 
energy

$$$$
8:0
     RDKit          3D

 42 44  0  0  0  0  0  0  0  0999 V2000
   59.6230   32.6620   49.3530 C   0  0  0  0  0  0  0  0  0  0  0  0
   58.7880   31.8450   50.3020 C   0  0  0  0  0  0  0  0  0  0  0  0
   57.8520   32.5000   51.1180 C   0  0  0  0  0  0  0  0  0  0  0  0
   57.0210   31.7730   51.9720 C   0  0  0  0  0  0  0  0  0  0  0  0
   57.1020   30.3730   52.0210 C   0  0  0  0  0  0  0  0  0  0  0  0
   56.2120   29.5920   52.9140 C   0  0  0  0  0  0  0  0  0  0  0  0
   56.6050   29.2990   54.0740 O   0  0  0  0  0  0  0  0  0  0  0  0
   54.8890   29.2010   52.5200 N   0  0  0  0  0  0  0  0  0  0  0  0
   53.7720   30.0790   52.3150 C   0  0  0  0  0  0  0  0  0  0  0  0
   52.8890   30.4090   53.3600 C   0  0  0  0  0  0  0  0  0  0  0  0
   51.8200   31.2790   53.1290 C   0  0  0  0  0  0  0  0  0  0  0  0
   51.6330   31.8390   51.8610 C   0  0  0  0  0  0  0  0  0  0  0  0
   50.5690   32.7030   51.6330 O   0  0  0  0  0  0  0  0  0  0  0  0
   52.5210   31.5330   50.8260 C   0  0  0  0  0  0  0  0  0  0  0  0
   53.5920   30.6620   51.0550 C   0  0  0  0  0  0  0  0  0  0  0  0
   58.0620   29.7170   51.2350 C   0  0  0  0  0  0  0  0  0  0  0  0
   58.9230   30.4400   50.4000 C   0  0  0  0  0  0  0  0  0  0  0  0
   59.8850   29.7140   49.6250 N   0  0  0  0  0  0  0  0  0  0  0  0
   59.5680   28.9630   48.4490 C   0  0  0  0  0  0  0  0  0  0  0  0
   59.8470   27.7350   48.3850 O   0  0  0  0  0  0  0  0  0  0  0  0
   58.8870   29.6170   47.3220 C   0  0  0  0  0  0  0  0  0  0  0  0
   57.9460   29.0260   46.4990 C   0  0  0  0  0  0  0  0  0  0  0  0
   57.5760   30.0000   45.5910 C   0  0  0  0  0  0  0  0  0  0  0  0
   56.5940   29.8550   44.5060 C   0  0  0  0  0  0  0  0  0  0  0  0
   55.3060   29.3070   44.7750 N   0  0  0  0  0  0  0  0  0  0  0  0
   56.8880   30.2140   43.3350 O   0  0  0  0  0  0  0  0  0  0  0  0
   58.3030   31.1370   45.8950 C   0  0  0  0  0  0  0  0  0  0  0  0
   59.0990   30.8960   46.9520 N   0  0  0  0  0  0  0  0  0  0  0  0
   60.2938   33.3183   49.9268 H   0  0  0  0  0  0  0  0  0  0  0  0
   60.2209   31.9904   48.7193 H   0  0  0  0  0  0  0  0  0  0  0  0
   58.9646   33.2743   48.7193 H   0  0  0  0  0  0  0  0  0  0  0  0
   57.7727   33.5966   51.0840 H   0  0  0  0  0  0  0  0  0  0  0  0
   56.2978   32.3011   52.6108 H   0  0  0  0  0  0  0  0  0  0  0  0
   53.0407   29.9808   54.3618 H   0  0  0  0  0  0  0  0  0  0  0  0
   51.1247   31.5237   53.9455 H   0  0  0  0  0  0  0  0  0  0  0  0
   52.3778   31.9775   49.8300 H   0  0  0  0  0  0  0  0  0  0  0  0
   54.2959   30.4343   50.2410 H   0  0  0  0  0  0  0  0  0  0  0  0
   58.1392   28.6205   51.2753 H   0  0  0  0  0  0  0  0  0  0  0  0
   57.5697   27.9939   46.5554 H   0  0  0  0  0  0  0  0  0  0  0  0
   55.1430   28.7060   45.6120 H   0  0  0  0  0  0  0  0  0  0  0  0
   58.2397   32.0929   45.3544 H   0  0  0  0  0  0  0  0  0  0  0  0
   59.7550   31.5770   47.3950 H   0  0  0  0  0  0  0  0  0  0  0  0
  1  2  1  0
  2  3  2  0
  3  4  1  0
  4  5  2  0
  5  6  1  0
  6  7  2  0
  6  8  1  0
  8  9  1  0
  9 10  2  0
 10 11  1  0
 11 12  2  0
 12 13  1  0
 12 14  1  0
 14 15  2  0
  5 16  1  0
 16 17  2  0
 17 18  1  0
 18 19  1  0
 19 20  2  0
 19 21  1  0
 21 22  2  0
 22 23  1  0
 23 24  1  0
 24 25  1  0
 24 26  2  0
 23 27  2  0
 27 28  1  0
 17  2  1  0
 28 21  1  0
 15  9  1  0
  1 29  1  0
  1 30  1  0
  1 31  1  0
  3 32  1  0
  4 33  1  0
 10 34  1  0
 11 35  1  0
 14 36  1  0
 15 37  1  0
 16 38  1  0
 22 39  1  0
 25 40  1  0
 27 41  1  0
 28 42  1  0
M  CHG  4   8  -1  13  -1  18  -1  25  -1
M  END
>  <UniqueID>  (9) 
8

>  <SMILES>  (9) 
Cc1ccc(C(=O)[N-]c2ccc([O-])cc2)cc1[N-]C(=O)c1cc(C([NH-])=O)c[nH]1

>  <Energy>  (9) 
81.48175434363085

>  <Genealogy>  (9) 
Cc1ccc(C(=O)[N-]c2ccc([O-])cc2)cc1[N-]C(=O)c1cc(C([NH-])=O)c[nH]1 (protonated)
Cc1ccc(C(=O)[N-]c2ccc([O-])cc2)cc1[N-]C(=O)c1cc(C([NH-])=O)c[nH]1 (3D coordinates assigned)
Cc1ccc(C(=O)[N-]c2ccc([O-])cc2)cc1[N-]C(=O)c1cc(C([NH-])=O)c[nH]1 (optimized conformer: 81.48175434363085 kcal/mol)

>  <smiles>  (9) 
Cc1ccc(C(=O)Nc2ccc(O)cc2)cc1NC(=O)c1cc(C(N)=O)c[nH]1

>  <score_type>  (9) 
oracle

>  <origin>  (9) 
adg

>  <m_score__min__energy>  (9) 
-16.52

>  <m_primary>  (9) 
energy

$$$$
9:0
     RDKit          3D

 56 59  0  0  0  0  0  0  0  0999 V2000
   55.2100   29.2920   44.8320 N   0  0  0  0  0  0  0  0  0  0  0  0
   56.8890   29.5140   44.4920 S   0  0  0  0  0  0  0  0  0  0  0  0
   57.3460   28.4650   43.5180 O   0  0  0  0  0  0  0  0  0  0  0  0
   57.1020   30.8690   43.8760 O   0  0  0  0  0  0  0  0  0  0  0  0
   57.8140   29.3810   45.9860 C   0  0  0  0  0  0  0  0  0  0  0  0
   57.9160   28.1500   46.6460 C   0  0  0  0  0  0  0  0  0  0  0  0
   58.6630   28.0410   47.8240 C   0  0  0  0  0  0  0  0  0  0  0  0
   59.3320   29.1630   48.3440 C   0  0  0  0  0  0  0  0  0  0  0  0
   60.1010   29.0830   49.5550 N   0  0  0  0  0  0  0  0  0  0  0  0
   60.7620   27.8900   50.0090 C   0  0  0  0  0  0  0  0  0  0  0  0
   60.6880   26.8200   49.3470 O   0  0  0  0  0  0  0  0  0  0  0  0
   61.6250   27.9370   51.2340 C   0  0  0  0  0  0  0  0  0  0  0  0
   62.5790   29.0490   51.1330 N   0  0  0  0  0  0  0  0  0  0  0  0
   62.2120   30.1240   50.4260 N   0  0  0  0  0  0  0  0  0  0  0  0
   63.0000   31.2240   50.2870 C   0  0  0  0  0  0  0  0  0  0  0  0
   62.5140   32.3700   49.5520 N   0  0  0  0  0  0  0  0  0  0  0  0
   61.3540   33.1340   50.0440 C   0  0  0  0  0  0  0  0  0  0  0  0
   60.7970   34.0930   48.9810 C   0  0  0  0  0  0  0  0  0  0  0  0
   60.7630   33.4450   47.6600 N   0  0  0  0  0  0  0  0  0  0  0  0
   59.6890   33.7280   46.7370 C   0  0  0  0  0  0  0  0  0  0  0  0
   58.3490   33.5350   47.1200 C   0  0  0  0  0  0  0  0  0  0  0  0
   57.3110   33.7960   46.2210 C   0  0  0  0  0  0  0  0  0  0  0  0
   57.5970   34.2490   44.9310 C   0  0  0  0  0  0  0  0  0  0  0  0
   58.9240   34.4430   44.5390 C   0  0  0  0  0  0  0  0  0  0  0  0
   59.9650   34.1860   45.4360 C   0  0  0  0  0  0  0  0  0  0  0  0
   61.9170   32.6550   47.2000 C   0  0  0  0  0  0  0  0  0  0  0  0
   63.0530   32.6880   48.2210 C   0  0  0  0  0  0  0  0  0  0  0  0
   64.2600   31.2230   50.9000 C   0  0  0  0  0  0  0  0  0  0  0  0
   64.6650   30.1070   51.6230 C   0  0  0  0  0  0  0  0  0  0  0  0
   63.8090   29.0120   51.7370 C   0  0  0  0  0  0  0  0  0  0  0  0
   64.1810   28.0030   52.3940 O   0  0  0  0  0  0  0  0  0  0  0  0
   59.2120   30.3960   47.6870 C   0  0  0  0  0  0  0  0  0  0  0  0
   58.4660   30.5040   46.5110 C   0  0  0  0  0  0  0  0  0  0  0  0
   55.1460   28.6130   45.6230 H   0  0  0  0  0  0  0  0  0  0  0  0
   57.4067   27.2651   46.2365 H   0  0  0  0  0  0  0  0  0  0  0  0
   58.7271   27.0743   48.3450 H   0  0  0  0  0  0  0  0  0  0  0  0
   60.3300   29.9760   50.0470 H   0  0  0  0  0  0  0  0  0  0  0  0
   60.9908   28.0804   52.1213 H   0  0  0  0  0  0  0  0  0  0  0  0
   62.1801   26.9914   51.3215 H   0  0  0  0  0  0  0  0  0  0  0  0
   60.5619   32.4278   50.3338 H   0  0  0  0  0  0  0  0  0  0  0  0
   61.6864   33.7372   50.9017 H   0  0  0  0  0  0  0  0  0  0  0  0
   59.7764   34.3908   49.2631 H   0  0  0  0  0  0  0  0  0  0  0  0
   61.4511   34.9755   48.9244 H   0  0  0  0  0  0  0  0  0  0  0  0
   58.1167   33.1763   48.1336 H   0  0  0  0  0  0  0  0  0  0  0  0
   56.2663   33.6443   46.5302 H   0  0  0  0  0  0  0  0  0  0  0  0
   56.7787   34.4527   44.2247 H   0  0  0  0  0  0  0  0  0  0  0  0
   59.1500   34.7986   43.5229 H   0  0  0  0  0  0  0  0  0  0  0  0
   61.0075   34.3431   45.1221 H   0  0  0  0  0  0  0  0  0  0  0  0
   61.6006   31.6123   47.0492 H   0  0  0  0  0  0  0  0  0  0  0  0
   62.2830   33.0899   46.2583 H   0  0  0  0  0  0  0  0  0  0  0  0
   63.8169   31.9458   47.9461 H   0  0  0  0  0  0  0  0  0  0  0  0
   63.5089   33.6890   48.2355 H   0  0  0  0  0  0  0  0  0  0  0  0
   64.9221   32.0968   50.8100 H   0  0  0  0  0  0  0  0  0  0  0  0
   65.6549   30.0877   52.1024 H   0  0  0  0  0  0  0  0  0  0  0  0
   59.7094   31.2854   48.1011 H   0  0  0  0  0  0  0  0  0  0  0  0
   58.3904   31.4731   45.9961 H   0  0  0  0  0  0  0  0  0  0  0  0
  1  2  1  0
  2  3  2  0
  2  4  2  0
  2  5  1  0
  5  6  2  0
  6  7  1  0
  7  8  2  0
  8  9  1  0
  9 10  1  0
 10 11  2  0
 10 12  1  0
 12 13  1  0
 13 14  1  0
 14 15  2  0
 15 16  1  0
 16 17  1  0
 17 18  1  0
 18 19  1  0
 19 20  1  0
 20 21  2  0
 21 22  1  0
 22 23  2  0
 23 24  1  0
 24 25  2  0
 19 26  1  0
 26 27  1  0
 15 28  1  0
 28 29  2  0
 29 30  1  0
 30 31  2  0
  8 32  1  0
 32 33  2  0
 33  5  1  0
 30 13  1  0
 27 16  1  0
 25 20  1  0
  1 34  1  0
  6 35  1  0
  7 36  1  0
  9 37  1  0
 12 38  1  0
 12 39  1  0
 17 40  1  0
 17 41  1  0
 18 42  1  0
 18 43  1  0
 21 44  1  0
 22 45  1  0
 23 46  1  0
 24 47  1  0
 25 48  1  0
 26 49  1  0
 26 50  1  0
 27 51  1  0
 27 52  1  0
 28 53  1  0
 29 54  1  0
 32 55  1  0
 33 56  1  0
M  CHG  1   1  -1
M  END
>  <UniqueID>  (10) 
9

>  <SMILES>  (10) 
[NH-]S(=O)(=O)c1ccc(NC(=O)Cn2nc(N3CCN(c4ccccc4)CC3)ccc2=O)cc1

>  <Energy>  (10) 
69.98510995922432

>  <Genealogy>  (10) 
[NH-]S(=O)(=O)c1ccc(NC(=O)Cn2nc(N3CCN(c4ccccc4)CC3)ccc2=O)cc1 (protonated)
[NH-]S(=O)(=O)c1ccc(NC(=O)Cn2nc(N3CCN(c4ccccc4)CC3)ccc2=O)cc1 (3D coordinates assigned)
[NH-]S(=O)(=O)c1ccc(NC(=O)Cn2nc(N3CCN(c4ccccc4)CC3)ccc2=O)cc1 (nonaromatic ring conformer: 69.98510995922432 kcal/mol)

>  <smiles>  (10) 
NS(=O)(=O)c1ccc(NC(=O)Cn2nc(N3CCN(c4ccccc4)CC3)ccc2=O)cc1

>  <score_type>  (10) 
oracle

>  <origin>  (10) 
adg

>  <m_score__min__energy>  (10) 
-11.4

>  <m_primary>  (10) 
energy

$$$$
10:0
     RDKit          3D

 59 62  0  0  0  0  0  0  0  0999 V2000
   55.2280   28.6650   45.6360 H   0  0  0  0  0  0  0  0  0  0  0  0
   55.1460   29.3170   44.8250 N   0  0  0  0  0  0  0  0  0  0  0  0
   56.3070   29.7990   44.1510 C   0  0  0  0  0  0  0  0  0  0  0  0
   56.5790   29.3520   43.0040 O   0  0  0  0  0  0  0  0  0  0  0  0
   57.1680   30.8380   44.7670 C   0  0  0  0  0  0  0  0  0  0  0  0
   57.3810   32.0460   44.0850 C   0  0  0  0  0  0  0  0  0  0  0  0
   56.9511   32.1898   43.0828 H   0  0  0  0  0  0  0  0  0  0  0  0
   58.1130   33.0380   44.6520 N   0  0  0  0  0  0  0  0  0  0  0  0
   58.6730   32.9160   45.8860 C   0  0  0  0  0  0  0  0  0  0  0  0
   59.3630   33.8950   46.3960 N   0  0  0  0  0  0  0  0  0  0  0  0
   60.7340   34.2190   46.0140 C   0  0  0  0  0  0  0  0  0  0  0  0
   60.8263   35.3044   45.8609 H   0  0  0  0  0  0  0  0  0  0  0  0
   60.9903   33.6967   45.0805 H   0  0  0  0  0  0  0  0  0  0  0  0
   61.6680   33.7850   47.1070 C   0  0  0  0  0  0  0  0  0  0  0  0
   61.3910   34.1080   48.4440 C   0  0  0  0  0  0  0  0  0  0  0  0
   60.4708   34.6557   48.6955 H   0  0  0  0  0  0  0  0  0  0  0  0
   62.2790   33.7370   49.4580 C   0  0  0  0  0  0  0  0  0  0  0  0
   62.0496   33.9859   50.5046 H   0  0  0  0  0  0  0  0  0  0  0  0
   63.4660   33.0460   49.1460 C   0  0  0  0  0  0  0  0  0  0  0  0
   64.3870   32.6520   50.1270 O   0  0  0  0  0  0  0  0  0  0  0  0
   65.7910   32.8680   50.0440 C   0  0  0  0  0  0  0  0  0  0  0  0
   66.2126   32.9329   51.0579 H   0  0  0  0  0  0  0  0  0  0  0  0
   66.2595   32.0314   49.5049 H   0  0  0  0  0  0  0  0  0  0  0  0
   65.9863   33.8068   49.5049 H   0  0  0  0  0  0  0  0  0  0  0  0
   63.7450   32.7400   47.8090 C   0  0  0  0  0  0  0  0  0  0  0  0
   64.6701   32.2022   47.5542 H   0  0  0  0  0  0  0  0  0  0  0  0
   62.8580   33.1120   46.7950 C   0  0  0  0  0  0  0  0  0  0  0  0
   63.0945   32.8757   45.7470 H   0  0  0  0  0  0  0  0  0  0  0  0
   58.5050   31.7200   46.6060 C   0  0  0  0  0  0  0  0  0  0  0  0
   59.1050   31.5530   47.9110 C   0  0  0  0  0  0  0  0  0  0  0  0
   59.5840   31.4190   48.9560 N   0  0  0  0  0  0  0  0  0  0  0  0
   57.7700   30.6680   46.0360 C   0  0  0  0  0  0  0  0  0  0  0  0
   57.6560   29.4620   46.7390 O   0  0  0  0  0  0  0  0  0  0  0  0
   58.4960   28.3540   46.5440 C   0  0  0  0  0  0  0  0  0  0  0  0
   59.8540   28.4920   46.2040 C   0  0  0  0  0  0  0  0  0  0  0  0
   60.2909   29.4945   46.0853 H   0  0  0  0  0  0  0  0  0  0  0  0
   60.6480   27.3600   46.0170 C   0  0  0  0  0  0  0  0  0  0  0  0
   61.7083   27.4737   45.7470 H   0  0  0  0  0  0  0  0  0  0  0  0
   60.1030   26.0830   46.1710 C   0  0  0  0  0  0  0  0  0  0  0  0
   60.7341   25.1957   46.0151 H   0  0  0  0  0  0  0  0  0  0  0  0
   58.7490   25.9270   46.5250 C   0  0  0  0  0  0  0  0  0  0  0  0
   58.1550   24.6260   46.7000 N   0  0  0  0  0  0  0  0  0  0  0  0
   58.7520   23.8520   47.0740 H   0  0  0  0  0  0  0  0  0  0  0  0
   56.7790   24.2870   46.3340 C   0  0  0  0  0  0  0  0  0  0  0  0
   56.3058   23.7477   47.1678 H   0  0  0  0  0  0  0  0  0  0  0  0
   56.2302   25.2162   46.1206 H   0  0  0  0  0  0  0  0  0  0  0  0
   56.7550   23.4160   45.1040 C   0  0  0  0  0  0  0  0  0  0  0  0
   57.6150   22.3110   44.9930 C   0  0  0  0  0  0  0  0  0  0  0  0
   58.3115   22.0743   45.8109 H   0  0  0  0  0  0  0  0  0  0  0  0
   57.5890   21.5110   43.8470 C   0  0  0  0  0  0  0  0  0  0  0  0
   58.2592   20.6423   43.7685 H   0  0  0  0  0  0  0  0  0  0  0  0
   56.7130   21.8130   42.8010 C   0  0  0  0  0  0  0  0  0  0  0  0
   56.6934   21.1813   41.9007 H   0  0  0  0  0  0  0  0  0  0  0  0
   55.8620   22.9170   42.8980 C   0  0  0  0  0  0  0  0  0  0  0  0
   55.1744   23.1552   42.0731 H   0  0  0  0  0  0  0  0  0  0  0  0
   55.8840   23.7190   44.0430 C   0  0  0  0  0  0  0  0  0  0  0  0
   55.2169   24.5908   44.1139 H   0  0  0  0  0  0  0  0  0  0  0  0
   57.9570   27.0720   46.7050 C   0  0  0  0  0  0  0  0  0  0  0  0
   56.8969   26.9602   46.9766 H   0  0  0  0  0  0  0  0  0  0  0  0
  1  2  1  0
  2  3  1  0
  3  4  2  0
  3  5  1  0
  5  6  2  0
  6  7  1  0
  6  8  1  0
  8  9  1  0
  9 10  2  0
 10 11  1  0
 11 12  1  0
 11 13  1  0
 11 14  1  0
 14 15  2  0
 15 16  1  0
 15 17  1  0
 17 18  1  0
 17 19  2  0
 19 20  1  0
 20 21  1  0
 21 22  1  0
 21 23  1  0
 21 24  1  0
 19 25  1  0
 25 26  1  0
 25 27  2  0
 27 28  1  0
  9 29  1  0
 29 30  1  0
 30 31  3  0
 29 32  2  0
 32 33  1  0
 33 34  1  0
 34 35  2  0
 35 36  1  0
 35 37  1  0
 37 38  1  0
 37 39  2  0
 39 40  1  0
 39 41  1  0
 41 42  1  0
 42 43  1  0
 42 44  1  0
 44 45  1  0
 44 46  1  0
 44 47  1  0
 47 48  2  0
 48 49  1  0
 48 50  1  0
 50 51  1  0
 50 52  2  0
 52 53  1  0
 52 54  1  0
 54 55  1  0
 54 56  2  0
 56 57  1  0
 41 58  2  0
 58 59  1  0
 32  5  1  0
 58 34  1  0
 27 14  1  0
 56 47  1  0
M  CHG  2   2  -1   8  -1
M  END
>  <UniqueID>  (11) 
10

>  <SMILES>  (11) 
COc1ccc(C/N=c2\[n-]cc(C([NH-])=O)c(Oc3cccc(NCc4ccccc4)c3)c2C#N)cc1

>  <Energy>  (11) 
73.01469604263727

>  <Genealogy>  (11) 
COc1ccc(CN=c2[n-]cc(C([NH-])=O)c(Oc3cccc(NCc4ccccc4)c3)c2C#N)cc1 (protonated)
COc1ccc(C/N=c2\[n-]cc(C([NH-])=O)c(Oc3cccc(NCc4ccccc4)c3)c2C#N)cc1 (cis-trans isomerization)
COc1ccc(C/N=c2\[n-]cc(C([NH-])=O)c(Oc3cccc(NCc4ccccc4)c3)c2C#N)cc1 (3D coordinates assigned)
COc1ccc(C/N=c2\[n-]cc(C([NH-])=O)c(Oc3cccc(NCc4ccccc4)c3)c2C#N)cc1 (optimized conformer: 73.01469604263727 kcal/mol)

>  <smiles>  (11) 
COc1ccc(CN=c2[nH]cc(C(N)=O)c(Oc3cccc(NCc4ccccc4)c3)c2C#N)cc1

>  <score_type>  (11) 
oracle

>  <origin>  (11) 
adg

>  <m_score__min__energy>  (11) 
-12.970000000000001

>  <m_primary>  (11) 
energy

$$$$
11:0
     RDKit          3D

 42 44  0  0  0  0  0  0  0  0999 V2000
   56.9944   25.6017   48.0574 H   0  0  0  0  0  0  0  0  0  0  0  0
   57.1410   25.3170   47.0050 C   0  0  0  0  0  0  0  0  0  0  0  0
   57.9060   26.1080   46.2380 C   0  0  0  0  0  0  0  0  0  0  0  0
   58.9123   25.7614   45.9600 H   0  0  0  0  0  0  0  0  0  0  0  0
   57.4480   27.4320   45.7500 C   0  0  0  0  0  0  0  0  0  0  0  0
   56.0770   27.6830   45.6340 C   0  0  0  0  0  0  0  0  0  0  0  0
   55.1440   26.7150   45.9910 O   0  0  0  0  0  0  0  0  0  0  0  0
   55.6440   28.8820   45.1810 N   0  0  0  0  0  0  0  0  0  0  0  0
   56.5080   29.8630   44.8220 C   0  0  0  0  0  0  0  0  0  0  0  0
   56.0430   30.9610   44.4150 O   0  0  0  0  0  0  0  0  0  0  0  0
   57.8630   29.6570   44.8990 N   0  0  0  0  0  0  0  0  0  0  0  0
   58.8050   30.7090   44.4630 C   0  0  0  0  0  0  0  0  0  0  0  0
   59.8162   30.2821   44.3910 H   0  0  0  0  0  0  0  0  0  0  0  0
   58.4834   31.0902   43.4826 H   0  0  0  0  0  0  0  0  0  0  0  0
   58.8170   31.8490   45.4490 C   0  0  0  0  0  0  0  0  0  0  0  0
   58.4550   33.1440   45.0380 C   0  0  0  0  0  0  0  0  0  0  0  0
   58.1406   33.3210   43.9989 H   0  0  0  0  0  0  0  0  0  0  0  0
   58.4930   34.2080   45.9450 C   0  0  0  0  0  0  0  0  0  0  0  0
   58.2051   35.2182   45.6186 H   0  0  0  0  0  0  0  0  0  0  0  0
   58.8960   33.9900   47.2650 C   0  0  0  0  0  0  0  0  0  0  0  0
   58.9330   35.0230   48.1420 F   0  0  0  0  0  0  0  0  0  0  0  0
   59.2600   32.7060   47.6800 C   0  0  0  0  0  0  0  0  0  0  0  0
   59.5765   32.5347   48.7195 H   0  0  0  0  0  0  0  0  0  0  0  0
   59.2230   31.6390   46.7780 C   0  0  0  0  0  0  0  0  0  0  0  0
   59.5128   30.6310   47.1096 H   0  0  0  0  0  0  0  0  0  0  0  0
   58.3410   28.4460   45.3420 C   0  0  0  0  0  0  0  0  0  0  0  0
   59.5840   28.2270   45.3640 O   0  0  0  0  0  0  0  0  0  0  0  0
   56.4810   24.0810   46.5180 C   0  0  0  0  0  0  0  0  0  0  0  0
   55.7300   23.3210   47.4270 C   0  0  0  0  0  0  0  0  0  0  0  0
   55.6478   23.6480   48.4740 H   0  0  0  0  0  0  0  0  0  0  0  0
   55.0860   22.1530   47.0140 C   0  0  0  0  0  0  0  0  0  0  0  0
   54.5087   21.5600   47.7387 H   0  0  0  0  0  0  0  0  0  0  0  0
   55.1720   21.7350   45.6850 C   0  0  0  0  0  0  0  0  0  0  0  0
   54.5260   20.5690   45.2900 O   0  0  0  0  0  0  0  0  0  0  0  0
   55.9000   22.4860   44.7520 C   0  0  0  0  0  0  0  0  0  0  0  0
   55.9500   22.0330   43.4240 O   0  0  0  0  0  0  0  0  0  0  0  0
   56.9220   21.1250   42.9170 C   0  0  0  0  0  0  0  0  0  0  0  0
   57.4423   20.6390   43.7555 H   0  0  0  0  0  0  0  0  0  0  0  0
   56.4243   20.3609   42.3019 H   0  0  0  0  0  0  0  0  0  0  0  0
   57.6505   21.6735   42.3019 H   0  0  0  0  0  0  0  0  0  0  0  0
   56.5500   23.6640   45.1720 C   0  0  0  0  0  0  0  0  0  0  0  0
   57.1161   24.2635   44.4439 H   0  0  0  0  0  0  0  0  0  0  0  0
  1  2  1  0
  2  3  2  0
  3  4  1  0
  3  5  1  0
  5  6  2  0
  6  7  1  0
  6  8  1  0
  8  9  1  0
  9 10  2  0
  9 11  1  0
 11 12  1  0
 12 13  1  0
 12 14  1  0
 12 15  1  0
 15 16  2  0
 16 17  1  0
 16 18  1  0
 18 19  1  0
 18 20  2  0
 20 21  1  0
 20 22  1  0
 22 23  1  0
 22 24  2  0
 24 25  1  0
 11 26  1  0
 26 27  2  0
  2 28  1  0
 28 29  2  0
 29 30  1  0
 29 31  1  0
 31 32  1  0
 31 33  2  0
 33 34  1  0
 33 35  1  0
 35 36  1  0
 36 37  1  0
 37 38  1  0
 37 39  1  0
 37 40  1  0
 35 41  2  0
 41 42  1  0
 26  5  1  0
 41 28  1  0
 24 15  1  0
M  CHG  3   7  -1   8  -1  34  -1
M  END
>  <UniqueID>  (12) 
11

>  <SMILES>  (12) 
COc1cc(/C=C/c2c([O-])[n-]c(=O)n(Cc3ccc(F)cc3)c2=O)ccc1[O-]

>  <Energy>  (12) 
56.79193916981027

>  <Genealogy>  (12) 
COc1cc(C=Cc2c([O-])[n-]c(=O)n(Cc3ccc(F)cc3)c2=O)ccc1[O-] (protonated)
COc1cc(/C=C/c2c([O-])[n-]c(=O)n(Cc3ccc(F)cc3)c2=O)ccc1[O-] (cis-trans isomerization)
COc1cc(/C=C/c2c([O-])[n-]c(=O)n(Cc3ccc(F)cc3)c2=O)ccc1[O-] (3D coordinates assigned)
COc1cc(/C=C/c2c([O-])[n-]c(=O)n(Cc3ccc(F)cc3)c2=O)ccc1[O-] (optimized conformer: 56.79193916981027 kcal/mol)

>  <smiles>  (12) 
COc1cc(C=Cc2c(O)[nH]c(=O)n(Cc3ccc(F)cc3)c2=O)ccc1O

>  <score_type>  (12) 
oracle

>  <origin>  (12) 
adg

>  <m_score__min__energy>  (12) 
-14.9

>  <m_primary>  (12) 
energy

$$$$
12:0
     RDKit          3D

 42 43  0  0  0  0  0  0  0  0999 V2000
   57.1740   22.9460   47.8140 O   0  0  0  0  0  0  0  0  0  0  0  0
   57.1220   24.0460   47.2060 C   0  0  0  0  0  0  0  0  0  0  0  0
   55.9190   24.5850   46.8830 N   0  0  0  0  0  0  0  0  0  0  0  0
   55.8290   25.7730   46.2310 C   0  0  0  0  0  0  0  0  0  0  0  0
   54.5640   26.2860   45.9440 O   0  0  0  0  0  0  0  0  0  0  0  0
   57.0050   26.4640   45.8810 C   0  0  0  0  0  0  0  0  0  0  0  0
   56.9440   27.7060   45.1630 N   0  0  0  0  0  0  0  0  0  0  0  0
   57.1060   28.9850   45.8570 C   0  0  0  0  0  0  0  0  0  0  0  0
   58.5530   29.4920   45.7880 C   0  0  0  0  0  0  0  0  0  0  0  0
   58.8670   30.3370   44.5360 C   0  0  0  0  0  0  0  0  0  0  0  0
   57.9840   31.5840   44.3510 C   0  0  0  0  0  0  0  0  0  0  0  0
   57.9090   32.4580   45.6150 C   0  0  0  0  0  0  0  0  0  0  0  0
   57.5640   33.9170   45.2920 C   0  0  0  0  0  0  0  0  0  0  0  0
   59.0510   34.9710   45.1060 S   0  0  0  0  0  0  0  0  0  0  0  0
   59.8960   34.3360   46.5570 C   0  0  0  0  0  0  0  0  0  0  0  0
   61.0760   33.5950   46.4140 C   0  0  0  0  0  0  0  0  0  0  0  0
   61.7390   33.1080   47.5450 C   0  0  0  0  0  0  0  0  0  0  0  0
   61.2290   33.3650   48.8210 C   0  0  0  0  0  0  0  0  0  0  0  0
   60.0580   34.1170   48.9670 C   0  0  0  0  0  0  0  0  0  0  0  0
   59.3950   34.6070   47.8370 C   0  0  0  0  0  0  0  0  0  0  0  0
   58.2380   25.8790   46.2150 C   0  0  0  0  0  0  0  0  0  0  0  0
   59.3220   26.4310   45.8920 O   0  0  0  0  0  0  0  0  0  0  0  0
   58.2680   24.6910   46.8720 N   0  0  0  0  0  0  0  0  0  0  0  0
   53.7200   25.9380   46.3790 H   0  0  0  0  0  0  0  0  0  0  0  0
   56.5470   27.6970   44.1970 H   0  0  0  0  0  0  0  0  0  0  0  0
   56.4451   29.7298   45.3896 H   0  0  0  0  0  0  0  0  0  0  0  0
   56.8466   28.8348   46.9154 H   0  0  0  0  0  0  0  0  0  0  0  0
   58.7453   30.1091   46.6780 H   0  0  0  0  0  0  0  0  0  0  0  0
   59.1981   28.6024   45.7394 H   0  0  0  0  0  0  0  0  0  0  0  0
   59.9140   30.6677   44.6020 H   0  0  0  0  0  0  0  0  0  0  0  0
   58.6659   29.6884   43.6706 H   0  0  0  0  0  0  0  0  0  0  0  0
   58.3979   32.1885   43.5305 H   0  0  0  0  0  0  0  0  0  0  0  0
   56.9642   31.2362   44.1294 H   0  0  0  0  0  0  0  0  0  0  0  0
   57.1350   32.0504   46.2819 H   0  0  0  0  0  0  0  0  0  0  0  0
   58.8990   32.4437   46.0942 H   0  0  0  0  0  0  0  0  0  0  0  0
   56.9938   33.9439   44.3517 H   0  0  0  0  0  0  0  0  0  0  0  0
   56.9786   34.3142   46.1344 H   0  0  0  0  0  0  0  0  0  0  0  0
   61.4816   33.3959   45.4111 H   0  0  0  0  0  0  0  0  0  0  0  0
   62.6629   32.5220   47.4304 H   0  0  0  0  0  0  0  0  0  0  0  0
   61.7479   32.9763   49.7097 H   0  0  0  0  0  0  0  0  0  0  0  0
   59.6586   34.3229   49.9710 H   0  0  0  0  0  0  0  0  0  0  0  0
   58.4795   35.2056   47.9534 H   0  0  0  0  0  0  0  0  0  0  0  0
  1  2  2  0
  2  3  1  0
  3  4  1  0
  4  5  1  0
  4  6  2  0
  6  7  1  0
  7  8  1  0
  8  9  1  0
  9 10  1  0
 10 11  1  0
 11 12  1  0
 12 13  1  0
 13 14  1  0
 14 15  1  0
 15 16  2  0
 16 17  1  0
 17 18  2  0
 18 19  1  0
 19 20  2  0
  6 21  1  0
 21 22  2  0
 21 23  1  0
 23  2  1  0
 20 15  1  0
  5 24  1  0
  7 25  1  0
  8 26  1  0
  8 27  1  0
  9 28  1  0
  9 29  1  0
 10 30  1  0
 10 31  1  0
 11 32  1  0
 11 33  1  0
 12 34  1  0
 12 35  1  0
 13 36  1  0
 13 37  1  0
 16 38  1  0
 17 39  1  0
 18 40  1  0
 19 41  1  0
 20 42  1  0
M  CHG  2   3  -1  23  -1
M  END
>  <UniqueID>  (13) 
12

>  <SMILES>  (13) 
O=c1[n-]c(O)c(NCCCCCCSc2ccccc2)c(=O)[n-]1

>  <Energy>  (13) 
36.55798808242974

>  <Genealogy>  (13) 
O=c1[n-]c(O)c(NCCCCCCSc2ccccc2)c(=O)[n-]1 (protonated)
O=c1[n-]c(O)c(NCCCCCCSc2ccccc2)c(=O)[n-]1 (3D coordinates assigned)
O=c1[n-]c(O)c(NCCCCCCSc2ccccc2)c(=O)[n-]1 (optimized conformer: 36.55798808242974 kcal/mol)

>  <smiles>  (13) 
O=c1[nH]c(O)c(NCCCCCCSc2ccccc2)c(=O)[nH]1

>  <score_type>  (13) 
oracle

>  <origin>  (13) 
adg

>  <m_score__min__energy>  (13) 
-12.109999999999999

>  <m_primary>  (13) 
energy

$$$$
13:0
     RDKit          3D

 30 31  0  0  0  0  0  0  0  0999 V2000
   56.6360   32.4600   45.2420 O   0  0  0  0  0  0  0  0  0  0  0  0
   57.7440   32.5240   44.6430 C   0  0  0  0  0  0  0  0  0  0  0  0
   57.8480   32.0300   43.2340 C   0  0  0  0  0  0  0  0  0  0  0  0
   56.6320   30.7050   42.9090 S   0  0  0  0  0  0  0  0  0  0  0  0
   57.3320   29.5520   44.1000 C   0  0  0  0  0  0  0  0  0  0  0  0
   58.7210   29.3900   44.1590 C   0  0  0  0  0  0  0  0  0  0  0  0
   59.2700   28.5050   45.0850 C   0  0  0  0  0  0  0  0  0  0  0  0
   58.4310   27.7860   45.9350 C   0  0  0  0  0  0  0  0  0  0  0  0
   57.0490   27.9610   45.8410 C   0  0  0  0  0  0  0  0  0  0  0  0
   56.5240   28.8310   44.9320 N   0  0  0  0  0  0  0  0  0  0  0  0
   55.1570   28.9780   44.8630 O   0  0  0  0  0  0  0  0  0  0  0  0
   58.8990   33.0520   45.3090 N   0  0  0  0  0  0  0  0  0  0  0  0
   58.8670   33.4890   46.7030 C   0  0  0  0  0  0  0  0  0  0  0  0
   60.2590   33.6570   47.2220 C   0  0  0  0  0  0  0  0  0  0  0  0
   60.6110   33.9220   48.5300 C   0  0  0  0  0  0  0  0  0  0  0  0
   61.9880   33.9630   48.5430 C   0  0  0  0  0  0  0  0  0  0  0  0
   62.3910   33.7170   47.2450 C   0  0  0  0  0  0  0  0  0  0  0  0
   61.3370   33.5360   46.4820 O   0  0  0  0  0  0  0  0  0  0  0  0
   57.6600   32.8668   42.5453 H   0  0  0  0  0  0  0  0  0  0  0  0
   58.8580   31.6221   43.0808 H   0  0  0  0  0  0  0  0  0  0  0  0
   59.3744   29.9570   43.4796 H   0  0  0  0  0  0  0  0  0  0  0  0
   60.3606   28.3744   45.1449 H   0  0  0  0  0  0  0  0  0  0  0  0
   58.8536   27.0877   46.6724 H   0  0  0  0  0  0  0  0  0  0  0  0
   56.3797   27.3935   46.5043 H   0  0  0  0  0  0  0  0  0  0  0  0
   59.7960   33.1320   44.7800 H   0  0  0  0  0  0  0  0  0  0  0  0
   58.3352   34.4495   46.7708 H   0  0  0  0  0  0  0  0  0  0  0  0
   58.3476   32.7296   47.3060 H   0  0  0  0  0  0  0  0  0  0  0  0
   59.9335   34.0697   49.3839 H   0  0  0  0  0  0  0  0  0  0  0  0
   62.6356   34.1532   49.4116 H   0  0  0  0  0  0  0  0  0  0  0  0
   63.4355   33.6785   46.9023 H   0  0  0  0  0  0  0  0  0  0  0  0
  1  2  2  0
  2  3  1  0
  3  4  1  0
  4  5  1  0
  5  6  2  0
  6  7  1  0
  7  8  2  0
  8  9  1  0
  9 10  2  0
 10 11  1  0
  2 12  1  0
 12 13  1  0
 13 14  1  0
 14 15  2  0
 15 16  1  0
 16 17  2  0
 17 18  1  0
 10  5  1  0
 18 14  1  0
  3 19  1  0
  3 20  1  0
  6 21  1  0
  7 22  1  0
  8 23  1  0
  9 24  1  0
 12 25  1  0
 13 26  1  0
 13 27  1  0
 15 28  1  0
 16 29  1  0
 17 30  1  0
M  CHG  2  10   1  11  -1
M  END
>  <UniqueID>  (14) 
13

>  <SMILES>  (14) 
O=C(CSc1cccc[n+]1[O-])NCc1ccco1

>  <Energy>  (14) 
46.255415254144665

>  <Genealogy>  (14) 
O=C(CSc1cccc[n+]1[O-])NCc1ccco1 (3D coordinates assigned)
O=C(CSc1cccc[n+]1[O-])NCc1ccco1 (optimized conformer: 46.255415254144665 kcal/mol)

>  <smiles>  (14) 
O=C(CSc1cccc[n+]1[O-])NCc1ccco1

>  <score_type>  (14) 
oracle

>  <origin>  (14) 
adg

>  <m_score__min__energy>  (14) 
-8.1799999999999997

>  <m_primary>  (14) 
energy

$$$$
14:0
     RDKit          3D

 72 76  0  0  0  0  0  0  0  0999 V2000
   62.7784   33.9079   51.6498 H   0  0  0  0  0  0  0  0  0  0  0  0
   62.1760   33.6650   50.7620 C   0  0  0  0  0  0  0  0  0  0  0  0
   60.9000   34.1130   50.6650 N   0  0  0  0  0  0  0  0  0  0  0  0
   60.1290   33.7930   49.5960 C   0  0  0  0  0  0  0  0  0  0  0  0
   59.1026   34.1827   49.5274 H   0  0  0  0  0  0  0  0  0  0  0  0
   60.6300   32.9690   48.5770 C   0  0  0  0  0  0  0  0  0  0  0  0
   59.7330   32.5720   47.4640 C   0  0  0  0  0  0  0  0  0  0  0  0
   58.6770   33.4060   47.0610 C   0  0  0  0  0  0  0  0  0  0  0  0
   58.5196   34.3700   47.5668 H   0  0  0  0  0  0  0  0  0  0  0  0
   57.8250   33.0210   46.0230 C   0  0  0  0  0  0  0  0  0  0  0  0
   56.9613   33.6511   45.7642 H   0  0  0  0  0  0  0  0  0  0  0  0
   58.0620   31.8360   45.3070 C   0  0  0  0  0  0  0  0  0  0  0  0
   57.1460   31.3890   44.2270 C   0  0  0  0  0  0  0  0  0  0  0  0
   57.4970   31.5480   43.0280 O   0  0  0  0  0  0  0  0  0  0  0  0
   55.8950   30.7400   44.4890 N   0  0  0  0  0  0  0  0  0  0  0  0
   55.7040   29.3350   44.8320 C   0  0  0  0  0  0  0  0  0  0  0  0
   55.1916   29.2670   45.8030 H   0  0  0  0  0  0  0  0  0  0  0  0
   55.0990   28.8587   44.0464 H   0  0  0  0  0  0  0  0  0  0  0  0
   57.0260   28.6240   44.9210 C   0  0  0  0  0  0  0  0  0  0  0  0
   57.7560   28.3200   43.7620 C   0  0  0  0  0  0  0  0  0  0  0  0
   57.3289   28.5357   42.7715 H   0  0  0  0  0  0  0  0  0  0  0  0
   59.0240   27.7440   43.8640 C   0  0  0  0  0  0  0  0  0  0  0  0
   59.5862   27.4917   42.9528 H   0  0  0  0  0  0  0  0  0  0  0  0
   59.5810   27.4870   45.1190 C   0  0  0  0  0  0  0  0  0  0  0  0
   60.5864   27.0464   45.1903 H   0  0  0  0  0  0  0  0  0  0  0  0
   58.8670   27.7870   46.2900 C   0  0  0  0  0  0  0  0  0  0  0  0
   59.4870   27.5440   47.6220 C   0  0  0  0  0  0  0  0  0  0  0  0
   59.2410   26.4650   48.2190 O   0  0  0  0  0  0  0  0  0  0  0  0
   60.3030   28.5180   48.2910 N   0  0  0  0  0  0  0  0  0  0  0  0
   59.9570   29.2740   49.2870 C   0  0  0  0  0  0  0  0  0  0  0  0
   58.8410   30.0390   49.3190 N   0  0  0  0  0  0  0  0  0  0  0  0
   58.6830   30.6230   50.5350 C   0  0  0  0  0  0  0  0  0  0  0  0
   59.6960   30.3720   51.4470 C   0  0  0  0  0  0  0  0  0  0  0  0
   60.8170   29.3400   50.7320 S   0  0  0  0  0  0  0  0  0  0  0  0
   59.6180   30.7070   52.9030 C   0  0  0  0  0  0  0  0  0  0  0  0
   59.2644   29.8235   53.4547 H   0  0  0  0  0  0  0  0  0  0  0  0
   60.6208   31.0053   53.2429 H   0  0  0  0  0  0  0  0  0  0  0  0
   58.6420   31.8900   53.1640 C   0  0  1  0  0  0  0  0  0  0  0  0
   58.4110   31.9751   54.2361 H   0  0  0  0  0  0  0  0  0  0  0  0
   59.2650   33.2030   52.8070 N   0  0  0  0  0  0  0  0  0  0  0  0
   58.2530   34.2670   52.6270 C   0  0  0  0  0  0  0  0  0  0  0  0
   57.9152   34.6221   53.6118 H   0  0  0  0  0  0  0  0  0  0  0  0
   58.6964   35.1040   52.0677 H   0  0  0  0  0  0  0  0  0  0  0  0
   57.3949   33.8660   52.0677 H   0  0  0  0  0  0  0  0  0  0  0  0
   60.1960   33.6470   53.8690 C   0  0  0  0  0  0  0  0  0  0  0  0
   59.7551   33.4367   54.8546 H   0  0  0  0  0  0  0  0  0  0  0  0
   61.1489   33.1064   53.7708 H   0  0  0  0  0  0  0  0  0  0  0  0
   60.3757   34.7278   53.7708 H   0  0  0  0  0  0  0  0  0  0  0  0
   57.3140   31.5960   52.3960 C   0  0  0  0  0  0  0  0  0  0  0  0
   56.8999   30.6458   52.7644 H   0  0  0  0  0  0  0  0  0  0  0  0
   56.6349   32.4414   52.5809 H   0  0  0  0  0  0  0  0  0  0  0  0
   57.5070   31.4880   50.8720 C   0  0  0  0  0  0  0  0  0  0  0  0
   56.6011   31.0520   50.4256 H   0  0  0  0  0  0  0  0  0  0  0  0
   57.6899   32.4961   50.4716 H   0  0  0  0  0  0  0  0  0  0  0  0
   57.5620   28.3000   46.1780 C   0  0  0  0  0  0  0  0  0  0  0  0
   56.9556   28.4488   47.0836 H   0  0  0  0  0  0  0  0  0  0  0  0
   59.1410   31.0210   45.6870 C   0  0  0  0  0  0  0  0  0  0  0  0
   59.3361   30.0863   45.1408 H   0  0  0  0  0  0  0  0  0  0  0  0
   59.9700   31.3860   46.7530 C   0  0  0  0  0  0  0  0  0  0  0  0
   60.8133   30.7388   47.0357 H   0  0  0  0  0  0  0  0  0  0  0  0
   61.9830   32.5600   48.6720 C   0  0  0  0  0  0  0  0  0  0  0  0
   62.7130   31.8640   47.5480 C   0  0  0  0  0  0  0  0  0  0  0  0
   61.9833   31.5663   46.7806 H   0  0  0  0  0  0  0  0  0  0  0  0
   63.2277   30.9869   47.9674 H   0  0  0  0  0  0  0  0  0  0  0  0
   63.7720   32.7740   46.9010 C   0  0  0  0  0  0  0  0  0  0  0  0
   64.2278   32.2394   46.0545 H   0  0  0  0  0  0  0  0  0  0  0  0
   64.5184   33.0203   47.6705 H   0  0  0  0  0  0  0  0  0  0  0  0
   63.1760   34.0900   46.3890 C   0  0  0  0  0  0  0  0  0  0  0  0
   62.8905   34.7204   47.2440 H   0  0  0  0  0  0  0  0  0  0  0  0
   63.9230   34.6176   45.7778 H   0  0  0  0  0  0  0  0  0  0  0  0
   62.2867   33.8765   45.7778 H   0  0  0  0  0  0  0  0  0  0  0  0
   62.7090   32.9180   49.7650 N   0  0  0  0  0  0  0  0  0  0  0  0
  1  2  1  0
  2  3  2  0
  3  4  1  0
  4  5  1  0
  4  6  2  0
  6  7  1  0
  7  8  2  0
  8  9  1  0
  8 10  1  0
 10 11  1  0
 10 12  2  0
 12 13  1  0
 13 14  2  0
 13 15  1  0
 15 16  1  0
 16 17  1  0
 16 18  1  0
 16 19  1  0
 19 20  2  0
 20 21  1  0
 20 22  1  0
 22 23  1  0
 22 24  2  0
 24 25  1  0
 24 26  1  0
 26 27  1  0
 27 28  2  0
 27 29  1  0
 29 30  2  0
 30 31  1  0
 31 32  1  0
 32 33  2  0
 33 34  1  0
 33 35  1  0
 35 36  1  0
 35 37  1  0
 35 38  1  0
 38 39  1  1
 38 40  1  0
 40 41  1  0
 41 42  1  0
 41 43  1  0
 41 44  1  0
 40 45  1  0
 45 46  1  0
 45 47  1  0
 45 48  1  0
 38 49  1  0
 49 50  1  0
 49 51  1  0
 49 52  1  0
 52 53  1  0
 52 54  1  0
 26 55  2  0
 55 56  1  0
 12 57  1  0
 57 58  1  0
 57 59  2  0
 59 60  1  0
  6 61  1  0
 61 62  1  0
 62 63  1  0
 62 64  1  0
 62 65  1  0
 65 66  1  0
 65 67  1  0
 65 68  1  0
 68 69  1  0
 68 70  1  0
 68 71  1  0
 61 72  2  0
 72  2  1  0
 59  7  1  0
 55 19  1  0
 34 30  1  0
 52 32  1  0
M  CHG  2  15  -1  31  -1
M  END
>  <UniqueID>  (15) 
14

>  <SMILES>  (15) 
CCCc1ncncc1-c1ccc(C(=O)[N-]Cc2cccc(C(=O)/N=c3\[n-]c4c(s3)C[C@@H](N(C)C)CC4)c2)cc1

>  <Energy>  (15) 
126.5105372937953

>  <Genealogy>  (15) 
CCCc1ncncc1-c1ccc(C(=O)[N-]Cc2cccc(C(=O)N=c3[n-]c4c(s3)CC(N(C)C)CC4)c2)cc1 (protonated)
CCCc1ncncc1-c1ccc(C(=O)[N-]Cc2cccc(C(=O)N=c3[n-]c4c(s3)C[C@@H](N(C)C)CC4)c2)cc1 (chirality)
CCCc1ncncc1-c1ccc(C(=O)[N-]Cc2cccc(C(=O)/N=c3\[n-]c4c(s3)C[C@@H](N(C)C)CC4)c2)cc1 (cis-trans isomerization)
CCCc1ncncc1-c1ccc(C(=O)[N-]Cc2cccc(C(=O)/N=c3\[n-]c4c(s3)C[C@@H](N(C)C)CC4)c2)cc1 (3D coordinates assigned)
CCCc1ncncc1-c1ccc(C(=O)[N-]Cc2cccc(C(=O)/N=c3\[n-]c4c(s3)C[C@@H](N(C)C)CC4)c2)cc1 (nonaromatic ring conformer: 126.5105372937953 kcal/mol)

>  <smiles>  (15) 
CCCc1ncncc1-c1ccc(C(=O)NCc2cccc(C(=O)N=c3[nH]c4c(s3)CC(N(C)C)CC4)c2)cc1

>  <score_type>  (15) 
oracle

>  <origin>  (15) 
adg

>  <m_score__min__energy>  (15) 
-12.73

>  <m_primary>  (15) 
energy

$$$$
15:0
     RDKit          3D

 57 61  0  0  0  0  0  0  0  0999 V2000
   62.0940   24.3550   51.7590 O   0  0  0  0  0  0  0  0  0  0  0  0
   61.9320   25.1770   52.7010 C   0  0  0  0  0  0  0  0  0  0  0  0
   62.3290   24.7840   54.0660 C   0  0  0  0  0  0  0  0  0  0  0  0
   63.5930   24.9240   54.6090 C   0  0  0  0  0  0  0  0  0  0  0  0
   63.5010   24.4460   55.8970 C   0  0  0  0  0  0  0  0  0  0  0  0
   62.1900   24.0480   56.0650 C   0  0  0  0  0  0  0  0  0  0  0  0
   61.5180   24.2640   54.9590 O   0  0  0  0  0  0  0  0  0  0  0  0
   61.3940   26.4840   52.4160 N   0  0  0  0  0  0  0  0  0  0  0  0
   60.5910   27.2080   53.4090 C   0  0  0  0  0  0  0  0  0  0  0  0
   59.4220   27.9360   52.7350 C   0  0  0  0  0  0  0  0  0  0  0  0
   59.8430   28.6690   51.5290 N   0  0  0  0  0  0  0  0  0  0  0  0
   58.9460   29.6440   50.9570 C   0  0  0  0  0  0  0  0  0  0  0  0
   58.0620   30.1830   51.6760 O   0  0  0  0  0  0  0  0  0  0  0  0
   59.0460   30.0550   49.5450 C   0  0  0  0  0  0  0  0  0  0  0  0
   58.7740   31.3190   49.0690 C   0  0  0  0  0  0  0  0  0  0  0  0
   58.9620   31.2200   47.6980 C   0  0  0  0  0  0  0  0  0  0  0  0
   58.7940   32.2980   46.6930 C   0  0  0  0  0  0  0  0  0  0  0  0
   57.6860   32.3240   45.8240 C   0  0  0  0  0  0  0  0  0  0  0  0
   57.5450   33.3500   44.8840 C   0  0  0  0  0  0  0  0  0  0  0  0
   58.5050   34.3610   44.8010 C   0  0  0  0  0  0  0  0  0  0  0  0
   59.6090   34.3480   45.6570 C   0  0  0  0  0  0  0  0  0  0  0  0
   59.7540   33.3240   46.5980 C   0  0  0  0  0  0  0  0  0  0  0  0
   59.3020   29.9530   47.3820 N   0  0  0  0  0  0  0  0  0  0  0  0
   59.3620   29.2530   48.5050 N   0  0  0  0  0  0  0  0  0  0  0  0
   59.5260   27.8010   48.5200 C   0  0  0  0  0  0  0  0  0  0  0  0
   58.8160   27.1940   47.3430 C   0  0  0  0  0  0  0  0  0  0  0  0
   59.4190   26.1630   46.6040 C   0  0  0  0  0  0  0  0  0  0  0  0
   58.7370   25.5700   45.5370 C   0  0  0  0  0  0  0  0  0  0  0  0
   57.4480   25.9950   45.2060 C   0  0  0  0  0  0  0  0  0  0  0  0
   56.8350   27.0100   45.9470 C   0  0  0  0  0  0  0  0  0  0  0  0
   55.5490   27.4260   45.6230 O   0  0  0  0  0  0  0  0  0  0  0  0
   57.5140   27.6060   47.0150 C   0  0  0  0  0  0  0  0  0  0  0  0
   61.2310   28.5590   51.0560 C   0  0  0  0  0  0  0  0  0  0  0  0
   61.7080   27.1040   51.1210 C   0  0  0  0  0  0  0  0  0  0  0  0
   64.4867   25.3325   54.1145 H   0  0  0  0  0  0  0  0  0  0  0  0
   64.3089   24.3922   56.6416 H   0  0  0  0  0  0  0  0  0  0  0  0
   61.7722   23.6155   56.9861 H   0  0  0  0  0  0  0  0  0  0  0  0
   60.1947   26.4921   54.1442 H   0  0  0  0  0  0  0  0  0  0  0  0
   61.2308   27.9517   53.9065 H   0  0  0  0  0  0  0  0  0  0  0  0
   58.6600   27.1952   52.4511 H   0  0  0  0  0  0  0  0  0  0  0  0
   59.0220   28.6679   53.4521 H   0  0  0  0  0  0  0  0  0  0  0  0
   58.4751   32.2066   49.6459 H   0  0  0  0  0  0  0  0  0  0  0  0
   56.9257   31.5314   45.8850 H   0  0  0  0  0  0  0  0  0  0  0  0
   56.6766   33.3607   44.2089 H   0  0  0  0  0  0  0  0  0  0  0  0
   58.3918   35.1675   44.0616 H   0  0  0  0  0  0  0  0  0  0  0  0
   60.3650   35.1442   45.5906 H   0  0  0  0  0  0  0  0  0  0  0  0
   60.6251   33.3198   47.2696 H   0  0  0  0  0  0  0  0  0  0  0  0
   60.5967   27.5543   48.4670 H   0  0  0  0  0  0  0  0  0  0  0  0
   59.0970   27.3977   49.4491 H   0  0  0  0  0  0  0  0  0  0  0  0
   60.4312   25.8209   46.8655 H   0  0  0  0  0  0  0  0  0  0  0  0
   59.2163   24.7674   44.9572 H   0  0  0  0  0  0  0  0  0  0  0  0
   56.9154   25.5312   44.3626 H   0  0  0  0  0  0  0  0  0  0  0  0
   57.0266   28.4000   47.5998 H   0  0  0  0  0  0  0  0  0  0  0  0
   61.2877   28.9121   50.0158 H   0  0  0  0  0  0  0  0  0  0  0  0
   61.8759   29.1734   51.7015 H   0  0  0  0  0  0  0  0  0  0  0  0
   61.2134   26.5312   50.3227 H   0  0  0  0  0  0  0  0  0  0  0  0
   62.8006   27.0964   50.9943 H   0  0  0  0  0  0  0  0  0  0  0  0
  1  2  2  0
  2  3  1  0
  3  4  2  0
  4  5  1  0
  5  6  2  0
  6  7  1  0
  2  8  1  0
  8  9  1  0
  9 10  1  0
 10 11  1  0
 11 12  1  0
 12 13  2  0
 12 14  1  0
 14 15  2  0
 15 16  1  0
 16 17  1  0
 17 18  2  0
 18 19  1  0
 19 20  2  0
 20 21  1  0
 21 22  2  0
 16 23  2  0
 23 24  1  0
 24 25  1  0
 25 26  1  0
 26 27  2  0
 27 28  1  0
 28 29  2  0
 29 30  1  0
 30 31  1  0
 30 32  2  0
 11 33  1  0
 33 34  1  0
  7  3  1  0
 34  8  1  0
 24 14  1  0
 32 26  1  0
 22 17  1  0
  4 35  1  0
  5 36  1  0
  6 37  1  0
  9 38  1  0
  9 39  1  0
 10 40  1  0
 10 41  1  0
 15 42  1  0
 18 43  1  0
 19 44  1  0
 20 45  1  0
 21 46  1  0
 22 47  1  0
 25 48  1  0
 25 49  1  0
 27 50  1  0
 28 51  1  0
 29 52  1  0
 32 53  1  0
 33 54  1  0
 33 55  1  0
 34 56  1  0
 34 57  1  0
M  CHG  1  31  -1
M  END
>  <UniqueID>  (16) 
15

>  <SMILES>  (16) 
O=C(c1ccco1)N1CCN(C(=O)c2cc(-c3ccccc3)nn2Cc2cccc([O-])c2)CC1

>  <Energy>  (16) 
124.99427663041925

>  <Genealogy>  (16) 
O=C(c1ccco1)N1CCN(C(=O)c2cc(-c3ccccc3)nn2Cc2cccc([O-])c2)CC1 (protonated)
O=C(c1ccco1)N1CCN(C(=O)c2cc(-c3ccccc3)nn2Cc2cccc([O-])c2)CC1 (3D coordinates assigned)
O=C(c1ccco1)N1CCN(C(=O)c2cc(-c3ccccc3)nn2Cc2cccc([O-])c2)CC1 (nonaromatic ring conformer: 124.99427663041925 kcal/mol)

>  <smiles>  (16) 
O=C(c1ccco1)N1CCN(C(=O)c2cc(-c3ccccc3)nn2Cc2cccc(O)c2)CC1

>  <score_type>  (16) 
oracle

>  <origin>  (16) 
adg

>  <m_score__min__energy>  (16) 
-11.949999999999999

>  <m_primary>  (16) 
energy

$$$$
16:0
     RDKit          3D

 46 48  0  0  0  0  0  0  0  0999 V2000
   54.9050   23.7330   44.2540 C   0  0  0  0  0  0  0  0  0  0  0  0
   54.0690   24.5020   45.6270 S   0  0  0  0  0  0  0  0  0  0  0  0
   54.1040   23.6080   46.8350 O   0  0  0  0  0  0  0  0  0  0  0  0
   52.6350   24.7270   45.2380 O   0  0  0  0  0  0  0  0  0  0  0  0
   54.7910   26.0390   45.9850 N   0  0  0  0  0  0  0  0  0  0  0  0
   56.1950   26.3280   46.0880 C   0  0  0  0  0  0  0  0  0  0  0  0
   57.1330   25.4060   46.5970 C   0  0  0  0  0  0  0  0  0  0  0  0
   56.7570   24.1940   47.0710 F   0  0  0  0  0  0  0  0  0  0  0  0
   58.4860   25.7530   46.6750 C   0  0  0  0  0  0  0  0  0  0  0  0
   58.9250   27.0150   46.2510 C   0  0  0  0  0  0  0  0  0  0  0  0
   60.3780   27.3850   46.3700 C   0  0  0  0  0  0  0  0  0  0  0  0
   60.7790   27.3970   47.7710 N   0  0  0  0  0  0  0  0  0  0  0  0
   60.2330   28.2920   48.7420 C   0  0  0  0  0  0  0  0  0  0  0  0
   60.2520   27.9880   49.9650 O   0  0  0  0  0  0  0  0  0  0  0  0
   59.6100   29.5030   48.2980 N   0  0  0  0  0  0  0  0  0  0  0  0
   60.2700   30.6990   47.8570 C   0  0  0  0  0  0  0  0  0  0  0  0
   61.6710   30.8290   47.8640 C   0  0  0  0  0  0  0  0  0  0  0  0
   62.2670   32.0270   47.4550 C   0  0  0  0  0  0  0  0  0  0  0  0
   61.4770   33.0880   47.0070 C   0  0  0  0  0  0  0  0  0  0  0  0
   60.0840   32.9480   46.9420 C   0  0  0  0  0  0  0  0  0  0  0  0
   59.0880   34.2710   46.3390 S   0  0  0  0  0  0  0  0  0  0  0  0
   59.7860   34.9180   45.1770 O   0  0  0  0  0  0  0  0  0  0  0  0
   58.8740   35.2950   47.4170 O   0  0  0  0  0  0  0  0  0  0  0  0
   57.5450   33.6770   45.8140 N   0  0  0  0  0  0  0  0  0  0  0  0
   57.4100   32.7250   44.9450 C   0  0  0  0  0  0  0  0  0  0  0  0
   56.6880   31.6030   45.1610 N   0  0  0  0  0  0  0  0  0  0  0  0
   56.7360   30.7710   44.0870 C   0  0  0  0  0  0  0  0  0  0  0  0
   57.4970   31.2310   43.0170 C   0  0  0  0  0  0  0  0  0  0  0  0
   58.1310   32.7350   43.4300 S   0  0  0  0  0  0  0  0  0  0  0  0
   59.4860   31.7540   47.3700 C   0  0  0  0  0  0  0  0  0  0  0  0
   57.9900   27.9400   45.7690 C   0  0  0  0  0  0  0  0  0  0  0  0
   56.6350   27.6000   45.6940 C   0  0  0  0  0  0  0  0  0  0  0  0
   55.7470   28.5090   45.2180 F   0  0  0  0  0  0  0  0  0  0  0  0
   55.6651   23.0338   44.6326 H   0  0  0  0  0  0  0  0  0  0  0  0
   54.1749   23.1842   43.6409 H   0  0  0  0  0  0  0  0  0  0  0  0
   55.3910   24.5063   43.6409 H   0  0  0  0  0  0  0  0  0  0  0  0
   59.2122   25.0288   47.0728 H   0  0  0  0  0  0  0  0  0  0  0  0
   60.9866   26.6493   45.8237 H   0  0  0  0  0  0  0  0  0  0  0  0
   60.5302   28.3875   45.9435 H   0  0  0  0  0  0  0  0  0  0  0  0
   62.2988   29.9873   48.1916 H   0  0  0  0  0  0  0  0  0  0  0  0
   63.3614   32.1335   47.4864 H   0  0  0  0  0  0  0  0  0  0  0  0
   61.9487   34.0347   46.7048 H   0  0  0  0  0  0  0  0  0  0  0  0
   56.2113   29.8044   44.0655 H   0  0  0  0  0  0  0  0  0  0  0  0
   57.6569   30.7031   42.0653 H   0  0  0  0  0  0  0  0  0  0  0  0
   58.3925   31.6444   47.3232 H   0  0  0  0  0  0  0  0  0  0  0  0
   58.3226   28.9382   45.4480 H   0  0  0  0  0  0  0  0  0  0  0  0
  1  2  1  0
  2  3  2  0
  2  4  2  0
  2  5  1  0
  5  6  1  0
  6  7  2  0
  7  8  1  0
  7  9  1  0
  9 10  2  0
 10 11  1  0
 11 12  1  0
 12 13  1  0
 13 14  2  0
 13 15  1  0
 15 16  1  0
 16 17  2  0
 17 18  1  0
 18 19  2  0
 19 20  1  0
 20 21  1  0
 21 22  2  0
 21 23  2  0
 21 24  1  0
 24 25  2  3
 25 26  1  0
 26 27  1  0
 27 28  2  0
 28 29  1  0
 20 30  2  0
 10 31  1  0
 31 32  2  0
 32 33  1  0
 32  6  1  0
 30 16  1  0
 29 25  1  0
  1 34  1  0
  1 35  1  0
  1 36  1  0
  9 37  1  0
 11 38  1  0
 11 39  1  0
 17 40  1  0
 18 41  1  0
 19 42  1  0
 27 43  1  0
 28 44  1  0
 30 45  1  0
 31 46  1  0
M  CHG  4   5  -1  12  -1  15  -1  26  -1
M  END
>  <UniqueID>  (17) 
16

>  <SMILES>  (17) 
CS(=O)(=O)[N-]c1c(F)cc(C[N-]C(=O)[N-]c2cccc(S(=O)(=O)N=c3[n-]ccs3)c2)cc1F

>  <Energy>  (17) 
84.51203694614591

>  <Genealogy>  (17) 
CS(=O)(=O)[N-]c1c(F)cc(C[N-]C(=O)[N-]c2cccc(S(=O)(=O)N=c3[n-]ccs3)c2)cc1F (protonated)
CS(=O)(=O)[N-]c1c(F)cc(C[N-]C(=O)[N-]c2cccc(S(=O)(=O)N=c3[n-]ccs3)c2)cc1F (3D coordinates assigned)
CS(=O)(=O)[N-]c1c(F)cc(C[N-]C(=O)[N-]c2cccc(S(=O)(=O)N=c3[n-]ccs3)c2)cc1F (optimized conformer: 84.51203694614591 kcal/mol)

>  <smiles>  (17) 
CS(=O)(=O)Nc1c(F)cc(CNC(=O)Nc2cccc(S(=O)(=O)N=c3[nH]ccs3)c2)cc1F

>  <score_type>  (17) 
oracle

>  <origin>  (17) 
adg

>  <m_score__min__energy>  (17) 
-14.93

>  <m_primary>  (17) 
energy

$$$$
17:0
     RDKit          3D

 27 28  0  0  0  0  0  0  0  0999 V2000
   54.0920   24.7510   45.5820 C   0  0  0  0  0  0  0  0  0  0  0  0
   54.7250   25.9700   45.9570 O   0  0  0  0  0  0  0  0  0  0  0  0
   56.0700   26.0820   46.3480 C   0  0  0  0  0  0  0  0  0  0  0  0
   56.7140   25.0740   47.0920 C   0  0  0  0  0  0  0  0  0  0  0  0
   58.0530   25.2160   47.4630 C   0  0  0  0  0  0  0  0  0  0  0  0
   58.7610   26.3640   47.1060 C   0  0  0  0  0  0  0  0  0  0  0  0
   60.0550   26.5060   47.4850 F   0  0  0  0  0  0  0  0  0  0  0  0
   58.1340   27.3710   46.3710 C   0  0  0  0  0  0  0  0  0  0  0  0
   56.7920   27.2340   45.9720 C   0  0  0  0  0  0  0  0  0  0  0  0
   56.1330   28.2800   45.2360 N   0  0  0  0  0  0  0  0  0  0  0  0
   56.7720   29.4980   44.8270 C   0  0  0  0  0  0  0  0  0  0  0  0
   58.0450   29.6860   44.8970 N   0  0  0  0  0  0  0  0  0  0  0  0
   58.3710   31.0020   44.3590 C   0  0  0  0  0  0  0  0  0  0  0  0
   57.0270   31.5940   43.9010 C   0  0  0  0  0  0  0  0  0  0  0  0
   56.0620   30.5670   44.2400 N   0  0  0  0  0  0  0  0  0  0  0  0
   53.8031   24.1947   46.4859 H   0  0  0  0  0  0  0  0  0  0  0  0
   53.1948   24.9722   44.9852 H   0  0  0  0  0  0  0  0  0  0  0  0
   54.7890   24.1444   44.9852 H   0  0  0  0  0  0  0  0  0  0  0  0
   56.1591   24.1697   47.3825 H   0  0  0  0  0  0  0  0  0  0  0  0
   58.5505   24.4210   48.0379 H   0  0  0  0  0  0  0  0  0  0  0  0
   58.6935   28.2789   46.1015 H   0  0  0  0  0  0  0  0  0  0  0  0
   55.1520   28.1230   44.9110 H   0  0  0  0  0  0  0  0  0  0  0  0
   58.8266   31.6342   45.1354 H   0  0  0  0  0  0  0  0  0  0  0  0
   59.0962   30.9411   43.5341 H   0  0  0  0  0  0  0  0  0  0  0  0
   56.8081   32.5294   44.4369 H   0  0  0  0  0  0  0  0  0  0  0  0
   57.0177   31.8493   42.8311 H   0  0  0  0  0  0  0  0  0  0  0  0
   55.0330   30.6070   44.0710 H   0  0  0  0  0  0  0  0  0  0  0  0
  1  2  1  0
  2  3  1  0
  3  4  2  0
  4  5  1  0
  5  6  2  0
  6  7  1  0
  6  8  1  0
  8  9  2  0
  9 10  1  0
 10 11  1  0
 11 12  2  0
 12 13  1  0
 13 14  1  0
 14 15  1  0
  9  3  1  0
 15 11  1  0
  1 16  1  0
  1 17  1  0
  1 18  1  0
  4 19  1  0
  5 20  1  0
  8 21  1  0
 10 22  1  0
 13 23  1  0
 13 24  1  0
 14 25  1  0
 14 26  1  0
 15 27  1  0
M  END
>  <UniqueID>  (18) 
17

>  <SMILES>  (18) 
COc1ccc(F)cc1NC1=NCCN1

>  <Energy>  (18) 
41.5209520812065

>  <Genealogy>  (18) 
COc1ccc(F)cc1NC1=NCCN1 (3D coordinates assigned)
COc1ccc(F)cc1NC1=NCCN1 (nonaromatic ring conformer: 41.5209520812065 kcal/mol)

>  <smiles>  (18) 
COc1ccc(F)cc1NC1=NCCN1

>  <score_type>  (18) 
oracle

>  <origin>  (18) 
adg

>  <m_score__min__energy>  (18) 
-5.75

>  <m_primary>  (18) 
energy

$$$$
18:0
     RDKit          3D

 53 55  0  0  0  0  0  0  0  0999 V2000
   59.9610   22.2000   44.9020 C   0  0  0  0  0  0  0  0  0  0  0  0
   58.5940   22.6930   44.4440 C   0  0  0  0  0  0  0  0  0  0  0  0
   58.1710   23.8050   45.2300 O   0  0  0  0  0  0  0  0  0  0  0  0
   59.0220   24.8540   45.6040 C   0  0  0  0  0  0  0  0  0  0  0  0
   59.9970   24.6340   46.3730 O   0  0  0  0  0  0  0  0  0  0  0  0
   58.7760   26.1830   45.1060 N   0  0  0  0  0  0  0  0  0  0  0  0
   59.6180   27.3130   45.5270 C   0  0  0  0  0  0  0  0  0  0  0  0
   58.7650   28.5710   45.7170 C   0  0  0  0  0  0  0  0  0  0  0  0
   57.8490   28.7790   44.5860 N   0  0  0  0  0  0  0  0  0  0  0  0
   56.9470   29.8940   44.6020 C   0  0  0  0  0  0  0  0  0  0  0  0
   55.7040   29.6880   44.5540 O   0  0  0  0  0  0  0  0  0  0  0  0
   57.4410   31.2770   44.6480 C   0  0  0  0  0  0  0  0  0  0  0  0
   57.8270   32.0500   43.5670 C   0  0  0  0  0  0  0  0  0  0  0  0
   58.1670   33.2820   44.0870 C   0  0  0  0  0  0  0  0  0  0  0  0
   57.9640   33.1790   45.4490 C   0  0  0  0  0  0  0  0  0  0  0  0
   58.1130   34.2850   46.4430 C   0  0  0  0  0  0  0  0  0  0  0  0
   59.6640   34.1110   47.3080 S   0  0  0  0  0  0  0  0  0  0  0  0
   60.7880   34.5580   46.4180 O   0  0  0  0  0  0  0  0  0  0  0  0
   59.6520   34.9730   48.5390 O   0  0  0  0  0  0  0  0  0  0  0  0
   59.9010   32.4250   47.7620 C   0  0  0  0  0  0  0  0  0  0  0  0
   60.9630   31.6930   47.2170 C   0  0  0  0  0  0  0  0  0  0  0  0
   61.1120   30.3360   47.5240 C   0  0  0  0  0  0  0  0  0  0  0  0
   60.2030   29.7000   48.3830 C   0  0  0  0  0  0  0  0  0  0  0  0
   60.3370   28.2340   48.6700 C   0  0  0  0  0  0  0  0  0  0  0  0
   59.1280   30.4300   48.9110 C   0  0  0  0  0  0  0  0  0  0  0  0
   58.9810   31.7870   48.6070 C   0  0  0  0  0  0  0  0  0  0  0  0
   57.5310   31.9780   45.7540 O   0  0  0  0  0  0  0  0  0  0  0  0
   57.7660   27.7920   43.5030 C   0  0  0  0  0  0  0  0  0  0  0  0
   57.7370   26.3750   44.0830 C   0  0  0  0  0  0  0  0  0  0  0  0
   59.9967   22.1871   46.0013 H   0  0  0  0  0  0  0  0  0  0  0  0
   60.1319   21.1836   44.5177 H   0  0  0  0  0  0  0  0  0  0  0  0
   60.7413   22.8734   44.5177 H   0  0  0  0  0  0  0  0  0  0  0  0
   58.6550   22.9986   43.3891 H   0  0  0  0  0  0  0  0  0  0  0  0
   57.8654   21.8776   44.5631 H   0  0  0  0  0  0  0  0  0  0  0  0
   60.1121   27.0628   46.4774 H   0  0  0  0  0  0  0  0  0  0  0  0
   60.3717   27.5063   44.7494 H   0  0  0  0  0  0  0  0  0  0  0  0
   58.1752   28.4665   46.6396 H   0  0  0  0  0  0  0  0  0  0  0  0
   59.4391   29.4381   45.7781 H   0  0  0  0  0  0  0  0  0  0  0  0
   57.8567   31.7450   42.5105 H   0  0  0  0  0  0  0  0  0  0  0  0
   58.5249   34.1621   43.5326 H   0  0  0  0  0  0  0  0  0  0  0  0
   58.0927   35.2523   45.9196 H   0  0  0  0  0  0  0  0  0  0  0  0
   57.2854   34.2390   47.1661 H   0  0  0  0  0  0  0  0  0  0  0  0
   61.6818   32.1859   46.5459 H   0  0  0  0  0  0  0  0  0  0  0  0
   61.9459   29.7650   47.0897 H   0  0  0  0  0  0  0  0  0  0  0  0
   60.3517   28.0732   49.7581 H   0  0  0  0  0  0  0  0  0  0  0  0
   59.4844   27.6950   48.2312 H   0  0  0  0  0  0  0  0  0  0  0  0
   61.2732   27.8585   48.2312 H   0  0  0  0  0  0  0  0  0  0  0  0
   58.3978   29.9332   49.5667 H   0  0  0  0  0  0  0  0  0  0  0  0
   58.1410   32.3561   49.0320 H   0  0  0  0  0  0  0  0  0  0  0  0
   56.8484   27.9660   42.9218 H   0  0  0  0  0  0  0  0  0  0  0  0
   58.6468   27.8966   42.8524 H   0  0  0  0  0  0  0  0  0  0  0  0
   56.7516   26.1965   44.5382 H   0  0  0  0  0  0  0  0  0  0  0  0
   57.9280   25.6660   43.2640 H   0  0  0  0  0  0  0  0  0  0  0  0
  1  2  1  0
  2  3  1  0
  3  4  1  0
  4  5  2  0
  4  6  1  0
  6  7  1  0
  7  8  1  0
  8  9  1  0
  9 10  1  0
 10 11  2  0
 10 12  1  0
 12 13  2  0
 13 14  1  0
 14 15  2  0
 15 16  1  0
 16 17  1  0
 17 18  2  0
 17 19  2  0
 17 20  1  0
 20 21  2  0
 21 22  1  0
 22 23  2  0
 23 24  1  0
 23 25  1  0
 25 26  2  0
 15 27  1  0
  9 28  1  0
 28 29  1  0
 29  6  1  0
 27 12  1  0
 26 20  1  0
  1 30  1  0
  1 31  1  0
  1 32  1  0
  2 33  1  0
  2 34  1  0
  7 35  1  0
  7 36  1  0
  8 37  1  0
  8 38  1  0
 13 39  1  0
 14 40  1  0
 16 41  1  0
 16 42  1  0
 21 43  1  0
 22 44  1  0
 24 45  1  0
 24 46  1  0
 24 47  1  0
 25 48  1  0
 26 49  1  0
 28 50  1  0
 28 51  1  0
 29 52  1  0
 29 53  1  0
M  END
>  <UniqueID>  (19) 
18

>  <SMILES>  (19) 
CCOC(=O)N1CCN(C(=O)c2ccc(CS(=O)(=O)c3ccc(C)cc3)o2)CC1

>  <Energy>  (19) 
72.70410027272588

>  <Genealogy>  (19) 
CCOC(=O)N1CCN(C(=O)c2ccc(CS(=O)(=O)c3ccc(C)cc3)o2)CC1 (3D coordinates assigned)
CCOC(=O)N1CCN(C(=O)c2ccc(CS(=O)(=O)c3ccc(C)cc3)o2)CC1 (nonaromatic ring conformer: 72.70410027272588 kcal/mol)

>  <smiles>  (19) 
CCOC(=O)N1CCN(C(=O)c2ccc(CS(=O)(=O)c3ccc(C)cc3)o2)CC1

>  <score_type>  (19) 
oracle

>  <origin>  (19) 
adg

>  <m_score__min__energy>  (19) 
-8.6999999999999993

>  <m_primary>  (19) 
energy

$$$$
19:0
     RDKit          3D

 39 41  0  0  0  0  0  0  0  0999 V2000
   60.1020   31.6610   46.4410 H   0  0  0  0  0  0  0  0  0  0  0  0
   59.5710   32.1120   47.1760 O   0  0  0  0  0  0  0  0  0  0  0  0
   59.2320   31.4380   48.3480 C   0  0  0  0  0  0  0  0  0  0  0  0
   58.5350   32.0970   49.3700 C   0  0  0  0  0  0  0  0  0  0  0  0
   58.2819   33.1618   49.2600 H   0  0  0  0  0  0  0  0  0  0  0  0
   58.1580   31.4080   50.5320 C   0  0  0  0  0  0  0  0  0  0  0  0
   57.3870   32.1230   51.5710 C   0  0  0  0  0  0  0  0  0  0  0  0
   57.5408   33.2088   51.6566 H   0  0  0  0  0  0  0  0  0  0  0  0
   56.5140   31.5550   52.4190 C   0  0  0  0  0  0  0  0  0  0  0  0
   55.4540   31.8252   52.3033 H   0  0  0  0  0  0  0  0  0  0  0  0
   56.8530   30.5970   53.4960 C   0  0  0  0  0  0  0  0  0  0  0  0
   57.9640   30.8650   54.2320 N   0  0  0  0  0  0  0  0  0  0  0  0
   58.3880   30.0310   55.2130 C   0  0  0  0  0  0  0  0  0  0  0  0
   59.4240   30.3090   55.8700 O   0  0  0  0  0  0  0  0  0  0  0  0
   57.7020   28.8950   55.4810 N   0  0  0  0  0  0  0  0  0  0  0  0
   56.5710   28.5790   54.7990 C   0  0  0  0  0  0  0  0  0  0  0  0
   55.9580   27.5160   55.0850 O   0  0  0  0  0  0  0  0  0  0  0  0
   56.0860   29.4400   53.7980 C   0  0  0  0  0  0  0  0  0  0  0  0
   54.8260   29.0910   53.0980 C   0  0  0  0  0  0  0  0  0  0  0  0
   54.8481   28.3036   52.3302 H   0  0  0  0  0  0  0  0  0  0  0  0
   53.6620   29.6980   53.3650 C   0  0  0  0  0  0  0  0  0  0  0  0
   53.2709   29.6398   54.3915 H   0  0  0  0  0  0  0  0  0  0  0  0
   52.8700   30.4440   52.3570 C   0  0  0  0  0  0  0  0  0  0  0  0
   52.8480   29.9620   51.0360 C   0  0  0  0  0  0  0  0  0  0  0  0
   53.4309   29.0670   50.7728 H   0  0  0  0  0  0  0  0  0  0  0  0
   52.0930   30.6090   50.0550 C   0  0  0  0  0  0  0  0  0  0  0  0
   52.0794   30.2187   49.0267 H   0  0  0  0  0  0  0  0  0  0  0  0
   51.3550   31.7510   50.3770 C   0  0  0  0  0  0  0  0  0  0  0  0
   50.6020   32.3870   49.3970 O   0  0  0  0  0  0  0  0  0  0  0  0
   51.3770   32.2500   51.6830 C   0  0  0  0  0  0  0  0  0  0  0  0
   50.6510   33.3910   52.0070 O   0  0  0  0  0  0  0  0  0  0  0  0
   52.1330   31.6050   52.6690 C   0  0  0  0  0  0  0  0  0  0  0  0
   52.1522   32.0062   53.6931 H   0  0  0  0  0  0  0  0  0  0  0  0
   58.5360   30.0630   50.6890 C   0  0  0  0  0  0  0  0  0  0  0  0
   58.2766   29.5244   51.6124 H   0  0  0  0  0  0  0  0  0  0  0  0
   59.2410   29.4080   49.6740 C   0  0  0  0  0  0  0  0  0  0  0  0
   59.5270   28.3530   49.7974 H   0  0  0  0  0  0  0  0  0  0  0  0
   59.5830   30.0910   48.5030 C   0  0  0  0  0  0  0  0  0  0  0  0
   60.2750   29.4290   47.4950 O   0  0  0  0  0  0  0  0  0  0  0  0
  1  2  1  0
  2  3  1  0
  3  4  2  0
  4  5  1  0
  4  6  1  0
  6  7  1  0
  7  8  1  0
  7  9  2  3
  9 10  1  0
  9 11  1  0
 11 12  1  0
 12 13  1  0
 13 14  2  0
 13 15  1  0
 15 16  1  0
 16 17  2  0
 16 18  1  0
 18 19  1  0
 19 20  1  0
 19 21  2  0
 21 22  1  0
 21 23  1  0
 23 24  2  0
 24 25  1  0
 24 26  1  0
 26 27  1  0
 26 28  2  0
 28 29  1  0
 28 30  1  0
 30 31  1  0
 30 32  2  0
 32 33  1  0
  6 34  2  0
 34 35  1  0
 34 36  1  0
 36 37  1  0
 36 38  2  0
 38 39  1  0
 38  3  1  0
 18 11  2  0
 32 23  1  0
M  CHG  5  12  -1  15  -1  29  -1  31  -1  39  -1
M  END
>  <UniqueID>  (20) 
19

>  <SMILES>  (20) 
O=c1[n-]c(C=Cc2ccc([O-])c(O)c2)c(/C=C/c2ccc([O-])c([O-])c2)c(=O)[n-]1

>  <Energy>  (20) 
60.59626070161934

>  <Genealogy>  (20) 
O=c1[n-]c(C=Cc2ccc([O-])c(O)c2)c(C=Cc2ccc([O-])c([O-])c2)c(=O)[n-]1 (protonated)
O=c1[n-]c(C=Cc2ccc([O-])c(O)c2)c(/C=C/c2ccc([O-])c([O-])c2)c(=O)[n-]1 (cis-trans isomerization)
O=c1[n-]c(C=Cc2ccc([O-])c(O)c2)c(/C=C/c2ccc([O-])c([O-])c2)c(=O)[n-]1 (3D coordinates assigned)
O=c1[n-]c(C=Cc2ccc([O-])c(O)c2)c(/C=C/c2ccc([O-])c([O-])c2)c(=O)[n-]1 (optimized conformer: 60.59626070161934 kcal/mol)

>  <smiles>  (20) 
O=c1[nH]c(C=Cc2ccc(O)c(O)c2)c(C=Cc2ccc(O)c(O)c2)c(=O)[nH]1

>  <score_type>  (20) 
oracle

>  <origin>  (20) 
adg

>  <m_score__min__energy>  (20) 
-17.379999999999999

>  <m_primary>  (20) 
energy

$$$$
20:0
     RDKit          3D

 47 49  0  0  0  0  0  0  0  0999 V2000
   63.0150   33.7910   46.7960 C   0  0  0  0  0  0  0  0  0  0  0  0
   63.4400   32.3630   47.1240 C   0  0  0  0  0  0  0  0  0  0  0  0
   63.1730   32.0310   48.6020 C   0  0  0  0  0  0  0  0  0  0  0  0
   62.1670   30.9660   48.7750 N   0  0  0  0  0  0  0  0  0  0  0  0
   60.8220   31.4500   49.1440 C   0  0  0  0  0  0  0  0  0  0  0  0
   60.0640   31.9960   47.9620 C   0  0  0  0  0  0  0  0  0  0  0  0
   59.6740   33.2900   47.8720 N   0  0  0  0  0  0  0  0  0  0  0  0
   59.0450   33.4070   46.6910 C   0  0  0  0  0  0  0  0  0  0  0  0
   58.4890   34.5630   46.1470 C   0  0  0  0  0  0  0  0  0  0  0  0
   57.9000   34.4740   44.8720 C   0  0  0  0  0  0  0  0  0  0  0  0
   57.8880   33.2480   44.1760 C   0  0  0  0  0  0  0  0  0  0  0  0
   58.4590   32.0970   44.7480 C   0  0  0  0  0  0  0  0  0  0  0  0
   59.0200   32.2080   46.0220 C   0  0  0  0  0  0  0  0  0  0  0  0
   59.6640   31.2820   46.8270 C   0  0  0  0  0  0  0  0  0  0  0  0
   59.8780   29.8450   46.5490 C   0  0  0  0  0  0  0  0  0  0  0  0
   61.0560   29.4140   46.4380 O   0  0  0  0  0  0  0  0  0  0  0  0
   58.7460   28.8980   46.4080 C   0  0  0  0  0  0  0  0  0  0  0  0
   57.7280   29.1520   45.4730 C   0  0  0  0  0  0  0  0  0  0  0  0
   56.6600   28.2610   45.3270 C   0  0  0  0  0  0  0  0  0  0  0  0
   56.5990   27.0920   46.1070 C   0  0  0  0  0  0  0  0  0  0  0  0
   55.5490   26.1670   45.9980 O   0  0  0  0  0  0  0  0  0  0  0  0
   55.7100   24.8130   45.5920 C   0  0  0  0  0  0  0  0  0  0  0  0
   57.6210   26.8320   47.0260 C   0  0  0  0  0  0  0  0  0  0  0  0
   58.6880   27.7200   47.1740 C   0  0  0  0  0  0  0  0  0  0  0  0
   62.8492   34.3479   47.7300 H   0  0  0  0  0  0  0  0  0  0  0  0
   63.8055   34.2836   46.2107 H   0  0  0  0  0  0  0  0  0  0  0  0
   62.0838   33.7712   46.2107 H   0  0  0  0  0  0  0  0  0  0  0  0
   62.8726   31.6650   46.4909 H   0  0  0  0  0  0  0  0  0  0  0  0
   64.5193   32.2675   46.9341 H   0  0  0  0  0  0  0  0  0  0  0  0
   64.1156   31.7029   49.0645 H   0  0  0  0  0  0  0  0  0  0  0  0
   62.7792   32.9400   49.0802 H   0  0  0  0  0  0  0  0  0  0  0  0
   62.1020   30.4280   47.8800 H   0  0  0  0  0  0  0  0  0  0  0  0
   62.4960   30.2990   49.5120 H   0  0  0  0  0  0  0  0  0  0  0  0
   60.2513   30.6137   49.5740 H   0  0  0  0  0  0  0  0  0  0  0  0
   60.9470   32.2677   49.8691 H   0  0  0  0  0  0  0  0  0  0  0  0
   59.8360   34.0460   48.5740 H   0  0  0  0  0  0  0  0  0  0  0  0
   58.5098   35.5154   46.6969 H   0  0  0  0  0  0  0  0  0  0  0  0
   57.4463   35.3662   44.4158 H   0  0  0  0  0  0  0  0  0  0  0  0
   57.4286   33.1912   43.1781 H   0  0  0  0  0  0  0  0  0  0  0  0
   58.4636   31.1385   44.2083 H   0  0  0  0  0  0  0  0  0  0  0  0
   57.7716   30.0584   44.8513 H   0  0  0  0  0  0  0  0  0  0  0  0
   55.8639   28.4753   44.5988 H   0  0  0  0  0  0  0  0  0  0  0  0
   55.7864   24.1702   46.4813 H   0  0  0  0  0  0  0  0  0  0  0  0
   54.8422   24.5049   44.9904 H   0  0  0  0  0  0  0  0  0  0  0  0
   56.6259   24.7170   44.9904 H   0  0  0  0  0  0  0  0  0  0  0  0
   57.5836   25.9188   47.6381 H   0  0  0  0  0  0  0  0  0  0  0  0
   59.4887   27.4968   47.8945 H   0  0  0  0  0  0  0  0  0  0  0  0
  1  2  1  0
  2  3  1  0
  3  4  1  0
  4  5  1  0
  5  6  1  0
  6  7  1  0
  7  8  1  0
  8  9  2  0
  9 10  1  0
 10 11  2  0
 11 12  1  0
 12 13  2  0
 13 14  1  0
 14 15  1  0
 15 16  2  0
 15 17  1  0
 17 18  2  0
 18 19  1  0
 19 20  2  0
 20 21  1  0
 21 22  1  0
 20 23  1  0
 23 24  2  0
 14  6  2  0
 24 17  1  0
 13  8  1  0
  1 25  1  0
  1 26  1  0
  1 27  1  0
  2 28  1  0
  2 29  1  0
  3 30  1  0
  3 31  1  0
  4 32  1  0
  4 33  1  0
  5 34  1  0
  5 35  1  0
  7 36  1  0
  9 37  1  0
 10 38  1  0
 11 39  1  0
 12 40  1  0
 18 41  1  0
 19 42  1  0
 22 43  1  0
 22 44  1  0
 22 45  1  0
 23 46  1  0
 24 47  1  0
M  CHG  1   4   1
M  END
>  <UniqueID>  (21) 
20

>  <SMILES>  (21) 
CCC[NH2+]Cc1[nH]c2ccccc2c1C(=O)c1ccc(OC)cc1

>  <Energy>  (21) 
83.47301443319184

>  <Genealogy>  (21) 
CCC[NH2+]Cc1[nH]c2ccccc2c1C(=O)c1ccc(OC)cc1 (protonated)
CCC[NH2+]Cc1[nH]c2ccccc2c1C(=O)c1ccc(OC)cc1 (3D coordinates assigned)
CCC[NH2+]Cc1[nH]c2ccccc2c1C(=O)c1ccc(OC)cc1 (optimized conformer: 83.47301443319184 kcal/mol)

>  <smiles>  (21) 
CCCNCc1[nH]c2ccccc2c1C(=O)c1ccc(OC)cc1

>  <score_type>  (21) 
oracle

>  <origin>  (21) 
adg

>  <m_score__min__energy>  (21) 
-5.6600000000000001

>  <m_primary>  (21) 
energy

$$$$
21:0
     RDKit          3D

 54 56  0  0  0  0  0  0  0  0999 V2000
   56.1850   24.3610   44.5190 C   0  0  0  0  0  0  0  0  0  0  0  0
   55.2300   24.9960   45.8760 S   0  0  0  0  0  0  0  0  0  0  0  0
   53.7810   24.6880   45.6350 O   0  0  0  0  0  0  0  0  0  0  0  0
   55.6540   24.3430   47.1620 O   0  0  0  0  0  0  0  0  0  0  0  0
   55.4230   26.7150   45.9930 N   0  0  0  0  0  0  0  0  0  0  0  0
   56.6660   27.4260   45.9390 C   0  0  0  0  0  0  0  0  0  0  0  0
   57.7450   27.1200   46.7900 C   0  0  0  0  0  0  0  0  0  0  0  0
   58.9350   27.8460   46.7060 C   0  0  0  0  0  0  0  0  0  0  0  0
   59.0590   28.8850   45.7820 C   0  0  0  0  0  0  0  0  0  0  0  0
   57.9880   29.2100   44.9320 C   0  0  0  0  0  0  0  0  0  0  0  0
   58.1530   30.2720   43.8800 C   0  0  0  0  0  0  0  0  0  0  0  0
   57.5700   31.5490   44.3870 C   0  0  0  0  0  0  0  0  0  0  0  0
   56.3950   31.5660   44.8410 O   0  0  0  0  0  0  0  0  0  0  0  0
   58.3930   32.7140   44.4700 N   0  0  0  0  0  0  0  0  0  0  0  0
   58.0260   33.8790   45.2640 C   0  0  0  0  0  0  0  0  0  0  0  0
   58.5420   33.6990   46.6670 C   0  0  0  0  0  0  0  0  0  0  0  0
   58.1550   32.5810   47.4190 C   0  0  0  0  0  0  0  0  0  0  0  0
   58.5420   32.4590   48.7560 C   0  0  0  0  0  0  0  0  0  0  0  0
   59.3040   33.4670   49.3710 C   0  0  0  0  0  0  0  0  0  0  0  0
   59.6820   33.3580   50.7960 C   0  0  0  0  0  0  0  0  0  0  0  0
   58.7960   33.1440   51.6700 O   0  0  0  0  0  0  0  0  0  0  0  0
   61.0500   33.5100   51.1920 N   0  0  0  0  0  0  0  0  0  0  0  0
   62.0850   32.5240   50.9020 C   0  0  0  0  0  0  0  0  0  0  0  0
   62.5530   32.6710   49.4780 C   0  0  0  0  0  0  0  0  0  0  0  0
   63.2510   33.8190   49.0680 C   0  0  0  0  0  0  0  0  0  0  0  0
   63.6440   33.9650   47.7340 C   0  0  0  0  0  0  0  0  0  0  0  0
   63.3390   32.9710   46.8000 C   0  0  0  0  0  0  0  0  0  0  0  0
   62.6450   31.8270   47.2010 C   0  0  0  0  0  0  0  0  0  0  0  0
   62.2520   31.6760   48.5350 C   0  0  0  0  0  0  0  0  0  0  0  0
   59.6800   34.5930   48.6190 C   0  0  0  0  0  0  0  0  0  0  0  0
   59.3030   34.7060   47.2770 C   0  0  0  0  0  0  0  0  0  0  0  0
   56.8020   28.4610   45.0060 C   0  0  0  0  0  0  0  0  0  0  0  0
   57.0417   23.7914   44.9084 H   0  0  0  0  0  0  0  0  0  0  0  0
   55.5550   23.7013   43.9042 H   0  0  0  0  0  0  0  0  0  0  0  0
   56.5496   25.1971   43.9042 H   0  0  0  0  0  0  0  0  0  0  0  0
   57.6504   26.3060   47.5238 H   0  0  0  0  0  0  0  0  0  0  0  0
   59.7767   27.5985   47.3696 H   0  0  0  0  0  0  0  0  0  0  0  0
   59.9995   29.4521   45.7189 H   0  0  0  0  0  0  0  0  0  0  0  0
   59.2220   30.4144   43.6635 H   0  0  0  0  0  0  0  0  0  0  0  0
   57.6368   29.9667   42.9579 H   0  0  0  0  0  0  0  0  0  0  0  0
   58.4706   34.7822   44.8207 H   0  0  0  0  0  0  0  0  0  0  0  0
   56.9314   33.9865   45.2818 H   0  0  0  0  0  0  0  0  0  0  0  0
   57.5427   31.7947   46.9535 H   0  0  0  0  0  0  0  0  0  0  0  0
   58.2484   31.5683   49.3308 H   0  0  0  0  0  0  0  0  0  0  0  0
   62.9354   32.6779   51.5825 H   0  0  0  0  0  0  0  0  0  0  0  0
   61.6714   31.5146   51.0434 H   0  0  0  0  0  0  0  0  0  0  0  0
   63.4893   34.6058   49.7988 H   0  0  0  0  0  0  0  0  0  0  0  0
   64.1943   34.8639   47.4191 H   0  0  0  0  0  0  0  0  0  0  0  0
   63.6452   33.0895   45.7501 H   0  0  0  0  0  0  0  0  0  0  0  0
   62.4071   31.0435   46.4665 H   0  0  0  0  0  0  0  0  0  0  0  0
   61.7049   30.7739   48.8462 H   0  0  0  0  0  0  0  0  0  0  0  0
   60.2745   35.3904   49.0888 H   0  0  0  0  0  0  0  0  0  0  0  0
   59.6054   35.5902   46.6967 H   0  0  0  0  0  0  0  0  0  0  0  0
   55.9706   28.6902   44.3232 H   0  0  0  0  0  0  0  0  0  0  0  0
  1  2  1  0
  2  3  2  0
  2  4  2  0
  2  5  1  0
  5  6  1  0
  6  7  2  0
  7  8  1  0
  8  9  2  0
  9 10  1  0
 10 11  1  0
 11 12  1  0
 12 13  2  0
 12 14  1  0
 14 15  1  0
 15 16  1  0
 16 17  2  0
 17 18  1  0
 18 19  2  0
 19 20  1  0
 20 21  2  0
 20 22  1  0
 22 23  1  0
 23 24  1  0
 24 25  2  0
 25 26  1  0
 26 27  2  0
 27 28  1  0
 28 29  2  0
 19 30  1  0
 30 31  2  0
 10 32  2  0
 32  6  1  0
 31 16  1  0
 29 24  1  0
  1 33  1  0
  1 34  1  0
  1 35  1  0
  7 36  1  0
  8 37  1  0
  9 38  1  0
 11 39  1  0
 11 40  1  0
 15 41  1  0
 15 42  1  0
 17 43  1  0
 18 44  1  0
 23 45  1  0
 23 46  1  0
 25 47  1  0
 26 48  1  0
 27 49  1  0
 28 50  1  0
 29 51  1  0
 30 52  1  0
 31 53  1  0
 32 54  1  0
M  CHG  3   5  -1  14  -1  22  -1
M  END
>  <UniqueID>  (22) 
21

>  <SMILES>  (22) 
CS(=O)(=O)[N-]c1cccc(CC(=O)[N-]Cc2ccc(C(=O)[N-]Cc3ccccc3)cc2)c1

>  <Energy>  (22) 
41.68428206318476

>  <Genealogy>  (22) 
CS(=O)(=O)[N-]c1cccc(CC(=O)[N-]Cc2ccc(C(=O)[N-]Cc3ccccc3)cc2)c1 (protonated)
CS(=O)(=O)[N-]c1cccc(CC(=O)[N-]Cc2ccc(C(=O)[N-]Cc3ccccc3)cc2)c1 (3D coordinates assigned)
CS(=O)(=O)[N-]c1cccc(CC(=O)[N-]Cc2ccc(C(=O)[N-]Cc3ccccc3)cc2)c1 (optimized conformer: 41.68428206318476 kcal/mol)

>  <smiles>  (22) 
CS(=O)(=O)Nc1cccc(CC(=O)NCc2ccc(C(=O)NCc3ccccc3)cc2)c1

>  <score_type>  (22) 
oracle

>  <origin>  (22) 
adg

>  <m_score__min__energy>  (22) 
-13.49

>  <m_primary>  (22) 
energy

$$$$
22:0
     RDKit          3D

 70 74  0  0  0  0  0  0  0  0999 V2000
   57.0500   30.8330   43.3410 H   0  0  0  0  0  0  0  0  0  0  0  0
   56.6050   30.7030   44.2420 O   0  0  0  0  0  0  0  0  0  0  0  0
   56.7210   29.4960   44.9270 C   0  0  0  0  0  0  0  0  0  0  0  0
   55.7190   28.5870   44.9920 N   0  0  0  0  0  0  0  0  0  0  0  0
   56.2530   27.5640   45.6930 C   0  0  0  0  0  0  0  0  0  0  0  0
   55.6430   26.3370   45.9580 C   0  0  0  0  0  0  0  0  0  0  0  0
   54.6110   26.1391   45.6328 H   0  0  0  0  0  0  0  0  0  0  0  0
   56.3810   25.3580   46.6520 C   0  0  0  0  0  0  0  0  0  0  0  0
   55.7850   24.0890   46.9350 N   0  0  0  0  0  0  0  0  0  0  0  0
   56.5580   22.9000   47.1490 C   0  0  0  0  0  0  0  0  0  0  0  0
   57.7670   23.0190   47.5060 O   0  0  0  0  0  0  0  0  0  0  0  0
   55.9530   21.5540   46.9490 C   0  0  0  0  0  0  0  0  0  0  0  0
   56.0090   20.6070   48.0010 C   0  0  0  0  0  0  0  0  0  0  0  0
   56.5538   20.8516   48.9248 H   0  0  0  0  0  0  0  0  0  0  0  0
   55.3800   19.3660   47.8780 C   0  0  0  0  0  0  0  0  0  0  0  0
   55.4483   18.6323   48.6947 H   0  0  0  0  0  0  0  0  0  0  0  0
   54.6660   19.0560   46.7220 C   0  0  0  0  0  0  0  0  0  0  0  0
   54.1430   18.0916   46.6420 H   0  0  0  0  0  0  0  0  0  0  0  0
   54.6130   19.9670   45.6650 C   0  0  0  0  0  0  0  0  0  0  0  0
   54.0590   19.7071   44.7510 H   0  0  0  0  0  0  0  0  0  0  0  0
   55.2600   21.2140   45.7550 C   0  0  0  0  0  0  0  0  0  0  0  0
   55.2450   22.1260   44.6470 N   0  0  0  0  0  0  0  0  0  0  0  0
   56.5420   22.4010   43.5300 S   0  0  0  0  0  0  0  0  0  0  0  0
   56.2600   21.5800   42.2950 O   0  0  0  0  0  0  0  0  0  0  0  0
   56.5950   23.8600   43.1480 O   0  0  0  0  0  0  0  0  0  0  0  0
   58.0870   21.8700   44.2370 C   0  0  0  0  0  0  0  0  0  0  0  0
   58.0157   21.8945   45.3344 H   0  0  0  0  0  0  0  0  0  0  0  0
   58.3081   20.8443   43.9067 H   0  0  0  0  0  0  0  0  0  0  0  0
   58.8919   22.5431   43.9067 H   0  0  0  0  0  0  0  0  0  0  0  0
   57.7240   25.6210   47.0200 C   0  0  0  0  0  0  0  0  0  0  0  0
   58.2967   24.8572   47.5665 H   0  0  0  0  0  0  0  0  0  0  0  0
   58.3330   26.8440   46.6960 C   0  0  0  0  0  0  0  0  0  0  0  0
   59.3900   27.0324   46.9352 H   0  0  0  0  0  0  0  0  0  0  0  0
   57.5550   27.8130   46.0610 C   0  0  0  0  0  0  0  0  0  0  0  0
   57.8690   29.0740   45.5940 C   0  0  0  0  0  0  0  0  0  0  0  0
   59.2010   29.6890   45.4880 C   0  0  0  0  0  0  0  0  0  0  0  0
   59.9969   29.0895   45.0220 H   0  0  0  0  0  0  0  0  0  0  0  0
   59.5280   30.9230   45.9130 C   0  0  0  0  0  0  0  0  0  0  0  0
   60.5590   31.3190   46.7780 C   0  0  0  0  0  0  0  0  0  0  0  0
   61.4560   30.4740   47.6240 C   0  0  0  0  0  0  0  0  0  0  0  0
   61.2488   30.6692   48.6865 H   0  0  0  0  0  0  0  0  0  0  0  0
   61.2738   29.4117   47.4040 H   0  0  0  0  0  0  0  0  0  0  0  0
   62.5055   30.7192   47.4040 H   0  0  0  0  0  0  0  0  0  0  0  0
   60.5450   32.7080   46.7830 C   0  0  0  0  0  0  0  0  0  0  0  0
   61.5650   33.5890   47.3760 C   0  0  0  0  0  0  0  0  0  0  0  0
   62.3600   34.1840   46.5880 O   0  0  0  0  0  0  0  0  0  0  0  0
   61.7010   33.7520   48.8030 N   0  0  0  0  0  0  0  0  0  0  0  0
   60.5850   33.3460   49.6780 C   0  0  0  0  0  0  0  0  0  0  0  0
   59.6847   33.9041   49.3815 H   0  0  0  0  0  0  0  0  0  0  0  0
   60.4489   32.2608   49.5601 H   0  0  0  0  0  0  0  0  0  0  0  0
   60.8630   33.6170   51.1520 C   0  0  0  0  0  0  0  0  0  0  0  0
   60.7182   34.6869   51.3625 H   0  0  0  0  0  0  0  0  0  0  0  0
   60.1721   33.0265   51.7717 H   0  0  0  0  0  0  0  0  0  0  0  0
   62.2440   33.2400   51.4620 N   0  0  0  0  0  0  0  0  0  0  0  0
   62.4490   33.2340   52.9190 C   0  0  0  0  0  0  0  0  0  0  0  0
   61.4736   33.2626   53.4266 H   0  0  0  0  0  0  0  0  0  0  0  0
   62.9871   32.3197   53.2098 H   0  0  0  0  0  0  0  0  0  0  0  0
   63.0396   34.1152   53.2098 H   0  0  0  0  0  0  0  0  0  0  0  0
   63.1440   34.2180   50.8380 C   0  0  0  0  0  0  0  0  0  0  0  0
   62.8948   35.2224   51.2109 H   0  0  0  0  0  0  0  0  0  0  0  0
   64.1790   33.9506   51.0976 H   0  0  0  0  0  0  0  0  0  0  0  0
   63.0110   34.2060   49.3050 C   0  0  0  0  0  0  0  0  0  0  0  0
   63.1825   35.2288   48.9383 H   0  0  0  0  0  0  0  0  0  0  0  0
   63.7528   33.4830   48.9348 H   0  0  0  0  0  0  0  0  0  0  0  0
   59.5080   33.0930   45.9600 C   0  0  0  0  0  0  0  0  0  0  0  0
   59.1650   34.3440   45.6620 C   0  0  0  0  0  0  0  0  0  0  0  0
   59.7248   35.1859   46.0954 H   0  0  0  0  0  0  0  0  0  0  0  0
   58.3217   34.5360   44.9823 H   0  0  0  0  0  0  0  0  0  0  0  0
   58.8720   32.0110   45.4700 N   0  0  0  0  0  0  0  0  0  0  0  0
   58.0590   32.0200   44.8150 H   0  0  0  0  0  0  0  0  0  0  0  0
  1  2  1  0
  2  3  1  0
  3  4  1  0
  4  5  1  0
  5  6  2  0
  6  7  1  0
  6  8  1  0
  8  9  1  0
  9 10  1  0
 10 11  2  0
 10 12  1  0
 12 13  2  0
 13 14  1  0
 13 15  1  0
 15 16  1  0
 15 17  2  0
 17 18  1  0
 17 19  1  0
 19 20  1  0
 19 21  2  0
 21 22  1  0
 22 23  1  0
 23 24  2  0
 23 25  2  0
 23 26  1  0
 26 27  1  0
 26 28  1  0
 26 29  1  0
  8 30  2  0
 30 31  1  0
 30 32  1  0
 32 33  1  0
 32 34  2  0
 34 35  1  0
 35 36  1  0
 36 37  1  0
 36 38  2  0
 38 39  1  0
 39 40  1  0
 40 41  1  0
 40 42  1  0
 40 43  1  0
 39 44  2  0
 44 45  1  0
 45 46  2  0
 45 47  1  0
 47 48  1  0
 48 49  1  0
 48 50  1  0
 48 51  1  0
 51 52  1  0
 51 53  1  0
 51 54  1  0
 54 55  1  0
 55 56  1  0
 55 57  1  0
 55 58  1  0
 54 59  1  0
 59 60  1  0
 59 61  1  0
 59 62  1  0
 62 63  1  0
 62 64  1  0
 44 65  1  0
 65 66  2  0
 66 67  1  0
 66 68  1  0
 65 69  1  0
 69 70  1  0
 35  3  2  0
 69 38  1  0
 34  5  1  0
 62 47  1  0
 21 12  1  0
M  CHG  3   4  -1   9  -1  22  -1
M  END
>  <UniqueID>  (23) 
22

>  <SMILES>  (23) 
C=c1[nH]/c(=C/c2c(O)[n-]c3cc([N-]C(=O)c4ccccc4[N-]S(C)(=O)=O)ccc23)c(C)c1C(=O)N1CCN(C)CC1

>  <Energy>  (23) 
164.4261432080547

>  <Genealogy>  (23) 
C=c1[nH]c(=Cc2c(O)[n-]c3cc([N-]C(=O)c4ccccc4[N-]S(C)(=O)=O)ccc23)c(C)c1C(=O)N1CCN(C)CC1 (protonated)
C=c1[nH]/c(=C/c2c(O)[n-]c3cc([N-]C(=O)c4ccccc4[N-]S(C)(=O)=O)ccc23)c(C)c1C(=O)N1CCN(C)CC1 (cis-trans isomerization)
C=c1[nH]/c(=C/c2c(O)[n-]c3cc([N-]C(=O)c4ccccc4[N-]S(C)(=O)=O)ccc23)c(C)c1C(=O)N1CCN(C)CC1 (3D coordinates assigned)
C=c1[nH]/c(=C/c2c(O)[n-]c3cc([N-]C(=O)c4ccccc4[N-]S(C)(=O)=O)ccc23)c(C)c1C(=O)N1CCN(C)CC1 (nonaromatic ring conformer: 164.4261432080547 kcal/mol)

>  <smiles>  (23) 
C=c1[nH]c(=Cc2c(O)[nH]c3cc(NC(=O)c4ccccc4NS(C)(=O)=O)ccc23)c(C)c1C(=O)N1CCN(C)CC1

>  <score_type>  (23) 
oracle

>  <origin>  (23) 
adg

>  <m_score__min__energy>  (23) 
-16.07

>  <m_primary>  (23) 
energy

$$$$
23:0
     RDKit          3D

 56 59  0  0  0  0  0  0  0  0999 V2000
   55.5380   31.1970   44.4920 O   0  0  0  0  0  0  0  0  0  0  0  0
   56.6490   31.7570   44.6910 C   0  0  0  0  0  0  0  0  0  0  0  0
   57.8730   31.0970   44.3420 N   0  0  0  0  0  0  0  0  0  0  0  0
   58.3990   29.8800   44.8980 C   0  0  0  0  0  0  0  0  0  0  0  0
   58.7290   29.8570   46.2600 C   0  0  0  0  0  0  0  0  0  0  0  0
   59.2340   28.6920   46.8490 C   0  0  0  0  0  0  0  0  0  0  0  0
   59.4270   27.5390   46.0750 C   0  0  0  0  0  0  0  0  0  0  0  0
   60.0260   26.0520   46.8000 S   0  0  0  0  0  0  0  0  0  0  0  0
   59.7470   26.0430   48.2770 O   0  0  0  0  0  0  0  0  0  0  0  0
   61.5080   25.9610   46.5660 O   0  0  0  0  0  0  0  0  0  0  0  0
   59.2190   24.7120   46.0520 N   0  0  0  0  0  0  0  0  0  0  0  0
   57.7990   24.5400   45.9730 C   0  0  0  0  0  0  0  0  0  0  0  0
   57.2030   23.2740   45.8160 C   0  0  0  0  0  0  0  0  0  0  0  0
   55.8120   23.1590   45.7230 C   0  0  0  0  0  0  0  0  0  0  0  0
   55.0060   24.3000   45.7830 C   0  0  0  0  0  0  0  0  0  0  0  0
   55.5900   25.5590   45.9430 C   0  0  0  0  0  0  0  0  0  0  0  0
   54.7880   26.6930   46.0090 O   0  0  0  0  0  0  0  0  0  0  0  0
   56.9820   25.6770   46.0390 C   0  0  0  0  0  0  0  0  0  0  0  0
   59.1320   27.5660   44.7070 C   0  0  0  0  0  0  0  0  0  0  0  0
   58.6320   28.7320   44.1160 C   0  0  0  0  0  0  0  0  0  0  0  0
   56.6610   33.0680   45.2640 N   0  0  0  0  0  0  0  0  0  0  0  0
   57.7510   33.7130   45.9420 C   0  0  0  0  0  0  0  0  0  0  0  0
   58.5680   34.6690   45.3130 C   0  0  0  0  0  0  0  0  0  0  0  0
   59.6630   35.2120   45.9890 C   0  0  0  0  0  0  0  0  0  0  0  0
   59.9630   34.7970   47.2890 C   0  0  0  0  0  0  0  0  0  0  0  0
   59.1550   33.8500   47.9320 C   0  0  0  0  0  0  0  0  0  0  0  0
   59.4890   33.3560   49.2820 C   0  0  0  0  0  0  0  0  0  0  0  0
   59.6480   34.1920   50.2100 O   0  0  0  0  0  0  0  0  0  0  0  0
   59.6880   31.9640   49.5710 N   0  0  0  0  0  0  0  0  0  0  0  0
   60.7640   31.1180   49.0610 C   0  0  0  0  0  0  0  0  0  0  0  0
   61.9270   31.9420   48.5720 C   0  0  0  0  0  0  0  0  0  0  0  0
   62.9270   32.3500   49.4720 C   0  0  0  0  0  0  0  0  0  0  0  0
   64.0210   33.0950   49.0180 C   0  0  0  0  0  0  0  0  0  0  0  0
   64.1290   33.4290   47.6630 C   0  0  0  0  0  0  0  0  0  0  0  0
   63.1500   33.0100   46.7590 C   0  0  0  0  0  0  0  0  0  0  0  0
   62.0590   32.2600   47.2060 C   0  0  0  0  0  0  0  0  0  0  0  0
   58.0640   33.2970   47.2430 C   0  0  0  0  0  0  0  0  0  0  0  0
   58.5901   30.7613   46.8706 H   0  0  0  0  0  0  0  0  0  0  0  0
   59.4799   28.6810   47.9211 H   0  0  0  0  0  0  0  0  0  0  0  0
   57.8326   22.3734   45.7664 H   0  0  0  0  0  0  0  0  0  0  0  0
   55.3507   22.1677   45.6023 H   0  0  0  0  0  0  0  0  0  0  0  0
   53.9128   24.2064   45.7043 H   0  0  0  0  0  0  0  0  0  0  0  0
   57.4379   26.6698   46.1672 H   0  0  0  0  0  0  0  0  0  0  0  0
   59.2938   26.6671   44.0939 H   0  0  0  0  0  0  0  0  0  0  0  0
   58.4202   28.7519   43.0368 H   0  0  0  0  0  0  0  0  0  0  0  0
   58.3440   34.9903   44.2851 H   0  0  0  0  0  0  0  0  0  0  0  0
   60.2912   35.9688   45.4964 H   0  0  0  0  0  0  0  0  0  0  0  0
   60.8370   35.2154   47.8097 H   0  0  0  0  0  0  0  0  0  0  0  0
   61.1097   30.4540   49.8670 H   0  0  0  0  0  0  0  0  0  0  0  0
   60.3734   30.5341   48.2145 H   0  0  0  0  0  0  0  0  0  0  0  0
   62.8492   32.0828   50.5362 H   0  0  0  0  0  0  0  0  0  0  0  0
   64.7973   33.4187   49.7270 H   0  0  0  0  0  0  0  0  0  0  0  0
   64.9855   34.0219   47.3097 H   0  0  0  0  0  0  0  0  0  0  0  0
   63.2380   33.2707   45.6940 H   0  0  0  0  0  0  0  0  0  0  0  0
   61.2998   31.9164   46.4880 H   0  0  0  0  0  0  0  0  0  0  0  0
   57.4472   32.5276   47.7304 H   0  0  0  0  0  0  0  0  0  0  0  0
  1  2  2  0
  2  3  1  0
  3  4  1  0
  4  5  2  0
  5  6  1  0
  6  7  2  0
  7  8  1  0
  8  9  2  0
  8 10  2  0
  8 11  1  0
 11 12  1  0
 12 13  2  0
 13 14  1  0
 14 15  2  0
 15 16  1  0
 16 17  1  0
 16 18  2  0
  7 19  1  0
 19 20  2  0
  2 21  1  0
 21 22  1  0
 22 23  2  0
 23 24  1  0
 24 25  2  0
 25 26  1  0
 26 27  1  0
 27 28  2  0
 27 29  1  0
 29 30  1  0
 30 31  1  0
 31 32  2  0
 32 33  1  0
 33 34  2  0
 34 35  1  0
 35 36  2  0
 26 37  2  0
 20  4  1  0
 37 22  1  0
 18 12  1  0
 36 31  1  0
  5 38  1  0
  6 39  1  0
 13 40  1  0
 14 41  1  0
 15 42  1  0
 18 43  1  0
 19 44  1  0
 20 45  1  0
 23 46  1  0
 24 47  1  0
 25 48  1  0
 30 49  1  0
 30 50  1  0
 32 51  1  0
 33 52  1  0
 34 53  1  0
 35 54  1  0
 36 55  1  0
 37 56  1  0
M  CHG  5   3  -1  11  -1  17  -1  21  -1  29  -1
M  END
>  <UniqueID>  (24) 
23

>  <SMILES>  (24) 
O=C([N-]c1ccc(S(=O)(=O)[N-]c2cccc([O-])c2)cc1)[N-]c1cccc(C(=O)[N-]Cc2ccccc2)c1

>  <Energy>  (24) 
77.46824763864804

>  <Genealogy>  (24) 
O=C([N-]c1ccc(S(=O)(=O)[N-]c2cccc([O-])c2)cc1)[N-]c1cccc(C(=O)[N-]Cc2ccccc2)c1 (protonated)
O=C([N-]c1ccc(S(=O)(=O)[N-]c2cccc([O-])c2)cc1)[N-]c1cccc(C(=O)[N-]Cc2ccccc2)c1 (3D coordinates assigned)
O=C([N-]c1ccc(S(=O)(=O)[N-]c2cccc([O-])c2)cc1)[N-]c1cccc(C(=O)[N-]Cc2ccccc2)c1 (optimized conformer: 77.46824763864804 kcal/mol)

>  <smiles>  (24) 
O=C(Nc1ccc(S(=O)(=O)Nc2cccc(O)c2)cc1)Nc1cccc(C(=O)NCc2ccccc2)c1

>  <score_type>  (24) 
oracle

>  <origin>  (24) 
adg

>  <m_score__min__energy>  (24) 
-18.52

>  <m_primary>  (24) 
energy

$$$$
24:0
     RDKit          3D

 51 53  0  0  0  0  0  0  0  0999 V2000
   58.6360   21.8340   44.0480 C   0  0  0  0  0  0  0  0  0  0  0  0
   57.5120   22.7380   44.4730 C   0  0  0  0  0  0  0  0  0  0  0  0
   57.7590   23.8550   45.2800 C   0  0  0  0  0  0  0  0  0  0  0  0
   56.7360   24.6690   45.6790 N   0  0  0  0  0  0  0  0  0  0  0  0
   57.0330   25.8220   46.5430 C   0  0  0  0  0  0  0  0  0  0  0  0
   56.3670   27.0850   45.9890 C   0  0  0  0  0  0  0  0  0  0  0  0
   57.3970   28.0150   45.3990 C   0  0  0  0  0  0  0  0  0  0  0  0
   58.6900   27.6550   45.3620 C   0  0  0  0  0  0  0  0  0  0  0  0
   59.7340   28.5440   44.7400 C   0  0  0  0  0  0  0  0  0  0  0  0
   59.4300   30.0190   45.0160 C   0  0  0  0  0  0  0  0  0  0  0  0
   58.0480   30.3280   44.6310 N   0  0  0  0  0  0  0  0  0  0  0  0
   57.7230   31.6060   43.9870 C   0  0  0  0  0  0  0  0  0  0  0  0
   57.0260   32.5370   44.9800 C   0  0  0  0  0  0  0  0  0  0  0  0
   58.0370   33.3400   45.7540 C   0  0  0  0  0  0  0  0  0  0  0  0
   58.7050   34.4120   45.1440 C   0  0  0  0  0  0  0  0  0  0  0  0
   59.6560   35.1450   45.8570 C   0  0  0  0  0  0  0  0  0  0  0  0
   59.9610   34.8030   47.1760 C   0  0  0  0  0  0  0  0  0  0  0  0
   59.3330   33.7060   47.7910 C   0  0  0  0  0  0  0  0  0  0  0  0
   59.6330   33.3600   49.2280 C   0  0  0  0  0  0  0  0  0  0  0  0
   60.8460   32.7010   49.3320 F   0  0  0  0  0  0  0  0  0  0  0  0
   59.6860   34.5220   49.9750 F   0  0  0  0  0  0  0  0  0  0  0  0
   58.6480   32.5360   49.7470 F   0  0  0  0  0  0  0  0  0  0  0  0
   58.3560   32.9900   47.0760 C   0  0  0  0  0  0  0  0  0  0  0  0
   57.0160   29.3750   44.9530 C   0  0  0  0  0  0  0  0  0  0  0  0
   55.7990   29.6950   44.8590 O   0  0  0  0  0  0  0  0  0  0  0  0
   55.4470   24.3690   45.3160 C   0  0  0  0  0  0  0  0  0  0  0  0
   54.4860   25.0910   45.6940 O   0  0  0  0  0  0  0  0  0  0  0  0
   55.1910   23.2820   44.5440 N   0  0  0  0  0  0  0  0  0  0  0  0
   56.1860   22.4650   44.1170 C   0  0  0  0  0  0  0  0  0  0  0  0
   55.9020   21.4630   43.4070 O   0  0  0  0  0  0  0  0  0  0  0  0
   59.1385   21.4299   44.9392 H   0  0  0  0  0  0  0  0  0  0  0  0
   58.2330   21.0055   43.4470 H   0  0  0  0  0  0  0  0  0  0  0  0
   59.3588   22.4053   43.4470 H   0  0  0  0  0  0  0  0  0  0  0  0
   58.7881   24.0802   45.5966 H   0  0  0  0  0  0  0  0  0  0  0  0
   56.6515   25.6247   47.5557 H   0  0  0  0  0  0  0  0  0  0  0  0
   58.1218   25.9753   46.5744 H   0  0  0  0  0  0  0  0  0  0  0  0
   55.6472   26.8006   45.2073 H   0  0  0  0  0  0  0  0  0  0  0  0
   55.8520   27.6033   46.8113 H   0  0  0  0  0  0  0  0  0  0  0  0
   58.9930   26.6903   45.7952 H   0  0  0  0  0  0  0  0  0  0  0  0
   60.7183   28.2939   45.1627 H   0  0  0  0  0  0  0  0  0  0  0  0
   59.7308   28.3820   43.6520 H   0  0  0  0  0  0  0  0  0  0  0  0
   59.5637   30.2239   46.0885 H   0  0  0  0  0  0  0  0  0  0  0  0
   60.1169   30.6451   44.4277 H   0  0  0  0  0  0  0  0  0  0  0  0
   58.6502   32.0807   43.6336 H   0  0  0  0  0  0  0  0  0  0  0  0
   57.0492   31.4184   43.1380 H   0  0  0  0  0  0  0  0  0  0  0  0
   56.3648   33.2225   44.4297 H   0  0  0  0  0  0  0  0  0  0  0  0
   56.4415   31.9285   45.6858 H   0  0  0  0  0  0  0  0  0  0  0  0
   58.4790   34.6762   44.1004 H   0  0  0  0  0  0  0  0  0  0  0  0
   60.1661   35.9939   45.3784 H   0  0  0  0  0  0  0  0  0  0  0  0
   60.6977   35.3961   47.7377 H   0  0  0  0  0  0  0  0  0  0  0  0
   57.8369   32.1479   47.5570 H   0  0  0  0  0  0  0  0  0  0  0  0
  1  2  1  0
  2  3  2  0
  3  4  1  0
  4  5  1  0
  5  6  1  0
  6  7  1  0
  7  8  2  0
  8  9  1  0
  9 10  1  0
 10 11  1  0
 11 12  1  0
 12 13  1  0
 13 14  1  0
 14 15  2  0
 15 16  1  0
 16 17  2  0
 17 18  1  0
 18 19  1  0
 19 20  1  0
 19 21  1  0
 19 22  1  0
 18 23  2  0
 11 24  1  0
 24 25  2  0
  4 26  1  0
 26 27  2  0
 26 28  1  0
 28 29  1  0
 29 30  2  0
 29  2  1  0
 24  7  1  0
 23 14  1  0
  1 31  1  0
  1 32  1  0
  1 33  1  0
  3 34  1  0
  5 35  1  0
  5 36  1  0
  6 37  1  0
  6 38  1  0
  8 39  1  0
  9 40  1  0
  9 41  1  0
 10 42  1  0
 10 43  1  0
 12 44  1  0
 12 45  1  0
 13 46  1  0
 13 47  1  0
 15 48  1  0
 16 49  1  0
 17 50  1  0
 23 51  1  0
M  CHG  1  28  -1
M  END
>  <UniqueID>  (25) 
24

>  <SMILES>  (25) 
Cc1cn(CCC2=CCCN(CCc3cccc(C(F)(F)F)c3)C2=O)c(=O)[n-]c1=O

>  <Energy>  (25) 
47.46446457824127

>  <Genealogy>  (25) 
Cc1cn(CCC2=CCCN(CCc3cccc(C(F)(F)F)c3)C2=O)c(=O)[n-]c1=O (protonated)
Cc1cn(CCC2=CCCN(CCc3cccc(C(F)(F)F)c3)C2=O)c(=O)[n-]c1=O (3D coordinates assigned)
Cc1cn(CCC2=CCCN(CCc3cccc(C(F)(F)F)c3)C2=O)c(=O)[n-]c1=O (nonaromatic ring conformer: 47.46446457824127 kcal/mol)

>  <smiles>  (25) 
Cc1cn(CCC2=CCCN(CCc3cccc(C(F)(F)F)c3)C2=O)c(=O)[nH]c1=O

>  <score_type>  (25) 
oracle

>  <origin>  (25) 
adg

>  <m_score__min__energy>  (25) 
-11.26

>  <m_primary>  (25) 
energy

$$$$
25:0
     RDKit          3D

 44 46  0  0  0  0  0  0  0  0999 V2000
   58.9220   31.4860   48.1300 O   0  0  0  0  0  0  0  0  0  0  0  0
   58.8960   32.5810   48.7550 C   0  0  0  0  0  0  0  0  0  0  0  0
   59.1200   33.8160   48.0480 N   0  0  0  0  0  0  0  0  0  0  0  0
   59.1280   33.9410   46.5830 C   0  0  1  0  0  0  0  0  0  0  0  0
   60.4750   33.4650   45.9950 C   0  0  0  0  0  0  0  0  0  0  0  0
   61.4760   33.1610   47.0810 C   0  0  0  0  0  0  0  0  0  0  0  0
   61.9970   34.1920   47.8790 C   0  0  0  0  0  0  0  0  0  0  0  0
   62.9520   33.9100   48.8600 C   0  0  0  0  0  0  0  0  0  0  0  0
   63.3980   32.5990   49.0480 C   0  0  0  0  0  0  0  0  0  0  0  0
   62.8900   31.5680   48.2520 C   0  0  0  0  0  0  0  0  0  0  0  0
   61.9360   31.8460   47.2700 C   0  0  0  0  0  0  0  0  0  0  0  0
   57.9510   33.2180   45.9510 C   0  0  0  0  0  0  0  0  0  0  0  0
   56.7820   33.6270   46.1750 O   0  0  0  0  0  0  0  0  0  0  0  0
   58.1290   32.1010   45.0650 N   0  0  0  0  0  0  0  0  0  0  0  0
   57.4000   31.0200   44.9920 C   0  0  0  0  0  0  0  0  0  0  0  0
   57.7940   29.8980   45.7320 C   0  0  0  0  0  0  0  0  0  0  0  0
   57.0230   28.7330   45.6900 C   0  0  0  0  0  0  0  0  0  0  0  0
   55.9060   28.6820   44.9170 N   0  0  0  0  0  0  0  0  0  0  0  0
   55.5090   29.7440   44.1700 C   0  0  0  0  0  0  0  0  0  0  0  0
   56.2480   30.9300   44.1840 C   0  0  0  0  0  0  0  0  0  0  0  0
   58.6230   32.5760   50.2110 C   0  0  0  0  0  0  0  0  0  0  0  0
   59.2570   33.5130   51.0490 C   0  0  0  0  0  0  0  0  0  0  0  0
   59.0210   33.5040   52.4270 C   0  0  0  0  0  0  0  0  0  0  0  0
   58.1580   32.5570   52.9840 C   0  0  0  0  0  0  0  0  0  0  0  0
   57.5330   31.6150   52.1650 C   0  0  0  0  0  0  0  0  0  0  0  0
   57.7640   31.6210   50.7850 C   0  0  0  0  0  0  0  0  0  0  0  0
   59.3030   34.6850   48.5980 H   0  0  0  0  0  0  0  0  0  0  0  0
   59.0156   35.0074   46.3379 H   0  0  0  0  0  0  0  0  0  0  0  0
   60.3041   32.5547   45.4015 H   0  0  0  0  0  0  0  0  0  0  0  0
   60.8815   34.2715   45.3671 H   0  0  0  0  0  0  0  0  0  0  0  0
   61.6522   35.2261   47.7316 H   0  0  0  0  0  0  0  0  0  0  0  0
   63.3532   34.7214   49.4851 H   0  0  0  0  0  0  0  0  0  0  0  0
   64.1482   32.3784   49.8217 H   0  0  0  0  0  0  0  0  0  0  0  0
   63.2420   30.5363   48.3992 H   0  0  0  0  0  0  0  0  0  0  0  0
   61.5432   31.0327   46.6421 H   0  0  0  0  0  0  0  0  0  0  0  0
   58.7072   29.9336   46.3442 H   0  0  0  0  0  0  0  0  0  0  0  0
   57.3206   27.8559   46.2834 H   0  0  0  0  0  0  0  0  0  0  0  0
   54.6023   29.6706   43.5515 H   0  0  0  0  0  0  0  0  0  0  0  0
   55.9335   31.7865   43.5696 H   0  0  0  0  0  0  0  0  0  0  0  0
   59.9424   34.2569   50.6168 H   0  0  0  0  0  0  0  0  0  0  0  0
   59.5156   34.2437   53.0737 H   0  0  0  0  0  0  0  0  0  0  0  0
   57.9710   32.5536   54.0680 H   0  0  0  0  0  0  0  0  0  0  0  0
   56.8577   30.8666   52.6053 H   0  0  0  0  0  0  0  0  0  0  0  0
   57.2710   30.8745   50.1450 H   0  0  0  0  0  0  0  0  0  0  0  0
  1  2  2  0
  2  3  1  0
  3  4  1  0
  4  5  1  0
  5  6  1  0
  6  7  2  0
  7  8  1  0
  8  9  2  0
  9 10  1  0
 10 11  2  0
  4 12  1  0
 12 13  2  0
 12 14  1  0
 14 15  2  3
 15 16  1  0
 16 17  2  0
 17 18  1  0
 18 19  1  0
 19 20  2  0
  2 21  1  0
 21 22  2  0
 22 23  1  0
 23 24  2  0
 24 25  1  0
 25 26  2  0
 11  6  1  0
 20 15  1  0
 26 21  1  0
  3 27  1  0
  4 28  1  1
  5 29  1  0
  5 30  1  0
  7 31  1  0
  8 32  1  0
  9 33  1  0
 10 34  1  0
 11 35  1  0
 16 36  1  0
 17 37  1  0
 19 38  1  0
 20 39  1  0
 22 40  1  0
 23 41  1  0
 24 42  1  0
 25 43  1  0
 26 44  1  0
M  CHG  1  18  -1
M  END
>  <UniqueID>  (26) 
25

>  <SMILES>  (26) 
O=C(N[C@@H](Cc1ccccc1)C(=O)N=c1cc[n-]cc1)c1ccccc1

>  <Energy>  (26) 
55.69495216562819

>  <Genealogy>  (26) 
O=C(NC(Cc1ccccc1)C(=O)N=c1cc[n-]cc1)c1ccccc1 (protonated)
O=C(N[C@@H](Cc1ccccc1)C(=O)N=c1cc[n-]cc1)c1ccccc1 (chirality)
O=C(N[C@@H](Cc1ccccc1)C(=O)N=c1cc[n-]cc1)c1ccccc1 (3D coordinates assigned)
O=C(N[C@@H](Cc1ccccc1)C(=O)N=c1cc[n-]cc1)c1ccccc1 (optimized conformer: 55.69495216562819 kcal/mol)

>  <smiles>  (26) 
O=C(NC(Cc1ccccc1)C(=O)N=c1cc[nH]cc1)c1ccccc1

>  <score_type>  (26) 
oracle

>  <origin>  (26) 
adg

>  <m_score__min__energy>  (26) 
-9.6799999999999997

>  <m_primary>  (26) 
energy

$$$$
26:0
     RDKit          3D

 40 42  0  0  0  0  0  0  0  0999 V2000
   51.0280   32.3290   50.3730 O   0  0  0  0  0  0  0  0  0  0  0  0
   51.0790   32.3620   51.6300 C   0  0  0  0  0  0  0  0  0  0  0  0
   50.6150   33.4820   52.3090 O   0  0  0  0  0  0  0  0  0  0  0  0
   51.6770   31.2180   52.3920 C   0  0  0  0  0  0  0  0  0  0  0  0
   52.6070   30.3780   51.5100 C   0  0  0  0  0  0  0  0  0  0  0  0
   54.0230   30.4350   51.9940 C   0  0  0  0  0  0  0  0  0  0  0  0
   54.5230   29.7960   53.1120 C   0  0  0  0  0  0  0  0  0  0  0  0
   55.8650   30.1070   53.1510 C   0  0  0  0  0  0  0  0  0  0  0  0
   56.1010   30.9160   52.0500 C   0  0  0  0  0  0  0  0  0  0  0  0
   57.3940   31.5150   51.6450 C   0  0  0  0  0  0  0  0  0  0  0  0
   57.6790   32.8500   51.9550 C   0  0  0  0  0  0  0  0  0  0  0  0
   58.8630   33.3990   51.5850 N   0  0  0  0  0  0  0  0  0  0  0  0
   59.7960   32.6740   50.9110 C   0  0  0  0  0  0  0  0  0  0  0  0
   61.0170   33.2480   50.5370 O   0  0  0  0  0  0  0  0  0  0  0  0
   61.1620   34.1420   49.4350 C   0  0  0  0  0  0  0  0  0  0  0  0
   60.2810   33.7170   48.2910 C   0  0  0  0  0  0  0  0  0  0  0  0
   60.4310   32.4500   47.7030 C   0  0  0  0  0  0  0  0  0  0  0  0
   59.5940   32.0570   46.6540 C   0  0  0  0  0  0  0  0  0  0  0  0
   58.6020   32.9240   46.1880 C   0  0  0  0  0  0  0  0  0  0  0  0
   58.4460   34.1860   46.7690 C   0  0  0  0  0  0  0  0  0  0  0  0
   59.2810   34.5820   47.8190 C   0  0  0  0  0  0  0  0  0  0  0  0
   59.5420   31.3770   50.5950 N   0  0  0  0  0  0  0  0  0  0  0  0
   58.3680   30.7860   50.9460 C   0  0  0  0  0  0  0  0  0  0  0  0
   54.9820   31.0890   51.3830 O   0  0  0  0  0  0  0  0  0  0  0  0
   52.2529   31.6163   53.2403 H   0  0  0  0  0  0  0  0  0  0  0  0
   50.8583   30.5721   52.7420 H   0  0  0  0  0  0  0  0  0  0  0  0
   52.2659   29.3323   51.5255 H   0  0  0  0  0  0  0  0  0  0  0  0
   52.5750   30.7857   50.4888 H   0  0  0  0  0  0  0  0  0  0  0  0
   53.9656   29.1690   53.8235 H   0  0  0  0  0  0  0  0  0  0  0  0
   56.5990   29.7801   53.9022 H   0  0  0  0  0  0  0  0  0  0  0  0
   56.9404   33.4558   52.5004 H   0  0  0  0  0  0  0  0  0  0  0  0
   60.8788   35.1564   49.7523 H   0  0  0  0  0  0  0  0  0  0  0  0
   62.2100   34.1274   49.1010 H   0  0  0  0  0  0  0  0  0  0  0  0
   61.2096   31.7646   48.0691 H   0  0  0  0  0  0  0  0  0  0  0  0
   59.7165   31.0647   46.1953 H   0  0  0  0  0  0  0  0  0  0  0  0
   57.9435   32.6133   45.3635 H   0  0  0  0  0  0  0  0  0  0  0  0
   57.6659   34.8682   46.4001 H   0  0  0  0  0  0  0  0  0  0  0  0
   59.1537   35.5743   48.2764 H   0  0  0  0  0  0  0  0  0  0  0  0
   60.2590   30.8210   50.0770 H   0  0  0  0  0  0  0  0  0  0  0  0
   58.1820   29.7346   50.6813 H   0  0  0  0  0  0  0  0  0  0  0  0
  1  2  2  0
  2  3  1  0
  2  4  1  0
  4  5  1  0
  5  6  1  0
  6  7  2  0
  7  8  1  0
  8  9  2  0
  9 10  1  0
 10 11  2  0
 11 12  1  0
 12 13  2  0
 13 14  1  0
 14 15  1  0
 15 16  1  0
 16 17  2  0
 17 18  1  0
 18 19  2  0
 19 20  1  0
 20 21  2  0
 13 22  1  0
 22 23  2  0
  9 24  1  0
 24  6  1  0
 23 10  1  0
 21 16  1  0
  4 25  1  0
  4 26  1  0
  5 27  1  0
  5 28  1  0
  7 29  1  0
  8 30  1  0
 11 31  1  0
 15 32  1  0
 15 33  1  0
 17 34  1  0
 18 35  1  0
 19 36  1  0
 20 37  1  0
 21 38  1  0
 22 39  1  0
 23 40  1  0
M  CHG  2   3  -1  22   1
M  END
>  <UniqueID>  (27) 
26

>  <SMILES>  (27) 
O=C([O-])CCc1ccc(-c2cnc(OCc3ccccc3)[nH+]c2)o1

>  <Energy>  (27) 
63.57492650586943

>  <Genealogy>  (27) 
O=C([O-])CCc1ccc(-c2cnc(OCc3ccccc3)[nH+]c2)o1 (protonated)
O=C([O-])CCc1ccc(-c2cnc(OCc3ccccc3)[nH+]c2)o1 (3D coordinates assigned)
O=C([O-])CCc1ccc(-c2cnc(OCc3ccccc3)[nH+]c2)o1 (optimized conformer: 63.57492650586943 kcal/mol)

>  <smiles>  (27) 
O=C(O)CCc1ccc(-c2cnc(OCc3ccccc3)nc2)o1

>  <score_type>  (27) 
oracle

>  <origin>  (27) 
adg

>  <m_score__min__energy>  (27) 
-10.050000000000001

>  <m_primary>  (27) 
energy

$$$$
27:0
     RDKit          3D

 32 33  0  0  0  0  0  0  0  0999 V2000
   60.0785   28.6847   49.5927 H   0  0  0  0  0  0  0  0  0  0  0  0
   59.9150   28.4620   48.5280 C   0  0  0  0  0  0  0  0  0  0  0  0
   59.4113   29.1973   47.8834 H   0  0  0  0  0  0  0  0  0  0  0  0
   60.3280   27.2990   48.0180 C   0  0  0  0  0  0  0  0  0  0  0  0
   60.8302   26.5738   48.6752 H   0  0  0  0  0  0  0  0  0  0  0  0
   60.1240   26.9550   46.5670 C   0  0  0  0  0  0  0  0  0  0  0  0
   60.9396   27.3941   45.9737 H   0  0  0  0  0  0  0  0  0  0  0  0
   60.1210   25.8602   46.4601 H   0  0  0  0  0  0  0  0  0  0  0  0
   58.8330   27.4830   46.0820 N   0  0  0  0  0  0  0  0  0  0  0  0
   57.6560   26.8520   46.4030 C   0  0  0  0  0  0  0  0  0  0  0  0
   57.6530   25.8000   47.0980 O   0  0  0  0  0  0  0  0  0  0  0  0
   56.4710   27.3580   45.9800 N   0  0  0  0  0  0  0  0  0  0  0  0
   56.4020   28.4830   45.2310 C   0  0  0  0  0  0  0  0  0  0  0  0
   55.1540   28.9760   44.8710 O   0  0  0  0  0  0  0  0  0  0  0  0
   57.5820   29.1480   44.8620 C   0  0  0  0  0  0  0  0  0  0  0  0
   57.5640   30.3920   44.0520 C   0  0  0  0  0  0  0  0  0  0  0  0
   58.0084   30.3741   43.0459 H   0  0  0  0  0  0  0  0  0  0  0  0
   57.0270   31.5370   44.4990 C   0  0  0  0  0  0  0  0  0  0  0  0
   55.9598   31.7180   44.3035 H   0  0  0  0  0  0  0  0  0  0  0  0
   57.7850   32.5740   45.2410 C   0  0  0  0  0  0  0  0  0  0  0  0
   58.3640   33.6300   44.5160 C   0  0  0  0  0  0  0  0  0  0  0  0
   58.2421   33.6720   43.4236 H   0  0  0  0  0  0  0  0  0  0  0  0
   59.0930   34.6270   45.1700 C   0  0  0  0  0  0  0  0  0  0  0  0
   59.5338   35.4529   44.5924 H   0  0  0  0  0  0  0  0  0  0  0  0
   59.2630   34.5770   46.5550 C   0  0  0  0  0  0  0  0  0  0  0  0
   59.8337   35.3646   47.0688 H   0  0  0  0  0  0  0  0  0  0  0  0
   58.7070   33.5250   47.2870 C   0  0  0  0  0  0  0  0  0  0  0  0
   58.8453   33.4828   48.3775 H   0  0  0  0  0  0  0  0  0  0  0  0
   57.9750   32.5250   46.6380 C   0  0  0  0  0  0  0  0  0  0  0  0
   57.5454   31.6963   47.2199 H   0  0  0  0  0  0  0  0  0  0  0  0
   58.8030   28.6310   45.3290 C   0  0  0  0  0  0  0  0  0  0  0  0
   59.8790   29.2270   45.0420 O   0  0  0  0  0  0  0  0  0  0  0  0
  1  2  1  0
  2  3  1  0
  2  4  2  0
  4  5  1  0
  4  6  1  0
  6  7  1  0
  6  8  1  0
  6  9  1  0
  9 10  1  0
 10 11  2  0
 10 12  1  0
 12 13  1  0
 13 14  1  0
 13 15  2  0
 15 16  1  0
 16 17  1  0
 16 18  2  0
 18 19  1  0
 18 20  1  0
 20 21  2  0
 21 22  1  0
 21 23  1  0
 23 24  1  0
 23 25  2  0
 25 26  1  0
 25 27  1  0
 27 28  1  0
 27 29  2  0
 29 30  1  0
 15 31  1  0
 31 32  2  0
 31  9  1  0
 29 20  1  0
M  CHG  2  12  -1  14  -1
M  END
>  <UniqueID>  (28) 
27

>  <SMILES>  (28) 
C=CCn1c(=O)[n-]c([O-])c(/C=C/c2ccccc2)c1=O

>  <Energy>  (28) 
42.58125530898985

>  <Genealogy>  (28) 
C=CCn1c(=O)[n-]c([O-])c(C=Cc2ccccc2)c1=O (protonated)
C=CCn1c(=O)[n-]c([O-])c(/C=C/c2ccccc2)c1=O (cis-trans isomerization)
C=CCn1c(=O)[n-]c([O-])c(/C=C/c2ccccc2)c1=O (3D coordinates assigned)
C=CCn1c(=O)[n-]c([O-])c(/C=C/c2ccccc2)c1=O (optimized conformer: 42.58125530898985 kcal/mol)

>  <smiles>  (28) 
C=CCn1c(=O)[nH]c(O)c(C=Cc2ccccc2)c1=O

>  <score_type>  (28) 
oracle

>  <origin>  (28) 
adg

>  <m_score__min__energy>  (28) 
-12.08

>  <m_primary>  (28) 
energy

$$$$
28:0
     RDKit          3D

 47 49  0  0  0  0  0  0  0  0999 V2000
   52.7980   20.9240   46.9860 C   0  0  0  0  0  0  0  0  0  0  0  0
   52.7900   21.4860   45.6990 O   0  0  0  0  0  0  0  0  0  0  0  0
   52.8610   22.8320   45.8700 N   0  0  0  0  0  0  0  0  0  0  0  0
   53.4750   23.7000   44.9110 C   0  0  0  0  0  0  0  0  0  0  0  0
   52.8090   24.0550   43.9030 O   0  0  0  0  0  0  0  0  0  0  0  0
   54.8690   24.1750   45.0720 C   0  0  0  0  0  0  0  0  0  0  0  0
   55.9400   23.3530   44.6870 C   0  0  0  0  0  0  0  0  0  0  0  0
   57.2650   23.7920   44.8200 C   0  0  0  0  0  0  0  0  0  0  0  0
   58.4050   22.8930   44.4250 C   0  0  0  0  0  0  0  0  0  0  0  0
   57.8760   21.5960   43.8040 C   0  0  0  0  0  0  0  0  0  0  0  0
   57.2440   20.7260   44.8570 C   0  0  0  0  0  0  0  0  0  0  0  0
   57.7490   20.7180   46.1670 C   0  0  0  0  0  0  0  0  0  0  0  0
   57.1400   19.9330   47.1520 C   0  0  0  0  0  0  0  0  0  0  0  0
   56.0180   19.1610   46.8380 C   0  0  0  0  0  0  0  0  0  0  0  0
   55.5010   19.1750   45.5400 C   0  0  0  0  0  0  0  0  0  0  0  0
   56.1060   19.9580   44.5520 C   0  0  0  0  0  0  0  0  0  0  0  0
   57.5210   25.0470   45.3890 C   0  0  0  0  0  0  0  0  0  0  0  0
   56.4690   25.8660   45.8180 C   0  0  0  0  0  0  0  0  0  0  0  0
   56.7760   27.1480   46.3920 N   0  0  0  0  0  0  0  0  0  0  0  0
   57.3480   28.2470   45.6650 C   0  0  0  0  0  0  0  0  0  0  0  0
   58.7330   28.4700   45.7440 C   0  0  0  0  0  0  0  0  0  0  0  0
   59.3190   29.5340   45.0540 C   0  0  0  0  0  0  0  0  0  0  0  0
   58.5280   30.3940   44.2900 C   0  0  0  0  0  0  0  0  0  0  0  0
   57.1470   30.1990   44.2240 C   0  0  0  0  0  0  0  0  0  0  0  0
   56.5500   29.1380   44.9150 C   0  0  0  0  0  0  0  0  0  0  0  0
   55.1680   28.9950   44.8710 O   0  0  0  0  0  0  0  0  0  0  0  0
   55.1380   25.4410   45.6320 C   0  0  0  0  0  0  0  0  0  0  0  0
   54.0840   26.2870   45.9700 O   0  0  0  0  0  0  0  0  0  0  0  0
   52.7866   21.7276   47.7371 H   0  0  0  0  0  0  0  0  0  0  0  0
   51.9088   20.2893   47.1145 H   0  0  0  0  0  0  0  0  0  0  0  0
   53.7049   20.3149   47.1145 H   0  0  0  0  0  0  0  0  0  0  0  0
   55.7373   22.3529   44.2762 H   0  0  0  0  0  0  0  0  0  0  0  0
   59.0387   23.4132   43.6916 H   0  0  0  0  0  0  0  0  0  0  0  0
   58.9895   22.6446   45.3231 H   0  0  0  0  0  0  0  0  0  0  0  0
   57.1249   21.8413   43.0387 H   0  0  0  0  0  0  0  0  0  0  0  0
   58.7165   21.0507   43.3499 H   0  0  0  0  0  0  0  0  0  0  0  0
   58.6266   21.3311   46.4198 H   0  0  0  0  0  0  0  0  0  0  0  0
   57.5447   19.9234   48.1748 H   0  0  0  0  0  0  0  0  0  0  0  0
   55.5419   18.5423   47.6129 H   0  0  0  0  0  0  0  0  0  0  0  0
   54.6164   18.5689   45.2949 H   0  0  0  0  0  0  0  0  0  0  0  0
   55.6907   19.9733   43.5335 H   0  0  0  0  0  0  0  0  0  0  0  0
   58.5594   25.3925   45.4998 H   0  0  0  0  0  0  0  0  0  0  0  0
   56.5630   27.2910   47.4060 H   0  0  0  0  0  0  0  0  0  0  0  0
   59.3600   27.8024   46.3532 H   0  0  0  0  0  0  0  0  0  0  0  0
   60.4056   29.6945   45.1128 H   0  0  0  0  0  0  0  0  0  0  0  0
   58.9928   31.2254   43.7399 H   0  0  0  0  0  0  0  0  0  0  0  0
   56.5254   30.8821   43.6264 H   0  0  0  0  0  0  0  0  0  0  0  0
  1  2  1  0
  2  3  1  0
  3  4  1  0
  4  5  2  0
  4  6  1  0
  6  7  2  0
  7  8  1  0
  8  9  1  0
  9 10  1  0
 10 11  1  0
 11 12  2  0
 12 13  1  0
 13 14  2  0
 14 15  1  0
 15 16  2  0
  8 17  2  0
 17 18  1  0
 18 19  1  0
 19 20  1  0
 20 21  2  0
 21 22  1  0
 22 23  2  0
 23 24  1  0
 24 25  2  0
 25 26  1  0
 18 27  2  0
 27 28  1  0
 27  6  1  0
 16 11  1  0
 25 20  1  0
  1 29  1  0
  1 30  1  0
  1 31  1  0
  7 32  1  0
  9 33  1  0
  9 34  1  0
 10 35  1  0
 10 36  1  0
 12 37  1  0
 13 38  1  0
 14 39  1  0
 15 40  1  0
 16 41  1  0
 17 42  1  0
 19 43  1  0
 21 44  1  0
 22 45  1  0
 23 46  1  0
 24 47  1  0
M  CHG  3   3  -1  26  -1  28  -1
M  END
>  <UniqueID>  (29) 
28

>  <SMILES>  (29) 
CO[N-]C(=O)c1cc(CCc2ccccc2)cc(Nc2ccccc2[O-])c1[O-]

>  <Energy>  (29) 
57.086051413500435

>  <Genealogy>  (29) 
CO[N-]C(=O)c1cc(CCc2ccccc2)cc(Nc2ccccc2[O-])c1[O-] (protonated)
CO[N-]C(=O)c1cc(CCc2ccccc2)cc(Nc2ccccc2[O-])c1[O-] (3D coordinates assigned)
CO[N-]C(=O)c1cc(CCc2ccccc2)cc(Nc2ccccc2[O-])c1[O-] (optimized conformer: 57.086051413500435 kcal/mol)

>  <smiles>  (29) 
CONC(=O)c1cc(CCc2ccccc2)cc(Nc2ccccc2O)c1O

>  <score_type>  (29) 
oracle

>  <origin>  (29) 
adg

>  <m_score__min__energy>  (29) 
-16.309999999999999

>  <m_primary>  (29) 
energy

$$$$
29:0
     RDKit          3D

 35 37  0  0  0  0  0  0  0  0999 V2000
   54.1052   29.1708   51.9726 H   0  0  0  0  0  0  0  0  0  0  0  0
   54.3760   30.2360   52.0170 C   0  0  0  0  0  0  0  0  0  0  0  0
   55.8070   30.5720   52.1050 C   0  0  0  0  0  0  0  0  0  0  0  0
   56.6490   29.7430   51.6710 O   0  0  0  0  0  0  0  0  0  0  0  0
   56.2730   31.8270   52.6210 N   0  0  0  0  0  0  0  0  0  0  0  0
   57.2150   32.7190   51.9510 C   0  0  0  0  0  0  0  0  0  0  0  0
   56.8146   32.9918   50.9634 H   0  0  0  0  0  0  0  0  0  0  0  0
   57.3512   33.6192   52.5683 H   0  0  0  0  0  0  0  0  0  0  0  0
   58.5710   32.0340   51.7720 C   0  0  0  0  0  0  0  0  0  0  0  0
   59.0630   31.9437   52.7517 H   0  0  0  0  0  0  0  0  0  0  0  0
   58.4111   31.0375   51.3345 H   0  0  0  0  0  0  0  0  0  0  0  0
   59.4450   32.8320   50.8530 C   0  0  0  0  0  0  0  0  0  0  0  0
   60.6680   33.4130   51.1730 C   0  0  0  0  0  0  0  0  0  0  0  0
   61.1228   33.4065   52.1745 H   0  0  0  0  0  0  0  0  0  0  0  0
   61.2190   33.9870   50.0790 N   0  0  0  0  0  0  0  0  0  0  0  0
   62.1340   34.4870   50.0290 H   0  0  0  0  0  0  0  0  0  0  0  0
   60.3610   33.7590   49.0690 C   0  0  0  0  0  0  0  0  0  0  0  0
   60.5050   34.1410   47.7350 C   0  0  0  0  0  0  0  0  0  0  0  0
   61.3853   34.7086   47.3990 H   0  0  0  0  0  0  0  0  0  0  0  0
   59.4880   33.7770   46.8330 C   0  0  0  0  0  0  0  0  0  0  0  0
   59.5672   34.0659   45.7746 H   0  0  0  0  0  0  0  0  0  0  0  0
   58.3660   33.0430   47.2780 C   0  0  0  0  0  0  0  0  0  0  0  0
   57.5791   32.7610   46.5629 H   0  0  0  0  0  0  0  0  0  0  0  0
   58.2480   32.6700   48.6300 C   0  0  0  0  0  0  0  0  0  0  0  0
   57.3798   32.0972   48.9879 H   0  0  0  0  0  0  0  0  0  0  0  0
   59.2690   33.0510   49.5010 C   0  0  0  0  0  0  0  0  0  0  0  0
   53.3790   31.1310   51.9870 C   0  0  0  0  0  0  0  0  0  0  0  0
   53.2912   31.8182   52.8415 H   0  0  0  0  0  0  0  0  0  0  0  0
   52.3890   31.2700   50.9010 C   0  0  0  0  0  0  0  0  0  0  0  0
   52.2740   30.3800   49.9000 N   0  0  0  0  0  0  0  0  0  0  0  0
   51.2380   30.8500   49.1740 C   0  0  0  0  0  0  0  0  0  0  0  0
   50.8280   30.2810   48.1290 O   0  0  0  0  0  0  0  0  0  0  0  0
   50.6680   31.9730   49.6610 N   0  0  0  0  0  0  0  0  0  0  0  0
   51.3990   32.2210   50.7600 C   0  0  0  0  0  0  0  0  0  0  0  0
   51.1300   33.2650   51.6350 O   0  0  0  0  0  0  0  0  0  0  0  0
  1  2  1  0
  2  3  1  0
  3  4  2  0
  3  5  1  0
  5  6  1  0
  6  7  1  0
  6  8  1  0
  6  9  1  0
  9 10  1  0
  9 11  1  0
  9 12  1  0
 12 13  2  0
 13 14  1  0
 13 15  1  0
 15 16  1  0
 15 17  1  0
 17 18  2  0
 18 19  1  0
 18 20  1  0
 20 21  1  0
 20 22  2  0
 22 23  1  0
 22 24  1  0
 24 25  1  0
 24 26  2  0
  2 27  2  0
 27 28  1  0
 27 29  1  0
 29 30  1  0
 30 31  1  0
 31 32  2  0
 31 33  1  0
 33 34  1  0
 34 35  1  0
 26 12  1  0
 34 29  2  0
 26 17  1  0
M  CHG  4   5  -1  30  -1  33  -1  35  -1
M  END
>  <UniqueID>  (30) 
29

>  <SMILES>  (30) 
O=C(/C=C\c1[n-]c(=O)[n-]c1[O-])[N-]CCc1c[nH]c2ccccc12

>  <Energy>  (30) 
105.50670327630536

>  <Genealogy>  (30) 
O=C(C=Cc1[n-]c(=O)[n-]c1[O-])[N-]CCc1c[nH]c2ccccc12 (protonated)
O=C(/C=C\c1[n-]c(=O)[n-]c1[O-])[N-]CCc1c[nH]c2ccccc12 (cis-trans isomerization)
O=C(/C=C\c1[n-]c(=O)[n-]c1[O-])[N-]CCc1c[nH]c2ccccc12 (3D coordinates assigned)
O=C(/C=C\c1[n-]c(=O)[n-]c1[O-])[N-]CCc1c[nH]c2ccccc12 (optimized conformer: 105.50670327630536 kcal/mol)

>  <smiles>  (30) 
O=C(C=Cc1[nH]c(=O)[nH]c1O)NCCc1c[nH]c2ccccc12

>  <score_type>  (30) 
oracle

>  <origin>  (30) 
adg

>  <m_score__min__energy>  (30) 
-17.940000000000001

>  <m_primary>  (30) 
energy

$$$$
30:0
     RDKit          3D

 66 68  0  0  0  0  0  0  0  0999 V2000
   55.5110   28.1280   52.3940 H   0  0  0  0  0  0  0  0  0  0  0  0
   54.7170   27.7800   52.8750 O   0  0  0  0  0  0  0  0  0  0  0  0
   54.0090   28.8970   53.3350 C   0  0  0  0  0  0  0  0  0  0  0  0
   54.3264   29.1350   54.3610 H   0  0  0  0  0  0  0  0  0  0  0  0
   52.9313   28.6767   53.3258 H   0  0  0  0  0  0  0  0  0  0  0  0
   54.2880   30.0750   52.4370 C   0  0  0  0  0  0  0  0  0  0  0  0
   55.3570   30.1590   51.6910 N   0  0  0  0  0  0  0  0  0  0  0  0
   56.7310   29.9620   52.0710 C   0  0  0  0  0  0  0  0  0  0  0  0
   57.0340   29.4280   53.1720 O   0  0  0  0  0  0  0  0  0  0  0  0
   57.8160   30.4410   51.1420 C   0  0  2  0  0  0  0  0  0  0  0  0
   57.3247   30.9832   50.3206 H   0  0  0  0  0  0  0  0  0  0  0  0
   58.5510   29.3200   50.5530 N   0  0  0  0  0  0  0  0  0  0  0  0
   59.6190   29.3930   49.5970 C   0  0  0  0  0  0  0  0  0  0  0  0
   60.8110   29.5470   49.9720 O   0  0  0  0  0  0  0  0  0  0  0  0
   59.3080   29.2230   48.1340 C   0  0  1  0  0  0  0  0  0  0  0  0
   58.3016   28.7892   48.0392 H   0  0  0  0  0  0  0  0  0  0  0  0
   59.3530   30.5360   47.4770 N   0  0  0  0  0  0  0  0  0  0  0  0
   60.1980   31.1290   47.6430 H   0  0  0  0  0  0  0  0  0  0  0  0
   58.3840   30.9650   46.5040 C   0  0  0  0  0  0  0  0  0  0  0  0
   57.4950   30.1600   46.1080 O   0  0  0  0  0  0  0  0  0  0  0  0
   58.4280   32.3340   45.9370 C   0  0  0  0  0  0  0  0  0  0  0  0
   59.6400   33.0490   45.9160 C   0  0  0  0  0  0  0  0  0  0  0  0
   60.5540   32.5869   46.3173 H   0  0  0  0  0  0  0  0  0  0  0  0
   59.6900   34.3440   45.3880 C   0  0  0  0  0  0  0  0  0  0  0  0
   60.6396   34.8992   45.3846 H   0  0  0  0  0  0  0  0  0  0  0  0
   58.5380   34.9320   44.8660 C   0  0  0  0  0  0  0  0  0  0  0  0
   58.5793   35.9511   44.4541 H   0  0  0  0  0  0  0  0  0  0  0  0
   57.3330   34.2280   44.8660 C   0  0  0  0  0  0  0  0  0  0  0  0
   56.4268   34.6912   44.4485 H   0  0  0  0  0  0  0  0  0  0  0  0
   57.2750   32.9340   45.3960 C   0  0  0  0  0  0  0  0  0  0  0  0
   56.3232   32.3826   45.3898 H   0  0  0  0  0  0  0  0  0  0  0  0
   60.3010   28.2470   47.4480 C   0  0  0  0  0  0  0  0  0  0  0  0
   61.3135   28.5974   47.6971 H   0  0  0  0  0  0  0  0  0  0  0  0
   60.1090   28.2570   45.9240 C   0  0  0  0  0  0  0  0  0  0  0  0
   59.0356   28.3129   45.6900 H   0  0  0  0  0  0  0  0  0  0  0  0
   60.6237   29.1296   45.4953 H   0  0  0  0  0  0  0  0  0  0  0  0
   60.5302   27.3357   45.4953 H   0  0  0  0  0  0  0  0  0  0  0  0
   60.1410   26.8060   47.9660 C   0  0  0  0  0  0  0  0  0  0  0  0
   60.1414   26.8096   49.0660 H   0  0  0  0  0  0  0  0  0  0  0  0
   59.1910   26.3885   47.6010 H   0  0  0  0  0  0  0  0  0  0  0  0
   60.9763   26.1903   47.6010 H   0  0  0  0  0  0  0  0  0  0  0  0
   58.7670   31.4310   51.8400 C   0  0  0  0  0  0  0  0  0  0  0  0
   58.1783   32.0967   52.4883 H   0  0  0  0  0  0  0  0  0  0  0  0
   59.4944   30.8552   52.4310 H   0  0  0  0  0  0  0  0  0  0  0  0
   59.5230   32.2650   50.8370 C   0  0  0  0  0  0  0  0  0  0  0  0
   58.8300   32.9550   49.8280 C   0  0  0  0  0  0  0  0  0  0  0  0
   57.7361   32.8651   49.7548 H   0  0  0  0  0  0  0  0  0  0  0  0
   59.5260   33.7560   48.9160 C   0  0  0  0  0  0  0  0  0  0  0  0
   58.9796   34.2899   48.1246 H   0  0  0  0  0  0  0  0  0  0  0  0
   60.9140   33.8780   49.0100 C   0  0  0  0  0  0  0  0  0  0  0  0
   61.4614   34.4983   48.2850 H   0  0  0  0  0  0  0  0  0  0  0  0
   61.6080   33.2130   50.0240 C   0  0  0  0  0  0  0  0  0  0  0  0
   62.6998   33.3207   50.1040 H   0  0  0  0  0  0  0  0  0  0  0  0
   60.9170   32.4110   50.9370 C   0  0  0  0  0  0  0  0  0  0  0  0
   61.4664   31.8924   51.7365 H   0  0  0  0  0  0  0  0  0  0  0  0
   53.3330   31.2340   52.4310 C   0  0  0  0  0  0  0  0  0  0  0  0
   52.7241   31.2064   53.3467 H   0  0  0  0  0  0  0  0  0  0  0  0
   53.9090   32.1701   52.3876 H   0  0  0  0  0  0  0  0  0  0  0  0
   52.4310   31.1630   51.2360 C   0  0  0  0  0  0  0  0  0  0  0  0
   51.3980   32.0190   50.9180 C   0  0  0  0  0  0  0  0  0  0  0  0
   51.0180   33.1250   51.6640 O   0  0  0  0  0  0  0  0  0  0  0  0
   50.7900   31.6550   49.7730 N   0  0  0  0  0  0  0  0  0  0  0  0
   51.4390   30.5460   49.3650 C   0  0  0  0  0  0  0  0  0  0  0  0
   51.1947   29.9827   48.4523 H   0  0  0  0  0  0  0  0  0  0  0  0
   52.4530   30.2090   50.2450 C   0  0  0  0  0  0  0  0  0  0  0  0
   53.1379   29.3517   50.1676 H   0  0  0  0  0  0  0  0  0  0  0  0
  1  2  1  0
  2  3  1  0
  3  4  1  0
  3  5  1  0
  3  6  1  0
  6  7  2  0
  7  8  1  0
  8  9  2  0
  8 10  1  0
 10 11  1  6
 10 12  1  0
 12 13  1  0
 13 14  2  0
 13 15  1  0
 15 16  1  1
 15 17  1  0
 17 18  1  0
 17 19  1  0
 19 20  2  0
 19 21  1  0
 21 22  2  0
 22 23  1  0
 22 24  1  0
 24 25  1  0
 24 26  2  0
 26 27  1  0
 26 28  1  0
 28 29  1  0
 28 30  2  0
 30 31  1  0
 15 32  1  0
 32 33  1  0
 32 34  1  0
 34 35  1  0
 34 36  1  0
 34 37  1  0
 32 38  1  0
 38 39  1  0
 38 40  1  0
 38 41  1  0
 10 42  1  0
 42 43  1  0
 42 44  1  0
 42 45  1  0
 45 46  2  0
 46 47  1  0
 46 48  1  0
 48 49  1  0
 48 50  2  0
 50 51  1  0
 50 52  1  0
 52 53  1  0
 52 54  2  0
 54 55  1  0
  6 56  1  0
 56 57  1  0
 56 58  1  0
 56 59  1  0
 59 60  2  0
 60 61  1  0
 60 62  1  0
 62 63  1  0
 63 64  1  0
 63 65  2  0
 65 66  1  0
 30 21  1  0
 54 45  1  0
 65 59  1  0
M  CHG  3  12  -1  61  -1  62  -1
M  END
>  <UniqueID>  (31) 
30

>  <SMILES>  (31) 
CC(C)[C@H](NC(=O)c1ccccc1)C(=O)[N-][C@H](Cc1ccccc1)C(=O)/N=C(\CO)Cc1cc[n-]c1[O-]

>  <Energy>  (31) 
84.08310363704457

>  <Genealogy>  (31) 
CC(C)C(NC(=O)c1ccccc1)C(=O)[N-]C(Cc1ccccc1)C(=O)N=C(CO)Cc1cc[n-]c1[O-] (protonated)
CC(C)[C@H](NC(=O)c1ccccc1)C(=O)[N-][C@H](Cc1ccccc1)C(=O)N=C(CO)Cc1cc[n-]c1[O-] (chirality)
CC(C)[C@H](NC(=O)c1ccccc1)C(=O)[N-][C@H](Cc1ccccc1)C(=O)/N=C(\CO)Cc1cc[n-]c1[O-] (cis-trans isomerization)
CC(C)[C@H](NC(=O)c1ccccc1)C(=O)[N-][C@H](Cc1ccccc1)C(=O)/N=C(\CO)Cc1cc[n-]c1[O-] (3D coordinates assigned)
CC(C)[C@H](NC(=O)c1ccccc1)C(=O)[N-][C@H](Cc1ccccc1)C(=O)/N=C(\CO)Cc1cc[n-]c1[O-] (optimized conformer: 84.08310363704457 kcal/mol)

>  <smiles>  (31) 
CC(C)C(NC(=O)c1ccccc1)C(=O)NC(Cc1ccccc1)C(=O)N=C(CO)Cc1cc[nH]c1O

>  <score_type>  (31) 
oracle

>  <origin>  (31) 
adg

>  <m_score__min__energy>  (31) 
-17.43

>  <m_primary>  (31) 
energy

$$$$
31:0
     RDKit          3D

 37 39  0  0  0  0  0  0  0  0999 V2000
   60.3160   27.8780   46.6930 O   0  0  0  0  0  0  0  0  0  0  0  0
   59.2080   28.3300   47.0890 C   0  0  0  0  0  0  0  0  0  0  0  0
   58.1100   28.5610   46.1030 C   0  0  0  0  0  0  0  0  0  0  0  0
   57.1290   27.4320   46.1530 C   0  0  0  0  0  0  0  0  0  0  0  0
   55.8940   27.4820   45.6230 N   0  0  0  0  0  0  0  0  0  0  0  0
   55.3620   26.2880   45.9650 C   0  0  0  0  0  0  0  0  0  0  0  0
   54.1950   25.9470   45.6390 O   0  0  0  0  0  0  0  0  0  0  0  0
   56.1760   25.4890   46.6870 N   0  0  0  0  0  0  0  0  0  0  0  0
   57.2900   26.2330   46.8030 C   0  0  0  0  0  0  0  0  0  0  0  0
   58.4280   25.8290   47.4920 O   0  0  0  0  0  0  0  0  0  0  0  0
   58.9510   28.5240   48.4860 N   0  0  0  0  0  0  0  0  0  0  0  0
   58.8880   29.7810   49.1760 C   0  0  0  0  0  0  0  0  0  0  0  0
   58.5270   29.7850   50.5270 C   0  0  0  0  0  0  0  0  0  0  0  0
   58.4310   30.9880   51.2290 C   0  0  0  0  0  0  0  0  0  0  0  0
   58.6870   32.1990   50.5850 C   0  0  0  0  0  0  0  0  0  0  0  0
   59.0400   32.2190   49.2250 C   0  0  0  0  0  0  0  0  0  0  0  0
   59.2750   33.5030   48.5180 C   0  0  0  0  0  0  0  0  0  0  0  0
   59.8910   34.4250   49.1210 O   0  0  0  0  0  0  0  0  0  0  0  0
   58.8130   33.7400   47.1290 C   0  0  0  0  0  0  0  0  0  0  0  0
   59.6270   34.4510   46.2290 C   0  0  0  0  0  0  0  0  0  0  0  0
   59.1930   34.6940   44.9220 C   0  0  0  0  0  0  0  0  0  0  0  0
   57.9390   34.2420   44.5040 C   0  0  0  0  0  0  0  0  0  0  0  0
   57.1150   33.5500   45.3950 C   0  0  0  0  0  0  0  0  0  0  0  0
   57.5450   33.3040   46.7020 C   0  0  0  0  0  0  0  0  0  0  0  0
   59.1190   31.0040   48.5200 C   0  0  0  0  0  0  0  0  0  0  0  0
   57.5947   29.5020   46.3459 H   0  0  0  0  0  0  0  0  0  0  0  0
   58.5399   28.6203   45.0922 H   0  0  0  0  0  0  0  0  0  0  0  0
   59.0670   26.5140   47.8790 H   0  0  0  0  0  0  0  0  0  0  0  0
   58.3174   28.8346   51.0397 H   0  0  0  0  0  0  0  0  0  0  0  0
   58.1527   30.9811   52.2932 H   0  0  0  0  0  0  0  0  0  0  0  0
   58.6121   33.1429   51.1448 H   0  0  0  0  0  0  0  0  0  0  0  0
   60.6112   34.8183   46.5552 H   0  0  0  0  0  0  0  0  0  0  0  0
   59.8403   35.2422   44.2217 H   0  0  0  0  0  0  0  0  0  0  0  0
   57.6008   34.4307   43.4745 H   0  0  0  0  0  0  0  0  0  0  0  0
   56.1257   33.1980   45.0673 H   0  0  0  0  0  0  0  0  0  0  0  0
   56.8880   32.7661   47.4013 H   0  0  0  0  0  0  0  0  0  0  0  0
   59.3633   31.0103   47.4475 H   0  0  0  0  0  0  0  0  0  0  0  0
  1  2  2  0
  2  3  1  0
  3  4  1  0
  4  5  1  0
  5  6  1  0
  6  7  2  0
  6  8  1  0
  8  9  1  0
  9 10  1  0
  2 11  1  0
 11 12  1  0
 12 13  2  0
 13 14  1  0
 14 15  2  0
 15 16  1  0
 16 17  1  0
 17 18  2  0
 17 19  1  0
 19 20  2  0
 20 21  1  0
 21 22  2  0
 22 23  1  0
 23 24  2  0
 16 25  2  0
  9  4  2  0
 25 12  1  0
 24 19  1  0
  3 26  1  0
  3 27  1  0
 10 28  1  0
 13 29  1  0
 14 30  1  0
 15 31  1  0
 20 32  1  0
 21 33  1  0
 22 34  1  0
 23 35  1  0
 24 36  1  0
 25 37  1  0
M  CHG  3   5  -1   8  -1  11  -1
M  END
>  <UniqueID>  (32) 
31

>  <SMILES>  (32) 
O=C(Cc1[n-]c(=O)[n-]c1O)[N-]c1cccc(C(=O)c2ccccc2)c1

>  <Energy>  (32) 
75.51948383170999

>  <Genealogy>  (32) 
O=C(Cc1[n-]c(=O)[n-]c1O)[N-]c1cccc(C(=O)c2ccccc2)c1 (protonated)
O=C(Cc1[n-]c(=O)[n-]c1O)[N-]c1cccc(C(=O)c2ccccc2)c1 (3D coordinates assigned)
O=C(Cc1[n-]c(=O)[n-]c1O)[N-]c1cccc(C(=O)c2ccccc2)c1 (optimized conformer: 75.51948383170999 kcal/mol)

>  <smiles>  (32) 
O=C(Cc1[nH]c(=O)[nH]c1O)Nc1cccc(C(=O)c2ccccc2)c1

>  <score_type>  (32) 
oracle

>  <origin>  (32) 
adg

>  <m_score__min__energy>  (32) 
-14.69

>  <m_primary>  (32) 
energy

$$$$
32:0
     RDKit          3D

 36 37  0  0  0  0  0  0  0  0999 V2000
   60.3734   33.6224   46.9570 H   0  0  0  0  0  0  0  0  0  0  0  0
   59.5340   33.1220   46.4520 C   0  0  0  0  0  0  0  0  0  0  0  0
   59.1510   31.8270   46.8150 C   0  0  0  0  0  0  0  0  0  0  0  0
   59.8590   31.1000   47.9190 C   0  0  0  0  0  0  0  0  0  0  0  0
   60.3091   30.1811   47.5153 H   0  0  0  0  0  0  0  0  0  0  0  0
   59.1295   30.8551   48.7050 H   0  0  0  0  0  0  0  0  0  0  0  0
   61.1730   32.1430   48.6430 S   0  0  0  0  0  0  0  0  0  0  0  0
   62.4850   31.6190   47.4900 C   0  0  0  0  0  0  0  0  0  0  0  0
   63.3578   31.2704   48.0616 H   0  0  0  0  0  0  0  0  0  0  0  0
   62.1112   30.8012   46.8564 H   0  0  0  0  0  0  0  0  0  0  0  0
   62.7775   32.4693   46.8564 H   0  0  0  0  0  0  0  0  0  0  0  0
   58.1070   31.2330   46.1780 N   0  0  0  0  0  0  0  0  0  0  0  0
   57.4180   31.8750   45.1990 C   0  0  0  0  0  0  0  0  0  0  0  0
   56.4300   31.2600   44.6170 N   0  0  0  0  0  0  0  0  0  0  0  0
   56.2340   29.8430   44.4610 C   0  0  0  0  0  0  0  0  0  0  0  0
   55.1520   29.3420   44.8650 O   0  0  0  0  0  0  0  0  0  0  0  0
   57.2250   28.9470   43.7590 C   0  0  0  0  0  0  0  0  0  0  0  0
   56.6921   28.0725   43.3573 H   0  0  0  0  0  0  0  0  0  0  0  0
   57.6983   29.5262   42.9525 H   0  0  0  0  0  0  0  0  0  0  0  0
   58.3100   28.4710   44.6940 C   0  0  0  0  0  0  0  0  0  0  0  0
   58.0210   27.5320   45.6990 C   0  0  0  0  0  0  0  0  0  0  0  0
   56.9969   27.1459   45.8090 H   0  0  0  0  0  0  0  0  0  0  0  0
   59.0290   27.0860   46.5600 C   0  0  0  0  0  0  0  0  0  0  0  0
   58.7936   26.3594   47.3516 H   0  0  0  0  0  0  0  0  0  0  0  0
   60.3340   27.5620   46.4160 C   0  0  0  0  0  0  0  0  0  0  0  0
   61.1240   27.2163   47.0989 H   0  0  0  0  0  0  0  0  0  0  0  0
   60.6360   28.4770   45.4050 C   0  0  0  0  0  0  0  0  0  0  0  0
   61.6655   28.8463   45.2879 H   0  0  0  0  0  0  0  0  0  0  0  0
   59.6320   28.9240   44.5420 C   0  0  0  0  0  0  0  0  0  0  0  0
   59.8776   29.6345   43.7390 H   0  0  0  0  0  0  0  0  0  0  0  0
   57.7900   33.1300   44.8310 N   0  0  0  0  0  0  0  0  0  0  0  0
   58.8270   33.7660   45.4340 C   0  0  0  0  0  0  0  0  0  0  0  0
   59.2050   35.1490   45.0090 C   0  0  0  0  0  0  0  0  0  0  0  0
   59.3754   35.7724   45.8991 H   0  0  0  0  0  0  0  0  0  0  0  0
   60.1252   35.1092   44.4076 H   0  0  0  0  0  0  0  0  0  0  0  0
   58.3925   35.5827   44.4076 H   0  0  0  0  0  0  0  0  0  0  0  0
  1  2  1  0
  2  3  1  0
  3  4  1  0
  4  5  1  0
  4  6  1  0
  4  7  1  0
  7  8  1  0
  8  9  1  0
  8 10  1  0
  8 11  1  0
  3 12  2  0
 12 13  1  0
 13 14  2  0
 14 15  1  0
 15 16  2  0
 15 17  1  0
 17 18  1  0
 17 19  1  0
 17 20  1  0
 20 21  2  0
 21 22  1  0
 21 23  1  0
 23 24  1  0
 23 25  2  0
 25 26  1  0
 25 27  1  0
 27 28  1  0
 27 29  2  0
 29 30  1  0
 13 31  1  0
 31 32  1  0
 32 33  1  0
 33 34  1  0
 33 35  1  0
 33 36  1  0
 32  2  2  0
 29 20  1  0
M  CHG  1  31  -1
M  END
>  <UniqueID>  (33) 
32

>  <SMILES>  (33) 
CSCc1cc(C)[n-]/c(=N\C(=O)Cc2ccccc2)n1

>  <Energy>  (33) 
34.11485423099329

>  <Genealogy>  (33) 
CSCc1cc(C)[n-]c(=NC(=O)Cc2ccccc2)n1 (protonated)
CSCc1cc(C)[n-]/c(=N\C(=O)Cc2ccccc2)n1 (cis-trans isomerization)
CSCc1cc(C)[n-]/c(=N\C(=O)Cc2ccccc2)n1 (3D coordinates assigned)
CSCc1cc(C)[n-]/c(=N\C(=O)Cc2ccccc2)n1 (optimized conformer: 34.11485423099329 kcal/mol)

>  <smiles>  (33) 
CSCc1cc(C)[nH]c(=NC(=O)Cc2ccccc2)n1

>  <score_type>  (33) 
oracle

>  <origin>  (33) 
adg

>  <m_score__min__energy>  (33) 
-8.5899999999999999

>  <m_primary>  (33) 
energy

$$$$
33:0
     RDKit          3D

 45 47  0  0  0  0  0  0  0  0999 V2000
   54.7690   26.1520   45.9440 N   0  0  0  0  0  0  0  0  0  0  0  0
   55.9410   25.4290   45.5720 C   0  0  0  0  0  0  0  0  0  0  0  0
   55.8110   24.2910   45.0470 O   0  0  0  0  0  0  0  0  0  0  0  0
   57.2900   26.0210   45.7910 C   0  0  0  0  0  0  0  0  0  0  0  0
   58.3720   25.1680   46.0850 C   0  0  0  0  0  0  0  0  0  0  0  0
   59.6490   25.6830   46.3070 C   0  0  0  0  0  0  0  0  0  0  0  0
   59.8730   27.0550   46.2310 C   0  0  0  0  0  0  0  0  0  0  0  0
   58.8190   27.9180   45.9370 C   0  0  0  0  0  0  0  0  0  0  0  0
   57.5190   27.4200   45.7300 C   0  0  0  0  0  0  0  0  0  0  0  0
   56.4500   28.3160   45.3870 N   0  0  0  0  0  0  0  0  0  0  0  0
   56.5330   29.4310   44.4890 C   0  0  0  0  0  0  0  0  0  0  0  0
   55.9440   29.3550   43.3770 O   0  0  0  0  0  0  0  0  0  0  0  0
   57.2420   30.6810   44.8520 C   0  0  0  0  0  0  0  0  0  0  0  0
   57.7690   30.8430   46.1440 C   0  0  0  0  0  0  0  0  0  0  0  0
   58.4420   32.0180   46.4920 C   0  0  0  0  0  0  0  0  0  0  0  0
   58.6070   33.0410   45.5490 C   0  0  0  0  0  0  0  0  0  0  0  0
   59.4650   34.5220   45.9690 S   0  0  0  0  0  0  0  0  0  0  0  0
   58.9110   35.1030   47.2400 O   0  0  0  0  0  0  0  0  0  0  0  0
   59.2900   35.5190   44.8590 O   0  0  0  0  0  0  0  0  0  0  0  0
   61.1560   34.1850   46.1730 N   0  0  0  0  0  0  0  0  0  0  0  0
   61.4590   34.0140   47.5920 C   0  0  0  0  0  0  0  0  0  0  0  0
   61.1280   32.6090   48.0000 C   0  0  0  0  0  0  0  0  0  0  0  0
   60.3840   32.3690   49.1700 C   0  0  0  0  0  0  0  0  0  0  0  0
   60.0480   31.0610   49.5330 C   0  0  0  0  0  0  0  0  0  0  0  0
   60.4390   29.9870   48.7280 C   0  0  0  0  0  0  0  0  0  0  0  0
   61.1640   30.2200   47.5560 C   0  0  0  0  0  0  0  0  0  0  0  0
   61.5030   31.5260   47.1890 C   0  0  0  0  0  0  0  0  0  0  0  0
   58.0940   32.8800   44.2560 C   0  0  0  0  0  0  0  0  0  0  0  0
   57.4220   31.7070   43.9070 C   0  0  0  0  0  0  0  0  0  0  0  0
   54.8380   27.0910   46.3970 H   0  0  0  0  0  0  0  0  0  0  0  0
   58.2075   24.0818   46.1402 H   0  0  0  0  0  0  0  0  0  0  0  0
   60.4813   25.0035   46.5427 H   0  0  0  0  0  0  0  0  0  0  0  0
   60.8820   27.4579   46.4030 H   0  0  0  0  0  0  0  0  0  0  0  0
   59.0051   28.9998   45.8660 H   0  0  0  0  0  0  0  0  0  0  0  0
   57.6514   30.0402   46.8867 H   0  0  0  0  0  0  0  0  0  0  0  0
   58.8431   32.1396   47.5090 H   0  0  0  0  0  0  0  0  0  0  0  0
   62.5281   34.2056   47.7658 H   0  0  0  0  0  0  0  0  0  0  0  0
   60.8623   34.7221   48.1858 H   0  0  0  0  0  0  0  0  0  0  0  0
   60.0659   33.2123   49.8006 H   0  0  0  0  0  0  0  0  0  0  0  0
   59.4750   30.8768   50.4537 H   0  0  0  0  0  0  0  0  0  0  0  0
   60.1761   28.9587   49.0169 H   0  0  0  0  0  0  0  0  0  0  0  0
   61.4684   29.3747   46.9213 H   0  0  0  0  0  0  0  0  0  0  0  0
   62.0658   31.7056   46.2611 H   0  0  0  0  0  0  0  0  0  0  0  0
   58.2209   33.6807   43.5125 H   0  0  0  0  0  0  0  0  0  0  0  0
   57.0308   31.5845   42.8863 H   0  0  0  0  0  0  0  0  0  0  0  0
  1  2  1  0
  2  3  2  0
  2  4  1  0
  4  5  2  0
  5  6  1  0
  6  7  2  0
  7  8  1  0
  8  9  2  0
  9 10  1  0
 10 11  1  0
 11 12  2  0
 11 13  1  0
 13 14  2  0
 14 15  1  0
 15 16  2  0
 16 17  1  0
 17 18  2  0
 17 19  2  0
 17 20  1  0
 20 21  1  0
 21 22  1  0
 22 23  2  0
 23 24  1  0
 24 25  2  0
 25 26  1  0
 26 27  2  0
 16 28  1  0
 28 29  2  0
  9  4  1  0
 29 13  1  0
 27 22  1  0
  1 30  1  0
  5 31  1  0
  6 32  1  0
  7 33  1  0
  8 34  1  0
 14 35  1  0
 15 36  1  0
 21 37  1  0
 21 38  1  0
 23 39  1  0
 24 40  1  0
 25 41  1  0
 26 42  1  0
 27 43  1  0
 28 44  1  0
 29 45  1  0
M  CHG  3   1  -1  10  -1  20  -1
M  END
>  <UniqueID>  (34) 
33

>  <SMILES>  (34) 
[NH-]C(=O)c1ccccc1[N-]C(=O)c1ccc(S(=O)(=O)[N-]Cc2ccccc2)cc1

>  <Energy>  (34) 
54.87158408482409

>  <Genealogy>  (34) 
[NH-]C(=O)c1ccccc1[N-]C(=O)c1ccc(S(=O)(=O)[N-]Cc2ccccc2)cc1 (protonated)
[NH-]C(=O)c1ccccc1[N-]C(=O)c1ccc(S(=O)(=O)[N-]Cc2ccccc2)cc1 (3D coordinates assigned)
[NH-]C(=O)c1ccccc1[N-]C(=O)c1ccc(S(=O)(=O)[N-]Cc2ccccc2)cc1 (optimized conformer: 54.87158408482409 kcal/mol)

>  <smiles>  (34) 
NC(=O)c1ccccc1NC(=O)c1ccc(S(=O)(=O)NCc2ccccc2)cc1

>  <score_type>  (34) 
oracle

>  <origin>  (34) 
adg

>  <m_score__min__energy>  (34) 
-15.359999999999999

>  <m_primary>  (34) 
energy

$$$$
34:0
     RDKit          3D

 50 53  0  0  0  0  0  0  0  0999 V2000
   55.9320   23.9570   44.4760 C   0  0  0  0  0  0  0  0  0  0  0  0
   55.0120   24.6160   45.8520 S   0  0  0  0  0  0  0  0  0  0  0  0
   55.5320   24.0070   47.1240 O   0  0  0  0  0  0  0  0  0  0  0  0
   53.5570   24.2660   45.7160 O   0  0  0  0  0  0  0  0  0  0  0  0
   55.2120   26.3380   45.9400 N   0  0  0  0  0  0  0  0  0  0  0  0
   56.4610   27.0470   45.9700 C   0  0  0  0  0  0  0  0  0  0  0  0
   57.5740   26.3820   46.4990 C   0  0  0  0  0  0  0  0  0  0  0  0
   58.8160   27.0140   46.5720 C   0  0  0  0  0  0  0  0  0  0  0  0
   58.9710   28.3170   46.0990 C   0  0  0  0  0  0  0  0  0  0  0  0
   57.8830   28.9950   45.5270 C   0  0  0  0  0  0  0  0  0  0  0  0
   58.0220   30.3000   45.0170 C   0  0  0  0  0  0  0  0  0  0  0  0
   59.2690   30.9450   45.0800 O   0  0  0  0  0  0  0  0  0  0  0  0
   59.8690   31.4460   46.2440 C   0  0  0  0  0  0  0  0  0  0  0  0
   61.0470   30.8890   46.7730 C   0  0  0  0  0  0  0  0  0  0  0  0
   61.6220   31.4270   47.9280 C   0  0  0  0  0  0  0  0  0  0  0  0
   61.0300   32.5200   48.5760 C   0  0  0  0  0  0  0  0  0  0  0  0
   61.6550   33.0660   49.7510 N   0  0  0  0  0  0  0  0  0  0  0  0
   62.8740   33.8230   49.7400 C   0  0  0  0  0  0  0  0  0  0  0  0
   63.3930   34.1880   48.6500 O   0  0  0  0  0  0  0  0  0  0  0  0
   63.5020   34.1510   50.9840 N   0  0  0  0  0  0  0  0  0  0  0  0
   64.9070   34.0690   51.2600 C   0  0  0  0  0  0  0  0  0  0  0  0
   65.4760   35.0050   52.1330 C   0  0  0  0  0  0  0  0  0  0  0  0
   66.8440   34.9690   52.4170 C   0  0  0  0  0  0  0  0  0  0  0  0
   67.6590   34.0070   51.8150 C   0  0  0  0  0  0  0  0  0  0  0  0
   67.1080   33.0890   50.9160 C   0  0  0  0  0  0  0  0  0  0  0  0
   65.7380   33.1200   50.6290 C   0  0  0  0  0  0  0  0  0  0  0  0
   65.2460   32.2680   49.6950 F   0  0  0  0  0  0  0  0  0  0  0  0
   59.8760   33.1000   48.0220 C   0  0  0  0  0  0  0  0  0  0  0  0
   59.3020   32.5630   46.8660 C   0  0  0  0  0  0  0  0  0  0  0  0
   56.9190   30.9160   44.4040 C   0  0  0  0  0  0  0  0  0  0  0  0
   55.7020   30.2410   44.3300 C   0  0  0  0  0  0  0  0  0  0  0  0
   55.5830   28.9920   44.8490 N   0  0  0  0  0  0  0  0  0  0  0  0
   56.6190   28.3530   45.4540 C   0  0  0  0  0  0  0  0  0  0  0  0
   56.7725   23.3549   44.8516 H   0  0  0  0  0  0  0  0  0  0  0  0
   55.2727   23.3244   43.8634 H   0  0  0  0  0  0  0  0  0  0  0  0
   56.3188   24.7847   43.8634 H   0  0  0  0  0  0  0  0  0  0  0  0
   57.4680   25.3488   46.8614 H   0  0  0  0  0  0  0  0  0  0  0  0
   59.6765   26.4823   47.0044 H   0  0  0  0  0  0  0  0  0  0  0  0
   59.9490   28.8149   46.1744 H   0  0  0  0  0  0  0  0  0  0  0  0
   61.5173   30.0275   46.2764 H   0  0  0  0  0  0  0  0  0  0  0  0
   62.5467   30.9890   48.3318 H   0  0  0  0  0  0  0  0  0  0  0  0
   61.1450   32.9920   50.6600 H   0  0  0  0  0  0  0  0  0  0  0  0
   64.8417   35.7738   52.5983 H   0  0  0  0  0  0  0  0  0  0  0  0
   67.2795   35.6989   53.1153 H   0  0  0  0  0  0  0  0  0  0  0  0
   68.7334   33.9719   52.0482 H   0  0  0  0  0  0  0  0  0  0  0  0
   67.7527   32.3402   50.4327 H   0  0  0  0  0  0  0  0  0  0  0  0
   59.4223   33.9806   48.5002 H   0  0  0  0  0  0  0  0  0  0  0  0
   58.3970   33.0227   46.4421 H   0  0  0  0  0  0  0  0  0  0  0  0
   57.0152   31.9279   43.9836 H   0  0  0  0  0  0  0  0  0  0  0  0
   54.8363   30.7210   43.8503 H   0  0  0  0  0  0  0  0  0  0  0  0
  1  2  1  0
  2  3  2  0
  2  4  2  0
  2  5  1  0
  5  6  1  0
  6  7  2  0
  7  8  1  0
  8  9  2  0
  9 10  1  0
 10 11  2  0
 11 12  1  0
 12 13  1  0
 13 14  2  0
 14 15  1  0
 15 16  2  0
 16 17  1  0
 17 18  1  0
 18 19  2  0
 18 20  1  0
 20 21  1  0
 21 22  2  0
 22 23  1  0
 23 24  2  0
 24 25  1  0
 25 26  2  0
 26 27  1  0
 16 28  1  0
 28 29  2  0
 11 30  1  0
 30 31  2  0
 31 32  1  0
 32 33  2  0
 33  6  1  0
 33 10  1  0
 29 13  1  0
 26 21  1  0
  1 34  1  0
  1 35  1  0
  1 36  1  0
  7 37  1  0
  8 38  1  0
  9 39  1  0
 14 40  1  0
 15 41  1  0
 17 42  1  0
 22 43  1  0
 23 44  1  0
 24 45  1  0
 25 46  1  0
 28 47  1  0
 29 48  1  0
 30 49  1  0
 31 50  1  0
M  CHG  2   5  -1  20  -1
M  END
>  <UniqueID>  (35) 
34

>  <SMILES>  (35) 
CS(=O)(=O)[N-]c1cccc2c(Oc3ccc(NC(=O)[N-]c4ccccc4F)cc3)ccnc12

>  <Energy>  (35) 
77.28279094164049

>  <Genealogy>  (35) 
CS(=O)(=O)[N-]c1cccc2c(Oc3ccc(NC(=O)[N-]c4ccccc4F)cc3)ccnc12 (protonated)
CS(=O)(=O)[N-]c1cccc2c(Oc3ccc(NC(=O)[N-]c4ccccc4F)cc3)ccnc12 (3D coordinates assigned)
CS(=O)(=O)[N-]c1cccc2c(Oc3ccc(NC(=O)[N-]c4ccccc4F)cc3)ccnc12 (optimized conformer: 77.28279094164049 kcal/mol)

>  <smiles>  (35) 
CS(=O)(=O)Nc1cccc2c(Oc3ccc(NC(=O)Nc4ccccc4F)cc3)ccnc12

>  <score_type>  (35) 
oracle

>  <origin>  (35) 
adg

>  <m_score__min__energy>  (35) 
-11.6

>  <m_primary>  (35) 
energy

$$$$
35:0
     RDKit          3D

 48 51  0  0  0  0  0  0  0  0999 V2000
   60.3180   28.5900   46.8270 O   0  0  0  0  0  0  0  0  0  0  0  0
   60.0430   29.3640   47.7830 C   0  0  0  0  0  0  0  0  0  0  0  0
   58.6630   29.9690   47.8940 C   0  0  0  0  0  0  0  0  0  0  0  0
   58.5200   31.1730   47.0370 N   0  0  0  0  0  0  0  0  0  0  0  0
   57.9290   31.0700   45.7870 C   0  0  0  0  0  0  0  0  0  0  0  0
   57.5040   29.7770   45.1890 C   0  0  0  0  0  0  0  0  0  0  0  0
   56.3080   29.6410   44.8090 O   0  0  0  0  0  0  0  0  0  0  0  0
   58.4540   28.7280   44.9480 N   0  0  0  0  0  0  0  0  0  0  0  0
   58.0800   27.4200   44.4870 C   0  0  0  0  0  0  0  0  0  0  0  0
   58.0870   27.1650   43.1060 C   0  0  0  0  0  0  0  0  0  0  0  0
   57.7420   25.9050   42.6150 C   0  0  0  0  0  0  0  0  0  0  0  0
   57.4010   24.8790   43.4980 C   0  0  0  0  0  0  0  0  0  0  0  0
   57.4170   25.1100   44.8760 C   0  0  0  0  0  0  0  0  0  0  0  0
   57.7610   26.3700   45.3810 C   0  0  0  0  0  0  0  0  0  0  0  0
   57.8580   26.5580   47.1280 Cl  0  0  0  0  0  0  0  0  0  0  0  0
   57.6910   32.2180   45.0210 C   0  0  0  0  0  0  0  0  0  0  0  0
   58.0750   33.4660   45.4830 C   0  0  0  0  0  0  0  0  0  0  0  0
   57.8490   34.4820   44.7690 O   0  0  0  0  0  0  0  0  0  0  0  0
   58.7130   33.5830   46.7230 C   0  0  0  0  0  0  0  0  0  0  0  0
   59.1270   34.8420   47.1990 C   0  0  0  0  0  0  0  0  0  0  0  0
   59.7690   34.9590   48.4290 C   0  0  0  0  0  0  0  0  0  0  0  0
   60.0100   33.8250   49.1970 C   0  0  0  0  0  0  0  0  0  0  0  0
   59.6060   32.5680   48.7460 C   0  0  0  0  0  0  0  0  0  0  0  0
   58.9400   32.4130   47.5020 C   0  0  0  0  0  0  0  0  0  0  0  0
   61.0820   29.7200   48.7020 N   0  0  0  0  0  0  0  0  0  0  0  0
   61.9930   30.8110   48.5290 C   0  0  0  0  0  0  0  0  0  0  0  0
   62.1760   31.3930   47.2640 C   0  0  0  0  0  0  0  0  0  0  0  0
   63.0430   32.4780   47.1060 C   0  0  0  0  0  0  0  0  0  0  0  0
   63.7180   33.0010   48.2110 C   0  0  0  0  0  0  0  0  0  0  0  0
   63.5170   32.4470   49.4790 C   0  0  0  0  0  0  0  0  0  0  0  0
   62.6490   31.3610   49.6430 C   0  0  0  0  0  0  0  0  0  0  0  0
   62.4120   30.6840   51.2490 Cl  0  0  0  0  0  0  0  0  0  0  0  0
   57.9195   29.2201   47.5834 H   0  0  0  0  0  0  0  0  0  0  0  0
   58.5048   30.2719   48.9396 H   0  0  0  0  0  0  0  0  0  0  0  0
   59.4600   28.9960   44.8870 H   0  0  0  0  0  0  0  0  0  0  0  0
   58.3668   27.9654   42.4052 H   0  0  0  0  0  0  0  0  0  0  0  0
   57.7388   25.7201   41.5307 H   0  0  0  0  0  0  0  0  0  0  0  0
   57.1198   23.8892   43.1092 H   0  0  0  0  0  0  0  0  0  0  0  0
   57.1575   24.2962   45.5691 H   0  0  0  0  0  0  0  0  0  0  0  0
   57.1946   32.1277   44.0435 H   0  0  0  0  0  0  0  0  0  0  0  0
   58.9415   35.7414   46.5935 H   0  0  0  0  0  0  0  0  0  0  0  0
   60.0853   35.9477   48.7929 H   0  0  0  0  0  0  0  0  0  0  0  0
   60.5222   33.9196   50.1659 H   0  0  0  0  0  0  0  0  0  0  0  0
   59.8071   31.6814   49.3653 H   0  0  0  0  0  0  0  0  0  0  0  0
   61.6347   30.9933   46.3938 H   0  0  0  0  0  0  0  0  0  0  0  0
   63.1937   32.9203   46.1102 H   0  0  0  0  0  0  0  0  0  0  0  0
   64.4076   33.8485   48.0839 H   0  0  0  0  0  0  0  0  0  0  0  0
   64.0424   32.8657   50.3500 H   0  0  0  0  0  0  0  0  0  0  0  0
  1  2  2  0
  2  3  1  0
  3  4  1  0
  4  5  1  0
  5  6  1  0
  6  7  2  0
  6  8  1  0
  8  9  1  0
  9 10  2  0
 10 11  1  0
 11 12  2  0
 12 13  1  0
 13 14  2  0
 14 15  1  0
  5 16  2  0
 16 17  1  0
 17 18  2  0
 17 19  1  0
 19 20  2  0
 20 21  1  0
 21 22  2  0
 22 23  1  0
 23 24  2  0
  2 25  1  0
 25 26  1  0
 26 27  2  0
 27 28  1  0
 28 29  2  0
 29 30  1  0
 30 31  2  0
 31 32  1  0
 24  4  1  0
 31 26  1  0
 14  9  1  0
 24 19  1  0
  3 33  1  0
  3 34  1  0
  8 35  1  0
 10 36  1  0
 11 37  1  0
 12 38  1  0
 13 39  1  0
 16 40  1  0
 20 41  1  0
 21 42  1  0
 22 43  1  0
 23 44  1  0
 27 45  1  0
 28 46  1  0
 29 47  1  0
 30 48  1  0
M  CHG  1  25  -1
M  END
>  <UniqueID>  (36) 
35

>  <SMILES>  (36) 
O=C(Cn1c(C(=O)Nc2ccccc2Cl)cc(=O)c2ccccc21)[N-]c1ccccc1Cl

>  <Energy>  (36) 
81.53241654403857

>  <Genealogy>  (36) 
O=C(Cn1c(C(=O)Nc2ccccc2Cl)cc(=O)c2ccccc21)[N-]c1ccccc1Cl (protonated)
O=C(Cn1c(C(=O)Nc2ccccc2Cl)cc(=O)c2ccccc21)[N-]c1ccccc1Cl (3D coordinates assigned)
O=C(Cn1c(C(=O)Nc2ccccc2Cl)cc(=O)c2ccccc21)[N-]c1ccccc1Cl (optimized conformer: 81.53241654403857 kcal/mol)

>  <smiles>  (36) 
O=C(Cn1c(C(=O)Nc2ccccc2Cl)cc(=O)c2ccccc21)Nc1ccccc1Cl

>  <score_type>  (36) 
oracle

>  <origin>  (36) 
adg

>  <m_score__min__energy>  (36) 
-10.93

>  <m_primary>  (36) 
energy

$$$$
36:0
     RDKit          3D

 33 34  0  0  0  0  0  0  0  0999 V2000
   54.2199   24.3853   46.0245 H   0  0  0  0  0  0  0  0  0  0  0  0
   55.1790   24.9220   45.9790 C   0  0  0  0  0  0  0  0  0  0  0  0
   55.2560   26.2800   45.9970 N   0  0  0  0  0  0  0  0  0  0  0  0
   56.5330   26.7120   45.9340 C   0  0  0  0  0  0  0  0  0  0  0  0
   56.8300   27.9790   45.9310 N   0  0  0  0  0  0  0  0  0  0  0  0
   58.0270   28.6020   46.4280 C   0  0  0  0  0  0  0  0  0  0  0  0
   59.0750   27.9320   46.6280 O   0  0  0  0  0  0  0  0  0  0  0  0
   58.0260   29.9910   46.7730 N   0  0  0  0  0  0  0  0  0  0  0  0
   59.1650   30.8680   46.7550 C   0  0  0  0  0  0  0  0  0  0  0  0
   60.4110   30.4200   47.2310 C   0  0  0  0  0  0  0  0  0  0  0  0
   60.5183   29.3834   47.5832 H   0  0  0  0  0  0  0  0  0  0  0  0
   61.5110   31.2760   47.2610 C   0  0  0  0  0  0  0  0  0  0  0  0
   62.4829   30.9088   47.6223 H   0  0  0  0  0  0  0  0  0  0  0  0
   61.3810   32.5960   46.8340 C   0  0  0  0  0  0  0  0  0  0  0  0
   62.7670   33.6700   46.8770 Cl  0  0  0  0  0  0  0  0  0  0  0  0
   60.1460   33.0670   46.3830 C   0  0  0  0  0  0  0  0  0  0  0  0
   60.0500   34.1132   46.0571 H   0  0  0  0  0  0  0  0  0  0  0  0
   59.0210   32.2190   46.3400 C   0  0  0  0  0  0  0  0  0  0  0  0
   57.7250   32.7630   45.8490 C   0  0  0  0  0  0  0  0  0  0  0  0
   56.8850   33.2480   46.6540 O   0  0  0  0  0  0  0  0  0  0  0  0
   57.4160   32.7260   44.4500 N   0  0  0  0  0  0  0  0  0  0  0  0
   57.7880   31.6280   43.5630 C   0  0  0  0  0  0  0  0  0  0  0  0
   58.8317   31.3433   43.7619 H   0  0  0  0  0  0  0  0  0  0  0  0
   57.6706   31.9644   42.5223 H   0  0  0  0  0  0  0  0  0  0  0  0
   56.8870   30.4110   43.7850 C   0  0  0  0  0  0  0  0  0  0  0  0
   57.5106   29.5421   44.0420 H   0  0  0  0  0  0  0  0  0  0  0  0
   56.3224   30.2156   42.8614 H   0  0  0  0  0  0  0  0  0  0  0  0
   55.9420   30.6600   44.8690 N   0  0  0  0  0  0  0  0  0  0  0  0
   56.1070   31.6270   45.2330 H   0  0  0  0  0  0  0  0  0  0  0  0
   56.1800   30.0090   45.6530 H   0  0  0  0  0  0  0  0  0  0  0  0
   57.6170   25.4220   45.8490 S   0  0  0  0  0  0  0  0  0  0  0  0
   56.4000   24.2610   45.8990 C   0  0  0  0  0  0  0  0  0  0  0  0
   56.5447   23.1709   45.8730 H   0  0  0  0  0  0  0  0  0  0  0  0
  1  2  1  0
  2  3  1  0
  3  4  1  0
  4  5  2  0
  5  6  1  0
  6  7  2  0
  6  8  1  0
  8  9  1  0
  9 10  2  0
 10 11  1  0
 10 12  1  0
 12 13  1  0
 12 14  2  0
 14 15  1  0
 14 16  1  0
 16 17  1  0
 16 18  2  0
 18 19  1  0
 19 20  2  0
 19 21  1  0
 21 22  1  0
 22 23  1  0
 22 24  1  0
 22 25  1  0
 25 26  1  0
 25 27  1  0
 25 28  1  0
 28 29  1  0
 28 30  1  0
  4 31  1  0
 31 32  1  0
 32 33  1  0
 32  2  2  0
 18  9  1  0
M  CHG  3   3  -1   8  -1  21  -1
M  END
>  <UniqueID>  (37) 
36

>  <SMILES>  (37) 
NCC[N-]C(=O)c1cc(Cl)ccc1[N-]C(=O)/N=c1/[n-]ccs1

>  <Energy>  (37) 
68.25965093989774

>  <Genealogy>  (37) 
NCC[N-]C(=O)c1cc(Cl)ccc1[N-]C(=O)N=c1[n-]ccs1 (protonated)
NCC[N-]C(=O)c1cc(Cl)ccc1[N-]C(=O)/N=c1/[n-]ccs1 (cis-trans isomerization)
NCC[N-]C(=O)c1cc(Cl)ccc1[N-]C(=O)/N=c1/[n-]ccs1 (3D coordinates assigned)
NCC[N-]C(=O)c1cc(Cl)ccc1[N-]C(=O)/N=c1/[n-]ccs1 (optimized conformer: 68.25965093989774 kcal/mol)

>  <smiles>  (37) 
NCCNC(=O)c1cc(Cl)ccc1NC(=O)N=c1[nH]ccs1

>  <score_type>  (37) 
oracle

>  <origin>  (37) 
adg

>  <m_score__min__energy>  (37) 
-10.52

>  <m_primary>  (37) 
energy

$$$$
37:0
     RDKit          3D

 58 61  0  0  0  0  0  0  0  0999 V2000
   57.1780   25.7940   46.5370 C   0  0  0  0  0  0  0  0  0  0  0  0
   55.9160   26.3910   46.0130 C   0  0  0  0  0  0  0  0  0  0  0  0
   54.8640   25.6970   45.9720 O   0  0  0  0  0  0  0  0  0  0  0  0
   55.8970   27.7650   45.6150 N   0  0  0  0  0  0  0  0  0  0  0  0
   57.0910   28.5280   45.2580 C   0  0  0  0  0  0  0  0  0  0  0  0
   56.8060   29.4590   44.0720 C   0  0  0  0  0  0  0  0  0  0  0  0
   56.4050   30.7600   44.5030 O   0  0  0  0  0  0  0  0  0  0  0  0
   57.2600   31.7530   45.0060 C   0  0  0  0  0  0  0  0  0  0  0  0
   57.9110   31.6360   46.2490 C   0  0  0  0  0  0  0  0  0  0  0  0
   58.7040   32.6820   46.7270 C   0  0  0  0  0  0  0  0  0  0  0  0
   58.8660   33.8580   45.9750 C   0  0  0  0  0  0  0  0  0  0  0  0
   59.6530   34.9880   46.5160 C   0  0  0  0  0  0  0  0  0  0  0  0
   59.7040   36.0760   45.8820 O   0  0  0  0  0  0  0  0  0  0  0  0
   60.3900   34.8560   47.7390 N   0  0  0  0  0  0  0  0  0  0  0  0
   61.3240   33.7960   47.9750 C   0  0  0  0  0  0  0  0  0  0  0  0
   62.5740   33.7850   47.3350 C   0  0  0  0  0  0  0  0  0  0  0  0
   63.5120   32.7970   47.6420 C   0  0  0  0  0  0  0  0  0  0  0  0
   63.2180   31.8280   48.6040 C   0  0  0  0  0  0  0  0  0  0  0  0
   61.9700   31.8260   49.2470 C   0  0  0  0  0  0  0  0  0  0  0  0
   61.7170   30.8920   50.4020 C   0  0  0  0  0  0  0  0  0  0  0  0
   60.2490   30.8240   50.7660 C   0  0  0  0  0  0  0  0  0  0  0  0
   59.5020   29.7540   50.3720 N   0  0  0  0  0  0  0  0  0  0  0  0
   58.2070   29.6450   50.6610 N   0  0  0  0  0  0  0  0  0  0  0  0
   57.5580   30.5950   51.3780 C   0  0  0  0  0  0  0  0  0  0  0  0
   56.3290   30.4550   51.6210 O   0  0  0  0  0  0  0  0  0  0  0  0
   58.2610   31.7180   51.8410 C   0  0  0  0  0  0  0  0  0  0  0  0
   59.6280   31.8440   51.5180 C   0  0  0  0  0  0  0  0  0  0  0  0
   60.3660   32.9870   51.9910 N   0  0  0  0  0  0  0  0  0  0  0  0
   59.6810   34.1350   52.5780 C   0  0  0  0  0  0  0  0  0  0  0  0
   58.5190   33.6570   53.4460 C   0  0  0  0  0  0  0  0  0  0  0  0
   57.5490   32.8080   52.6140 C   0  0  0  0  0  0  0  0  0  0  0  0
   61.0160   32.8010   48.9100 C   0  0  0  0  0  0  0  0  0  0  0  0
   58.2620   33.9510   44.7120 C   0  0  0  0  0  0  0  0  0  0  0  0
   57.4610   32.9070   44.2360 C   0  0  0  0  0  0  0  0  0  0  0  0
   57.1589   25.8030   47.6368 H   0  0  0  0  0  0  0  0  0  0  0  0
   57.2690   24.7574   46.1804 H   0  0  0  0  0  0  0  0  0  0  0  0
   58.0371   26.3812   46.1804 H   0  0  0  0  0  0  0  0  0  0  0  0
   57.4061   29.1308   46.1225 H   0  0  0  0  0  0  0  0  0  0  0  0
   57.8872   27.8250   44.9720 H   0  0  0  0  0  0  0  0  0  0  0  0
   57.7183   29.5508   43.4643 H   0  0  0  0  0  0  0  0  0  0  0  0
   55.9826   29.0241   43.4864 H   0  0  0  0  0  0  0  0  0  0  0  0
   57.7949   30.7188   46.8451 H   0  0  0  0  0  0  0  0  0  0  0  0
   59.2061   32.5842   47.7008 H   0  0  0  0  0  0  0  0  0  0  0  0
   62.8150   34.5571   46.5895 H   0  0  0  0  0  0  0  0  0  0  0  0
   64.4832   32.7819   47.1257 H   0  0  0  0  0  0  0  0  0  0  0  0
   63.9670   31.0637   48.8587 H   0  0  0  0  0  0  0  0  0  0  0  0
   62.0614   29.8845   50.1258 H   0  0  0  0  0  0  0  0  0  0  0  0
   62.2659   31.2750   51.2749 H   0  0  0  0  0  0  0  0  0  0  0  0
   61.4090   33.0000   51.9650 H   0  0  0  0  0  0  0  0  0  0  0  0
   60.3891   34.7049   53.1976 H   0  0  0  0  0  0  0  0  0  0  0  0
   59.2927   34.7763   51.7730 H   0  0  0  0  0  0  0  0  0  0  0  0
   58.9111   33.0515   54.2764 H   0  0  0  0  0  0  0  0  0  0  0  0
   57.9819   34.5325   53.8398 H   0  0  0  0  0  0  0  0  0  0  0  0
   56.8166   32.3423   53.2899 H   0  0  0  0  0  0  0  0  0  0  0  0
   57.0578   33.4715   51.8871 H   0  0  0  0  0  0  0  0  0  0  0  0
   60.0230   32.7822   49.3829 H   0  0  0  0  0  0  0  0  0  0  0  0
   58.4186   34.8474   44.0940 H   0  0  0  0  0  0  0  0  0  0  0  0
   56.9846   32.9927   43.2482 H   0  0  0  0  0  0  0  0  0  0  0  0
  1  2  1  0
  2  3  2  0
  2  4  1  0
  4  5  1  0
  5  6  1  0
  6  7  1  0
  7  8  1  0
  8  9  2  0
  9 10  1  0
 10 11  2  0
 11 12  1  0
 12 13  2  0
 12 14  1  0
 14 15  1  0
 15 16  2  0
 16 17  1  0
 17 18  2  0
 18 19  1  0
 19 20  1  0
 20 21  1  0
 21 22  2  0
 22 23  1  0
 23 24  1  0
 24 25  2  0
 24 26  1  0
 26 27  2  0
 27 28  1  0
 28 29  1  0
 29 30  1  0
 30 31  1  0
 19 32  2  0
 11 33  1  0
 33 34  2  0
 34  8  1  0
 32 15  1  0
 27 21  1  0
 31 26  1  0
  1 35  1  0
  1 36  1  0
  1 37  1  0
  5 38  1  0
  5 39  1  0
  6 40  1  0
  6 41  1  0
  9 42  1  0
 10 43  1  0
 16 44  1  0
 17 45  1  0
 18 46  1  0
 20 47  1  0
 20 48  1  0
 28 49  1  0
 29 50  1  0
 29 51  1  0
 30 52  1  0
 30 53  1  0
 31 54  1  0
 31 55  1  0
 32 56  1  0
 33 57  1  0
 34 58  1  0
M  CHG  3   4  -1  14  -1  23  -1
M  END
>  <UniqueID>  (38) 
37

>  <SMILES>  (38) 
CC(=O)[N-]CCOc1ccc(C(=O)[N-]c2cccc(Cc3n[n-]c(=O)c4c3NCCC4)c2)cc1

>  <Energy>  (38) 
66.58115491364784

>  <Genealogy>  (38) 
CC(=O)[N-]CCOc1ccc(C(=O)[N-]c2cccc(Cc3n[n-]c(=O)c4c3NCCC4)c2)cc1 (protonated)
CC(=O)[N-]CCOc1ccc(C(=O)[N-]c2cccc(Cc3n[n-]c(=O)c4c3NCCC4)c2)cc1 (3D coordinates assigned)
CC(=O)[N-]CCOc1ccc(C(=O)[N-]c2cccc(Cc3n[n-]c(=O)c4c3NCCC4)c2)cc1 (nonaromatic ring conformer: 66.58115491364784 kcal/mol)

>  <smiles>  (38) 
CC(=O)NCCOc1ccc(C(=O)Nc2cccc(Cc3n[nH]c(=O)c4c3NCCC4)c2)cc1

>  <score_type>  (38) 
oracle

>  <origin>  (38) 
adg

>  <m_score__min__energy>  (38) 
-14.550000000000001

>  <m_primary>  (38) 
energy

$$$$
38:0
     RDKit          3D

 53 56  0  0  0  0  0  0  0  0999 V2000
   58.0314   32.9929   54.0924 H   0  0  0  0  0  0  0  0  0  0  0  0
   57.7860   32.4580   53.1630 C   0  0  0  0  0  0  0  0  0  0  0  0
   56.6400   31.7360   53.0770 N   0  0  0  0  0  0  0  0  0  0  0  0
   56.3180   31.0580   51.9400 C   0  0  0  0  0  0  0  0  0  0  0  0
   55.2130   30.3800   51.8450 N   0  0  0  0  0  0  0  0  0  0  0  0
   53.9060   30.7860   52.2850 C   0  0  0  0  0  0  0  0  0  0  0  0
   53.3710   30.3700   53.5200 C   0  0  0  0  0  0  0  0  0  0  0  0
   53.9712   29.7401   54.1931 H   0  0  0  0  0  0  0  0  0  0  0  0
   52.0800   30.7550   53.8930 C   0  0  0  0  0  0  0  0  0  0  0  0
   51.6723   30.4398   54.8648 H   0  0  0  0  0  0  0  0  0  0  0  0
   51.3060   31.5400   53.0330 C   0  0  0  0  0  0  0  0  0  0  0  0
   50.2940   31.8504   53.3322 H   0  0  0  0  0  0  0  0  0  0  0  0
   51.8190   31.9300   51.7930 C   0  0  0  0  0  0  0  0  0  0  0  0
   51.0450   32.6980   50.9320 O   0  0  0  0  0  0  0  0  0  0  0  0
   53.1100   31.5460   51.4170 C   0  0  0  0  0  0  0  0  0  0  0  0
   53.5035   31.8424   50.4335 H   0  0  0  0  0  0  0  0  0  0  0  0
   57.1480   31.1210   50.8670 N   0  0  0  0  0  0  0  0  0  0  0  0
   58.3060   31.8370   50.9060 C   0  0  0  0  0  0  0  0  0  0  0  0
   59.1720   31.8680   49.8070 O   0  0  0  0  0  0  0  0  0  0  0  0
   58.7630   31.6570   48.4830 C   0  0  0  0  0  0  0  0  0  0  0  0
   58.1440   32.6810   47.7450 C   0  0  0  0  0  0  0  0  0  0  0  0
   58.0294   33.6814   48.1878 H   0  0  0  0  0  0  0  0  0  0  0  0
   57.6740   32.4360   46.4540 C   0  0  0  0  0  0  0  0  0  0  0  0
   57.2031   33.2467   45.8786 H   0  0  0  0  0  0  0  0  0  0  0  0
   57.8000   31.1630   45.8900 C   0  0  0  0  0  0  0  0  0  0  0  0
   57.1610   30.8860   44.6370 N   0  0  0  0  0  0  0  0  0  0  0  0
   56.6000   29.6170   44.2710 C   0  0  0  0  0  0  0  0  0  0  0  0
   56.6090   29.2710   43.0610 O   0  0  0  0  0  0  0  0  0  0  0  0
   56.0340   28.7280   45.2460 N   0  0  0  0  0  0  0  0  0  0  0  0
   56.5720   27.4470   45.6030 C   0  0  0  0  0  0  0  0  0  0  0  0
   55.7320   26.3620   45.8940 C   0  0  0  0  0  0  0  0  0  0  0  0
   54.6427   26.4684   45.7839 H   0  0  0  0  0  0  0  0  0  0  0  0
   56.2730   25.1440   46.3240 C   0  0  0  0  0  0  0  0  0  0  0  0
   55.3920   24.0500   46.6440 C   0  0  0  0  0  0  0  0  0  0  0  0
   54.6830   23.1730   46.9010 N   0  0  0  0  0  0  0  0  0  0  0  0
   57.6640   25.0030   46.4540 C   0  0  0  0  0  0  0  0  0  0  0  0
   58.2020   23.7930   46.8850 O   0  0  0  0  0  0  0  0  0  0  0  0
   58.5120   26.0830   46.1480 C   0  0  0  0  0  0  0  0  0  0  0  0
   60.0010   25.9390   46.2810 C   0  0  0  0  0  0  0  0  0  0  0  0
   60.2731   25.9127   47.3465 H   0  0  0  0  0  0  0  0  0  0  0  0
   60.3238   25.0054   45.7970 H   0  0  0  0  0  0  0  0  0  0  0  0
   60.4967   26.7934   45.7970 H   0  0  0  0  0  0  0  0  0  0  0  0
   57.9580   27.2920   45.6970 C   0  0  0  0  0  0  0  0  0  0  0  0
   58.6202   28.1239   45.4154 H   0  0  0  0  0  0  0  0  0  0  0  0
   58.4950   30.1630   46.5880 C   0  0  0  0  0  0  0  0  0  0  0  0
   58.6554   29.1813   46.1184 H   0  0  0  0  0  0  0  0  0  0  0  0
   58.9870   30.4050   47.8800 C   0  0  0  0  0  0  0  0  0  0  0  0
   59.6270   29.2900   48.6580 C   0  0  0  0  0  0  0  0  0  0  0  0
   59.5159   29.4836   49.7351 H   0  0  0  0  0  0  0  0  0  0  0  0
   59.1379   28.3380   48.4042 H   0  0  0  0  0  0  0  0  0  0  0  0
   60.6958   29.2322   48.4042 H   0  0  0  0  0  0  0  0  0  0  0  0
   58.6520   32.5210   52.0720 C   0  0  0  0  0  0  0  0  0  0  0  0
   59.5873   33.0972   52.1292 H   0  0  0  0  0  0  0  0  0  0  0  0
  1  2  1  0
  2  3  1  0
  3  4  1  0
  4  5  2  0
  5  6  1  0
  6  7  2  0
  7  8  1  0
  7  9  1  0
  9 10  1  0
  9 11  2  0
 11 12  1  0
 11 13  1  0
 13 14  1  0
 13 15  2  0
 15 16  1  0
  4 17  1  0
 17 18  2  0
 18 19  1  0
 19 20  1  0
 20 21  2  0
 21 22  1  0
 21 23  1  0
 23 24  1  0
 23 25  2  0
 25 26  1  0
 26 27  1  0
 27 28  2  0
 27 29  1  0
 29 30  1  0
 30 31  2  0
 31 32  1  0
 31 33  1  0
 33 34  1  0
 34 35  3  0
 33 36  2  0
 36 37  1  0
 36 38  1  0
 38 39  1  0
 39 40  1  0
 39 41  1  0
 39 42  1  0
 38 43  2  0
 43 44  1  0
 25 45  1  0
 45 46  1  0
 45 47  2  0
 47 48  1  0
 48 49  1  0
 48 50  1  0
 48 51  1  0
 18 52  1  0
 52 53  1  0
 52  2  2  0
 15  6  1  0
 47 20  1  0
 43 30  1  0
M  CHG  5   3  -1  14  -1  26  -1  29  -1  37  -1
M  END
>  <UniqueID>  (39) 
38

>  <SMILES>  (39) 
Cc1cc([N-]C(=O)[N-]c2cc(C)c([O-])c(C#N)c2)ccc1Oc1cc[n-]/c(=N\c2cccc([O-])c2)n1

>  <Energy>  (39) 
73.62650495841773

>  <Genealogy>  (39) 
Cc1cc([N-]C(=O)[N-]c2cc(C)c([O-])c(C#N)c2)ccc1Oc1cc[n-]c(=Nc2cccc([O-])c2)n1 (protonated)
Cc1cc([N-]C(=O)[N-]c2cc(C)c([O-])c(C#N)c2)ccc1Oc1cc[n-]/c(=N\c2cccc([O-])c2)n1 (cis-trans isomerization)
Cc1cc([N-]C(=O)[N-]c2cc(C)c([O-])c(C#N)c2)ccc1Oc1cc[n-]/c(=N\c2cccc([O-])c2)n1 (3D coordinates assigned)
Cc1cc([N-]C(=O)[N-]c2cc(C)c([O-])c(C#N)c2)ccc1Oc1cc[n-]/c(=N\c2cccc([O-])c2)n1 (optimized conformer: 73.62650495841773 kcal/mol)

>  <smiles>  (39) 
Cc1cc(NC(=O)Nc2cc(C)c(O)c(C#N)c2)ccc1Oc1cc[nH]c(=Nc2cccc(O)c2)n1

>  <score_type>  (39) 
oracle

>  <origin>  (39) 
adg

>  <m_score__min__energy>  (39) 
-19.98

>  <m_primary>  (39) 
energy

$$$$
39:0
     RDKit          3D

 35 36  0  0  0  0  0  0  0  0999 V2000
   59.1020   28.2620   48.2640 C   0  0  0  0  0  0  0  0  0  0  0  0
   59.4030   29.5440   49.4640 S   0  0  0  0  0  0  0  0  0  0  0  0
   58.1320   29.7710   50.2310 O   0  0  0  0  0  0  0  0  0  0  0  0
   60.4800   29.1300   50.4260 O   0  0  0  0  0  0  0  0  0  0  0  0
   59.8380   31.0250   48.6720 N   0  0  0  0  0  0  0  0  0  0  0  0
   59.1940   31.6260   47.5390 C   0  0  0  0  0  0  0  0  0  0  0  0
   58.9620   30.8140   46.4180 C   0  0  0  0  0  0  0  0  0  0  0  0
   58.3070   31.3200   45.2840 C   0  0  0  0  0  0  0  0  0  0  0  0
   58.0390   30.4660   44.1080 C   0  0  0  0  0  0  0  0  0  0  0  0
   57.9050   29.1290   44.1400 C   0  0  0  0  0  0  0  0  0  0  0  0
   56.9040   28.3820   44.9370 C   0  0  0  0  0  0  0  0  0  0  0  0
   55.8130   28.9540   45.2030 O   0  0  0  0  0  0  0  0  0  0  0  0
   57.1390   27.0120   45.4550 C   0  0  0  0  0  0  0  0  0  0  0  0
   58.4390   26.4790   45.4180 C   0  0  0  0  0  0  0  0  0  0  0  0
   58.7010   25.2140   45.9510 C   0  0  0  0  0  0  0  0  0  0  0  0
   57.6650   24.4610   46.5100 C   0  0  0  0  0  0  0  0  0  0  0  0
   57.9290   23.2070   47.0450 O   0  0  0  0  0  0  0  0  0  0  0  0
   56.3640   24.9680   46.5250 C   0  0  0  0  0  0  0  0  0  0  0  0
   56.0930   26.2330   45.9920 C   0  0  0  0  0  0  0  0  0  0  0  0
   54.7820   26.6990   45.9920 O   0  0  0  0  0  0  0  0  0  0  0  0
   57.9350   32.6680   45.2520 C   0  0  0  0  0  0  0  0  0  0  0  0
   58.1440   33.4810   46.3650 C   0  0  0  0  0  0  0  0  0  0  0  0
   58.7490   32.9660   47.5170 C   0  0  0  0  0  0  0  0  0  0  0  0
   58.8690   33.7920   48.6250 O   0  0  0  0  0  0  0  0  0  0  0  0
   58.8804   27.3181   48.7836 H   0  0  0  0  0  0  0  0  0  0  0  0
   58.2455   28.5435   47.6338 H   0  0  0  0  0  0  0  0  0  0  0  0
   59.9943   28.1329   47.6338 H   0  0  0  0  0  0  0  0  0  0  0  0
   59.2980   29.7666   46.4281 H   0  0  0  0  0  0  0  0  0  0  0  0
   57.9417   30.9628   43.1314 H   0  0  0  0  0  0  0  0  0  0  0  0
   58.5976   28.5391   43.5217 H   0  0  0  0  0  0  0  0  0  0  0  0
   59.2556   27.0615   44.9665 H   0  0  0  0  0  0  0  0  0  0  0  0
   59.7241   24.8105   45.9305 H   0  0  0  0  0  0  0  0  0  0  0  0
   55.5484   24.3701   46.9579 H   0  0  0  0  0  0  0  0  0  0  0  0
   57.4758   33.0882   44.3451 H   0  0  0  0  0  0  0  0  0  0  0  0
   57.8310   34.5352   46.3375 H   0  0  0  0  0  0  0  0  0  0  0  0
  1  2  1  0
  2  3  2  0
  2  4  2  0
  2  5  1  0
  5  6  1  0
  6  7  2  0
  7  8  1  0
  8  9  1  0
  9 10  2  3
 10 11  1  0
 11 12  2  0
 11 13  1  0
 13 14  2  0
 14 15  1  0
 15 16  2  0
 16 17  1  0
 16 18  1  0
 18 19  2  0
 19 20  1  0
  8 21  2  0
 21 22  1  0
 22 23  2  0
 23 24  1  0
 23  6  1  0
 19 13  1  0
  1 25  1  0
  1 26  1  0
  1 27  1  0
  7 28  1  0
  9 29  1  0
 10 30  1  0
 14 31  1  0
 15 32  1  0
 18 33  1  0
 21 34  1  0
 22 35  1  0
M  CHG  4   5  -1  17  -1  20  -1  24  -1
M  END
>  <UniqueID>  (40) 
39

>  <SMILES>  (40) 
CS(=O)(=O)[N-]c1cc(C=CC(=O)c2ccc([O-])cc2[O-])ccc1[O-]

>  <Energy>  (40) 
50.05494177917569

>  <Genealogy>  (40) 
CS(=O)(=O)[N-]c1cc(C=CC(=O)c2ccc([O-])cc2[O-])ccc1[O-] (protonated)
CS(=O)(=O)[N-]c1cc(C=CC(=O)c2ccc([O-])cc2[O-])ccc1[O-] (3D coordinates assigned)
CS(=O)(=O)[N-]c1cc(C=CC(=O)c2ccc([O-])cc2[O-])ccc1[O-] (optimized conformer: 50.05494177917569 kcal/mol)

>  <smiles>  (40) 
CS(=O)(=O)Nc1cc(C=CC(=O)c2ccc(O)cc2O)ccc1O

>  <score_type>  (40) 
oracle

>  <origin>  (40) 
adg

>  <m_score__min__energy>  (40) 
-15.18

>  <m_primary>  (40) 
energy

$$$$
40:0
     RDKit          3D

 59 61  0  0  0  0  0  0  0  0999 V2000
   60.5398   29.2498   53.2503 H   0  0  0  0  0  0  0  0  0  0  0  0
   60.1770   29.2330   52.2120 C   0  0  0  0  0  0  0  0  0  0  0  0
   58.7790   29.4950   51.9730 C   0  0  0  0  0  0  0  0  0  0  0  0
   57.6570   29.6980   51.7800 N   0  0  0  0  0  0  0  0  0  0  0  0
   61.0580   28.9700   51.2360 C   0  0  0  0  0  0  0  0  0  0  0  0
   62.0896   28.7302   51.5331 H   0  0  0  0  0  0  0  0  0  0  0  0
   60.7470   28.9780   49.7890 C   0  0  0  0  0  0  0  0  0  0  0  0
   60.0230   27.9100   49.2450 C   0  0  0  0  0  0  0  0  0  0  0  0
   59.7117   27.0779   49.8936 H   0  0  0  0  0  0  0  0  0  0  0  0
   59.6900   27.8890   47.8820 C   0  0  0  0  0  0  0  0  0  0  0  0
   58.9590   26.7040   47.3150 C   0  0  0  0  0  0  0  0  0  0  0  0
   58.5754   26.0821   48.1372 H   0  0  0  0  0  0  0  0  0  0  0  0
   58.1190   27.0530   46.6965 H   0  0  0  0  0  0  0  0  0  0  0  0
   59.6478   26.1099   46.6965 H   0  0  0  0  0  0  0  0  0  0  0  0
   60.0420   28.9840   47.0630 C   0  0  0  0  0  0  0  0  0  0  0  0
   59.6760   29.0120   45.7100 O   0  0  0  0  0  0  0  0  0  0  0  0
   58.4740   29.5590   45.2470 C   0  0  0  0  0  0  0  0  0  0  0  0
   58.3610   30.9090   45.1510 N   0  0  0  0  0  0  0  0  0  0  0  0
   57.2290   31.4950   44.6740 C   0  0  0  0  0  0  0  0  0  0  0  0
   57.1630   32.7820   44.4980 N   0  0  0  0  0  0  0  0  0  0  0  0
   56.9100   33.7740   45.5450 C   0  0  0  0  0  0  0  0  0  0  0  0
   55.8375   34.0185   45.5530 H   0  0  0  0  0  0  0  0  0  0  0  0
   57.5155   34.6660   45.3264 H   0  0  0  0  0  0  0  0  0  0  0  0
   57.2840   33.2860   46.8360 O   0  0  0  0  0  0  0  0  0  0  0  0
   58.5480   33.4300   47.4280 C   0  0  0  0  0  0  0  0  0  0  0  0
   59.5280   34.1390   46.7250 C   0  0  0  0  0  0  0  0  0  0  0  0
   59.3206   34.4903   45.7035 H   0  0  0  0  0  0  0  0  0  0  0  0
   60.7680   34.4040   47.3110 C   0  0  0  0  0  0  0  0  0  0  0  0
   61.5257   34.9753   46.7547 H   0  0  0  0  0  0  0  0  0  0  0  0
   61.0510   33.9450   48.6050 C   0  0  0  0  0  0  0  0  0  0  0  0
   62.3400   34.3330   49.2790 C   0  0  0  0  0  0  0  0  0  0  0  0
   62.1934   34.3268   50.3692 H   0  0  0  0  0  0  0  0  0  0  0  0
   62.6283   35.3383   48.9380 H   0  0  0  0  0  0  0  0  0  0  0  0
   63.4390   33.3680   48.9230 C   0  0  0  0  0  0  0  0  0  0  0  0
   64.0460   32.7170   49.8710 N   0  0  0  0  0  0  0  0  0  0  0  0
   65.1770   31.9680   49.6360 O   0  0  0  0  0  0  0  0  0  0  0  0
   66.2880   32.0550   50.5110 C   0  0  0  0  0  0  0  0  0  0  0  0
   65.9370   32.0275   51.5531 H   0  0  0  0  0  0  0  0  0  0  0  0
   66.9649   31.2071   50.3296 H   0  0  0  0  0  0  0  0  0  0  0  0
   66.8247   32.9979   50.3296 H   0  0  0  0  0  0  0  0  0  0  0  0
   63.7670   33.1360   47.5480 N   0  0  0  0  0  0  0  0  0  0  0  0
   64.5210   32.4680   47.2700 H   0  0  0  0  0  0  0  0  0  0  0  0
   63.2540   33.6350   46.7890 H   0  0  0  0  0  0  0  0  0  0  0  0
   60.0870   33.1910   49.2930 C   0  0  0  0  0  0  0  0  0  0  0  0
   60.3090   32.8075   50.2998 H   0  0  0  0  0  0  0  0  0  0  0  0
   58.8470   32.9250   48.7060 C   0  0  0  0  0  0  0  0  0  0  0  0
   58.1033   32.3194   49.2447 H   0  0  0  0  0  0  0  0  0  0  0  0
   56.1710   30.7220   44.3170 N   0  0  0  0  0  0  0  0  0  0  0  0
   56.2260   29.3680   44.4180 C   0  0  0  0  0  0  0  0  0  0  0  0
   55.3547   28.7590   44.1353 H   0  0  0  0  0  0  0  0  0  0  0  0
   57.3870   28.7520   44.8800 C   0  0  0  0  0  0  0  0  0  0  0  0
   57.4499   27.6564   44.9554 H   0  0  0  0  0  0  0  0  0  0  0  0
   60.7750   30.0570   47.6020 C   0  0  0  0  0  0  0  0  0  0  0  0
   61.1310   31.2390   46.7430 C   0  0  0  0  0  0  0  0  0  0  0  0
   61.3886   32.0944   47.3848 H   0  0  0  0  0  0  0  0  0  0  0  0
   61.9924   30.9846   46.1079 H   0  0  0  0  0  0  0  0  0  0  0  0
   60.2724   31.5026   46.1079 H   0  0  0  0  0  0  0  0  0  0  0  0
   61.0990   30.0590   48.9670 C   0  0  0  0  0  0  0  0  0  0  0  0
   61.6350   30.9177   49.3975 H   0  0  0  0  0  0  0  0  0  0  0  0
  1  2  1  0
  2  3  1  0
  3  4  3  0
  2  5  2  0
  5  6  1  0
  5  7  1  0
  7  8  2  0
  8  9  1  0
  8 10  1  0
 10 11  1  0
 11 12  1  0
 11 13  1  0
 11 14  1  0
 10 15  2  0
 15 16  1  0
 16 17  1  0
 17 18  2  0
 18 19  1  0
 19 20  2  0
 20 21  1  0
 21 22  1  0
 21 23  1  0
 21 24  1  0
 24 25  1  0
 25 26  2  0
 26 27  1  0
 26 28  1  0
 28 29  1  0
 28 30  2  0
 30 31  1  0
 31 32  1  0
 31 33  1  0
 31 34  1  0
 34 35  2  3
 35 36  1  0
 36 37  1  0
 37 38  1  0
 37 39  1  0
 37 40  1  0
 34 41  1  0
 41 42  1  0
 41 43  1  0
 30 44  1  0
 44 45  1  0
 44 46  2  0
 46 47  1  0
 19 48  1  0
 48 49  1  0
 49 50  1  0
 49 51  2  0
 51 52  1  0
 15 53  1  0
 53 54  1  0
 54 55  1  0
 54 56  1  0
 54 57  1  0
 53 58  2  0
 58 59  1  0
 58  7  1  0
 51 17  1  0
 46 25  1  0
M  CHG  1  48  -1
M  END
>  <UniqueID>  (41) 
40

>  <SMILES>  (41) 
CON=C(N)Cc1ccc(OC/N=c2\nc(Oc3c(C)cc(/C=C\C#N)cc3C)cc[n-]2)cc1

>  <Energy>  (41) 
65.41186825766239

>  <Genealogy>  (41) 
CON=C(N)Cc1ccc(OCN=c2nc(Oc3c(C)cc(C=CC#N)cc3C)cc[n-]2)cc1 (protonated)
CON=C(N)Cc1ccc(OC/N=c2\nc(Oc3c(C)cc(/C=C\C#N)cc3C)cc[n-]2)cc1 (cis-trans isomerization)
CON=C(N)Cc1ccc(OC/N=c2\nc(Oc3c(C)cc(/C=C\C#N)cc3C)cc[n-]2)cc1 (3D coordinates assigned)
CON=C(N)Cc1ccc(OC/N=c2\nc(Oc3c(C)cc(/C=C\C#N)cc3C)cc[n-]2)cc1 (optimized conformer: 65.41186825766239 kcal/mol)

>  <smiles>  (41) 
CON=C(N)Cc1ccc(OCN=c2nc(Oc3c(C)cc(C=CC#N)cc3C)cc[nH]2)cc1

>  <score_type>  (41) 
oracle

>  <origin>  (41) 
adg

>  <m_score__min__energy>  (41) 
-9.7100000000000009

>  <m_primary>  (41) 
energy

$$$$
41:0
     RDKit          3D

 41 42  0  0  0  0  0  0  0  0999 V2000
   55.2590   30.7130   44.3180 O   0  0  0  0  0  0  0  0  0  0  0  0
   56.2550   29.9410   44.3350 C   0  0  0  0  0  0  0  0  0  0  0  0
   57.5050   30.3790   43.7830 N   0  0  0  0  0  0  0  0  0  0  0  0
   57.7260   31.7760   43.4150 C   0  0  0  0  0  0  0  0  0  0  0  0
   58.0840   32.5930   44.6270 C   0  0  0  0  0  0  0  0  0  0  0  0
   58.5190   33.9210   44.4840 C   0  0  0  0  0  0  0  0  0  0  0  0
   58.8870   34.6670   45.6090 C   0  0  0  0  0  0  0  0  0  0  0  0
   58.8350   34.0880   46.8800 C   0  0  0  0  0  0  0  0  0  0  0  0
   58.4190   32.7620   47.0280 C   0  0  0  0  0  0  0  0  0  0  0  0
   58.0500   32.0130   45.9060 C   0  0  0  0  0  0  0  0  0  0  0  0
   56.1020   28.6160   44.8620 N   0  0  0  0  0  0  0  0  0  0  0  0
   57.1670   27.8640   45.4600 C   0  0  0  0  0  0  0  0  0  0  0  0
   58.2640   28.4200   45.7410 O   0  0  0  0  0  0  0  0  0  0  0  0
   56.9670   26.4810   45.7730 N   0  0  0  0  0  0  0  0  0  0  0  0
   58.2070   25.5170   46.5060 S   0  0  0  0  0  0  0  0  0  0  0  0
   59.4220   25.5450   45.6200 O   0  0  0  0  0  0  0  0  0  0  0  0
   58.5600   26.0860   47.8510 O   0  0  0  0  0  0  0  0  0  0  0  0
   57.6480   23.8650   46.6740 N   0  0  0  0  0  0  0  0  0  0  0  0
   56.6840   23.7160   47.7870 C   0  0  0  0  0  0  0  0  0  0  0  0
   55.2220   23.6730   47.3080 C   0  0  0  0  0  0  0  0  0  0  0  0
   55.0610   24.4750   46.1600 O   0  0  0  0  0  0  0  0  0  0  0  0
   55.7240   23.8830   45.0570 C   0  0  0  0  0  0  0  0  0  0  0  0
   57.1300   23.3330   45.4010 C   0  0  0  0  0  0  0  0  0  0  0  0
   58.2510   29.6710   43.5890 H   0  0  0  0  0  0  0  0  0  0  0  0
   58.5476   31.8321   42.6857 H   0  0  0  0  0  0  0  0  0  0  0  0
   56.8004   32.1780   42.9773 H   0  0  0  0  0  0  0  0  0  0  0  0
   58.5705   34.3761   43.4839 H   0  0  0  0  0  0  0  0  0  0  0  0
   59.2174   35.7098   45.4931 H   0  0  0  0  0  0  0  0  0  0  0  0
   59.1216   34.6762   47.7642 H   0  0  0  0  0  0  0  0  0  0  0  0
   58.3817   32.3067   48.0286 H   0  0  0  0  0  0  0  0  0  0  0  0
   57.7322   30.9667   46.0254 H   0  0  0  0  0  0  0  0  0  0  0  0
   55.1400   28.2120   44.8930 H   0  0  0  0  0  0  0  0  0  0  0  0
   56.0730   26.0190   45.4940 H   0  0  0  0  0  0  0  0  0  0  0  0
   56.9063   22.7807   48.3217 H   0  0  0  0  0  0  0  0  0  0  0  0
   56.7930   24.5949   48.4395 H   0  0  0  0  0  0  0  0  0  0  0  0
   54.9492   22.6350   47.0670 H   0  0  0  0  0  0  0  0  0  0  0  0
   54.5714   24.0569   48.1076 H   0  0  0  0  0  0  0  0  0  0  0  0
   55.1067   23.0517   44.6856 H   0  0  0  0  0  0  0  0  0  0  0  0
   55.8619   24.6715   44.3025 H   0  0  0  0  0  0  0  0  0  0  0  0
   57.0719   22.2370   45.4743 H   0  0  0  0  0  0  0  0  0  0  0  0
   57.8172   23.6490   44.6023 H   0  0  0  0  0  0  0  0  0  0  0  0
  1  2  2  0
  2  3  1  0
  3  4  1  0
  4  5  1  0
  5  6  2  0
  6  7  1  0
  7  8  2  0
  8  9  1  0
  9 10  2  0
  2 11  1  0
 11 12  1  0
 12 13  2  0
 12 14  1  0
 14 15  1  0
 15 16  2  0
 15 17  2  0
 15 18  1  0
 18 19  1  0
 19 20  1  0
 20 21  1  0
 21 22  1  0
 22 23  1  0
 10  5  1  0
 23 18  1  0
  3 24  1  0
  4 25  1  0
  4 26  1  0
  6 27  1  0
  7 28  1  0
  8 29  1  0
  9 30  1  0
 10 31  1  0
 11 32  1  0
 14 33  1  0
 19 34  1  0
 19 35  1  0
 20 36  1  0
 20 37  1  0
 22 38  1  0
 22 39  1  0
 23 40  1  0
 23 41  1  0
M  END
>  <UniqueID>  (42) 
41

>  <SMILES>  (42) 
O=C(NCc1ccccc1)NC(=O)NS(=O)(=O)N1CCOCC1

>  <Energy>  (42) 
49.9059318830578

>  <Genealogy>  (42) 
O=C(NCc1ccccc1)NC(=O)NS(=O)(=O)N1CCOCC1 (3D coordinates assigned)
O=C(NCc1ccccc1)NC(=O)NS(=O)(=O)N1CCOCC1 (nonaromatic ring conformer: 49.9059318830578 kcal/mol)

>  <smiles>  (42) 
O=C(NCc1ccccc1)NC(=O)NS(=O)(=O)N1CCOCC1

>  <score_type>  (42) 
oracle

>  <origin>  (42) 
adg

>  <m_score__min__energy>  (42) 
-8.2300000000000004

>  <m_primary>  (42) 
energy

$$$$
42:0
     RDKit          3D

 41 43  0  0  0  0  0  0  0  0999 V2000
   55.3670   29.3790   44.8960 N   0  0  0  0  0  0  0  0  0  0  0  0
   57.0850   29.5410   44.8280 S   0  0  0  0  0  0  0  0  0  0  0  0
   57.5580   29.2960   43.4230 O   0  0  0  0  0  0  0  0  0  0  0  0
   57.7240   28.5290   45.7360 O   0  0  0  0  0  0  0  0  0  0  0  0
   57.5360   31.1650   45.3360 C   0  0  0  0  0  0  0  0  0  0  0  0
   57.2340   32.2690   44.5270 C   0  0  0  0  0  0  0  0  0  0  0  0
   57.5630   33.5600   44.9500 C   0  0  0  0  0  0  0  0  0  0  0  0
   58.1810   33.7560   46.1870 C   0  0  0  0  0  0  0  0  0  0  0  0
   58.4720   32.6600   47.0100 C   0  0  0  0  0  0  0  0  0  0  0  0
   59.1850   32.9250   48.6020 S   0  0  0  0  0  0  0  0  0  0  0  0
   59.3830   34.4000   48.7960 O   0  0  0  0  0  0  0  0  0  0  0  0
   60.5180   32.2370   48.6860 O   0  0  0  0  0  0  0  0  0  0  0  0
   58.1580   32.3160   49.8620 N   0  0  0  0  0  0  0  0  0  0  0  0
   58.4550   31.1560   50.6470 C   0  0  0  0  0  0  0  0  0  0  0  0
   59.7780   30.6970   50.6750 C   0  0  0  0  0  0  0  0  0  0  0  0
   60.1400   29.6270   51.4950 C   0  0  0  0  0  0  0  0  0  0  0  0
   59.1820   29.0030   52.2930 C   0  0  0  0  0  0  0  0  0  0  0  0
   57.8520   29.4290   52.2510 C   0  0  0  0  0  0  0  0  0  0  0  0
   57.4670   30.4830   51.4080 C   0  0  0  0  0  0  0  0  0  0  0  0
   56.0800   30.8490   51.3580 N   0  0  0  0  0  0  0  0  0  0  0  0
   55.0790   30.2730   52.2090 C   0  0  0  0  0  0  0  0  0  0  0  0
   55.4130   29.5050   53.1530 O   0  0  0  0  0  0  0  0  0  0  0  0
   53.6570   30.5870   51.9960 C   0  0  0  0  0  0  0  0  0  0  0  0
   52.6150   29.6800   52.0810 C   0  0  0  0  0  0  0  0  0  0  0  0
   51.4670   30.3850   51.7940 C   0  0  0  0  0  0  0  0  0  0  0  0
   51.8750   31.6780   51.5530 C   0  0  0  0  0  0  0  0  0  0  0  0
   51.0260   32.7260   51.2230 O   0  0  0  0  0  0  0  0  0  0  0  0
   53.2080   31.8170   51.6730 N   0  0  0  0  0  0  0  0  0  0  0  0
   58.1590   31.3640   46.5750 C   0  0  0  0  0  0  0  0  0  0  0  0
   55.1570   28.6530   45.6180 H   0  0  0  0  0  0  0  0  0  0  0  0
   56.7370   32.1192   43.5572 H   0  0  0  0  0  0  0  0  0  0  0  0
   57.3347   34.4231   44.3074 H   0  0  0  0  0  0  0  0  0  0  0  0
   58.4399   34.7732   46.5160 H   0  0  0  0  0  0  0  0  0  0  0  0
   60.5378   31.1836   50.0458 H   0  0  0  0  0  0  0  0  0  0  0  0
   61.1823   29.2757   51.5116 H   0  0  0  0  0  0  0  0  0  0  0  0
   59.4734   28.1750   52.9559 H   0  0  0  0  0  0  0  0  0  0  0  0
   57.1005   28.9343   52.8838 H   0  0  0  0  0  0  0  0  0  0  0  0
   55.8220   31.6880   50.7910 H   0  0  0  0  0  0  0  0  0  0  0  0
   52.6888   28.6107   52.3282 H   0  0  0  0  0  0  0  0  0  0  0  0
   50.4385   29.9961   51.7636 H   0  0  0  0  0  0  0  0  0  0  0  0
   58.4038   30.4996   47.2097 H   0  0  0  0  0  0  0  0  0  0  0  0
  1  2  1  0
  2  3  2  0
  2  4  2  0
  2  5  1  0
  5  6  2  0
  6  7  1  0
  7  8  2  0
  8  9  1  0
  9 10  1  0
 10 11  2  0
 10 12  2  0
 10 13  1  0
 13 14  1  0
 14 15  2  0
 15 16  1  0
 16 17  2  0
 17 18  1  0
 18 19  2  0
 19 20  1  0
 20 21  1  0
 21 22  2  0
 21 23  1  0
 23 24  2  0
 24 25  1  0
 25 26  2  0
 26 27  1  0
 26 28  1  0
  9 29  2  0
 29  5  1  0
 19 14  1  0
 28 23  1  0
  1 30  1  0
  6 31  1  0
  7 32  1  0
  8 33  1  0
 15 34  1  0
 16 35  1  0
 17 36  1  0
 18 37  1  0
 20 38  1  0
 24 39  1  0
 25 40  1  0
 29 41  1  0
M  CHG  4   1  -1  13  -1  27  -1  28  -1
M  END
>  <UniqueID>  (43) 
42

>  <SMILES>  (43) 
[NH-]S(=O)(=O)c1cccc(S(=O)(=O)[N-]c2ccccc2NC(=O)c2ccc([O-])[n-]2)c1

>  <Energy>  (43) 
77.69764101446839

>  <Genealogy>  (43) 
[NH-]S(=O)(=O)c1cccc(S(=O)(=O)[N-]c2ccccc2NC(=O)c2ccc([O-])[n-]2)c1 (protonated)
[NH-]S(=O)(=O)c1cccc(S(=O)(=O)[N-]c2ccccc2NC(=O)c2ccc([O-])[n-]2)c1 (3D coordinates assigned)
[NH-]S(=O)(=O)c1cccc(S(=O)(=O)[N-]c2ccccc2NC(=O)c2ccc([O-])[n-]2)c1 (optimized conformer: 77.69764101446839 kcal/mol)

>  <smiles>  (43) 
NS(=O)(=O)c1cccc(S(=O)(=O)Nc2ccccc2NC(=O)c2ccc(O)[nH]2)c1

>  <score_type>  (43) 
oracle

>  <origin>  (43) 
adg

>  <m_score__min__energy>  (43) 
-18.73

>  <m_primary>  (43) 
energy

$$$$
43:0
     RDKit          3D

 37 38  0  0  0  0  0  0  0  0999 V2000
   59.6360   35.3000   46.9340 C   0  0  0  0  0  0  0  0  0  0  0  0
   58.9590   34.1050   45.8040 S   0  0  0  0  0  0  0  0  0  0  0  0
   59.4100   34.4370   44.4100 O   0  0  0  0  0  0  0  0  0  0  0  0
   57.4590   34.1500   45.8840 O   0  0  0  0  0  0  0  0  0  0  0  0
   59.5260   32.5280   46.2480 N   0  0  0  0  0  0  0  0  0  0  0  0
   59.1740   31.8320   47.4500 C   0  0  0  0  0  0  0  0  0  0  0  0
   59.0290   30.4410   47.4000 C   0  0  0  0  0  0  0  0  0  0  0  0
   58.6840   29.7220   48.5460 C   0  0  0  0  0  0  0  0  0  0  0  0
   58.4590   30.3840   49.7590 C   0  0  0  0  0  0  0  0  0  0  0  0
   58.1170   29.6020   50.9110 N   0  0  0  0  0  0  0  0  0  0  0  0
   57.5980   30.1170   52.1430 C   0  0  0  0  0  0  0  0  0  0  0  0
   58.2080   29.9050   53.2250 O   0  0  0  0  0  0  0  0  0  0  0  0
   56.4460   30.9660   52.1500 N   0  0  0  0  0  0  0  0  0  0  0  0
   55.0810   30.5300   52.2040 C   0  0  0  0  0  0  0  0  0  0  0  0
   54.7800   29.3460   52.8880 C   0  0  0  0  0  0  0  0  0  0  0  0
   53.4660   28.8800   52.9460 C   0  0  0  0  0  0  0  0  0  0  0  0
   52.4410   29.5850   52.3090 C   0  0  0  0  0  0  0  0  0  0  0  0
   52.7250   30.7620   51.5930 C   0  0  0  0  0  0  0  0  0  0  0  0
   51.6410   31.4990   50.9010 C   0  0  0  0  0  0  0  0  0  0  0  0
   51.0390   32.6420   51.5050 N   0  0  0  0  0  0  0  0  0  0  0  0
   51.2370   31.1190   49.7680 O   0  0  0  0  0  0  0  0  0  0  0  0
   54.0530   31.2230   51.5380 C   0  0  0  0  0  0  0  0  0  0  0  0
   58.6440   31.7790   49.8310 C   0  0  0  0  0  0  0  0  0  0  0  0
   58.5250   32.4470   51.0490 O   0  0  0  0  0  0  0  0  0  0  0  0
   58.9850   32.4970   48.6740 C   0  0  0  0  0  0  0  0  0  0  0  0
   59.4508   34.9731   47.9678 H   0  0  0  0  0  0  0  0  0  0  0  0
   60.7194   35.3903   46.7665 H   0  0  0  0  0  0  0  0  0  0  0  0
   59.1565   36.2757   46.7665 H   0  0  0  0  0  0  0  0  0  0  0  0
   59.1881   29.9098   46.4500 H   0  0  0  0  0  0  0  0  0  0  0  0
   58.5883   28.6273   48.4955 H   0  0  0  0  0  0  0  0  0  0  0  0
   55.5835   28.7802   53.3822 H   0  0  0  0  0  0  0  0  0  0  0  0
   53.2361   27.9548   53.4948 H   0  0  0  0  0  0  0  0  0  0  0  0
   51.4060   29.2172   52.3679 H   0  0  0  0  0  0  0  0  0  0  0  0
   50.0040   32.7010   51.6320 H   0  0  0  0  0  0  0  0  0  0  0  0
   54.2902   32.1340   50.9689 H   0  0  0  0  0  0  0  0  0  0  0  0
   58.3530   31.9490   51.9140 H   0  0  0  0  0  0  0  0  0  0  0  0
   59.1053   33.5892   48.7256 H   0  0  0  0  0  0  0  0  0  0  0  0
  1  2  1  0
  2  3  2  0
  2  4  2  0
  2  5  1  0
  5  6  1  0
  6  7  2  0
  7  8  1  0
  8  9  2  0
  9 10  1  0
 10 11  1  0
 11 12  2  0
 11 13  1  0
 13 14  1  0
 14 15  2  0
 15 16  1  0
 16 17  2  0
 17 18  1  0
 18 19  1  0
 19 20  1  0
 19 21  2  0
 18 22  2  0
  9 23  1  0
 23 24  1  0
 23 25  2  0
 25  6  1  0
 22 14  1  0
  1 26  1  0
  1 27  1  0
  1 28  1  0
  7 29  1  0
  8 30  1  0
 15 31  1  0
 16 32  1  0
 17 33  1  0
 20 34  1  0
 22 35  1  0
 24 36  1  0
 25 37  1  0
M  CHG  4   5  -1  10  -1  13  -1  20  -1
M  END
>  <UniqueID>  (44) 
43

>  <SMILES>  (44) 
CS(=O)(=O)[N-]c1ccc([N-]C(=O)[N-]c2cccc(C([NH-])=O)c2)c(O)c1

>  <Energy>  (44) 
44.8708068725825

>  <Genealogy>  (44) 
CS(=O)(=O)[N-]c1ccc([N-]C(=O)[N-]c2cccc(C([NH-])=O)c2)c(O)c1 (protonated)
CS(=O)(=O)[N-]c1ccc([N-]C(=O)[N-]c2cccc(C([NH-])=O)c2)c(O)c1 (3D coordinates assigned)
CS(=O)(=O)[N-]c1ccc([N-]C(=O)[N-]c2cccc(C([NH-])=O)c2)c(O)c1 (optimized conformer: 44.8708068725825 kcal/mol)

>  <smiles>  (44) 
CS(=O)(=O)Nc1ccc(NC(=O)Nc2cccc(C(N)=O)c2)c(O)c1

>  <score_type>  (44) 
oracle

>  <origin>  (44) 
adg

>  <m_score__min__energy>  (44) 
-13.84

>  <m_primary>  (44) 
energy

$$$$
44:0
     RDKit          3D

 42 44  0  0  0  0  0  0  0  0999 V2000
   61.7330   30.8370   49.2460 C   0  0  0  0  0  0  0  0  0  0  0  0
   62.0420   31.9030   48.2430 C   0  0  0  0  0  0  0  0  0  0  0  0
   63.3170   31.9880   47.6720 C   0  0  0  0  0  0  0  0  0  0  0  0
   63.5840   33.0000   46.7490 C   0  0  0  0  0  0  0  0  0  0  0  0
   62.5840   33.9080   46.3990 C   0  0  0  0  0  0  0  0  0  0  0  0
   61.3030   33.7870   46.9770 C   0  0  0  0  0  0  0  0  0  0  0  0
   60.3250   34.6040   46.6980 N   0  0  0  0  0  0  0  0  0  0  0  0
   59.4600   34.5600   45.5520 C   0  0  0  0  0  0  0  0  0  0  0  0
   59.2640   35.6230   44.9040 O   0  0  0  0  0  0  0  0  0  0  0  0
   58.7390   33.3230   45.1650 C   0  0  0  0  0  0  0  0  0  0  0  0
   58.4690   32.3310   46.1250 C   0  0  0  0  0  0  0  0  0  0  0  0
   57.7730   31.1720   45.7700 C   0  0  0  0  0  0  0  0  0  0  0  0
   57.3490   30.9810   44.4490 C   0  0  0  0  0  0  0  0  0  0  0  0
   56.4280   29.5400   44.0220 S   0  0  0  0  0  0  0  0  0  0  0  0
   55.1880   29.9510   43.2800 O   0  0  0  0  0  0  0  0  0  0  0  0
   56.0140   28.8060   45.2670 O   0  0  0  0  0  0  0  0  0  0  0  0
   57.3790   28.4940   43.0130 N   0  0  0  0  0  0  0  0  0  0  0  0
   57.9740   27.4310   43.8250 C   0  0  0  0  0  0  0  0  0  0  0  0
   58.9270   28.0250   44.8100 C   0  0  0  0  0  0  0  0  0  0  0  0
   60.0180   28.8290   44.5030 C   0  0  0  0  0  0  0  0  0  0  0  0
   60.6870   29.3030   45.6370 C   0  0  0  0  0  0  0  0  0  0  0  0
   60.1180   28.8890   46.8350 C   0  0  0  0  0  0  0  0  0  0  0  0
   58.7780   27.9340   46.4820 S   0  0  0  0  0  0  0  0  0  0  0  0
   57.6250   31.9590   43.4850 C   0  0  0  0  0  0  0  0  0  0  0  0
   58.3190   33.1190   43.8380 C   0  0  0  0  0  0  0  0  0  0  0  0
   61.0810   32.7990   47.8860 N   0  0  0  0  0  0  0  0  0  0  0  0
   61.8509   31.2436   50.2613 H   0  0  0  0  0  0  0  0  0  0  0  0
   60.6978   30.4918   49.1071 H   0  0  0  0  0  0  0  0  0  0  0  0
   62.4231   29.9917   49.1071 H   0  0  0  0  0  0  0  0  0  0  0  0
   64.0994   31.2656   47.9476 H   0  0  0  0  0  0  0  0  0  0  0  0
   64.5835   33.0820   46.2970 H   0  0  0  0  0  0  0  0  0  0  0  0
   62.7930   34.7120   45.6779 H   0  0  0  0  0  0  0  0  0  0  0  0
   58.8080   32.4683   47.1624 H   0  0  0  0  0  0  0  0  0  0  0  0
   57.5576   30.4073   46.5308 H   0  0  0  0  0  0  0  0  0  0  0  0
   58.1530   29.0770   42.6200 H   0  0  0  0  0  0  0  0  0  0  0  0
   57.1794   26.8934   44.3632 H   0  0  0  0  0  0  0  0  0  0  0  0
   58.5147   26.7314   43.1706 H   0  0  0  0  0  0  0  0  0  0  0  0
   60.3244   29.0683   43.4740 H   0  0  0  0  0  0  0  0  0  0  0  0
   61.5798   29.9434   45.5848 H   0  0  0  0  0  0  0  0  0  0  0  0
   60.4812   29.1421   47.8420 H   0  0  0  0  0  0  0  0  0  0  0  0
   57.2941   31.8132   42.4461 H   0  0  0  0  0  0  0  0  0  0  0  0
   58.5386   33.8782   43.0729 H   0  0  0  0  0  0  0  0  0  0  0  0
  1  2  1  0
  2  3  2  0
  3  4  1  0
  4  5  2  0
  5  6  1  0
  6  7  2  3
  7  8  1  0
  8  9  2  0
  8 10  1  0
 10 11  2  0
 11 12  1  0
 12 13  2  0
 13 14  1  0
 14 15  2  0
 14 16  2  0
 14 17  1  0
 17 18  1  0
 18 19  1  0
 19 20  2  0
 20 21  1  0
 21 22  2  0
 22 23  1  0
 13 24  1  0
 24 25  2  0
  6 26  1  0
 26  2  1  0
 25 10  1  0
 23 19  1  0
  1 27  1  0
  1 28  1  0
  1 29  1  0
  3 30  1  0
  4 31  1  0
  5 32  1  0
 11 33  1  0
 12 34  1  0
 17 35  1  0
 18 36  1  0
 18 37  1  0
 20 38  1  0
 21 39  1  0
 22 40  1  0
 24 41  1  0
 25 42  1  0
M  CHG  1  26  -1
M  END
>  <UniqueID>  (45) 
44

>  <SMILES>  (45) 
Cc1cccc(=NC(=O)c2ccc(S(=O)(=O)NCc3cccs3)cc2)[n-]1

>  <Energy>  (45) 
76.10238216257963

>  <Genealogy>  (45) 
Cc1cccc(=NC(=O)c2ccc(S(=O)(=O)NCc3cccs3)cc2)[n-]1 (protonated)
Cc1cccc(=NC(=O)c2ccc(S(=O)(=O)NCc3cccs3)cc2)[n-]1 (3D coordinates assigned)
Cc1cccc(=NC(=O)c2ccc(S(=O)(=O)NCc3cccs3)cc2)[n-]1 (optimized conformer: 76.10238216257963 kcal/mol)

>  <smiles>  (45) 
Cc1cccc(=NC(=O)c2ccc(S(=O)(=O)NCc3cccs3)cc2)[nH]1

>  <score_type>  (45) 
oracle

>  <origin>  (45) 
adg

>  <m_score__min__energy>  (45) 
-10.289999999999999

>  <m_primary>  (45) 
energy

$$$$
45:0
     RDKit          3D

 41 43  0  0  0  0  0  0  0  0999 V2000
   59.9250   30.7290   50.1740 O   0  0  0  0  0  0  0  0  0  0  0  0
   60.0790   29.9920   49.1620 C   0  0  0  0  0  0  0  0  0  0  0  0
   59.9640   28.5060   49.3060 C   0  0  0  0  0  0  0  0  0  0  0  0
   60.3980   27.8560   48.1130 O   0  0  0  0  0  0  0  0  0  0  0  0
   59.7900   28.0480   46.8660 C   0  0  0  0  0  0  0  0  0  0  0  0
   58.4010   27.9290   46.7560 C   0  0  0  0  0  0  0  0  0  0  0  0
   57.7860   28.1000   45.5080 C   0  0  0  0  0  0  0  0  0  0  0  0
   56.3210   27.9920   45.3630 C   0  0  0  0  0  0  0  0  0  0  0  0
   55.7530   26.9160   45.6840 O   0  0  0  0  0  0  0  0  0  0  0  0
   55.5190   29.0830   44.8970 N   0  0  0  0  0  0  0  0  0  0  0  0
   55.6590   29.7220   43.5930 C   0  0  0  0  0  0  0  0  0  0  0  0
   56.6160   30.8600   43.7060 C   0  0  0  0  0  0  0  0  0  0  0  0
   56.8980   31.4860   44.8700 N   0  0  0  0  0  0  0  0  0  0  0  0
   57.7490   32.5300   44.6890 C   0  0  0  0  0  0  0  0  0  0  0  0
   58.1400   32.7540   43.3750 C   0  0  0  0  0  0  0  0  0  0  0  0
   57.3900   31.5990   42.4100 S   0  0  0  0  0  0  0  0  0  0  0  0
   58.5760   28.4280   44.3970 C   0  0  0  0  0  0  0  0  0  0  0  0
   59.9600   28.5420   44.5460 C   0  0  0  0  0  0  0  0  0  0  0  0
   60.5320   28.3490   45.7640 N   0  0  0  0  0  0  0  0  0  0  0  0
   60.4050   30.5650   47.8880 N   0  0  0  0  0  0  0  0  0  0  0  0
   60.1350   31.9320   47.5310 C   0  0  0  0  0  0  0  0  0  0  0  0
   58.9250   32.5580   47.8860 C   0  0  0  0  0  0  0  0  0  0  0  0
   58.6740   33.8760   47.4950 C   0  0  0  0  0  0  0  0  0  0  0  0
   59.6170   34.5760   46.7400 C   0  0  0  0  0  0  0  0  0  0  0  0
   60.8110   33.9550   46.3640 C   0  0  0  0  0  0  0  0  0  0  0  0
   61.0660   32.6360   46.7510 C   0  0  0  0  0  0  0  0  0  0  0  0
   60.5894   28.1739   50.1478 H   0  0  0  0  0  0  0  0  0  0  0  0
   58.9114   28.2458   49.4915 H   0  0  0  0  0  0  0  0  0  0  0  0
   57.7938   27.7022   47.6447 H   0  0  0  0  0  0  0  0  0  0  0  0
   56.0401   28.9916   42.8642 H   0  0  0  0  0  0  0  0  0  0  0  0
   54.6801   30.0938   43.2561 H   0  0  0  0  0  0  0  0  0  0  0  0
   58.1029   33.1532   45.5235 H   0  0  0  0  0  0  0  0  0  0  0  0
   58.8195   33.5462   43.0275 H   0  0  0  0  0  0  0  0  0  0  0  0
   58.1090   28.5944   43.4150 H   0  0  0  0  0  0  0  0  0  0  0  0
   60.5878   28.7882   43.6769 H   0  0  0  0  0  0  0  0  0  0  0  0
   60.8900   29.9570   47.1900 H   0  0  0  0  0  0  0  0  0  0  0  0
   58.1748   32.0079   48.4730 H   0  0  0  0  0  0  0  0  0  0  0  0
   57.7308   34.3633   47.7829 H   0  0  0  0  0  0  0  0  0  0  0  0
   59.4201   35.6162   46.4412 H   0  0  0  0  0  0  0  0  0  0  0  0
   61.5507   34.5043   45.7631 H   0  0  0  0  0  0  0  0  0  0  0  0
   62.0017   32.1469   46.4425 H   0  0  0  0  0  0  0  0  0  0  0  0
  1  2  2  0
  2  3  1  0
  3  4  1  0
  4  5  1  0
  5  6  2  0
  6  7  1  0
  7  8  1  0
  8  9  2  0
  8 10  1  0
 10 11  1  0
 11 12  1  0
 12 13  2  0
 13 14  1  0
 14 15  2  0
 15 16  1  0
  7 17  2  0
 17 18  1  0
 18 19  2  0
  2 20  1  0
 20 21  1  0
 21 22  2  0
 22 23  1  0
 23 24  2  0
 24 25  1  0
 25 26  2  0
 19  5  1  0
 26 21  1  0
 16 12  1  0
  3 27  1  0
  3 28  1  0
  6 29  1  0
 11 30  1  0
 11 31  1  0
 14 32  1  0
 15 33  1  0
 17 34  1  0
 18 35  1  0
 20 36  1  0
 22 37  1  0
 23 38  1  0
 24 39  1  0
 25 40  1  0
 26 41  1  0
M  CHG  1  10  -1
M  END
>  <UniqueID>  (46) 
45

>  <SMILES>  (46) 
O=C(COc1cc(C(=O)[N-]Cc2nccs2)ccn1)Nc1ccccc1

>  <Energy>  (46) 
76.44101228471118

>  <Genealogy>  (46) 
O=C(COc1cc(C(=O)[N-]Cc2nccs2)ccn1)Nc1ccccc1 (protonated)
O=C(COc1cc(C(=O)[N-]Cc2nccs2)ccn1)Nc1ccccc1 (3D coordinates assigned)
O=C(COc1cc(C(=O)[N-]Cc2nccs2)ccn1)Nc1ccccc1 (optimized conformer: 76.44101228471118 kcal/mol)

>  <smiles>  (46) 
O=C(COc1cc(C(=O)NCc2nccs2)ccn1)Nc1ccccc1

>  <score_type>  (46) 
oracle

>  <origin>  (46) 
adg

>  <m_score__min__energy>  (46) 
-9.7200000000000006

>  <m_primary>  (46) 
energy

$$$$
46:0
     RDKit          3D

 59 62  0  0  1  0  0  0  0  0999 V2000
   66.1450   32.8520   50.1970 C   0  0  0  0  0  0  0  0  0  0  0  0
   64.8990   32.1330   49.7180 C   0  0  0  0  0  0  0  0  0  0  0  0
   63.7510   32.8570   50.1890 N   0  0  0  0  0  0  0  0  0  0  0  0
   62.7030   33.3210   49.3330 C   0  0  0  0  0  0  0  0  0  0  0  0
   61.4850   33.7550   49.8130 C   0  0  0  0  0  0  0  0  0  0  0  0
   60.4710   34.2090   48.9980 C   0  0  0  0  0  0  0  0  0  0  0  0
   60.6560   34.2440   47.6270 C   0  0  0  0  0  0  0  0  0  0  0  0
   59.5780   34.7430   46.7550 C   0  0  0  0  0  0  0  0  0  0  0  0
   59.7500   35.7990   46.0780 O   0  0  0  0  0  0  0  0  0  0  0  0
   58.3170   34.0390   46.6660 N   0  0  0  0  0  0  0  0  0  0  0  0
   58.0980   33.3290   45.6130 C   0  0  0  0  0  0  0  0  0  0  0  0
   57.3590   32.2100   45.6060 N   0  0  0  0  0  0  0  0  0  0  0  0
   57.1600   31.4880   44.4640 C   0  0  0  0  0  0  0  0  0  0  0  0
   56.3610   30.3140   44.4920 N   0  0  0  0  0  0  0  0  0  0  0  0
   56.8350   29.1250   44.5400 C   0  0  0  0  0  0  0  0  0  0  0  0
   56.7380   28.2130   45.5650 C   0  0  0  0  0  0  0  0  0  0  0  0
   57.3980   27.0780   45.0920 C   0  0  0  0  0  0  0  0  0  0  0  0
   57.6060   25.5860   45.9290 S   0  0  0  0  0  0  0  0  0  0  0  0
   56.4100   25.3030   46.7980 O   0  0  0  0  0  0  0  0  0  0  0  0
   57.6370   24.4810   44.8970 O   0  0  0  0  0  0  0  0  0  0  0  0
   59.0570   25.5490   46.7970 N   0  0  0  0  0  0  0  0  0  0  0  0
   59.2340   26.5180   47.8210 C   0  0  0  0  0  0  0  0  0  0  0  0
   59.5870   27.8570   47.2550 C   0  0  0  0  0  0  0  0  0  0  0  0
   59.1550   29.0110   47.9000 C   0  0  0  0  0  0  0  0  0  0  0  0
   59.4370   30.2640   47.4630 C   0  0  0  0  0  0  0  0  0  0  0  0
   60.1880   30.4170   46.3270 C   0  0  0  0  0  0  0  0  0  0  0  0
   60.6350   29.3040   45.6570 C   0  0  0  0  0  0  0  0  0  0  0  0
   60.3380   28.0240   46.1160 C   0  0  0  0  0  0  0  0  0  0  0  0
   57.8550   27.3440   43.8370 N   0  0  0  0  0  0  0  0  0  0  0  0
   57.5150   28.5750   43.5040 N   0  0  0  0  0  0  0  0  0  0  0  0
   57.7390   31.9240   43.2900 C   0  0  0  0  0  0  0  0  0  0  0  0
   58.5100   33.0930   43.3100 C   0  0  0  0  0  0  0  0  0  0  0  0
   58.6590   33.7510   44.4690 N   0  0  0  0  0  0  0  0  0  0  0  0
   61.8650   33.8150   47.1170 C   0  0  0  0  0  0  0  0  0  0  0  0
   62.8760   33.3590   47.9630 C   0  0  0  0  0  0  0  0  0  0  0  0
   66.1625   32.8621   51.2968 H   0  0  0  0  0  0  0  0  0  0  0  0
   67.0371   32.3298   49.8208 H   0  0  0  0  0  0  0  0  0  0  0  0
   66.1393   33.8857   49.8208 H   0  0  0  0  0  0  0  0  0  0  0  0
   64.8902   32.0963   48.6186 H   0  0  0  0  0  0  0  0  0  0  0  0
   64.8830   31.1036   50.1055 H   0  0  0  0  0  0  0  0  0  0  0  0
   63.6260   33.0810   51.2190 H   0  0  0  0  0  0  0  0  0  0  0  0
   61.3148   33.7379   50.8996 H   0  0  0  0  0  0  0  0  0  0  0  0
   59.5183   34.5423   49.4354 H   0  0  0  0  0  0  0  0  0  0  0  0
   56.2488   28.3482   46.5409 H   0  0  0  0  0  0  0  0  0  0  0  0
   59.8720   25.4440   46.1910 H   0  0  0  0  0  0  0  0  0  0  0  0
   58.2991   26.6074   48.3937 H   0  0  0  0  0  0  0  0  0  0  0  0
   60.0603   26.1886   48.4681 H   0  0  0  0  0  0  0  0  0  0  0  0
   58.5522   28.9019   48.8136 H   0  0  0  0  0  0  0  0  0  0  0  0
   59.0686   31.1432   48.0119 H   0  0  0  0  0  0  0  0  0  0  0  0
   60.4310   31.4231   45.9545 H   0  0  0  0  0  0  0  0  0  0  0  0
   61.2366   29.4263   44.7442 H   0  0  0  0  0  0  0  0  0  0  0  0
   60.7049   27.1447   45.5663 H   0  0  0  0  0  0  0  0  0  0  0  0
   58.3880   26.6950   43.2190 H   0  0  0  0  0  0  0  0  0  0  0  0
   57.7320   29.0480   42.5950 H   0  0  0  0  0  0  0  0  0  0  0  0
   57.5975   31.3631   42.3544 H   0  0  0  0  0  0  0  0  0  0  0  0
   58.9854   33.4652   42.3905 H   0  0  0  0  0  0  0  0  0  0  0  0
   59.2520   34.6290   44.4250 H   0  0  0  0  0  0  0  0  0  0  0  0
   62.0332   33.8330   46.0301 H   0  0  0  0  0  0  0  0  0  0  0  0
   63.8300   33.0230   47.5306 H   0  0  0  0  0  0  0  0  0  0  0  0
  1  2  1  0
  2  3  1  0
  3  4  1  0
  4  5  2  0
  5  6  1  0
  6  7  2  0
  7  8  1  0
  8  9  2  0
  8 10  1  0
 10 11  2  0
 11 12  1  0
 12 13  2  0
 13 14  1  0
 14 15  2  0
 15 16  1  0
 16 17  2  0
 17 18  1  0
 18 19  2  0
 18 20  2  0
 18 21  1  0
 21 22  1  0
 22 23  1  0
 23 24  2  0
 24 25  1  0
 25 26  2  0
 26 27  1  0
 27 28  2  0
 17 29  1  0
 29 30  1  0
 13 31  1  0
 31 32  2  0
 32 33  1  0
  7 34  1  0
 34 35  2  0
 35  4  1  0
 33 11  1  0
 30 15  1  0
 28 23  1  0
  1 36  1  0
  1 37  1  0
  1 38  1  0
  2 39  1  0
  2 40  1  0
  3 41  1  0
  5 42  1  0
  6 43  1  0
 16 44  1  0
 21 45  1  0
 22 46  1  0
 22 47  1  0
 24 48  1  0
 25 49  1  0
 26 50  1  0
 27 51  1  0
 28 52  1  0
 29 53  1  0
 30 54  1  0
 31 55  1  0
 32 56  1  0
 33 57  1  0
 34 58  1  0
 35 59  1  0
M  END
>  <smiles>  (47) 
CCNc1ccc(C(=O)N=c2nc(N=c3cc(S(=O)(=O)NCc4ccccc4)[nH][nH]3)cc[nH]2)cc1

>  <score_type>  (47) 
oracle

>  <origin>  (47) 
adg

>  <m_score__min__energy>  (47) 
-9.8000000000000007

>  <m_primary>  (47) 
energy

$$$$
47:0
     RDKit          3D

 38 40  0  0  0  0  0  0  0  0999 V2000
   55.1870   29.4940   43.0640 O   0  0  0  0  0  0  0  0  0  0  0  0
   55.8820   29.7390   44.0880 C   0  0  0  0  0  0  0  0  0  0  0  0
   55.7820   28.8940   45.2440 N   0  0  0  0  0  0  0  0  0  0  0  0
   56.6810   27.8380   45.6160 C   0  0  0  0  0  0  0  0  0  0  0  0
   58.0790   28.0010   45.5670 C   0  0  0  0  0  0  0  0  0  0  0  0
   58.9240   26.9420   45.9120 C   0  0  0  0  0  0  0  0  0  0  0  0
   58.3850   25.7100   46.2940 C   0  0  0  0  0  0  0  0  0  0  0  0
   56.9990   25.5330   46.3220 C   0  0  0  0  0  0  0  0  0  0  0  0
   56.1500   26.5890   45.9760 C   0  0  0  0  0  0  0  0  0  0  0  0
   54.7730   26.3970   46.0000 O   0  0  0  0  0  0  0  0  0  0  0  0
   56.8430   30.8670   44.0760 C   0  0  0  0  0  0  0  0  0  0  0  0
   57.0580   31.6070   42.9000 C   0  0  0  0  0  0  0  0  0  0  0  0
   57.9510   32.6800   42.8920 C   0  0  0  0  0  0  0  0  0  0  0  0
   58.6470   33.0240   44.0520 C   0  0  0  0  0  0  0  0  0  0  0  0
   58.4650   32.2890   45.2330 C   0  0  0  0  0  0  0  0  0  0  0  0
   59.1760   32.6760   46.4210 N   0  0  0  0  0  0  0  0  0  0  0  0
   60.0780   33.7940   46.4810 C   0  0  0  0  0  0  0  0  0  0  0  0
   59.9760   34.7250   45.6350 O   0  0  0  0  0  0  0  0  0  0  0  0
   61.0950   33.8940   47.5560 C   0  0  0  0  0  0  0  0  0  0  0  0
   62.4590   33.7360   47.2580 C   0  0  0  0  0  0  0  0  0  0  0  0
   63.4080   33.8260   48.2800 C   0  0  0  0  0  0  0  0  0  0  0  0
   63.0120   34.0590   49.5590 N   0  0  0  0  0  0  0  0  0  0  0  0
   61.7010   34.2070   49.8820 C   0  0  0  0  0  0  0  0  0  0  0  0
   60.7190   34.1260   48.8910 C   0  0  0  0  0  0  0  0  0  0  0  0
   57.5470   31.2230   45.2430 C   0  0  0  0  0  0  0  0  0  0  0  0
   58.5077   28.9651   45.2561 H   0  0  0  0  0  0  0  0  0  0  0  0
   60.0151   27.0784   45.8828 H   0  0  0  0  0  0  0  0  0  0  0  0
   59.0514   24.8803   46.5724 H   0  0  0  0  0  0  0  0  0  0  0  0
   56.5753   24.5616   46.6166 H   0  0  0  0  0  0  0  0  0  0  0  0
   56.5187   31.3385   41.9796 H   0  0  0  0  0  0  0  0  0  0  0  0
   58.1067   33.2565   41.9682 H   0  0  0  0  0  0  0  0  0  0  0  0
   59.3422   33.8764   44.0401 H   0  0  0  0  0  0  0  0  0  0  0  0
   58.9360   32.1890   47.3140 H   0  0  0  0  0  0  0  0  0  0  0  0
   62.7789   33.5421   46.2236 H   0  0  0  0  0  0  0  0  0  0  0  0
   64.4770   33.7081   48.0488 H   0  0  0  0  0  0  0  0  0  0  0  0
   61.4113   34.3912   50.9271 H   0  0  0  0  0  0  0  0  0  0  0  0
   59.6573   34.2431   49.1539 H   0  0  0  0  0  0  0  0  0  0  0  0
   57.3770   30.6609   46.1731 H   0  0  0  0  0  0  0  0  0  0  0  0
  1  2  2  0
  2  3  1  0
  3  4  1  0
  4  5  2  0
  5  6  1  0
  6  7  2  0
  7  8  1  0
  8  9  2  0
  9 10  1  0
  2 11  1  0
 11 12  2  0
 12 13  1  0
 13 14  2  0
 14 15  1  0
 15 16  1  0
 16 17  1  0
 17 18  2  0
 17 19  1  0
 19 20  2  0
 20 21  1  0
 21 22  2  0
 22 23  1  0
 23 24  2  0
 15 25  2  0
  9  4  1  0
 25 11  1  0
 24 19  1  0
  5 26  1  0
  6 27  1  0
  7 28  1  0
  8 29  1  0
 12 30  1  0
 13 31  1  0
 14 32  1  0
 16 33  1  0
 20 34  1  0
 21 35  1  0
 23 36  1  0
 24 37  1  0
 25 38  1  0
M  CHG  2   3  -1  10  -1
M  END
>  <UniqueID>  (48) 
46

>  <SMILES>  (48) 
O=C([N-]c1ccccc1[O-])c1cccc(NC(=O)c2ccncc2)c1

>  <Energy>  (48) 
52.143388356126515

>  <Genealogy>  (48) 
O=C([N-]c1ccccc1[O-])c1cccc(NC(=O)c2ccncc2)c1 (protonated)
O=C([N-]c1ccccc1[O-])c1cccc(NC(=O)c2ccncc2)c1 (3D coordinates assigned)
O=C([N-]c1ccccc1[O-])c1cccc(NC(=O)c2ccncc2)c1 (optimized conformer: 52.143388356126515 kcal/mol)

>  <smiles>  (48) 
O=C(Nc1cccc(C(=O)Nc2ccccc2O)c1)c1ccncc1

>  <score_type>  (48) 
oracle

>  <origin>  (48) 
adg

>  <m_score__min__energy>  (48) 
-14.289999999999999

>  <m_primary>  (48) 
energy

$$$$
48:0
     RDKit          3D

 36 38  0  0  0  0  0  0  0  0999 V2000
   58.5760   25.7630   47.1620 O   0  0  0  0  0  0  0  0  0  0  0  0
   57.7890   25.8720   46.1830 C   0  0  0  0  0  0  0  0  0  0  0  0
   57.3240   24.6420   45.5000 C   0  0  0  0  0  0  0  0  0  0  0  0
   57.4140   24.5700   44.0990 C   0  0  0  0  0  0  0  0  0  0  0  0
   56.9590   23.4400   43.4160 C   0  0  0  0  0  0  0  0  0  0  0  0
   56.4180   22.3650   44.1230 C   0  0  0  0  0  0  0  0  0  0  0  0
   56.3440   22.4130   45.5170 C   0  0  0  0  0  0  0  0  0  0  0  0
   56.7980   23.5390   46.2130 C   0  0  0  0  0  0  0  0  0  0  0  0
   56.7590   23.4920   47.9740 Cl  0  0  0  0  0  0  0  0  0  0  0  0
   57.3840   27.2260   45.7250 C   0  0  0  0  0  0  0  0  0  0  0  0
   56.0300   27.5620   45.6150 C   0  0  0  0  0  0  0  0  0  0  0  0
   55.0360   26.6390   45.9240 O   0  0  0  0  0  0  0  0  0  0  0  0
   55.6730   28.7960   45.1900 N   0  0  0  0  0  0  0  0  0  0  0  0
   56.5960   29.7270   44.8480 C   0  0  0  0  0  0  0  0  0  0  0  0
   56.1990   30.8630   44.4740 O   0  0  0  0  0  0  0  0  0  0  0  0
   57.9370   29.4390   44.9210 N   0  0  0  0  0  0  0  0  0  0  0  0
   58.9330   30.4610   44.5230 C   0  0  0  0  0  0  0  0  0  0  0  0
   58.6840   31.7790   45.2270 C   0  0  0  0  0  0  0  0  0  0  0  0
   58.2880   32.8990   44.4710 C   0  0  0  0  0  0  0  0  0  0  0  0
   58.0750   34.1350   45.0850 C   0  0  0  0  0  0  0  0  0  0  0  0
   58.2490   34.2710   46.4630 C   0  0  0  0  0  0  0  0  0  0  0  0
   58.6270   33.1680   47.2290 C   0  0  0  0  0  0  0  0  0  0  0  0
   58.8430   31.9230   46.6250 C   0  0  0  0  0  0  0  0  0  0  0  0
   59.2710   30.5710   47.6650 Cl  0  0  0  0  0  0  0  0  0  0  0  0
   58.3370   28.2120   45.3950 C   0  0  0  0  0  0  0  0  0  0  0  0
   59.5630   27.9640   45.5660 O   0  0  0  0  0  0  0  0  0  0  0  0
   57.8463   25.4104   43.5361 H   0  0  0  0  0  0  0  0  0  0  0  0
   57.0271   23.3971   42.3189 H   0  0  0  0  0  0  0  0  0  0  0  0
   56.0501   21.4804   43.5826 H   0  0  0  0  0  0  0  0  0  0  0  0
   55.9260   21.5599   46.0715 H   0  0  0  0  0  0  0  0  0  0  0  0
   59.9392   30.1007   44.7834 H   0  0  0  0  0  0  0  0  0  0  0  0
   58.8458   30.6257   43.4389 H   0  0  0  0  0  0  0  0  0  0  0  0
   58.1449   32.7992   43.3849 H   0  0  0  0  0  0  0  0  0  0  0  0
   57.7697   35.0026   44.4817 H   0  0  0  0  0  0  0  0  0  0  0  0
   58.0883   35.2468   46.9446 H   0  0  0  0  0  0  0  0  0  0  0  0
   58.7564   33.2770   48.3159 H   0  0  0  0  0  0  0  0  0  0  0  0
  1  2  2  0
  2  3  1  0
  3  4  2  0
  4  5  1  0
  5  6  2  0
  6  7  1  0
  7  8  2  0
  8  9  1  0
  2 10  1  0
 10 11  2  0
 11 12  1  0
 11 13  1  0
 13 14  1  0
 14 15  2  0
 14 16  1  0
 16 17  1  0
 17 18  1  0
 18 19  2  0
 19 20  1  0
 20 21  2  0
 21 22  1  0
 22 23  2  0
 23 24  1  0
 16 25  1  0
 25 26  2  0
  8  3  1  0
 25 10  1  0
 23 18  1  0
  4 27  1  0
  5 28  1  0
  6 29  1  0
  7 30  1  0
 17 31  1  0
 17 32  1  0
 19 33  1  0
 20 34  1  0
 21 35  1  0
 22 36  1  0
M  CHG  2  12  -1  13  -1
M  END
>  <UniqueID>  (49) 
47

>  <SMILES>  (49) 
O=C(c1ccccc1Cl)c1c([O-])[n-]c(=O)n(Cc2ccccc2Cl)c1=O

>  <Energy>  (49) 
56.46358937311683

>  <Genealogy>  (49) 
O=C(c1ccccc1Cl)c1c([O-])[n-]c(=O)n(Cc2ccccc2Cl)c1=O (protonated)
O=C(c1ccccc1Cl)c1c([O-])[n-]c(=O)n(Cc2ccccc2Cl)c1=O (3D coordinates assigned)
O=C(c1ccccc1Cl)c1c([O-])[n-]c(=O)n(Cc2ccccc2Cl)c1=O (optimized conformer: 56.46358937311683 kcal/mol)

>  <smiles>  (49) 
O=C(c1ccccc1Cl)c1c(O)[nH]c(=O)n(Cc2ccccc2Cl)c1=O

>  <score_type>  (49) 
oracle

>  <origin>  (49) 
adg

>  <m_score__min__energy>  (49) 
-13.609999999999999

>  <m_primary>  (49) 
energy

$$$$
49:0
     RDKit          3D

 46 48  0  0  0  0  0  0  0  0999 V2000
   57.5432   31.0956   50.4195 H   0  0  0  0  0  0  0  0  0  0  0  0
   58.5230   31.2340   49.9390 C   0  0  0  0  0  0  0  0  0  0  0  0
   58.9840   32.4850   49.6840 N   0  0  0  0  0  0  0  0  0  0  0  0
   60.1880   32.7220   49.0930 C   0  0  0  0  0  0  0  0  0  0  0  0
   60.5560   34.1370   48.8540 C   0  0  0  0  0  0  0  0  0  0  0  0
   61.6570   34.6050   49.2530 O   0  0  0  0  0  0  0  0  0  0  0  0
   59.6650   34.9550   48.1480 O   0  0  0  0  0  0  0  0  0  0  0  0
   59.6420   35.0450   46.7250 C   0  0  0  0  0  0  0  0  0  0  0  0
   60.6740   35.0977   46.3480 H   0  0  0  0  0  0  0  0  0  0  0  0
   59.0874   35.9488   46.4325 H   0  0  0  0  0  0  0  0  0  0  0  0
   58.9600   33.8410   46.1370 C   0  0  0  0  0  0  0  0  0  0  0  0
   59.6420   32.6220   46.0070 C   0  0  0  0  0  0  0  0  0  0  0  0
   60.6936   32.5475   46.3209 H   0  0  0  0  0  0  0  0  0  0  0  0
   58.9930   31.5020   45.4810 C   0  0  0  0  0  0  0  0  0  0  0  0
   59.5399   30.5531   45.3789 H   0  0  0  0  0  0  0  0  0  0  0  0
   57.6470   31.5770   45.0810 C   0  0  0  0  0  0  0  0  0  0  0  0
   56.9580   30.3910   44.5190 C   0  0  0  0  0  0  0  0  0  0  0  0
   55.6980   30.3540   44.4920 O   0  0  0  0  0  0  0  0  0  0  0  0
   57.7250   29.2530   44.0940 N   0  0  0  0  0  0  0  0  0  0  0  0
   58.0240   28.1770   44.7710 C   0  0  0  0  0  0  0  0  0  0  0  0
   59.0190   28.2670   45.7530 C   0  0  0  0  0  0  0  0  0  0  0  0
   59.5209   29.2277   45.9405 H   0  0  0  0  0  0  0  0  0  0  0  0
   59.3750   27.1350   46.4960 C   0  0  0  0  0  0  0  0  0  0  0  0
   60.3980   27.2320   47.5890 C   0  0  0  0  0  0  0  0  0  0  0  0
   59.8958   27.1844   48.5665 H   0  0  0  0  0  0  0  0  0  0  0  0
   61.1089   26.3972   47.5010 H   0  0  0  0  0  0  0  0  0  0  0  0
   60.9394   28.1855   47.5010 H   0  0  0  0  0  0  0  0  0  0  0  0
   58.7180   25.9250   46.2520 C   0  0  0  0  0  0  0  0  0  0  0  0
   58.9628   25.0322   46.8461 H   0  0  0  0  0  0  0  0  0  0  0  0
   57.7500   25.8580   45.2500 C   0  0  0  0  0  0  0  0  0  0  0  0
   57.2437   24.9038   45.0420 H   0  0  0  0  0  0  0  0  0  0  0  0
   57.4280   26.9660   44.5280 N   0  0  0  0  0  0  0  0  0  0  0  0
   56.7350   26.8390   43.7600 H   0  0  0  0  0  0  0  0  0  0  0  0
   56.9650   32.8000   45.2200 C   0  0  0  0  0  0  0  0  0  0  0  0
   55.9116   32.8755   44.9125 H   0  0  0  0  0  0  0  0  0  0  0  0
   57.6160   33.9200   45.7460 C   0  0  0  0  0  0  0  0  0  0  0  0
   57.0703   34.8690   45.8537 H   0  0  0  0  0  0  0  0  0  0  0  0
   61.0100   31.6160   48.7380 C   0  0  0  0  0  0  0  0  0  0  0  0
   62.3680   31.7750   48.1080 C   0  0  0  0  0  0  0  0  0  0  0  0
   63.1298   31.8642   48.8965 H   0  0  0  0  0  0  0  0  0  0  0  0
   62.5877   30.8964   47.4836 H   0  0  0  0  0  0  0  0  0  0  0  0
   62.3788   32.6805   47.4836 H   0  0  0  0  0  0  0  0  0  0  0  0
   60.5330   30.3190   48.9930 C   0  0  0  0  0  0  0  0  0  0  0  0
   61.1460   29.4483   48.7171 H   0  0  0  0  0  0  0  0  0  0  0  0
   59.2910   30.1270   49.5920 C   0  0  0  0  0  0  0  0  0  0  0  0
   58.9206   29.1102   49.7890 H   0  0  0  0  0  0  0  0  0  0  0  0
  1  2  1  0
  2  3  2  0
  3  4  1  0
  4  5  1  0
  5  6  2  0
  5  7  1  0
  7  8  1  0
  8  9  1  0
  8 10  1  0
  8 11  1  0
 11 12  2  0
 12 13  1  0
 12 14  1  0
 14 15  1  0
 14 16  2  0
 16 17  1  0
 17 18  2  0
 17 19  1  0
 19 20  2  0
 20 21  1  0
 21 22  1  0
 21 23  2  0
 23 24  1  0
 24 25  1  0
 24 26  1  0
 24 27  1  0
 23 28  1  0
 28 29  1  0
 28 30  2  0
 30 31  1  0
 30 32  1  0
 32 33  1  0
 16 34  1  0
 34 35  1  0
 34 36  2  0
 36 37  1  0
  4 38  2  0
 38 39  1  0
 39 40  1  0
 39 41  1  0
 39 42  1  0
 38 43  1  0
 43 44  1  0
 43 45  2  0
 45 46  1  0
 45  2  1  0
 36 11  1  0
 32 20  1  0
M  END
>  <UniqueID>  (50) 
48

>  <SMILES>  (50) 
Cc1cc[nH]/c(=N\C(=O)c2ccc(COC(=O)c3ncccc3C)cc2)c1

>  <Energy>  (50) 
57.80981008550556

>  <Genealogy>  (50) 
Cc1cc[nH]/c(=N\C(=O)c2ccc(COC(=O)c3ncccc3C)cc2)c1 (cis-trans isomerization)
Cc1cc[nH]/c(=N\C(=O)c2ccc(COC(=O)c3ncccc3C)cc2)c1 (3D coordinates assigned)
Cc1cc[nH]/c(=N\C(=O)c2ccc(COC(=O)c3ncccc3C)cc2)c1 (optimized conformer: 57.80981008550556 kcal/mol)

>  <smiles>  (50) 
Cc1cc[nH]c(=NC(=O)c2ccc(COC(=O)c3ncccc3C)cc2)c1

>  <score_type>  (50) 
oracle

>  <origin>  (50) 
adg

>  <m_score__min__energy>  (50) 
-8.9199999999999999

>  <m_primary>  (50) 
energy

$$$$
50:0
     RDKit          3D

 27 29  0  0  0  0  0  0  0  0999 V2000
   58.3330   26.7250   44.8500 O   0  0  0  0  0  0  0  0  0  0  0  0
   57.5590   27.5990   45.3260 C   0  0  0  0  0  0  0  0  0  0  0  0
   56.5500   27.1820   46.2620 N   0  0  0  0  0  0  0  0  0  0  0  0
   55.9090   26.0500   46.2740 C   0  0  0  0  0  0  0  0  0  0  0  0
   56.4320   24.9440   46.8730 N   0  0  0  0  0  0  0  0  0  0  0  0
   55.7690   23.7580   46.8600 C   0  0  0  0  0  0  0  0  0  0  0  0
   54.5360   23.6580   46.2200 C   0  0  0  0  0  0  0  0  0  0  0  0
   54.0160   24.7950   45.6030 C   0  0  0  0  0  0  0  0  0  0  0  0
   54.7100   25.9620   45.6370 N   0  0  0  0  0  0  0  0  0  0  0  0
   57.6790   29.0310   44.8490 C   0  0  2  0  0  0  0  0  0  0  0  0
   58.6280   29.8380   45.7750 C   0  0  0  0  0  0  0  0  0  0  0  0
   58.5150   31.2680   45.5020 N   0  0  0  0  0  0  0  0  0  0  0  0
   59.4160   32.1870   45.8040 N   0  0  0  0  0  0  0  0  0  0  0  0
   58.8560   33.3920   45.5450 C   0  0  0  0  0  0  0  0  0  0  0  0
   57.5520   33.2270   45.0930 C   0  0  0  0  0  0  0  0  0  0  0  0
   57.3900   31.8640   45.0950 C   0  0  0  0  0  0  0  0  0  0  0  0
   56.2200   31.1270   44.7590 N   0  0  0  0  0  0  0  0  0  0  0  0
   56.3170   29.6990   44.7300 C   0  0  0  0  0  0  0  0  0  0  0  0
   55.2800   29.0160   44.5160 O   0  0  0  0  0  0  0  0  0  0  0  0
   56.2056   22.8777   47.3544 H   0  0  0  0  0  0  0  0  0  0  0  0
   53.9861   22.7055   46.2018 H   0  0  0  0  0  0  0  0  0  0  0  0
   53.0446   24.7469   45.0892 H   0  0  0  0  0  0  0  0  0  0  0  0
   58.1182   29.0151   43.8406 H   0  0  0  0  0  0  0  0  0  0  0  0
   58.3583   29.6474   46.8243 H   0  0  0  0  0  0  0  0  0  0  0  0
   59.6641   29.5206   45.5860 H   0  0  0  0  0  0  0  0  0  0  0  0
   59.3600   34.3613   45.6736 H   0  0  0  0  0  0  0  0  0  0  0  0
   56.8259   34.0010   44.8038 H   0  0  0  0  0  0  0  0  0  0  0  0
  1  2  2  0
  2  3  1  0
  3  4  2  3
  4  5  1  0
  5  6  2  0
  6  7  1  0
  7  8  2  0
  8  9  1  0
  2 10  1  0
 10 11  1  0
 11 12  1  0
 12 13  1  0
 13 14  2  0
 14 15  1  0
 15 16  2  0
 16 17  1  0
 17 18  1  0
 18 19  2  0
  9  4  1  0
 18 10  1  0
 16 12  1  0
  6 20  1  0
  7 21  1  0
  8 22  1  0
 10 23  1  6
 11 24  1  0
 11 25  1  0
 14 26  1  0
 15 27  1  0
M  CHG  2   9  -1  17  -1
M  END
>  <UniqueID>  (51) 
49

>  <SMILES>  (51) 
O=C(N=c1nccc[n-]1)[C@@H]1Cn2nccc2[N-]C1=O

>  <Energy>  (51) 
69.56610728681883

>  <Genealogy>  (51) 
O=C(N=c1nccc[n-]1)C1Cn2nccc2[N-]C1=O (protonated)
O=C(N=c1nccc[n-]1)[C@@H]1Cn2nccc2[N-]C1=O (chirality)
O=C(N=c1nccc[n-]1)[C@@H]1Cn2nccc2[N-]C1=O (3D coordinates assigned)
O=C(N=c1nccc[n-]1)[C@@H]1Cn2nccc2[N-]C1=O (nonaromatic ring conformer: 69.56610728681883 kcal/mol)

>  <smiles>  (51) 
O=C(N=c1nccc[nH]1)C1Cn2nccc2NC1=O

>  <score_type>  (51) 
oracle

>  <origin>  (51) 
adg

>  <m_score__min__energy>  (51) 
-10.119999999999999

>  <m_primary>  (51) 
energy

$$$$
51:0
     RDKit          3D

 30 31  0  0  0  0  0  0  0  0999 V2000
   55.7880   29.7010   44.8680 O   0  0  0  0  0  0  0  0  0  0  0  0
   56.6470   28.7810   44.8890 C   0  0  0  0  0  0  0  0  0  0  0  0
   57.7350   28.7920   43.8450 C   0  0  0  0  0  0  0  0  0  0  0  0
   59.1240   28.5930   44.4630 C   0  0  0  0  0  0  0  0  0  0  0  0
   59.4390   29.7020   45.8370 S   0  0  0  0  0  0  0  0  0  0  0  0
   58.9050   29.0850   47.0990 O   0  0  0  0  0  0  0  0  0  0  0  0
   60.9240   29.8830   45.9790 O   0  0  0  0  0  0  0  0  0  0  0  0
   58.6620   31.2660   45.5950 C   0  0  0  0  0  0  0  0  0  0  0  0
   58.2850   32.0390   46.7030 C   0  0  0  0  0  0  0  0  0  0  0  0
   57.6450   33.2690   46.5180 C   0  0  0  0  0  0  0  0  0  0  0  0
   57.3890   33.7370   45.2270 C   0  0  0  0  0  0  0  0  0  0  0  0
   56.7640   34.9270   45.0480 F   0  0  0  0  0  0  0  0  0  0  0  0
   57.7800   32.9800   44.1190 C   0  0  0  0  0  0  0  0  0  0  0  0
   58.4170   31.7490   44.3010 C   0  0  0  0  0  0  0  0  0  0  0  0
   56.6230   27.8500   45.9840 N   0  0  0  0  0  0  0  0  0  0  0  0
   56.3650   26.5770   45.9340 C   0  0  0  0  0  0  0  0  0  0  0  0
   55.1250   26.0420   45.9860 N   0  0  0  0  0  0  0  0  0  0  0  0
   55.1670   24.6840   45.9390 C   0  0  0  0  0  0  0  0  0  0  0  0
   56.4410   24.1340   45.8650 C   0  0  0  0  0  0  0  0  0  0  0  0
   57.5550   25.3960   45.8590 S   0  0  0  0  0  0  0  0  0  0  0  0
   57.5462   27.9809   43.1264 H   0  0  0  0  0  0  0  0  0  0  0  0
   57.7207   29.7736   43.3487 H   0  0  0  0  0  0  0  0  0  0  0  0
   59.2034   27.5565   44.8227 H   0  0  0  0  0  0  0  0  0  0  0  0
   59.8680   28.8125   43.6830 H   0  0  0  0  0  0  0  0  0  0  0  0
   58.4933   31.6769   47.7206 H   0  0  0  0  0  0  0  0  0  0  0  0
   57.3431   33.8681   47.3897 H   0  0  0  0  0  0  0  0  0  0  0  0
   57.5862   33.3533   43.1026 H   0  0  0  0  0  0  0  0  0  0  0  0
   58.7270   31.1574   43.4270 H   0  0  0  0  0  0  0  0  0  0  0  0
   54.2579   24.0650   45.9582 H   0  0  0  0  0  0  0  0  0  0  0  0
   56.6798   23.0612   45.8185 H   0  0  0  0  0  0  0  0  0  0  0  0
  1  2  2  0
  2  3  1  0
  3  4  1  0
  4  5  1  0
  5  6  2  0
  5  7  2  0
  5  8  1  0
  8  9  2  0
  9 10  1  0
 10 11  2  0
 11 12  1  0
 11 13  1  0
 13 14  2  0
  2 15  1  0
 15 16  2  3
 16 17  1  0
 17 18  1  0
 18 19  2  0
 19 20  1  0
 14  8  1  0
 20 16  1  0
  3 21  1  0
  3 22  1  0
  4 23  1  0
  4 24  1  0
  9 25  1  0
 10 26  1  0
 13 27  1  0
 14 28  1  0
 18 29  1  0
 19 30  1  0
M  CHG  1  17  -1
M  END
>  <UniqueID>  (52) 
50

>  <SMILES>  (52) 
O=C(CCS(=O)(=O)c1ccc(F)cc1)N=c1[n-]ccs1

>  <Energy>  (52) 
58.27535834361371

>  <Genealogy>  (52) 
O=C(CCS(=O)(=O)c1ccc(F)cc1)N=c1[n-]ccs1 (protonated)
O=C(CCS(=O)(=O)c1ccc(F)cc1)N=c1[n-]ccs1 (3D coordinates assigned)
O=C(CCS(=O)(=O)c1ccc(F)cc1)N=c1[n-]ccs1 (optimized conformer: 58.27535834361371 kcal/mol)

>  <smiles>  (52) 
O=C(CCS(=O)(=O)c1ccc(F)cc1)N=c1[nH]ccs1

>  <score_type>  (52) 
oracle

>  <origin>  (52) 
adg

>  <m_score__min__energy>  (52) 
-9.7799999999999994

>  <m_primary>  (52) 
energy

$$$$
52:0
     RDKit          3D

 51 53  0  0  0  0  0  0  0  0999 V2000
   55.4640   29.8000   44.8810 O   0  0  0  0  0  0  0  0  0  0  0  0
   56.5760   30.2500   44.4910 C   0  0  0  0  0  0  0  0  0  0  0  0
   56.7900   31.6630   44.3880 N   0  0  0  0  0  0  0  0  0  0  0  0
   57.5850   32.4730   45.2660 C   0  0  0  0  0  0  0  0  0  0  0  0
   58.0280   33.7580   44.8990 C   0  0  0  0  0  0  0  0  0  0  0  0
   58.7830   34.5240   45.7930 C   0  0  0  0  0  0  0  0  0  0  0  0
   59.0910   34.0280   47.0680 C   0  0  0  0  0  0  0  0  0  0  0  0
   59.8940   34.8650   48.0380 C   0  0  0  0  0  0  0  0  0  0  0  0
   60.5220   34.0510   49.0940 N   0  0  0  0  0  0  0  0  0  0  0  0
   61.9700   34.2840   49.2190 C   0  0  0  0  0  0  0  0  0  0  0  0
   62.7460   32.9750   49.0550 C   0  0  0  0  0  0  0  0  0  0  0  0
   62.4750   32.2720   47.4370 S   0  0  0  0  0  0  0  0  0  0  0  0
   63.7760   31.7740   46.8710 O   0  0  0  0  0  0  0  0  0  0  0  0
   61.9140   33.3160   46.5120 O   0  0  0  0  0  0  0  0  0  0  0  0
   61.3380   30.9360   47.5770 C   0  0  0  0  0  0  0  0  0  0  0  0
   60.8920   30.2670   46.4280 C   0  0  0  0  0  0  0  0  0  0  0  0
   59.9730   29.2190   46.5380 C   0  0  0  0  0  0  0  0  0  0  0  0
   59.4920   28.8370   47.7930 C   0  0  0  0  0  0  0  0  0  0  0  0
   59.9270   29.5060   48.9420 C   0  0  0  0  0  0  0  0  0  0  0  0
   60.8460   30.5560   48.8350 C   0  0  0  0  0  0  0  0  0  0  0  0
   58.6280   32.7560   47.4410 C   0  0  0  0  0  0  0  0  0  0  0  0
   57.8740   31.9900   46.5480 C   0  0  0  0  0  0  0  0  0  0  0  0
   57.6060   29.3550   44.0510 N   0  0  0  0  0  0  0  0  0  0  0  0
   57.6050   27.9380   44.2980 C   0  0  0  0  0  0  0  0  0  0  0  0
   57.3470   27.4660   45.5940 C   0  0  0  0  0  0  0  0  0  0  0  0
   57.3180   26.0920   45.8550 C   0  0  0  0  0  0  0  0  0  0  0  0
   57.5300   25.1770   44.8190 C   0  0  0  0  0  0  0  0  0  0  0  0
   57.4890   23.4540   45.1460 Cl  0  0  0  0  0  0  0  0  0  0  0  0
   57.7640   25.6370   43.5190 C   0  0  0  0  0  0  0  0  0  0  0  0
   57.7960   27.0110   43.2570 C   0  0  0  0  0  0  0  0  0  0  0  0
   57.7795   34.1608   43.9060 H   0  0  0  0  0  0  0  0  0  0  0  0
   59.1374   35.5216   45.4942 H   0  0  0  0  0  0  0  0  0  0  0  0
   60.6831   35.3917   47.4813 H   0  0  0  0  0  0  0  0  0  0  0  0
   59.2043   35.5712   48.5235 H   0  0  0  0  0  0  0  0  0  0  0  0
   60.3600   33.0380   48.8860 H   0  0  0  0  0  0  0  0  0  0  0  0
   62.2899   34.9930   48.4412 H   0  0  0  0  0  0  0  0  0  0  0  0
   62.1767   34.6942   50.2185 H   0  0  0  0  0  0  0  0  0  0  0  0
   63.8199   33.1742   49.1858 H   0  0  0  0  0  0  0  0  0  0  0  0
   62.3927   32.2599   49.8125 H   0  0  0  0  0  0  0  0  0  0  0  0
   61.2660   30.5674   45.4381 H   0  0  0  0  0  0  0  0  0  0  0  0
   59.6280   28.6943   45.6349 H   0  0  0  0  0  0  0  0  0  0  0  0
   58.7713   28.0103   47.8775 H   0  0  0  0  0  0  0  0  0  0  0  0
   59.5466   29.2067   49.9298 H   0  0  0  0  0  0  0  0  0  0  0  0
   61.1833   31.0845   49.7388 H   0  0  0  0  0  0  0  0  0  0  0  0
   58.8599   32.3606   48.4409 H   0  0  0  0  0  0  0  0  0  0  0  0
   57.5048   31.0002   46.8545 H   0  0  0  0  0  0  0  0  0  0  0  0
   58.3670   29.7520   43.4550 H   0  0  0  0  0  0  0  0  0  0  0  0
   57.1664   28.1811   46.4101 H   0  0  0  0  0  0  0  0  0  0  0  0
   57.1282   25.7308   46.8765 H   0  0  0  0  0  0  0  0  0  0  0  0
   57.9230   24.9179   42.7019 H   0  0  0  0  0  0  0  0  0  0  0  0
   57.9714   27.3684   42.2316 H   0  0  0  0  0  0  0  0  0  0  0  0
  1  2  2  0
  2  3  1  0
  3  4  1  0
  4  5  2  0
  5  6  1  0
  6  7  2  0
  7  8  1  0
  8  9  1  0
  9 10  1  0
 10 11  1  0
 11 12  1  0
 12 13  2  0
 12 14  2  0
 12 15  1  0
 15 16  2  0
 16 17  1  0
 17 18  2  0
 18 19  1  0
 19 20  2  0
  7 21  1  0
 21 22  2  0
  2 23  1  0
 23 24  1  0
 24 25  2  0
 25 26  1  0
 26 27  2  0
 27 28  1  0
 27 29  1  0
 29 30  2  0
 22  4  1  0
 30 24  1  0
 20 15  1  0
  5 31  1  0
  6 32  1  0
  8 33  1  0
  8 34  1  0
  9 35  1  0
 10 36  1  0
 10 37  1  0
 11 38  1  0
 11 39  1  0
 16 40  1  0
 17 41  1  0
 18 42  1  0
 19 43  1  0
 20 44  1  0
 21 45  1  0
 22 46  1  0
 23 47  1  0
 25 48  1  0
 26 49  1  0
 29 50  1  0
 30 51  1  0
M  CHG  1   3  -1
M  END
>  <UniqueID>  (53) 
51

>  <SMILES>  (53) 
O=C([N-]c1ccc(CNCCS(=O)(=O)c2ccccc2)cc1)Nc1ccc(Cl)cc1

>  <Energy>  (53) 
56.173015692199826

>  <Genealogy>  (53) 
O=C([N-]c1ccc(CNCCS(=O)(=O)c2ccccc2)cc1)Nc1ccc(Cl)cc1 (protonated)
O=C([N-]c1ccc(CNCCS(=O)(=O)c2ccccc2)cc1)Nc1ccc(Cl)cc1 (3D coordinates assigned)
O=C([N-]c1ccc(CNCCS(=O)(=O)c2ccccc2)cc1)Nc1ccc(Cl)cc1 (optimized conformer: 56.173015692199826 kcal/mol)

>  <smiles>  (53) 
O=C(Nc1ccc(Cl)cc1)Nc1ccc(CNCCS(=O)(=O)c2ccccc2)cc1

>  <score_type>  (53) 
oracle

>  <origin>  (53) 
adg

>  <m_score__min__energy>  (53) 
-10.390000000000001

>  <m_primary>  (53) 
energy

$$$$
53:0
     RDKit          3D

 60 63  0  0  0  0  0  0  0  0999 V2000
   56.7346   23.3968   46.3620 H   0  0  0  0  0  0  0  0  0  0  0  0
   57.0660   24.4450   46.4000 C   0  0  0  0  0  0  0  0  0  0  0  0
   58.2800   24.7540   46.9240 N   0  0  0  0  0  0  0  0  0  0  0  0
   58.7150   26.0430   46.9810 C   0  0  0  0  0  0  0  0  0  0  0  0
   59.8670   26.3430   47.5050 N   0  0  0  0  0  0  0  0  0  0  0  0
   60.3240   27.6710   47.8080 C   0  0  0  0  0  0  0  0  0  0  0  0
   60.4390   28.5900   46.7660 C   0  0  0  0  0  0  0  0  0  0  0  0
   60.1776   28.2862   45.7416 H   0  0  0  0  0  0  0  0  0  0  0  0
   60.8820   29.8910   47.0080 C   0  0  0  0  0  0  0  0  0  0  0  0
   60.9462   30.6044   46.1732 H   0  0  0  0  0  0  0  0  0  0  0  0
   61.2500   30.3080   48.3090 C   0  0  0  0  0  0  0  0  0  0  0  0
   61.7050   31.6760   48.5660 N   0  0  0  0  0  0  0  0  0  0  0  0
   63.0200   31.8800   49.2150 C   0  0  0  0  0  0  0  0  0  0  0  0
   63.0123   31.3440   50.1756 H   0  0  0  0  0  0  0  0  0  0  0  0
   63.7719   31.5017   48.5069 H   0  0  0  0  0  0  0  0  0  0  0  0
   63.3930   33.3450   49.4910 C   0  0  0  0  0  0  0  0  0  0  0  0
   62.9746   33.6340   50.4664 H   0  0  0  0  0  0  0  0  0  0  0  0
   64.4910   33.4101   49.4752 H   0  0  0  0  0  0  0  0  0  0  0  0
   62.8880   34.2740   48.4740 N   0  0  0  0  0  0  0  0  0  0  0  0
   63.5250   34.0870   47.1580 C   0  0  0  0  0  0  0  0  0  0  0  0
   64.5719   33.7797   47.2977 H   0  0  0  0  0  0  0  0  0  0  0  0
   62.9863   33.3091   46.5971 H   0  0  0  0  0  0  0  0  0  0  0  0
   63.4922   35.0327   46.5971 H   0  0  0  0  0  0  0  0  0  0  0  0
   61.4250   34.1970   48.4200 C   0  0  0  0  0  0  0  0  0  0  0  0
   61.0237   34.4533   49.4116 H   0  0  0  0  0  0  0  0  0  0  0  0
   61.0868   34.9012   47.6455 H   0  0  0  0  0  0  0  0  0  0  0  0
   60.9120   32.8050   48.0300 C   0  0  0  0  0  0  0  0  0  0  0  0
   59.8810   32.7046   48.4002 H   0  0  0  0  0  0  0  0  0  0  0  0
   60.9891   32.7435   46.9344 H   0  0  0  0  0  0  0  0  0  0  0  0
   61.1580   29.3530   49.3510 C   0  0  0  0  0  0  0  0  0  0  0  0
   61.4379   29.6450   50.3739 H   0  0  0  0  0  0  0  0  0  0  0  0
   60.7160   28.0370   49.1070 C   0  0  0  0  0  0  0  0  0  0  0  0
   60.6780   27.0690   50.1250 O   0  0  0  0  0  0  0  0  0  0  0  0
   61.2330   27.2300   51.4260 C   0  0  0  0  0  0  0  0  0  0  0  0
   60.4657   27.0074   52.1821 H   0  0  0  0  0  0  0  0  0  0  0  0
   62.0813   26.5409   51.5506 H   0  0  0  0  0  0  0  0  0  0  0  0
   61.5809   28.2661   51.5506 H   0  0  0  0  0  0  0  0  0  0  0  0
   57.9180   27.0400   46.5150 N   0  0  0  0  0  0  0  0  0  0  0  0
   56.7020   26.7820   45.9650 C   0  0  0  0  0  0  0  0  0  0  0  0
   55.9310   27.8530   45.5030 O   0  0  0  0  0  0  0  0  0  0  0  0
   56.4500   29.0120   44.9060 C   0  0  0  0  0  0  0  0  0  0  0  0
   56.2080   29.3290   43.5570 C   0  0  0  0  0  0  0  0  0  0  0  0
   55.5950   28.6582   42.9372 H   0  0  0  0  0  0  0  0  0  0  0  0
   56.7440   30.4930   43.0030 C   0  0  0  0  0  0  0  0  0  0  0  0
   56.5471   30.7406   41.9495 H   0  0  0  0  0  0  0  0  0  0  0  0
   57.5290   31.3430   43.7830 C   0  0  0  0  0  0  0  0  0  0  0  0
   57.9427   32.2619   43.3419 H   0  0  0  0  0  0  0  0  0  0  0  0
   57.7940   31.0350   45.1230 C   0  0  0  0  0  0  0  0  0  0  0  0
   58.6080   31.9390   45.8840 N   0  0  0  0  0  0  0  0  0  0  0  0
   58.3180   33.6360   46.0920 S   0  0  0  0  0  0  0  0  0  0  0  0
   56.9870   33.9780   45.4830 O   0  0  0  0  0  0  0  0  0  0  0  0
   58.2810   33.9770   47.5560 O   0  0  0  0  0  0  0  0  0  0  0  0
   59.5840   34.5780   45.2680 C   0  0  0  0  0  0  0  0  0  0  0  0
   60.2299   35.0586   46.0176 H   0  0  0  0  0  0  0  0  0  0  0  0
   60.1883   33.9082   44.6386 H   0  0  0  0  0  0  0  0  0  0  0  0
   59.1160   35.3493   44.6386 H   0  0  0  0  0  0  0  0  0  0  0  0
   57.2540   29.8610   45.6780 C   0  0  0  0  0  0  0  0  0  0  0  0
   57.4647   29.6071   46.7273 H   0  0  0  0  0  0  0  0  0  0  0  0
   56.2390   25.4550   45.9100 C   0  0  0  0  0  0  0  0  0  0  0  0
   54.6310   25.0460   45.3280 Cl  0  0  0  0  0  0  0  0  0  0  0  0
  1  2  1  0
  2  3  2  0
  3  4  1  0
  4  5  2  0
  5  6  1  0
  6  7  2  0
  7  8  1  0
  7  9  1  0
  9 10  1  0
  9 11  2  0
 11 12  1  0
 12 13  1  0
 13 14  1  0
 13 15  1  0
 13 16  1  0
 16 17  1  0
 16 18  1  0
 16 19  1  0
 19 20  1  0
 20 21  1  0
 20 22  1  0
 20 23  1  0
 19 24  1  0
 24 25  1  0
 24 26  1  0
 24 27  1  0
 27 28  1  0
 27 29  1  0
 11 30  1  0
 30 31  1  0
 30 32  2  0
 32 33  1  0
 33 34  1  0
 34 35  1  0
 34 36  1  0
 34 37  1  0
  4 38  1  0
 38 39  1  0
 39 40  1  0
 40 41  1  0
 41 42  2  0
 42 43  1  0
 42 44  1  0
 44 45  1  0
 44 46  2  0
 46 47  1  0
 46 48  1  0
 48 49  1  0
 49 50  1  0
 50 51  2  0
 50 52  2  0
 50 53  1  0
 53 54  1  0
 53 55  1  0
 53 56  1  0
 48 57  2  0
 57 58  1  0
 39 59  2  0
 59 60  1  0
 59  2  1  0
 32  6  1  0
 57 41  1  0
 27 12  1  0
M  CHG  2  38  -1  49  -1
M  END
>  <UniqueID>  (54) 
52

>  <SMILES>  (54) 
COc1cc(N2CCN(C)CC2)ccc1/N=c1\ncc(Cl)c(Oc2cccc([N-]S(C)(=O)=O)c2)[n-]1

>  <Energy>  (54) 
90.02460906248204

>  <Genealogy>  (54) 
COc1cc(N2CCN(C)CC2)ccc1N=c1ncc(Cl)c(Oc2cccc([N-]S(C)(=O)=O)c2)[n-]1 (protonated)
COc1cc(N2CCN(C)CC2)ccc1/N=c1\ncc(Cl)c(Oc2cccc([N-]S(C)(=O)=O)c2)[n-]1 (cis-trans isomerization)
COc1cc(N2CCN(C)CC2)ccc1/N=c1\ncc(Cl)c(Oc2cccc([N-]S(C)(=O)=O)c2)[n-]1 (3D coordinates assigned)
COc1cc(N2CCN(C)CC2)ccc1/N=c1\ncc(Cl)c(Oc2cccc([N-]S(C)(=O)=O)c2)[n-]1 (nonaromatic ring conformer: 90.02460906248204 kcal/mol)

>  <smiles>  (54) 
COc1cc(N2CCN(C)CC2)ccc1N=c1ncc(Cl)c(Oc2cccc(NS(C)(=O)=O)c2)[nH]1

>  <score_type>  (54) 
oracle

>  <origin>  (54) 
adg

>  <m_score__min__energy>  (54) 
-12.029999999999999

>  <m_primary>  (54) 
energy

$$$$
54:0
     RDKit          3D

 49 51  0  0  0  0  0  0  0  0999 V2000
   62.6640   34.1960   50.4340 C   0  0  0  0  0  0  0  0  0  0  0  0
   61.5230   33.3640   50.2490 O   0  0  0  0  0  0  0  0  0  0  0  0
   61.3190   32.5300   49.1380 C   0  0  0  0  0  0  0  0  0  0  0  0
   61.1090   33.0430   47.8440 C   0  0  0  0  0  0  0  0  0  0  0  0
   60.9140   32.1770   46.7650 C   0  0  0  0  0  0  0  0  0  0  0  0
   60.9440   30.7870   46.9520 C   0  0  0  0  0  0  0  0  0  0  0  0
   60.7230   29.8530   45.7840 C   0  0  0  0  0  0  0  0  0  0  0  0
   59.2510   29.5480   45.5760 C   0  0  0  0  0  0  0  0  0  0  0  0
   58.5020   30.4470   44.8000 C   0  0  0  0  0  0  0  0  0  0  0  0
   57.1460   30.2420   44.5790 C   0  0  0  0  0  0  0  0  0  0  0  0
   56.5060   29.1260   45.1090 C   0  0  0  0  0  0  0  0  0  0  0  0
   55.1450   28.9590   44.8720 O   0  0  0  0  0  0  0  0  0  0  0  0
   57.2270   28.1850   45.8720 C   0  0  0  0  0  0  0  0  0  0  0  0
   56.5010   26.9780   46.4240 C   0  0  0  0  0  0  0  0  0  0  0  0
   57.1490   25.7630   45.9460 N   0  0  0  0  0  0  0  0  0  0  0  0
   56.5260   24.4730   45.9210 C   0  0  0  0  0  0  0  0  0  0  0  0
   55.5470   24.2540   46.6820 O   0  0  0  0  0  0  0  0  0  0  0  0
   57.0150   23.3930   45.0430 C   0  0  0  0  0  0  0  0  0  0  0  0
   58.3080   22.8800   45.2310 C   0  0  0  0  0  0  0  0  0  0  0  0
   58.7930   21.8680   44.4000 C   0  0  0  0  0  0  0  0  0  0  0  0
   57.9950   21.3620   43.3710 C   0  0  0  0  0  0  0  0  0  0  0  0
   56.7080   21.8690   43.1720 C   0  0  0  0  0  0  0  0  0  0  0  0
   56.2120   22.8850   43.9990 C   0  0  0  0  0  0  0  0  0  0  0  0
   54.5720   23.4630   43.7320 Cl  0  0  0  0  0  0  0  0  0  0  0  0
   58.6060   28.4160   46.1530 C   0  0  0  0  0  0  0  0  0  0  0  0
   59.3780   27.4210   46.9950 C   0  0  0  0  0  0  0  0  0  0  0  0
   61.1300   30.2770   48.2480 C   0  0  0  0  0  0  0  0  0  0  0  0
   61.3240   31.1430   49.3330 C   0  0  0  0  0  0  0  0  0  0  0  0
   61.5220   30.6280   50.6140 O   0  0  0  0  0  0  0  0  0  0  0  0
   62.8489   34.3308   51.5099 H   0  0  0  0  0  0  0  0  0  0  0  0
   63.5414   33.7242   49.9675 H   0  0  0  0  0  0  0  0  0  0  0  0
   62.4830   35.1756   49.9675 H   0  0  0  0  0  0  0  0  0  0  0  0
   61.0984   34.1309   47.6816 H   0  0  0  0  0  0  0  0  0  0  0  0
   60.7355   32.5885   45.7606 H   0  0  0  0  0  0  0  0  0  0  0  0
   61.1215   30.3225   44.8725 H   0  0  0  0  0  0  0  0  0  0  0  0
   61.2406   28.9069   46.0005 H   0  0  0  0  0  0  0  0  0  0  0  0
   58.9960   31.3262   44.3608 H   0  0  0  0  0  0  0  0  0  0  0  0
   56.5743   30.9669   43.9809 H   0  0  0  0  0  0  0  0  0  0  0  0
   56.5318   27.0022   47.5233 H   0  0  0  0  0  0  0  0  0  0  0  0
   55.4540   26.9930   46.0870 H   0  0  0  0  0  0  0  0  0  0  0  0
   58.9424   23.2772   46.0370 H   0  0  0  0  0  0  0  0  0  0  0  0
   59.8059   21.4683   44.5560 H   0  0  0  0  0  0  0  0  0  0  0  0
   58.3795   20.5649   42.7177 H   0  0  0  0  0  0  0  0  0  0  0  0
   56.0812   21.4682   42.3618 H   0  0  0  0  0  0  0  0  0  0  0  0
   59.2115   27.6356   48.0609 H   0  0  0  0  0  0  0  0  0  0  0  0
   59.0319   26.4019   46.7677 H   0  0  0  0  0  0  0  0  0  0  0  0
   60.4511   27.5030   46.7677 H   0  0  0  0  0  0  0  0  0  0  0  0
   61.1233   29.1894   48.4125 H   0  0  0  0  0  0  0  0  0  0  0  0
   61.6590   31.2350   51.4140 H   0  0  0  0  0  0  0  0  0  0  0  0
  1  2  1  0
  2  3  1  0
  3  4  2  0
  4  5  1  0
  5  6  2  0
  6  7  1  0
  7  8  1  0
  8  9  2  0
  9 10  1  0
 10 11  2  0
 11 12  1  0
 11 13  1  0
 13 14  1  0
 14 15  1  0
 15 16  1  0
 16 17  2  0
 16 18  1  0
 18 19  2  0
 19 20  1  0
 20 21  2  0
 21 22  1  0
 22 23  2  0
 23 24  1  0
 13 25  2  0
 25 26  1  0
  6 27  1  0
 27 28  2  0
 28 29  1  0
 28  3  1  0
 25  8  1  0
 23 18  1  0
  1 30  1  0
  1 31  1  0
  1 32  1  0
  4 33  1  0
  5 34  1  0
  7 35  1  0
  7 36  1  0
  9 37  1  0
 10 38  1  0
 14 39  1  0
 14 40  1  0
 19 41  1  0
 20 42  1  0
 21 43  1  0
 22 44  1  0
 26 45  1  0
 26 46  1  0
 26 47  1  0
 27 48  1  0
 29 49  1  0
M  CHG  2  12  -1  15  -1
M  END
>  <UniqueID>  (55) 
53

>  <SMILES>  (55) 
COc1ccc(Cc2ccc([O-])c(C[N-]C(=O)c3ccccc3Cl)c2C)cc1O

>  <Energy>  (55) 
60.23592610579251

>  <Genealogy>  (55) 
COc1ccc(Cc2ccc([O-])c(C[N-]C(=O)c3ccccc3Cl)c2C)cc1O (protonated)
COc1ccc(Cc2ccc([O-])c(C[N-]C(=O)c3ccccc3Cl)c2C)cc1O (3D coordinates assigned)
COc1ccc(Cc2ccc([O-])c(C[N-]C(=O)c3ccccc3Cl)c2C)cc1O (optimized conformer: 60.23592610579251 kcal/mol)

>  <smiles>  (55) 
COc1ccc(Cc2ccc(O)c(CNC(=O)c3ccccc3Cl)c2C)cc1O

>  <score_type>  (55) 
oracle

>  <origin>  (55) 
adg

>  <m_score__min__energy>  (55) 
-12.58

>  <m_primary>  (55) 
energy

$$$$
55:0
     RDKit          3D

 29 31  0  0  0  0  0  0  0  0999 V2000
   60.0118   25.1496   46.5538 H   0  0  0  0  0  0  0  0  0  0  0  0
   59.0110   25.5790   46.3990 C   0  0  0  0  0  0  0  0  0  0  0  0
   57.5580   24.8920   46.8860 S   0  0  0  0  0  0  0  0  0  0  0  0
   56.5570   26.1080   46.3030 C   0  0  0  0  0  0  0  0  0  0  0  0
   55.4597   26.1311   46.3761 H   0  0  0  0  0  0  0  0  0  0  0  0
   57.3570   27.0820   45.7110 C   0  0  0  0  0  0  0  0  0  0  0  0
   56.8030   28.3020   45.0920 C   0  0  0  0  0  0  0  0  0  0  0  0
   55.5220   28.7010   45.2430 N   0  0  0  0  0  0  0  0  0  0  0  0
   55.3650   29.8220   44.5600 N   0  0  0  0  0  0  0  0  0  0  0  0
   54.4670   30.3520   44.5010 H   0  0  0  0  0  0  0  0  0  0  0  0
   56.5270   30.1490   43.9720 C   0  0  0  0  0  0  0  0  0  0  0  0
   56.6610   31.2140   43.2320 N   0  0  0  0  0  0  0  0  0  0  0  0
   57.7290   32.1800   43.2340 C   0  0  0  0  0  0  0  0  0  0  0  0
   58.2040   32.6190   42.1530 O   0  0  0  0  0  0  0  0  0  0  0  0
   58.2780   32.6630   44.5230 C   0  0  0  0  0  0  0  0  0  0  0  0
   58.8750   31.7660   45.4310 C   0  0  0  0  0  0  0  0  0  0  0  0
   58.9354   30.6963   45.1820 H   0  0  0  0  0  0  0  0  0  0  0  0
   59.3910   32.2260   46.6460 C   0  0  0  0  0  0  0  0  0  0  0  0
   59.8559   31.5177   47.3476 H   0  0  0  0  0  0  0  0  0  0  0  0
   59.3180   33.5830   46.9720 C   0  0  0  0  0  0  0  0  0  0  0  0
   60.0240   34.2080   48.6330 Br  0  0  0  0  0  0  0  0  0  0  0  0
   58.7270   34.4820   46.0800 C   0  0  0  0  0  0  0  0  0  0  0  0
   58.6691   35.5502   46.3361 H   0  0  0  0  0  0  0  0  0  0  0  0
   58.2090   34.0280   44.8630 C   0  0  0  0  0  0  0  0  0  0  0  0
   57.7446   34.7417   44.1666 H   0  0  0  0  0  0  0  0  0  0  0  0
   57.4860   29.2000   44.2840 C   0  0  0  0  0  0  0  0  0  0  0  0
   58.5387   29.1661   43.9668 H   0  0  0  0  0  0  0  0  0  0  0  0
   58.7300   26.7830   45.7670 C   0  0  0  0  0  0  0  0  0  0  0  0
   59.5072   27.4403   45.3499 H   0  0  0  0  0  0  0  0  0  0  0  0
  1  2  1  0
  2  3  1  0
  3  4  1  0
  4  5  1  0
  4  6  2  0
  6  7  1  0
  7  8  1  0
  8  9  1  0
  9 10  1  0
  9 11  1  0
 11 12  2  0
 12 13  1  0
 13 14  2  0
 13 15  1  0
 15 16  2  0
 16 17  1  0
 16 18  1  0
 18 19  1  0
 18 20  2  0
 20 21  1  0
 20 22  1  0
 22 23  1  0
 22 24  2  0
 24 25  1  0
 11 26  1  0
 26 27  1  0
  6 28  1  0
 28 29  1  0
 28  2  2  0
 26  7  2  0
 24 15  1  0
M  CHG  1   8  -1
M  END
>  <UniqueID>  (56) 
54

>  <SMILES>  (56) 
O=C(/N=c1\cc(-c2ccsc2)[n-][nH]1)c1ccc(Br)cc1

>  <Energy>  (56) 
92.97932810446093

>  <Genealogy>  (56) 
O=C(N=c1cc(-c2ccsc2)[n-][nH]1)c1ccc(Br)cc1 (protonated)
O=C(/N=c1\cc(-c2ccsc2)[n-][nH]1)c1ccc(Br)cc1 (cis-trans isomerization)
O=C(/N=c1\cc(-c2ccsc2)[n-][nH]1)c1ccc(Br)cc1 (3D coordinates assigned)
O=C(/N=c1\cc(-c2ccsc2)[n-][nH]1)c1ccc(Br)cc1 (optimized conformer: 92.97932810446093 kcal/mol)

>  <smiles>  (56) 
O=C(N=c1cc(-c2ccsc2)[nH][nH]1)c1ccc(Br)cc1

>  <score_type>  (56) 
oracle

>  <origin>  (56) 
adg

>  <m_score__min__energy>  (56) 
-10.24

>  <m_primary>  (56) 
energy

$$$$
56:0
     RDKit          3D

 28 28  0  0  0  0  0  0  0  0999 V2000
   58.9820   35.3590   47.5210 N   0  0  0  0  0  0  0  0  0  0  0  0
   58.7070   34.0400   47.0420 C   0  0  0  0  0  0  0  0  0  0  0  0
   58.0250   33.8570   45.8320 C   0  0  0  0  0  0  0  0  0  0  0  0
   57.7550   32.5680   45.3620 C   0  0  0  0  0  0  0  0  0  0  0  0
   58.1650   31.4400   46.0960 C   0  0  0  0  0  0  0  0  0  0  0  0
   57.8780   30.0740   45.5990 C   0  0  0  0  0  0  0  0  0  0  0  0
   56.7100   29.7680   45.2330 O   0  0  0  0  0  0  0  0  0  0  0  0
   58.9260   29.1000   45.5230 N   0  0  0  0  0  0  0  0  0  0  0  0
   59.0840   28.1620   44.4170 C   0  0  0  0  0  0  0  0  0  0  0  0
   58.2010   26.9260   44.6140 C   0  0  0  0  0  0  0  0  0  0  0  0
   57.5720   26.9410   45.9410 N   0  0  0  0  0  0  0  0  0  0  0  0
   56.2240   25.8420   46.0050 S   0  0  0  0  0  0  0  0  0  0  0  0
   56.3160   25.0250   47.2620 O   0  0  0  0  0  0  0  0  0  0  0  0
   56.2460   24.9210   44.8180 O   0  0  0  0  0  0  0  0  0  0  0  0
   54.7820   26.7040   46.0170 O   0  0  0  0  0  0  0  0  0  0  0  0
   58.8490   31.6310   47.3110 C   0  0  0  0  0  0  0  0  0  0  0  0
   59.1170   32.9210   47.7780 C   0  0  0  0  0  0  0  0  0  0  0  0
   58.8760   35.5920   48.5340 H   0  0  0  0  0  0  0  0  0  0  0  0
   59.2940   36.1110   46.8680 H   0  0  0  0  0  0  0  0  0  0  0  0
   57.7004   34.7314   45.2489 H   0  0  0  0  0  0  0  0  0  0  0  0
   57.2180   32.4350   44.4112 H   0  0  0  0  0  0  0  0  0  0  0  0
   58.7998   28.6611   43.4789 H   0  0  0  0  0  0  0  0  0  0  0  0
   60.1349   27.8391   44.3792 H   0  0  0  0  0  0  0  0  0  0  0  0
   57.4164   26.9166   43.8430 H   0  0  0  0  0  0  0  0  0  0  0  0
   58.8293   26.0269   44.5316 H   0  0  0  0  0  0  0  0  0  0  0  0
   57.1760   27.8960   46.1000 H   0  0  0  0  0  0  0  0  0  0  0  0
   59.1750   30.7592   47.8972 H   0  0  0  0  0  0  0  0  0  0  0  0
   59.6529   33.0581   48.7288 H   0  0  0  0  0  0  0  0  0  0  0  0
  1  2  1  0
  2  3  2  0
  3  4  1  0
  4  5  2  0
  5  6  1  0
  6  7  2  0
  6  8  1  0
  8  9  1  0
  9 10  1  0
 10 11  1  0
 11 12  1  0
 12 13  2  0
 12 14  2  0
 12 15  1  0
  5 16  1  0
 16 17  2  0
 17  2  1  0
  1 18  1  0
  1 19  1  0
  3 20  1  0
  4 21  1  0
  9 22  1  0
  9 23  1  0
 10 24  1  0
 10 25  1  0
 11 26  1  0
 16 27  1  0
 17 28  1  0
M  CHG  2   8  -1  15  -1
M  END
>  <UniqueID>  (57) 
55

>  <SMILES>  (57) 
Nc1ccc(C(=O)[N-]CCNS(=O)(=O)[O-])cc1

>  <Energy>  (57) 
20.2409450696807

>  <Genealogy>  (57) 
Nc1ccc(C(=O)[N-]CCNS(=O)(=O)[O-])cc1 (protonated)
Nc1ccc(C(=O)[N-]CCNS(=O)(=O)[O-])cc1 (3D coordinates assigned)
Nc1ccc(C(=O)[N-]CCNS(=O)(=O)[O-])cc1 (optimized conformer: 20.2409450696807 kcal/mol)

>  <smiles>  (57) 
Nc1ccc(C(=O)NCCNS(=O)(=O)O)cc1

>  <score_type>  (57) 
oracle

>  <origin>  (57) 
adg

>  <m_score__min__energy>  (57) 
-11.279999999999999

>  <m_primary>  (57) 
energy

$$$$
57:0
     RDKit          3D

 50 53  0  0  0  0  0  0  0  0999 V2000
   55.5658   22.3559   42.0837 H   0  0  0  0  0  0  0  0  0  0  0  0
   55.8940   22.8250   43.0230 C   0  0  0  0  0  0  0  0  0  0  0  0
   55.5130   22.2960   44.2130 N   0  0  0  0  0  0  0  0  0  0  0  0
   55.8440   22.8770   45.3980 C   0  0  0  0  0  0  0  0  0  0  0  0
   55.3850   22.3040   46.5930 C   0  0  0  0  0  0  0  0  0  0  0  0
   54.8293   21.3550   46.5677 H   0  0  0  0  0  0  0  0  0  0  0  0
   55.6310   22.9340   47.8150 C   0  0  0  0  0  0  0  0  0  0  0  0
   55.0520   22.2150   49.3110 Cl  0  0  0  0  0  0  0  0  0  0  0  0
   56.2970   24.1620   47.8410 C   0  0  0  0  0  0  0  0  0  0  0  0
   56.4524   24.6799   48.7989 H   0  0  0  0  0  0  0  0  0  0  0  0
   56.7670   24.7360   46.6560 C   0  0  0  0  0  0  0  0  0  0  0  0
   57.2556   25.7211   46.6860 H   0  0  0  0  0  0  0  0  0  0  0  0
   56.6220   24.0660   45.4200 C   0  0  0  0  0  0  0  0  0  0  0  0
   57.1490   24.5490   44.1790 C   0  0  0  0  0  0  0  0  0  0  0  0
   58.1090   25.4330   44.0650 N   0  0  0  0  0  0  0  0  0  0  0  0
   58.5610   26.4180   45.0060 C   0  0  0  0  0  0  0  0  0  0  0  0
   59.2570   25.9790   46.1400 C   0  0  0  0  0  0  0  0  0  0  0  0
   59.3944   24.9012   46.3115 H   0  0  0  0  0  0  0  0  0  0  0  0
   59.7770   26.8950   47.0530 C   0  0  0  0  0  0  0  0  0  0  0  0
   60.3338   26.5395   47.9325 H   0  0  0  0  0  0  0  0  0  0  0  0
   59.5910   28.2630   46.8510 C   0  0  0  0  0  0  0  0  0  0  0  0
   60.0332   28.9872   47.5510 H   0  0  0  0  0  0  0  0  0  0  0  0
   58.8440   28.7130   45.7610 C   0  0  0  0  0  0  0  0  0  0  0  0
   58.6857   29.7924   45.6204 H   0  0  0  0  0  0  0  0  0  0  0  0
   58.2910   27.8050   44.8400 C   0  0  0  0  0  0  0  0  0  0  0  0
   57.4090   28.2990   43.8000 N   0  0  0  0  0  0  0  0  0  0  0  0
   57.9920   28.7580   43.0620 H   0  0  0  0  0  0  0  0  0  0  0  0
   56.8780   27.5370   43.3290 H   0  0  0  0  0  0  0  0  0  0  0  0
   56.4450   29.2890   44.3130 C   0  0  0  0  0  0  0  0  0  0  0  0
   56.3972   29.2001   45.4084 H   0  0  0  0  0  0  0  0  0  0  0  0
   55.4706   29.0794   43.8475 H   0  0  0  0  0  0  0  0  0  0  0  0
   56.8260   30.6990   43.9600 C   0  0  0  0  0  0  0  0  0  0  0  0
   57.3680   30.9320   42.8470 O   0  0  0  0  0  0  0  0  0  0  0  0
   56.5170   31.7750   44.8540 N   0  0  0  0  0  0  0  0  0  0  0  0
   57.4880   32.4960   45.6290 C   0  0  0  0  0  0  0  0  0  0  0  0
   57.6860   33.8750   45.4570 C   0  0  0  0  0  0  0  0  0  0  0  0
   57.0910   34.4235   44.7119 H   0  0  0  0  0  0  0  0  0  0  0  0
   58.6340   34.5560   46.2260 C   0  0  0  0  0  0  0  0  0  0  0  0
   58.7703   35.6394   46.0934 H   0  0  0  0  0  0  0  0  0  0  0  0
   59.4140   33.8630   47.1680 C   0  0  0  0  0  0  0  0  0  0  0  0
   60.4030   34.6160   48.0150 C   0  0  0  0  0  0  0  0  0  0  0  0
   60.1794   34.4458   49.0785 H   0  0  0  0  0  0  0  0  0  0  0  0
   61.4205   34.2618   47.7930 H   0  0  0  0  0  0  0  0  0  0  0  0
   60.3323   35.6910   47.7930 H   0  0  0  0  0  0  0  0  0  0  0  0
   59.2420   32.4690   47.3150 C   0  0  0  0  0  0  0  0  0  0  0  0
   60.1970   31.5440   48.4680 Cl  0  0  0  0  0  0  0  0  0  0  0  0
   58.2930   31.7950   46.5360 C   0  0  0  0  0  0  0  0  0  0  0  0
   58.1789   30.7056   46.6373 H   0  0  0  0  0  0  0  0  0  0  0  0
   56.7000   23.9610   42.9880 C   0  0  0  0  0  0  0  0  0  0  0  0
   56.9857   24.3991   42.0203 H   0  0  0  0  0  0  0  0  0  0  0  0
  1  2  1  0
  2  3  1  0
  3  4  1  0
  4  5  2  0
  5  6  1  0
  5  7  1  0
  7  8  1  0
  7  9  2  0
  9 10  1  0
  9 11  1  0
 11 12  1  0
 11 13  2  0
 13 14  1  0
 14 15  2  0
 15 16  1  0
 16 17  2  0
 17 18  1  0
 17 19  1  0
 19 20  1  0
 19 21  2  0
 21 22  1  0
 21 23  1  0
 23 24  1  0
 23 25  2  0
 25 26  1  0
 26 27  1  0
 26 28  1  0
 26 29  1  0
 29 30  1  0
 29 31  1  0
 29 32  1  0
 32 33  2  0
 32 34  1  0
 34 35  1  0
 35 36  2  0
 36 37  1  0
 36 38  1  0
 38 39  1  0
 38 40  2  0
 40 41  1  0
 41 42  1  0
 41 43  1  0
 41 44  1  0
 40 45  1  0
 45 46  1  0
 45 47  2  0
 47 48  1  0
 14 49  1  0
 49 50  1  0
 49  2  2  0
 13  4  1  0
 25 16  1  0
 47 35  1  0
M  CHG  3   3  -1  26   1  34  -1
M  END
>  <UniqueID>  (58) 
56

>  <SMILES>  (58) 
Cc1ccc([N-]C(=O)C[NH2+]c2ccccc2/N=c2/cc[n-]c3cc(Cl)ccc23)cc1Cl

>  <Energy>  (58) 
82.80063662818289

>  <Genealogy>  (58) 
Cc1ccc([N-]C(=O)C[NH2+]c2ccccc2N=c2cc[n-]c3cc(Cl)ccc23)cc1Cl (protonated)
Cc1ccc([N-]C(=O)C[NH2+]c2ccccc2/N=c2/cc[n-]c3cc(Cl)ccc23)cc1Cl (cis-trans isomerization)
Cc1ccc([N-]C(=O)C[NH2+]c2ccccc2/N=c2/cc[n-]c3cc(Cl)ccc23)cc1Cl (3D coordinates assigned)
Cc1ccc([N-]C(=O)C[NH2+]c2ccccc2/N=c2/cc[n-]c3cc(Cl)ccc23)cc1Cl (optimized conformer: 82.80063662818289 kcal/mol)

>  <smiles>  (58) 
Cc1ccc(NC(=O)CNc2ccccc2N=c2cc[nH]c3cc(Cl)ccc23)cc1Cl

>  <score_type>  (58) 
oracle

>  <origin>  (58) 
adg

>  <m_score__min__energy>  (58) 
-11.460000000000001

>  <m_primary>  (58) 
energy

$$$$
58:0
     RDKit          3D

 50 53  0  0  0  0  0  0  0  0999 V2000
   57.3260   34.8995   44.1260 H   0  0  0  0  0  0  0  0  0  0  0  0
   57.8690   34.3120   44.8810 C   0  0  0  0  0  0  0  0  0  0  0  0
   57.4870   33.0380   45.1530 N   0  0  0  0  0  0  0  0  0  0  0  0
   58.1460   32.2890   46.0760 C   0  0  0  0  0  0  0  0  0  0  0  0
   57.7350   31.0820   46.3240 N   0  0  0  0  0  0  0  0  0  0  0  0
   58.5310   29.9830   46.8010 C   0  0  0  0  0  0  0  0  0  0  0  0
   59.6190   30.2000   47.6690 C   0  0  0  0  0  0  0  0  0  0  0  0
   59.8670   31.2232   47.9877 H   0  0  0  0  0  0  0  0  0  0  0  0
   60.3850   29.1270   48.1280 C   0  0  0  0  0  0  0  0  0  0  0  0
   61.2282   29.3066   48.8112 H   0  0  0  0  0  0  0  0  0  0  0  0
   60.0830   27.8290   47.7220 C   0  0  0  0  0  0  0  0  0  0  0  0
   60.6765   26.9831   48.0992 H   0  0  0  0  0  0  0  0  0  0  0  0
   59.0280   27.6010   46.8370 C   0  0  0  0  0  0  0  0  0  0  0  0
   58.7926   26.5740   46.5211 H   0  0  0  0  0  0  0  0  0  0  0  0
   58.2650   28.6730   46.3470 C   0  0  0  0  0  0  0  0  0  0  0  0
   56.9300   28.3350   45.2370 S   0  0  0  0  0  0  0  0  0  0  0  0
   57.4590   27.8910   43.8990 O   0  0  0  0  0  0  0  0  0  0  0  0
   56.1270   29.5900   45.0530 O   0  0  0  0  0  0  0  0  0  0  0  0
   55.9010   27.0990   45.9000 N   0  0  0  0  0  0  0  0  0  0  0  0
   56.5230   25.7930   45.7120 C   0  0  0  0  0  0  0  0  0  0  0  0
   57.2036   26.0711   44.8938 H   0  0  0  0  0  0  0  0  0  0  0  0
   56.6750   24.9740   46.9820 C   0  0  0  0  0  0  0  0  0  0  0  0
   57.5236   24.2829   47.0926 H   0  0  0  0  0  0  0  0  0  0  0  0
   56.7240   25.2060   48.0561 H   0  0  0  0  0  0  0  0  0  0  0  0
   55.5590   24.6560   46.0010 C   0  0  0  0  0  0  0  0  0  0  0  0
   55.5996   23.7346   45.4015 H   0  0  0  0  0  0  0  0  0  0  0  0
   54.4652   24.5623   46.0708 H   0  0  0  0  0  0  0  0  0  0  0  0
   59.1960   32.8320   46.7550 N   0  0  0  0  0  0  0  0  0  0  0  0
   59.6140   34.1030   46.5220 C   0  0  0  0  0  0  0  0  0  0  0  0
   60.7130   34.5910   47.2430 O   0  0  0  0  0  0  0  0  0  0  0  0
   61.5270   33.8030   48.0660 C   0  0  0  0  0  0  0  0  0  0  0  0
   62.8210   33.4140   47.6500 C   0  0  0  0  0  0  0  0  0  0  0  0
   63.3760   33.8460   46.3200 C   0  0  0  0  0  0  0  0  0  0  0  0
   64.2347   34.5144   46.4807 H   0  0  0  0  0  0  0  0  0  0  0  0
   63.7012   32.9610   45.7535 H   0  0  0  0  0  0  0  0  0  0  0  0
   62.5979   34.3785   45.7535 H   0  0  0  0  0  0  0  0  0  0  0  0
   63.5920   32.5840   48.4770 C   0  0  0  0  0  0  0  0  0  0  0  0
   64.5873   32.2545   48.1440 H   0  0  0  0  0  0  0  0  0  0  0  0
   63.1050   32.1720   49.7220 C   0  0  0  0  0  0  0  0  0  0  0  0
   63.9050   31.3210   50.5630 C   0  0  0  0  0  0  0  0  0  0  0  0
   64.5490   30.6370   51.2400 N   0  0  0  0  0  0  0  0  0  0  0  0
   61.8400   32.5880   50.1490 C   0  0  0  0  0  0  0  0  0  0  0  0
   61.4615   32.2671   51.1307 H   0  0  0  0  0  0  0  0  0  0  0  0
   61.0510   33.4120   49.3330 C   0  0  0  0  0  0  0  0  0  0  0  0
   59.6750   33.8230   49.7820 C   0  0  0  0  0  0  0  0  0  0  0  0
   59.6362   33.8346   50.8813 H   0  0  0  0  0  0  0  0  0  0  0  0
   59.4485   34.8280   49.3965 H   0  0  0  0  0  0  0  0  0  0  0  0
   58.9344   33.1069   49.3965 H   0  0  0  0  0  0  0  0  0  0  0  0
   58.9490   34.8760   45.5580 C   0  0  0  0  0  0  0  0  0  0  0  0
   59.2730   35.9046   45.3413 H   0  0  0  0  0  0  0  0  0  0  0  0
  1  2  1  0
  2  3  1  0
  3  4  1  0
  4  5  2  0
  5  6  1  0
  6  7  2  0
  7  8  1  0
  7  9  1  0
  9 10  1  0
  9 11  2  0
 11 12  1  0
 11 13  1  0
 13 14  1  0
 13 15  2  0
 15 16  1  0
 16 17  2  0
 16 18  2  0
 16 19  1  0
 19 20  1  0
 20 21  1  0
 20 22  1  0
 22 23  1  0
 22 24  1  0
 22 25  1  0
 25 26  1  0
 25 27  1  0
  4 28  1  0
 28 29  2  0
 29 30  1  0
 30 31  1  0
 31 32  2  0
 32 33  1  0
 33 34  1  0
 33 35  1  0
 33 36  1  0
 32 37  1  0
 37 38  1  0
 37 39  2  0
 39 40  1  0
 40 41  3  0
 39 42  1  0
 42 43  1  0
 42 44  2  0
 44 45  1  0
 45 46  1  0
 45 47  1  0
 45 48  1  0
 29 49  1  0
 49 50  1  0
 49  2  2  0
 15  6  1  0
 25 20  1  0
 44 31  1  0
M  CHG  2   3  -1  19  -1
M  END
>  <UniqueID>  (59) 
57

>  <SMILES>  (59) 
Cc1cc(C#N)cc(C)c1Oc1cc[n-]/c(=N/c2ccccc2S(=O)(=O)[N-]C2CC2)n1

>  <Energy>  (59) 
331.9416919880443

>  <Genealogy>  (59) 
Cc1cc(C#N)cc(C)c1Oc1cc[n-]c(=Nc2ccccc2S(=O)(=O)[N-]C2CC2)n1 (protonated)
Cc1cc(C#N)cc(C)c1Oc1cc[n-]/c(=N/c2ccccc2S(=O)(=O)[N-]C2CC2)n1 (cis-trans isomerization)
Cc1cc(C#N)cc(C)c1Oc1cc[n-]/c(=N/c2ccccc2S(=O)(=O)[N-]C2CC2)n1 (3D coordinates assigned)
Cc1cc(C#N)cc(C)c1Oc1cc[n-]/c(=N/c2ccccc2S(=O)(=O)[N-]C2CC2)n1 (nonaromatic ring conformer: 331.9416919880443 kcal/mol)

>  <smiles>  (59) 
Cc1cc(C#N)cc(C)c1Oc1cc[nH]c(=Nc2ccccc2S(=O)(=O)NC2CC2)n1

>  <score_type>  (59) 
oracle

>  <origin>  (59) 
adg

>  <m_score__min__energy>  (59) 
-12.800000000000001

>  <m_primary>  (59) 
energy

$$$$
59:0
     RDKit          3D

 46 48  0  0  1  0  0  0  0  0999 V2000
   57.1800   31.6000   42.1500 C   0  0  0  0  0  0  0  0  0  0  0  0
   57.9190   32.4380   43.0730 N   0  0  0  0  0  0  0  0  0  0  0  0
   57.5690   32.5830   44.4440 C   0  0  0  0  0  0  0  0  0  0  0  0
   56.5710   31.9580   44.8880 O   0  0  0  0  0  0  0  0  0  0  0  0
   58.3110   33.4250   45.3730 C   0  0  0  0  0  0  0  0  0  0  0  0
   58.9110   34.5580   44.8720 C   0  0  0  0  0  0  0  0  0  0  0  0
   59.6440   35.4290   45.6710 C   0  0  0  0  0  0  0  0  0  0  0  0
   59.7530   35.1130   47.0100 C   0  0  0  0  0  0  0  0  0  0  0  0
   59.1580   33.9750   47.5410 C   0  0  0  0  0  0  0  0  0  0  0  0
   59.3130   33.7120   48.9310 N   0  0  0  0  0  0  0  0  0  0  0  0
   59.9860   32.7180   49.3400 C   0  0  0  0  0  0  0  0  0  0  0  0
   59.5280   31.4250   49.2550 C   0  0  0  0  0  0  0  0  0  0  0  0
   60.2760   30.3320   49.7090 C   0  0  0  0  0  0  0  0  0  0  0  0
   59.7500   29.0290   49.5670 N   0  0  0  0  0  0  0  0  0  0  0  0
   59.6570   28.2850   48.3780 C   0  0  0  0  0  0  0  0  0  0  0  0
   60.1880   27.0350   48.1750 C   0  0  0  0  0  0  0  0  0  0  0  0
   60.0700   26.3760   46.9560 C   0  0  0  0  0  0  0  0  0  0  0  0
   59.4080   26.9580   45.8960 C   0  0  0  0  0  0  0  0  0  0  0  0
   58.8710   28.2120   46.0910 C   0  0  0  0  0  0  0  0  0  0  0  0
   58.0320   28.9330   44.7280 S   0  0  0  0  0  0  0  0  0  0  0  0
   56.4790   29.5250   45.1480 N   0  0  0  0  0  0  0  0  0  0  0  0
   58.8540   30.0000   44.0620 O   0  0  0  0  0  0  0  0  0  0  0  0
   57.8030   27.8690   43.6650 O   0  0  0  0  0  0  0  0  0  0  0  0
   58.9930   28.8630   47.3070 C   0  0  0  0  0  0  0  0  0  0  0  0
   61.4700   30.6250   50.2340 N   0  0  0  0  0  0  0  0  0  0  0  0
   61.9540   31.8880   50.3350 C   0  0  0  0  0  0  0  0  0  0  0  0
   61.2070   32.9250   49.8880 N   0  0  0  0  0  0  0  0  0  0  0  0
   58.4390   33.1370   46.7130 C   0  0  0  0  0  0  0  0  0  0  0  0
   56.5562   30.8926   42.7160 H   0  0  0  0  0  0  0  0  0  0  0  0
   56.5378   32.2297   41.5167 H   0  0  0  0  0  0  0  0  0  0  0  0
   57.8851   31.0416   41.5167 H   0  0  0  0  0  0  0  0  0  0  0  0
   58.7410   32.9480   42.6880 H   0  0  0  0  0  0  0  0  0  0  0  0
   58.8069   34.7828   43.8003 H   0  0  0  0  0  0  0  0  0  0  0  0
   60.1163   36.3306   45.2538 H   0  0  0  0  0  0  0  0  0  0  0  0
   60.3250   35.7784   47.6733 H   0  0  0  0  0  0  0  0  0  0  0  0
   58.5370   31.2421   48.8139 H   0  0  0  0  0  0  0  0  0  0  0  0
   59.3880   28.5620   50.4400 H   0  0  0  0  0  0  0  0  0  0  0  0
   60.7219   26.5408   49.0001 H   0  0  0  0  0  0  0  0  0  0  0  0
   60.5114   25.3756   46.8358 H   0  0  0  0  0  0  0  0  0  0  0  0
   59.3120   26.4404   44.9301 H   0  0  0  0  0  0  0  0  0  0  0  0
   56.5490   30.0890   46.0020 H   0  0  0  0  0  0  0  0  0  0  0  0
   55.9670   29.9510   44.3700 H   0  0  0  0  0  0  0  0  0  0  0  0
   58.5521   29.8637   47.4262 H   0  0  0  0  0  0  0  0  0  0  0  0
   62.1000   29.8770   50.5840 H   0  0  0  0  0  0  0  0  0  0  0  0
   62.9453   32.0683   50.7764 H   0  0  0  0  0  0  0  0  0  0  0  0
   57.9657   32.2341   47.1261 H   0  0  0  0  0  0  0  0  0  0  0  0
  1  2  1  0
  2  3  1  0
  3  4  2  0
  3  5  1  0
  5  6  2  0
  6  7  1  0
  7  8  2  0
  8  9  1  0
  9 10  1  0
 10 11  2  0
 11 12  1  0
 12 13  2  0
 13 14  1  0
 14 15  1  0
 15 16  2  0
 16 17  1  0
 17 18  2  0
 18 19  1  0
 19 20  1  0
 20 21  1  0
 20 22  2  0
 20 23  2  0
 19 24  2  0
 13 25  1  0
 25 26  1  0
 26 27  2  0
  9 28  2  0
 28  5  1  0
 27 11  1  0
 24 15  1  0
  1 29  1  0
  1 30  1  0
  1 31  1  0
  2 32  1  0
  6 33  1  0
  7 34  1  0
  8 35  1  0
 12 36  1  0
 14 37  1  0
 16 38  1  0
 17 39  1  0
 18 40  1  0
 21 41  1  0
 21 42  1  0
 24 43  1  0
 25 44  1  0
 26 45  1  0
 28 46  1  0
M  END
>  <smiles>  (60) 
CNC(=O)c1cccc(N=c2cc(Nc3cccc(S(N)(=O)=O)c3)[nH]cn2)c1

>  <score_type>  (60) 
oracle

>  <origin>  (60) 
adg

>  <m_score__min__energy>  (60) 
-9.1799999999999997

>  <m_primary>  (60) 
energy

$$$$
60:0
     RDKit          3D

 40 42  0  0  1  0  0  0  0  0999 V2000
   57.0990   24.4730   45.3050 C   0  0  0  0  0  0  0  0  0  0  0  0
   56.6740   26.0820   45.9060 S   0  0  0  0  0  0  0  0  0  0  0  0
   57.3000   26.2290   47.2860 O   0  0  0  0  0  0  0  0  0  0  0  0
   55.1700   26.1010   46.1890 O   0  0  0  0  0  0  0  0  0  0  0  0
   57.1160   27.3640   44.8810 N   0  0  0  0  0  0  0  0  0  0  0  0
   57.8160   28.5290   45.2460 C   0  0  0  0  0  0  0  0  0  0  0  0
   59.1470   28.5970   45.5790 C   0  0  0  0  0  0  0  0  0  0  0  0
   59.7690   29.7690   45.9170 C   0  0  0  0  0  0  0  0  0  0  0  0
   59.0470   30.9410   45.9290 C   0  0  0  0  0  0  0  0  0  0  0  0
   59.6440   32.1700   46.2570 C   0  0  0  0  0  0  0  0  0  0  0  0
   60.8740   32.1260   46.5550 N   0  0  0  0  0  0  0  0  0  0  0  0
   61.4130   32.0050   47.8820 C   0  0  0  0  0  0  0  0  0  0  0  0
   60.3540   32.0710   48.9440 C   0  0  0  0  0  0  0  0  0  0  0  0
   59.5530   31.0160   49.2710 C   0  0  0  0  0  0  0  0  0  0  0  0
   58.5960   31.1490   50.2730 C   0  0  0  0  0  0  0  0  0  0  0  0
   58.4540   32.3550   50.9430 C   0  0  0  0  0  0  0  0  0  0  0  0
   57.5120   32.4900   51.9310 F   0  0  0  0  0  0  0  0  0  0  0  0
   59.2780   33.4310   50.6020 C   0  0  0  0  0  0  0  0  0  0  0  0
   60.2340   33.2980   49.6010 C   0  0  0  0  0  0  0  0  0  0  0  0
   58.9490   33.3110   46.2600 N   0  0  0  0  0  0  0  0  0  0  0  0
   57.6570   33.2540   45.9380 C   0  0  0  0  0  0  0  0  0  0  0  0
   57.0200   32.0920   45.6110 N   0  0  0  0  0  0  0  0  0  0  0  0
   57.7100   30.9290   45.6040 C   0  0  0  0  0  0  0  0  0  0  0  0
   57.1140   29.7250   45.2670 C   0  0  0  0  0  0  0  0  0  0  0  0
   55.7460   29.7230   44.9360 O   0  0  0  0  0  0  0  0  0  0  0  0
   57.2770   23.7990   46.1559 H   0  0  0  0  0  0  0  0  0  0  0  0
   56.2737   24.0805   44.6927 H   0  0  0  0  0  0  0  0  0  0  0  0
   58.0105   24.5392   44.6927 H   0  0  0  0  0  0  0  0  0  0  0  0
   56.8300   27.2780   43.8560 H   0  0  0  0  0  0  0  0  0  0  0  0
   59.7387   27.6697   45.5739 H   0  0  0  0  0  0  0  0  0  0  0  0
   60.8378   29.7740   46.1771 H   0  0  0  0  0  0  0  0  0  0  0  0
   61.9342   31.0398   47.9638 H   0  0  0  0  0  0  0  0  0  0  0  0
   62.0978   32.8509   48.0416 H   0  0  0  0  0  0  0  0  0  0  0  0
   59.6637   30.0582   48.7416 H   0  0  0  0  0  0  0  0  0  0  0  0
   57.9516   30.2965   50.5338 H   0  0  0  0  0  0  0  0  0  0  0  0
   59.1695   34.3902   51.1293 H   0  0  0  0  0  0  0  0  0  0  0  0
   60.8839   34.1435   49.3314 H   0  0  0  0  0  0  0  0  0  0  0  0
   59.4230   34.1860   46.5000 H   0  0  0  0  0  0  0  0  0  0  0  0
   57.0762   34.1882   45.9357 H   0  0  0  0  0  0  0  0  0  0  0  0
   55.1540   30.5090   45.2500 H   0  0  0  0  0  0  0  0  0  0  0  0
  1  2  1  0
  2  3  2  0
  2  4  2  0
  2  5  1  0
  5  6  1  0
  6  7  2  0
  7  8  1  0
  8  9  2  0
  9 10  1  0
 10 11  2  0
 11 12  1  0
 12 13  1  0
 13 14  2  0
 14 15  1  0
 15 16  2  0
 16 17  1  0
 16 18  1  0
 18 19  2  0
 10 20  1  0
 20 21  1  0
 21 22  2  0
 22 23  1  0
 23 24  2  0
 24 25  1  0
 24  6  1  0
 23  9  1  0
 19 13  1  0
  1 26  1  0
  1 27  1  0
  1 28  1  0
  5 29  1  0
  7 30  1  0
  8 31  1  0
 12 32  1  0
 12 33  1  0
 14 34  1  0
 15 35  1  0
 18 36  1  0
 19 37  1  0
 20 38  1  0
 21 39  1  0
 25 40  1  0
M  END
>  <smiles>  (61) 
CS(=O)(=O)Nc1ccc2c(=NCc3ccc(F)cc3)[nH]cnc2c1O

>  <score_type>  (61) 
oracle

>  <origin>  (61) 
adg

>  <m_score__min__energy>  (61) 
-8.9199999999999999

>  <m_primary>  (61) 
energy

$$$$
61:0
     RDKit          3D

 45 47  0  0  0  0  0  0  0  0999 V2000
   58.1130   33.8290   45.0600 O   0  0  0  0  0  0  0  0  0  0  0  0
   58.5300   32.4630   45.5330 S   0  0  0  0  0  0  0  0  0  0  0  0
   57.5580   31.9820   46.5740 O   0  0  0  0  0  0  0  0  0  0  0  0
   60.1300   32.5580   46.2640 C   0  0  0  0  0  0  0  0  0  0  0  0
   60.8690   33.7450   46.1770 C   0  0  0  0  0  0  0  0  0  0  0  0
   62.1350   33.8310   46.7660 C   0  0  0  0  0  0  0  0  0  0  0  0
   62.6700   32.7340   47.4550 C   0  0  0  0  0  0  0  0  0  0  0  0
   63.9700   32.8330   48.0490 N   0  0  0  0  0  0  0  0  0  0  0  0
   64.1880   32.8810   49.4680 C   0  0  0  0  0  0  0  0  0  0  0  0
   65.6350   32.3420   50.0290 S   0  0  0  0  0  0  0  0  0  0  0  0
   63.3920   33.7690   50.2860 N   0  0  0  0  0  0  0  0  0  0  0  0
   62.0020   33.3760   50.2980 C   0  0  0  0  0  0  0  0  0  0  0  0
   61.0140   34.2150   49.7470 C   0  0  0  0  0  0  0  0  0  0  0  0
   59.6710   33.8240   49.7480 C   0  0  0  0  0  0  0  0  0  0  0  0
   59.2980   32.5990   50.3080 C   0  0  0  0  0  0  0  0  0  0  0  0
   57.9950   32.2230   50.3100 F   0  0  0  0  0  0  0  0  0  0  0  0
   60.2670   31.7660   50.8760 C   0  0  0  0  0  0  0  0  0  0  0  0
   61.6100   32.1520   50.8750 C   0  0  0  0  0  0  0  0  0  0  0  0
   61.9460   31.5340   47.5070 C   0  0  0  0  0  0  0  0  0  0  0  0
   60.6790   31.4480   46.9210 C   0  0  0  0  0  0  0  0  0  0  0  0
   58.5710   31.3440   44.1840 N   0  0  0  0  0  0  0  0  0  0  0  0
   57.4170   31.5290   43.2770 C   0  0  0  0  0  0  0  0  0  0  0  0
   56.3020   30.4950   43.5110 C   0  0  0  0  0  0  0  0  0  0  0  0
   56.2470   30.1360   44.8740 O   0  0  0  0  0  0  0  0  0  0  0  0
   57.3960   29.3850   45.2280 C   0  0  0  0  0  0  0  0  0  0  0  0
   58.7120   29.9500   44.6390 C   0  0  0  0  0  0  0  0  0  0  0  0
   60.4524   34.6123   45.6438 H   0  0  0  0  0  0  0  0  0  0  0  0
   62.7131   34.7636   46.6880 H   0  0  0  0  0  0  0  0  0  0  0  0
   64.7980   32.9230   47.4170 H   0  0  0  0  0  0  0  0  0  0  0  0
   63.7730   33.7610   51.2600 H   0  0  0  0  0  0  0  0  0  0  0  0
   63.4740   34.7510   49.9390 H   0  0  0  0  0  0  0  0  0  0  0  0
   61.3004   35.1843   49.3129 H   0  0  0  0  0  0  0  0  0  0  0  0
   58.9072   34.4817   49.3074 H   0  0  0  0  0  0  0  0  0  0  0  0
   59.9717   30.8058   51.3241 H   0  0  0  0  0  0  0  0  0  0  0  0
   62.3670   31.4951   51.3282 H   0  0  0  0  0  0  0  0  0  0  0  0
   62.3767   30.6563   48.0111 H   0  0  0  0  0  0  0  0  0  0  0  0
   60.1119   30.5070   46.9758 H   0  0  0  0  0  0  0  0  0  0  0  0
   57.0022   32.5352   43.4369 H   0  0  0  0  0  0  0  0  0  0  0  0
   57.7808   31.3960   42.2474 H   0  0  0  0  0  0  0  0  0  0  0  0
   55.3365   30.9278   43.2103 H   0  0  0  0  0  0  0  0  0  0  0  0
   56.5146   29.5971   42.9122 H   0  0  0  0  0  0  0  0  0  0  0  0
   57.4814   29.3763   46.3246 H   0  0  0  0  0  0  0  0  0  0  0  0
   57.2629   28.3760   44.8106 H   0  0  0  0  0  0  0  0  0  0  0  0
   59.4921   29.9084   45.4134 H   0  0  0  0  0  0  0  0  0  0  0  0
   58.9784   29.3374   43.7651 H   0  0  0  0  0  0  0  0  0  0  0  0
  1  2  2  0
  2  3  2  0
  2  4  1  0
  4  5  2  0
  5  6  1  0
  6  7  2  0
  7  8  1  0
  8  9  1  0
  9 10  2  0
  9 11  1  0
 11 12  1  0
 12 13  2  0
 13 14  1  0
 14 15  2  0
 15 16  1  0
 15 17  1  0
 17 18  2  0
  7 19  1  0
 19 20  2  0
  2 21  1  0
 21 22  1  0
 22 23  1  0
 23 24  1  0
 24 25  1  0
 25 26  1  0
 20  4  1  0
 26 21  1  0
 18 12  1  0
  5 27  1  0
  6 28  1  0
  8 29  1  0
 11 30  1  0
 11 31  1  0
 13 32  1  0
 14 33  1  0
 17 34  1  0
 18 35  1  0
 19 36  1  0
 20 37  1  0
 22 38  1  0
 22 39  1  0
 23 40  1  0
 23 41  1  0
 25 42  1  0
 25 43  1  0
 26 44  1  0
 26 45  1  0
M  CHG  1  11   1
M  END
>  <UniqueID>  (62) 
58

>  <SMILES>  (62) 
O=S(=O)(c1ccc(NC(=S)[NH2+]c2ccc(F)cc2)cc1)N1CCOCC1

>  <Energy>  (62) 
65.42439373768985

>  <Genealogy>  (62) 
O=S(=O)(c1ccc(NC(=S)[NH2+]c2ccc(F)cc2)cc1)N1CCOCC1 (protonated)
O=S(=O)(c1ccc(NC(=S)[NH2+]c2ccc(F)cc2)cc1)N1CCOCC1 (3D coordinates assigned)
O=S(=O)(c1ccc(NC(=S)[NH2+]c2ccc(F)cc2)cc1)N1CCOCC1 (nonaromatic ring conformer: 65.42439373768985 kcal/mol)

>  <smiles>  (62) 
O=S(=O)(c1ccc(NC(=S)Nc2ccc(F)cc2)cc1)N1CCOCC1

>  <score_type>  (62) 
oracle

>  <origin>  (62) 
adg

>  <m_score__min__energy>  (62) 
-6.9199999999999999

>  <m_primary>  (62) 
energy

$$$$
62:0
     RDKit          3D

 66 70  0  0  0  0  0  0  0  0999 V2000
   62.8620   30.2060   51.1530 C   0  0  0  0  0  0  0  0  0  0  0  0
   62.5650   31.6180   50.7620 C   0  0  0  0  0  0  0  0  0  0  0  0
   63.5840   32.5780   50.7420 C   0  0  0  0  0  0  0  0  0  0  0  0
   63.2830   33.8850   50.3630 C   0  0  0  0  0  0  0  0  0  0  0  0
   61.9740   34.2260   50.0060 C   0  0  0  0  0  0  0  0  0  0  0  0
   60.9670   33.2390   50.0380 C   0  0  0  0  0  0  0  0  0  0  0  0
   59.7370   33.4680   49.6690 N   0  0  0  0  0  0  0  0  0  0  0  0
   58.8900   32.6540   48.8400 C   0  0  0  0  0  0  0  0  0  0  0  0
   58.4180   31.5720   49.2830 O   0  0  0  0  0  0  0  0  0  0  0  0
   58.6220   33.0770   47.4410 C   0  0  0  0  0  0  0  0  0  0  0  0
   57.3150   33.4740   47.0980 C   0  0  0  0  0  0  0  0  0  0  0  0
   57.0000   33.8450   45.7900 C   0  0  0  0  0  0  0  0  0  0  0  0
   57.9810   33.8190   44.8000 C   0  0  0  0  0  0  0  0  0  0  0  0
   59.2850   33.4400   45.1190 C   0  0  0  0  0  0  0  0  0  0  0  0
   59.6220   33.0770   46.4330 C   0  0  0  0  0  0  0  0  0  0  0  0
   61.0460   32.7870   46.7210 C   0  0  0  0  0  0  0  0  0  0  0  0
   61.9740   33.8400   46.6450 C   0  0  0  0  0  0  0  0  0  0  0  0
   63.3220   33.6160   46.9310 C   0  0  0  0  0  0  0  0  0  0  0  0
   63.7560   32.3420   47.3020 C   0  0  0  0  0  0  0  0  0  0  0  0
   62.8420   31.2900   47.4020 C   0  0  0  0  0  0  0  0  0  0  0  0
   61.4780   31.4980   47.1280 C   0  0  0  0  0  0  0  0  0  0  0  0
   60.5220   30.3320   47.2500 C   0  0  0  0  0  0  0  0  0  0  0  0
   59.9730   29.9890   45.9410 N   0  0  0  0  0  0  0  0  0  0  0  0
   58.6350   29.5300   45.7170 C   0  0  0  0  0  0  0  0  0  0  0  0
   57.6740   30.2890   46.0160 O   0  0  0  0  0  0  0  0  0  0  0  0
   58.3520   28.1990   45.1490 C   0  0  0  0  0  0  0  0  0  0  0  0
   58.4420   27.9910   43.7630 C   0  0  0  0  0  0  0  0  0  0  0  0
   58.1390   26.7410   43.2170 C   0  0  0  0  0  0  0  0  0  0  0  0
   57.7260   25.6950   44.0450 C   0  0  0  0  0  0  0  0  0  0  0  0
   57.5910   25.8970   45.4290 C   0  0  0  0  0  0  0  0  0  0  0  0
   57.1320   24.7710   46.3250 C   0  0  0  0  0  0  0  0  0  0  0  0
   55.6980   24.8730   46.6130 N   0  0  0  0  0  0  0  0  0  0  0  0
   54.7500   24.0720   46.2070 C   0  0  0  0  0  0  0  0  0  0  0  0
   53.8350   24.5450   45.2590 C   0  0  0  0  0  0  0  0  0  0  0  0
   52.8130   23.7080   44.8020 C   0  0  0  0  0  0  0  0  0  0  0  0
   52.7050   22.4400   45.2790 N   0  0  0  0  0  0  0  0  0  0  0  0
   53.5730   21.9520   46.2040 C   0  0  0  0  0  0  0  0  0  0  0  0
   54.6110   22.7530   46.6880 C   0  0  0  0  0  0  0  0  0  0  0  0
   57.9170   27.1510   45.9750 C   0  0  0  0  0  0  0  0  0  0  0  0
   61.2990   31.9720   50.4090 N   0  0  0  0  0  0  0  0  0  0  0  0
   62.8790   30.1251   52.2499 H   0  0  0  0  0  0  0  0  0  0  0  0
   62.0839   29.5421   50.7484 H   0  0  0  0  0  0  0  0  0  0  0  0
   63.8417   29.9118   50.7484 H   0  0  0  0  0  0  0  0  0  0  0  0
   64.6116   32.3035   51.0225 H   0  0  0  0  0  0  0  0  0  0  0  0
   64.0747   34.6485   50.3446 H   0  0  0  0  0  0  0  0  0  0  0  0
   61.7321   35.2554   49.7029 H   0  0  0  0  0  0  0  0  0  0  0  0
   56.5325   33.4919   47.8709 H   0  0  0  0  0  0  0  0  0  0  0  0
   55.9757   34.1585   45.5398 H   0  0  0  0  0  0  0  0  0  0  0  0
   57.7267   34.0975   43.7667 H   0  0  0  0  0  0  0  0  0  0  0  0
   60.0559   33.4254   44.3345 H   0  0  0  0  0  0  0  0  0  0  0  0
   61.6360   34.8468   46.3584 H   0  0  0  0  0  0  0  0  0  0  0  0
   64.0429   34.4442   46.8640 H   0  0  0  0  0  0  0  0  0  0  0  0
   64.8205   32.1660   47.5162 H   0  0  0  0  0  0  0  0  0  0  0  0
   63.1922   30.2900   47.6977 H   0  0  0  0  0  0  0  0  0  0  0  0
   61.0594   29.4630   47.6574 H   0  0  0  0  0  0  0  0  0  0  0  0
   59.6976   30.6134   47.9217 H   0  0  0  0  0  0  0  0  0  0  0  0
   58.7523   28.8156   43.1045 H   0  0  0  0  0  0  0  0  0  0  0  0
   58.2260   26.5805   42.1323 H   0  0  0  0  0  0  0  0  0  0  0  0
   57.5053   24.7083   43.6117 H   0  0  0  0  0  0  0  0  0  0  0  0
   57.3302   23.8113   45.8252 H   0  0  0  0  0  0  0  0  0  0  0  0
   57.6833   24.8350   47.2747 H   0  0  0  0  0  0  0  0  0  0  0  0
   53.9200   25.5722   44.8749 H   0  0  0  0  0  0  0  0  0  0  0  0
   52.0947   24.0764   44.0548 H   0  0  0  0  0  0  0  0  0  0  0  0
   53.4581   20.9222   46.5733 H   0  0  0  0  0  0  0  0  0  0  0  0
   55.3132   22.3586   47.4372 H   0  0  0  0  0  0  0  0  0  0  0  0
   57.8303   27.3122   47.0597 H   0  0  0  0  0  0  0  0  0  0  0  0
  1  2  1  0
  2  3  2  0
  3  4  1  0
  4  5  2  0
  5  6  1  0
  6  7  2  3
  7  8  1  0
  8  9  2  0
  8 10  1  0
 10 11  2  0
 11 12  1  0
 12 13  2  0
 13 14  1  0
 14 15  2  0
 15 16  1  0
 16 17  2  0
 17 18  1  0
 18 19  2  0
 19 20  1  0
 20 21  2  0
 21 22  1  0
 22 23  1  0
 23 24  1  0
 24 25  2  0
 24 26  1  0
 26 27  2  0
 27 28  1  0
 28 29  2  0
 29 30  1  0
 30 31  1  0
 31 32  1  0
 32 33  2  3
 33 34  1  0
 34 35  2  0
 35 36  1  0
 36 37  1  0
 37 38  2  0
 30 39  2  0
  6 40  1  0
 40  2  1  0
 15 10  1  0
 21 16  1  0
 39 26  1  0
 38 33  1  0
  1 41  1  0
  1 42  1  0
  1 43  1  0
  3 44  1  0
  4 45  1  0
  5 46  1  0
 11 47  1  0
 12 48  1  0
 13 49  1  0
 14 50  1  0
 17 51  1  0
 18 52  1  0
 19 53  1  0
 20 54  1  0
 22 55  1  0
 22 56  1  0
 27 57  1  0
 28 58  1  0
 29 59  1  0
 31 60  1  0
 31 61  1  0
 34 62  1  0
 35 63  1  0
 37 64  1  0
 38 65  1  0
 39 66  1  0
M  CHG  3  23  -1  36  -1  40  -1
M  END
>  <UniqueID>  (63) 
59

>  <SMILES>  (63) 
Cc1cccc(=NC(=O)c2ccccc2-c2ccccc2C[N-]C(=O)c2cccc(CN=c3cc[n-]cc3)c2)[n-]1

>  <Energy>  (63) 
98.11974262327865

>  <Genealogy>  (63) 
Cc1cccc(=NC(=O)c2ccccc2-c2ccccc2C[N-]C(=O)c2cccc(CN=c3cc[n-]cc3)c2)[n-]1 (protonated)
Cc1cccc(=NC(=O)c2ccccc2-c2ccccc2C[N-]C(=O)c2cccc(CN=c3cc[n-]cc3)c2)[n-]1 (3D coordinates assigned)
Cc1cccc(=NC(=O)c2ccccc2-c2ccccc2C[N-]C(=O)c2cccc(CN=c3cc[n-]cc3)c2)[n-]1 (optimized conformer: 98.11974262327865 kcal/mol)

>  <smiles>  (63) 
Cc1cccc(=NC(=O)c2ccccc2-c2ccccc2CNC(=O)c2cccc(CN=c3cc[nH]cc3)c2)[nH]1

>  <score_type>  (63) 
oracle

>  <origin>  (63) 
adg

>  <m_score__min__energy>  (63) 
-16.420000000000002

>  <m_primary>  (63) 
energy

$$$$
63:0
     RDKit          3D

 46 48  0  0  0  0  0  0  0  0999 V2000
   60.2010   28.5780   49.6280 C   0  0  0  0  0  0  0  0  0  0  0  0
   60.7780   29.5990   48.7020 C   0  0  0  0  0  0  0  0  0  0  0  0
   60.4460   29.5870   47.4850 O   0  0  0  0  0  0  0  0  0  0  0  0
   61.7680   30.5210   49.1820 N   0  0  0  0  0  0  0  0  0  0  0  0
   62.2520   31.6480   48.4320 C   0  0  0  0  0  0  0  0  0  0  0  0
   63.6120   31.9850   48.4980 C   0  0  0  0  0  0  0  0  0  0  0  0
   64.1000   33.0970   47.8100 C   0  0  0  0  0  0  0  0  0  0  0  0
   63.2340   33.8880   47.0510 C   0  0  0  0  0  0  0  0  0  0  0  0
   61.8730   33.5690   46.9680 C   0  0  0  0  0  0  0  0  0  0  0  0
   61.0100   34.4280   46.2090 N   0  0  0  0  0  0  0  0  0  0  0  0
   59.5760   34.4020   46.2000 C   0  0  0  0  0  0  0  0  0  0  0  0
   58.9240   35.3550   46.7090 O   0  0  0  0  0  0  0  0  0  0  0  0
   58.8580   33.2330   45.6410 C   0  0  0  0  0  0  0  0  0  0  0  0
   58.6550   32.0770   46.4180 C   0  0  0  0  0  0  0  0  0  0  0  0
   57.9800   30.9740   45.8870 C   0  0  0  0  0  0  0  0  0  0  0  0
   57.5000   31.0060   44.5730 C   0  0  0  0  0  0  0  0  0  0  0  0
   56.6400   29.6150   43.9220 S   0  0  0  0  0  0  0  0  0  0  0  0
   57.6000   28.7880   43.1130 O   0  0  0  0  0  0  0  0  0  0  0  0
   55.5120   30.0800   43.0440 O   0  0  0  0  0  0  0  0  0  0  0  0
   56.0170   28.6840   45.2460 N   0  0  0  0  0  0  0  0  0  0  0  0
   56.5520   27.4690   45.7980 C   0  0  0  0  0  0  0  0  0  0  0  0
   57.9360   27.4170   46.0210 C   0  0  0  0  0  0  0  0  0  0  0  0
   58.5320   26.2690   46.5470 C   0  0  0  0  0  0  0  0  0  0  0  0
   57.7500   25.1580   46.8650 C   0  0  0  0  0  0  0  0  0  0  0  0
   56.3690   25.1970   46.6610 C   0  0  0  0  0  0  0  0  0  0  0  0
   55.7620   26.3440   46.1360 C   0  0  0  0  0  0  0  0  0  0  0  0
   54.3830   26.3410   45.9770 O   0  0  0  0  0  0  0  0  0  0  0  0
   57.6900   32.1540   43.7950 C   0  0  0  0  0  0  0  0  0  0  0  0
   58.3660   33.2590   44.3230 C   0  0  0  0  0  0  0  0  0  0  0  0
   61.3790   32.4620   47.6840 C   0  0  0  0  0  0  0  0  0  0  0  0
   60.3756   28.8870   50.6692 H   0  0  0  0  0  0  0  0  0  0  0  0
   59.1194   28.4896   49.4482 H   0  0  0  0  0  0  0  0  0  0  0  0
   60.6832   27.6058   49.4482 H   0  0  0  0  0  0  0  0  0  0  0  0
   62.2220   30.3100   50.1010 H   0  0  0  0  0  0  0  0  0  0  0  0
   64.2989   31.3684   49.0963 H   0  0  0  0  0  0  0  0  0  0  0  0
   65.1688   33.3511   47.8655 H   0  0  0  0  0  0  0  0  0  0  0  0
   63.6234   34.7664   46.5155 H   0  0  0  0  0  0  0  0  0  0  0  0
   59.0305   32.0412   47.4513 H   0  0  0  0  0  0  0  0  0  0  0  0
   57.8255   30.0771   46.5048 H   0  0  0  0  0  0  0  0  0  0  0  0
   58.5589   28.2907   45.7787 H   0  0  0  0  0  0  0  0  0  0  0  0
   59.6194   26.2405   46.7109 H   0  0  0  0  0  0  0  0  0  0  0  0
   58.2207   24.2526   47.2758 H   0  0  0  0  0  0  0  0  0  0  0  0
   55.7542   24.3208   46.9145 H   0  0  0  0  0  0  0  0  0  0  0  0
   57.3063   32.1874   42.7646 H   0  0  0  0  0  0  0  0  0  0  0  0
   58.5141   34.1554   43.7029 H   0  0  0  0  0  0  0  0  0  0  0  0
   60.3038   32.2311   47.6591 H   0  0  0  0  0  0  0  0  0  0  0  0
  1  2  1  0
  2  3  2  0
  2  4  1  0
  4  5  1  0
  5  6  2  0
  6  7  1  0
  7  8  2  0
  8  9  1  0
  9 10  1  0
 10 11  1  0
 11 12  2  0
 11 13  1  0
 13 14  2  0
 14 15  1  0
 15 16  2  0
 16 17  1  0
 17 18  2  0
 17 19  2  0
 17 20  1  0
 20 21  1  0
 21 22  2  0
 22 23  1  0
 23 24  2  0
 24 25  1  0
 25 26  2  0
 26 27  1  0
 16 28  1  0
 28 29  2  0
  9 30  2  0
 30  5  1  0
 29 13  1  0
 26 21  1  0
  1 31  1  0
  1 32  1  0
  1 33  1  0
  4 34  1  0
  6 35  1  0
  7 36  1  0
  8 37  1  0
 14 38  1  0
 15 39  1  0
 22 40  1  0
 23 41  1  0
 24 42  1  0
 25 43  1  0
 28 44  1  0
 29 45  1  0
 30 46  1  0
M  CHG  3  10  -1  20  -1  27  -1
M  END
>  <UniqueID>  (64) 
60

>  <SMILES>  (64) 
CC(=O)Nc1cccc([N-]C(=O)c2ccc(S(=O)(=O)[N-]c3ccccc3[O-])cc2)c1

>  <Energy>  (64) 
62.28243735623673

>  <Genealogy>  (64) 
CC(=O)Nc1cccc([N-]C(=O)c2ccc(S(=O)(=O)[N-]c3ccccc3[O-])cc2)c1 (protonated)
CC(=O)Nc1cccc([N-]C(=O)c2ccc(S(=O)(=O)[N-]c3ccccc3[O-])cc2)c1 (3D coordinates assigned)
CC(=O)Nc1cccc([N-]C(=O)c2ccc(S(=O)(=O)[N-]c3ccccc3[O-])cc2)c1 (optimized conformer: 62.28243735623673 kcal/mol)

>  <smiles>  (64) 
CC(=O)Nc1cccc(NC(=O)c2ccc(S(=O)(=O)Nc3ccccc3O)cc2)c1

>  <score_type>  (64) 
oracle

>  <origin>  (64) 
adg

>  <m_score__min__energy>  (64) 
-16.359999999999999

>  <m_primary>  (64) 
energy

$$$$
64:0
     RDKit          3D

 31 32  0  0  0  0  0  0  0  0999 V2000
   58.6640   27.7690   44.0580 C   0  0  0  0  0  0  0  0  0  0  0  0
   59.2100   27.6040   45.4720 C   0  0  0  0  0  0  0  0  0  0  0  0
   58.0850   27.4260   46.4580 C   0  0  0  0  0  0  0  0  0  0  0  0
   57.7400   26.2630   47.0270 C   0  0  0  0  0  0  0  0  0  0  0  0
   56.5710   25.4500   46.6250 C   0  0  0  0  0  0  0  0  0  0  0  0
   55.4950   26.0520   45.9670 C   0  0  0  0  0  0  0  0  0  0  0  0
   55.5210   27.4080   45.6610 O   0  0  0  0  0  0  0  0  0  0  0  0
   54.4180   25.3110   45.6130 N   0  0  0  0  0  0  0  0  0  0  0  0
   54.3470   23.9850   45.8910 C   0  0  0  0  0  0  0  0  0  0  0  0
   53.3330   23.3360   45.5170 O   0  0  0  0  0  0  0  0  0  0  0  0
   55.3710   23.3630   46.5580 N   0  0  0  0  0  0  0  0  0  0  0  0
   55.2900   21.9530   46.8560 C   0  0  0  0  0  0  0  0  0  0  0  0
   55.9460   21.0170   46.0380 C   0  0  0  0  0  0  0  0  0  0  0  0
   55.8690   19.6510   46.3300 C   0  0  0  0  0  0  0  0  0  0  0  0
   55.1400   19.2110   47.4380 C   0  0  0  0  0  0  0  0  0  0  0  0
   54.4860   20.1370   48.2570 C   0  0  0  0  0  0  0  0  0  0  0  0
   54.5600   21.5030   47.9690 C   0  0  0  0  0  0  0  0  0  0  0  0
   56.4730   24.0840   46.9440 C   0  0  0  0  0  0  0  0  0  0  0  0
   57.3930   23.5320   47.6090 O   0  0  0  0  0  0  0  0  0  0  0  0
   57.6120   28.0869   44.1059 H   0  0  0  0  0  0  0  0  0  0  0  0
   59.2528   28.5293   43.5240 H   0  0  0  0  0  0  0  0  0  0  0  0
   58.7332   26.8098   43.5240 H   0  0  0  0  0  0  0  0  0  0  0  0
   59.8637   26.7200   45.5061 H   0  0  0  0  0  0  0  0  0  0  0  0
   59.7770   28.5075   45.7406 H   0  0  0  0  0  0  0  0  0  0  0  0
   57.5027   28.3183   46.7315 H   0  0  0  0  0  0  0  0  0  0  0  0
   58.3681   25.8874   47.8482 H   0  0  0  0  0  0  0  0  0  0  0  0
   56.5217   21.3596   45.1655 H   0  0  0  0  0  0  0  0  0  0  0  0
   56.3832   18.9221   45.6863 H   0  0  0  0  0  0  0  0  0  0  0  0
   55.0805   18.1365   47.6660 H   0  0  0  0  0  0  0  0  0  0  0  0
   53.9125   19.7899   49.1291 H   0  0  0  0  0  0  0  0  0  0  0  0
   54.0448   22.2282   48.6161 H   0  0  0  0  0  0  0  0  0  0  0  0
  1  2  1  0
  2  3  1  0
  3  4  2  3
  4  5  1  0
  5  6  2  0
  6  7  1  0
  6  8  1  0
  8  9  1  0
  9 10  2  0
  9 11  1  0
 11 12  1  0
 12 13  2  0
 13 14  1  0
 14 15  2  0
 15 16  1  0
 16 17  2  0
 11 18  1  0
 18 19  2  0
 18  5  1  0
 17 12  1  0
  1 20  1  0
  1 21  1  0
  1 22  1  0
  2 23  1  0
  2 24  1  0
  3 25  1  0
  4 26  1  0
 13 27  1  0
 14 28  1  0
 15 29  1  0
 16 30  1  0
 17 31  1  0
M  CHG  2   7  -1   8  -1
M  END
>  <UniqueID>  (65) 
61

>  <SMILES>  (65) 
CCC=Cc1c([O-])[n-]c(=O)n(-c2ccccc2)c1=O

>  <Energy>  (65) 
47.31764505074529

>  <Genealogy>  (65) 
CCC=Cc1c([O-])[n-]c(=O)n(-c2ccccc2)c1=O (protonated)
CCC=Cc1c([O-])[n-]c(=O)n(-c2ccccc2)c1=O (3D coordinates assigned)
CCC=Cc1c([O-])[n-]c(=O)n(-c2ccccc2)c1=O (optimized conformer: 47.31764505074529 kcal/mol)

>  <smiles>  (65) 
CCC=Cc1c(O)[nH]c(=O)n(-c2ccccc2)c1=O

>  <score_type>  (65) 
oracle

>  <origin>  (65) 
adg

>  <m_score__min__energy>  (65) 
-10.210000000000001

>  <m_primary>  (65) 
energy

$$$$
65:0
     RDKit          3D

 60 63  0  0  0  0  0  0  0  0999 V2000
   63.2640   33.9680   46.1780 C   0  0  0  0  0  0  0  0  0  0  0  0
   62.6970   33.3710   47.3880 N   0  0  0  0  0  0  0  0  0  0  0  0
   63.1100   32.0150   47.7790 C   0  0  0  0  0  0  0  0  0  0  0  0
   63.7420   32.0160   49.1440 C   0  0  0  0  0  0  0  0  0  0  0  0
   63.1980   31.2500   50.1900 C   0  0  0  0  0  0  0  0  0  0  0  0
   63.7740   31.2870   51.4620 C   0  0  0  0  0  0  0  0  0  0  0  0
   64.9090   32.0730   51.6920 C   0  0  0  0  0  0  0  0  0  0  0  0
   65.4660   32.8210   50.6540 C   0  0  0  0  0  0  0  0  0  0  0  0
   66.5760   33.5670   50.8740 F   0  0  0  0  0  0  0  0  0  0  0  0
   64.8810   32.7980   49.3860 C   0  0  0  0  0  0  0  0  0  0  0  0
   61.5080   33.9480   47.9570 C   0  0  0  0  0  0  0  0  0  0  0  0
   61.5270   34.3500   49.1540 O   0  0  0  0  0  0  0  0  0  0  0  0
   60.2470   33.9630   47.1880 C   0  0  0  0  0  0  0  0  0  0  0  0
   60.2470   34.6320   46.0010 N   0  0  0  0  0  0  0  0  0  0  0  0
   59.1480   34.7150   45.2100 C   0  0  0  0  0  0  0  0  0  0  0  0
   57.9620   34.1060   45.6020 C   0  0  0  0  0  0  0  0  0  0  0  0
   57.9170   33.4140   46.8120 C   0  0  0  0  0  0  0  0  0  0  0  0
   59.0570   33.3250   47.6270 C   0  0  0  0  0  0  0  0  0  0  0  0
   58.9390   32.6280   48.9710 C   0  0  0  0  0  0  0  0  0  0  0  0
   58.7600   31.1100   48.7920 C   0  0  0  0  0  0  0  0  0  0  0  0
   60.0910   30.3670   48.5120 C   0  0  1  0  0  0  0  0  0  0  0  0
   60.4490   29.3750   49.6690 C   0  0  0  0  0  0  0  0  0  0  0  0
   60.4390   28.0420   49.0230 C   0  0  0  0  0  0  0  0  0  0  0  0
   60.6420   26.9440   49.6110 O   0  0  0  0  0  0  0  0  0  0  0  0
   60.2160   28.1900   47.6160 C   0  0  0  0  0  0  0  0  0  0  0  0
   60.2100   27.2470   46.7790 O   0  0  0  0  0  0  0  0  0  0  0  0
   59.9990   29.5520   47.2860 N   0  0  0  0  0  0  0  0  0  0  0  0
   60.1440   30.0700   45.9240 C   0  0  0  0  0  0  0  0  0  0  0  0
   58.8010   30.1510   45.2450 C   0  0  0  0  0  0  0  0  0  0  0  0
   58.5370   31.1760   44.3230 C   0  0  0  0  0  0  0  0  0  0  0  0
   57.2820   31.2790   43.7150 C   0  0  0  0  0  0  0  0  0  0  0  0
   56.2780   30.3620   44.0300 C   0  0  0  0  0  0  0  0  0  0  0  0
   56.5280   29.3380   44.9450 C   0  0  0  0  0  0  0  0  0  0  0  0
   55.5280   28.4270   45.2550 O   0  0  0  0  0  0  0  0  0  0  0  0
   57.7830   29.2300   45.5520 C   0  0  0  0  0  0  0  0  0  0  0  0
   63.9965   34.7393   46.4583 H   0  0  0  0  0  0  0  0  0  0  0  0
   63.7621   33.1882   45.5831 H   0  0  0  0  0  0  0  0  0  0  0  0
   62.4596   34.4252   45.5831 H   0  0  0  0  0  0  0  0  0  0  0  0
   62.2266   31.3598   47.7922 H   0  0  0  0  0  0  0  0  0  0  0  0
   63.8496   31.6505   47.0509 H   0  0  0  0  0  0  0  0  0  0  0  0
   62.3157   30.6194   50.0060 H   0  0  0  0  0  0  0  0  0  0  0  0
   63.3360   30.6990   52.2821 H   0  0  0  0  0  0  0  0  0  0  0  0
   65.3631   32.1012   52.6935 H   0  0  0  0  0  0  0  0  0  0  0  0
   65.3161   33.3967   48.5722 H   0  0  0  0  0  0  0  0  0  0  0  0
   59.1957   35.2644   44.2582 H   0  0  0  0  0  0  0  0  0  0  0  0
   57.0678   34.1691   44.9644 H   0  0  0  0  0  0  0  0  0  0  0  0
   56.9802   32.9337   47.1308 H   0  0  0  0  0  0  0  0  0  0  0  0
   59.8520   32.8160   49.5550 H   0  0  0  0  0  0  0  0  0  0  0  0
   58.0572   33.0251   49.4952 H   0  0  0  0  0  0  0  0  0  0  0  0
   58.3171   30.6994   49.7114 H   0  0  0  0  0  0  0  0  0  0  0  0
   58.1107   30.9584   47.9171 H   0  0  0  0  0  0  0  0  0  0  0  0
   60.8578   31.1496   48.4140 H   0  0  0  0  0  0  0  0  0  0  0  0
   61.4432   29.6005   50.0822 H   0  0  0  0  0  0  0  0  0  0  0  0
   59.7447   29.4395   50.5115 H   0  0  0  0  0  0  0  0  0  0  0  0
   60.5906   31.0745   45.9642 H   0  0  0  0  0  0  0  0  0  0  0  0
   60.7919   29.3899   45.3515 H   0  0  0  0  0  0  0  0  0  0  0  0
   59.3238   31.9042   44.0768 H   0  0  0  0  0  0  0  0  0  0  0  0
   57.0862   32.0820   42.9891 H   0  0  0  0  0  0  0  0  0  0  0  0
   55.2886   30.4464   43.5567 H   0  0  0  0  0  0  0  0  0  0  0  0
   57.9751   28.4214   46.2726 H   0  0  0  0  0  0  0  0  0  0  0  0
  1  2  1  0
  2  3  1  0
  3  4  1  0
  4  5  2  0
  5  6  1  0
  6  7  2  0
  7  8  1  0
  8  9  1  0
  8 10  2  0
  2 11  1  0
 11 12  2  0
 11 13  1  0
 13 14  2  0
 14 15  1  0
 15 16  2  0
 16 17  1  0
 17 18  2  0
 18 19  1  0
 19 20  1  0
 20 21  1  0
 21 22  1  0
 22 23  1  0
 23 24  2  0
 23 25  1  0
 25 26  2  0
 25 27  1  0
 27 28  1  0
 28 29  1  0
 29 30  2  0
 30 31  1  0
 31 32  2  0
 32 33  1  0
 33 34  1  0
 33 35  2  0
 10  4  1  0
 18 13  1  0
 27 21  1  0
 35 29  1  0
  1 36  1  0
  1 37  1  0
  1 38  1  0
  3 39  1  0
  3 40  1  0
  5 41  1  0
  6 42  1  0
  7 43  1  0
 10 44  1  0
 15 45  1  0
 16 46  1  0
 17 47  1  0
 19 48  1  0
 19 49  1  0
 20 50  1  0
 20 51  1  0
 21 52  1  6
 22 53  1  0
 22 54  1  0
 28 55  1  0
 28 56  1  0
 30 57  1  0
 31 58  1  0
 32 59  1  0
 35 60  1  0
M  CHG  1  34  -1
M  END
>  <UniqueID>  (66) 
62

>  <SMILES>  (66) 
CN(Cc1cccc(F)c1)C(=O)c1ncccc1CC[C@H]1CC(=O)C(=O)N1Cc1cccc([O-])c1

>  <Energy>  (66) 
79.60630646220858

>  <Genealogy>  (66) 
CN(Cc1cccc(F)c1)C(=O)c1ncccc1CCC1CC(=O)C(=O)N1Cc1cccc([O-])c1 (protonated)
CN(Cc1cccc(F)c1)C(=O)c1ncccc1CC[C@H]1CC(=O)C(=O)N1Cc1cccc([O-])c1 (chirality)
CN(Cc1cccc(F)c1)C(=O)c1ncccc1CC[C@H]1CC(=O)C(=O)N1Cc1cccc([O-])c1 (3D coordinates assigned)
CN(Cc1cccc(F)c1)C(=O)c1ncccc1CC[C@H]1CC(=O)C(=O)N1Cc1cccc([O-])c1 (nonaromatic ring conformer: 79.60630646220858 kcal/mol)

>  <smiles>  (66) 
CN(Cc1cccc(F)c1)C(=O)c1ncccc1CCC1CC(=O)C(=O)N1Cc1cccc(O)c1

>  <score_type>  (66) 
oracle

>  <origin>  (66) 
adg

>  <m_score__min__energy>  (66) 
-13.869999999999999

>  <m_primary>  (66) 
energy

$$$$
66:0
     RDKit          3D

 74 78  0  0  0  0  0  0  0  0999 V2000
   54.4320   30.3823   44.0632 H   0  0  0  0  0  0  0  0  0  0  0  0
   55.4120   30.0070   44.3930 C   0  0  0  0  0  0  0  0  0  0  0  0
   55.5270   28.7370   44.8680 N   0  0  0  0  0  0  0  0  0  0  0  0
   56.7170   28.2350   45.2890 C   0  0  0  0  0  0  0  0  0  0  0  0
   56.7950   26.8990   45.7050 C   0  0  0  0  0  0  0  0  0  0  0  0
   55.8789   26.2938   45.7718 H   0  0  0  0  0  0  0  0  0  0  0  0
   58.0290   26.3290   46.0360 C   0  0  0  0  0  0  0  0  0  0  0  0
   58.0890   24.9600   46.3130 O   0  0  0  0  0  0  0  0  0  0  0  0
   57.8710   23.9420   45.3690 C   0  0  0  0  0  0  0  0  0  0  0  0
   56.7410   24.0200   44.5420 C   0  0  0  0  0  0  0  0  0  0  0  0
   56.0498   24.8703   44.6373 H   0  0  0  0  0  0  0  0  0  0  0  0
   56.4900   23.0210   43.5970 C   0  0  0  0  0  0  0  0  0  0  0  0
   55.5944   23.0802   42.9610 H   0  0  0  0  0  0  0  0  0  0  0  0
   57.3730   21.9480   43.4580 C   0  0  0  0  0  0  0  0  0  0  0  0
   57.1740   21.1658   42.7106 H   0  0  0  0  0  0  0  0  0  0  0  0
   58.5110   21.8670   44.2690 C   0  0  0  0  0  0  0  0  0  0  0  0
   59.2021   21.0178   44.1630 H   0  0  0  0  0  0  0  0  0  0  0  0
   58.7700   22.8650   45.2140 C   0  0  0  0  0  0  0  0  0  0  0  0
   59.6750   22.8105   45.8369 H   0  0  0  0  0  0  0  0  0  0  0  0
   59.1740   27.1430   46.0740 C   0  0  0  0  0  0  0  0  0  0  0  0
   60.1322   26.7215   46.4120 H   0  0  0  0  0  0  0  0  0  0  0  0
   59.1050   28.4830   45.6860 C   0  0  0  0  0  0  0  0  0  0  0  0
   60.0090   29.1089   45.7174 H   0  0  0  0  0  0  0  0  0  0  0  0
   57.8820   29.0380   45.2540 C   0  0  0  0  0  0  0  0  0  0  0  0
   57.7900   30.3590   44.7580 C   0  0  0  0  0  0  0  0  0  0  0  0
   58.8690   31.0910   44.6970 N   0  0  0  0  0  0  0  0  0  0  0  0
   59.3060   32.1390   45.6190 C   0  0  0  0  0  0  0  0  0  0  0  0
   60.2005   32.6309   45.2091 H   0  0  0  0  0  0  0  0  0  0  0  0
   59.5352   31.6811   46.5926 H   0  0  0  0  0  0  0  0  0  0  0  0
   58.2010   33.1840   45.8130 C   0  0  0  0  0  0  0  0  0  0  0  0
   57.2273   32.7102   45.6194 H   0  0  0  0  0  0  0  0  0  0  0  0
   58.3903   34.0102   45.1119 H   0  0  0  0  0  0  0  0  0  0  0  0
   58.1950   33.7700   47.2500 C   0  0  0  0  0  0  0  0  0  0  0  0
   57.1544   33.9522   47.5567 H   0  0  0  0  0  0  0  0  0  0  0  0
   58.7724   34.7063   47.2417 H   0  0  0  0  0  0  0  0  0  0  0  0
   58.8550   32.8040   48.2630 C   0  0  0  0  0  0  0  0  0  0  0  0
   59.8136   32.4689   47.8402 H   0  0  0  0  0  0  0  0  0  0  0  0
   58.1370   31.9855   48.4200 H   0  0  0  0  0  0  0  0  0  0  0  0
   59.1200   33.3840   49.5990 N   0  0  0  0  0  0  0  0  0  0  0  0
   60.4240   34.0610   49.7290 C   0  0  0  0  0  0  0  0  0  0  0  0
   60.3100   35.1201   49.4545 H   0  0  0  0  0  0  0  0  0  0  0  0
   60.7668   33.9716   50.7704 H   0  0  0  0  0  0  0  0  0  0  0  0
   61.4490   33.4220   48.8240 C   0  0  0  0  0  0  0  0  0  0  0  0
   61.7170   33.9780   47.5610 C   0  0  0  0  0  0  0  0  0  0  0  0
   61.1618   34.8665   47.2260 H   0  0  0  0  0  0  0  0  0  0  0  0
   62.6860   33.4080   46.7270 C   0  0  0  0  0  0  0  0  0  0  0  0
   62.8920   33.8484   45.7403 H   0  0  0  0  0  0  0  0  0  0  0  0
   63.3920   32.2770   47.1510 C   0  0  0  0  0  0  0  0  0  0  0  0
   64.1726   31.8434   46.5086 H   0  0  0  0  0  0  0  0  0  0  0  0
   63.1060   31.6980   48.3900 C   0  0  0  0  0  0  0  0  0  0  0  0
   63.6434   30.7926   48.7086 H   0  0  0  0  0  0  0  0  0  0  0  0
   62.1390   32.2650   49.2270 C   0  0  0  0  0  0  0  0  0  0  0  0
   61.9182   31.8051   50.2016 H   0  0  0  0  0  0  0  0  0  0  0  0
   58.7310   32.2950   50.9230 S   0  0  0  0  0  0  0  0  0  0  0  0
   58.7210   33.0400   52.2280 O   0  0  0  0  0  0  0  0  0  0  0  0
   57.3240   31.8140   50.7140 O   0  0  0  0  0  0  0  0  0  0  0  0
   59.8080   30.8660   51.0130 C   0  0  0  0  0  0  0  0  0  0  0  0
   59.7980   29.7980   50.0650 C   0  0  0  0  0  0  0  0  0  0  0  0
   58.8800   29.7230   48.8730 C   0  0  0  0  0  0  0  0  0  0  0  0
   57.8386   29.6379   49.2170 H   0  0  0  0  0  0  0  0  0  0  0  0
   58.9924   30.6333   48.2658 H   0  0  0  0  0  0  0  0  0  0  0  0
   59.1386   28.8430   48.2658 H   0  0  0  0  0  0  0  0  0  0  0  0
   60.6230   28.6820   50.2810 C   0  0  0  0  0  0  0  0  0  0  0  0
   60.6050   27.8421   49.5709 H   0  0  0  0  0  0  0  0  0  0  0  0
   61.4650   28.6340   51.3920 C   0  0  0  0  0  0  0  0  0  0  0  0
   62.3150   27.4300   51.6560 C   0  0  0  0  0  0  0  0  0  0  0  0
   62.4177   27.2845   52.7415 H   0  0  0  0  0  0  0  0  0  0  0  0
   61.8422   26.5425   51.2102 H   0  0  0  0  0  0  0  0  0  0  0  0
   63.3096   27.5785   51.2102 H   0  0  0  0  0  0  0  0  0  0  0  0
   61.4710   29.6620   52.2730 N   0  0  0  0  0  0  0  0  0  0  0  0
   60.6840   30.7550   52.1190 C   0  0  0  0  0  0  0  0  0  0  0  0
   60.7360   31.6570   52.9970 O   0  0  0  0  0  0  0  0  0  0  0  0
   56.5320   30.8340   44.3230 C   0  0  0  0  0  0  0  0  0  0  0  0
   56.4366   31.8566   43.9291 H   0  0  0  0  0  0  0  0  0  0  0  0
  1  2  1  0
  2  3  1  0
  3  4  1  0
  4  5  2  0
  5  6  1  0
  5  7  1  0
  7  8  1  0
  8  9  1  0
  9 10  2  0
 10 11  1  0
 10 12  1  0
 12 13  1  0
 12 14  2  0
 14 15  1  0
 14 16  1  0
 16 17  1  0
 16 18  2  0
 18 19  1  0
  7 20  2  0
 20 21  1  0
 20 22  1  0
 22 23  1  0
 22 24  2  0
 24 25  1  0
 25 26  2  0
 26 27  1  0
 27 28  1  0
 27 29  1  0
 27 30  1  0
 30 31  1  0
 30 32  1  0
 30 33  1  0
 33 34  1  0
 33 35  1  0
 33 36  1  0
 36 37  1  0
 36 38  1  0
 36 39  1  0
 39 40  1  0
 40 41  1  0
 40 42  1  0
 40 43  1  0
 43 44  2  0
 44 45  1  0
 44 46  1  0
 46 47  1  0
 46 48  2  0
 48 49  1  0
 48 50  1  0
 50 51  1  0
 50 52  2  0
 52 53  1  0
 39 54  1  0
 54 55  2  0
 54 56  2  0
 54 57  1  0
 57 58  2  0
 58 59  1  0
 59 60  1  0
 59 61  1  0
 59 62  1  0
 58 63  1  0
 63 64  1  0
 63 65  2  0
 65 66  1  0
 66 67  1  0
 66 68  1  0
 66 69  1  0
 65 70  1  0
 70 71  1  0
 71 72  2  0
 25 73  1  0
 73 74  1  0
 73  2  2  0
 24  4  1  0
 52 43  1  0
 71 57  1  0
 18  9  1  0
M  CHG  2   3  -1  70  -1
M  END
>  <UniqueID>  (67) 
63

>  <SMILES>  (67) 
Cc1cc(C)c(S(=O)(=O)N(CCCC/N=c2\cc[n-]c3cc(Oc4ccccc4)ccc23)Cc2ccccc2)c(=O)[n-]1

>  <Energy>  (67) 
105.47987555907783

>  <Genealogy>  (67) 
Cc1cc(C)c(S(=O)(=O)N(CCCCN=c2cc[n-]c3cc(Oc4ccccc4)ccc23)Cc2ccccc2)c(=O)[n-]1 (protonated)
Cc1cc(C)c(S(=O)(=O)N(CCCC/N=c2\cc[n-]c3cc(Oc4ccccc4)ccc23)Cc2ccccc2)c(=O)[n-]1 (cis-trans isomerization)
Cc1cc(C)c(S(=O)(=O)N(CCCC/N=c2\cc[n-]c3cc(Oc4ccccc4)ccc23)Cc2ccccc2)c(=O)[n-]1 (3D coordinates assigned)
Cc1cc(C)c(S(=O)(=O)N(CCCC/N=c2\cc[n-]c3cc(Oc4ccccc4)ccc23)Cc2ccccc2)c(=O)[n-]1 (optimized conformer: 105.47987555907783 kcal/mol)

>  <smiles>  (67) 
Cc1cc(C)c(S(=O)(=O)N(CCCCN=c2cc[nH]c3cc(Oc4ccccc4)ccc23)Cc2ccccc2)c(=O)[nH]1

>  <score_type>  (67) 
oracle

>  <origin>  (67) 
adg

>  <m_score__min__energy>  (67) 
-14.18

>  <m_primary>  (67) 
energy

$$$$
67:0
     RDKit          3D

 61 64  0  0  0  0  0  0  0  0999 V2000
   59.6190   34.1450   51.4100 N   0  0  0  0  0  0  0  0  0  0  0  0
   59.7190   32.9660   50.1500 S   0  0  0  0  0  0  0  0  0  0  0  0
   58.5200   33.0810   49.2500 O   0  0  0  0  0  0  0  0  0  0  0  0
   59.7270   31.6010   50.7800 O   0  0  0  0  0  0  0  0  0  0  0  0
   61.1980   33.2060   49.2060 C   0  0  0  0  0  0  0  0  0  0  0  0
   62.3590   33.6420   49.8660 C   0  0  0  0  0  0  0  0  0  0  0  0
   63.5350   33.8830   49.1520 C   0  0  0  0  0  0  0  0  0  0  0  0
   63.5660   33.6950   47.7700 C   0  0  0  0  0  0  0  0  0  0  0  0
   62.4250   33.2550   47.0990 C   0  0  0  0  0  0  0  0  0  0  0  0
   61.2380   32.9950   47.8050 C   0  0  0  0  0  0  0  0  0  0  0  0
   60.0690   32.4990   47.0510 C   0  0  0  0  0  0  0  0  0  0  0  0
   59.5010   33.2830   46.0380 C   0  0  0  0  0  0  0  0  0  0  0  0
   58.3960   32.8160   45.3200 C   0  0  0  0  0  0  0  0  0  0  0  0
   57.8640   31.5410   45.5880 C   0  0  0  0  0  0  0  0  0  0  0  0
   56.7180   31.0340   44.8870 N   0  0  0  0  0  0  0  0  0  0  0  0
   56.3420   29.6600   44.7490 C   0  0  0  0  0  0  0  0  0  0  0  0
   55.1390   29.3390   44.9340 O   0  0  0  0  0  0  0  0  0  0  0  0
   57.3360   28.6520   44.5170 N   0  0  0  0  0  0  0  0  0  0  0  0
   57.4890   27.4150   45.2290 C   0  0  0  0  0  0  0  0  0  0  0  0
   58.7450   26.9350   45.6330 C   0  0  0  0  0  0  0  0  0  0  0  0
   58.8460   25.7380   46.3450 C   0  0  0  0  0  0  0  0  0  0  0  0
   57.6930   25.0020   46.6780 C   0  0  0  0  0  0  0  0  0  0  0  0
   57.7600   23.8210   47.4380 O   0  0  0  0  0  0  0  0  0  0  0  0
   57.0070   23.5450   48.6170 C   0  0  0  0  0  0  0  0  0  0  0  0
   56.2980   22.2300   48.5000 C   0  0  0  0  0  0  0  0  0  0  0  0
   54.9470   22.1750   48.0400 N   0  0  0  0  0  0  0  0  0  0  0  0
   56.9070   21.1620   48.7790 O   0  0  0  0  0  0  0  0  0  0  0  0
   56.4310   25.4780   46.2580 C   0  0  0  0  0  0  0  0  0  0  0  0
   55.2170   24.7690   46.5510 N   0  0  0  0  0  0  0  0  0  0  0  0
   54.6460   23.7090   45.7700 C   0  0  0  0  0  0  0  0  0  0  0  0
   53.4130   23.4760   45.8790 O   0  0  0  0  0  0  0  0  0  0  0  0
   55.4550   22.9090   44.8190 C   0  0  0  0  0  0  0  0  0  0  0  0
   55.8070   23.4450   43.5690 C   0  0  0  0  0  0  0  0  0  0  0  0
   56.5550   22.6900   42.6600 C   0  0  0  0  0  0  0  0  0  0  0  0
   56.9670   21.3980   42.9960 C   0  0  0  0  0  0  0  0  0  0  0  0
   56.6380   20.8620   44.2440 C   0  0  0  0  0  0  0  0  0  0  0  0
   55.8910   21.6140   45.1560 C   0  0  0  0  0  0  0  0  0  0  0  0
   56.3400   26.6950   45.5720 C   0  0  0  0  0  0  0  0  0  0  0  0
   58.4290   30.7640   46.6100 C   0  0  0  0  0  0  0  0  0  0  0  0
   57.9170   29.5410   46.8970 F   0  0  0  0  0  0  0  0  0  0  0  0
   59.5320   31.2330   47.3270 C   0  0  0  0  0  0  0  0  0  0  0  0
   58.9570   34.8850   51.0870 H   0  0  0  0  0  0  0  0  0  0  0  0
   62.3417   33.7950   50.9552 H   0  0  0  0  0  0  0  0  0  0  0  0
   64.4384   34.2217   49.6804 H   0  0  0  0  0  0  0  0  0  0  0  0
   64.4910   33.8939   47.2090 H   0  0  0  0  0  0  0  0  0  0  0  0
   62.4545   33.1104   46.0089 H   0  0  0  0  0  0  0  0  0  0  0  0
   59.9265   34.2706   45.8066 H   0  0  0  0  0  0  0  0  0  0  0  0
   57.9408   33.4474   44.5428 H   0  0  0  0  0  0  0  0  0  0  0  0
   59.6536   27.5044   45.3876 H   0  0  0  0  0  0  0  0  0  0  0  0
   59.8359   25.3666   46.6486 H   0  0  0  0  0  0  0  0  0  0  0  0
   57.6879   23.5120   49.4803 H   0  0  0  0  0  0  0  0  0  0  0  0
   56.2575   24.3390   48.7506 H   0  0  0  0  0  0  0  0  0  0  0  0
   54.4340   23.0490   47.7860 H   0  0  0  0  0  0  0  0  0  0  0  0
   54.4560   21.2570   47.9550 H   0  0  0  0  0  0  0  0  0  0  0  0
   55.4923   24.4650   43.3036 H   0  0  0  0  0  0  0  0  0  0  0  0
   56.8191   23.1137   41.6798 H   0  0  0  0  0  0  0  0  0  0  0  0
   57.5504   20.8026   42.2782 H   0  0  0  0  0  0  0  0  0  0  0  0
   56.9673   19.8466   44.5094 H   0  0  0  0  0  0  0  0  0  0  0  0
   55.6431   21.1916   46.1410 H   0  0  0  0  0  0  0  0  0  0  0  0
   55.3506   27.0906   45.2988 H   0  0  0  0  0  0  0  0  0  0  0  0
   59.9816   30.6067   48.1116 H   0  0  0  0  0  0  0  0  0  0  0  0
  1  2  1  0
  2  3  2  0
  2  4  2  0
  2  5  1  0
  5  6  2  0
  6  7  1  0
  7  8  2  0
  8  9  1  0
  9 10  2  0
 10 11  1  0
 11 12  2  0
 12 13  1  0
 13 14  2  0
 14 15  1  0
 15 16  1  0
 16 17  2  0
 16 18  1  0
 18 19  1  0
 19 20  2  0
 20 21  1  0
 21 22  2  0
 22 23  1  0
 23 24  1  0
 24 25  1  0
 25 26  1  0
 25 27  2  0
 22 28  1  0
 28 29  1  0
 29 30  1  0
 30 31  2  0
 30 32  1  0
 32 33  2  0
 33 34  1  0
 34 35  2  0
 35 36  1  0
 36 37  2  0
 28 38  2  0
 14 39  1  0
 39 40  1  0
 39 41  2  0
 10  5  1  0
 41 11  1  0
 38 19  1  0
 37 32  1  0
  1 42  1  0
  6 43  1  0
  7 44  1  0
  8 45  1  0
  9 46  1  0
 12 47  1  0
 13 48  1  0
 20 49  1  0
 21 50  1  0
 24 51  1  0
 24 52  1  0
 26 53  1  0
 26 54  1  0
 33 55  1  0
 34 56  1  0
 35 57  1  0
 36 58  1  0
 37 59  1  0
 38 60  1  0
 41 61  1  0
M  CHG  4   1  -1  15  -1  18  -1  29  -1
M  END
>  <UniqueID>  (68) 
64

>  <SMILES>  (68) 
[NH-]S(=O)(=O)c1ccccc1-c1ccc([N-]C(=O)[N-]c2ccc(OCC(N)=O)c([N-]C(=O)c3ccccc3)c2)c(F)c1

>  <Energy>  (68) 
86.47866722232366

>  <Genealogy>  (68) 
[NH-]S(=O)(=O)c1ccccc1-c1ccc([N-]C(=O)[N-]c2ccc(OCC(N)=O)c([N-]C(=O)c3ccccc3)c2)c(F)c1 (protonated)
[NH-]S(=O)(=O)c1ccccc1-c1ccc([N-]C(=O)[N-]c2ccc(OCC(N)=O)c([N-]C(=O)c3ccccc3)c2)c(F)c1 (3D coordinates assigned)
[NH-]S(=O)(=O)c1ccccc1-c1ccc([N-]C(=O)[N-]c2ccc(OCC(N)=O)c([N-]C(=O)c3ccccc3)c2)c(F)c1 (optimized conformer: 86.47866722232366 kcal/mol)

>  <smiles>  (68) 
NC(=O)COc1ccc(NC(=O)Nc2ccc(-c3ccccc3S(N)(=O)=O)cc2F)cc1NC(=O)c1ccccc1

>  <score_type>  (68) 
oracle

>  <origin>  (68) 
adg

>  <m_score__min__energy>  (68) 
-15.279999999999999

>  <m_primary>  (68) 
energy

$$$$
68:0
     RDKit          3D

 58 61  0  0  0  0  0  0  0  0999 V2000
   63.4530   32.9230   52.2400 C   0  0  0  0  0  0  0  0  0  0  0  0
   62.9040   33.1330   50.8630 C   0  0  0  0  0  0  0  0  0  0  0  0
   63.8850   33.1260   49.4920 S   0  0  0  0  0  0  0  0  0  0  0  0
   62.6420   33.4620   48.4330 C   0  0  0  0  0  0  0  0  0  0  0  0
   62.7640   33.6020   47.0960 N   0  0  0  0  0  0  0  0  0  0  0  0
   61.6620   33.8840   46.3560 C   0  0  0  0  0  0  0  0  0  0  0  0
   60.4340   34.0250   46.9510 N   0  0  0  0  0  0  0  0  0  0  0  0
   59.2660   34.3470   46.1160 C   0  0  0  0  0  0  0  0  0  0  0  0
   58.5300   33.0930   45.7530 C   0  0  0  0  0  0  0  0  0  0  0  0
   57.3160   33.1640   45.4210 O   0  0  0  0  0  0  0  0  0  0  0  0
   59.2070   31.8270   45.7730 N   0  0  0  0  0  0  0  0  0  0  0  0
   58.5310   30.5620   45.8560 C   0  0  0  0  0  0  0  0  0  0  0  0
   58.7440   29.6900   46.9370 C   0  0  0  0  0  0  0  0  0  0  0  0
   58.1060   28.4470   46.9810 C   0  0  0  0  0  0  0  0  0  0  0  0
   57.2470   28.0480   45.9400 C   0  0  0  0  0  0  0  0  0  0  0  0
   56.5690   26.7310   45.9830 C   0  0  0  0  0  0  0  0  0  0  0  0
   55.1450   26.6500   45.9660 N   0  0  0  0  0  0  0  0  0  0  0  0
   57.2450   25.6680   46.0360 O   0  0  0  0  0  0  0  0  0  0  0  0
   57.0500   28.9170   44.8520 C   0  0  0  0  0  0  0  0  0  0  0  0
   57.6930   30.1570   44.8080 C   0  0  0  0  0  0  0  0  0  0  0  0
   60.3040   33.8990   48.3170 C   0  0  0  0  0  0  0  0  0  0  0  0
   59.1780   34.0600   48.8510 O   0  0  0  0  0  0  0  0  0  0  0  0
   61.4360   33.5980   49.0980 C   0  0  0  0  0  0  0  0  0  0  0  0
   61.5670   33.4120   50.5040 C   0  0  0  0  0  0  0  0  0  0  0  0
   60.2520   33.4930   51.7150 S   0  0  0  0  0  0  0  0  0  0  0  0
   59.2720   34.5730   51.3540 O   0  0  0  0  0  0  0  0  0  0  0  0
   60.8380   33.8840   53.0410 O   0  0  0  0  0  0  0  0  0  0  0  0
   59.4260   31.9600   51.9350 N   0  0  0  0  0  0  0  0  0  0  0  0
   58.8730   31.4610   50.6550 C   0  0  0  0  0  0  0  0  0  0  0  0
   57.8060   30.3860   50.8830 C   0  0  0  0  0  0  0  0  0  0  0  0
   56.5960   30.9720   51.6520 C   0  0  0  0  0  0  0  0  0  0  0  0
   55.8520   29.8620   52.4050 C   0  0  0  0  0  0  0  0  0  0  0  0
   57.0140   32.1190   52.6060 C   0  0  0  0  0  0  0  0  0  0  0  0
   58.4700   31.9600   53.0660 C   0  0  0  0  0  0  0  0  0  0  0  0
   62.6966   33.2123   52.9844 H   0  0  0  0  0  0  0  0  0  0  0  0
   63.7120   31.8623   52.3737 H   0  0  0  0  0  0  0  0  0  0  0  0
   64.3538   33.5401   52.3737 H   0  0  0  0  0  0  0  0  0  0  0  0
   61.7545   34.0009   45.2661 H   0  0  0  0  0  0  0  0  0  0  0  0
   58.5932   35.0150   46.6738 H   0  0  0  0  0  0  0  0  0  0  0  0
   59.6077   34.8428   45.1954 H   0  0  0  0  0  0  0  0  0  0  0  0
   60.2480   31.8240   45.6780 H   0  0  0  0  0  0  0  0  0  0  0  0
   59.4174   29.9875   47.7543 H   0  0  0  0  0  0  0  0  0  0  0  0
   58.2766   27.7757   47.8356 H   0  0  0  0  0  0  0  0  0  0  0  0
   54.5720   27.0910   46.7190 H   0  0  0  0  0  0  0  0  0  0  0  0
   56.3843   28.6182   44.0288 H   0  0  0  0  0  0  0  0  0  0  0  0
   57.5402   30.8205   43.9440 H   0  0  0  0  0  0  0  0  0  0  0  0
   58.4212   32.3024   50.1091 H   0  0  0  0  0  0  0  0  0  0  0  0
   59.6945   31.0133   50.0764 H   0  0  0  0  0  0  0  0  0  0  0  0
   57.4647   30.0035   49.9098 H   0  0  0  0  0  0  0  0  0  0  0  0
   58.2446   29.5725   51.4796 H   0  0  0  0  0  0  0  0  0  0  0  0
   55.9099   31.4105   50.9124 H   0  0  0  0  0  0  0  0  0  0  0  0
   55.9576   30.0196   53.4885 H   0  0  0  0  0  0  0  0  0  0  0  0
   54.7864   29.8852   52.1332 H   0  0  0  0  0  0  0  0  0  0  0  0
   56.2785   28.8851   52.1332 H   0  0  0  0  0  0  0  0  0  0  0  0
   56.9073   33.0792   52.0800 H   0  0  0  0  0  0  0  0  0  0  0  0
   56.3644   32.0866   53.4931 H   0  0  0  0  0  0  0  0  0  0  0  0
   58.7201   32.7932   53.7392 H   0  0  0  0  0  0  0  0  0  0  0  0
   58.5551   30.9887   53.5752 H   0  0  0  0  0  0  0  0  0  0  0  0
  1  2  1  0
  2  3  1  0
  3  4  1  0
  4  5  1  0
  5  6  2  0
  6  7  1  0
  7  8  1  0
  8  9  1  0
  9 10  2  0
  9 11  1  0
 11 12  1  0
 12 13  2  0
 13 14  1  0
 14 15  2  0
 15 16  1  0
 16 17  1  0
 16 18  2  0
 15 19  1  0
 19 20  2  0
  7 21  1  0
 21 22  2  0
 21 23  1  0
 23 24  1  0
 24 25  1  0
 25 26  2  0
 25 27  2  0
 25 28  1  0
 28 29  1  0
 29 30  1  0
 30 31  1  0
 31 32  1  0
 31 33  1  0
 33 34  1  0
 24  2  2  0
 34 28  1  0
 23  4  2  0
 20 12  1  0
  1 35  1  0
  1 36  1  0
  1 37  1  0
  6 38  1  0
  8 39  1  0
  8 40  1  0
 11 41  1  0
 13 42  1  0
 14 43  1  0
 17 44  1  0
 19 45  1  0
 20 46  1  0
 29 47  1  0
 29 48  1  0
 30 49  1  0
 30 50  1  0
 31 51  1  0
 32 52  1  0
 32 53  1  0
 32 54  1  0
 33 55  1  0
 33 56  1  0
 34 57  1  0
 34 58  1  0
M  CHG  1  17  -1
M  END
>  <UniqueID>  (69) 
65

>  <SMILES>  (69) 
Cc1sc2ncn(CC(=O)Nc3ccc(C([NH-])=O)cc3)c(=O)c2c1S(=O)(=O)N1CCC(C)CC1

>  <Energy>  (69) 
108.23525745581009

>  <Genealogy>  (69) 
Cc1sc2ncn(CC(=O)Nc3ccc(C([NH-])=O)cc3)c(=O)c2c1S(=O)(=O)N1CCC(C)CC1 (protonated)
Cc1sc2ncn(CC(=O)Nc3ccc(C([NH-])=O)cc3)c(=O)c2c1S(=O)(=O)N1CCC(C)CC1 (3D coordinates assigned)
Cc1sc2ncn(CC(=O)Nc3ccc(C([NH-])=O)cc3)c(=O)c2c1S(=O)(=O)N1CCC(C)CC1 (nonaromatic ring conformer: 108.23525745581009 kcal/mol)

>  <smiles>  (69) 
Cc1sc2ncn(CC(=O)Nc3ccc(C(N)=O)cc3)c(=O)c2c1S(=O)(=O)N1CCC(C)CC1

>  <score_type>  (69) 
oracle

>  <origin>  (69) 
adg

>  <m_score__min__energy>  (69) 
-12.109999999999999

>  <m_primary>  (69) 
energy

$$$$
69:0
     RDKit          3D

 36 38  0  0  0  0  0  0  0  0999 V2000
   59.4860   34.5450   48.4570 O   0  0  0  0  0  0  0  0  0  0  0  0
   59.7030   34.3450   47.2320 C   0  0  0  0  0  0  0  0  0  0  0  0
   58.5290   34.1830   46.2990 C   0  0  0  0  0  0  0  0  0  0  0  0
   59.0030   33.9250   44.8620 C   0  0  0  0  0  0  0  0  0  0  0  0
   58.1720   32.8590   44.2190 C   0  0  0  0  0  0  0  0  0  0  0  0
   57.4010   31.9200   44.8720 C   0  0  0  0  0  0  0  0  0  0  0  0
   56.8600   31.1810   43.8410 C   0  0  0  0  0  0  0  0  0  0  0  0
   55.9480   30.0400   43.9830 C   0  0  0  0  0  0  0  0  0  0  0  0
   55.1930   29.7210   43.0250 O   0  0  0  0  0  0  0  0  0  0  0  0
   55.9990   29.2360   45.1710 N   0  0  0  0  0  0  0  0  0  0  0  0
   56.7280   28.1870   45.4340 C   0  0  0  0  0  0  0  0  0  0  0  0
   58.0810   28.3370   45.3890 N   0  0  0  0  0  0  0  0  0  0  0  0
   58.9410   27.3180   45.6410 C   0  0  0  0  0  0  0  0  0  0  0  0
   58.4520   26.0580   45.9740 C   0  0  0  0  0  0  0  0  0  0  0  0
   57.0750   25.8670   46.0650 C   0  0  0  0  0  0  0  0  0  0  0  0
   56.1960   26.9250   45.8100 C   0  0  0  0  0  0  0  0  0  0  0  0
   54.8350   26.7110   45.9880 O   0  0  0  0  0  0  0  0  0  0  0  0
   57.2980   31.6580   42.6570 N   0  0  0  0  0  0  0  0  0  0  0  0
   58.0840   32.6600   42.9240 O   0  0  0  0  0  0  0  0  0  0  0  0
   61.0610   34.2420   46.7780 N   0  0  0  0  0  0  0  0  0  0  0  0
   61.9880   33.1830   47.1690 C   0  0  0  0  0  0  0  0  0  0  0  0
   63.4220   33.4670   46.7460 C   0  0  0  0  0  0  0  0  0  0  0  0
   63.0120   33.6200   48.2100 C   0  0  0  0  0  0  0  0  0  0  0  0
   57.9170   33.3328   46.6345 H   0  0  0  0  0  0  0  0  0  0  0  0
   57.9383   35.1108   46.3130 H   0  0  0  0  0  0  0  0  0  0  0  0
   58.9143   34.8538   44.2794 H   0  0  0  0  0  0  0  0  0  0  0  0
   60.0510   33.5919   44.8876 H   0  0  0  0  0  0  0  0  0  0  0  0
   57.2533   31.7916   45.9544 H   0  0  0  0  0  0  0  0  0  0  0  0
   60.0262   27.4880   45.5820 H   0  0  0  0  0  0  0  0  0  0  0  0
   59.1438   25.2239   46.1628 H   0  0  0  0  0  0  0  0  0  0  0  0
   56.6767   24.8789   46.3389 H   0  0  0  0  0  0  0  0  0  0  0  0
   61.2946   32.3347   47.0718 H   0  0  0  0  0  0  0  0  0  0  0  0
   64.0802   32.6395   46.4427 H   0  0  0  0  0  0  0  0  0  0  0  0
   63.8982   34.1193   45.9992 H   0  0  0  0  0  0  0  0  0  0  0  0
   63.3742   32.9025   48.9610 H   0  0  0  0  0  0  0  0  0  0  0  0
   63.0697   34.4275   48.9547 H   0  0  0  0  0  0  0  0  0  0  0  0
  1  2  2  0
  2  3  1  0
  3  4  1  0
  4  5  1  0
  5  6  2  0
  6  7  1  0
  7  8  1  0
  8  9  2  0
  8 10  1  0
 10 11  2  3
 11 12  1  0
 12 13  1  0
 13 14  2  0
 14 15  1  0
 15 16  2  0
 16 17  1  0
  7 18  2  0
 18 19  1  0
  2 20  1  0
 20 21  1  0
 21 22  1  0
 22 23  1  0
 19  5  1  0
 23 21  1  0
 16 11  1  0
  3 24  1  0
  3 25  1  0
  4 26  1  0
  4 27  1  0
  6 28  1  0
 13 29  1  0
 14 30  1  0
 15 31  1  0
 21 32  1  0
 22 33  1  0
 22 34  1  0
 23 35  1  0
 23 36  1  0
M  CHG  3  12  -1  17  -1  20  -1
M  END
>  <UniqueID>  (70) 
66

>  <SMILES>  (70) 
O=C(CCc1cc(C(=O)N=c2[n-]cccc2[O-])no1)[N-]C1CC1

>  <Energy>  (70) 
339.11686474490955

>  <Genealogy>  (70) 
O=C(CCc1cc(C(=O)N=c2[n-]cccc2[O-])no1)[N-]C1CC1 (protonated)
O=C(CCc1cc(C(=O)N=c2[n-]cccc2[O-])no1)[N-]C1CC1 (3D coordinates assigned)
O=C(CCc1cc(C(=O)N=c2[n-]cccc2[O-])no1)[N-]C1CC1 (nonaromatic ring conformer: 339.11686474490955 kcal/mol)

>  <smiles>  (70) 
O=C(CCc1cc(C(=O)N=c2[nH]cccc2O)no1)NC1CC1

>  <score_type>  (70) 
oracle

>  <origin>  (70) 
adg

>  <m_score__min__energy>  (70) 
-13.699999999999999

>  <m_primary>  (70) 
energy

$$$$
70:0
     RDKit          3D

 44 46  0  0  0  0  0  0  0  0999 V2000
   61.1220   28.9340   44.5420 O   0  0  0  0  0  0  0  0  0  0  0  0
   60.1360   29.2000   45.6450 S   0  0  0  0  0  0  0  0  0  0  0  0
   60.0090   27.9580   46.4820 O   0  0  0  0  0  0  0  0  0  0  0  0
   60.7880   30.4610   46.6610 N   0  0  0  0  0  0  0  0  0  0  0  0
   59.7630   31.1590   47.4510 C   0  0  0  0  0  0  0  0  0  0  0  0
   59.1810   32.3460   46.7190 C   0  0  0  0  0  0  0  0  0  0  0  0
   57.7850   32.4790   46.6240 C   0  0  0  0  0  0  0  0  0  0  0  0
   57.2230   33.5860   45.9820 C   0  0  0  0  0  0  0  0  0  0  0  0
   58.0470   34.5790   45.4510 C   0  0  0  0  0  0  0  0  0  0  0  0
   59.4350   34.4650   45.5490 C   0  0  0  0  0  0  0  0  0  0  0  0
   60.0160   33.3390   46.1630 C   0  0  0  0  0  0  0  0  0  0  0  0
   61.4090   33.2160   46.2880 O   0  0  0  0  0  0  0  0  0  0  0  0
   62.1650   33.4150   47.4530 C   0  0  0  0  0  0  0  0  0  0  0  0
   63.4870   32.9520   47.5900 C   0  0  0  0  0  0  0  0  0  0  0  0
   64.1760   33.1290   48.7940 C   0  0  0  0  0  0  0  0  0  0  0  0
   63.5530   33.7660   49.8700 C   0  0  0  0  0  0  0  0  0  0  0  0
   62.2390   34.2260   49.7440 C   0  0  0  0  0  0  0  0  0  0  0  0
   61.5490   34.0480   48.5410 C   0  0  0  0  0  0  0  0  0  0  0  0
   58.5710   29.6130   44.9000 C   0  0  0  0  0  0  0  0  0  0  0  0
   58.5290   30.6890   43.9980 C   0  0  0  0  0  0  0  0  0  0  0  0
   57.3200   31.1230   43.4560 C   0  0  0  0  0  0  0  0  0  0  0  0
   56.1360   30.4710   43.7830 C   0  0  0  0  0  0  0  0  0  0  0  0
   56.1620   29.3510   44.6120 C   0  0  0  0  0  0  0  0  0  0  0  0
   57.3770   28.8690   45.1440 C   0  0  0  0  0  0  0  0  0  0  0  0
   57.3580   27.5790   45.9450 C   0  0  0  0  0  0  0  0  0  0  0  0
   58.2260   26.6600   45.3890 F   0  0  0  0  0  0  0  0  0  0  0  0
   56.0820   27.0470   45.9780 F   0  0  0  0  0  0  0  0  0  0  0  0
   57.7450   27.7940   47.2570 F   0  0  0  0  0  0  0  0  0  0  0  0
   61.2530   31.1610   46.0390 H   0  0  0  0  0  0  0  0  0  0  0  0
   58.9515   30.4525   47.6799 H   0  0  0  0  0  0  0  0  0  0  0  0
   60.2427   31.5325   48.3677 H   0  0  0  0  0  0  0  0  0  0  0  0
   57.1313   31.7077   47.0573 H   0  0  0  0  0  0  0  0  0  0  0  0
   56.1300   33.6745   45.8952 H   0  0  0  0  0  0  0  0  0  0  0  0
   57.6020   35.4536   44.9540 H   0  0  0  0  0  0  0  0  0  0  0  0
   60.0787   35.2598   45.1440 H   0  0  0  0  0  0  0  0  0  0  0  0
   63.9807   32.4484   46.7458 H   0  0  0  0  0  0  0  0  0  0  0  0
   65.2097   32.7663   48.8939 H   0  0  0  0  0  0  0  0  0  0  0  0
   64.0963   33.9056   50.8162 H   0  0  0  0  0  0  0  0  0  0  0  0
   61.7481   34.7278   50.5909 H   0  0  0  0  0  0  0  0  0  0  0  0
   60.5137   34.4079   48.4478 H   0  0  0  0  0  0  0  0  0  0  0  0
   59.4632   31.1963   43.7153 H   0  0  0  0  0  0  0  0  0  0  0  0
   57.3026   31.9820   42.7691 H   0  0  0  0  0  0  0  0  0  0  0  0
   55.1782   30.8396   43.3870 H   0  0  0  0  0  0  0  0  0  0  0  0
   55.2215   28.8350   44.8553 H   0  0  0  0  0  0  0  0  0  0  0  0
  1  2  2  0
  2  3  2  0
  2  4  1  0
  4  5  1  0
  5  6  1  0
  6  7  2  0
  7  8  1  0
  8  9  2  0
  9 10  1  0
 10 11  2  0
 11 12  1  0
 12 13  1  0
 13 14  2  0
 14 15  1  0
 15 16  2  0
 16 17  1  0
 17 18  2  0
  2 19  1  0
 19 20  2  0
 20 21  1  0
 21 22  2  0
 22 23  1  0
 23 24  2  0
 24 25  1  0
 25 26  1  0
 25 27  1  0
 25 28  1  0
 11  6  1  0
 18 13  1  0
 24 19  1  0
  4 29  1  0
  5 30  1  0
  5 31  1  0
  7 32  1  0
  8 33  1  0
  9 34  1  0
 10 35  1  0
 14 36  1  0
 15 37  1  0
 16 38  1  0
 17 39  1  0
 18 40  1  0
 20 41  1  0
 21 42  1  0
 22 43  1  0
 23 44  1  0
M  END
>  <UniqueID>  (71) 
67

>  <SMILES>  (71) 
O=S(=O)(NCc1ccccc1Oc1ccccc1)c1ccccc1C(F)(F)F

>  <Energy>  (71) 
55.18443268518868

>  <Genealogy>  (71) 
O=S(=O)(NCc1ccccc1Oc1ccccc1)c1ccccc1C(F)(F)F (3D coordinates assigned)
O=S(=O)(NCc1ccccc1Oc1ccccc1)c1ccccc1C(F)(F)F (optimized conformer: 55.18443268518868 kcal/mol)

>  <smiles>  (71) 
O=S(=O)(NCc1ccccc1Oc1ccccc1)c1ccccc1C(F)(F)F

>  <score_type>  (71) 
oracle

>  <origin>  (71) 
adg

>  <m_score__min__energy>  (71) 
-8.3800000000000008

>  <m_primary>  (71) 
energy

$$$$
71:0
     RDKit          3D

 40 42  0  0  0  0  0  0  0  0999 V2000
   60.2940   33.2040   49.6640 C   0  0  0  0  0  0  0  0  0  0  0  0
   59.3320   32.1560   49.7020 O   0  0  0  0  0  0  0  0  0  0  0  0
   59.6800   30.8120   49.5470 C   0  0  0  0  0  0  0  0  0  0  0  0
   58.7910   29.9290   49.4010 O   0  0  0  0  0  0  0  0  0  0  0  0
   61.1240   30.4230   49.5330 C   0  0  0  0  0  0  0  0  0  0  0  0
   61.9020   30.9030   47.9530 S   0  0  0  0  0  0  0  0  0  0  0  0
   60.4000   30.7360   46.9880 C   0  0  0  0  0  0  0  0  0  0  0  0
   59.7780   31.8740   46.4500 C   0  0  0  0  0  0  0  0  0  0  0  0
   58.6220   31.6720   45.7050 C   0  0  0  0  0  0  0  0  0  0  0  0
   57.8790   32.6090   45.0950 N   0  0  0  0  0  0  0  0  0  0  0  0
   56.8960   31.9820   44.4600 N   0  0  0  0  0  0  0  0  0  0  0  0
   57.0110   30.6490   44.6630 C   0  0  0  0  0  0  0  0  0  0  0  0
   56.1590   29.6770   43.9610 C   0  0  0  0  0  0  0  0  0  0  0  0
   56.4950   29.2100   42.8420 O   0  0  0  0  0  0  0  0  0  0  0  0
   54.9260   29.3320   44.4980 O   0  0  0  0  0  0  0  0  0  0  0  0
   58.1080   30.4230   45.4860 C   0  0  0  0  0  0  0  0  0  0  0  0
   58.7110   29.2960   46.0740 C   0  0  0  0  0  0  0  0  0  0  0  0
   58.1170   27.9480   46.0520 C   0  0  0  0  0  0  0  0  0  0  0  0
   56.7250   27.7990   46.0370 C   0  0  0  0  0  0  0  0  0  0  0  0
   56.1520   26.5250   45.9770 C   0  0  0  0  0  0  0  0  0  0  0  0
   54.7680   26.3980   45.9780 O   0  0  0  0  0  0  0  0  0  0  0  0
   56.9710   25.3850   45.9150 C   0  0  0  0  0  0  0  0  0  0  0  0
   56.4150   24.1080   45.8600 O   0  0  0  0  0  0  0  0  0  0  0  0
   58.3680   25.5240   45.9050 C   0  0  0  0  0  0  0  0  0  0  0  0
   59.1550   24.3630   45.8410 O   0  0  0  0  0  0  0  0  0  0  0  0
   58.8520   23.2280   45.0350 C   0  0  0  0  0  0  0  0  0  0  0  0
   58.9360   26.8120   45.9600 C   0  0  0  0  0  0  0  0  0  0  0  0
   59.8550   29.4960   46.7970 N   0  0  0  0  0  0  0  0  0  0  0  0
   60.5606   33.4944   50.6909 H   0  0  0  0  0  0  0  0  0  0  0  0
   61.1942   32.8565   49.1359 H   0  0  0  0  0  0  0  0  0  0  0  0
   59.8708   34.0712   49.1359 H   0  0  0  0  0  0  0  0  0  0  0  0
   61.6430   30.9292   50.3603 H   0  0  0  0  0  0  0  0  0  0  0  0
   61.1989   29.3317   49.6486 H   0  0  0  0  0  0  0  0  0  0  0  0
   60.1878   32.8820   46.6111 H   0  0  0  0  0  0  0  0  0  0  0  0
   56.0789   28.6886   46.0726 H   0  0  0  0  0  0  0  0  0  0  0  0
   55.4140   23.9570   45.8210 H   0  0  0  0  0  0  0  0  0  0  0  0
   58.6227   22.3690   45.6827 H   0  0  0  0  0  0  0  0  0  0  0  0
   57.9819   23.4510   44.4000 H   0  0  0  0  0  0  0  0  0  0  0  0
   59.7174   22.9877   44.4000 H   0  0  0  0  0  0  0  0  0  0  0  0
   60.0295   26.9282   45.9306 H   0  0  0  0  0  0  0  0  0  0  0  0
  1  2  1  0
  2  3  1  0
  3  4  2  0
  3  5  1  0
  5  6  1  0
  6  7  1  0
  7  8  2  0
  8  9  1  0
  9 10  1  0
 10 11  1  0
 11 12  2  0
 12 13  1  0
 13 14  2  0
 13 15  1  0
 12 16  1  0
 16 17  1  0
 17 18  1  0
 18 19  2  0
 19 20  1  0
 20 21  1  0
 20 22  2  0
 22 23  1  0
 22 24  1  0
 24 25  1  0
 25 26  1  0
 24 27  2  0
 17 28  2  0
 28  7  1  0
 16  9  2  0
 27 18  1  0
  1 29  1  0
  1 30  1  0
  1 31  1  0
  5 32  1  0
  5 33  1  0
  8 34  1  0
 19 35  1  0
 23 36  1  0
 26 37  1  0
 26 38  1  0
 26 39  1  0
 27 40  1  0
M  CHG  3  10  -1  15  -1  21  -1
M  END
>  <UniqueID>  (72) 
68

>  <SMILES>  (72) 
COC(=O)CSc1cc2[n-]nc(C(=O)[O-])c2c(-c2cc([O-])c(O)c(OC)c2)n1

>  <Energy>  (72) 
83.55063121412665

>  <Genealogy>  (72) 
COC(=O)CSc1cc2[n-]nc(C(=O)[O-])c2c(-c2cc([O-])c(O)c(OC)c2)n1 (protonated)
COC(=O)CSc1cc2[n-]nc(C(=O)[O-])c2c(-c2cc([O-])c(O)c(OC)c2)n1 (3D coordinates assigned)
COC(=O)CSc1cc2[n-]nc(C(=O)[O-])c2c(-c2cc([O-])c(O)c(OC)c2)n1 (optimized conformer: 83.55063121412665 kcal/mol)

>  <smiles>  (72) 
COC(=O)CSc1cc2[nH]nc(C(=O)O)c2c(-c2cc(O)c(O)c(OC)c2)n1

>  <score_type>  (72) 
oracle

>  <origin>  (72) 
adg

>  <m_score__min__energy>  (72) 
-12.81

>  <m_primary>  (72) 
energy

$$$$
72:0
     RDKit          3D

 37 38  0  0  0  0  0  0  0  0999 V2000
   60.1280   29.0350   46.2980 C   0  0  0  0  0  0  0  0  0  0  0  0
   59.9820   29.6080   44.8910 C   0  0  0  0  0  0  0  0  0  0  0  0
   58.6770   30.2670   44.7170 N   0  0  0  0  0  0  0  0  0  0  0  0
   57.5850   29.5240   44.0670 C   0  0  0  0  0  0  0  0  0  0  0  0
   56.6990   28.8450   45.0810 C   0  0  0  0  0  0  0  0  0  0  0  0
   55.4720   29.1240   45.1180 O   0  0  0  0  0  0  0  0  0  0  0  0
   57.2450   28.0220   46.1200 N   0  0  0  0  0  0  0  0  0  0  0  0
   57.2960   26.5880   46.1270 C   0  0  0  0  0  0  0  0  0  0  0  0
   58.5270   25.9130   46.0700 C   0  0  0  0  0  0  0  0  0  0  0  0
   58.5660   24.5170   46.0340 C   0  0  0  0  0  0  0  0  0  0  0  0
   57.3780   23.7850   46.0360 C   0  0  0  0  0  0  0  0  0  0  0  0
   56.1480   24.4470   46.0610 C   0  0  0  0  0  0  0  0  0  0  0  0
   56.0990   25.8460   46.0970 C   0  0  0  0  0  0  0  0  0  0  0  0
   54.8540   26.4750   46.1130 O   0  0  0  0  0  0  0  0  0  0  0  0
   58.4490   31.6080   45.2120 C   0  0  0  0  0  0  0  0  0  0  0  0
   58.5660   31.8910   46.5860 C   0  0  0  0  0  0  0  0  0  0  0  0
   58.3390   33.1840   47.0670 C   0  0  0  0  0  0  0  0  0  0  0  0
   57.9950   34.2100   46.1850 C   0  0  0  0  0  0  0  0  0  0  0  0
   57.8780   33.9440   44.8190 C   0  0  0  0  0  0  0  0  0  0  0  0
   58.1040   32.6530   44.3320 C   0  0  0  0  0  0  0  0  0  0  0  0
   59.9270   29.8238   47.0378 H   0  0  0  0  0  0  0  0  0  0  0  0
   59.4108   28.2123   46.4351 H   0  0  0  0  0  0  0  0  0  0  0  0
   61.1514   28.6559   46.4351 H   0  0  0  0  0  0  0  0  0  0  0  0
   60.7813   30.3438   44.7186 H   0  0  0  0  0  0  0  0  0  0  0  0
   60.0535   28.7811   44.1691 H   0  0  0  0  0  0  0  0  0  0  0  0
   56.9785   30.2251   43.4748 H   0  0  0  0  0  0  0  0  0  0  0  0
   58.0290   28.7504   43.4233 H   0  0  0  0  0  0  0  0  0  0  0  0
   59.4652   26.4870   46.0536 H   0  0  0  0  0  0  0  0  0  0  0  0
   59.5336   23.9946   46.0041 H   0  0  0  0  0  0  0  0  0  0  0  0
   57.4100   22.6856   46.0179 H   0  0  0  0  0  0  0  0  0  0  0  0
   55.2136   23.8666   46.0524 H   0  0  0  0  0  0  0  0  0  0  0  0
   54.7490   27.4640   46.3050 H   0  0  0  0  0  0  0  0  0  0  0  0
   58.8383   31.0882   47.2870 H   0  0  0  0  0  0  0  0  0  0  0  0
   58.4317   33.3934   48.1429 H   0  0  0  0  0  0  0  0  0  0  0  0
   57.8163   35.2265   46.5654 H   0  0  0  0  0  0  0  0  0  0  0  0
   57.6072   34.7526   44.1241 H   0  0  0  0  0  0  0  0  0  0  0  0
   58.0118   32.4517   43.2545 H   0  0  0  0  0  0  0  0  0  0  0  0
  1  2  1  0
  2  3  1  0
  3  4  1  0
  4  5  1  0
  5  6  2  0
  5  7  1  0
  7  8  1  0
  8  9  2  0
  9 10  1  0
 10 11  2  0
 11 12  1  0
 12 13  2  0
 13 14  1  0
  3 15  1  0
 15 16  2  0
 16 17  1  0
 17 18  2  0
 18 19  1  0
 19 20  2  0
 13  8  1  0
 20 15  1  0
  1 21  1  0
  1 22  1  0
  1 23  1  0
  2 24  1  0
  2 25  1  0
  4 26  1  0
  4 27  1  0
  9 28  1  0
 10 29  1  0
 11 30  1  0
 12 31  1  0
 14 32  1  0
 16 33  1  0
 17 34  1  0
 18 35  1  0
 19 36  1  0
 20 37  1  0
M  CHG  1   7  -1
M  END
>  <UniqueID>  (73) 
69

>  <SMILES>  (73) 
CCN(CC(=O)[N-]c1ccccc1O)c1ccccc1

>  <Energy>  (73) 
43.45602839830803

>  <Genealogy>  (73) 
CCN(CC(=O)[N-]c1ccccc1O)c1ccccc1 (protonated)
CCN(CC(=O)[N-]c1ccccc1O)c1ccccc1 (3D coordinates assigned)
CCN(CC(=O)[N-]c1ccccc1O)c1ccccc1 (optimized conformer: 43.45602839830803 kcal/mol)

>  <smiles>  (73) 
CCN(CC(=O)Nc1ccccc1O)c1ccccc1

>  <score_type>  (73) 
oracle

>  <origin>  (73) 
adg

>  <m_score__min__energy>  (73) 
-10.02

>  <m_primary>  (73) 
energy

$$$$
73:0
     RDKit          3D

 31 33  0  0  0  0  0  0  0  0999 V2000
   56.6290   30.4920   45.6480 H   0  0  0  0  0  0  0  0  0  0  0  0
   56.8160   31.3680   45.1830 O   0  0  0  0  0  0  0  0  0  0  0  0
   57.8140   32.2570   45.5880 C   0  0  0  0  0  0  0  0  0  0  0  0
   57.4960   33.6190   45.5890 C   0  0  0  0  0  0  0  0  0  0  0  0
   56.4553   33.9369   45.4284 H   0  0  0  0  0  0  0  0  0  0  0  0
   58.4880   34.5760   45.7920 C   0  0  0  0  0  0  0  0  0  0  0  0
   58.2368   35.6469   45.7926 H   0  0  0  0  0  0  0  0  0  0  0  0
   59.8010   34.1600   45.9940 C   0  0  0  0  0  0  0  0  0  0  0  0
   60.6033   34.9045   46.1042 H   0  0  0  0  0  0  0  0  0  0  0  0
   60.0910   32.8350   46.0550 N   0  0  0  0  0  0  0  0  0  0  0  0
   59.1470   31.8660   45.9090 C   0  0  0  0  0  0  0  0  0  0  0  0
   59.5260   30.6320   46.1030 N   0  0  0  0  0  0  0  0  0  0  0  0
   58.7270   29.4570   46.2950 C   0  0  0  0  0  0  0  0  0  0  0  0
   58.1270   29.2980   47.3910 O   0  0  0  0  0  0  0  0  0  0  0  0
   58.4350   28.5290   45.1520 C   0  0  0  0  0  0  0  0  0  0  0  0
   58.0947   29.1133   44.2844 H   0  0  0  0  0  0  0  0  0  0  0  0
   59.3488   27.9758   44.8894 H   0  0  0  0  0  0  0  0  0  0  0  0
   57.3640   27.5580   45.5500 C   0  0  0  0  0  0  0  0  0  0  0  0
   55.9920   27.7710   45.5520 C   0  0  0  0  0  0  0  0  0  0  0  0
   55.3800   28.9790   45.2400 O   0  0  0  0  0  0  0  0  0  0  0  0
   55.2980   26.6570   45.8830 N   0  0  0  0  0  0  0  0  0  0  0  0
   56.2510   25.7260   46.0820 C   0  0  0  0  0  0  0  0  0  0  0  0
   56.0480   24.3910   46.4290 C   0  0  0  0  0  0  0  0  0  0  0  0
   55.0342   23.9946   46.5870 H   0  0  0  0  0  0  0  0  0  0  0  0
   57.1790   23.5660   46.5710 C   0  0  0  0  0  0  0  0  0  0  0  0
   57.0522   22.5086   46.8462 H   0  0  0  0  0  0  0  0  0  0  0  0
   58.4750   24.0850   46.3630 C   0  0  0  0  0  0  0  0  0  0  0  0
   59.3510   23.4293   46.4754 H   0  0  0  0  0  0  0  0  0  0  0  0
   58.6530   25.4350   46.0130 C   0  0  0  0  0  0  0  0  0  0  0  0
   59.6577   25.8509   45.8471 H   0  0  0  0  0  0  0  0  0  0  0  0
   57.5140   26.2300   45.8830 C   0  0  0  0  0  0  0  0  0  0  0  0
  1  2  1  0
  2  3  1  0
  3  4  2  0
  4  5  1  0
  4  6  1  0
  6  7  1  0
  6  8  2  0
  8  9  1  0
  8 10  1  0
 10 11  1  0
 11 12  2  0
 12 13  1  0
 13 14  2  0
 13 15  1  0
 15 16  1  0
 15 17  1  0
 15 18  1  0
 18 19  2  0
 19 20  1  0
 19 21  1  0
 21 22  1  0
 22 23  2  0
 23 24  1  0
 23 25  1  0
 25 26  1  0
 25 27  2  0
 27 28  1  0
 27 29  1  0
 29 30  1  0
 29 31  2  0
 11  3  1  0
 31 18  1  0
 31 22  1  0
M  CHG  3  10  -1  20  -1  21  -1
M  END
>  <UniqueID>  (74) 
70

>  <SMILES>  (74) 
O=C(Cc1c([O-])[n-]c2ccccc12)/N=c1/[n-]cccc1O

>  <Energy>  (74) 
81.90756495044893

>  <Genealogy>  (74) 
O=C(Cc1c([O-])[n-]c2ccccc12)N=c1[n-]cccc1O (protonated)
O=C(Cc1c([O-])[n-]c2ccccc12)/N=c1/[n-]cccc1O (cis-trans isomerization)
O=C(Cc1c([O-])[n-]c2ccccc12)/N=c1/[n-]cccc1O (3D coordinates assigned)
O=C(Cc1c([O-])[n-]c2ccccc12)/N=c1/[n-]cccc1O (optimized conformer: 81.90756495044893 kcal/mol)

>  <smiles>  (74) 
O=C(Cc1c(O)[nH]c2ccccc12)N=c1[nH]cccc1O

>  <score_type>  (74) 
oracle

>  <origin>  (74) 
adg

>  <m_score__min__energy>  (74) 
-14.56

>  <m_primary>  (74) 
energy

$$$$
74:0
     RDKit          3D

 53 56  0  0  0  0  0  0  0  0999 V2000
   54.0450   28.9630   52.4230 O   0  0  0  0  0  0  0  0  0  0  0  0
   54.2380   30.0240   51.7690 C   0  0  0  0  0  0  0  0  0  0  0  0
   53.1750   30.5280   50.8450 C   0  0  0  0  0  0  0  0  0  0  0  0
   52.1060   31.2210   51.6300 C   0  0  0  0  0  0  0  0  0  0  0  0
   51.8130   31.0030   53.2760 S   0  0  0  0  0  0  0  0  0  0  0  0
   50.6260   32.1900   53.3060 C   0  0  0  0  0  0  0  0  0  0  0  0
   49.9770   32.5180   54.3310 O   0  0  0  0  0  0  0  0  0  0  0  0
   50.4420   32.7730   52.1010 N   0  0  0  0  0  0  0  0  0  0  0  0
   51.2730   32.2370   51.1700 C   0  0  0  0  0  0  0  0  0  0  0  0
   51.2890   32.6930   49.8590 O   0  0  0  0  0  0  0  0  0  0  0  0
   55.4740   30.7400   51.8930 N   0  0  0  0  0  0  0  0  0  0  0  0
   56.4550   30.4980   52.9090 C   0  0  0  0  0  0  0  0  0  0  0  0
   56.1680   30.8410   54.2350 C   0  0  0  0  0  0  0  0  0  0  0  0
   57.1080   30.6060   55.2400 C   0  0  0  0  0  0  0  0  0  0  0  0
   58.3370   30.0120   54.9300 C   0  0  0  0  0  0  0  0  0  0  0  0
   58.6230   29.6330   53.6120 C   0  0  0  0  0  0  0  0  0  0  0  0
   60.1620   28.8680   53.2060 S   0  0  0  0  0  0  0  0  0  0  0  0
   60.0330   27.3720   53.2530 O   0  0  0  0  0  0  0  0  0  0  0  0
   61.2000   29.2780   54.2120 O   0  0  0  0  0  0  0  0  0  0  0  0
   60.6980   29.4010   51.6410 N   0  0  0  0  0  0  0  0  0  0  0  0
   60.0310   30.3230   50.7660 C   0  0  0  0  0  0  0  0  0  0  0  0
   59.6990   31.6340   51.1530 C   0  0  0  0  0  0  0  0  0  0  0  0
   59.0670   32.4960   50.2510 C   0  0  0  0  0  0  0  0  0  0  0  0
   58.7510   32.0570   48.9640 C   0  0  0  0  0  0  0  0  0  0  0  0
   59.0520   30.7460   48.5760 C   0  0  0  0  0  0  0  0  0  0  0  0
   58.6300   30.1680   46.9680 S   0  0  0  0  0  0  0  0  0  0  0  0
   57.7560   28.9540   47.1010 O   0  0  0  0  0  0  0  0  0  0  0  0
   59.8640   29.8000   46.1900 O   0  0  0  0  0  0  0  0  0  0  0  0
   57.7630   31.4020   46.1090 N   0  0  0  0  0  0  0  0  0  0  0  0
   57.5200   31.4150   44.6940 C   0  0  0  0  0  0  0  0  0  0  0  0
   58.2190   32.2810   43.8330 C   0  0  0  0  0  0  0  0  0  0  0  0
   57.9570   32.2780   42.4590 C   0  0  0  0  0  0  0  0  0  0  0  0
   57.0050   31.4070   41.9310 C   0  0  0  0  0  0  0  0  0  0  0  0
   56.3080   30.5400   42.7740 C   0  0  0  0  0  0  0  0  0  0  0  0
   56.5540   30.5420   44.1530 C   0  0  0  0  0  0  0  0  0  0  0  0
   55.8240   29.6730   44.9650 O   0  0  0  0  0  0  0  0  0  0  0  0
   59.6870   29.8840   49.4810 C   0  0  0  0  0  0  0  0  0  0  0  0
   57.6740   29.8680   52.6090 C   0  0  0  0  0  0  0  0  0  0  0  0
   53.6190   31.2356   50.1293 H   0  0  0  0  0  0  0  0  0  0  0  0
   52.7337   29.6789   50.3024 H   0  0  0  0  0  0  0  0  0  0  0  0
   55.1990   31.2971   54.4861 H   0  0  0  0  0  0  0  0  0  0  0  0
   56.8822   30.8885   56.2788 H   0  0  0  0  0  0  0  0  0  0  0  0
   59.0800   29.8424   55.7232 H   0  0  0  0  0  0  0  0  0  0  0  0
   59.9373   31.9825   52.1688 H   0  0  0  0  0  0  0  0  0  0  0  0
   58.8182   33.5230   50.5566 H   0  0  0  0  0  0  0  0  0  0  0  0
   58.2649   32.7421   48.2539 H   0  0  0  0  0  0  0  0  0  0  0  0
   58.9766   32.9650   44.2432 H   0  0  0  0  0  0  0  0  0  0  0  0
   58.5028   32.9637   41.7942 H   0  0  0  0  0  0  0  0  0  0  0  0
   56.8031   31.4031   40.8497 H   0  0  0  0  0  0  0  0  0  0  0  0
   55.5610   29.8510   42.3529 H   0  0  0  0  0  0  0  0  0  0  0  0
   55.8880   29.6920   45.9760 H   0  0  0  0  0  0  0  0  0  0  0  0
   59.9176   28.8518   49.1788 H   0  0  0  0  0  0  0  0  0  0  0  0
   57.8856   29.5559   51.5756 H   0  0  0  0  0  0  0  0  0  0  0  0
  1  2  2  0
  2  3  1  0
  3  4  1  0
  4  5  1  0
  5  6  1  0
  6  7  2  0
  6  8  1  0
  8  9  1  0
  9 10  1  0
  2 11  1  0
 11 12  1  0
 12 13  2  0
 13 14  1  0
 14 15  2  0
 15 16  1  0
 16 17  1  0
 17 18  2  0
 17 19  2  0
 17 20  1  0
 20 21  1  0
 21 22  2  0
 22 23  1  0
 23 24  2  0
 24 25  1  0
 25 26  1  0
 26 27  2  0
 26 28  2  0
 26 29  1  0
 29 30  1  0
 30 31  2  0
 31 32  1  0
 32 33  2  0
 33 34  1  0
 34 35  2  0
 35 36  1  0
 25 37  2  0
 16 38  2  0
  9  4  2  0
 38 12  1  0
 37 21  1  0
 35 30  1  0
  3 39  1  0
  3 40  1  0
 13 41  1  0
 14 42  1  0
 15 43  1  0
 22 44  1  0
 23 45  1  0
 24 46  1  0
 31 47  1  0
 32 48  1  0
 33 49  1  0
 34 50  1  0
 36 51  1  0
 37 52  1  0
 38 53  1  0
M  CHG  5   8  -1  10  -1  11  -1  20  -1  29  -1
M  END
>  <UniqueID>  (75) 
71

>  <SMILES>  (75) 
O=C(Cc1sc(=O)[n-]c1[O-])[N-]c1cccc(S(=O)(=O)[N-]c2cccc(S(=O)(=O)[N-]c3ccccc3O)c2)c1

>  <Energy>  (75) 
96.6762465573195

>  <Genealogy>  (75) 
O=C(Cc1sc(=O)[n-]c1[O-])[N-]c1cccc(S(=O)(=O)[N-]c2cccc(S(=O)(=O)[N-]c3ccccc3O)c2)c1 (protonated)
O=C(Cc1sc(=O)[n-]c1[O-])[N-]c1cccc(S(=O)(=O)[N-]c2cccc(S(=O)(=O)[N-]c3ccccc3O)c2)c1 (3D coordinates assigned)
O=C(Cc1sc(=O)[n-]c1[O-])[N-]c1cccc(S(=O)(=O)[N-]c2cccc(S(=O)(=O)[N-]c3ccccc3O)c2)c1 (optimized conformer: 96.6762465573195 kcal/mol)

>  <smiles>  (75) 
O=C(Cc1sc(=O)[nH]c1O)Nc1cccc(S(=O)(=O)Nc2cccc(S(=O)(=O)Nc3ccccc3O)c2)c1

>  <score_type>  (75) 
oracle

>  <origin>  (75) 
adg

>  <m_score__min__energy>  (75) 
-22.66

>  <m_primary>  (75) 
energy

$$$$
75:0
     RDKit          3D

 36 38  0  0  0  0  0  0  0  0999 V2000
   59.4170   28.8890   44.4980 C   0  0  0  0  0  0  0  0  0  0  0  0
   57.9780   29.0930   44.6600 N   0  0  0  0  0  0  0  0  0  0  0  0
   57.2670   30.2130   44.4240 C   0  0  0  0  0  0  0  0  0  0  0  0
   57.9620   31.7850   43.9050 S   0  0  0  0  0  0  0  0  0  0  0  0
   57.1820   32.7510   45.2480 C   0  0  0  0  0  0  0  0  0  0  0  0
   58.2170   33.3590   46.1530 C   0  0  0  0  0  0  0  0  0  0  0  0
   59.0150   34.4260   45.7070 C   0  0  0  0  0  0  0  0  0  0  0  0
   59.9380   35.0240   46.5710 C   0  0  0  0  0  0  0  0  0  0  0  0
   60.0720   34.5600   47.8820 C   0  0  0  0  0  0  0  0  0  0  0  0
   59.2840   33.4970   48.3320 C   0  0  0  0  0  0  0  0  0  0  0  0
   58.3570   32.8990   47.4730 C   0  0  0  0  0  0  0  0  0  0  0  0
   55.9570   30.0310   44.6770 N   0  0  0  0  0  0  0  0  0  0  0  0
   55.8140   28.7770   45.0820 N   0  0  0  0  0  0  0  0  0  0  0  0
   57.0360   28.2100   45.0560 C   0  0  0  0  0  0  0  0  0  0  0  0
   57.2900   26.8220   45.4860 C   0  0  0  0  0  0  0  0  0  0  0  0
   58.6010   26.3250   45.4490 C   0  0  0  0  0  0  0  0  0  0  0  0
   58.8700   25.0110   45.8420 C   0  0  0  0  0  0  0  0  0  0  0  0
   57.8320   24.1870   46.2850 C   0  0  0  0  0  0  0  0  0  0  0  0
   58.1000   22.8790   46.6700 O   0  0  0  0  0  0  0  0  0  0  0  0
   56.5250   24.6790   46.3440 C   0  0  0  0  0  0  0  0  0  0  0  0
   56.2480   25.9980   45.9580 C   0  0  0  0  0  0  0  0  0  0  0  0
   54.9500   26.4970   46.0650 O   0  0  0  0  0  0  0  0  0  0  0  0
   59.8915   28.8217   45.4881 H   0  0  0  0  0  0  0  0  0  0  0  0
   59.5949   27.9567   43.9420 H   0  0  0  0  0  0  0  0  0  0  0  0
   59.8470   29.7352   43.9420 H   0  0  0  0  0  0  0  0  0  0  0  0
   56.5753   33.5550   44.8058 H   0  0  0  0  0  0  0  0  0  0  0  0
   56.5532   32.0734   45.8442 H   0  0  0  0  0  0  0  0  0  0  0  0
   58.9134   34.7923   44.6747 H   0  0  0  0  0  0  0  0  0  0  0  0
   60.5591   35.8605   46.2180 H   0  0  0  0  0  0  0  0  0  0  0  0
   60.7981   35.0316   48.5605 H   0  0  0  0  0  0  0  0  0  0  0  0
   59.3933   33.1304   49.3633 H   0  0  0  0  0  0  0  0  0  0  0  0
   57.7352   32.0656   47.8319 H   0  0  0  0  0  0  0  0  0  0  0  0
   59.4221   26.9730   45.1088 H   0  0  0  0  0  0  0  0  0  0  0  0
   59.8994   24.6253   45.8026 H   0  0  0  0  0  0  0  0  0  0  0  0
   55.7103   24.0285   46.6948 H   0  0  0  0  0  0  0  0  0  0  0  0
   54.7710   27.4630   46.3130 H   0  0  0  0  0  0  0  0  0  0  0  0
  1  2  1  0
  2  3  1  0
  3  4  1  0
  4  5  1  0
  5  6  1  0
  6  7  2  0
  7  8  1  0
  8  9  2  0
  9 10  1  0
 10 11  2  0
  3 12  2  0
 12 13  1  0
 13 14  2  0
 14 15  1  0
 15 16  2  0
 16 17  1  0
 17 18  2  0
 18 19  1  0
 18 20  1  0
 20 21  2  0
 21 22  1  0
 14  2  1  0
 21 15  1  0
 11  6  1  0
  1 23  1  0
  1 24  1  0
  1 25  1  0
  5 26  1  0
  5 27  1  0
  7 28  1  0
  8 29  1  0
  9 30  1  0
 10 31  1  0
 11 32  1  0
 16 33  1  0
 17 34  1  0
 20 35  1  0
 22 36  1  0
M  CHG  1  19  -1
M  END
>  <UniqueID>  (76) 
72

>  <SMILES>  (76) 
Cn1c(SCc2ccccc2)nnc1-c1ccc([O-])cc1O

>  <Energy>  (76) 
73.25438783792634

>  <Genealogy>  (76) 
Cn1c(SCc2ccccc2)nnc1-c1ccc([O-])cc1O (protonated)
Cn1c(SCc2ccccc2)nnc1-c1ccc([O-])cc1O (3D coordinates assigned)
Cn1c(SCc2ccccc2)nnc1-c1ccc([O-])cc1O (optimized conformer: 73.25438783792634 kcal/mol)

>  <smiles>  (76) 
Cn1c(SCc2ccccc2)nnc1-c1ccc(O)cc1O

>  <score_type>  (76) 
oracle

>  <origin>  (76) 
adg

>  <m_score__min__energy>  (76) 
-11.859999999999999

>  <m_primary>  (76) 
energy

$$$$
76:0
     RDKit          3D

 52 55  0  0  0  0  0  0  0  0999 V2000
   56.7920   23.8320   47.7280 H   0  0  0  0  0  0  0  0  0  0  0  0
   57.0310   22.8680   47.6480 O   0  0  0  0  0  0  0  0  0  0  0  0
   56.5590   22.4340   46.4000 C   0  0  0  0  0  0  0  0  0  0  0  0
   57.3943   22.4108   45.6847 H   0  0  0  0  0  0  0  0  0  0  0  0
   56.1288   21.4278   46.5115 H   0  0  0  0  0  0  0  0  0  0  0  0
   55.4760   23.3820   45.8800 C   0  0  0  0  0  0  0  0  0  0  0  0
   55.7143   23.6676   44.8448 H   0  0  0  0  0  0  0  0  0  0  0  0
   54.5063   22.8645   45.9226 H   0  0  0  0  0  0  0  0  0  0  0  0
   55.3980   24.5890   46.7040 N   0  0  0  0  0  0  0  0  0  0  0  0
   56.0860   25.6720   46.5020 C   0  0  0  0  0  0  0  0  0  0  0  0
   55.5530   26.7260   45.8250 N   0  0  0  0  0  0  0  0  0  0  0  0
   56.2850   27.8480   45.6150 C   0  0  0  0  0  0  0  0  0  0  0  0
   55.7630   28.8310   44.9450 N   0  0  0  0  0  0  0  0  0  0  0  0
   56.5020   29.7010   44.0310 C   0  0  0  0  0  0  0  0  0  0  0  0
   57.3233   29.1304   43.5729 H   0  0  0  0  0  0  0  0  0  0  0  0
   55.8145   30.0665   43.2540 H   0  0  0  0  0  0  0  0  0  0  0  0
   57.0690   30.8760   44.7680 C   0  0  0  0  0  0  0  0  0  0  0  0
   56.4820   32.0440   44.8940 O   0  0  0  0  0  0  0  0  0  0  0  0
   57.2360   32.8610   45.5670 N   0  0  0  0  0  0  0  0  0  0  0  0
   56.9680   33.8430   45.8040 H   0  0  0  0  0  0  0  0  0  0  0  0
   58.3680   32.2100   45.8990 C   0  0  0  0  0  0  0  0  0  0  0  0
   59.4850   32.7900   46.6910 C   0  0  0  0  0  0  0  0  0  0  0  0
   59.3120   33.9910   47.4050 C   0  0  0  0  0  0  0  0  0  0  0  0
   58.3491   34.5206   47.3573 H   0  0  0  0  0  0  0  0  0  0  0  0
   60.3560   34.5160   48.1750 C   0  0  0  0  0  0  0  0  0  0  0  0
   60.2125   35.4569   48.7265 H   0  0  0  0  0  0  0  0  0  0  0  0
   61.5810   33.8460   48.2440 C   0  0  0  0  0  0  0  0  0  0  0  0
   62.3979   34.2556   48.8563 H   0  0  0  0  0  0  0  0  0  0  0  0
   61.7680   32.6570   47.5360 C   0  0  0  0  0  0  0  0  0  0  0  0
   62.7331   32.1319   47.5899 H   0  0  0  0  0  0  0  0  0  0  0  0
   60.7310   32.1330   46.7590 C   0  0  0  0  0  0  0  0  0  0  0  0
   60.8880   31.2010   46.1962 H   0  0  0  0  0  0  0  0  0  0  0  0
   58.2990   30.9210   45.3930 C   0  0  0  0  0  0  0  0  0  0  0  0
   59.0495   30.1207   45.4713 H   0  0  0  0  0  0  0  0  0  0  0  0
   57.5530   27.9230   46.1020 N   0  0  0  0  0  0  0  0  0  0  0  0
   58.0920   26.8770   46.7840 C   0  0  0  0  0  0  0  0  0  0  0  0
   59.2900   26.9460   47.2820 N   0  0  0  0  0  0  0  0  0  0  0  0
   60.1640   28.1190   47.2060 C   0  0  0  0  0  0  0  0  0  0  0  0
   61.2101   27.7823   47.1572 H   0  0  0  0  0  0  0  0  0  0  0  0
   59.8938   28.6921   46.3068 H   0  0  0  0  0  0  0  0  0  0  0  0
   59.9940   29.0150   48.4050 C   0  0  0  0  0  0  0  0  0  0  0  0
   60.8800   28.9170   49.4930 C   0  0  0  0  0  0  0  0  0  0  0  0
   61.7281   28.2179   49.4489 H   0  0  0  0  0  0  0  0  0  0  0  0
   60.6850   29.7060   50.6300 C   0  0  0  0  0  0  0  0  0  0  0  0
   61.3882   29.6364   51.4730 H   0  0  0  0  0  0  0  0  0  0  0  0
   59.5980   30.5840   50.6990 C   0  0  0  0  0  0  0  0  0  0  0  0
   59.4430   31.1979   51.5985 H   0  0  0  0  0  0  0  0  0  0  0  0
   58.7090   30.6810   49.6250 C   0  0  0  0  0  0  0  0  0  0  0  0
   57.8529   31.3695   49.6807 H   0  0  0  0  0  0  0  0  0  0  0  0
   58.9070   29.9030   48.4790 C   0  0  0  0  0  0  0  0  0  0  0  0
   58.2093   29.9867   47.6327 H   0  0  0  0  0  0  0  0  0  0  0  0
   57.3580   25.7510   46.9710 N   0  0  0  0  0  0  0  0  0  0  0  0
  1  2  1  0
  2  3  1  0
  3  4  1  0
  3  5  1  0
  3  6  1  0
  6  7  1  0
  6  8  1  0
  6  9  1  0
  9 10  2  0
 10 11  1  0
 11 12  1  0
 12 13  2  3
 13 14  1  0
 14 15  1  0
 14 16  1  0
 14 17  1  0
 17 18  1  0
 18 19  1  0
 19 20  1  0
 19 21  2  0
 21 22  1  0
 22 23  2  0
 23 24  1  0
 23 25  1  0
 25 26  1  0
 25 27  2  0
 27 28  1  0
 27 29  1  0
 29 30  1  0
 29 31  2  0
 31 32  1  0
 21 33  1  0
 33 34  1  0
 12 35  1  0
 35 36  1  0
 36 37  2  0
 37 38  1  0
 38 39  1  0
 38 40  1  0
 38 41  1  0
 41 42  2  0
 42 43  1  0
 42 44  1  0
 44 45  1  0
 44 46  2  0
 46 47  1  0
 46 48  1  0
 48 49  1  0
 48 50  2  0
 50 51  1  0
 36 52  1  0
 52 10  1  0
 33 17  2  0
 50 41  1  0
 31 22  1  0
M  CHG  4  11  -1  19   1  35  -1  52  -1
M  END
>  <UniqueID>  (77) 
73

>  <SMILES>  (77) 
OCC/N=c1\[n-]c(=NCc2cc(-c3ccccc3)[nH+]o2)[n-]/c(=N\Cc2ccccc2)[n-]1

>  <Energy>  (77) 
81.98676866068176

>  <Genealogy>  (77) 
OCCN=c1[n-]c(=NCc2ccccc2)[n-]c(=NCc2cc(-c3ccccc3)[nH+]o2)[n-]1 (protonated)
OCC/N=c1\[n-]c(=NCc2cc(-c3ccccc3)[nH+]o2)[n-]/c(=N\Cc2ccccc2)[n-]1 (cis-trans isomerization)
OCC/N=c1\[n-]c(=NCc2cc(-c3ccccc3)[nH+]o2)[n-]/c(=N\Cc2ccccc2)[n-]1 (3D coordinates assigned)
OCC/N=c1\[n-]c(=NCc2cc(-c3ccccc3)[nH+]o2)[n-]/c(=N\Cc2ccccc2)[n-]1 (optimized conformer: 81.98676866068176 kcal/mol)

>  <smiles>  (77) 
OCCN=c1[nH]c(=NCc2ccccc2)[nH]c(=NCc2cc(-c3ccccc3)no2)[nH]1

>  <score_type>  (77) 
oracle

>  <origin>  (77) 
adg

>  <m_score__min__energy>  (77) 
-12.82

>  <m_primary>  (77) 
energy

$$$$
77:0
     RDKit          3D

 50 52  0  0  0  0  0  0  0  0999 V2000
   56.0990   30.0080   52.3820 C   0  0  0  0  0  0  0  0  0  0  0  0
   57.0160   30.7010   51.4640 N   0  0  0  0  0  0  0  0  0  0  0  0
   58.1980   29.8580   51.1880 C   0  0  0  0  0  0  0  0  0  0  0  0
   59.2410   30.6120   50.3370 C   0  0  0  0  0  0  0  0  0  0  0  0
   58.7120   31.9140   49.9020 N   0  0  0  0  0  0  0  0  0  0  0  0
   59.8760   32.7340   48.8900 S   0  0  0  0  0  0  0  0  0  0  0  0
   61.0490   31.8280   48.6340 O   0  0  0  0  0  0  0  0  0  0  0  0
   60.3820   33.9540   49.6080 O   0  0  0  0  0  0  0  0  0  0  0  0
   59.1740   33.2190   47.3440 C   0  0  0  0  0  0  0  0  0  0  0  0
   59.5440   34.4330   46.7530 C   0  0  0  0  0  0  0  0  0  0  0  0
   58.9650   34.8290   45.5450 C   0  0  0  0  0  0  0  0  0  0  0  0
   58.0180   34.0140   44.9180 C   0  0  0  0  0  0  0  0  0  0  0  0
   57.6560   32.7810   45.4890 C   0  0  0  0  0  0  0  0  0  0  0  0
   56.6590   31.9310   44.9050 N   0  0  0  0  0  0  0  0  0  0  0  0
   56.6780   30.5000   44.8400 C   0  0  0  0  0  0  0  0  0  0  0  0
   55.6030   29.8430   44.8540 O   0  0  0  0  0  0  0  0  0  0  0  0
   57.9410   29.8300   44.7700 N   0  0  0  0  0  0  0  0  0  0  0  0
   58.2490   28.5440   45.3230 C   0  0  0  0  0  0  0  0  0  0  0  0
   59.5410   28.2200   45.7730 C   0  0  0  0  0  0  0  0  0  0  0  0
   59.7970   26.9610   46.3240 C   0  0  0  0  0  0  0  0  0  0  0  0
   58.7690   26.0240   46.4450 C   0  0  0  0  0  0  0  0  0  0  0  0
   57.4700   26.3480   46.0310 C   0  0  0  0  0  0  0  0  0  0  0  0
   56.1750   25.1630   46.1660 S   0  0  0  0  0  0  0  0  0  0  0  0
   54.6450   25.9360   45.9410 N   0  0  0  0  0  0  0  0  0  0  0  0
   56.2010   24.5330   47.5320 O   0  0  0  0  0  0  0  0  0  0  0  0
   56.3610   24.1000   45.1200 O   0  0  0  0  0  0  0  0  0  0  0  0
   57.2150   27.6090   45.4740 C   0  0  0  0  0  0  0  0  0  0  0  0
   58.2310   32.3980   46.7090 C   0  0  0  0  0  0  0  0  0  0  0  0
   58.3780   32.7450   51.0720 C   0  0  0  0  0  0  0  0  0  0  0  0
   57.4300   31.9970   52.0340 C   0  0  0  0  0  0  0  0  0  0  0  0
   56.3868   30.2255   53.4212 H   0  0  0  0  0  0  0  0  0  0  0  0
   55.0707   30.3567   52.2056 H   0  0  0  0  0  0  0  0  0  0  0  0
   56.1538   28.9236   52.2056 H   0  0  0  0  0  0  0  0  0  0  0  0
   58.6593   29.5649   52.1426 H   0  0  0  0  0  0  0  0  0  0  0  0
   57.8677   28.9721   50.6258 H   0  0  0  0  0  0  0  0  0  0  0  0
   60.1488   30.7730   50.9371 H   0  0  0  0  0  0  0  0  0  0  0  0
   59.4746   30.0093   49.4470 H   0  0  0  0  0  0  0  0  0  0  0  0
   60.2917   35.0759   47.2405 H   0  0  0  0  0  0  0  0  0  0  0  0
   59.2552   35.7854   45.0856 H   0  0  0  0  0  0  0  0  0  0  0  0
   57.5544   34.3383   43.9747 H   0  0  0  0  0  0  0  0  0  0  0  0
   60.3520   28.9586   45.6913 H   0  0  0  0  0  0  0  0  0  0  0  0
   60.8121   26.7076   46.6635 H   0  0  0  0  0  0  0  0  0  0  0  0
   58.9791   25.0297   46.8660 H   0  0  0  0  0  0  0  0  0  0  0  0
   54.7930   26.7120   45.2570 H   0  0  0  0  0  0  0  0  0  0  0  0
   56.1951   27.8671   45.1527 H   0  0  0  0  0  0  0  0  0  0  0  0
   57.9395   31.4440   47.1727 H   0  0  0  0  0  0  0  0  0  0  0  0
   59.3044   33.0004   51.6073 H   0  0  0  0  0  0  0  0  0  0  0  0
   57.8707   33.6554   50.7200 H   0  0  0  0  0  0  0  0  0  0  0  0
   57.9497   31.8214   52.9875 H   0  0  0  0  0  0  0  0  0  0  0  0
   56.5329   32.6134   52.1929 H   0  0  0  0  0  0  0  0  0  0  0  0
  1  2  1  0
  2  3  1  0
  3  4  1  0
  4  5  1  0
  5  6  1  0
  6  7  2  0
  6  8  2  0
  6  9  1  0
  9 10  2  0
 10 11  1  0
 11 12  2  0
 12 13  1  0
 13 14  1  0
 14 15  1  0
 15 16  2  0
 15 17  1  0
 17 18  1  0
 18 19  2  0
 19 20  1  0
 20 21  2  0
 21 22  1  0
 22 23  1  0
 23 24  1  0
 23 25  2  0
 23 26  2  0
 22 27  2  0
 13 28  2  0
  5 29  1  0
 29 30  1  0
 30  2  1  0
 28  9  1  0
 27 18  1  0
  1 31  1  0
  1 32  1  0
  1 33  1  0
  3 34  1  0
  3 35  1  0
  4 36  1  0
  4 37  1  0
 10 38  1  0
 11 39  1  0
 12 40  1  0
 19 41  1  0
 20 42  1  0
 21 43  1  0
 24 44  1  0
 27 45  1  0
 28 46  1  0
 29 47  1  0
 29 48  1  0
 30 49  1  0
 30 50  1  0
M  CHG  3  14  -1  17  -1  24  -1
M  END
>  <UniqueID>  (78) 
74

>  <SMILES>  (78) 
CN1CCN(S(=O)(=O)c2cccc([N-]C(=O)[N-]c3cccc(S([NH-])(=O)=O)c3)c2)CC1

>  <Energy>  (78) 
63.58604411339492

>  <Genealogy>  (78) 
CN1CCN(S(=O)(=O)c2cccc([N-]C(=O)[N-]c3cccc(S([NH-])(=O)=O)c3)c2)CC1 (protonated)
CN1CCN(S(=O)(=O)c2cccc([N-]C(=O)[N-]c3cccc(S([NH-])(=O)=O)c3)c2)CC1 (3D coordinates assigned)
CN1CCN(S(=O)(=O)c2cccc([N-]C(=O)[N-]c3cccc(S([NH-])(=O)=O)c3)c2)CC1 (nonaromatic ring conformer: 63.58604411339492 kcal/mol)

>  <smiles>  (78) 
CN1CCN(S(=O)(=O)c2cccc(NC(=O)Nc3cccc(S(N)(=O)=O)c3)c2)CC1

>  <score_type>  (78) 
oracle

>  <origin>  (78) 
adg

>  <m_score__min__energy>  (78) 
-15.300000000000001

>  <m_primary>  (78) 
energy

$$$$
78:0
     RDKit          3D

 45 47  0  0  0  0  0  0  0  0999 V2000
   67.0990   33.0780   50.5450 C   0  0  0  0  0  0  0  0  0  0  0  0
   65.7310   33.4560   50.4460 O   0  0  0  0  0  0  0  0  0  0  0  0
   64.7310   32.5730   50.0230 C   0  0  0  0  0  0  0  0  0  0  0  0
   64.6860   31.4010   50.4900 O   0  0  0  0  0  0  0  0  0  0  0  0
   63.7280   33.0190   49.0310 C   0  0  0  0  0  0  0  0  0  0  0  0
   62.4350   33.3980   49.4360 C   0  0  0  0  0  0  0  0  0  0  0  0
   61.4920   33.8200   48.4950 C   0  0  0  0  0  0  0  0  0  0  0  0
   61.8200   33.8560   47.1280 C   0  0  0  0  0  0  0  0  0  0  0  0
   60.8880   34.3030   46.1310 N   0  0  0  0  0  0  0  0  0  0  0  0
   59.4570   34.2750   46.2190 C   0  0  0  0  0  0  0  0  0  0  0  0
   58.8410   35.2130   46.7960 O   0  0  0  0  0  0  0  0  0  0  0  0
   58.7040   33.1170   45.6820 C   0  0  0  0  0  0  0  0  0  0  0  0
   58.2300   33.1250   44.3580 C   0  0  0  0  0  0  0  0  0  0  0  0
   57.5190   32.0340   43.8500 C   0  0  0  0  0  0  0  0  0  0  0  0
   57.2670   30.9090   44.6530 C   0  0  0  0  0  0  0  0  0  0  0  0
   56.5160   29.7490   44.1150 C   0  0  0  0  0  0  0  0  0  0  0  0
   56.3410   29.6350   42.8710 O   0  0  0  0  0  0  0  0  0  0  0  0
   56.0400   28.7290   45.0050 N   0  0  0  0  0  0  0  0  0  0  0  0
   56.8220   27.6900   45.6130 C   0  0  0  0  0  0  0  0  0  0  0  0
   58.2230   27.7880   45.7110 C   0  0  0  0  0  0  0  0  0  0  0  0
   58.9650   26.7550   46.2920 C   0  0  0  0  0  0  0  0  0  0  0  0
   58.3200   25.6110   46.7640 C   0  0  0  0  0  0  0  0  0  0  0  0
   56.9340   25.4910   46.6460 C   0  0  0  0  0  0  0  0  0  0  0  0
   56.1810   26.5190   46.0690 C   0  0  0  0  0  0  0  0  0  0  0  0
   54.7990   26.3610   45.9640 O   0  0  0  0  0  0  0  0  0  0  0  0
   57.7430   30.8990   45.9760 C   0  0  0  0  0  0  0  0  0  0  0  0
   58.4530   31.9910   46.4840 C   0  0  0  0  0  0  0  0  0  0  0  0
   63.1140   33.5060   46.7280 C   0  0  0  0  0  0  0  0  0  0  0  0
   64.0590   33.0820   47.6670 C   0  0  0  0  0  0  0  0  0  0  0  0
   67.3820   32.9998   51.6051 H   0  0  0  0  0  0  0  0  0  0  0  0
   67.2471   32.1053   50.0532 H   0  0  0  0  0  0  0  0  0  0  0  0
   67.7256   33.8367   50.0532 H   0  0  0  0  0  0  0  0  0  0  0  0
   62.1643   33.3619   50.5016 H   0  0  0  0  0  0  0  0  0  0  0  0
   60.4882   34.1255   48.8252 H   0  0  0  0  0  0  0  0  0  0  0  0
   58.4205   33.9978   43.7163 H   0  0  0  0  0  0  0  0  0  0  0  0
   57.1537   32.0564   42.8127 H   0  0  0  0  0  0  0  0  0  0  0  0
   58.7368   28.6822   45.3284 H   0  0  0  0  0  0  0  0  0  0  0  0
   60.0581   26.8442   46.3771 H   0  0  0  0  0  0  0  0  0  0  0  0
   58.9040   24.8033   47.2293 H   0  0  0  0  0  0  0  0  0  0  0  0
   56.4311   24.5825   47.0090 H   0  0  0  0  0  0  0  0  0  0  0  0
   54.2690   26.7160   45.1770 H   0  0  0  0  0  0  0  0  0  0  0  0
   57.5552   30.0247   46.6166 H   0  0  0  0  0  0  0  0  0  0  0  0
   58.8185   31.9684   47.5212 H   0  0  0  0  0  0  0  0  0  0  0  0
   63.3905   33.5649   45.6649 H   0  0  0  0  0  0  0  0  0  0  0  0
   65.0682   32.7959   47.3358 H   0  0  0  0  0  0  0  0  0  0  0  0
  1  2  1  0
  2  3  1  0
  3  4  2  0
  3  5  1  0
  5  6  2  0
  6  7  1  0
  7  8  2  0
  8  9  1  0
  9 10  1  0
 10 11  2  0
 10 12  1  0
 12 13  2  0
 13 14  1  0
 14 15  2  0
 15 16  1  0
 16 17  2  0
 16 18  1  0
 18 19  1  0
 19 20  2  0
 20 21  1  0
 21 22  2  0
 22 23  1  0
 23 24  2  0
 24 25  1  0
 15 26  1  0
 26 27  2  0
  8 28  1  0
 28 29  2  0
 29  5  1  0
 27 12  1  0
 24 19  1  0
  1 30  1  0
  1 31  1  0
  1 32  1  0
  6 33  1  0
  7 34  1  0
 13 35  1  0
 14 36  1  0
 20 37  1  0
 21 38  1  0
 22 39  1  0
 23 40  1  0
 25 41  1  0
 26 42  1  0
 27 43  1  0
 28 44  1  0
 29 45  1  0
M  CHG  2   9  -1  18  -1
M  END
>  <UniqueID>  (79) 
75

>  <SMILES>  (79) 
COC(=O)c1ccc([N-]C(=O)c2ccc(C(=O)[N-]c3ccccc3O)cc2)cc1

>  <Energy>  (79) 
55.45682587388437

>  <Genealogy>  (79) 
COC(=O)c1ccc([N-]C(=O)c2ccc(C(=O)[N-]c3ccccc3O)cc2)cc1 (protonated)
COC(=O)c1ccc([N-]C(=O)c2ccc(C(=O)[N-]c3ccccc3O)cc2)cc1 (3D coordinates assigned)
COC(=O)c1ccc([N-]C(=O)c2ccc(C(=O)[N-]c3ccccc3O)cc2)cc1 (optimized conformer: 55.45682587388437 kcal/mol)

>  <smiles>  (79) 
COC(=O)c1ccc(NC(=O)c2ccc(C(=O)Nc3ccccc3O)cc2)cc1

>  <score_type>  (79) 
oracle

>  <origin>  (79) 
adg

>  <m_score__min__energy>  (79) 
-12.67

>  <m_primary>  (79) 
energy

$$$$
79:0
     RDKit          3D

 61 64  0  0  0  0  0  0  0  0999 V2000
   54.5650   22.0090   46.8270 C   0  0  0  0  0  0  0  0  0  0  0  0
   55.2340   22.3230   45.5160 C   0  0  0  0  0  0  0  0  0  0  0  0
   56.3270   21.5420   45.1010 C   0  0  0  0  0  0  0  0  0  0  0  0
   56.9770   21.8130   43.8950 C   0  0  0  0  0  0  0  0  0  0  0  0
   56.5440   22.8660   43.0870 C   0  0  0  0  0  0  0  0  0  0  0  0
   55.4630   23.6530   43.4840 C   0  0  0  0  0  0  0  0  0  0  0  0
   54.7990   23.3990   44.6990 C   0  0  0  0  0  0  0  0  0  0  0  0
   53.6230   24.2690   45.0860 C   0  0  0  0  0  0  0  0  0  0  0  0
   54.0620   25.4100   45.8900 N   0  0  0  0  0  0  0  0  0  0  0  0
   55.2930   25.8150   45.9980 C   0  0  0  0  0  0  0  0  0  0  0  0
   55.6130   27.0790   45.6190 N   0  0  0  0  0  0  0  0  0  0  0  0
   56.8860   27.5560   45.7160 C   0  0  0  0  0  0  0  0  0  0  0  0
   57.1740   28.9530   45.2990 C   0  0  0  0  0  0  0  0  0  0  0  0
   58.3300   29.6030   45.7710 C   0  0  0  0  0  0  0  0  0  0  0  0
   58.6270   30.9100   45.3720 C   0  0  0  0  0  0  0  0  0  0  0  0
   57.7680   31.5960   44.5000 C   0  0  0  0  0  0  0  0  0  0  0  0
   58.1030   32.9610   44.0470 C   0  0  0  0  0  0  0  0  0  0  0  0
   58.5060   33.1350   42.8670 O   0  0  0  0  0  0  0  0  0  0  0  0
   57.9420   34.1030   44.8960 N   0  0  0  0  0  0  0  0  0  0  0  0
   57.7980   34.0460   46.3490 C   0  0  0  0  0  0  0  0  0  0  0  0
   59.1710   34.0590   47.0430 C   0  0  0  0  0  0  0  0  0  0  0  0
   60.3140   33.7890   46.0480 C   0  0  0  0  0  0  0  0  0  0  0  0
   61.6940   33.8890   46.7340 C   0  0  0  0  0  0  0  0  0  0  0  0
   61.6080   33.7910   48.2100 N   0  0  0  0  0  0  0  0  0  0  0  0
   62.9460   33.5610   48.7820 C   0  0  0  0  0  0  0  0  0  0  0  0
   60.6850   32.7150   48.6160 C   0  0  0  0  0  0  0  0  0  0  0  0
   59.2360   33.0690   48.2290 C   0  0  0  0  0  0  0  0  0  0  0  0
   56.6330   30.9410   44.0020 C   0  0  0  0  0  0  0  0  0  0  0  0
   56.3350   29.6370   44.4000 C   0  0  0  0  0  0  0  0  0  0  0  0
   57.8930   26.7070   46.2070 C   0  0  0  0  0  0  0  0  0  0  0  0
   57.5470   25.4130   46.5980 C   0  0  0  0  0  0  0  0  0  0  0  0
   58.4250   24.6320   47.0490 O   0  0  0  0  0  0  0  0  0  0  0  0
   56.2600   24.9940   46.4910 N   0  0  0  0  0  0  0  0  0  0  0  0
   55.2198   22.3164   47.6557 H   0  0  0  0  0  0  0  0  0  0  0  0
   53.6115   22.5536   46.8918 H   0  0  0  0  0  0  0  0  0  0  0  0
   54.3747   20.9275   46.8918 H   0  0  0  0  0  0  0  0  0  0  0  0
   56.6732   20.7101   45.7319 H   0  0  0  0  0  0  0  0  0  0  0  0
   57.8317   21.1957   43.5812 H   0  0  0  0  0  0  0  0  0  0  0  0
   57.0560   23.0753   42.1362 H   0  0  0  0  0  0  0  0  0  0  0  0
   55.1262   24.4800   42.8416 H   0  0  0  0  0  0  0  0  0  0  0  0
   53.1323   24.6385   44.1735 H   0  0  0  0  0  0  0  0  0  0  0  0
   52.9210   23.6674   45.6821 H   0  0  0  0  0  0  0  0  0  0  0  0
   59.0067   29.0774   46.4608 H   0  0  0  0  0  0  0  0  0  0  0  0
   59.5379   31.4024   45.7433 H   0  0  0  0  0  0  0  0  0  0  0  0
   57.2166   34.9166   46.6867 H   0  0  0  0  0  0  0  0  0  0  0  0
   57.2824   33.1107   46.6124 H   0  0  0  0  0  0  0  0  0  0  0  0
   59.3036   35.0725   47.4494 H   0  0  0  0  0  0  0  0  0  0  0  0
   60.1941   32.7782   45.6310 H   0  0  0  0  0  0  0  0  0  0  0  0
   60.2670   34.5476   45.2528 H   0  0  0  0  0  0  0  0  0  0  0  0
   62.3309   33.0722   46.3637 H   0  0  0  0  0  0  0  0  0  0  0  0
   62.1149   34.8757   46.4908 H   0  0  0  0  0  0  0  0  0  0  0  0
   62.8822   33.5720   49.8801 H   0  0  0  0  0  0  0  0  0  0  0  0
   63.3253   32.5845   48.4465 H   0  0  0  0  0  0  0  0  0  0  0  0
   63.6296   34.3548   48.4465 H   0  0  0  0  0  0  0  0  0  0  0  0
   60.9755   31.7807   48.1134 H   0  0  0  0  0  0  0  0  0  0  0  0
   60.7408   32.5929   49.7078 H   0  0  0  0  0  0  0  0  0  0  0  0
   58.7091   32.1452   47.9480 H   0  0  0  0  0  0  0  0  0  0  0  0
   58.7641   33.5522   49.0972 H   0  0  0  0  0  0  0  0  0  0  0  0
   55.9719   31.4591   43.2917 H   0  0  0  0  0  0  0  0  0  0  0  0
   55.4360   29.1393   44.0073 H   0  0  0  0  0  0  0  0  0  0  0  0
   58.9335   27.0559   46.2815 H   0  0  0  0  0  0  0  0  0  0  0  0
  1  2  1  0
  2  3  2  0
  3  4  1  0
  4  5  2  0
  5  6  1  0
  6  7  2  0
  7  8  1  0
  8  9  1  0
  9 10  2  3
 10 11  1  0
 11 12  1  0
 12 13  1  0
 13 14  2  0
 14 15  1  0
 15 16  2  0
 16 17  1  0
 17 18  2  0
 17 19  1  0
 19 20  1  0
 20 21  1  0
 21 22  1  0
 22 23  1  0
 23 24  1  0
 24 25  1  0
 24 26  1  0
 26 27  1  0
 16 28  1  0
 28 29  2  0
 12 30  2  0
 30 31  1  0
 31 32  2  0
 31 33  1  0
  7  2  1  0
 33 10  1  0
 29 13  1  0
 27 21  1  0
  1 34  1  0
  1 35  1  0
  1 36  1  0
  3 37  1  0
  4 38  1  0
  5 39  1  0
  6 40  1  0
  8 41  1  0
  8 42  1  0
 14 43  1  0
 15 44  1  0
 20 45  1  0
 20 46  1  0
 21 47  1  0
 22 48  1  0
 22 49  1  0
 23 50  1  0
 23 51  1  0
 25 52  1  0
 25 53  1  0
 25 54  1  0
 26 55  1  0
 26 56  1  0
 27 57  1  0
 27 58  1  0
 28 59  1  0
 29 60  1  0
 30 61  1  0
M  CHG  3  11  -1  19  -1  33  -1
M  END
>  <UniqueID>  (80) 
76

>  <SMILES>  (80) 
Cc1ccccc1CN=c1[n-]c(-c2ccc(C(=O)[N-]CC3CCN(C)CC3)cc2)cc(=O)[n-]1

>  <Energy>  (80) 
77.61544211007414

>  <Genealogy>  (80) 
Cc1ccccc1CN=c1[n-]c(-c2ccc(C(=O)[N-]CC3CCN(C)CC3)cc2)cc(=O)[n-]1 (protonated)
Cc1ccccc1CN=c1[n-]c(-c2ccc(C(=O)[N-]CC3CCN(C)CC3)cc2)cc(=O)[n-]1 (3D coordinates assigned)
Cc1ccccc1CN=c1[n-]c(-c2ccc(C(=O)[N-]CC3CCN(C)CC3)cc2)cc(=O)[n-]1 (nonaromatic ring conformer: 77.61544211007414 kcal/mol)

>  <smiles>  (80) 
Cc1ccccc1CN=c1[nH]c(-c2ccc(C(=O)NCC3CCN(C)CC3)cc2)cc(=O)[nH]1

>  <score_type>  (80) 
oracle

>  <origin>  (80) 
adg

>  <m_score__min__energy>  (80) 
-14.58

>  <m_primary>  (80) 
energy

$$$$
80:0
     RDKit          3D

 61 63  0  0  1  0  0  0  0  0999 V2000
   62.4320   30.0590   51.7610 C   0  0  0  0  0  0  0  0  0  0  0  0
   62.5440   31.4680   51.7130 O   0  0  0  0  0  0  0  0  0  0  0  0
   61.7200   32.2460   50.9080 C   0  0  0  0  0  0  0  0  0  0  0  0
   60.5440   32.7850   51.3780 C   0  0  0  0  0  0  0  0  0  0  0  0
   59.7440   33.5560   50.5490 C   0  0  0  0  0  0  0  0  0  0  0  0
   60.1000   33.8030   49.2450 C   0  0  0  0  0  0  0  0  0  0  0  0
   57.4490   31.5110   45.5150 N   0  0  0  0  0  0  0  0  0  0  0  0
   58.0290   32.6470   45.7730 C   0  0  0  0  0  0  0  0  0  0  0  0
   59.2060   35.0270   46.1240 N   0  0  0  0  0  0  0  0  0  0  0  0
   58.8630   34.6900   44.8760 C   0  0  0  0  0  0  0  0  0  0  0  0
   58.2560   33.4670   44.6890 C   0  0  0  0  0  0  0  0  0  0  0  0
   58.9740   34.2100   47.1640 C   0  0  0  0  0  0  0  0  0  0  0  0
   59.3250   34.5870   48.3460 N   0  0  0  0  0  0  0  0  0  0  0  0
   58.1710   30.3150   45.2570 C   0  0  0  0  0  0  0  0  0  0  0  0
   59.4660   30.1020   45.6660 C   0  0  0  0  0  0  0  0  0  0  0  0
   60.1580   28.9380   45.4100 C   0  0  0  0  0  0  0  0  0  0  0  0
   59.5540   27.9200   44.7160 C   0  0  0  0  0  0  0  0  0  0  0  0
   58.2560   28.0900   44.2870 C   0  0  0  0  0  0  0  0  0  0  0  0
   57.5740   29.2660   44.5510 C   0  0  0  0  0  0  0  0  0  0  0  0
   56.1930   29.3720   44.0620 C   0  0  0  0  0  0  0  0  0  0  0  0
   55.8980   29.4320   42.6820 N   0  0  0  0  0  0  0  0  0  0  0  0
   55.2040   29.4150   44.8570 O   0  0  0  0  0  0  0  0  0  0  0  0
   58.3840   33.0060   47.0220 N   0  0  0  0  0  0  0  0  0  0  0  0
   61.2960   33.2470   48.7910 C   0  0  0  0  0  0  0  0  0  0  0  0
   62.1040   32.4780   49.5980 C   0  0  0  0  0  0  0  0  0  0  0  0
   63.2990   31.9140   49.1730 O   0  0  0  0  0  0  0  0  0  0  0  0
   64.4150   32.7290   48.9980 C   0  0  0  0  0  0  0  0  0  0  0  0
   65.5580   32.3330   49.9400 C   0  0  2  0  0  0  0  0  0  0  0  0
   65.2060   31.2090   50.6550 O   0  0  0  0  0  0  0  0  0  0  0  0
   65.7860   33.5360   50.8260 C   0  0  0  0  0  0  0  0  0  0  0  0
   64.8980   33.6490   51.9260 N   0  0  0  0  0  0  0  0  0  0  0  0
   65.3160   33.0110   53.1260 C   0  0  0  0  0  0  0  0  0  0  0  0
   64.1780   34.8630   52.0680 C   0  0  0  0  0  0  0  0  0  0  0  0
   62.4058   29.7288   52.8099 H   0  0  0  0  0  0  0  0  0  0  0  0
   61.5062   29.7473   51.2552 H   0  0  0  0  0  0  0  0  0  0  0  0
   63.2969   29.6050   51.2552 H   0  0  0  0  0  0  0  0  0  0  0  0
   60.2369   32.6028   52.4184 H   0  0  0  0  0  0  0  0  0  0  0  0
   58.8072   33.9777   50.9422 H   0  0  0  0  0  0  0  0  0  0  0  0
   59.6710   35.9500   46.3150 H   0  0  0  0  0  0  0  0  0  0  0  0
   59.0583   35.3646   44.0294 H   0  0  0  0  0  0  0  0  0  0  0  0
   57.9545   33.1473   43.6806 H   0  0  0  0  0  0  0  0  0  0  0  0
   59.9753   30.9004   46.2255 H   0  0  0  0  0  0  0  0  0  0  0  0
   61.1941   28.8251   45.7619 H   0  0  0  0  0  0  0  0  0  0  0  0
   60.0959   26.9860   44.5062 H   0  0  0  0  0  0  0  0  0  0  0  0
   57.7565   27.2840   43.7295 H   0  0  0  0  0  0  0  0  0  0  0  0
   55.4880   28.5620   42.2450 H   0  0  0  0  0  0  0  0  0  0  0  0
   56.0600   30.2770   42.0790 H   0  0  0  0  0  0  0  0  0  0  0  0
   58.2100   32.3810   47.8170 H   0  0  0  0  0  0  0  0  0  0  0  0
   61.6046   33.4295   47.7511 H   0  0  0  0  0  0  0  0  0  0  0  0
   64.7625   32.6396   47.9582 H   0  0  0  0  0  0  0  0  0  0  0  0
   64.1236   33.7645   49.2279 H   0  0  0  0  0  0  0  0  0  0  0  0
   66.4837   32.0733   49.4056 H   0  0  0  0  0  0  0  0  0  0  0  0
   64.3180   31.3900   51.0510 H   0  0  0  0  0  0  0  0  0  0  0  0
   66.8115   33.4797   51.2201 H   0  0  0  0  0  0  0  0  0  0  0  0
   65.6073   34.4195   50.1955 H   0  0  0  0  0  0  0  0  0  0  0  0
   64.9441   33.5786   53.9918 H   0  0  0  0  0  0  0  0  0  0  0  0
   64.9124   31.9882   53.1573 H   0  0  0  0  0  0  0  0  0  0  0  0
   66.4149   32.9726   53.1573 H   0  0  0  0  0  0  0  0  0  0  0  0
   64.0449   35.0875   53.1366 H   0  0  0  0  0  0  0  0  0  0  0  0
   64.7379   35.6796   51.5888 H   0  0  0  0  0  0  0  0  0  0  0  0
   63.1929   34.7633   51.5888 H   0  0  0  0  0  0  0  0  0  0  0  0
  1  2  1  0
  2  3  1  0
  3  4  2  0
  4  5  1  0
  5  6  2  0
  6  7  1  0
  7  8  2  0
  8  9  1  0
  9 10  1  0
 10 11  2  0
 11 12  1  0
 12 13  2  0
 13 14  1  0
 14 15  2  0
 15 16  1  0
 16 17  2  0
 17 18  1  0
 18 19  2  0
 19 20  1  0
 20 21  1  0
 20 22  2  0
 12 23  1  0
  6 24  1  0
 24 25  2  0
 25 26  1  0
 26 27  1  0
 27 28  1  0
 28 29  1  0
 28 30  1  0
 30 31  1  0
 31 32  1  0
 31 33  1  0
 25  3  1  0
 23  8  1  0
 19 14  1  0
  1 34  1  0
  1 35  1  0
  1 36  1  0
  4 37  1  0
  5 38  1  0
  9 39  1  0
 10 40  1  0
 11 41  1  0
 15 42  1  0
 16 43  1  0
 17 44  1  0
 18 45  1  0
 21 46  1  0
 21 47  1  0
 23 48  1  0
 24 49  1  0
 27 50  1  0
 27 51  1  0
 28 52  1  6
 29 53  1  0
 30 54  1  0
 30 55  1  0
 32 56  1  0
 32 57  1  0
 32 58  1  0
 33 59  1  0
 33 60  1  0
 33 61  1  0
M  END
>  <smiles>  (81) 
COc1ccc(N=c2[nH]ccc(=Nc3ccccc3C(N)=O)[nH]2)cc1OCC(O)CN(C)C

>  <score_type>  (81) 
oracle

>  <origin>  (81) 
adg

>  <m_score__min__energy>  (81) 
-8.8599999999999994

>  <m_primary>  (81) 
energy

$$$$
81:0
     RDKit          3D

 32 33  0  0  0  0  0  0  0  0999 V2000
   55.4130   28.7160   45.6140 H   0  0  0  0  0  0  0  0  0  0  0  0
   55.1400   29.3700   44.8460 N   0  0  0  0  0  0  0  0  0  0  0  0
   56.5730   29.7190   43.9450 S   0  0  0  0  0  0  0  0  0  0  0  0
   56.1850   30.2760   42.6040 O   0  0  0  0  0  0  0  0  0  0  0  0
   57.3590   28.4560   43.7310 O   0  0  0  0  0  0  0  0  0  0  0  0
   57.5570   30.8900   44.8350 C   0  0  0  0  0  0  0  0  0  0  0  0
   57.3050   32.2610   44.6710 C   0  0  0  0  0  0  0  0  0  0  0  0
   56.4981   32.5902   43.9997 H   0  0  0  0  0  0  0  0  0  0  0  0
   58.0690   33.2110   45.3520 C   0  0  0  0  0  0  0  0  0  0  0  0
   57.8666   34.2829   45.2104 H   0  0  0  0  0  0  0  0  0  0  0  0
   59.0890   32.8020   46.2120 C   0  0  0  0  0  0  0  0  0  0  0  0
   59.6891   33.5514   46.7490 H   0  0  0  0  0  0  0  0  0  0  0  0
   59.3480   31.4420   46.3910 C   0  0  0  0  0  0  0  0  0  0  0  0
   60.1435   31.1245   47.0812 H   0  0  0  0  0  0  0  0  0  0  0  0
   58.6000   30.4740   45.6960 C   0  0  0  0  0  0  0  0  0  0  0  0
   58.8600   29.0390   45.9450 C   0  0  0  0  0  0  0  0  0  0  0  0
   59.1030   28.4087   45.0769 H   0  0  0  0  0  0  0  0  0  0  0  0
   58.8220   28.4470   47.1500 C   0  0  0  0  0  0  0  0  0  0  0  0
   58.9130   29.0969   48.0328 H   0  0  0  0  0  0  0  0  0  0  0  0
   58.6680   26.9930   47.3920 C   0  0  0  0  0  0  0  0  0  0  0  0
   59.6750   26.2380   47.4370 O   0  0  0  0  0  0  0  0  0  0  0  0
   57.3630   26.4000   47.3920 N   0  0  0  0  0  0  0  0  0  0  0  0
   56.8870   25.4670   46.6120 C   0  0  0  0  0  0  0  0  0  0  0  0
   57.5890   24.3050   46.5180 N   0  0  0  0  0  0  0  0  0  0  0  0
   57.1940   23.2710   45.7300 C   0  0  0  0  0  0  0  0  0  0  0  0
   57.7969   22.3520   45.6859 H   0  0  0  0  0  0  0  0  0  0  0  0
   56.0260   23.3740   44.9780 C   0  0  0  0  0  0  0  0  0  0  0  0
   55.7111   22.5481   44.3232 H   0  0  0  0  0  0  0  0  0  0  0  0
   55.2610   24.5360   45.0650 C   0  0  0  0  0  0  0  0  0  0  0  0
   54.3336   24.6271   44.4805 H   0  0  0  0  0  0  0  0  0  0  0  0
   55.6690   25.5860   45.8930 C   0  0  0  0  0  0  0  0  0  0  0  0
   54.8340   26.6910   46.0160 O   0  0  0  0  0  0  0  0  0  0  0  0
  1  2  1  0
  2  3  1  0
  3  4  2  0
  3  5  2  0
  3  6  1  0
  6  7  2  0
  7  8  1  0
  7  9  1  0
  9 10  1  0
  9 11  2  0
 11 12  1  0
 11 13  1  0
 13 14  1  0
 13 15  2  0
 15 16  1  0
 16 17  1  0
 16 18  2  0
 18 19  1  0
 18 20  1  0
 20 21  2  0
 20 22  1  0
 22 23  2  3
 23 24  1  0
 24 25  1  0
 25 26  1  0
 25 27  2  0
 27 28  1  0
 27 29  1  0
 29 30  1  0
 29 31  2  0
 31 32  1  0
 15  6  1  0
 31 23  1  0
M  CHG  3   2  -1  24  -1  32  -1
M  END
>  <UniqueID>  (82) 
77

>  <SMILES>  (82) 
[NH-]S(=O)(=O)c1ccccc1/C=C\C(=O)N=c1[n-]cccc1[O-]

>  <Energy>  (82) 
55.04606071844265

>  <Genealogy>  (82) 
[NH-]S(=O)(=O)c1ccccc1C=CC(=O)N=c1[n-]cccc1[O-] (protonated)
[NH-]S(=O)(=O)c1ccccc1/C=C\C(=O)N=c1[n-]cccc1[O-] (cis-trans isomerization)
[NH-]S(=O)(=O)c1ccccc1/C=C\C(=O)N=c1[n-]cccc1[O-] (3D coordinates assigned)
[NH-]S(=O)(=O)c1ccccc1/C=C\C(=O)N=c1[n-]cccc1[O-] (optimized conformer: 55.04606071844265 kcal/mol)

>  <smiles>  (82) 
NS(=O)(=O)c1ccccc1C=CC(=O)N=c1[nH]cccc1O

>  <score_type>  (82) 
oracle

>  <origin>  (82) 
adg

>  <m_score__min__energy>  (82) 
-15.32

>  <m_primary>  (82) 
energy

$$$$
82:0
     RDKit          3D

 64 67  0  0  0  0  0  0  0  0999 V2000
   58.1790   32.3450   41.5650 C   0  0  0  0  0  0  0  0  0  0  0  0
   58.0940   32.2920   43.0290 N   0  0  0  0  0  0  0  0  0  0  0  0
   58.6280   33.4060   43.8180 C   0  0  0  0  0  0  0  0  0  0  0  0
   57.5110   31.1400   43.6870 C   0  0  0  0  0  0  0  0  0  0  0  0
   56.4080   30.4690   43.1240 C   0  0  0  0  0  0  0  0  0  0  0  0
   55.8610   29.3450   43.7480 C   0  0  0  0  0  0  0  0  0  0  0  0
   56.3880   28.8800   44.9640 C   0  0  0  0  0  0  0  0  0  0  0  0
   55.8760   27.7120   45.6240 N   0  0  0  0  0  0  0  0  0  0  0  0
   56.6450   26.6360   46.1790 C   0  0  0  0  0  0  0  0  0  0  0  0
   56.1070   25.5130   46.3850 O   0  0  0  0  0  0  0  0  0  0  0  0
   58.0570   26.8600   46.5630 C   0  0  0  0  0  0  0  0  0  0  0  0
   59.0990   26.2790   45.8210 C   0  0  0  0  0  0  0  0  0  0  0  0
   60.4320   26.5010   46.1750 C   0  0  0  0  0  0  0  0  0  0  0  0
   60.7430   27.3060   47.2720 C   0  0  0  0  0  0  0  0  0  0  0  0
   59.7150   27.9080   48.0160 C   0  0  0  0  0  0  0  0  0  0  0  0
   60.0030   28.7100   49.1710 N   0  0  0  0  0  0  0  0  0  0  0  0
   60.7900   28.3010   50.2950 C   0  0  0  0  0  0  0  0  0  0  0  0
   60.9010   27.0710   50.5450 O   0  0  0  0  0  0  0  0  0  0  0  0
   61.4560   29.3070   51.1950 C   0  0  0  0  0  0  0  0  0  0  0  0
   61.9420   30.5090   50.4180 C   0  0  0  0  0  0  0  0  0  0  0  0
   61.0370   31.1440   49.6280 N   0  0  0  0  0  0  0  0  0  0  0  0
   61.3690   32.2010   48.8490 C   0  0  0  0  0  0  0  0  0  0  0  0
   60.3610   32.8240   48.0240 N   0  0  0  0  0  0  0  0  0  0  0  0
   60.6660   34.0860   47.3420 C   0  0  0  0  0  0  0  0  0  0  0  0
   59.3830   34.8980   47.1460 C   0  0  0  0  0  0  0  0  0  0  0  0
   58.3880   34.1130   46.5170 O   0  0  0  0  0  0  0  0  0  0  0  0
   57.9990   33.0610   47.3790 C   0  0  0  0  0  0  0  0  0  0  0  0
   59.1570   32.0880   47.6180 C   0  0  0  0  0  0  0  0  0  0  0  0
   62.6910   32.6510   48.8520 C   0  0  0  0  0  0  0  0  0  0  0  0
   63.6250   32.0030   49.6590 C   0  0  0  0  0  0  0  0  0  0  0  0
   64.8220   32.4010   49.6340 O   0  0  0  0  0  0  0  0  0  0  0  0
   63.2490   30.9500   50.4580 N   0  0  0  0  0  0  0  0  0  0  0  0
   64.2690   30.2590   51.2690 C   0  0  0  0  0  0  0  0  0  0  0  0
   58.3790   27.6660   47.6710 C   0  0  0  0  0  0  0  0  0  0  0  0
   57.4920   29.5340   45.5210 C   0  0  0  0  0  0  0  0  0  0  0  0
   58.0460   30.6540   44.8960 C   0  0  0  0  0  0  0  0  0  0  0  0
   59.0782   32.9057   41.2700 H   0  0  0  0  0  0  0  0  0  0  0  0
   58.2365   31.3224   41.1638 H   0  0  0  0  0  0  0  0  0  0  0  0
   57.2860   32.8466   41.1638 H   0  0  0  0  0  0  0  0  0  0  0  0
   58.5203   33.1813   44.8894 H   0  0  0  0  0  0  0  0  0  0  0  0
   59.6921   33.5481   43.5783 H   0  0  0  0  0  0  0  0  0  0  0  0
   58.0723   34.3246   43.5783 H   0  0  0  0  0  0  0  0  0  0  0  0
   55.9723   30.8341   42.1823 H   0  0  0  0  0  0  0  0  0  0  0  0
   55.0124   28.8210   43.2841 H   0  0  0  0  0  0  0  0  0  0  0  0
   58.8633   25.6441   44.9542 H   0  0  0  0  0  0  0  0  0  0  0  0
   61.2393   26.0398   45.5872 H   0  0  0  0  0  0  0  0  0  0  0  0
   61.7937   27.4690   47.5540 H   0  0  0  0  0  0  0  0  0  0  0  0
   60.7336   29.6406   51.9546 H   0  0  0  0  0  0  0  0  0  0  0  0
   62.3257   28.8260   51.6664 H   0  0  0  0  0  0  0  0  0  0  0  0
   61.3754   34.6666   47.9500 H   0  0  0  0  0  0  0  0  0  0  0  0
   61.1091   33.8676   46.3592 H   0  0  0  0  0  0  0  0  0  0  0  0
   59.0134   35.2323   48.1266 H   0  0  0  0  0  0  0  0  0  0  0  0
   59.6064   35.7655   46.5076 H   0  0  0  0  0  0  0  0  0  0  0  0
   57.6813   33.4851   48.3429 H   0  0  0  0  0  0  0  0  0  0  0  0
   57.1715   32.5106   46.9075 H   0  0  0  0  0  0  0  0  0  0  0  0
   58.8787   31.3798   48.4124 H   0  0  0  0  0  0  0  0  0  0  0  0
   59.3664   31.5428   46.6859 H   0  0  0  0  0  0  0  0  0  0  0  0
   62.9911   33.5046   48.2265 H   0  0  0  0  0  0  0  0  0  0  0  0
   64.0505   30.4071   52.3369 H   0  0  0  0  0  0  0  0  0  0  0  0
   64.2549   29.1837   51.0375 H   0  0  0  0  0  0  0  0  0  0  0  0
   65.2623   30.6709   51.0375 H   0  0  0  0  0  0  0  0  0  0  0  0
   57.5727   28.1108   48.2727 H   0  0  0  0  0  0  0  0  0  0  0  0
   57.9282   29.1629   46.4602 H   0  0  0  0  0  0  0  0  0  0  0  0
   58.9086   31.1614   45.3526 H   0  0  0  0  0  0  0  0  0  0  0  0
  1  2  1  0
  2  3  1  0
  2  4  1  0
  4  5  2  0
  5  6  1  0
  6  7  2  0
  7  8  1  0
  8  9  1  0
  9 10  2  0
  9 11  1  0
 11 12  2  0
 12 13  1  0
 13 14  2  0
 14 15  1  0
 15 16  1  0
 16 17  1  0
 17 18  2  0
 17 19  1  0
 19 20  1  0
 20 21  2  0
 21 22  1  0
 22 23  1  0
 23 24  1  0
 24 25  1  0
 25 26  1  0
 26 27  1  0
 27 28  1  0
 22 29  2  0
 29 30  1  0
 30 31  2  0
 30 32  1  0
 32 33  1  0
 15 34  2  0
  7 35  1  0
 35 36  2  0
 36  4  1  0
 34 11  1  0
 32 20  1  0
 28 23  1  0
  1 37  1  0
  1 38  1  0
  1 39  1  0
  3 40  1  0
  3 41  1  0
  3 42  1  0
  5 43  1  0
  6 44  1  0
 12 45  1  0
 13 46  1  0
 14 47  1  0
 19 48  1  0
 19 49  1  0
 24 50  1  0
 24 51  1  0
 25 52  1  0
 25 53  1  0
 27 54  1  0
 27 55  1  0
 28 56  1  0
 28 57  1  0
 29 58  1  0
 33 59  1  0
 33 60  1  0
 33 61  1  0
 34 62  1  0
 35 63  1  0
 36 64  1  0
M  CHG  2   8  -1  16  -1
M  END
>  <UniqueID>  (83) 
78

>  <SMILES>  (83) 
CN(C)c1ccc([N-]C(=O)c2cccc([N-]C(=O)Cc3nc(N4CCOCC4)cc(=O)n3C)c2)cc1

>  <Energy>  (83) 
86.2601791031697

>  <Genealogy>  (83) 
CN(C)c1ccc([N-]C(=O)c2cccc([N-]C(=O)Cc3nc(N4CCOCC4)cc(=O)n3C)c2)cc1 (protonated)
CN(C)c1ccc([N-]C(=O)c2cccc([N-]C(=O)Cc3nc(N4CCOCC4)cc(=O)n3C)c2)cc1 (3D coordinates assigned)
CN(C)c1ccc([N-]C(=O)c2cccc([N-]C(=O)Cc3nc(N4CCOCC4)cc(=O)n3C)c2)cc1 (nonaromatic ring conformer: 86.2601791031697 kcal/mol)

>  <smiles>  (83) 
CN(C)c1ccc(NC(=O)c2cccc(NC(=O)Cc3nc(N4CCOCC4)cc(=O)n3C)c2)cc1

>  <score_type>  (83) 
oracle

>  <origin>  (83) 
adg

>  <m_score__min__energy>  (83) 
-12.43

>  <m_primary>  (83) 
energy

$$$$
83:0
     RDKit          3D

 45 47  0  0  0  0  0  0  0  0999 V2000
   55.1400   26.5680   45.9950 N   0  0  0  0  0  0  0  0  0  0  0  0
   56.8230   26.9550   45.9190 S   0  0  0  0  0  0  0  0  0  0  0  0
   57.5430   25.8690   45.1700 O   0  0  0  0  0  0  0  0  0  0  0  0
   57.3640   27.0460   47.3170 O   0  0  0  0  0  0  0  0  0  0  0  0
   57.0780   28.4930   45.0990 C   0  0  0  0  0  0  0  0  0  0  0  0
   55.9970   29.3240   44.7720 C   0  0  0  0  0  0  0  0  0  0  0  0
   56.2180   30.5480   44.1360 C   0  0  0  0  0  0  0  0  0  0  0  0
   57.5260   30.9650   43.8330 C   0  0  0  0  0  0  0  0  0  0  0  0
   57.7740   32.3160   43.2150 C   0  0  0  0  0  0  0  0  0  0  0  0
   57.5960   33.3860   44.1970 N   0  0  0  0  0  0  0  0  0  0  0  0
   57.6400   33.2290   45.6220 C   0  0  0  0  0  0  0  0  0  0  0  0
   56.6390   33.5670   46.3060 O   0  0  0  0  0  0  0  0  0  0  0  0
   58.8490   32.7410   46.3120 C   0  0  0  0  0  0  0  0  0  0  0  0
   58.7900   31.5410   47.0260 C   0  0  0  0  0  0  0  0  0  0  0  0
   59.9020   31.1000   47.7330 C   0  0  0  0  0  0  0  0  0  0  0  0
   61.0720   31.8560   47.7180 C   0  0  0  0  0  0  0  0  0  0  0  0
   61.1410   33.0260   47.0090 N   0  0  0  0  0  0  0  0  0  0  0  0
   62.4090   33.7730   46.9940 C   0  0  0  0  0  0  0  0  0  0  0  0
   63.0930   33.6660   48.3310 C   0  0  0  0  0  0  0  0  0  0  0  0
   62.6200   34.4080   49.4270 C   0  0  0  0  0  0  0  0  0  0  0  0
   63.2320   34.2840   50.6780 C   0  0  0  0  0  0  0  0  0  0  0  0
   64.3160   33.4170   50.8460 C   0  0  0  0  0  0  0  0  0  0  0  0
   64.9220   33.2960   52.0900 O   0  0  0  0  0  0  0  0  0  0  0  0
   64.7880   32.6720   49.7620 C   0  0  0  0  0  0  0  0  0  0  0  0
   64.1790   32.7910   48.5100 C   0  0  0  0  0  0  0  0  0  0  0  0
   60.0540   33.4690   46.2940 C   0  0  0  0  0  0  0  0  0  0  0  0
   60.1300   34.5280   45.6110 O   0  0  0  0  0  0  0  0  0  0  0  0
   58.6040   30.1240   44.1470 C   0  0  0  0  0  0  0  0  0  0  0  0
   58.3810   28.8970   44.7780 C   0  0  0  0  0  0  0  0  0  0  0  0
   54.7440   27.0770   46.8160 H   0  0  0  0  0  0  0  0  0  0  0  0
   54.9713   29.0110   45.0171 H   0  0  0  0  0  0  0  0  0  0  0  0
   55.3642   31.1889   43.8709 H   0  0  0  0  0  0  0  0  0  0  0  0
   58.8033   32.3507   42.8287 H   0  0  0  0  0  0  0  0  0  0  0  0
   57.0498   32.4656   42.4007 H   0  0  0  0  0  0  0  0  0  0  0  0
   57.8645   30.9464   47.0283 H   0  0  0  0  0  0  0  0  0  0  0  0
   59.8587   30.1592   48.3013 H   0  0  0  0  0  0  0  0  0  0  0  0
   61.9505   31.5094   48.2820 H   0  0  0  0  0  0  0  0  0  0  0  0
   63.0660   33.3575   46.2157 H   0  0  0  0  0  0  0  0  0  0  0  0
   62.1986   34.8318   46.7829 H   0  0  0  0  0  0  0  0  0  0  0  0
   61.7653   35.0887   49.3001 H   0  0  0  0  0  0  0  0  0  0  0  0
   62.8600   34.8696   51.5316 H   0  0  0  0  0  0  0  0  0  0  0  0
   65.6410   31.9903   49.8946 H   0  0  0  0  0  0  0  0  0  0  0  0
   64.5506   32.1980   47.6613 H   0  0  0  0  0  0  0  0  0  0  0  0
   59.6297   30.4317   43.8954 H   0  0  0  0  0  0  0  0  0  0  0  0
   59.2323   28.2452   45.0239 H   0  0  0  0  0  0  0  0  0  0  0  0
  1  2  1  0
  2  3  2  0
  2  4  2  0
  2  5  1  0
  5  6  2  0
  6  7  1  0
  7  8  2  0
  8  9  1  0
  9 10  1  0
 10 11  1  0
 11 12  2  0
 11 13  1  0
 13 14  2  0
 14 15  1  0
 15 16  2  0
 16 17  1  0
 17 18  1  0
 18 19  1  0
 19 20  2  0
 20 21  1  0
 21 22  2  0
 22 23  1  0
 22 24  1  0
 24 25  2  0
 17 26  1  0
 26 27  2  0
  8 28  1  0
 28 29  2  0
 29  5  1  0
 26 13  1  0
 25 19  1  0
  1 30  1  0
  6 31  1  0
  7 32  1  0
  9 33  1  0
  9 34  1  0
 14 35  1  0
 15 36  1  0
 16 37  1  0
 18 38  1  0
 18 39  1  0
 20 40  1  0
 21 41  1  0
 24 42  1  0
 25 43  1  0
 28 44  1  0
 29 45  1  0
M  CHG  3   1  -1  10  -1  23  -1
M  END
>  <UniqueID>  (84) 
79

>  <SMILES>  (84) 
[NH-]S(=O)(=O)c1ccc(C[N-]C(=O)c2cccn(Cc3ccc([O-])cc3)c2=O)cc1

>  <Energy>  (84) 
52.14806934348807

>  <Genealogy>  (84) 
[NH-]S(=O)(=O)c1ccc(C[N-]C(=O)c2cccn(Cc3ccc([O-])cc3)c2=O)cc1 (protonated)
[NH-]S(=O)(=O)c1ccc(C[N-]C(=O)c2cccn(Cc3ccc([O-])cc3)c2=O)cc1 (3D coordinates assigned)
[NH-]S(=O)(=O)c1ccc(C[N-]C(=O)c2cccn(Cc3ccc([O-])cc3)c2=O)cc1 (optimized conformer: 52.14806934348807 kcal/mol)

>  <smiles>  (84) 
NS(=O)(=O)c1ccc(CNC(=O)c2cccn(Cc3ccc(O)cc3)c2=O)cc1

>  <score_type>  (84) 
oracle

>  <origin>  (84) 
adg

>  <m_score__min__energy>  (84) 
-15.470000000000001

>  <m_primary>  (84) 
energy

$$$$
84:0
     RDKit          3D

 61 65  0  0  0  0  0  0  0  0999 V2000
   64.0870   33.3960   48.1440 C   0  0  0  0  0  0  0  0  0  0  0  0
   63.5010   32.2580   47.3120 C   0  0  0  0  0  0  0  0  0  0  0  0
   62.0380   32.3160   47.3400 N   0  0  0  0  0  0  0  0  0  0  0  0
   61.2690   33.3070   46.8460 C   0  0  0  0  0  0  0  0  0  0  0  0
   59.9180   33.1130   47.1650 C   0  0  0  0  0  0  0  0  0  0  0  0
   58.8200   34.0740   46.7050 C   0  0  0  0  0  0  0  0  0  0  0  0
   57.3950   33.4520   46.8470 C   0  0  0  0  0  0  0  0  0  0  0  0
   56.7100   33.1510   45.4990 C   0  0  0  0  0  0  0  0  0  0  0  0
   57.6690   32.6760   44.4840 N   0  0  0  0  0  0  0  0  0  0  0  0
   58.2240   31.3390   44.7960 C   0  0  0  0  0  0  0  0  0  0  0  0
   57.1130   30.3340   44.8340 C   0  0  0  0  0  0  0  0  0  0  0  0
   55.8740   30.4420   44.2400 C   0  0  0  0  0  0  0  0  0  0  0  0
   55.1580   29.3320   44.5080 N   0  0  0  0  0  0  0  0  0  0  0  0
   55.8950   28.5220   45.2570 N   0  0  0  0  0  0  0  0  0  0  0  0
   57.0860   29.1140   45.4840 C   0  0  0  0  0  0  0  0  0  0  0  0
   58.2260   28.4990   46.2540 C   0  0  0  0  0  0  0  0  0  0  0  0
   59.0090   27.4360   45.4660 C   0  0  0  0  0  0  0  0  0  0  0  0
   58.1940   26.1900   45.2250 C   0  0  0  0  0  0  0  0  0  0  0  0
   57.8780   25.3340   46.2960 C   0  0  0  0  0  0  0  0  0  0  0  0
   57.1360   24.1720   46.0730 C   0  0  0  0  0  0  0  0  0  0  0  0
   56.7020   23.8550   44.7840 C   0  0  0  0  0  0  0  0  0  0  0  0
   57.0110   24.7010   43.7130 C   0  0  0  0  0  0  0  0  0  0  0  0
   57.7550   25.8630   43.9300 C   0  0  0  0  0  0  0  0  0  0  0  0
   58.7060   33.6870   44.1590 C   0  0  0  0  0  0  0  0  0  0  0  0
   58.9830   34.6910   45.3050 C   0  0  0  0  0  0  0  0  0  0  0  0
   59.8910   31.8880   47.8540 C   0  0  0  0  0  0  0  0  0  0  0  0
   58.8740   31.0900   48.4010 C   0  0  0  0  0  0  0  0  0  0  0  0
   59.2400   29.9090   49.0650 C   0  0  0  0  0  0  0  0  0  0  0  0
   60.5960   29.5460   49.1590 C   0  0  0  0  0  0  0  0  0  0  0  0
   61.5600   30.3300   48.5960 N   0  0  0  0  0  0  0  0  0  0  0  0
   61.1980   31.4710   47.9560 C   0  0  0  0  0  0  0  0  0  0  0  0
   63.9690   33.1668   49.2134 H   0  0  0  0  0  0  0  0  0  0  0  0
   65.1556   33.5094   47.9091 H   0  0  0  0  0  0  0  0  0  0  0  0
   63.5586   34.3317   47.9091 H   0  0  0  0  0  0  0  0  0  0  0  0
   63.8490   32.3506   46.2726 H   0  0  0  0  0  0  0  0  0  0  0  0
   63.8314   31.2970   47.7330 H   0  0  0  0  0  0  0  0  0  0  0  0
   61.6529   34.1594   46.2663 H   0  0  0  0  0  0  0  0  0  0  0  0
   58.9399   34.9160   47.4027 H   0  0  0  0  0  0  0  0  0  0  0  0
   57.4820   32.5107   47.4096 H   0  0  0  0  0  0  0  0  0  0  0  0
   56.7710   34.1957   47.3643 H   0  0  0  0  0  0  0  0  0  0  0  0
   55.9453   32.3758   45.6549 H   0  0  0  0  0  0  0  0  0  0  0  0
   56.2613   34.0853   45.1306 H   0  0  0  0  0  0  0  0  0  0  0  0
   58.9505   31.0535   44.0210 H   0  0  0  0  0  0  0  0  0  0  0  0
   58.7252   31.3691   45.7747 H   0  0  0  0  0  0  0  0  0  0  0  0
   55.5253   31.2973   43.6427 H   0  0  0  0  0  0  0  0  0  0  0  0
   58.9227   29.3006   46.5404 H   0  0  0  0  0  0  0  0  0  0  0  0
   57.7856   27.9908   47.1245 H   0  0  0  0  0  0  0  0  0  0  0  0
   59.3030   27.8603   44.4947 H   0  0  0  0  0  0  0  0  0  0  0  0
   59.8890   27.1537   46.0625 H   0  0  0  0  0  0  0  0  0  0  0  0
   58.2167   25.5810   47.3130 H   0  0  0  0  0  0  0  0  0  0  0  0
   56.8931   23.5056   46.9138 H   0  0  0  0  0  0  0  0  0  0  0  0
   56.1169   22.9398   44.6105 H   0  0  0  0  0  0  0  0  0  0  0  0
   56.6674   24.4505   42.6985 H   0  0  0  0  0  0  0  0  0  0  0  0
   57.9982   26.5242   43.0852 H   0  0  0  0  0  0  0  0  0  0  0  0
   59.6429   33.1598   43.9261 H   0  0  0  0  0  0  0  0  0  0  0  0
   58.3275   34.2708   43.3070 H   0  0  0  0  0  0  0  0  0  0  0  0
   60.0140   35.0609   45.2040 H   0  0  0  0  0  0  0  0  0  0  0  0
   58.2429   35.4999   45.2165 H   0  0  0  0  0  0  0  0  0  0  0  0
   57.8174   31.3827   48.3115 H   0  0  0  0  0  0  0  0  0  0  0  0
   58.4666   29.2671   49.5120 H   0  0  0  0  0  0  0  0  0  0  0  0
   60.8804   28.6252   49.6893 H   0  0  0  0  0  0  0  0  0  0  0  0
  1  2  1  0
  2  3  1  0
  3  4  1  0
  4  5  2  0
  5  6  1  0
  6  7  1  0
  7  8  1  0
  8  9  1  0
  9 10  1  0
 10 11  1  0
 11 12  2  0
 12 13  1  0
 13 14  1  0
 14 15  2  0
 15 16  1  0
 16 17  1  0
 17 18  1  0
 18 19  2  0
 19 20  1  0
 20 21  2  0
 21 22  1  0
 22 23  2  0
  9 24  1  0
 24 25  1  0
  5 26  1  0
 26 27  2  0
 27 28  1  0
 28 29  2  0
 29 30  1  0
 30 31  2  0
 31  3  1  0
 25  6  1  0
 31 26  1  0
 15 11  1  0
 23 18  1  0
  1 32  1  0
  1 33  1  0
  1 34  1  0
  2 35  1  0
  2 36  1  0
  4 37  1  0
  6 38  1  0
  7 39  1  0
  7 40  1  0
  8 41  1  0
  8 42  1  0
 10 43  1  0
 10 44  1  0
 12 45  1  0
 16 46  1  0
 16 47  1  0
 17 48  1  0
 17 49  1  0
 19 50  1  0
 20 51  1  0
 21 52  1  0
 22 53  1  0
 23 54  1  0
 24 55  1  0
 24 56  1  0
 25 57  1  0
 25 58  1  0
 27 59  1  0
 28 60  1  0
 29 61  1  0
M  CHG  1  13  -1
M  END
>  <UniqueID>  (85) 
80

>  <SMILES>  (85) 
CCn1cc(C2CCN(Cc3c[n-]nc3CCc3ccccc3)CC2)c2cccnc21

>  <Energy>  (85) 
144.43954641459413

>  <Genealogy>  (85) 
CCn1cc(C2CCN(Cc3c[n-]nc3CCc3ccccc3)CC2)c2cccnc21 (protonated)
CCn1cc(C2CCN(Cc3c[n-]nc3CCc3ccccc3)CC2)c2cccnc21 (3D coordinates assigned)
CCn1cc(C2CCN(Cc3c[n-]nc3CCc3ccccc3)CC2)c2cccnc21 (nonaromatic ring conformer: 144.43954641459413 kcal/mol)

>  <smiles>  (85) 
CCn1cc(C2CCN(Cc3c[nH]nc3CCc3ccccc3)CC2)c2cccnc21

>  <score_type>  (85) 
oracle

>  <origin>  (85) 
adg

>  <m_score__min__energy>  (85) 
-12.09

>  <m_primary>  (85) 
energy

$$$$
85:0
     RDKit          3D

 48 51  0  0  1  0  0  0  0  0999 V2000
   59.4580   34.9710   46.6490 C   0  0  0  0  0  0  0  0  0  0  0  0
   58.1770   33.8000   46.3190 S   0  0  0  0  0  0  0  0  0  0  0  0
   57.6740   33.3010   47.6640 O   0  0  0  0  0  0  0  0  0  0  0  0
   57.0980   34.4580   45.5430 O   0  0  0  0  0  0  0  0  0  0  0  0
   58.8140   32.4910   45.4000 N   0  0  0  0  0  0  0  0  0  0  0  0
   58.0820   31.8400   44.3660 C   0  0  0  0  0  0  0  0  0  0  0  0
   58.1340   32.3000   43.0580 C   0  0  0  0  0  0  0  0  0  0  0  0
   57.4240   31.6730   42.0400 C   0  0  0  0  0  0  0  0  0  0  0  0
   56.6440   30.5670   42.3040 C   0  0  0  0  0  0  0  0  0  0  0  0
   56.5810   30.1020   43.5780 C   0  0  0  0  0  0  0  0  0  0  0  0
   57.2890   30.7310   44.5880 C   0  0  0  0  0  0  0  0  0  0  0  0
   60.5660   31.0180   48.8780 N   0  0  0  0  0  0  0  0  0  0  0  0
   59.9430   30.2160   48.0590 C   0  0  0  0  0  0  0  0  0  0  0  0
   58.8580   30.6780   47.4100 N   0  0  0  0  0  0  0  0  0  0  0  0
   58.2270   29.8450   46.5700 C   0  0  0  0  0  0  0  0  0  0  0  0
   57.1850   30.1970   45.9090 N   0  0  0  0  0  0  0  0  0  0  0  0
   61.5750   31.9180   48.4310 C   0  0  0  0  0  0  0  0  0  0  0  0
   62.5290   31.5800   47.4950 C   0  0  0  0  0  0  0  0  0  0  0  0
   63.4470   32.5450   47.1500 C   0  0  0  0  0  0  0  0  0  0  0  0
   63.4330   33.8200   47.7120 C   0  0  0  0  0  0  0  0  0  0  0  0
   62.4870   34.1540   48.6390 C   0  0  0  0  0  0  0  0  0  0  0  0
   61.5610   33.1990   48.9940 C   0  0  0  0  0  0  0  0  0  0  0  0
   60.3960   28.9610   47.8840 N   0  0  0  0  0  0  0  0  0  0  0  0
   59.7810   28.0940   47.0430 C   0  0  0  0  0  0  0  0  0  0  0  0
   58.6660   28.5330   46.3610 C   0  0  0  0  0  0  0  0  0  0  0  0
   58.1400   27.4270   45.4900 C   0  0  0  0  0  0  0  0  0  0  0  0
   59.2830   26.4470   45.4510 C   0  0  0  0  0  0  0  0  0  0  0  0
   60.0090   26.7410   46.6540 N   0  0  0  0  0  0  0  0  0  0  0  0
   59.5809   35.0833   47.7363 H   0  0  0  0  0  0  0  0  0  0  0  0
   60.4013   34.6165   46.2081 H   0  0  0  0  0  0  0  0  0  0  0  0
   59.1894   35.9423   46.2081 H   0  0  0  0  0  0  0  0  0  0  0  0
   59.7890   32.1230   45.5800 H   0  0  0  0  0  0  0  0  0  0  0  0
   58.7503   33.1798   42.8212 H   0  0  0  0  0  0  0  0  0  0  0  0
   57.4852   32.0634   41.0134 H   0  0  0  0  0  0  0  0  0  0  0  0
   56.0836   30.0710   41.4979 H   0  0  0  0  0  0  0  0  0  0  0  0
   55.9643   29.2209   43.8090 H   0  0  0  0  0  0  0  0  0  0  0  0
   58.4840   31.6470   47.5260 H   0  0  0  0  0  0  0  0  0  0  0  0
   62.5552   30.5781   47.0417 H   0  0  0  0  0  0  0  0  0  0  0  0
   64.2186   32.3016   46.4048 H   0  0  0  0  0  0  0  0  0  0  0  0
   64.1871   34.5608   47.4078 H   0  0  0  0  0  0  0  0  0  0  0  0
   62.4656   35.1575   49.0891 H   0  0  0  0  0  0  0  0  0  0  0  0
   60.7910   33.4492   49.7387 H   0  0  0  0  0  0  0  0  0  0  0  0
   61.2390   28.5820   48.3800 H   0  0  0  0  0  0  0  0  0  0  0  0
   57.2428   26.9693   45.9323 H   0  0  0  0  0  0  0  0  0  0  0  0
   57.8336   27.7726   44.4916 H   0  0  0  0  0  0  0  0  0  0  0  0
   58.9143   25.4107   45.4562 H   0  0  0  0  0  0  0  0  0  0  0  0
   59.8978   26.5375   44.5433 H   0  0  0  0  0  0  0  0  0  0  0  0
   60.6300   26.0970   47.2060 H   0  0  0  0  0  0  0  0  0  0  0  0
  1  2  1  0
  2  3  2  0
  2  4  2  0
  2  5  1  0
  5  6  1  0
  6  7  2  0
  7  8  1  0
  8  9  2  0
  9 10  1  0
 10 11  2  0
 11 12  1  0
 12 13  2  0
 13 14  1  0
 14 15  1  0
 15 16  2  0
 16 17  1  0
 17 18  2  0
 18 19  1  0
 19 20  2  0
 20 21  1  0
 21 22  2  0
 15 23  1  0
 23 24  1  0
 24 25  2  0
 25 26  1  0
 26 27  1  0
 27 28  1  0
 11  6  1  0
 25 13  1  0
 22 17  1  0
 28 24  1  0
  1 29  1  0
  1 30  1  0
  1 31  1  0
  5 32  1  0
  7 33  1  0
  8 34  1  0
  9 35  1  0
 10 36  1  0
 14 37  1  0
 18 38  1  0
 19 39  1  0
 20 40  1  0
 21 41  1  0
 22 42  1  0
 23 43  1  0
 26 44  1  0
 26 45  1  0
 27 46  1  0
 27 47  1  0
 28 48  1  0
M  END
>  <smiles>  (86) 
CS(=O)(=O)Nc1ccccc1N=c1[nH]c(=Nc2ccccc2)[nH]c2c1CCN2

>  <score_type>  (86) 
oracle

>  <origin>  (86) 
adg

>  <m_score__min__energy>  (86) 
-9.3200000000000003

>  <m_primary>  (86) 
energy

$$$$
86:0
     RDKit          3D

 23 24  0  0  0  0  0  0  0  0999 V2000
   60.2340   21.8040   45.2560 N   0  0  0  0  0  0  0  0  0  0  0  0
   58.8810   22.2200   45.0710 C   0  0  0  0  0  0  0  0  0  0  0  0
   58.1470   21.7790   43.9650 C   0  0  0  0  0  0  0  0  0  0  0  0
   56.8300   22.2190   43.8220 C   0  0  0  0  0  0  0  0  0  0  0  0
   56.1410   21.8470   42.8360 O   0  0  0  0  0  0  0  0  0  0  0  0
   56.2900   23.0540   44.7480 N   0  0  0  0  0  0  0  0  0  0  0  0
   57.0130   23.4660   45.8240 C   0  0  0  0  0  0  0  0  0  0  0  0
   56.4120   24.4180   46.8100 C   0  0  0  0  0  0  0  0  0  0  0  0
   56.7070   25.8420   46.4030 C   0  0  0  0  0  0  0  0  0  0  0  0
   55.6740   26.7070   45.9990 C   0  0  0  0  0  0  0  0  0  0  0  0
   54.3510   26.2810   45.9930 O   0  0  0  0  0  0  0  0  0  0  0  0
   55.9640   27.9740   45.6060 N   0  0  0  0  0  0  0  0  0  0  0  0
   57.2430   28.4270   45.5850 C   0  0  0  0  0  0  0  0  0  0  0  0
   57.4860   29.6060   45.2200 O   0  0  0  0  0  0  0  0  0  0  0  0
   58.2600   27.6080   45.9540 N   0  0  0  0  0  0  0  0  0  0  0  0
   58.0250   26.3320   46.3550 C   0  0  0  0  0  0  0  0  0  0  0  0
   58.9970   25.5990   46.6790 O   0  0  0  0  0  0  0  0  0  0  0  0
   58.3010   23.0560   45.9720 N   0  0  0  0  0  0  0  0  0  0  0  0
   61.0270   22.4570   45.0700 H   0  0  0  0  0  0  0  0  0  0  0  0
   60.4450   20.8340   45.5810 H   0  0  0  0  0  0  0  0  0  0  0  0
   58.5972   21.1011   43.2249 H   0  0  0  0  0  0  0  0  0  0  0  0
   55.3229   24.2675   46.8436 H   0  0  0  0  0  0  0  0  0  0  0  0
   56.8468   24.2300   47.8028 H   0  0  0  0  0  0  0  0  0  0  0  0
  1  2  1  0
  2  3  2  0
  3  4  1  0
  4  5  2  0
  4  6  1  0
  6  7  2  0
  7  8  1  0
  8  9  1  0
  9 10  2  0
 10 11  1  0
 10 12  1  0
 12 13  1  0
 13 14  2  0
 13 15  1  0
 15 16  1  0
 16 17  2  0
  7 18  1  0
 18  2  1  0
 16  9  1  0
  1 19  1  0
  1 20  1  0
  3 21  1  0
  8 22  1  0
  8 23  1  0
M  CHG  4  11  -1  12  -1  15  -1  18  -1
M  END
>  <UniqueID>  (87) 
81

>  <SMILES>  (87) 
Nc1cc(=O)nc(Cc2c([O-])[n-]c(=O)[n-]c2=O)[n-]1

>  <Energy>  (87) 
24.724870161165885

>  <Genealogy>  (87) 
Nc1cc(=O)nc(Cc2c([O-])[n-]c(=O)[n-]c2=O)[n-]1 (protonated)
Nc1cc(=O)nc(Cc2c([O-])[n-]c(=O)[n-]c2=O)[n-]1 (3D coordinates assigned)
Nc1cc(=O)nc(Cc2c([O-])[n-]c(=O)[n-]c2=O)[n-]1 (optimized conformer: 24.724870161165885 kcal/mol)

>  <smiles>  (87) 
Nc1cc(=O)nc(Cc2c(O)[nH]c(=O)[nH]c2=O)[nH]1

>  <score_type>  (87) 
oracle

>  <origin>  (87) 
adg

>  <m_score__min__energy>  (87) 
-14.99

>  <m_primary>  (87) 
energy

$$$$
87:0
     RDKit          3D

 33 34  0  0  0  0  0  0  0  0999 V2000
   59.2660   34.7840   48.2260 N   0  0  0  0  0  0  0  0  0  0  0  0
   59.9570   34.6140   46.6510 S   0  0  0  0  0  0  0  0  0  0  0  0
   59.6700   35.8470   45.8410 O   0  0  0  0  0  0  0  0  0  0  0  0
   61.4460   34.4530   46.7720 O   0  0  0  0  0  0  0  0  0  0  0  0
   59.2680   33.2040   45.8530 C   0  0  0  0  0  0  0  0  0  0  0  0
   58.3620   33.3720   44.7760 C   0  0  0  0  0  0  0  0  0  0  0  0
   57.7920   32.2550   44.1400 C   0  0  0  0  0  0  0  0  0  0  0  0
   58.1500   30.9890   44.6080 C   0  0  0  0  0  0  0  0  0  0  0  0
   59.0120   30.8250   45.6520 C   0  0  0  0  0  0  0  0  0  0  0  0
   59.5930   31.9080   46.3050 C   0  0  0  0  0  0  0  0  0  0  0  0
   59.1690   29.5190   45.9370 N   0  0  0  0  0  0  0  0  0  0  0  0
   58.3740   28.9110   45.0190 C   0  0  0  0  0  0  0  0  0  0  0  0
   58.1840   27.1260   44.9470 S   0  0  0  0  0  0  0  0  0  0  0  0
   57.3330   26.9990   46.5570 C   0  0  0  0  0  0  0  0  0  0  0  0
   56.0830   26.1900   46.4350 C   0  0  0  0  0  0  0  0  0  0  0  0
   55.0550   26.6890   45.9070 O   0  0  0  0  0  0  0  0  0  0  0  0
   56.0630   24.8700   46.8680 O   0  0  0  0  0  0  0  0  0  0  0  0
   57.7390   29.7790   44.1880 N   0  0  0  0  0  0  0  0  0  0  0  0
   56.7350   29.4710   43.1650 C   0  0  0  0  0  0  0  0  0  0  0  0
   55.3230   29.7410   43.6870 C   0  0  0  0  0  0  0  0  0  0  0  0
   55.1540   29.1940   44.9670 O   0  0  0  0  0  0  0  0  0  0  0  0
   58.4720   34.1080   48.2850 H   0  0  0  0  0  0  0  0  0  0  0  0
   58.8520   35.7420   48.2760 H   0  0  0  0  0  0  0  0  0  0  0  0
   58.1025   34.3850   44.4348 H   0  0  0  0  0  0  0  0  0  0  0  0
   57.0885   32.3743   43.3028 H   0  0  0  0  0  0  0  0  0  0  0  0
   60.2842   31.7580   47.1475 H   0  0  0  0  0  0  0  0  0  0  0  0
   58.0047   26.5173   47.2828 H   0  0  0  0  0  0  0  0  0  0  0  0
   57.0659   28.0111   46.8950 H   0  0  0  0  0  0  0  0  0  0  0  0
   56.9180   30.0986   42.2804 H   0  0  0  0  0  0  0  0  0  0  0  0
   56.8152   28.4055   42.9036 H   0  0  0  0  0  0  0  0  0  0  0  0
   55.1571   30.8274   43.7340 H   0  0  0  0  0  0  0  0  0  0  0  0
   54.5984   29.2731   43.0043 H   0  0  0  0  0  0  0  0  0  0  0  0
   55.1410   28.2070   44.8570 H   0  0  0  0  0  0  0  0  0  0  0  0
  1  2  1  0
  2  3  2  0
  2  4  2  0
  2  5  1  0
  5  6  2  0
  6  7  1  0
  7  8  2  0
  8  9  1  0
  9 10  2  0
  9 11  1  0
 11 12  2  0
 12 13  1  0
 13 14  1  0
 14 15  1  0
 15 16  2  0
 15 17  1  0
 12 18  1  0
 18 19  1  0
 19 20  1  0
 20 21  1  0
 10  5  1  0
 18  8  1  0
  1 22  1  0
  1 23  1  0
  6 24  1  0
  7 25  1  0
 10 26  1  0
 14 27  1  0
 14 28  1  0
 19 29  1  0
 19 30  1  0
 20 31  1  0
 20 32  1  0
 21 33  1  0
M  CHG  1  17  -1
M  END
>  <UniqueID>  (88) 
82

>  <SMILES>  (88) 
NS(=O)(=O)c1ccc2c(c1)nc(SCC(=O)[O-])n2CCO

>  <Energy>  (88) 
61.10940660834479

>  <Genealogy>  (88) 
NS(=O)(=O)c1ccc2c(c1)nc(SCC(=O)[O-])n2CCO (protonated)
NS(=O)(=O)c1ccc2c(c1)nc(SCC(=O)[O-])n2CCO (3D coordinates assigned)
NS(=O)(=O)c1ccc2c(c1)nc(SCC(=O)[O-])n2CCO (optimized conformer: 61.10940660834479 kcal/mol)

>  <smiles>  (88) 
NS(=O)(=O)c1ccc2c(c1)nc(SCC(=O)O)n2CCO

>  <score_type>  (88) 
oracle

>  <origin>  (88) 
adg

>  <m_score__min__energy>  (88) 
-10.970000000000001

>  <m_primary>  (88) 
energy

$$$$
88:0
     RDKit          3D

 21 21  0  0  0  0  0  0  0  0999 V2000
   58.1440   27.2620   43.5440 C   0  0  0  0  0  0  0  0  0  0  0  0
   57.3580   28.2410   44.3730 C   0  0  0  0  0  0  0  0  0  0  0  0
   57.0000   29.5890   43.7980 C   0  0  0  0  0  0  0  0  0  0  0  0
   57.0260   27.9020   45.6310 C   0  0  0  0  0  0  0  0  0  0  0  0
   57.0620   26.5140   46.1350 C   0  0  0  0  0  0  0  0  0  0  0  0
   55.8760   25.7710   46.2970 C   0  0  0  0  0  0  0  0  0  0  0  0
   54.6280   26.2960   45.9630 O   0  0  0  0  0  0  0  0  0  0  0  0
   55.9420   24.5040   46.7820 N   0  0  0  0  0  0  0  0  0  0  0  0
   57.1270   23.9380   47.1230 C   0  0  0  0  0  0  0  0  0  0  0  0
   57.1570   22.7610   47.5670 O   0  0  0  0  0  0  0  0  0  0  0  0
   58.2800   24.6410   46.9910 N   0  0  0  0  0  0  0  0  0  0  0  0
   58.2740   25.9120   46.5130 C   0  0  0  0  0  0  0  0  0  0  0  0
   59.3610   26.5430   46.4260 O   0  0  0  0  0  0  0  0  0  0  0  0
   58.6933   26.5778   44.2074 H   0  0  0  0  0  0  0  0  0  0  0  0
   57.4563   26.6839   42.9092 H   0  0  0  0  0  0  0  0  0  0  0  0
   58.8570   27.8085   42.9092 H   0  0  0  0  0  0  0  0  0  0  0  0
   56.8115   30.2987   44.6171 H   0  0  0  0  0  0  0  0  0  0  0  0
   57.8318   29.9562   43.1788 H   0  0  0  0  0  0  0  0  0  0  0  0
   56.0957   29.4951   43.1788 H   0  0  0  0  0  0  0  0  0  0  0  0
   56.7114   28.6993   46.3204 H   0  0  0  0  0  0  0  0  0  0  0  0
   53.7660   25.9640   46.3780 H   0  0  0  0  0  0  0  0  0  0  0  0
  1  2  1  0
  2  3  1  0
  2  4  2  3
  4  5  1  0
  5  6  2  0
  6  7  1  0
  6  8  1  0
  8  9  1  0
  9 10  2  0
  9 11  1  0
 11 12  1  0
 12 13  2  0
 12  5  1  0
  1 14  1  0
  1 15  1  0
  1 16  1  0
  3 17  1  0
  3 18  1  0
  3 19  1  0
  4 20  1  0
  7 21  1  0
M  CHG  2   8  -1  11  -1
M  END
>  <UniqueID>  (89) 
83

>  <SMILES>  (89) 
CC(C)=Cc1c(O)[n-]c(=O)[n-]c1=O

>  <Energy>  (89) 
25.801606790197592

>  <Genealogy>  (89) 
CC(C)=Cc1c(O)[n-]c(=O)[n-]c1=O (protonated)
CC(C)=Cc1c(O)[n-]c(=O)[n-]c1=O (3D coordinates assigned)
CC(C)=Cc1c(O)[n-]c(=O)[n-]c1=O (optimized conformer: 25.801606790197592 kcal/mol)

>  <smiles>  (89) 
CC(C)=Cc1c(O)[nH]c(=O)[nH]c1=O

>  <score_type>  (89) 
oracle

>  <origin>  (89) 
adg

>  <m_score__min__energy>  (89) 
-9.5299999999999994

>  <m_primary>  (89) 
energy

$$$$
89:0
     RDKit          3D

 28 29  0  0  0  0  0  0  0  0999 V2000
   57.7680   33.3610   46.8370 C   0  0  0  0  0  0  0  0  0  0  0  0
   57.7470   32.3530   45.7780 N   0  0  0  0  0  0  0  0  0  0  0  0
   57.7830   31.0610   46.1210 N   0  0  0  0  0  0  0  0  0  0  0  0
   57.7660   30.0610   45.1990 C   0  0  0  0  0  0  0  0  0  0  0  0
   57.8140   28.6520   45.6410 C   0  0  0  0  0  0  0  0  0  0  0  0
   58.4100   28.3510   46.7110 O   0  0  0  0  0  0  0  0  0  0  0  0
   57.2120   27.6190   44.8430 N   0  0  0  0  0  0  0  0  0  0  0  0
   57.0510   26.2670   45.3010 C   0  0  0  0  0  0  0  0  0  0  0  0
   58.0800   25.3400   45.0740 C   0  0  0  0  0  0  0  0  0  0  0  0
   57.9470   24.0140   45.5010 C   0  0  0  0  0  0  0  0  0  0  0  0
   59.2470   22.8700   45.2290 Cl  0  0  0  0  0  0  0  0  0  0  0  0
   56.7750   23.6030   46.1440 C   0  0  0  0  0  0  0  0  0  0  0  0
   55.7340   24.5110   46.3500 C   0  0  0  0  0  0  0  0  0  0  0  0
   55.8590   25.8360   45.9200 C   0  0  0  0  0  0  0  0  0  0  0  0
   54.7890   26.7080   46.0870 O   0  0  0  0  0  0  0  0  0  0  0  0
   57.7110   30.3960   43.8410 C   0  0  0  0  0  0  0  0  0  0  0  0
   57.6720   31.7370   43.4720 C   0  0  0  0  0  0  0  0  0  0  0  0
   57.6900   32.7210   44.4610 C   0  0  0  0  0  0  0  0  0  0  0  0
   57.6550   33.9370   44.1300 O   0  0  0  0  0  0  0  0  0  0  0  0
   57.7576   32.8628   47.8177 H   0  0  0  0  0  0  0  0  0  0  0  0
   58.6790   33.9705   46.7450 H   0  0  0  0  0  0  0  0  0  0  0  0
   56.8831   34.0080   46.7450 H   0  0  0  0  0  0  0  0  0  0  0  0
   57.0230   27.8150   43.8350 H   0  0  0  0  0  0  0  0  0  0  0  0
   58.9973   25.6579   44.5569 H   0  0  0  0  0  0  0  0  0  0  0  0
   56.6730   22.5632   46.4880 H   0  0  0  0  0  0  0  0  0  0  0  0
   54.8121   24.1828   46.8524 H   0  0  0  0  0  0  0  0  0  0  0  0
   57.6987   29.6077   43.0739 H   0  0  0  0  0  0  0  0  0  0  0  0
   57.6274   32.0190   42.4097 H   0  0  0  0  0  0  0  0  0  0  0  0
  1  2  1  0
  2  3  1  0
  3  4  2  0
  4  5  1  0
  5  6  2  0
  5  7  1  0
  7  8  1  0
  8  9  2  0
  9 10  1  0
 10 11  1  0
 10 12  2  0
 12 13  1  0
 13 14  2  0
 14 15  1  0
  4 16  1  0
 16 17  2  0
 17 18  1  0
 18 19  2  0
 18  2  1  0
 14  8  1  0
  1 20  1  0
  1 21  1  0
  1 22  1  0
  7 23  1  0
  9 24  1  0
 12 25  1  0
 13 26  1  0
 16 27  1  0
 17 28  1  0
M  CHG  1  15  -1
M  END
>  <UniqueID>  (90) 
84

>  <SMILES>  (90) 
Cn1nc(C(=O)Nc2cc(Cl)ccc2[O-])ccc1=O

>  <Energy>  (90) 
34.914358604961556

>  <Genealogy>  (90) 
Cn1nc(C(=O)Nc2cc(Cl)ccc2[O-])ccc1=O (protonated)
Cn1nc(C(=O)Nc2cc(Cl)ccc2[O-])ccc1=O (3D coordinates assigned)
Cn1nc(C(=O)Nc2cc(Cl)ccc2[O-])ccc1=O (optimized conformer: 34.914358604961556 kcal/mol)

>  <smiles>  (90) 
Cn1nc(C(=O)Nc2cc(Cl)ccc2O)ccc1=O

>  <score_type>  (90) 
oracle

>  <origin>  (90) 
adg

>  <m_score__min__energy>  (90) 
-10.73

>  <m_primary>  (90) 
energy

$$$$
90:0
     RDKit          3D

 53 55  0  0  0  0  0  0  0  0999 V2000
   53.7160   23.7200   45.0630 C   0  0  0  0  0  0  0  0  0  0  0  0
   54.6740   24.7390   45.5790 C   0  0  0  0  0  0  0  0  0  0  0  0
   55.9630   24.5010   46.0060 C   0  0  0  0  0  0  0  0  0  0  0  0
   56.4110   25.7660   46.3500 C   0  0  0  0  0  0  0  0  0  0  0  0
   57.5990   26.0920   46.7680 N   0  0  0  0  0  0  0  0  0  0  0  0
   58.5650   26.8850   46.0630 C   0  0  0  0  0  0  0  0  0  0  0  0
   59.6160   26.3300   45.6470 O   0  0  0  0  0  0  0  0  0  0  0  0
   58.3220   28.3390   45.7460 C   0  0  0  0  0  0  0  0  0  0  0  0
   57.6760   28.5370   44.3670 C   0  0  0  0  0  0  0  0  0  0  0  0
   57.2440   29.9660   44.1510 C   0  0  0  0  0  0  0  0  0  0  0  0
   57.0180   30.3740   42.9810 O   0  0  0  0  0  0  0  0  0  0  0  0
   57.0210   30.8610   45.2480 N   0  0  0  0  0  0  0  0  0  0  0  0
   57.7590   32.0640   45.5200 C   0  0  0  0  0  0  0  0  0  0  0  0
   57.6960   33.1430   44.6260 C   0  0  0  0  0  0  0  0  0  0  0  0
   58.3950   34.3160   44.8860 C   0  0  0  0  0  0  0  0  0  0  0  0
   59.1710   34.4290   46.0350 C   0  0  0  0  0  0  0  0  0  0  0  0
   59.2540   33.3700   46.9560 C   0  0  0  0  0  0  0  0  0  0  0  0
   60.2910   33.5480   48.3950 S   0  0  0  0  0  0  0  0  0  0  0  0
   60.8750   34.9330   48.3790 O   0  0  0  0  0  0  0  0  0  0  0  0
   59.4440   33.3830   49.6270 O   0  0  0  0  0  0  0  0  0  0  0  0
   61.5960   32.3730   48.4340 N   0  0  0  0  0  0  0  0  0  0  0  0
   62.5880   32.6830   49.4960 C   0  0  0  0  0  0  0  0  0  0  0  0
   63.8550   33.3650   48.9510 C   0  0  0  0  0  0  0  0  0  0  0  0
   63.5270   34.2080   47.8710 O   0  0  0  0  0  0  0  0  0  0  0  0
   63.1370   33.4350   46.7490 C   0  0  0  0  0  0  0  0  0  0  0  0
   62.2290   32.2320   47.1050 C   0  0  0  0  0  0  0  0  0  0  0  0
   58.4940   32.1900   46.7240 C   0  0  0  0  0  0  0  0  0  0  0  0
   58.5220   31.0370   47.7010 C   0  0  0  0  0  0  0  0  0  0  0  0
   55.4480   26.6780   46.1200 N   0  0  0  0  0  0  0  0  0  0  0  0
   54.4190   26.0250   45.6620 O   0  0  0  0  0  0  0  0  0  0  0  0
   53.2345   23.2078   45.9091 H   0  0  0  0  0  0  0  0  0  0  0  0
   52.9489   24.2153   44.4496 H   0  0  0  0  0  0  0  0  0  0  0  0
   54.2577   22.9849   44.4496 H   0  0  0  0  0  0  0  0  0  0  0  0
   56.5022   23.5438   46.0602 H   0  0  0  0  0  0  0  0  0  0  0  0
   57.6553   28.7611   46.5124 H   0  0  0  0  0  0  0  0  0  0  0  0
   59.2972   28.8478   45.7359 H   0  0  0  0  0  0  0  0  0  0  0  0
   58.4050   28.2640   43.5898 H   0  0  0  0  0  0  0  0  0  0  0  0
   56.7825   27.8977   44.3129 H   0  0  0  0  0  0  0  0  0  0  0  0
   57.0890   33.0603   43.7124 H   0  0  0  0  0  0  0  0  0  0  0  0
   58.3343   35.1579   44.1807 H   0  0  0  0  0  0  0  0  0  0  0  0
   59.7269   35.3589   46.2254 H   0  0  0  0  0  0  0  0  0  0  0  0
   61.1580   31.4470   48.6480 H   0  0  0  0  0  0  0  0  0  0  0  0
   62.1176   33.3525   50.2311 H   0  0  0  0  0  0  0  0  0  0  0  0
   62.8955   31.7290   49.9492 H   0  0  0  0  0  0  0  0  0  0  0  0
   64.3188   33.9619   49.7501 H   0  0  0  0  0  0  0  0  0  0  0  0
   64.5572   32.5929   48.6035 H   0  0  0  0  0  0  0  0  0  0  0  0
   62.5913   34.0871   46.0512 H   0  0  0  0  0  0  0  0  0  0  0  0
   64.0567   33.0232   46.3079 H   0  0  0  0  0  0  0  0  0  0  0  0
   61.4383   32.1499   46.3447 H   0  0  0  0  0  0  0  0  0  0  0  0
   62.8614   31.3323   47.1302 H   0  0  0  0  0  0  0  0  0  0  0  0
   58.5125   31.4275   48.7293 H   0  0  0  0  0  0  0  0  0  0  0  0
   57.6390   30.4004   47.5423 H   0  0  0  0  0  0  0  0  0  0  0  0
   59.4348   30.4440   47.5423 H   0  0  0  0  0  0  0  0  0  0  0  0
  1  2  1  0
  2  3  2  0
  3  4  1  0
  4  5  2  3
  5  6  1  0
  6  7  2  0
  6  8  1  0
  8  9  1  0
  9 10  1  0
 10 11  2  0
 10 12  1  0
 12 13  1  0
 13 14  2  0
 14 15  1  0
 15 16  2  0
 16 17  1  0
 17 18  1  0
 18 19  2  0
 18 20  2  0
 18 21  1  0
 21 22  1  0
 22 23  1  0
 23 24  1  0
 24 25  1  0
 25 26  1  0
 17 27  2  0
 27 28  1  0
  4 29  1  0
 29 30  1  0
 30  2  1  0
 27 13  1  0
 26 21  1  0
  1 31  1  0
  1 32  1  0
  1 33  1  0
  3 34  1  0
  8 35  1  0
  8 36  1  0
  9 37  1  0
  9 38  1  0
 14 39  1  0
 15 40  1  0
 16 41  1  0
 21 42  1  0
 22 43  1  0
 22 44  1  0
 23 45  1  0
 23 46  1  0
 25 47  1  0
 25 48  1  0
 26 49  1  0
 26 50  1  0
 28 51  1  0
 28 52  1  0
 28 53  1  0
M  CHG  3  12  -1  21   1  29  -1
M  END
>  <UniqueID>  (91) 
85

>  <SMILES>  (91) 
Cc1cc(=NC(=O)CCC(=O)[N-]c2cccc(S(=O)(=O)[NH+]3CCOCC3)c2C)[n-]o1

>  <Energy>  (91) 
108.71382035271408

>  <Genealogy>  (91) 
Cc1cc(=NC(=O)CCC(=O)[N-]c2cccc(S(=O)(=O)[NH+]3CCOCC3)c2C)[n-]o1 (protonated)
Cc1cc(=NC(=O)CCC(=O)[N-]c2cccc(S(=O)(=O)[NH+]3CCOCC3)c2C)[n-]o1 (3D coordinates assigned)
Cc1cc(=NC(=O)CCC(=O)[N-]c2cccc(S(=O)(=O)[NH+]3CCOCC3)c2C)[n-]o1 (nonaromatic ring conformer: 108.71382035271408 kcal/mol)

>  <smiles>  (91) 
Cc1cc(=NC(=O)CCC(=O)Nc2cccc(S(=O)(=O)N3CCOCC3)c2C)[nH]o1

>  <score_type>  (91) 
oracle

>  <origin>  (91) 
adg

>  <m_score__min__energy>  (91) 
-12.31

>  <m_primary>  (91) 
energy

$$$$
91:0
     RDKit          3D

 47 50  0  0  0  0  0  0  0  0999 V2000
   58.5940   27.4210   43.1930 O   0  0  0  0  0  0  0  0  0  0  0  0
   57.7660   27.8590   44.0390 C   0  0  0  0  0  0  0  0  0  0  0  0
   57.0620   26.9370   44.8880 N   0  0  0  0  0  0  0  0  0  0  0  0
   57.4020   25.5420   44.9520 C   0  0  0  0  0  0  0  0  0  0  0  0
   56.8900   24.6830   43.9670 C   0  0  0  0  0  0  0  0  0  0  0  0
   57.2490   23.3360   43.9440 C   0  0  0  0  0  0  0  0  0  0  0  0
   58.1180   22.8280   44.9090 C   0  0  0  0  0  0  0  0  0  0  0  0
   58.6140   23.6630   45.9130 C   0  0  0  0  0  0  0  0  0  0  0  0
   58.2500   25.0210   45.9640 C   0  0  0  0  0  0  0  0  0  0  0  0
   58.7190   25.8440   47.1030 C   0  0  0  0  0  0  0  0  0  0  0  0
   58.0440   25.8870   48.1690 O   0  0  0  0  0  0  0  0  0  0  0  0
   59.9590   26.5630   46.9940 N   0  0  0  0  0  0  0  0  0  0  0  0
   60.1040   27.8540   47.0560 C   0  0  0  0  0  0  0  0  0  0  0  0
   60.3520   28.6480   45.9900 N   0  0  0  0  0  0  0  0  0  0  0  0
   60.4710   29.9340   46.3180 N   0  0  0  0  0  0  0  0  0  0  0  0
   60.3060   30.1640   47.6400 C   0  0  0  0  0  0  0  0  0  0  0  0
   60.4630   31.5100   48.2690 C   0  0  0  0  0  0  0  0  0  0  0  0
   59.7730   32.5520   47.4350 C   0  0  0  0  0  0  0  0  0  0  0  0
   60.5130   33.3640   46.5590 C   0  0  0  0  0  0  0  0  0  0  0  0
   59.8760   34.3590   45.8110 C   0  0  0  0  0  0  0  0  0  0  0  0
   58.4970   34.5550   45.9370 C   0  0  0  0  0  0  0  0  0  0  0  0
   57.7560   33.7620   46.8170 C   0  0  0  0  0  0  0  0  0  0  0  0
   58.3900   32.7660   47.5670 C   0  0  0  0  0  0  0  0  0  0  0  0
   60.0240   28.7320   48.4870 S   0  0  0  0  0  0  0  0  0  0  0  0
   57.5040   29.3150   44.1130 C   0  0  0  0  0  0  0  0  0  0  0  0
   58.5550   30.2180   43.8680 C   0  0  0  0  0  0  0  0  0  0  0  0
   58.3350   31.5970   43.9260 C   0  0  0  0  0  0  0  0  0  0  0  0
   57.0680   32.0920   44.2360 C   0  0  0  0  0  0  0  0  0  0  0  0
   56.0190   31.2080   44.4980 C   0  0  0  0  0  0  0  0  0  0  0  0
   56.2290   29.8260   44.4470 C   0  0  0  0  0  0  0  0  0  0  0  0
   55.1730   28.9750   44.7580 O   0  0  0  0  0  0  0  0  0  0  0  0
   56.1340   27.2290   45.2660 H   0  0  0  0  0  0  0  0  0  0  0  0
   56.1993   25.0761   43.2064 H   0  0  0  0  0  0  0  0  0  0  0  0
   56.8463   22.6733   43.1638 H   0  0  0  0  0  0  0  0  0  0  0  0
   58.4132   21.7688   44.8796 H   0  0  0  0  0  0  0  0  0  0  0  0
   59.2969   23.2541   46.6723 H   0  0  0  0  0  0  0  0  0  0  0  0
   60.0183   31.4958   49.2750 H   0  0  0  0  0  0  0  0  0  0  0  0
   61.5336   31.7535   48.3370 H   0  0  0  0  0  0  0  0  0  0  0  0
   61.5986   33.2162   46.4612 H   0  0  0  0  0  0  0  0  0  0  0  0
   60.4599   34.9880   45.1230 H   0  0  0  0  0  0  0  0  0  0  0  0
   57.9957   35.3335   45.3432 H   0  0  0  0  0  0  0  0  0  0  0  0
   56.6725   33.9212   46.9201 H   0  0  0  0  0  0  0  0  0  0  0  0
   57.8040   32.1477   48.2629 H   0  0  0  0  0  0  0  0  0  0  0  0
   59.5582   29.8354   43.6288 H   0  0  0  0  0  0  0  0  0  0  0  0
   59.1627   32.2936   43.7268 H   0  0  0  0  0  0  0  0  0  0  0  0
   56.8954   33.1777   44.2740 H   0  0  0  0  0  0  0  0  0  0  0  0
   55.0219   31.6008   44.7459 H   0  0  0  0  0  0  0  0  0  0  0  0
  1  2  2  0
  2  3  1  0
  3  4  1  0
  4  5  2  0
  5  6  1  0
  6  7  2  0
  7  8  1  0
  8  9  2  0
  9 10  1  0
 10 11  2  0
 10 12  1  0
 12 13  2  3
 13 14  1  0
 14 15  1  0
 15 16  2  0
 16 17  1  0
 17 18  1  0
 18 19  2  0
 19 20  1  0
 20 21  2  0
 21 22  1  0
 22 23  2  0
 16 24  1  0
  2 25  1  0
 25 26  2  0
 26 27  1  0
 27 28  2  0
 28 29  1  0
 29 30  2  0
 30 31  1  0
  9  4  1  0
 24 13  1  0
 30 25  1  0
 23 18  1  0
  3 32  1  0
  5 33  1  0
  6 34  1  0
  7 35  1  0
  8 36  1  0
 17 37  1  0
 17 38  1  0
 19 39  1  0
 20 40  1  0
 21 41  1  0
 22 42  1  0
 23 43  1  0
 26 44  1  0
 27 45  1  0
 28 46  1  0
 29 47  1  0
M  CHG  2  14  -1  31  -1
M  END
>  <UniqueID>  (92) 
86

>  <SMILES>  (92) 
O=C(Nc1ccccc1C(=O)N=c1[n-]nc(Cc2ccccc2)s1)c1ccccc1[O-]

>  <Energy>  (92) 
98.86292267623413

>  <Genealogy>  (92) 
O=C(Nc1ccccc1C(=O)N=c1[n-]nc(Cc2ccccc2)s1)c1ccccc1[O-] (protonated)
O=C(Nc1ccccc1C(=O)N=c1[n-]nc(Cc2ccccc2)s1)c1ccccc1[O-] (3D coordinates assigned)
O=C(Nc1ccccc1C(=O)N=c1[n-]nc(Cc2ccccc2)s1)c1ccccc1[O-] (optimized conformer: 98.86292267623413 kcal/mol)

>  <smiles>  (92) 
O=C(Nc1ccccc1C(=O)N=c1[nH]nc(Cc2ccccc2)s1)c1ccccc1O

>  <score_type>  (92) 
oracle

>  <origin>  (92) 
adg

>  <m_score__min__energy>  (92) 
-15.449999999999999

>  <m_primary>  (92) 
energy

$$$$
92:0
     RDKit          3D

 53 54  0  0  1  0  0  0  0  0999 V2000
   60.2430   34.4510   46.6780 C   0  0  0  0  0  0  0  0  0  0  0  0
   59.2700   33.5040   46.0550 C   0  0  0  0  0  0  0  0  0  0  0  0
   59.4140   32.1690   46.3890 C   0  0  0  0  0  0  0  0  0  0  0  0
   58.5280   31.2690   45.8290 C   0  0  0  0  0  0  0  0  0  0  0  0
   57.5270   31.6660   44.9630 C   0  0  0  0  0  0  0  0  0  0  0  0
   57.8260   22.7120   46.4400 N   0  0  0  0  0  0  0  0  0  0  0  0
   57.0600   29.4130   44.4860 C   0  0  0  0  0  0  0  0  0  0  0  0
   56.8680   28.6670   45.6090 N   0  0  0  0  0  0  0  0  0  0  0  0
   57.2720   27.3850   45.6490 C   0  0  0  0  0  0  0  0  0  0  0  0
   57.1040   26.5080   46.8210 C   0  0  0  0  0  0  0  0  0  0  0  0
   56.7690   25.1340   46.4600 N   0  0  0  0  0  0  0  0  0  0  0  0
   55.4910   24.9550   45.8150 C   0  0  0  0  0  0  0  0  0  0  0  0
   54.8180   25.9860   45.6380 O   0  0  0  0  0  0  0  0  0  0  0  0
   55.1230   23.5860   45.4400 C   0  0  0  0  0  0  0  0  0  0  0  0
   54.8420   23.4540   43.9710 C   0  0  0  0  0  0  0  0  0  0  0  0
   55.9050   22.6530   43.2810 C   0  0  0  0  0  0  0  0  0  0  0  0
   57.2620   23.1430   43.7470 C   0  0  0  0  0  0  0  0  0  0  0  0
   58.1560   22.0070   44.1520 C   0  0  0  0  0  0  0  0  0  0  0  0
   58.0340   21.7420   45.6160 C   0  0  0  0  0  0  0  0  0  0  0  0
   58.1360   20.4700   46.1330 O   0  0  0  0  0  0  0  0  0  0  0  0
   56.6690   30.6550   44.4430 N   0  0  0  0  0  0  0  0  0  0  0  0
   57.3860   22.4050   47.7020 O   0  0  0  0  0  0  0  0  0  0  0  0
   57.8870   26.8480   44.5210 C   0  0  0  0  0  0  0  0  0  0  0  0
   58.0900   27.5930   43.3710 C   0  0  0  0  0  0  0  0  0  0  0  0
   58.6450   27.1100   42.3500 O   0  0  0  0  0  0  0  0  0  0  0  0
   57.6560   28.8860   43.3990 N   0  0  0  0  0  0  0  0  0  0  0  0
   57.3960   33.0010   44.6400 C   0  0  0  0  0  0  0  0  0  0  0  0
   58.2740   33.9420   45.1870 C   0  0  0  0  0  0  0  0  0  0  0  0
   60.1719   34.3818   47.7735 H   0  0  0  0  0  0  0  0  0  0  0  0
   61.2632   34.1906   46.3596 H   0  0  0  0  0  0  0  0  0  0  0  0
   60.0104   35.4779   46.3596 H   0  0  0  0  0  0  0  0  0  0  0  0
   60.2059   31.8361   47.0761 H   0  0  0  0  0  0  0  0  0  0  0  0
   58.6224   30.2023   46.0805 H   0  0  0  0  0  0  0  0  0  0  0  0
   56.4080   29.0710   46.4530 H   0  0  0  0  0  0  0  0  0  0  0  0
   58.0442   26.5014   47.3919 H   0  0  0  0  0  0  0  0  0  0  0  0
   56.2674   26.9065   47.4137 H   0  0  0  0  0  0  0  0  0  0  0  0
   57.4050   24.3290   46.6520 H   0  0  0  0  0  0  0  0  0  0  0  0
   55.9514   22.9121   45.7037 H   0  0  0  0  0  0  0  0  0  0  0  0
   54.2034   23.3237   45.9836 H   0  0  0  0  0  0  0  0  0  0  0  0
   53.8720   22.9533   43.8357 H   0  0  0  0  0  0  0  0  0  0  0  0
   54.8260   24.4614   43.5295 H   0  0  0  0  0  0  0  0  0  0  0  0
   55.7890   21.5887   43.5335 H   0  0  0  0  0  0  0  0  0  0  0  0
   55.8170   22.7733   42.1912 H   0  0  0  0  0  0  0  0  0  0  0  0
   57.7410   23.6981   42.9270 H   0  0  0  0  0  0  0  0  0  0  0  0
   57.1096   23.7880   44.6250 H   0  0  0  0  0  0  0  0  0  0  0  0
   57.8676   21.1032   43.5953 H   0  0  0  0  0  0  0  0  0  0  0  0
   59.1981   22.2760   43.9248 H   0  0  0  0  0  0  0  0  0  0  0  0
   58.6690   19.7530   45.6510 H   0  0  0  0  0  0  0  0  0  0  0  0
   57.7570   21.5630   48.1320 H   0  0  0  0  0  0  0  0  0  0  0  0
   58.2218   25.8004   44.5439 H   0  0  0  0  0  0  0  0  0  0  0  0
   57.8100   29.4330   42.5390 H   0  0  0  0  0  0  0  0  0  0  0  0
   56.6010   33.3251   43.9523 H   0  0  0  0  0  0  0  0  0  0  0  0
   58.1792   35.0088   44.9359 H   0  0  0  0  0  0  0  0  0  0  0  0
  1  2  1  0
  2  3  2  0
  3  4  1  0
  4  5  2  0
  5  6  1  0
  6  7  2  0
  7  8  1  0
  8  9  1  0
  9 10  1  0
 10 11  1  0
 11 12  1  0
 12 13  2  0
 12 14  1  0
 14 15  1  0
 15 16  1  0
 16 17  1  0
 17 18  1  0
 18 19  1  0
 19 20  1  0
 19 21  2  0
 21 22  1  0
  9 23  2  0
 23 24  1  0
 24 25  2  0
 24 26  1  0
  5 27  1  0
 27 28  2  0
 28  2  1  0
 26  7  1  0
  1 29  1  0
  1 30  1  0
  1 31  1  0
  3 32  1  0
  4 33  1  0
  8 34  1  0
 10 35  1  0
 10 36  1  0
 11 37  1  0
 14 38  1  0
 14 39  1  0
 15 40  1  0
 15 41  1  0
 16 42  1  0
 16 43  1  0
 17 44  1  0
 17 45  1  0
 18 46  1  0
 18 47  1  0
 20 48  1  0
 22 49  1  0
 23 50  1  0
 26 51  1  0
 27 52  1  0
 28 53  1  0
M  END
>  <smiles>  (93) 
Cc1ccc(N=c2[nH]c(CNC(=O)CCCCCC(O)=NO)cc(=O)[nH]2)cc1

>  <score_type>  (93) 
oracle

>  <origin>  (93) 
adg

>  <m_score__min__energy>  (93) 
-9.2300000000000004

>  <m_primary>  (93) 
energy

$$$$
