0:0
     RDKit          3D

 65 69  0  0  0  0  0  0  0  0999 V2000
   59.6740   35.4720   46.9070 O   0  0  0  0  0  0  0  0  0  0  0  0
   59.9840   34.2490   46.8920 C   0  0  0  0  0  0  0  0  0  0  0  0
   61.2720   33.8400   47.4930 C   0  0  0  0  0  0  0  0  0  0  0  0
   62.3720   33.6410   46.6420 C   0  0  0  0  0  0  0  0  0  0  0  0
   63.6050   33.2420   47.1590 C   0  0  0  0  0  0  0  0  0  0  0  0
   63.7530   33.0300   48.5290 C   0  0  0  0  0  0  0  0  0  0  0  0
   62.6700   33.2210   49.3890 C   0  0  0  0  0  0  0  0  0  0  0  0
   61.4210   33.6310   48.8900 C   0  0  0  0  0  0  0  0  0  0  0  0
   60.2840   33.8890   49.8670 C   0  0  0  0  0  0  0  0  0  0  0  0
   59.6980   32.6270   50.3860 N   0  0  0  0  0  0  0  0  0  0  0  0
   58.9160   31.9090   49.3420 C   0  0  0  0  0  0  0  0  0  0  0  0
   59.4350   30.5070   49.1210 C   0  0  0  0  0  0  0  0  0  0  0  0
   60.6320   30.1030   49.7360 C   0  0  0  0  0  0  0  0  0  0  0  0
   61.1000   28.7960   49.5810 C   0  0  0  0  0  0  0  0  0  0  0  0
   60.3790   27.8820   48.8060 C   0  0  0  0  0  0  0  0  0  0  0  0
   59.1940   28.2780   48.1820 C   0  0  0  0  0  0  0  0  0  0  0  0
   58.7200   29.5840   48.3400 C   0  0  0  0  0  0  0  0  0  0  0  0
   58.9180   32.8460   51.6360 C   0  0  0  0  0  0  0  0  0  0  0  0
   57.9950   31.7000   52.0180 C   0  0  0  0  0  0  0  0  0  0  0  0
   58.5200   30.4640   52.4360 C   0  0  0  0  0  0  0  0  0  0  0  0
   57.6670   29.4170   52.7980 C   0  0  0  0  0  0  0  0  0  0  0  0
   56.2830   29.5980   52.7670 C   0  0  0  0  0  0  0  0  0  0  0  0
   55.7500   30.8300   52.3830 C   0  0  0  0  0  0  0  0  0  0  0  0
   56.5980   31.8790   52.0180 C   0  0  0  0  0  0  0  0  0  0  0  0
   59.0670   33.2860   46.3230 N   0  0  0  0  0  0  0  0  0  0  0  0
   57.6190   33.5400   46.3000 C   0  0  0  0  0  0  0  0  0  0  0  0
   57.0280   33.0430   44.9860 C   0  0  0  0  0  0  0  0  0  0  0  0
   57.3780   31.5990   44.7690 C   0  0  0  0  0  0  0  0  0  0  0  0
   56.5210   30.7790   44.0170 C   0  0  0  0  0  0  0  0  0  0  0  0
   56.8520   29.4430   43.7820 C   0  0  0  0  0  0  0  0  0  0  0  0
   58.0440   28.9180   44.2860 C   0  0  0  0  0  0  0  0  0  0  0  0
   58.9110   29.7300   45.0210 C   0  0  0  0  0  0  0  0  0  0  0  0
   58.5910   31.0750   45.2660 C   0  0  0  0  0  0  0  0  0  0  0  0
   59.5620   31.9250   46.0550 C   0  0  0  0  0  0  0  0  0  0  0  0
   62.2603   33.8010   45.5594 H   0  0  0  0  0  0  0  0  0  0  0  0
   64.4615   33.0945   46.4847 H   0  0  0  0  0  0  0  0  0  0  0  0
   64.7252   32.7115   48.9332 H   0  0  0  0  0  0  0  0  0  0  0  0
   62.7951   33.0490   50.4682 H   0  0  0  0  0  0  0  0  0  0  0  0
   60.6698   34.4757   50.7137 H   0  0  0  0  0  0  0  0  0  0  0  0
   59.4935   34.4350   49.3312 H   0  0  0  0  0  0  0  0  0  0  0  0
   60.4960   32.0110   50.6690 H   0  0  0  0  0  0  0  0  0  0  0  0
   57.8642   31.8540   49.6592 H   0  0  0  0  0  0  0  0  0  0  0  0
   59.0141   32.4641   48.3974 H   0  0  0  0  0  0  0  0  0  0  0  0
   61.2039   30.8202   50.3431 H   0  0  0  0  0  0  0  0  0  0  0  0
   62.0359   28.4856   50.0686 H   0  0  0  0  0  0  0  0  0  0  0  0
   60.7452   26.8515   48.6879 H   0  0  0  0  0  0  0  0  0  0  0  0
   58.6324   27.5611   47.5650 H   0  0  0  0  0  0  0  0  0  0  0  0
   57.7835   29.8898   47.8507 H   0  0  0  0  0  0  0  0  0  0  0  0
   59.6291   33.0026   52.4605 H   0  0  0  0  0  0  0  0  0  0  0  0
   58.2718   33.7166   51.4504 H   0  0  0  0  0  0  0  0  0  0  0  0
   59.6097   30.3200   52.4784 H   0  0  0  0  0  0  0  0  0  0  0  0
   58.0872   28.4488   53.1078 H   0  0  0  0  0  0  0  0  0  0  0  0
   55.6132   28.7708   53.0448 H   0  0  0  0  0  0  0  0  0  0  0  0
   54.6597   30.9753   52.3677 H   0  0  0  0  0  0  0  0  0  0  0  0
   56.1717   32.8509   51.7288 H   0  0  0  0  0  0  0  0  0  0  0  0
   57.1421   33.0107   47.1381 H   0  0  0  0  0  0  0  0  0  0  0  0
   57.4386   34.6211   46.3933 H   0  0  0  0  0  0  0  0  0  0  0  0
   55.9337   33.1502   45.0170 H   0  0  0  0  0  0  0  0  0  0  0  0
   57.4424   33.6392   44.1597 H   0  0  0  0  0  0  0  0  0  0  0  0
   55.5851   31.1909   43.6114 H   0  0  0  0  0  0  0  0  0  0  0  0
   56.1731   28.8032   43.1992 H   0  0  0  0  0  0  0  0  0  0  0  0
   58.3004   27.8639   44.1040 H   0  0  0  0  0  0  0  0  0  0  0  0
   59.8512   29.3127   45.4107 H   0  0  0  0  0  0  0  0  0  0  0  0
   59.7564   31.4293   47.0175 H   0  0  0  0  0  0  0  0  0  0  0  0
   60.4728   32.0256   45.4465 H   0  0  0  0  0  0  0  0  0  0  0  0
  1  2  2  0
  2  3  1  0
  3  4  2  0
  4  5  1  0
  5  6  2  0
  6  7  1  0
  7  8  2  0
  8  9  1  0
  9 10  1  0
 10 11  1  0
 11 12  1  0
 12 13  2  0
 13 14  1  0
 14 15  2  0
 15 16  1  0
 16 17  2  0
 10 18  1  0
 18 19  1  0
 19 20  2  0
 20 21  1  0
 21 22  2  0
 22 23  1  0
 23 24  2  0
  2 25  1  0
 25 26  1  0
 26 27  1  0
 27 28  1  0
 28 29  2  0
 29 30  1  0
 30 31  2  0
 31 32  1  0
 32 33  2  0
 33 34  1  0
  8  3  1  0
 17 12  1  0
 24 19  1  0
 34 25  1  0
 33 28  1  0
  4 35  1  0
  5 36  1  0
  6 37  1  0
  7 38  1  0
  9 39  1  0
  9 40  1  0
 10 41  1  0
 11 42  1  0
 11 43  1  0
 13 44  1  0
 14 45  1  0
 15 46  1  0
 16 47  1  0
 17 48  1  0
 18 49  1  0
 18 50  1  0
 20 51  1  0
 21 52  1  0
 22 53  1  0
 23 54  1  0
 24 55  1  0
 26 56  1  0
 26 57  1  0
 27 58  1  0
 27 59  1  0
 29 60  1  0
 30 61  1  0
 31 62  1  0
 32 63  1  0
 34 64  1  0
 34 65  1  0
M  CHG  1  10   1
M  END
>  <UniqueID>  (1) 
1

>  <SMILES>  (1) 
O=C(c1ccccc1C[NH+](Cc1ccccc1)Cc1ccccc1)N1CCc2ccccc2C1

>  <Energy>  (1) 
84.85842358895569

>  <Genealogy>  (1) 
O=C(c1ccccc1C[NH+](Cc1ccccc1)Cc1ccccc1)N1CCc2ccccc2C1 (protonated)
O=C(c1ccccc1C[NH+](Cc1ccccc1)Cc1ccccc1)N1CCc2ccccc2C1 (3D coordinates assigned)
O=C(c1ccccc1C[NH+](Cc1ccccc1)Cc1ccccc1)N1CCc2ccccc2C1 (nonaromatic ring conformer: 84.85842358895569 kcal/mol)

>  <smiles>  (1) 
O=C(c1ccccc1CN(Cc1ccccc1)Cc1ccccc1)N1CCc2ccccc2C1

>  <score_type>  (1) 
oracle

>  <origin>  (1) 
adg

>  <m_score__min__energy>  (1) 
-8.3200000000000003

>  <m_primary>  (1) 
energy

$$$$
1:0
     RDKit          3D

 44 46  0  0  1  0  0  0  0  0999 V2000
   59.7290   31.2020   49.5040 C   0  0  0  0  0  0  0  0  0  0  0  0
   60.0050   30.5660   48.2530 N   0  0  0  0  0  0  0  0  0  0  0  0
   61.3420   30.8020   47.8480 C   0  0  0  0  0  0  0  0  0  0  0  0
   59.4630   29.2620   48.0820 C   0  0  0  0  0  0  0  0  0  0  0  0
   58.5190   29.2360   46.9120 C   0  0  0  0  0  0  0  0  0  0  0  0
   57.8350   30.3840   46.5710 N   0  0  0  0  0  0  0  0  0  0  0  0
   58.1130   31.3430   45.8640 C   0  0  0  0  0  0  0  0  0  0  0  0
   58.7460   32.4060   46.4000 N   0  0  0  0  0  0  0  0  0  0  0  0
   59.0650   33.5240   45.7370 C   0  0  0  0  0  0  0  0  0  0  0  0
   59.6610   34.4730   46.3720 N   0  0  0  0  0  0  0  0  0  0  0  0
   60.8250   34.1630   47.1210 C   0  0  0  0  0  0  0  0  0  0  0  0
   61.9790   33.8040   46.4300 C   0  0  0  0  0  0  0  0  0  0  0  0
   63.1500   33.4810   47.0860 C   0  0  0  0  0  0  0  0  0  0  0  0
   63.1620   33.5190   48.4750 C   0  0  0  0  0  0  0  0  0  0  0  0
   64.6410   33.1110   49.3630 Cl  0  0  0  0  0  0  0  0  0  0  0  0
   62.0100   33.8780   49.1450 C   0  0  0  0  0  0  0  0  0  0  0  0
   60.8320   34.2030   48.5020 C   0  0  0  0  0  0  0  0  0  0  0  0
   58.7280   33.5870   44.4390 N   0  0  0  0  0  0  0  0  0  0  0  0
   58.0980   32.5510   43.8640 C   0  0  0  0  0  0  0  0  0  0  0  0
   57.7790   32.6700   42.5350 C   0  0  0  0  0  0  0  0  0  0  0  0
   57.1370   31.5930   41.9600 C   0  0  0  0  0  0  0  0  0  0  0  0
   56.8050   30.4440   42.6060 C   0  0  0  0  0  0  0  0  0  0  0  0
   57.1360   30.3290   43.9720 C   0  0  0  0  0  0  0  0  0  0  0  0
   57.7640   31.3880   44.5410 C   0  0  0  0  0  0  0  0  0  0  0  0
   60.0194   30.5329   50.3274 H   0  0  0  0  0  0  0  0  0  0  0  0
   60.3016   32.1387   49.5734 H   0  0  0  0  0  0  0  0  0  0  0  0
   58.6538   31.4236   49.5734 H   0  0  0  0  0  0  0  0  0  0  0  0
   61.9800   30.9146   48.7370 H   0  0  0  0  0  0  0  0  0  0  0  0
   61.6982   29.9528   47.2463 H   0  0  0  0  0  0  0  0  0  0  0  0
   61.3859   31.7218   47.2463 H   0  0  0  0  0  0  0  0  0  0  0  0
   60.2819   28.5497   47.9029 H   0  0  0  0  0  0  0  0  0  0  0  0
   58.9114   28.9828   48.9918 H   0  0  0  0  0  0  0  0  0  0  0  0
   59.1076   28.9396   46.0313 H   0  0  0  0  0  0  0  0  0  0  0  0
   57.7252   28.5455   47.2330 H   0  0  0  0  0  0  0  0  0  0  0  0
   59.0180   32.3720   47.4090 H   0  0  0  0  0  0  0  0  0  0  0  0
   61.9572   33.7769   45.3305 H   0  0  0  0  0  0  0  0  0  0  0  0
   64.0521   33.2002   46.5226 H   0  0  0  0  0  0  0  0  0  0  0  0
   62.0313   33.9066   50.2444 H   0  0  0  0  0  0  0  0  0  0  0  0
   59.9319   34.4835   49.0687 H   0  0  0  0  0  0  0  0  0  0  0  0
   58.9500   34.4190   43.8840 H   0  0  0  0  0  0  0  0  0  0  0  0
   58.0220   33.5752   41.9592 H   0  0  0  0  0  0  0  0  0  0  0  0
   56.8729   31.6700   40.8949 H   0  0  0  0  0  0  0  0  0  0  0  0
   56.2923   29.6265   42.0779 H   0  0  0  0  0  0  0  0  0  0  0  0
   56.8963   29.4235   44.5486 H   0  0  0  0  0  0  0  0  0  0  0  0
  1  2  1  0
  2  3  1  0
  2  4  1  0
  4  5  1  0
  5  6  1  0
  6  7  2  0
  7  8  1  0
  8  9  1  0
  9 10  2  0
 10 11  1  0
 11 12  2  0
 12 13  1  0
 13 14  2  0
 14 15  1  0
 14 16  1  0
 16 17  2  0
  9 18  1  0
 18 19  1  0
 19 20  2  0
 20 21  1  0
 21 22  2  0
 22 23  1  0
 23 24  2  0
 24  7  1  0
 17 11  1  0
 24 19  1  0
  1 25  1  0
  1 26  1  0
  1 27  1  0
  3 28  1  0
  3 29  1  0
  3 30  1  0
  4 31  1  0
  4 32  1  0
  5 33  1  0
  5 34  1  0
  8 35  1  0
 12 36  1  0
 13 37  1  0
 16 38  1  0
 17 39  1  0
 18 40  1  0
 20 41  1  0
 21 42  1  0
 22 43  1  0
 23 44  1  0
M  END
>  <smiles>  (2) 
CN(C)CCN=c1[nH]c(=Nc2ccc(Cl)cc2)[nH]c2ccccc12

>  <score_type>  (2) 
oracle

>  <origin>  (2) 
adg

>  <m_score__min__energy>  (2) 
-7.6900000000000004

>  <m_primary>  (2) 
energy

$$$$
2:0
     RDKit          3D

 39 41  0  0  0  0  0  0  0  0999 V2000
   58.5670   27.7910   46.7820 O   0  0  0  0  0  0  0  0  0  0  0  0
   57.6020   28.0430   46.0110 C   0  0  0  0  0  0  0  0  0  0  0  0
   56.7400   26.9790   45.5740 N   0  0  0  0  0  0  0  0  0  0  0  0
   56.5920   25.7310   46.2740 C   0  0  0  0  0  0  0  0  0  0  0  0
   57.4190   25.3970   47.3630 C   0  0  0  0  0  0  0  0  0  0  0  0
   57.2390   24.1870   48.0410 C   0  0  0  0  0  0  0  0  0  0  0  0
   56.2270   23.3080   47.6470 C   0  0  0  0  0  0  0  0  0  0  0  0
   55.3880   23.6390   46.5810 C   0  0  0  0  0  0  0  0  0  0  0  0
   55.5650   24.8490   45.9020 C   0  0  0  0  0  0  0  0  0  0  0  0
   57.4160   29.4240   45.5070 C   0  0  0  0  0  0  0  0  0  0  0  0
   58.4510   30.3620   45.6710 C   0  0  0  0  0  0  0  0  0  0  0  0
   58.2990   31.6860   45.2230 C   0  0  0  0  0  0  0  0  0  0  0  0
   59.3380   32.6640   45.3810 N   0  0  0  0  0  0  0  0  0  0  0  0
   59.7840   33.2380   46.6180 C   0  0  0  0  0  0  0  0  0  0  0  0
   58.9910   33.9720   47.2650 O   0  0  0  0  0  0  0  0  0  0  0  0
   61.1350   32.9820   47.1660 C   0  0  0  0  0  0  0  0  0  0  0  0
   62.1930   33.8210   46.7790 C   0  0  0  0  0  0  0  0  0  0  0  0
   63.4900   33.5850   47.2420 C   0  0  0  0  0  0  0  0  0  0  0  0
   63.7410   32.5200   48.1060 C   0  0  0  0  0  0  0  0  0  0  0  0
   62.6940   31.6930   48.5210 C   0  0  0  0  0  0  0  0  0  0  0  0
   61.3900   31.9190   48.0630 C   0  0  0  0  0  0  0  0  0  0  0  0
   60.1020   30.9000   48.6980 Cl  0  0  0  0  0  0  0  0  0  0  0  0
   57.1220   32.0570   44.5640 C   0  0  0  0  0  0  0  0  0  0  0  0
   56.0850   31.1370   44.4030 C   0  0  0  0  0  0  0  0  0  0  0  0
   56.2170   29.8300   44.8830 C   0  0  0  0  0  0  0  0  0  0  0  0
   55.1430   28.9560   44.7530 O   0  0  0  0  0  0  0  0  0  0  0  0
   56.2790   27.0770   44.6410 H   0  0  0  0  0  0  0  0  0  0  0  0
   58.2106   26.0909   47.6823 H   0  0  0  0  0  0  0  0  0  0  0  0
   57.8947   23.9272   48.8851 H   0  0  0  0  0  0  0  0  0  0  0  0
   56.0910   22.3539   48.1773 H   0  0  0  0  0  0  0  0  0  0  0  0
   54.5882   22.9484   46.2754 H   0  0  0  0  0  0  0  0  0  0  0  0
   54.8945   25.1115   45.0704 H   0  0  0  0  0  0  0  0  0  0  0  0
   59.3901   30.0563   46.1553 H   0  0  0  0  0  0  0  0  0  0  0  0
   61.9991   34.6698   46.1067 H   0  0  0  0  0  0  0  0  0  0  0  0
   64.3143   34.2405   46.9243 H   0  0  0  0  0  0  0  0  0  0  0  0
   64.7646   32.3305   48.4614 H   0  0  0  0  0  0  0  0  0  0  0  0
   62.8950   30.8602   49.2110 H   0  0  0  0  0  0  0  0  0  0  0  0
   57.0134   33.0786   44.1709 H   0  0  0  0  0  0  0  0  0  0  0  0
   55.1579   31.4418   43.8954 H   0  0  0  0  0  0  0  0  0  0  0  0
  1  2  2  0
  2  3  1  0
  3  4  1  0
  4  5  2  0
  5  6  1  0
  6  7  2  0
  7  8  1  0
  8  9  2  0
  2 10  1  0
 10 11  2  0
 11 12  1  0
 12 13  1  0
 13 14  1  0
 14 15  2  0
 14 16  1  0
 16 17  2  0
 17 18  1  0
 18 19  2  0
 19 20  1  0
 20 21  2  0
 21 22  1  0
 12 23  2  0
 23 24  1  0
 24 25  2  0
 25 26  1  0
  9  4  1  0
 25 10  1  0
 21 16  1  0
  3 27  1  0
  5 28  1  0
  6 29  1  0
  7 30  1  0
  8 31  1  0
  9 32  1  0
 11 33  1  0
 17 34  1  0
 18 35  1  0
 19 36  1  0
 20 37  1  0
 23 38  1  0
 24 39  1  0
M  CHG  2  13  -1  26  -1
M  END
>  <UniqueID>  (3) 
2

>  <SMILES>  (3) 
O=C(Nc1ccccc1)c1cc([N-]C(=O)c2ccccc2Cl)ccc1[O-]

>  <Energy>  (3) 
58.63990155070943

>  <Genealogy>  (3) 
O=C(Nc1ccccc1)c1cc([N-]C(=O)c2ccccc2Cl)ccc1[O-] (protonated)
O=C(Nc1ccccc1)c1cc([N-]C(=O)c2ccccc2Cl)ccc1[O-] (3D coordinates assigned)
O=C(Nc1ccccc1)c1cc([N-]C(=O)c2ccccc2Cl)ccc1[O-] (optimized conformer: 58.63990155070943 kcal/mol)

>  <smiles>  (3) 
O=C(Nc1ccccc1)c1cc(NC(=O)c2ccccc2Cl)ccc1O

>  <score_type>  (3) 
oracle

>  <origin>  (3) 
adg

>  <m_score__min__energy>  (3) 
-12.25

>  <m_primary>  (3) 
energy

$$$$
3:0
     RDKit          3D

 66 69  0  0  0  0  0  0  0  0999 V2000
   59.3370   34.0630   52.6310 C   0  0  0  0  0  0  0  0  0  0  0  0
   60.1920   33.9280   51.4970 O   0  0  0  0  0  0  0  0  0  0  0  0
   59.7470   33.6850   50.1870 C   0  0  0  0  0  0  0  0  0  0  0  0
   60.0500   34.5500   49.1200 C   0  0  0  0  0  0  0  0  0  0  0  0
   59.5990   34.2700   47.8290 C   0  0  0  0  0  0  0  0  0  0  0  0
   58.8390   33.1160   47.5710 C   0  0  0  0  0  0  0  0  0  0  0  0
   58.3820   32.8280   46.1830 C   0  0  0  0  0  0  0  0  0  0  0  0
   58.9230   33.4250   45.0360 C   0  0  0  0  0  0  0  0  0  0  0  0
   58.0870   32.8450   43.6980 S   0  0  0  0  0  0  0  0  0  0  0  0
   57.0850   31.8520   44.6190 C   0  0  0  0  0  0  0  0  0  0  0  0
   56.1040   31.1230   44.1710 N   0  0  0  0  0  0  0  0  0  0  0  0
   56.1010   29.6930   44.0580 C   0  0  0  0  0  0  0  0  0  0  0  0
   55.1600   29.0470   44.5930 O   0  0  0  0  0  0  0  0  0  0  0  0
   57.2510   28.9640   43.3950 C   0  0  0  0  0  0  0  0  0  0  0  0
   57.7670   27.7530   44.1940 C   0  0  0  0  0  0  0  0  0  0  0  0
   57.7330   27.9560   45.6890 C   0  0  0  0  0  0  0  0  0  0  0  0
   56.7750   27.4800   46.3600 O   0  0  0  0  0  0  0  0  0  0  0  0
   58.7590   28.7230   46.3530 N   0  0  0  0  0  0  0  0  0  0  0  0
   59.0130   28.5130   47.7860 C   0  0  0  0  0  0  0  0  0  0  0  0
   60.5120   28.6290   48.0840 C   0  0  0  0  0  0  0  0  0  0  0  0
   61.0520   29.8380   47.4520 N   0  0  0  0  0  0  0  0  0  0  0  0
   61.7550   30.8350   48.2210 C   0  0  0  0  0  0  0  0  0  0  0  0
   62.4010   31.9050   47.5800 C   0  0  0  0  0  0  0  0  0  0  0  0
   63.0970   32.8630   48.3260 C   0  0  0  0  0  0  0  0  0  0  0  0
   63.1630   32.7720   49.7300 C   0  0  0  0  0  0  0  0  0  0  0  0
   63.9160   33.7950   50.5090 C   0  0  0  0  0  0  0  0  0  0  0  0
   65.3250   33.5630   50.9670 C   0  0  0  0  0  0  0  0  0  0  0  0
   63.3670   34.8980   50.7930 O   0  0  0  0  0  0  0  0  0  0  0  0
   62.5120   31.6970   50.3680 C   0  0  0  0  0  0  0  0  0  0  0  0
   61.8190   30.7380   49.6210 C   0  0  0  0  0  0  0  0  0  0  0  0
   60.8200   30.0070   46.0130 C   0  0  0  0  0  0  0  0  0  0  0  0
   59.3210   29.9310   45.7300 C   0  0  0  0  0  0  0  0  0  0  0  0
   57.3560   31.9620   45.9370 N   0  0  0  0  0  0  0  0  0  0  0  0
   58.5230   32.2590   48.6430 C   0  0  0  0  0  0  0  0  0  0  0  0
   58.9760   32.5370   49.9480 C   0  0  0  0  0  0  0  0  0  0  0  0
   58.6770   31.6980   51.0360 O   0  0  0  0  0  0  0  0  0  0  0  0
   58.5850   30.2790   50.9620 C   0  0  0  0  0  0  0  0  0  0  0  0
   59.9315   33.9691   53.5517 H   0  0  0  0  0  0  0  0  0  0  0  0
   58.8502   35.0491   52.6078 H   0  0  0  0  0  0  0  0  0  0  0  0
   58.5700   33.2748   52.6078 H   0  0  0  0  0  0  0  0  0  0  0  0
   60.6475   35.4549   49.3045 H   0  0  0  0  0  0  0  0  0  0  0  0
   59.8405   34.9587   47.0060 H   0  0  0  0  0  0  0  0  0  0  0  0
   59.7516   34.1482   45.0151 H   0  0  0  0  0  0  0  0  0  0  0  0
   56.9144   28.6104   42.4093 H   0  0  0  0  0  0  0  0  0  0  0  0
   58.0842   29.6789   43.3259 H   0  0  0  0  0  0  0  0  0  0  0  0
   57.1423   26.8819   43.9471 H   0  0  0  0  0  0  0  0  0  0  0  0
   58.8202   27.6062   43.9125 H   0  0  0  0  0  0  0  0  0  0  0  0
   58.4680   29.2723   48.3661 H   0  0  0  0  0  0  0  0  0  0  0  0
   58.6697   27.5062   48.0661 H   0  0  0  0  0  0  0  0  0  0  0  0
   60.6648   28.6862   49.1718 H   0  0  0  0  0  0  0  0  0  0  0  0
   61.0315   27.7463   47.6828 H   0  0  0  0  0  0  0  0  0  0  0  0
   62.3596   31.9905   46.4841 H   0  0  0  0  0  0  0  0  0  0  0  0
   63.5977   33.6957   47.8105 H   0  0  0  0  0  0  0  0  0  0  0  0
   65.3570   33.5577   52.0665 H   0  0  0  0  0  0  0  0  0  0  0  0
   65.6799   32.5943   50.5852 H   0  0  0  0  0  0  0  0  0  0  0  0
   65.9717   34.3668   50.5852 H   0  0  0  0  0  0  0  0  0  0  0  0
   62.5491   31.6110   51.4640 H   0  0  0  0  0  0  0  0  0  0  0  0
   61.3207   29.9021   50.1337 H   0  0  0  0  0  0  0  0  0  0  0  0
   61.2053   30.9858   45.6913 H   0  0  0  0  0  0  0  0  0  0  0  0
   61.3398   29.2105   45.4603 H   0  0  0  0  0  0  0  0  0  0  0  0
   58.8251   30.8208   46.1450 H   0  0  0  0  0  0  0  0  0  0  0  0
   59.1574   29.8898   44.6430 H   0  0  0  0  0  0  0  0  0  0  0  0
   57.9147   31.3611   48.4592 H   0  0  0  0  0  0  0  0  0  0  0  0
   58.5578   29.8598   51.9786 H   0  0  0  0  0  0  0  0  0  0  0  0
   57.6668   29.9986   50.4251 H   0  0  0  0  0  0  0  0  0  0  0  0
   59.4593   29.8824   50.4251 H   0  0  0  0  0  0  0  0  0  0  0  0
  1  2  1  0
  2  3  1  0
  3  4  2  0
  4  5  1  0
  5  6  2  0
  6  7  1  0
  7  8  2  0
  8  9  1  0
  9 10  1  0
 10 11  2  3
 11 12  1  0
 12 13  2  0
 12 14  1  0
 14 15  1  0
 15 16  1  0
 16 17  2  0
 16 18  1  0
 18 19  1  0
 19 20  1  0
 20 21  1  0
 21 22  1  0
 22 23  2  0
 23 24  1  0
 24 25  2  0
 25 26  1  0
 26 27  1  0
 26 28  2  0
 25 29  1  0
 29 30  2  0
 21 31  1  0
 31 32  1  0
 10 33  1  0
  6 34  1  0
 34 35  2  0
 35 36  1  0
 36 37  1  0
 35  3  1  0
 33  7  1  0
 32 18  1  0
 30 22  1  0
  1 38  1  0
  1 39  1  0
  1 40  1  0
  4 41  1  0
  5 42  1  0
  8 43  1  0
 14 44  1  0
 14 45  1  0
 15 46  1  0
 15 47  1  0
 19 48  1  0
 19 49  1  0
 20 50  1  0
 20 51  1  0
 23 52  1  0
 24 53  1  0
 27 54  1  0
 27 55  1  0
 27 56  1  0
 29 57  1  0
 30 58  1  0
 31 59  1  0
 31 60  1  0
 32 61  1  0
 32 62  1  0
 34 63  1  0
 37 64  1  0
 37 65  1  0
 37 66  1  0
M  CHG  1  33  -1
M  END
>  <UniqueID>  (4) 
3

>  <SMILES>  (4) 
COc1ccc(-c2csc(=NC(=O)CCC(=O)N3CCN(c4ccc(C(C)=O)cc4)CC3)[n-]2)cc1OC

>  <Energy>  (4) 
113.4841399264909

>  <Genealogy>  (4) 
COc1ccc(-c2csc(=NC(=O)CCC(=O)N3CCN(c4ccc(C(C)=O)cc4)CC3)[n-]2)cc1OC (protonated)
COc1ccc(-c2csc(=NC(=O)CCC(=O)N3CCN(c4ccc(C(C)=O)cc4)CC3)[n-]2)cc1OC (3D coordinates assigned)
COc1ccc(-c2csc(=NC(=O)CCC(=O)N3CCN(c4ccc(C(C)=O)cc4)CC3)[n-]2)cc1OC (nonaromatic ring conformer: 113.4841399264909 kcal/mol)

>  <smiles>  (4) 
COc1ccc(-c2csc(=NC(=O)CCC(=O)N3CCN(c4ccc(C(C)=O)cc4)CC3)[nH]2)cc1OC

>  <score_type>  (4) 
oracle

>  <origin>  (4) 
adg

>  <m_score__min__energy>  (4) 
-11.02

>  <m_primary>  (4) 
energy

$$$$
4:0
     RDKit          3D

 41 43  0  0  1  0  0  0  0  0999 V2000
   56.0360   24.3850   44.9610 C   0  0  0  0  0  0  0  0  0  0  0  0
   56.0220   25.1490   46.2690 C   0  0  0  0  0  0  0  0  0  0  0  0
   56.7710   26.4040   46.1930 C   0  0  0  0  0  0  0  0  0  0  0  0
   56.2540   27.4920   45.6210 N   0  0  0  0  0  0  0  0  0  0  0  0
   56.9050   28.6670   45.5280 C   0  0  0  0  0  0  0  0  0  0  0  0
   56.2770   29.6040   44.9590 N   0  0  0  0  0  0  0  0  0  0  0  0
   56.3830   30.0110   43.6640 C   0  0  0  0  0  0  0  0  0  0  0  0
   57.3770   31.2320   43.7290 C   0  0  1  0  0  0  0  0  0  0  0  0
   57.4060   31.9400   42.4090 C   0  0  0  0  0  0  0  0  0  0  0  0
   57.0250   32.0720   44.7820 O   0  0  0  0  0  0  0  0  0  0  0  0
   57.7890   33.0120   45.4080 C   0  0  0  0  0  0  0  0  0  0  0  0
   58.5210   33.9970   44.7880 C   0  0  0  0  0  0  0  0  0  0  0  0
   59.2800   34.9240   45.4930 C   0  0  0  0  0  0  0  0  0  0  0  0
   59.3080   34.8660   46.8720 C   0  0  0  0  0  0  0  0  0  0  0  0
   58.5880   33.8950   47.5080 C   0  0  0  0  0  0  0  0  0  0  0  0
   57.8410   32.9830   46.7920 C   0  0  0  0  0  0  0  0  0  0  0  0
   58.2140   28.8200   46.0470 C   0  0  0  0  0  0  0  0  0  0  0  0
   59.0010   29.8840   46.0450 C   0  0  0  0  0  0  0  0  0  0  0  0
   60.2870   29.7030   46.6600 C   0  0  0  0  0  0  0  0  0  0  0  0
   60.3590   28.0290   47.2270 S   0  0  0  0  0  0  0  0  0  0  0  0
   58.6850   27.6730   46.6170 C   0  0  0  0  0  0  0  0  0  0  0  0
   57.9900   26.4850   46.6960 N   0  0  0  0  0  0  0  0  0  0  0  0
   56.0558   23.3047   45.1675 H   0  0  0  0  0  0  0  0  0  0  0  0
   55.1332   24.6313   44.3828 H   0  0  0  0  0  0  0  0  0  0  0  0
   56.9292   24.6642   44.3828 H   0  0  0  0  0  0  0  0  0  0  0  0
   54.9788   25.3763   46.5336 H   0  0  0  0  0  0  0  0  0  0  0  0
   56.5040   24.5177   47.0300 H   0  0  0  0  0  0  0  0  0  0  0  0
   56.7914   29.2073   43.0336 H   0  0  0  0  0  0  0  0  0  0  0  0
   55.4114   30.2787   43.2232 H   0  0  0  0  0  0  0  0  0  0  0  0
   58.3991   30.8759   43.9253 H   0  0  0  0  0  0  0  0  0  0  0  0
   57.4505   33.0263   42.5765 H   0  0  0  0  0  0  0  0  0  0  0  0
   58.2918   31.6200   41.8407 H   0  0  0  0  0  0  0  0  0  0  0  0
   56.4970   31.6935   41.8407 H   0  0  0  0  0  0  0  0  0  0  0  0
   58.5054   34.0538   43.6896 H   0  0  0  0  0  0  0  0  0  0  0  0
   59.8524   35.6958   44.9576 H   0  0  0  0  0  0  0  0  0  0  0  0
   59.9009   35.5905   47.4496 H   0  0  0  0  0  0  0  0  0  0  0  0
   58.6041   33.8396   48.6065 H   0  0  0  0  0  0  0  0  0  0  0  0
   57.2721   32.2130   47.3337 H   0  0  0  0  0  0  0  0  0  0  0  0
   58.6915   30.8423   45.6024 H   0  0  0  0  0  0  0  0  0  0  0  0
   61.0771   30.4618   46.7594 H   0  0  0  0  0  0  0  0  0  0  0  0
   58.4180   25.6720   47.1420 H   0  0  0  0  0  0  0  0  0  0  0  0
  1  2  1  0
  2  3  1  0
  3  4  2  0
  4  5  1  0
  5  6  2  0
  6  7  1  0
  7  8  1  0
  8  9  1  0
  8 10  1  0
 10 11  1  0
 11 12  2  0
 12 13  1  0
 13 14  2  0
 14 15  1  0
 15 16  2  0
  5 17  1  0
 17 18  1  0
 18 19  2  0
 19 20  1  0
 20 21  1  0
 21 22  1  0
 22  3  1  0
 16 11  1  0
 21 17  2  0
  1 23  1  0
  1 24  1  0
  1 25  1  0
  2 26  1  0
  2 27  1  0
  7 28  1  0
  7 29  1  0
  8 30  1  1
  9 31  1  0
  9 32  1  0
  9 33  1  0
 12 34  1  0
 13 35  1  0
 14 36  1  0
 15 37  1  0
 16 38  1  0
 18 39  1  0
 19 40  1  0
 22 41  1  0
M  END
>  <smiles>  (5) 
CCc1nc(=NCC(C)Oc2ccccc2)c2ccsc2[nH]1

>  <score_type>  (5) 
oracle

>  <origin>  (5) 
adg

>  <m_score__min__energy>  (5) 
-7.4199999999999999

>  <m_primary>  (5) 
energy

$$$$
5:0
     RDKit          3D

 44 46  0  0  0  0  0  0  0  0999 V2000
   56.3280   29.6660   43.3970 C   0  0  0  0  0  0  0  0  0  0  0  0
   56.7390   29.8520   44.7480 O   0  0  0  0  0  0  0  0  0  0  0  0
   57.4130   30.9860   45.2290 C   0  0  0  0  0  0  0  0  0  0  0  0
   57.1820   32.2680   44.6940 C   0  0  0  0  0  0  0  0  0  0  0  0
   57.8860   33.3750   45.1770 C   0  0  0  0  0  0  0  0  0  0  0  0
   58.8280   33.2200   46.1990 C   0  0  0  0  0  0  0  0  0  0  0  0
   59.7230   34.6040   46.8160 S   0  0  0  0  0  0  0  0  0  0  0  0
   58.8790   35.3360   47.8230 O   0  0  0  0  0  0  0  0  0  0  0  0
   60.0650   35.5500   45.6980 O   0  0  0  0  0  0  0  0  0  0  0  0
   61.2170   34.0430   47.5630 C   0  0  0  0  0  0  0  0  0  0  0  0
   61.3940   34.1630   48.9480 C   0  0  0  0  0  0  0  0  0  0  0  0
   62.5900   33.7490   49.5430 C   0  0  0  0  0  0  0  0  0  0  0  0
   63.6190   33.2220   48.7560 C   0  0  0  0  0  0  0  0  0  0  0  0
   65.1220   32.7120   49.5020 Cl  0  0  0  0  0  0  0  0  0  0  0  0
   63.4490   33.1080   47.3710 C   0  0  0  0  0  0  0  0  0  0  0  0
   62.2520   33.5180   46.7750 C   0  0  0  0  0  0  0  0  0  0  0  0
   59.0540   31.9500   46.7420 C   0  0  0  0  0  0  0  0  0  0  0  0
   58.3570   30.8310   46.2630 C   0  0  0  0  0  0  0  0  0  0  0  0
   58.6080   29.5390   46.8460 N   0  0  0  0  0  0  0  0  0  0  0  0
   58.8610   29.4180   48.2870 C   0  0  0  0  0  0  0  0  0  0  0  0
   59.7160   28.1760   48.5800 C   0  0  0  0  0  0  0  0  0  0  0  0
   60.7430   28.0120   47.5400 N   0  0  0  0  0  0  0  0  0  0  0  0
   60.1660   27.7270   46.2070 C   0  0  0  0  0  0  0  0  0  0  0  0
   58.7760   28.3590   45.9920 C   0  0  0  0  0  0  0  0  0  0  0  0
   55.3260   29.2125   43.3777 H   0  0  0  0  0  0  0  0  0  0  0  0
   56.3000   30.6392   42.8850 H   0  0  0  0  0  0  0  0  0  0  0  0
   57.0406   29.0027   42.8850 H   0  0  0  0  0  0  0  0  0  0  0  0
   56.4424   32.3993   43.8904 H   0  0  0  0  0  0  0  0  0  0  0  0
   57.6983   34.3719   44.7515 H   0  0  0  0  0  0  0  0  0  0  0  0
   60.5897   34.5841   49.5691 H   0  0  0  0  0  0  0  0  0  0  0  0
   62.7216   33.8380   50.6315 H   0  0  0  0  0  0  0  0  0  0  0  0
   64.2582   32.6953   46.7506 H   0  0  0  0  0  0  0  0  0  0  0  0
   62.1219   33.4286   45.6864 H   0  0  0  0  0  0  0  0  0  0  0  0
   59.7865   31.8280   47.5535 H   0  0  0  0  0  0  0  0  0  0  0  0
   59.3928   30.3147   48.6378 H   0  0  0  0  0  0  0  0  0  0  0  0
   57.8986   29.3192   48.8104 H   0  0  0  0  0  0  0  0  0  0  0  0
   60.2047   28.2934   49.5585 H   0  0  0  0  0  0  0  0  0  0  0  0
   59.0681   27.2871   48.5892 H   0  0  0  0  0  0  0  0  0  0  0  0
   61.3760   27.2240   47.8130 H   0  0  0  0  0  0  0  0  0  0  0  0
   61.3220   28.8840   47.4890 H   0  0  0  0  0  0  0  0  0  0  0  0
   60.8498   28.1199   45.4401 H   0  0  0  0  0  0  0  0  0  0  0  0
   60.0410   26.6365   46.1343 H   0  0  0  0  0  0  0  0  0  0  0  0
   58.6738   28.6578   44.9383 H   0  0  0  0  0  0  0  0  0  0  0  0
   58.0055   27.6189   46.2541 H   0  0  0  0  0  0  0  0  0  0  0  0
  1  2  1  0
  2  3  1  0
  3  4  2  0
  4  5  1  0
  5  6  2  0
  6  7  1  0
  7  8  2  0
  7  9  2  0
  7 10  1  0
 10 11  2  0
 11 12  1  0
 12 13  2  0
 13 14  1  0
 13 15  1  0
 15 16  2  0
  6 17  1  0
 17 18  2  0
 18 19  1  0
 19 20  1  0
 20 21  1  0
 21 22  1  0
 22 23  1  0
 23 24  1  0
 18  3  1  0
 24 19  1  0
 16 10  1  0
  1 25  1  0
  1 26  1  0
  1 27  1  0
  4 28  1  0
  5 29  1  0
 11 30  1  0
 12 31  1  0
 15 32  1  0
 16 33  1  0
 17 34  1  0
 20 35  1  0
 20 36  1  0
 21 37  1  0
 21 38  1  0
 22 39  1  0
 22 40  1  0
 23 41  1  0
 23 42  1  0
 24 43  1  0
 24 44  1  0
M  CHG  1  22   1
M  END
>  <UniqueID>  (6) 
4

>  <SMILES>  (6) 
COc1ccc(S(=O)(=O)c2ccc(Cl)cc2)cc1N1CC[NH2+]CC1

>  <Energy>  (6) 
55.27619084006961

>  <Genealogy>  (6) 
COc1ccc(S(=O)(=O)c2ccc(Cl)cc2)cc1N1CC[NH2+]CC1 (protonated)
COc1ccc(S(=O)(=O)c2ccc(Cl)cc2)cc1N1CC[NH2+]CC1 (3D coordinates assigned)
COc1ccc(S(=O)(=O)c2ccc(Cl)cc2)cc1N1CC[NH2+]CC1 (nonaromatic ring conformer: 55.27619084006961 kcal/mol)

>  <smiles>  (6) 
COc1ccc(S(=O)(=O)c2ccc(Cl)cc2)cc1N1CCNCC1

>  <score_type>  (6) 
oracle

>  <origin>  (6) 
adg

>  <m_score__min__energy>  (6) 
-6.3600000000000003

>  <m_primary>  (6) 
energy

$$$$
6:0
     RDKit          3D

 52 55  0  0  0  0  0  0  0  0999 V2000
   59.0890   32.3310   51.1000 C   0  0  0  0  0  0  0  0  0  0  0  0
   59.6510   31.4130   50.1120 N   0  0  0  0  0  0  0  0  0  0  0  0
   59.0210   30.3340   49.6120 C   0  0  0  0  0  0  0  0  0  0  0  0
   59.8640   29.6900   48.7290 C   0  0  0  0  0  0  0  0  0  0  0  0
   59.5600   28.5360   47.9370 N   0  0  0  0  0  0  0  0  0  0  0  0
   58.3620   28.3660   47.1690 C   0  0  0  0  0  0  0  0  0  0  0  0
   57.7580   27.2610   47.2190 O   0  0  0  0  0  0  0  0  0  0  0  0
   57.8830   29.4260   46.2490 C   0  0  0  0  0  0  0  0  0  0  0  0
   58.4460   30.6680   46.3340 N   0  0  0  0  0  0  0  0  0  0  0  0
   58.0220   31.7160   45.5710 C   0  0  0  0  0  0  0  0  0  0  0  0
   58.6070   33.0620   45.7710 C   0  0  0  0  0  0  0  0  0  0  0  0
   58.9840   33.8480   44.6630 C   0  0  0  0  0  0  0  0  0  0  0  0
   58.8230   33.3870   43.3960 F   0  0  0  0  0  0  0  0  0  0  0  0
   59.5030   35.1330   44.8570 C   0  0  0  0  0  0  0  0  0  0  0  0
   59.6480   35.6440   46.1480 C   0  0  0  0  0  0  0  0  0  0  0  0
   59.2740   34.8730   47.2510 C   0  0  0  0  0  0  0  0  0  0  0  0
   58.7530   33.5890   47.0680 C   0  0  0  0  0  0  0  0  0  0  0  0
   58.4220   32.8480   48.1570 F   0  0  0  0  0  0  0  0  0  0  0  0
   57.0120   31.5140   44.6240 C   0  0  0  0  0  0  0  0  0  0  0  0
   56.4320   30.2540   44.4940 C   0  0  0  0  0  0  0  0  0  0  0  0
   56.8420   29.1970   45.3180 C   0  0  0  0  0  0  0  0  0  0  0  0
   56.1450   27.9450   45.2430 N   0  0  0  0  0  0  0  0  0  0  0  0
   61.0570   30.3750   48.7040 C   0  0  0  0  0  0  0  0  0  0  0  0
   60.8970   31.4460   49.5770 C   0  0  0  0  0  0  0  0  0  0  0  0
   61.9020   32.5560   49.8280 C   0  0  0  0  0  0  0  0  0  0  0  0
   61.7350   33.6900   48.7950 C   0  0  0  0  0  0  0  0  0  0  0  0
   62.3930   33.3660   47.4330 C   0  0  0  0  0  0  0  0  0  0  0  0
   63.1680   32.1770   47.4530 O   0  0  0  0  0  0  0  0  0  0  0  0
   64.0880   32.2200   48.5250 C   0  0  0  0  0  0  0  0  0  0  0  0
   63.3670   32.0540   49.8740 C   0  0  0  0  0  0  0  0  0  0  0  0
   59.3141   31.9633   52.1120 H   0  0  0  0  0  0  0  0  0  0  0  0
   59.5309   33.3294   50.9659 H   0  0  0  0  0  0  0  0  0  0  0  0
   57.9989   32.3915   50.9659 H   0  0  0  0  0  0  0  0  0  0  0  0
   57.9989   30.0165   49.8661 H   0  0  0  0  0  0  0  0  0  0  0  0
   59.2120   30.8330   47.0280 H   0  0  0  0  0  0  0  0  0  0  0  0
   59.7976   35.7422   43.9898 H   0  0  0  0  0  0  0  0  0  0  0  0
   60.0570   36.6543   46.2967 H   0  0  0  0  0  0  0  0  0  0  0  0
   59.3899   35.2777   48.2672 H   0  0  0  0  0  0  0  0  0  0  0  0
   56.6778   32.3453   43.9858 H   0  0  0  0  0  0  0  0  0  0  0  0
   55.6480   30.0878   43.7405 H   0  0  0  0  0  0  0  0  0  0  0  0
   56.6690   27.0480   45.3360 H   0  0  0  0  0  0  0  0  0  0  0  0
   55.1480   27.8840   44.9410 H   0  0  0  0  0  0  0  0  0  0  0  0
   61.9524   30.1269   48.1152 H   0  0  0  0  0  0  0  0  0  0  0  0
   61.6837   32.9544   50.8298 H   0  0  0  0  0  0  0  0  0  0  0  0
   60.6606   33.8621   48.6335 H   0  0  0  0  0  0  0  0  0  0  0  0
   62.2364   34.5815   49.1998 H   0  0  0  0  0  0  0  0  0  0  0  0
   61.5993   33.2529   46.6798 H   0  0  0  0  0  0  0  0  0  0  0  0
   63.0749   34.1956   47.1949 H   0  0  0  0  0  0  0  0  0  0  0  0
   64.8192   31.4070   48.4050 H   0  0  0  0  0  0  0  0  0  0  0  0
   64.5942   33.1965   48.5148 H   0  0  0  0  0  0  0  0  0  0  0  0
   63.3665   30.9879   50.1451 H   0  0  0  0  0  0  0  0  0  0  0  0
   63.9052   32.6596   50.6180 H   0  0  0  0  0  0  0  0  0  0  0  0
  1  2  1  0
  2  3  1  0
  3  4  2  0
  4  5  1  0
  5  6  1  0
  6  7  2  0
  6  8  1  0
  8  9  2  0
  9 10  1  0
 10 11  1  0
 11 12  2  0
 12 13  1  0
 12 14  1  0
 14 15  2  0
 15 16  1  0
 16 17  2  0
 17 18  1  0
 10 19  2  0
 19 20  1  0
 20 21  2  0
 21 22  1  0
  4 23  1  0
 23 24  2  0
 24 25  1  0
 25 26  1  0
 26 27  1  0
 27 28  1  0
 28 29  1  0
 29 30  1  0
 24  2  1  0
 30 25  1  0
 21  8  1  0
 17 11  1  0
  1 31  1  0
  1 32  1  0
  1 33  1  0
  3 34  1  0
  9 35  1  0
 14 36  1  0
 15 37  1  0
 16 38  1  0
 19 39  1  0
 20 40  1  0
 22 41  1  0
 22 42  1  0
 23 43  1  0
 25 44  1  0
 26 45  1  0
 26 46  1  0
 27 47  1  0
 27 48  1  0
 29 49  1  0
 29 50  1  0
 30 51  1  0
 30 52  1  0
M  CHG  2   5  -1   9   1
M  END
>  <UniqueID>  (7) 
5

>  <SMILES>  (7) 
Cn1cc([N-]C(=O)c2[nH+]c(-c3c(F)cccc3F)ccc2N)cc1C1CCOCC1

>  <Energy>  (7) 
102.98638980653816

>  <Genealogy>  (7) 
Cn1cc([N-]C(=O)c2[nH+]c(-c3c(F)cccc3F)ccc2N)cc1C1CCOCC1 (protonated)
Cn1cc([N-]C(=O)c2[nH+]c(-c3c(F)cccc3F)ccc2N)cc1C1CCOCC1 (3D coordinates assigned)
Cn1cc([N-]C(=O)c2[nH+]c(-c3c(F)cccc3F)ccc2N)cc1C1CCOCC1 (nonaromatic ring conformer: 102.98638980653816 kcal/mol)

>  <smiles>  (7) 
Cn1cc(NC(=O)c2nc(-c3c(F)cccc3F)ccc2N)cc1C1CCOCC1

>  <score_type>  (7) 
oracle

>  <origin>  (7) 
adg

>  <m_score__min__energy>  (7) 
-8.6400000000000006

>  <m_primary>  (7) 
energy

$$$$
7:0
     RDKit          3D

 46 49  0  0  0  0  0  0  0  0999 V2000
   55.2460   28.9860   44.5020 O   0  0  0  0  0  0  0  0  0  0  0  0
   56.4510   29.3360   44.3780 C   0  0  0  0  0  0  0  0  0  0  0  0
   56.7660   30.7280   43.9210 C   0  0  0  0  0  0  0  0  0  0  0  0
   57.5370   31.4310   44.9520 N   0  0  0  0  0  0  0  0  0  0  0  0
   57.9910   30.7140   45.9820 N   0  0  0  0  0  0  0  0  0  0  0  0
   58.7450   31.2420   46.9800 C   0  0  0  0  0  0  0  0  0  0  0  0
   59.2250   30.3030   48.0610 C   0  0  0  0  0  0  0  0  0  0  0  0
   59.6620   28.9840   47.4760 C   0  0  0  0  0  0  0  0  0  0  0  0
   59.4560   27.7830   48.1680 C   0  0  0  0  0  0  0  0  0  0  0  0
   59.8680   26.5720   47.6070 C   0  0  0  0  0  0  0  0  0  0  0  0
   60.4770   26.5720   46.3510 C   0  0  0  0  0  0  0  0  0  0  0  0
   60.6620   27.7420   45.6850 N   0  0  0  0  0  0  0  0  0  0  0  0
   60.2720   28.9350   46.2110 C   0  0  0  0  0  0  0  0  0  0  0  0
   59.0890   32.6110   46.9260 C   0  0  0  0  0  0  0  0  0  0  0  0
   59.8820   33.2350   47.9130 C   0  0  0  0  0  0  0  0  0  0  0  0
   60.1990   34.5910   47.8160 C   0  0  0  0  0  0  0  0  0  0  0  0
   59.7340   35.3470   46.7410 C   0  0  0  0  0  0  0  0  0  0  0  0
   58.9490   34.7500   45.7540 C   0  0  0  0  0  0  0  0  0  0  0  0
   58.6190   33.3820   45.8350 C   0  0  0  0  0  0  0  0  0  0  0  0
   57.8360   32.7630   44.8460 C   0  0  0  0  0  0  0  0  0  0  0  0
   57.4120   33.4360   43.8640 O   0  0  0  0  0  0  0  0  0  0  0  0
   57.5140   28.4450   44.7550 N   0  0  0  0  0  0  0  0  0  0  0  0
   57.3270   27.0520   45.0550 C   0  0  0  0  0  0  0  0  0  0  0  0
   56.6200   26.6360   46.2010 C   0  0  0  0  0  0  0  0  0  0  0  0
   56.4250   25.2750   46.4520 C   0  0  0  0  0  0  0  0  0  0  0  0
   56.9230   24.3190   45.5620 C   0  0  0  0  0  0  0  0  0  0  0  0
   57.6110   24.7230   44.4140 C   0  0  0  0  0  0  0  0  0  0  0  0
   57.8060   26.0840   44.1570 C   0  0  0  0  0  0  0  0  0  0  0  0
   57.3550   30.6825   42.9931 H   0  0  0  0  0  0  0  0  0  0  0  0
   55.8263   31.2703   43.7396 H   0  0  0  0  0  0  0  0  0  0  0  0
   60.0753   30.7632   48.5857 H   0  0  0  0  0  0  0  0  0  0  0  0
   58.3952   30.1190   48.7592 H   0  0  0  0  0  0  0  0  0  0  0  0
   58.9692   27.7940   49.1543 H   0  0  0  0  0  0  0  0  0  0  0  0
   59.7141   25.6276   48.1496 H   0  0  0  0  0  0  0  0  0  0  0  0
   60.8073   25.6246   45.9001 H   0  0  0  0  0  0  0  0  0  0  0  0
   60.4347   29.8636   45.6443 H   0  0  0  0  0  0  0  0  0  0  0  0
   60.2533   32.6478   48.7658 H   0  0  0  0  0  0  0  0  0  0  0  0
   60.8186   35.0652   48.5914 H   0  0  0  0  0  0  0  0  0  0  0  0
   59.9862   36.4154   46.6708 H   0  0  0  0  0  0  0  0  0  0  0  0
   58.5853   35.3507   44.9073 H   0  0  0  0  0  0  0  0  0  0  0  0
   58.4640   28.8540   44.9070 H   0  0  0  0  0  0  0  0  0  0  0  0
   56.2203   27.3851   46.9003 H   0  0  0  0  0  0  0  0  0  0  0  0
   55.8786   24.9555   47.3516 H   0  0  0  0  0  0  0  0  0  0  0  0
   56.7735   23.2483   45.7650 H   0  0  0  0  0  0  0  0  0  0  0  0
   57.9992   23.9700   43.7124 H   0  0  0  0  0  0  0  0  0  0  0  0
   58.3375   26.3980   43.2465 H   0  0  0  0  0  0  0  0  0  0  0  0
  1  2  2  0
  2  3  1  0
  3  4  1  0
  4  5  1  0
  5  6  2  0
  6  7  1  0
  7  8  1  0
  8  9  2  0
  9 10  1  0
 10 11  2  0
 11 12  1  0
 12 13  2  0
  6 14  1  0
 14 15  2  0
 15 16  1  0
 16 17  2  0
 17 18  1  0
 18 19  2  0
 19 20  1  0
 20 21  2  0
  2 22  1  0
 22 23  1  0
 23 24  2  0
 24 25  1  0
 25 26  2  0
 26 27  1  0
 27 28  2  0
 20  4  1  0
 28 23  1  0
 13  8  1  0
 19 14  1  0
  3 29  1  0
  3 30  1  0
  7 31  1  0
  7 32  1  0
  9 33  1  0
 10 34  1  0
 11 35  1  0
 13 36  1  0
 15 37  1  0
 16 38  1  0
 17 39  1  0
 18 40  1  0
 22 41  1  0
 24 42  1  0
 25 43  1  0
 26 44  1  0
 27 45  1  0
 28 46  1  0
M  END
>  <UniqueID>  (8) 
6

>  <SMILES>  (8) 
O=C(Cn1nc(Cc2cccnc2)c2ccccc2c1=O)Nc1ccccc1

>  <Energy>  (8) 
60.450448362087904

>  <Genealogy>  (8) 
O=C(Cn1nc(Cc2cccnc2)c2ccccc2c1=O)Nc1ccccc1 (3D coordinates assigned)
O=C(Cn1nc(Cc2cccnc2)c2ccccc2c1=O)Nc1ccccc1 (optimized conformer: 60.450448362087904 kcal/mol)

>  <smiles>  (8) 
O=C(Cn1nc(Cc2cccnc2)c2ccccc2c1=O)Nc1ccccc1

>  <score_type>  (8) 
oracle

>  <origin>  (8) 
adg

>  <m_score__min__energy>  (8) 
-8.5800000000000001

>  <m_primary>  (8) 
energy

$$$$
8:0
     RDKit          3D

 22 23  0  0  0  0  0  0  0  0999 V2000
   62.6690   33.4590   47.3750 C   0  0  0  0  0  0  0  0  0  0  0  0
   61.3030   33.2080   46.9390 N   0  0  0  0  0  0  0  0  0  0  0  0
   60.6590   32.0280   46.9570 C   0  0  0  0  0  0  0  0  0  0  0  0
   59.4390   32.1550   46.4100 N   0  0  0  0  0  0  0  0  0  0  0  0
   59.3880   33.4540   46.0550 C   0  0  0  0  0  0  0  0  0  0  0  0
   57.9790   34.2200   45.2630 S   0  0  0  0  0  0  0  0  0  0  0  0
   57.5630   32.7200   44.3850 C   0  0  0  0  0  0  0  0  0  0  0  0
   57.7850   32.4890   43.0440 C   0  0  0  0  0  0  0  0  0  0  0  0
   57.3190   31.2140   42.8030 C   0  0  0  0  0  0  0  0  0  0  0  0
   56.8430   30.7560   44.0160 C   0  0  0  0  0  0  0  0  0  0  0  0
   56.2460   29.4400   44.2540 C   0  0  0  0  0  0  0  0  0  0  0  0
   55.1540   29.3420   44.8710 O   0  0  0  0  0  0  0  0  0  0  0  0
   57.0000   31.6740   44.9430 O   0  0  0  0  0  0  0  0  0  0  0  0
   60.5230   34.1100   46.3640 N   0  0  0  0  0  0  0  0  0  0  0  0
   62.7076   33.4661   48.4743 H   0  0  0  0  0  0  0  0  0  0  0  0
   63.3281   32.6669   46.9901 H   0  0  0  0  0  0  0  0  0  0  0  0
   63.0035   34.4336   46.9901 H   0  0  0  0  0  0  0  0  0  0  0  0
   61.0722   31.0924   47.3618 H   0  0  0  0  0  0  0  0  0  0  0  0
   58.7080   31.4200   46.2830 H   0  0  0  0  0  0  0  0  0  0  0  0
   58.2394   33.1786   42.3174 H   0  0  0  0  0  0  0  0  0  0  0  0
   57.3250   30.6741   41.8446 H   0  0  0  0  0  0  0  0  0  0  0  0
   56.7542   28.5341   43.8920 H   0  0  0  0  0  0  0  0  0  0  0  0
  1  2  1  0
  2  3  1  0
  3  4  2  0
  4  5  1  0
  5  6  1  0
  6  7  1  0
  7  8  2  0
  8  9  1  0
  9 10  2  0
 10 11  1  0
 11 12  2  0
 10 13  1  0
  5 14  2  0
 14  2  1  0
 13  7  1  0
  1 15  1  0
  1 16  1  0
  1 17  1  0
  3 18  1  0
  4 19  1  0
  8 20  1  0
  9 21  1  0
 11 22  1  0
M  CHG  1   4   1
M  END
>  <UniqueID>  (9) 
7

>  <SMILES>  (9) 
Cn1c[nH+]c(Sc2ccc(C=O)o2)n1

>  <Energy>  (9) 
76.21557577982303

>  <Genealogy>  (9) 
Cn1c[nH+]c(Sc2ccc(C=O)o2)n1 (protonated)
Cn1c[nH+]c(Sc2ccc(C=O)o2)n1 (3D coordinates assigned)
Cn1c[nH+]c(Sc2ccc(C=O)o2)n1 (optimized conformer: 76.21557577982303 kcal/mol)

>  <smiles>  (9) 
Cn1cnc(Sc2ccc(C=O)o2)n1

>  <score_type>  (9) 
oracle

>  <origin>  (9) 
adg

>  <m_score__min__energy>  (9) 
-4.6200000000000001

>  <m_primary>  (9) 
energy

$$$$
9:0
     RDKit          3D

 51 53  0  0  0  0  0  0  0  0999 V2000
   60.9750   28.9610   44.7740 C   0  0  0  0  0  0  0  0  0  0  0  0
   60.0470   27.9640   45.4760 C   0  0  0  0  0  0  0  0  0  0  0  0
   58.6450   28.4490   45.5310 N   0  0  1  0  0  0  0  0  0  0  0  0
   57.7250   27.4140   46.0630 C   0  0  0  0  0  0  0  0  0  0  0  0
   56.2970   27.6170   45.6350 C   0  0  0  0  0  0  0  0  0  0  0  0
   55.9820   28.6420   44.9720 O   0  0  0  0  0  0  0  0  0  0  0  0
   55.3060   26.6430   45.9810 N   0  0  0  0  0  0  0  0  0  0  0  0
   55.3370   25.2610   45.6020 C   0  0  0  0  0  0  0  0  0  0  0  0
   56.5610   24.6780   45.2660 C   0  0  0  0  0  0  0  0  0  0  0  0
   56.6300   23.3280   44.9180 C   0  0  0  0  0  0  0  0  0  0  0  0
   55.4690   22.5310   44.9230 C   0  0  0  0  0  0  0  0  0  0  0  0
   55.4990   21.1700   44.5770 O   0  0  0  0  0  0  0  0  0  0  0  0
   56.5770   20.2870   44.8700 C   0  0  0  0  0  0  0  0  0  0  0  0
   54.2400   23.0990   45.2930 C   0  0  0  0  0  0  0  0  0  0  0  0
   53.1040   22.2740   45.3180 O   0  0  0  0  0  0  0  0  0  0  0  0
   52.1680   22.2200   46.3910 C   0  0  0  0  0  0  0  0  0  0  0  0
   54.1790   24.4650   45.6320 C   0  0  0  0  0  0  0  0  0  0  0  0
   58.5130   29.6860   46.2840 C   0  0  0  0  0  0  0  0  0  0  0  0
   58.5340   29.6610   47.5460 O   0  0  0  0  0  0  0  0  0  0  0  0
   58.2800   30.9800   45.5950 C   0  0  0  0  0  0  0  0  0  0  0  0
   57.5370   31.1840   44.4320 C   0  0  0  0  0  0  0  0  0  0  0  0
   57.5130   32.4930   44.1030 N   0  0  0  0  0  0  0  0  0  0  0  0
   58.2320   33.1280   45.0430 C   0  0  0  0  0  0  0  0  0  0  0  0
   58.4860   34.4960   45.1220 C   0  0  0  0  0  0  0  0  0  0  0  0
   59.2690   34.9590   46.1950 C   0  0  0  0  0  0  0  0  0  0  0  0
   59.7730   34.0540   47.1540 C   0  0  0  0  0  0  0  0  0  0  0  0
   59.4990   32.6780   47.0500 C   0  0  0  0  0  0  0  0  0  0  0  0
   58.7190   32.2420   45.9730 C   0  0  0  0  0  0  0  0  0  0  0  0
   61.5208   29.5474   45.5279 H   0  0  0  0  0  0  0  0  0  0  0  0
   61.6926   28.4138   44.1451 H   0  0  0  0  0  0  0  0  0  0  0  0
   60.3778   29.6376   44.1451 H   0  0  0  0  0  0  0  0  0  0  0  0
   60.0712   27.0105   44.9280 H   0  0  0  0  0  0  0  0  0  0  0  0
   60.4031   27.8397   46.5093 H   0  0  0  0  0  0  0  0  0  0  0  0
   58.3540   28.6290   44.5420 H   0  0  0  0  0  0  0  0  0  0  0  0
   58.0611   26.4296   45.7052 H   0  0  0  0  0  0  0  0  0  0  0  0
   57.7515   27.4846   47.1604 H   0  0  0  0  0  0  0  0  0  0  0  0
   57.4770   25.2870   45.2757 H   0  0  0  0  0  0  0  0  0  0  0  0
   57.5968   22.8841   44.6382 H   0  0  0  0  0  0  0  0  0  0  0  0
   56.6895   20.1949   45.9603 H   0  0  0  0  0  0  0  0  0  0  0  0
   56.3680   19.2972   44.4380 H   0  0  0  0  0  0  0  0  0  0  0  0
   57.5063   20.6868   44.4380 H   0  0  0  0  0  0  0  0  0  0  0  0
   52.7068   22.2511   47.3495 H   0  0  0  0  0  0  0  0  0  0  0  0
   51.4856   23.0803   46.3259 H   0  0  0  0  0  0  0  0  0  0  0  0
   51.5890   21.2870   46.3259 H   0  0  0  0  0  0  0  0  0  0  0  0
   53.2170   24.9124   45.9226 H   0  0  0  0  0  0  0  0  0  0  0  0
   57.0386   30.3868   43.8609 H   0  0  0  0  0  0  0  0  0  0  0  0
   57.0270   32.9230   43.2840 H   0  0  0  0  0  0  0  0  0  0  0  0
   58.0869   35.1917   44.3692 H   0  0  0  0  0  0  0  0  0  0  0  0
   59.4899   36.0326   46.2873 H   0  0  0  0  0  0  0  0  0  0  0  0
   60.3844   34.4274   47.9887 H   0  0  0  0  0  0  0  0  0  0  0  0
   59.8865   31.9658   47.7934 H   0  0  0  0  0  0  0  0  0  0  0  0
  1  2  1  0
  2  3  1  0
  3  4  1  0
  4  5  1  0
  5  6  2  0
  5  7  1  0
  7  8  1  0
  8  9  2  0
  9 10  1  0
 10 11  2  0
 11 12  1  0
 12 13  1  0
 11 14  1  0
 14 15  1  0
 15 16  1  0
 14 17  2  0
  3 18  1  0
 18 19  2  0
 18 20  1  0
 20 21  2  0
 21 22  1  0
 22 23  1  0
 23 24  2  0
 24 25  1  0
 25 26  2  0
 26 27  1  0
 27 28  2  0
 17  8  1  0
 28 20  1  0
 28 23  1  0
  1 29  1  0
  1 30  1  0
  1 31  1  0
  2 32  1  0
  2 33  1  0
  3 34  1  6
  4 35  1  0
  4 36  1  0
  9 37  1  0
 10 38  1  0
 13 39  1  0
 13 40  1  0
 13 41  1  0
 16 42  1  0
 16 43  1  0
 16 44  1  0
 17 45  1  0
 21 46  1  0
 22 47  1  0
 24 48  1  0
 25 49  1  0
 26 50  1  0
 27 51  1  0
M  CHG  2   3   1   7  -1
M  END
>  <UniqueID>  (10) 
8

>  <SMILES>  (10) 
CC[N@@H+](CC(=O)[N-]c1ccc(OC)c(OC)c1)C(=O)c1c[nH]c2ccccc12

>  <Energy>  (10) 
91.29091559239167

>  <Genealogy>  (10) 
CC[NH+](CC(=O)[N-]c1ccc(OC)c(OC)c1)C(=O)c1c[nH]c2ccccc12 (protonated)
CC[N@@H+](CC(=O)[N-]c1ccc(OC)c(OC)c1)C(=O)c1c[nH]c2ccccc12 (chirality)
CC[N@@H+](CC(=O)[N-]c1ccc(OC)c(OC)c1)C(=O)c1c[nH]c2ccccc12 (3D coordinates assigned)
CC[N@@H+](CC(=O)[N-]c1ccc(OC)c(OC)c1)C(=O)c1c[nH]c2ccccc12 (optimized conformer: 91.29091559239167 kcal/mol)

>  <smiles>  (10) 
CCN(CC(=O)Nc1ccc(OC)c(OC)c1)C(=O)c1c[nH]c2ccccc12

>  <score_type>  (10) 
oracle

>  <origin>  (10) 
adg

>  <m_score__min__energy>  (10) 
-8.9499999999999993

>  <m_primary>  (10) 
energy

$$$$
10:0
     RDKit          3D

 51 54  0  0  0  0  0  0  0  0999 V2000
   57.0770   26.3580   47.1520 O   0  0  0  0  0  0  0  0  0  0  0  0
   56.5290   26.7480   46.0890 C   0  0  0  0  0  0  0  0  0  0  0  0
   55.1440   26.7200   45.9780 O   0  0  0  0  0  0  0  0  0  0  0  0
   57.3600   27.2880   44.9700 C   0  0  0  0  0  0  0  0  0  0  0  0
   57.2020   28.7360   44.8830 N   0  0  0  0  0  0  0  0  0  0  0  0
   56.1020   29.4090   44.4960 C   0  0  0  0  0  0  0  0  0  0  0  0
   56.2480   30.7460   44.6080 N   0  0  0  0  0  0  0  0  0  0  0  0
   57.5030   30.9020   45.0820 C   0  0  0  0  0  0  0  0  0  0  0  0
   58.0970   32.2190   45.4000 C   0  0  0  0  0  0  0  0  0  0  0  0
   58.2360   33.1470   44.3540 C   0  0  0  0  0  0  0  0  0  0  0  0
   58.7700   34.4150   44.5930 C   0  0  0  0  0  0  0  0  0  0  0  0
   59.1780   34.7710   45.8770 C   0  0  0  0  0  0  0  0  0  0  0  0
   59.0690   33.8550   46.9240 C   0  0  0  0  0  0  0  0  0  0  0  0
   58.5520   32.5650   46.7030 C   0  0  0  0  0  0  0  0  0  0  0  0
   58.5260   31.5930   47.8640 C   0  0  0  0  0  0  0  0  0  0  0  0
   59.7730   30.9090   47.9990 O   0  0  0  0  0  0  0  0  0  0  0  0
   61.0050   31.5150   48.2910 C   0  0  0  0  0  0  0  0  0  0  0  0
   62.1560   31.3120   47.5070 C   0  0  0  0  0  0  0  0  0  0  0  0
   63.3600   31.9310   47.8510 C   0  0  0  0  0  0  0  0  0  0  0  0
   63.4370   32.7560   48.9840 C   0  0  0  0  0  0  0  0  0  0  0  0
   64.7260   33.4470   49.3360 C   0  0  0  0  0  0  0  0  0  0  0  0
   65.5670   32.5670   50.2180 C   0  0  0  0  0  0  0  0  0  0  0  0
   65.0300   31.3870   50.7620 C   0  0  0  0  0  0  0  0  0  0  0  0
   65.8230   30.5540   51.5570 C   0  0  0  0  0  0  0  0  0  0  0  0
   67.1570   30.8860   51.8060 C   0  0  0  0  0  0  0  0  0  0  0  0
   67.7020   32.0500   51.2580 C   0  0  0  0  0  0  0  0  0  0  0  0
   66.9130   32.8870   50.4630 C   0  0  0  0  0  0  0  0  0  0  0  0
   62.2840   32.9730   49.7540 C   0  0  0  0  0  0  0  0  0  0  0  0
   61.0790   32.3530   49.4090 C   0  0  0  0  0  0  0  0  0  0  0  0
   58.0870   29.6670   45.2740 C   0  0  0  0  0  0  0  0  0  0  0  0
   58.4177   27.0476   45.1532 H   0  0  0  0  0  0  0  0  0  0  0  0
   57.0314   26.8321   44.0244 H   0  0  0  0  0  0  0  0  0  0  0  0
   55.1859   28.9230   44.1292 H   0  0  0  0  0  0  0  0  0  0  0  0
   57.9210   32.8718   43.3366 H   0  0  0  0  0  0  0  0  0  0  0  0
   58.8687   35.1340   43.7664 H   0  0  0  0  0  0  0  0  0  0  0  0
   59.5863   35.7749   46.0654 H   0  0  0  0  0  0  0  0  0  0  0  0
   59.3913   34.1450   47.9350 H   0  0  0  0  0  0  0  0  0  0  0  0
   58.3201   32.1482   48.7910 H   0  0  0  0  0  0  0  0  0  0  0  0
   57.7406   30.8468   47.6733 H   0  0  0  0  0  0  0  0  0  0  0  0
   62.1073   30.6634   46.6199 H   0  0  0  0  0  0  0  0  0  0  0  0
   64.2537   31.7709   47.2299 H   0  0  0  0  0  0  0  0  0  0  0  0
   65.2808   33.6717   48.4131 H   0  0  0  0  0  0  0  0  0  0  0  0
   64.4967   34.3782   49.8747 H   0  0  0  0  0  0  0  0  0  0  0  0
   63.9824   31.1182   50.5615 H   0  0  0  0  0  0  0  0  0  0  0  0
   65.3960   29.6360   51.9870 H   0  0  0  0  0  0  0  0  0  0  0  0
   67.7786   30.2307   52.4338 H   0  0  0  0  0  0  0  0  0  0  0  0
   68.7534   32.3083   51.4523 H   0  0  0  0  0  0  0  0  0  0  0  0
   67.3475   33.7991   50.0279 H   0  0  0  0  0  0  0  0  0  0  0  0
   62.3283   33.6335   50.6325 H   0  0  0  0  0  0  0  0  0  0  0  0
   60.1818   32.5255   50.0217 H   0  0  0  0  0  0  0  0  0  0  0  0
   59.0942   29.4792   45.6744 H   0  0  0  0  0  0  0  0  0  0  0  0
  1  2  2  0
  2  3  1  0
  2  4  1  0
  4  5  1  0
  5  6  1  0
  6  7  2  0
  7  8  1  0
  8  9  1  0
  9 10  2  0
 10 11  1  0
 11 12  2  0
 12 13  1  0
 13 14  2  0
 14 15  1  0
 15 16  1  0
 16 17  1  0
 17 18  2  0
 18 19  1  0
 19 20  2  0
 20 21  1  0
 21 22  1  0
 22 23  2  0
 23 24  1  0
 24 25  2  0
 25 26  1  0
 26 27  2  0
 20 28  1  0
 28 29  2  0
  8 30  2  0
 30  5  1  0
 14  9  1  0
 29 17  1  0
 27 22  1  0
  4 31  1  0
  4 32  1  0
  6 33  1  0
 10 34  1  0
 11 35  1  0
 12 36  1  0
 13 37  1  0
 15 38  1  0
 15 39  1  0
 18 40  1  0
 19 41  1  0
 21 42  1  0
 21 43  1  0
 23 44  1  0
 24 45  1  0
 25 46  1  0
 26 47  1  0
 27 48  1  0
 28 49  1  0
 29 50  1  0
 30 51  1  0
M  CHG  1   3  -1
M  END
>  <UniqueID>  (11) 
9

>  <SMILES>  (11) 
O=C([O-])Cn1cnc(-c2ccccc2COc2ccc(Cc3ccccc3)cc2)c1

>  <Energy>  (11) 
87.09130814407139

>  <Genealogy>  (11) 
O=C([O-])Cn1cnc(-c2ccccc2COc2ccc(Cc3ccccc3)cc2)c1 (protonated)
O=C([O-])Cn1cnc(-c2ccccc2COc2ccc(Cc3ccccc3)cc2)c1 (3D coordinates assigned)
O=C([O-])Cn1cnc(-c2ccccc2COc2ccc(Cc3ccccc3)cc2)c1 (optimized conformer: 87.09130814407139 kcal/mol)

>  <smiles>  (11) 
O=C(O)Cn1cnc(-c2ccccc2COc2ccc(Cc3ccccc3)cc2)c1

>  <score_type>  (11) 
oracle

>  <origin>  (11) 
adg

>  <m_score__min__energy>  (11) 
-11.94

>  <m_primary>  (11) 
energy

$$$$
11:0
     RDKit          3D

 35 36  0  0  0  0  0  0  0  0999 V2000
   51.2820   33.1150   51.9440 N   0  0  0  0  0  0  0  0  0  0  0  0
   51.2990   31.4290   51.5720 S   0  0  0  0  0  0  0  0  0  0  0  0
   50.9170   31.2300   50.1330 O   0  0  0  0  0  0  0  0  0  0  0  0
   50.3020   30.7120   52.4390 O   0  0  0  0  0  0  0  0  0  0  0  0
   52.9110   30.7790   51.8570 C   0  0  0  0  0  0  0  0  0  0  0  0
   54.0420   31.5810   51.6550 C   0  0  0  0  0  0  0  0  0  0  0  0
   55.3200   31.0690   51.8950 C   0  0  0  0  0  0  0  0  0  0  0  0
   55.4850   29.7460   52.3280 C   0  0  0  0  0  0  0  0  0  0  0  0
   56.8130   29.2670   52.5820 N   0  0  0  0  0  0  0  0  0  0  0  0
   58.0330   29.8380   52.0930 C   0  0  0  0  0  0  0  0  0  0  0  0
   59.0330   29.9500   52.8510 O   0  0  0  0  0  0  0  0  0  0  0  0
   58.1300   30.1910   50.7050 N   0  0  0  0  0  0  0  0  0  0  0  0
   59.2210   30.9340   50.1340 C   0  0  0  0  0  0  0  0  0  0  0  0
   60.3350   30.2880   49.5690 C   0  0  0  0  0  0  0  0  0  0  0  0
   61.3930   31.0350   49.0430 C   0  0  0  0  0  0  0  0  0  0  0  0
   61.3560   32.4340   49.0790 C   0  0  0  0  0  0  0  0  0  0  0  0
   62.6970   33.3720   48.4280 S   0  0  0  0  0  0  0  0  0  0  0  0
   64.1570   32.4560   48.5550 N   0  0  0  0  0  0  0  0  0  0  0  0
   62.4340   33.7030   46.9860 O   0  0  0  0  0  0  0  0  0  0  0  0
   62.8440   34.6540   49.1990 O   0  0  0  0  0  0  0  0  0  0  0  0
   60.2610   33.0820   49.6670 C   0  0  0  0  0  0  0  0  0  0  0  0
   59.2040   32.3360   50.1950 C   0  0  0  0  0  0  0  0  0  0  0  0
   54.3470   28.9520   52.5590 C   0  0  0  0  0  0  0  0  0  0  0  0
   53.0690   29.4670   52.3200 C   0  0  0  0  0  0  0  0  0  0  0  0
   50.2800   33.4050   51.9960 H   0  0  0  0  0  0  0  0  0  0  0  0
   53.9236   32.6175   51.3062 H   0  0  0  0  0  0  0  0  0  0  0  0
   56.2022   31.7083   51.7431 H   0  0  0  0  0  0  0  0  0  0  0  0
   57.3970   29.8160   50.0620 H   0  0  0  0  0  0  0  0  0  0  0  0
   60.3741   29.1891   49.5408 H   0  0  0  0  0  0  0  0  0  0  0  0
   62.2584   30.5213   48.5989 H   0  0  0  0  0  0  0  0  0  0  0  0
   64.5610   32.3930   47.5940 H   0  0  0  0  0  0  0  0  0  0  0  0
   60.2337   34.1807   49.7129 H   0  0  0  0  0  0  0  0  0  0  0  0
   58.3520   32.8516   50.6621 H   0  0  0  0  0  0  0  0  0  0  0  0
   54.4628   27.9225   52.9289 H   0  0  0  0  0  0  0  0  0  0  0  0
   52.1837   28.8385   52.4966 H   0  0  0  0  0  0  0  0  0  0  0  0
  1  2  1  0
  2  3  2  0
  2  4  2  0
  2  5  1  0
  5  6  2  0
  6  7  1  0
  7  8  2  0
  8  9  1  0
  9 10  1  0
 10 11  2  0
 10 12  1  0
 12 13  1  0
 13 14  2  0
 14 15  1  0
 15 16  2  0
 16 17  1  0
 17 18  1  0
 17 19  2  0
 17 20  2  0
 16 21  1  0
 21 22  2  0
  8 23  1  0
 23 24  2  0
 24  5  1  0
 22 13  1  0
  1 25  1  0
  6 26  1  0
  7 27  1  0
 12 28  1  0
 14 29  1  0
 15 30  1  0
 18 31  1  0
 21 32  1  0
 22 33  1  0
 23 34  1  0
 24 35  1  0
M  CHG  3   1  -1   9  -1  18  -1
M  END
>  <UniqueID>  (12) 
10

>  <SMILES>  (12) 
[NH-]S(=O)(=O)c1ccc([N-]C(=O)Nc2ccc(S([NH-])(=O)=O)cc2)cc1

>  <Energy>  (12) 
41.60251917674813

>  <Genealogy>  (12) 
[NH-]S(=O)(=O)c1ccc([N-]C(=O)Nc2ccc(S([NH-])(=O)=O)cc2)cc1 (protonated)
[NH-]S(=O)(=O)c1ccc([N-]C(=O)Nc2ccc(S([NH-])(=O)=O)cc2)cc1 (3D coordinates assigned)
[NH-]S(=O)(=O)c1ccc([N-]C(=O)Nc2ccc(S([NH-])(=O)=O)cc2)cc1 (optimized conformer: 41.60251917674813 kcal/mol)

>  <smiles>  (12) 
NS(=O)(=O)c1ccc(NC(=O)Nc2ccc(S(N)(=O)=O)cc2)cc1

>  <score_type>  (12) 
oracle

>  <origin>  (12) 
adg

>  <m_score__min__energy>  (12) 
-11.32

>  <m_primary>  (12) 
energy

$$$$
12:0
     RDKit          3D

 39 41  0  0  0  0  0  0  0  0999 V2000
   65.2670   33.1180   49.8050 C   0  0  0  0  0  0  0  0  0  0  0  0
   63.8820   33.5810   49.9560 N   0  0  0  0  0  0  0  0  0  0  0  0
   63.5220   34.3640   51.1450 C   0  0  0  0  0  0  0  0  0  0  0  0
   62.8850   33.2700   48.9470 C   0  0  0  0  0  0  0  0  0  0  0  0
   63.0160   32.1190   48.1230 C   0  0  0  0  0  0  0  0  0  0  0  0
   62.0570   31.8090   47.1450 C   0  0  0  0  0  0  0  0  0  0  0  0
   60.9580   32.6520   46.9900 C   0  0  0  0  0  0  0  0  0  0  0  0
   59.9600   32.4700   46.0870 N   0  0  0  0  0  0  0  0  0  0  0  0
   59.0230   33.4490   46.1660 C   0  0  0  0  0  0  0  0  0  0  0  0
   57.8170   33.5190   45.3210 C   0  0  0  0  0  0  0  0  0  0  0  0
   57.1410   34.5830   45.2970 O   0  0  0  0  0  0  0  0  0  0  0  0
   57.3760   32.3530   44.4830 C   0  0  0  0  0  0  0  0  0  0  0  0
   58.4380   31.4130   44.3240 O   0  0  0  0  0  0  0  0  0  0  0  0
   58.4110   30.0740   44.7490 C   0  0  0  0  0  0  0  0  0  0  0  0
   59.5820   29.3170   44.9530 C   0  0  0  0  0  0  0  0  0  0  0  0
   59.4930   27.9860   45.3730 C   0  0  0  0  0  0  0  0  0  0  0  0
   58.2440   27.4010   45.5950 C   0  0  0  0  0  0  0  0  0  0  0  0
   58.1630   26.1100   46.0030 F   0  0  0  0  0  0  0  0  0  0  0  0
   57.0780   28.1490   45.3990 C   0  0  0  0  0  0  0  0  0  0  0  0
   55.8640   27.5850   45.6160 F   0  0  0  0  0  0  0  0  0  0  0  0
   57.1630   29.4800   44.9790 C   0  0  0  0  0  0  0  0  0  0  0  0
   59.4120   34.5800   47.3670 S   0  0  0  0  0  0  0  0  0  0  0  0
   60.8240   33.7740   47.7870 C   0  0  0  0  0  0  0  0  0  0  0  0
   61.7570   34.1080   48.7630 C   0  0  0  0  0  0  0  0  0  0  0  0
   65.7141   32.9685   50.7989 H   0  0  0  0  0  0  0  0  0  0  0  0
   65.2776   32.1675   49.2515 H   0  0  0  0  0  0  0  0  0  0  0  0
   65.8471   33.8711   49.2515 H   0  0  0  0  0  0  0  0  0  0  0  0
   63.7829   33.7966   52.0505 H   0  0  0  0  0  0  0  0  0  0  0  0
   64.0727   35.3162   51.1376 H   0  0  0  0  0  0  0  0  0  0  0  0
   62.4407   34.5658   51.1376 H   0  0  0  0  0  0  0  0  0  0  0  0
   63.8856   31.4582   48.2540 H   0  0  0  0  0  0  0  0  0  0  0  0
   62.1712   30.9164   46.5123 H   0  0  0  0  0  0  0  0  0  0  0  0
   59.9310   31.6710   45.4150 H   0  0  0  0  0  0  0  0  0  0  0  0
   56.5258   31.8570   44.9741 H   0  0  0  0  0  0  0  0  0  0  0  0
   57.0815   32.7237   43.4901 H   0  0  0  0  0  0  0  0  0  0  0  0
   60.5679   29.7738   44.7816 H   0  0  0  0  0  0  0  0  0  0  0  0
   60.4094   27.3979   45.5290 H   0  0  0  0  0  0  0  0  0  0  0  0
   56.2437   30.0648   44.8281 H   0  0  0  0  0  0  0  0  0  0  0  0
   61.6216   35.0074   49.3816 H   0  0  0  0  0  0  0  0  0  0  0  0
  1  2  1  0
  2  3  1  0
  2  4  1  0
  4  5  2  0
  5  6  1  0
  6  7  2  0
  7  8  1  0
  8  9  2  0
  9 10  1  0
 10 11  2  0
 10 12  1  0
 12 13  1  0
 13 14  1  0
 14 15  2  0
 15 16  1  0
 16 17  2  0
 17 18  1  0
 17 19  1  0
 19 20  1  0
 19 21  2  0
  9 22  1  0
 22 23  1  0
 23 24  2  0
 24  4  1  0
 23  7  1  0
 21 14  1  0
  1 25  1  0
  1 26  1  0
  1 27  1  0
  3 28  1  0
  3 29  1  0
  3 30  1  0
  5 31  1  0
  6 32  1  0
  8 33  1  0
 12 34  1  0
 12 35  1  0
 15 36  1  0
 16 37  1  0
 21 38  1  0
 24 39  1  0
M  CHG  1   8   1
M  END
>  <UniqueID>  (13) 
11

>  <SMILES>  (13) 
CN(C)c1ccc2[nH+]c(C(=O)COc3ccc(F)c(F)c3)sc2c1

>  <Energy>  (13) 
75.55977468255035

>  <Genealogy>  (13) 
CN(C)c1ccc2[nH+]c(C(=O)COc3ccc(F)c(F)c3)sc2c1 (protonated)
CN(C)c1ccc2[nH+]c(C(=O)COc3ccc(F)c(F)c3)sc2c1 (3D coordinates assigned)
CN(C)c1ccc2[nH+]c(C(=O)COc3ccc(F)c(F)c3)sc2c1 (optimized conformer: 75.55977468255035 kcal/mol)

>  <smiles>  (13) 
CN(C)c1ccc2nc(C(=O)COc3ccc(F)c(F)c3)sc2c1

>  <score_type>  (13) 
oracle

>  <origin>  (13) 
adg

>  <m_score__min__energy>  (13) 
-5.5899999999999999

>  <m_primary>  (13) 
energy

$$$$
13:0
     RDKit          3D

 54 57  0  0  0  0  0  0  0  0999 V2000
   56.9670   30.9800   42.2850 C   0  0  0  0  0  0  0  0  0  0  0  0
   56.6400   29.7230   42.5960 C   0  0  0  0  0  0  0  0  0  0  0  0
   56.1770   29.3420   43.9750 C   0  0  0  0  0  0  0  0  0  0  0  0
   57.2810   29.4570   44.9510 N   0  0  0  0  0  0  0  0  0  0  0  0
   57.6390   30.6830   45.4600 C   0  0  0  0  0  0  0  0  0  0  0  0
   57.0390   31.7300   45.0890 O   0  0  0  0  0  0  0  0  0  0  0  0
   58.6960   30.7800   46.3880 C   0  0  0  0  0  0  0  0  0  0  0  0
   59.0950   32.0880   46.9620 C   0  0  0  0  0  0  0  0  0  0  0  0
   59.0480   33.2340   46.1510 C   0  0  0  0  0  0  0  0  0  0  0  0
   59.4100   34.4790   46.6680 C   0  0  0  0  0  0  0  0  0  0  0  0
   59.8300   34.5910   47.9940 C   0  0  0  0  0  0  0  0  0  0  0  0
   59.8980   33.4570   48.8060 C   0  0  0  0  0  0  0  0  0  0  0  0
   59.5410   32.1920   48.2980 C   0  0  0  0  0  0  0  0  0  0  0  0
   59.6300   31.0270   49.0790 O   0  0  0  0  0  0  0  0  0  0  0  0
   59.0290   30.8650   50.3600 C   0  0  0  0  0  0  0  0  0  0  0  0
   59.3810   29.6570   46.7420 N   0  0  0  0  0  0  0  0  0  0  0  0
   59.0430   28.4440   46.2340 C   0  0  0  0  0  0  0  0  0  0  0  0
   59.7360   27.2840   46.5930 C   0  0  0  0  0  0  0  0  0  0  0  0
   59.3720   26.0890   46.0630 N   0  0  0  0  0  0  0  0  0  0  0  0
   58.3380   25.9900   45.1810 C   0  0  0  0  0  0  0  0  0  0  0  0
   57.9740   24.7090   44.6300 N   0  0  0  0  0  0  0  0  0  0  0  0
   58.5160   23.4760   45.2140 C   0  0  0  0  0  0  0  0  0  0  0  0
   58.3460   22.2910   44.2510 C   0  0  0  0  0  0  0  0  0  0  0  0
   56.9490   22.1210   43.7850 N   0  0  0  0  0  0  0  0  0  0  0  0
   56.2090   21.1810   44.6420 C   0  0  0  0  0  0  0  0  0  0  0  0
   56.1870   23.3860   43.6090 C   0  0  0  0  0  0  0  0  0  0  0  0
   57.0920   24.6130   43.4600 C   0  0  0  0  0  0  0  0  0  0  0  0
   57.6560   27.1110   44.8240 N   0  0  0  0  0  0  0  0  0  0  0  0
   57.9770   28.3360   45.3260 C   0  0  0  0  0  0  0  0  0  0  0  0
   57.3021   31.2252   41.2664 H   0  0  0  0  0  0  0  0  0  0  0  0
   56.9012   31.7701   43.0475 H   0  0  0  0  0  0  0  0  0  0  0  0
   56.7114   28.9448   41.8219 H   0  0  0  0  0  0  0  0  0  0  0  0
   55.3574   30.0104   44.2775 H   0  0  0  0  0  0  0  0  0  0  0  0
   55.8324   28.2976   43.9547 H   0  0  0  0  0  0  0  0  0  0  0  0
   58.7242   33.1498   45.1031 H   0  0  0  0  0  0  0  0  0  0  0  0
   59.3641   35.3733   46.0291 H   0  0  0  0  0  0  0  0  0  0  0  0
   60.1081   35.5746   48.4005 H   0  0  0  0  0  0  0  0  0  0  0  0
   60.2326   33.5518   49.8496 H   0  0  0  0  0  0  0  0  0  0  0  0
   59.7749   31.0661   51.1430 H   0  0  0  0  0  0  0  0  0  0  0  0
   58.1902   31.5691   50.4632 H   0  0  0  0  0  0  0  0  0  0  0  0
   58.6577   29.8347   50.4632 H   0  0  0  0  0  0  0  0  0  0  0  0
   60.1700   29.7310   47.4250 H   0  0  0  0  0  0  0  0  0  0  0  0
   60.5741   27.3399   47.3032 H   0  0  0  0  0  0  0  0  0  0  0  0
   59.5863   23.6178   45.4248 H   0  0  0  0  0  0  0  0  0  0  0  0
   57.9669   23.2561   46.1415 H   0  0  0  0  0  0  0  0  0  0  0  0
   58.9905   22.4557   43.3749 H   0  0  0  0  0  0  0  0  0  0  0  0
   58.6242   21.3785   44.7987 H   0  0  0  0  0  0  0  0  0  0  0  0
   56.3982   21.4213   45.6986 H   0  0  0  0  0  0  0  0  0  0  0  0
   55.1321   21.2651   44.4340 H   0  0  0  0  0  0  0  0  0  0  0  0
   56.5435   20.1540   44.4340 H   0  0  0  0  0  0  0  0  0  0  0  0
   55.5644   23.2977   42.7064 H   0  0  0  0  0  0  0  0  0  0  0  0
   55.5790   23.5330   44.5138 H   0  0  0  0  0  0  0  0  0  0  0  0
   57.6998   24.5131   42.5486 H   0  0  0  0  0  0  0  0  0  0  0  0
   56.4744   25.5204   43.3880 H   0  0  0  0  0  0  0  0  0  0  0  0
  1  2  2  0
  2  3  1  0
  3  4  1  0
  4  5  1  0
  5  6  2  0
  5  7  1  0
  7  8  1  0
  8  9  2  0
  9 10  1  0
 10 11  2  0
 11 12  1  0
 12 13  2  0
 13 14  1  0
 14 15  1  0
  7 16  2  0
 16 17  1  0
 17 18  2  0
 18 19  1  0
 19 20  2  0
 20 21  1  0
 21 22  1  0
 22 23  1  0
 23 24  1  0
 24 25  1  0
 24 26  1  0
 26 27  1  0
 20 28  1  0
 28 29  2  0
 29  4  1  0
 13  8  1  0
 29 17  1  0
 27 21  1  0
  1 30  1  0
  1 31  1  0
  2 32  1  0
  3 33  1  0
  3 34  1  0
  9 35  1  0
 10 36  1  0
 11 37  1  0
 12 38  1  0
 15 39  1  0
 15 40  1  0
 15 41  1  0
 16 42  1  0
 18 43  1  0
 22 44  1  0
 22 45  1  0
 23 46  1  0
 23 47  1  0
 25 48  1  0
 25 49  1  0
 25 50  1  0
 26 51  1  0
 26 52  1  0
 27 53  1  0
 27 54  1  0
M  CHG  1  16   1
M  END
>  <UniqueID>  (14) 
12

>  <SMILES>  (14) 
C=CCn1c(=O)c(-c2ccccc2OC)[nH+]c2cnc(N3CCN(C)CC3)nc21

>  <Energy>  (14) 
75.48842960226594

>  <Genealogy>  (14) 
C=CCn1c(=O)c(-c2ccccc2OC)[nH+]c2cnc(N3CCN(C)CC3)nc21 (protonated)
C=CCn1c(=O)c(-c2ccccc2OC)[nH+]c2cnc(N3CCN(C)CC3)nc21 (3D coordinates assigned)
C=CCn1c(=O)c(-c2ccccc2OC)[nH+]c2cnc(N3CCN(C)CC3)nc21 (nonaromatic ring conformer: 75.48842960226594 kcal/mol)

>  <smiles>  (14) 
C=CCn1c(=O)c(-c2ccccc2OC)nc2cnc(N3CCN(C)CC3)nc21

>  <score_type>  (14) 
oracle

>  <origin>  (14) 
adg

>  <m_score__min__energy>  (14) 
-6.1600000000000001

>  <m_primary>  (14) 
energy

$$$$
14:0
     RDKit          3D

 31 32  0  0  0  0  0  0  0  0999 V2000
   59.0310   29.8100   47.8090 C   0  0  0  0  0  0  0  0  0  0  0  0
   58.1050   30.2470   46.8200 O   0  0  0  0  0  0  0  0  0  0  0  0
   58.1330   31.5050   46.1970 C   0  0  0  0  0  0  0  0  0  0  0  0
   58.7380   32.6200   46.8110 C   0  0  0  0  0  0  0  0  0  0  0  0
   58.8160   33.8570   46.1450 C   0  0  0  0  0  0  0  0  0  0  0  0
   59.4380   34.9940   46.7750 N   0  0  0  0  0  0  0  0  0  0  0  0
   59.6050   35.0260   48.0120 O   0  0  0  0  0  0  0  0  0  0  0  0
   59.8570   36.0670   46.0230 O   0  0  0  0  0  0  0  0  0  0  0  0
   58.2870   33.9670   44.8510 C   0  0  0  0  0  0  0  0  0  0  0  0
   57.6760   32.8710   44.2410 C   0  0  0  0  0  0  0  0  0  0  0  0
   57.5640   31.6510   44.9140 C   0  0  0  0  0  0  0  0  0  0  0  0
   56.9020   30.5640   44.2460 N   0  0  0  0  0  0  0  0  0  0  0  0
   56.3230   29.4100   44.8700 C   0  0  0  0  0  0  0  0  0  0  0  0
   55.1160   29.4560   45.2230 O   0  0  0  0  0  0  0  0  0  0  0  0
   57.1050   28.1780   45.1270 C   0  0  0  0  0  0  0  0  0  0  0  0
   58.4660   28.1410   44.7770 C   0  0  0  0  0  0  0  0  0  0  0  0
   59.2370   27.0070   45.0430 C   0  0  0  0  0  0  0  0  0  0  0  0
   58.6540   25.8900   45.6480 C   0  0  0  0  0  0  0  0  0  0  0  0
   59.6240   24.4680   45.9850 Cl  0  0  0  0  0  0  0  0  0  0  0  0
   57.2950   25.9030   45.9740 C   0  0  0  0  0  0  0  0  0  0  0  0
   56.5170   27.0350   45.7070 C   0  0  0  0  0  0  0  0  0  0  0  0
   55.1570   27.0030   45.9990 O   0  0  0  0  0  0  0  0  0  0  0  0
   58.6179   30.0049   48.8097 H   0  0  0  0  0  0  0  0  0  0  0  0
   59.2120   28.7315   47.6908 H   0  0  0  0  0  0  0  0  0  0  0  0
   59.9786   30.3559   47.6908 H   0  0  0  0  0  0  0  0  0  0  0  0
   59.1547   32.5219   47.8243 H   0  0  0  0  0  0  0  0  0  0  0  0
   58.3542   34.9241   44.3131 H   0  0  0  0  0  0  0  0  0  0  0  0
   57.2783   32.9680   43.2200 H   0  0  0  0  0  0  0  0  0  0  0  0
   58.9277   29.0124   44.2896 H   0  0  0  0  0  0  0  0  0  0  0  0
   60.3040   26.9930   44.7761 H   0  0  0  0  0  0  0  0  0  0  0  0
   56.8353   25.0201   46.4422 H   0  0  0  0  0  0  0  0  0  0  0  0
  1  2  1  0
  2  3  1  0
  3  4  2  0
  4  5  1  0
  5  6  1  0
  6  7  2  0
  6  8  1  0
  5  9  2  0
  9 10  1  0
 10 11  2  0
 11 12  1  0
 12 13  1  0
 13 14  2  0
 13 15  1  0
 15 16  2  0
 16 17  1  0
 17 18  2  0
 18 19  1  0
 18 20  1  0
 20 21  2  0
 21 22  1  0
 11  3  1  0
 21 15  1  0
  1 23  1  0
  1 24  1  0
  1 25  1  0
  4 26  1  0
  9 27  1  0
 10 28  1  0
 16 29  1  0
 17 30  1  0
 20 31  1  0
M  CHG  4   6   1   8  -1  12  -1  22  -1
M  END
>  <UniqueID>  (15) 
13

>  <SMILES>  (15) 
COc1cc([N+](=O)[O-])ccc1[N-]C(=O)c1ccc(Cl)cc1[O-]

>  <Energy>  (15) 
41.940526618868

>  <Genealogy>  (15) 
COc1cc([N+](=O)[O-])ccc1[N-]C(=O)c1ccc(Cl)cc1[O-] (protonated)
COc1cc([N+](=O)[O-])ccc1[N-]C(=O)c1ccc(Cl)cc1[O-] (3D coordinates assigned)
COc1cc([N+](=O)[O-])ccc1[N-]C(=O)c1ccc(Cl)cc1[O-] (optimized conformer: 41.940526618868 kcal/mol)

>  <smiles>  (15) 
COc1cc([N+](=O)[O-])ccc1NC(=O)c1ccc(Cl)cc1O

>  <score_type>  (15) 
oracle

>  <origin>  (15) 
adg

>  <m_score__min__energy>  (15) 
-12.619999999999999

>  <m_primary>  (15) 
energy

$$$$
15:0
     RDKit          3D

 40 44  0  0  0  0  0  0  0  0999 V2000
   59.2830   32.5880   47.4930 O   0  0  0  0  0  0  0  0  0  0  0  0
   60.2690   31.8620   47.1920 C   0  0  0  0  0  0  0  0  0  0  0  0
   60.0810   30.7050   46.3560 N   0  0  0  0  0  0  0  0  0  0  0  0
   58.7940   30.2420   45.9130 C   0  0  0  0  0  0  0  0  0  0  0  0
   57.9320   31.1330   45.2630 C   0  0  0  0  0  0  0  0  0  0  0  0
   56.6870   30.7030   44.8060 C   0  0  0  0  0  0  0  0  0  0  0  0
   56.2900   29.3730   44.9720 C   0  0  0  0  0  0  0  0  0  0  0  0
   55.0380   28.9880   44.5050 O   0  0  0  0  0  0  0  0  0  0  0  0
   57.1550   28.4480   45.6000 C   0  0  0  0  0  0  0  0  0  0  0  0
   56.7790   27.0220   45.7810 C   0  0  0  0  0  0  0  0  0  0  0  0
   55.4860   26.5950   45.7620 N   0  0  0  0  0  0  0  0  0  0  0  0
   55.6060   25.2740   45.9590 C   0  0  0  0  0  0  0  0  0  0  0  0
   54.5890   24.3260   46.0310 C   0  0  0  0  0  0  0  0  0  0  0  0
   54.9600   22.9850   46.2470 C   0  0  0  0  0  0  0  0  0  0  0  0
   56.3230   22.6350   46.3830 C   0  0  0  0  0  0  0  0  0  0  0  0
   57.3230   23.6220   46.3030 C   0  0  0  0  0  0  0  0  0  0  0  0
   56.9170   24.9370   46.0890 C   0  0  0  0  0  0  0  0  0  0  0  0
   57.6880   26.0280   45.9810 N   0  0  0  0  0  0  0  0  0  0  0  0
   58.4090   28.8970   46.0590 C   0  0  0  0  0  0  0  0  0  0  0  0
   61.6100   32.2300   47.7080 C   0  0  0  0  0  0  0  0  0  0  0  0
   62.4160   33.2010   47.0480 C   0  0  0  0  0  0  0  0  0  0  0  0
   63.6860   33.5450   47.5500 C   0  0  0  0  0  0  0  0  0  0  0  0
   64.1130   32.9090   48.7080 C   0  0  0  0  0  0  0  0  0  0  0  0
   65.2650   33.0120   49.4480 C   0  0  0  0  0  0  0  0  0  0  0  0
   65.1640   32.1640   50.4990 N   0  0  0  0  0  0  0  0  0  0  0  0
   63.9920   31.5370   50.4470 N   0  0  0  0  0  0  0  0  0  0  0  0
   63.3490   31.9880   49.3570 C   0  0  0  0  0  0  0  0  0  0  0  0
   62.0890   31.6220   48.8940 C   0  0  0  0  0  0  0  0  0  0  0  0
   60.9150   30.1910   46.0000 H   0  0  0  0  0  0  0  0  0  0  0  0
   58.2387   32.1785   45.1119 H   0  0  0  0  0  0  0  0  0  0  0  0
   56.0116   31.4161   44.3108 H   0  0  0  0  0  0  0  0  0  0  0  0
   53.5330   24.6144   45.9230 H   0  0  0  0  0  0  0  0  0  0  0  0
   54.1858   22.2061   46.3102 H   0  0  0  0  0  0  0  0  0  0  0  0
   56.6035   21.5849   46.5524 H   0  0  0  0  0  0  0  0  0  0  0  0
   58.3874   23.3641   46.4058 H   0  0  0  0  0  0  0  0  0  0  0  0
   59.0971   28.1853   46.5386 H   0  0  0  0  0  0  0  0  0  0  0  0
   62.0422   33.6881   46.1353 H   0  0  0  0  0  0  0  0  0  0  0  0
   64.3166   34.2903   47.0432 H   0  0  0  0  0  0  0  0  0  0  0  0
   66.1197   33.6680   49.2261 H   0  0  0  0  0  0  0  0  0  0  0  0
   61.4817   30.8809   49.4342 H   0  0  0  0  0  0  0  0  0  0  0  0
  1  2  2  0
  2  3  1  0
  3  4  1  0
  4  5  2  0
  5  6  1  0
  6  7  2  0
  7  8  1  0
  7  9  1  0
  9 10  1  0
 10 11  2  0
 11 12  1  0
 12 13  2  0
 13 14  1  0
 14 15  2  0
 15 16  1  0
 16 17  2  0
 17 18  1  0
  9 19  2  0
  2 20  1  0
 20 21  1  0
 21 22  2  0
 22 23  1  0
 23 24  2  0
 24 25  1  0
 25 26  1  0
 26 27  2  0
 27 28  1  0
 19  4  1  0
 28 20  2  0
 18 10  1  0
 27 23  1  0
 17 12  1  0
  3 29  1  0
  5 30  1  0
  6 31  1  0
 13 32  1  0
 14 33  1  0
 15 34  1  0
 16 35  1  0
 19 36  1  0
 21 37  1  0
 22 38  1  0
 24 39  1  0
 28 40  1  0
M  CHG  3   8  -1  18  -1  25  -1
M  END
>  <UniqueID>  (16) 
14

>  <SMILES>  (16) 
O=C(Nc1ccc([O-])c(-c2nc3ccccc3[n-]2)c1)c1ccc2c[n-]nc2c1

>  <Energy>  (16) 
129.0919003021701

>  <Genealogy>  (16) 
O=C(Nc1ccc([O-])c(-c2nc3ccccc3[n-]2)c1)c1ccc2c[n-]nc2c1 (protonated)
O=C(Nc1ccc([O-])c(-c2nc3ccccc3[n-]2)c1)c1ccc2c[n-]nc2c1 (3D coordinates assigned)
O=C(Nc1ccc([O-])c(-c2nc3ccccc3[n-]2)c1)c1ccc2c[n-]nc2c1 (optimized conformer: 129.0919003021701 kcal/mol)

>  <smiles>  (16) 
O=C(Nc1ccc(O)c(-c2nc3ccccc3[nH]2)c1)c1ccc2c[nH]nc2c1

>  <score_type>  (16) 
oracle

>  <origin>  (16) 
adg

>  <m_score__min__energy>  (16) 
-13.52

>  <m_primary>  (16) 
energy

$$$$
16:0
     RDKit          3D

 38 39  0  0  0  0  0  0  0  0999 V2000
   59.6050   34.5940   44.8610 C   0  0  0  0  0  0  0  0  0  0  0  0
   59.0100   34.7680   46.1870 N   0  0  0  0  0  0  0  0  0  0  0  0
   57.7640   34.0010   46.2920 C   0  0  0  0  0  0  0  0  0  0  0  0
   58.0020   32.5630   45.8860 C   0  0  0  0  0  0  0  0  0  0  0  0
   57.1370   31.9790   44.9460 C   0  0  0  0  0  0  0  0  0  0  0  0
   57.3500   30.6790   44.4850 C   0  0  0  0  0  0  0  0  0  0  0  0
   56.2230   30.0030   43.3150 Cl  0  0  0  0  0  0  0  0  0  0  0  0
   58.4540   29.9440   44.9410 C   0  0  0  0  0  0  0  0  0  0  0  0
   58.7360   28.3090   44.3400 Cl  0  0  0  0  0  0  0  0  0  0  0  0
   59.3300   30.5140   45.8790 C   0  0  0  0  0  0  0  0  0  0  0  0
   60.7260   29.6080   46.4610 Cl  0  0  0  0  0  0  0  0  0  0  0  0
   59.0910   31.8040   46.3870 C   0  0  0  0  0  0  0  0  0  0  0  0
   59.9820   32.3080   47.3500 O   0  0  0  0  0  0  0  0  0  0  0  0
   59.6700   32.5610   48.6930 C   0  0  0  0  0  0  0  0  0  0  0  0
   58.5130   31.9660   49.2120 C   0  0  0  0  0  0  0  0  0  0  0  0
   58.1620   32.1380   50.5520 C   0  0  0  0  0  0  0  0  0  0  0  0
   58.9520   32.9290   51.3850 C   0  0  0  0  0  0  0  0  0  0  0  0
   60.0840   33.5690   50.8730 C   0  0  0  0  0  0  0  0  0  0  0  0
   60.4500   33.4120   49.5240 C   0  0  0  0  0  0  0  0  0  0  0  0
   61.6160   34.2180   49.0030 C   0  0  0  0  0  0  0  0  0  0  0  0
   62.7610   33.3120   48.5410 C   0  0  0  0  0  0  0  0  0  0  0  0
   63.1100   33.5990   47.1460 C   0  0  0  0  0  0  0  0  0  0  0  0
   63.3860   33.8270   46.0460 N   0  0  0  0  0  0  0  0  0  0  0  0
   60.6558   34.2867   44.9681 H   0  0  0  0  0  0  0  0  0  0  0  0
   59.0511   33.8202   44.3092 H   0  0  0  0  0  0  0  0  0  0  0  0
   59.5553   35.5443   44.3092 H   0  0  0  0  0  0  0  0  0  0  0  0
   59.6880   34.3870   46.8880 H   0  0  0  0  0  0  0  0  0  0  0  0
   57.4051   34.0308   47.3314 H   0  0  0  0  0  0  0  0  0  0  0  0
   57.0115   34.4439   45.6229 H   0  0  0  0  0  0  0  0  0  0  0  0
   56.2793   32.5546   44.5677 H   0  0  0  0  0  0  0  0  0  0  0  0
   57.8739   31.3564   48.5563 H   0  0  0  0  0  0  0  0  0  0  0  0
   57.2612   31.6489   50.9511 H   0  0  0  0  0  0  0  0  0  0  0  0
   58.6844   33.0494   52.4451 H   0  0  0  0  0  0  0  0  0  0  0  0
   60.6955   34.2025   51.5323 H   0  0  0  0  0  0  0  0  0  0  0  0
   61.2775   34.8283   48.1528 H   0  0  0  0  0  0  0  0  0  0  0  0
   61.9874   34.8558   49.8187 H   0  0  0  0  0  0  0  0  0  0  0  0
   63.6407   33.4867   49.1778 H   0  0  0  0  0  0  0  0  0  0  0  0
   62.4394   32.2630   48.6194 H   0  0  0  0  0  0  0  0  0  0  0  0
  1  2  1  0
  2  3  1  0
  3  4  1  0
  4  5  2  0
  5  6  1  0
  6  7  1  0
  6  8  2  0
  8  9  1  0
  8 10  1  0
 10 11  1  0
 10 12  2  0
 12 13  1  0
 13 14  1  0
 14 15  2  0
 15 16  1  0
 16 17  2  0
 17 18  1  0
 18 19  2  0
 19 20  1  0
 20 21  1  0
 21 22  1  0
 22 23  3  0
 12  4  1  0
 19 14  1  0
  1 24  1  0
  1 25  1  0
  1 26  1  0
  2 27  1  0
  3 28  1  0
  3 29  1  0
  5 30  1  0
 15 31  1  0
 16 32  1  0
 17 33  1  0
 18 34  1  0
 20 35  1  0
 20 36  1  0
 21 37  1  0
 21 38  1  0
M  END
>  <UniqueID>  (17) 
15

>  <SMILES>  (17) 
CNCc1cc(Cl)c(Cl)c(Cl)c1Oc1ccccc1CCC#N

>  <Energy>  (17) 
45.84335904759542

>  <Genealogy>  (17) 
CNCc1cc(Cl)c(Cl)c(Cl)c1Oc1ccccc1CCC#N (3D coordinates assigned)
CNCc1cc(Cl)c(Cl)c(Cl)c1Oc1ccccc1CCC#N (optimized conformer: 45.84335904759542 kcal/mol)

>  <smiles>  (17) 
CNCc1cc(Cl)c(Cl)c(Cl)c1Oc1ccccc1CCC#N

>  <score_type>  (17) 
oracle

>  <origin>  (17) 
adg

>  <m_score__min__energy>  (17) 
-7.2699999999999996

>  <m_primary>  (17) 
energy

$$$$
17:0
     RDKit          3D

 36 37  0  0  0  0  0  0  0  0999 V2000
   57.2820   33.0750   44.8650 C   0  0  0  0  0  0  0  0  0  0  0  0
   57.4210   31.7120   45.3920 N   0  0  0  0  0  0  0  0  0  0  0  0
   57.0310   30.6770   44.4130 C   0  0  0  0  0  0  0  0  0  0  0  0
   56.4030   29.4570   45.0360 C   0  0  0  0  0  0  0  0  0  0  0  0
   55.2110   29.1620   44.7520 O   0  0  0  0  0  0  0  0  0  0  0  0
   57.1150   28.7390   46.0540 N   0  0  0  0  0  0  0  0  0  0  0  0
   57.4840   27.4870   46.0940 C   0  0  0  0  0  0  0  0  0  0  0  0
   58.8180   27.2260   45.9980 N   0  0  0  0  0  0  0  0  0  0  0  0
   59.3270   25.9680   46.0390 C   0  0  0  0  0  0  0  0  0  0  0  0
   58.4750   24.8760   46.1830 C   0  0  0  0  0  0  0  0  0  0  0  0
   57.1010   25.0920   46.2560 C   0  0  0  0  0  0  0  0  0  0  0  0
   56.5820   26.3930   46.1920 C   0  0  0  0  0  0  0  0  0  0  0  0
   55.2000   26.5660   46.1710 O   0  0  0  0  0  0  0  0  0  0  0  0
   59.0300   31.4560   46.0270 S   0  0  0  0  0  0  0  0  0  0  0  0
   59.8880   32.6700   45.8030 O   0  0  0  0  0  0  0  0  0  0  0  0
   59.6780   30.2810   45.3490 O   0  0  0  0  0  0  0  0  0  0  0  0
   58.9190   31.1250   47.7530 C   0  0  0  0  0  0  0  0  0  0  0  0
   59.1120   29.8200   48.2270 C   0  0  0  0  0  0  0  0  0  0  0  0
   59.0100   29.5470   49.5960 C   0  0  0  0  0  0  0  0  0  0  0  0
   58.7110   30.5770   50.4930 C   0  0  0  0  0  0  0  0  0  0  0  0
   58.5100   31.8770   50.0240 C   0  0  0  0  0  0  0  0  0  0  0  0
   58.6120   32.1530   48.6570 C   0  0  0  0  0  0  0  0  0  0  0  0
   57.2095   33.7859   45.7013 H   0  0  0  0  0  0  0  0  0  0  0  0
   58.1597   33.3214   44.2494 H   0  0  0  0  0  0  0  0  0  0  0  0
   56.3727   33.1391   44.2494 H   0  0  0  0  0  0  0  0  0  0  0  0
   56.3088   31.1185   43.7105 H   0  0  0  0  0  0  0  0  0  0  0  0
   57.9531   30.3437   43.9144 H   0  0  0  0  0  0  0  0  0  0  0  0
   60.4128   25.8113   45.9584 H   0  0  0  0  0  0  0  0  0  0  0  0
   58.8820   23.8556   46.2384 H   0  0  0  0  0  0  0  0  0  0  0  0
   56.4184   24.2362   46.3646 H   0  0  0  0  0  0  0  0  0  0  0  0
   54.7690   27.4600   46.3700 H   0  0  0  0  0  0  0  0  0  0  0  0
   59.3441   29.0086   47.5215 H   0  0  0  0  0  0  0  0  0  0  0  0
   59.1650   28.5227   49.9660 H   0  0  0  0  0  0  0  0  0  0  0  0
   58.6340   30.3632   51.5693 H   0  0  0  0  0  0  0  0  0  0  0  0
   58.2711   32.6851   50.7311 H   0  0  0  0  0  0  0  0  0  0  0  0
   58.4513   33.1774   48.2900 H   0  0  0  0  0  0  0  0  0  0  0  0
  1  2  1  0
  2  3  1  0
  3  4  1  0
  4  5  2  0
  4  6  1  0
  6  7  2  3
  7  8  1  0
  8  9  1  0
  9 10  2  0
 10 11  1  0
 11 12  2  0
 12 13  1  0
  2 14  1  0
 14 15  2  0
 14 16  2  0
 14 17  1  0
 17 18  2  0
 18 19  1  0
 19 20  2  0
 20 21  1  0
 21 22  2  0
 12  7  1  0
 22 17  1  0
  1 23  1  0
  1 24  1  0
  1 25  1  0
  3 26  1  0
  3 27  1  0
  9 28  1  0
 10 29  1  0
 11 30  1  0
 13 31  1  0
 18 32  1  0
 19 33  1  0
 20 34  1  0
 21 35  1  0
 22 36  1  0
M  CHG  1   8  -1
M  END
>  <UniqueID>  (18) 
16

>  <SMILES>  (18) 
CN(CC(=O)N=c1[n-]cccc1O)S(=O)(=O)c1ccccc1

>  <Energy>  (18) 
48.83755844262204

>  <Genealogy>  (18) 
CN(CC(=O)N=c1[n-]cccc1O)S(=O)(=O)c1ccccc1 (protonated)
CN(CC(=O)N=c1[n-]cccc1O)S(=O)(=O)c1ccccc1 (3D coordinates assigned)
CN(CC(=O)N=c1[n-]cccc1O)S(=O)(=O)c1ccccc1 (optimized conformer: 48.83755844262204 kcal/mol)

>  <smiles>  (18) 
CN(CC(=O)N=c1[nH]cccc1O)S(=O)(=O)c1ccccc1

>  <score_type>  (18) 
oracle

>  <origin>  (18) 
adg

>  <m_score__min__energy>  (18) 
-10.02

>  <m_primary>  (18) 
energy

$$$$
18:0
     RDKit          3D

 42 43  0  0  0  0  0  0  0  0999 V2000
   58.4970   29.1220   46.6990 C   0  0  0  0  0  0  0  0  0  0  0  0
   59.9130   29.2990   46.3380 N   0  0  0  0  0  0  0  0  0  0  0  0
   60.1440   28.9980   44.9160 C   0  0  0  0  0  0  0  0  0  0  0  0
   60.4590   30.6130   46.7460 C   0  0  0  0  0  0  0  0  0  0  0  0
   59.4300   31.5510   47.4180 C   0  0  0  0  0  0  0  0  0  0  0  0
   59.1480   32.7330   46.5660 N   0  0  0  0  0  0  0  0  0  0  0  0
   59.6280   33.9740   47.2150 C   0  0  0  0  0  0  0  0  0  0  0  0
   61.1080   33.8900   47.4910 C   0  0  0  0  0  0  0  0  0  0  0  0
   61.5760   33.8990   48.8130 C   0  0  0  0  0  0  0  0  0  0  0  0
   62.9520   33.8350   49.0550 C   0  0  0  0  0  0  0  0  0  0  0  0
   63.8240   33.7640   48.0160 N   0  0  0  0  0  0  0  0  0  0  0  0
   63.3970   33.7530   46.7260 C   0  0  0  0  0  0  0  0  0  0  0  0
   62.0310   33.8150   46.4380 C   0  0  0  0  0  0  0  0  0  0  0  0
   57.7080   32.8320   46.2180 C   0  0  0  0  0  0  0  0  0  0  0  0
   57.4510   32.1560   44.9030 C   0  0  0  0  0  0  0  0  0  0  0  0
   58.0210   32.6440   43.7170 C   0  0  0  0  0  0  0  0  0  0  0  0
   57.7760   31.9790   42.5140 C   0  0  0  0  0  0  0  0  0  0  0  0
   56.9800   30.8330   42.5030 C   0  0  0  0  0  0  0  0  0  0  0  0
   56.4410   30.3640   43.7040 C   0  0  0  0  0  0  0  0  0  0  0  0
   56.6900   31.0260   44.8660 N   0  0  0  0  0  0  0  0  0  0  0  0
   58.3967   29.1095   47.7943 H   0  0  0  0  0  0  0  0  0  0  0  0
   57.9067   29.9533   46.2862 H   0  0  0  0  0  0  0  0  0  0  0  0
   58.1295   28.1709   46.2862 H   0  0  0  0  0  0  0  0  0  0  0  0
   60.8116   28.1281   44.8291 H   0  0  0  0  0  0  0  0  0  0  0  0
   59.1840   28.7737   44.4280 H   0  0  0  0  0  0  0  0  0  0  0  0
   60.6090   29.8673   44.4280 H   0  0  0  0  0  0  0  0  0  0  0  0
   61.2808   30.4387   47.4561 H   0  0  0  0  0  0  0  0  0  0  0  0
   60.7880   31.1162   45.8248 H   0  0  0  0  0  0  0  0  0  0  0  0
   58.4944   30.9971   47.5850 H   0  0  0  0  0  0  0  0  0  0  0  0
   59.8481   31.9009   48.3734 H   0  0  0  0  0  0  0  0  0  0  0  0
   59.4320   34.8285   46.5507 H   0  0  0  0  0  0  0  0  0  0  0  0
   59.0960   34.1040   48.1690 H   0  0  0  0  0  0  0  0  0  0  0  0
   60.8671   33.9559   49.6522 H   0  0  0  0  0  0  0  0  0  0  0  0
   63.3287   33.8422   50.0885 H   0  0  0  0  0  0  0  0  0  0  0  0
   64.1284   33.6951   45.9064 H   0  0  0  0  0  0  0  0  0  0  0  0
   61.6829   33.8051   45.3946 H   0  0  0  0  0  0  0  0  0  0  0  0
   57.1094   32.3445   47.0015 H   0  0  0  0  0  0  0  0  0  0  0  0
   57.4270   33.8927   46.1402 H   0  0  0  0  0  0  0  0  0  0  0  0
   58.6552   33.5426   43.7350 H   0  0  0  0  0  0  0  0  0  0  0  0
   58.2096   32.3578   41.5767 H   0  0  0  0  0  0  0  0  0  0  0  0
   56.7790   30.3046   41.5594 H   0  0  0  0  0  0  0  0  0  0  0  0
   55.8153   29.4593   43.7097 H   0  0  0  0  0  0  0  0  0  0  0  0
  1  2  1  0
  2  3  1  0
  2  4  1  0
  4  5  1  0
  5  6  1  0
  6  7  1  0
  7  8  1  0
  8  9  2  0
  9 10  1  0
 10 11  2  0
 11 12  1  0
 12 13  2  0
  6 14  1  0
 14 15  1  0
 15 16  2  0
 16 17  1  0
 17 18  2  0
 18 19  1  0
 19 20  2  0
 13  8  1  0
 20 15  1  0
  1 21  1  0
  1 22  1  0
  1 23  1  0
  3 24  1  0
  3 25  1  0
  3 26  1  0
  4 27  1  0
  4 28  1  0
  5 29  1  0
  5 30  1  0
  7 31  1  0
  7 32  1  0
  9 33  1  0
 10 34  1  0
 12 35  1  0
 13 36  1  0
 14 37  1  0
 14 38  1  0
 16 39  1  0
 17 40  1  0
 18 41  1  0
 19 42  1  0
M  END
>  <UniqueID>  (19) 
17

>  <SMILES>  (19) 
CN(C)CCN(Cc1ccncc1)Cc1ccccn1

>  <Energy>  (19) 
48.310508911895944

>  <Genealogy>  (19) 
CN(C)CCN(Cc1ccncc1)Cc1ccccn1 (3D coordinates assigned)
CN(C)CCN(Cc1ccncc1)Cc1ccccn1 (optimized conformer: 48.310508911895944 kcal/mol)

>  <smiles>  (19) 
CN(C)CCN(Cc1ccncc1)Cc1ccccn1

>  <score_type>  (19) 
oracle

>  <origin>  (19) 
adg

>  <m_score__min__energy>  (19) 
-6.1699999999999999

>  <m_primary>  (19) 
energy

$$$$
19:0
     RDKit          3D

 32 33  0  0  0  0  0  0  0  0999 V2000
   65.7910   32.7590   49.9850 C   0  0  0  0  0  0  0  0  0  0  0  0
   64.9910   33.2000   48.8920 O   0  0  0  0  0  0  0  0  0  0  0  0
   63.6170   32.9470   48.7640 C   0  0  0  0  0  0  0  0  0  0  0  0
   63.1980   32.0280   47.7940 C   0  0  0  0  0  0  0  0  0  0  0  0
   61.8400   31.7400   47.6290 C   0  0  0  0  0  0  0  0  0  0  0  0
   60.8800   32.3630   48.4450 C   0  0  0  0  0  0  0  0  0  0  0  0
   59.5090   32.1130   48.3010 O   0  0  0  0  0  0  0  0  0  0  0  0
   58.8840   31.7230   47.1100 C   0  0  0  0  0  0  0  0  0  0  0  0
   58.1730   30.2250   46.7900 S   0  0  0  0  0  0  0  0  0  0  0  0
   57.6440   30.6320   45.2450 C   0  0  0  0  0  0  0  0  0  0  0  0
   56.7420   29.5710   44.1820 S   0  0  0  0  0  0  0  0  0  0  0  0
   55.1490   29.3370   44.8090 N   0  0  0  0  0  0  0  0  0  0  0  0
   56.6590   30.1840   42.8120 O   0  0  0  0  0  0  0  0  0  0  0  0
   57.4430   28.2450   44.0810 O   0  0  0  0  0  0  0  0  0  0  0  0
   57.9980   31.9450   44.9640 C   0  0  0  0  0  0  0  0  0  0  0  0
   58.6930   32.5580   46.0150 C   0  0  0  0  0  0  0  0  0  0  0  0
   59.2610   34.2190   45.9630 S   0  0  0  0  0  0  0  0  0  0  0  0
   58.9740   34.9720   47.4910 N   0  0  0  0  0  0  0  0  0  0  0  0
   58.5300   34.9630   44.8820 O   0  0  0  0  0  0  0  0  0  0  0  0
   60.7360   34.2460   45.6720 O   0  0  0  0  0  0  0  0  0  0  0  0
   61.2950   33.2980   49.3980 C   0  0  0  0  0  0  0  0  0  0  0  0
   62.6530   33.5870   49.5660 C   0  0  0  0  0  0  0  0  0  0  0  0
   65.3000   33.0296   50.9314 H   0  0  0  0  0  0  0  0  0  0  0  0
   65.9118   31.6668   49.9338 H   0  0  0  0  0  0  0  0  0  0  0  0
   66.7790   33.2400   49.9338 H   0  0  0  0  0  0  0  0  0  0  0  0
   63.9431   31.5289   47.1570 H   0  0  0  0  0  0  0  0  0  0  0  0
   61.5216   31.0232   46.8578 H   0  0  0  0  0  0  0  0  0  0  0  0
   55.2330   28.6850   45.6210 H   0  0  0  0  0  0  0  0  0  0  0  0
   57.7583   32.4503   44.0168 H   0  0  0  0  0  0  0  0  0  0  0  0
   58.9900   34.2160   48.2120 H   0  0  0  0  0  0  0  0  0  0  0  0
   60.5472   33.8106   50.0209 H   0  0  0  0  0  0  0  0  0  0  0  0
   62.9687   34.3162   50.3267 H   0  0  0  0  0  0  0  0  0  0  0  0
  1  2  1  0
  2  3  1  0
  3  4  2  0
  4  5  1  0
  5  6  2  0
  6  7  1  0
  7  8  1  0
  8  9  1  0
  9 10  1  0
 10 11  1  0
 11 12  1  0
 11 13  2  0
 11 14  2  0
 10 15  2  0
 15 16  1  0
 16 17  1  0
 17 18  1  0
 17 19  2  0
 17 20  2  0
  6 21  1  0
 21 22  2  0
 22  3  1  0
 16  8  2  0
  1 23  1  0
  1 24  1  0
  1 25  1  0
  4 26  1  0
  5 27  1  0
 12 28  1  0
 15 29  1  0
 18 30  1  0
 21 31  1  0
 22 32  1  0
M  CHG  2  12  -1  18  -1
M  END
>  <UniqueID>  (20) 
18

>  <SMILES>  (20) 
COc1ccc(Oc2sc(S([NH-])(=O)=O)cc2S([NH-])(=O)=O)cc1

>  <Energy>  (20) 
62.773524278252005

>  <Genealogy>  (20) 
COc1ccc(Oc2sc(S([NH-])(=O)=O)cc2S([NH-])(=O)=O)cc1 (protonated)
COc1ccc(Oc2sc(S([NH-])(=O)=O)cc2S([NH-])(=O)=O)cc1 (3D coordinates assigned)
COc1ccc(Oc2sc(S([NH-])(=O)=O)cc2S([NH-])(=O)=O)cc1 (optimized conformer: 62.773524278252005 kcal/mol)

>  <smiles>  (20) 
COc1ccc(Oc2sc(S(N)(=O)=O)cc2S(N)(=O)=O)cc1

>  <score_type>  (20) 
oracle

>  <origin>  (20) 
adg

>  <m_score__min__energy>  (20) 
-10.35

>  <m_primary>  (20) 
energy

$$$$
20:0
     RDKit          3D

 47 50  0  0  1  0  0  0  0  0999 V2000
   50.9690   24.2040   41.1750 C   0  0  0  0  0  0  0  0  0  0  0  0
   50.9990   24.1940   42.6610 C   0  0  0  0  0  0  0  0  0  0  0  0
   49.9910   24.4610   43.5150 N   0  0  0  0  0  0  0  0  0  0  0  0
   50.4190   24.3410   44.7610 N   0  0  0  0  0  0  0  0  0  0  0  0
   51.7330   23.9890   44.6330 C   0  0  0  0  0  0  0  0  0  0  0  0
   52.5570   23.7650   45.5960 N   0  0  0  0  0  0  0  0  0  0  0  0
   53.8080   23.1600   45.3820 C   0  0  0  0  0  0  0  0  0  0  0  0
   53.8190   21.9010   45.2910 O   0  0  0  0  0  0  0  0  0  0  0  0
   55.0710   23.8430   45.2560 C   0  0  0  0  0  0  0  0  0  0  0  0
   55.9340   23.7120   44.1960 C   0  0  0  0  0  0  0  0  0  0  0  0
   57.1320   24.4360   44.2020 C   0  0  0  0  0  0  0  0  0  0  0  0
   57.5060   25.2740   45.2020 C   0  0  0  0  0  0  0  0  0  0  0  0
   58.7650   26.0190   45.3150 C   0  0  0  0  0  0  0  0  0  0  0  0
   58.6780   27.4560   45.3520 N   0  0  0  0  0  0  0  0  0  0  0  0
   58.1250   28.1890   44.2880 C   0  0  0  0  0  0  0  0  0  0  0  0
   57.6890   27.6130   43.2790 O   0  0  0  0  0  0  0  0  0  0  0  0
   58.0290   29.6630   44.2840 C   0  0  0  0  0  0  0  0  0  0  0  0
   57.3900   30.5160   43.4840 C   0  0  0  0  0  0  0  0  0  0  0  0
   57.4820   31.8400   43.7230 C   0  0  0  0  0  0  0  0  0  0  0  0
   58.2360   32.2380   44.7880 C   0  0  0  0  0  0  0  0  0  0  0  0
   58.5410   33.4840   45.3670 N   0  0  0  0  0  0  0  0  0  0  0  0
   59.2140   34.6490   44.8160 C   0  0  0  0  0  0  0  0  0  0  0  0
   59.6870   34.9730   46.2150 C   0  0  0  0  0  0  0  0  0  0  0  0
   59.6430   36.3230   46.4460 F   0  0  0  0  0  0  0  0  0  0  0  0
   60.8540   34.3650   46.5850 F   0  0  0  0  0  0  0  0  0  0  0  0
   58.4220   34.2210   46.6040 C   0  0  0  0  0  0  0  0  0  0  0  0
   58.8600   30.6170   45.5010 S   0  0  0  0  0  0  0  0  0  0  0  0
   56.6210   25.4110   46.2910 C   0  0  0  0  0  0  0  0  0  0  0  0
   55.4450   24.6930   46.2720 C   0  0  0  0  0  0  0  0  0  0  0  0
   52.0600   23.9090   43.3760 O   0  0  0  0  0  0  0  0  0  0  0  0
   49.9780   24.5344   40.8305 H   0  0  0  0  0  0  0  0  0  0  0  0
   51.7375   24.8946   40.7974 H   0  0  0  0  0  0  0  0  0  0  0  0
   51.1694   23.1905   40.7974 H   0  0  0  0  0  0  0  0  0  0  0  0
   49.9060   24.4740   45.6670 H   0  0  0  0  0  0  0  0  0  0  0  0
   55.6875   23.0479   43.3545 H   0  0  0  0  0  0  0  0  0  0  0  0
   57.8112   24.3187   43.3447 H   0  0  0  0  0  0  0  0  0  0  0  0
   59.2602   25.6934   46.2417 H   0  0  0  0  0  0  0  0  0  0  0  0
   59.3132   25.7917   44.3888 H   0  0  0  0  0  0  0  0  0  0  0  0
   59.0270   28.0180   46.1760 H   0  0  0  0  0  0  0  0  0  0  0  0
   56.7938   30.1441   42.6377 H   0  0  0  0  0  0  0  0  0  0  0  0
   56.9680   32.5721   43.0828 H   0  0  0  0  0  0  0  0  0  0  0  0
   60.0196   34.4167   44.1039 H   0  0  0  0  0  0  0  0  0  0  0  0
   58.6741   35.3890   44.2069 H   0  0  0  0  0  0  0  0  0  0  0  0
   58.5161   33.6076   47.5122 H   0  0  0  0  0  0  0  0  0  0  0  0
   57.4962   34.7527   46.8691 H   0  0  0  0  0  0  0  0  0  0  0  0
   56.8632   26.0743   47.1345 H   0  0  0  0  0  0  0  0  0  0  0  0
   54.7599   24.8066   47.1251 H   0  0  0  0  0  0  0  0  0  0  0  0
  1  2  1  0
  2  3  2  0
  3  4  1  0
  4  5  1  0
  5  6  2  0
  6  7  1  0
  7  8  2  0
  7  9  1  0
  9 10  2  0
 10 11  1  0
 11 12  2  0
 12 13  1  0
 13 14  1  0
 14 15  1  0
 15 16  2  0
 15 17  1  0
 17 18  2  0
 18 19  1  0
 19 20  2  0
 20 21  1  0
 21 22  1  0
 22 23  1  0
 23 24  1  0
 23 25  1  0
 23 26  1  0
 20 27  1  0
 12 28  1  0
 28 29  2  0
  5 30  1  0
 30  2  1  0
 29  9  1  0
 27 17  1  0
 26 21  1  0
  1 31  1  0
  1 32  1  0
  1 33  1  0
  4 34  1  0
 10 35  1  0
 11 36  1  0
 13 37  1  0
 13 38  1  0
 14 39  1  0
 18 40  1  0
 19 41  1  0
 22 42  1  0
 22 43  1  0
 26 44  1  0
 26 45  1  0
 28 46  1  0
 29 47  1  0
M  END
>  <smiles>  (21) 
Cc1n[nH]c(=NC(=O)c2ccc(CNC(=O)c3ccc(N4CC(F)(F)C4)s3)cc2)o1

>  <score_type>  (21) 
oracle

>  <origin>  (21) 
adg

>  <m_score__min__energy>  (21) 
-8.9299999999999997

>  <m_primary>  (21) 
energy

$$$$
21:0
     RDKit          3D

 43 45  0  0  0  0  0  0  0  0999 V2000
   58.1630   22.3900   45.6200 C   0  0  0  0  0  0  0  0  0  0  0  0
   57.4470   23.2210   46.5850 N   0  0  0  0  0  0  0  0  0  0  0  0
   56.8240   24.6400   45.8050 S   0  0  0  0  0  0  0  0  0  0  0  0
   56.8650   24.4810   44.3100 O   0  0  0  0  0  0  0  0  0  0  0  0
   55.3900   24.8290   46.2220 O   0  0  0  0  0  0  0  0  0  0  0  0
   57.7570   26.0590   46.2730 C   0  0  0  0  0  0  0  0  0  0  0  0
   59.0560   25.9190   46.7770 C   0  0  0  0  0  0  0  0  0  0  0  0
   59.7910   27.0480   47.1480 C   0  0  0  0  0  0  0  0  0  0  0  0
   59.2390   28.3270   47.0090 C   0  0  0  0  0  0  0  0  0  0  0  0
   60.0010   29.4740   47.4090 N   0  0  0  0  0  0  0  0  0  0  0  0
   59.7520   30.0320   48.7460 C   0  0  0  0  0  0  0  0  0  0  0  0
   60.7140   31.1750   49.0880 C   0  0  0  0  0  0  0  0  0  0  0  0
   60.9550   31.9930   47.9650 O   0  0  0  0  0  0  0  0  0  0  0  0
   61.6910   31.2560   47.0110 C   0  0  0  0  0  0  0  0  0  0  0  0
   60.8340   30.1440   46.4020 C   0  0  0  0  0  0  0  0  0  0  0  0
   57.9400   28.4790   46.4970 C   0  0  0  0  0  0  0  0  0  0  0  0
   57.3980   29.8000   46.3630 N   0  0  0  0  0  0  0  0  0  0  0  0
   57.3990   30.7540   44.9170 S   0  0  0  0  0  0  0  0  0  0  0  0
   58.2510   30.0790   43.8790 O   0  0  0  0  0  0  0  0  0  0  0  0
   55.9900   30.8620   44.4110 O   0  0  0  0  0  0  0  0  0  0  0  0
   58.0110   32.3660   45.2470 C   0  0  0  0  0  0  0  0  0  0  0  0
   58.4160   33.2960   44.3030 C   0  0  0  0  0  0  0  0  0  0  0  0
   58.8230   34.5090   44.8730 C   0  0  0  0  0  0  0  0  0  0  0  0
   58.7440   34.5300   46.2590 C   0  0  0  0  0  0  0  0  0  0  0  0
   58.1580   33.0380   46.7780 S   0  0  0  0  0  0  0  0  0  0  0  0
   57.2010   27.3350   46.1370 C   0  0  0  0  0  0  0  0  0  0  0  0
   58.7898   21.6625   46.1565 H   0  0  0  0  0  0  0  0  0  0  0  0
   57.4387   21.8547   44.9885 H   0  0  0  0  0  0  0  0  0  0  0  0
   58.7995   23.0272   44.9885 H   0  0  0  0  0  0  0  0  0  0  0  0
   59.4990   24.9175   46.8811 H   0  0  0  0  0  0  0  0  0  0  0  0
   60.8078   26.9313   47.5511 H   0  0  0  0  0  0  0  0  0  0  0  0
   58.7212   30.4142   48.7834 H   0  0  0  0  0  0  0  0  0  0  0  0
   59.9097   29.2285   49.4805 H   0  0  0  0  0  0  0  0  0  0  0  0
   60.2738   31.7866   49.8894 H   0  0  0  0  0  0  0  0  0  0  0  0
   61.6704   30.7394   49.4128 H   0  0  0  0  0  0  0  0  0  0  0  0
   62.0239   31.9335   46.2109 H   0  0  0  0  0  0  0  0  0  0  0  0
   62.5572   30.7986   47.5116 H   0  0  0  0  0  0  0  0  0  0  0  0
   60.1791   30.5813   45.6340 H   0  0  0  0  0  0  0  0  0  0  0  0
   61.5113   29.3932   45.9688 H   0  0  0  0  0  0  0  0  0  0  0  0
   58.4177   33.1021   43.2202 H   0  0  0  0  0  0  0  0  0  0  0  0
   59.1727   35.3654   44.2778 H   0  0  0  0  0  0  0  0  0  0  0  0
   59.0172   35.3757   46.9072 H   0  0  0  0  0  0  0  0  0  0  0  0
   56.1789   27.4462   45.7460 H   0  0  0  0  0  0  0  0  0  0  0  0
  1  2  1  0
  2  3  1  0
  3  4  2  0
  3  5  2  0
  3  6  1  0
  6  7  2  0
  7  8  1  0
  8  9  2  0
  9 10  1  0
 10 11  1  0
 11 12  1  0
 12 13  1  0
 13 14  1  0
 14 15  1  0
  9 16  1  0
 16 17  1  0
 17 18  1  0
 18 19  2  0
 18 20  2  0
 18 21  1  0
 21 22  2  0
 22 23  1  0
 23 24  2  0
 24 25  1  0
 16 26  2  0
 26  6  1  0
 15 10  1  0
 25 21  1  0
  1 27  1  0
  1 28  1  0
  1 29  1  0
  7 30  1  0
  8 31  1  0
 11 32  1  0
 11 33  1  0
 12 34  1  0
 12 35  1  0
 14 36  1  0
 14 37  1  0
 15 38  1  0
 15 39  1  0
 22 40  1  0
 23 41  1  0
 24 42  1  0
 26 43  1  0
M  CHG  2   2  -1  17  -1
M  END
>  <UniqueID>  (22) 
19

>  <SMILES>  (22) 
C[N-]S(=O)(=O)c1ccc(N2CCOCC2)c([N-]S(=O)(=O)c2cccs2)c1

>  <Energy>  (22) 
79.08347340676157

>  <Genealogy>  (22) 
C[N-]S(=O)(=O)c1ccc(N2CCOCC2)c([N-]S(=O)(=O)c2cccs2)c1 (protonated)
C[N-]S(=O)(=O)c1ccc(N2CCOCC2)c([N-]S(=O)(=O)c2cccs2)c1 (3D coordinates assigned)
C[N-]S(=O)(=O)c1ccc(N2CCOCC2)c([N-]S(=O)(=O)c2cccs2)c1 (nonaromatic ring conformer: 79.08347340676157 kcal/mol)

>  <smiles>  (22) 
CNS(=O)(=O)c1ccc(N2CCOCC2)c(NS(=O)(=O)c2cccs2)c1

>  <score_type>  (22) 
oracle

>  <origin>  (22) 
adg

>  <m_score__min__energy>  (22) 
-10.92

>  <m_primary>  (22) 
energy

$$$$
22:0
     RDKit          3D

 57 59  0  0  0  0  0  0  0  0999 V2000
   66.7340   33.2890   50.5030 C   0  0  0  0  0  0  0  0  0  0  0  0
   65.4430   32.5420   50.3550 C   0  0  0  0  0  0  0  0  0  0  0  0
   65.2600   31.3090   50.9960 C   0  0  0  0  0  0  0  0  0  0  0  0
   64.0400   30.6400   50.8970 C   0  0  0  0  0  0  0  0  0  0  0  0
   62.9730   31.2030   50.1850 C   0  0  0  0  0  0  0  0  0  0  0  0
   61.7190   30.5070   50.1600 N   0  0  0  0  0  0  0  0  0  0  0  0
   61.3030   29.6380   51.2250 C   0  0  0  0  0  0  0  0  0  0  0  0
   62.0260   29.4980   52.2500 O   0  0  0  0  0  0  0  0  0  0  0  0
   60.0220   28.8660   51.0860 C   0  0  0  0  0  0  0  0  0  0  0  0
   59.8530   28.3260   49.7260 N   0  0  0  0  0  0  0  0  0  0  0  0
   60.4290   27.0200   49.3930 C   0  0  0  0  0  0  0  0  0  0  0  0
   59.2220   29.0960   48.6810 C   0  0  0  0  0  0  0  0  0  0  0  0
   59.0110   30.3260   48.8640 O   0  0  0  0  0  0  0  0  0  0  0  0
   58.8730   28.4870   47.3740 C   0  0  0  0  0  0  0  0  0  0  0  0
   57.9200   27.4520   47.3440 C   0  0  0  0  0  0  0  0  0  0  0  0
   57.5520   26.8500   46.1360 C   0  0  0  0  0  0  0  0  0  0  0  0
   56.3390   25.5740   46.1310 S   0  0  0  0  0  0  0  0  0  0  0  0
   54.7650   26.2730   45.9890 N   0  0  0  0  0  0  0  0  0  0  0  0
   56.5730   24.6370   44.9790 O   0  0  0  0  0  0  0  0  0  0  0  0
   56.4270   24.7960   47.4130 O   0  0  0  0  0  0  0  0  0  0  0  0
   58.1390   27.2790   44.9420 C   0  0  0  0  0  0  0  0  0  0  0  0
   59.1010   28.2900   44.9590 C   0  0  0  0  0  0  0  0  0  0  0  0
   59.4790   28.8970   46.1630 C   0  0  0  0  0  0  0  0  0  0  0  0
   60.7370   30.1850   46.0980 S   0  0  0  0  0  0  0  0  0  0  0  0
   59.5460   31.5130   45.9220 C   0  0  0  0  0  0  0  0  0  0  0  0
   59.6670   32.6740   46.6970 C   0  0  0  0  0  0  0  0  0  0  0  0
   58.7140   33.6920   46.5860 C   0  0  0  0  0  0  0  0  0  0  0  0
   57.6360   33.5510   45.7050 C   0  0  0  0  0  0  0  0  0  0  0  0
   56.7080   34.5350   45.6060 F   0  0  0  0  0  0  0  0  0  0  0  0
   57.5100   32.3890   44.9380 C   0  0  0  0  0  0  0  0  0  0  0  0
   58.4620   31.3700   45.0490 C   0  0  0  0  0  0  0  0  0  0  0  0
   63.1590   32.4290   49.5030 C   0  0  0  0  0  0  0  0  0  0  0  0
   62.0730   33.0480   48.6650 C   0  0  0  0  0  0  0  0  0  0  0  0
   64.3880   33.1010   49.6200 C   0  0  0  0  0  0  0  0  0  0  0  0
   66.9612   33.4205   51.5712 H   0  0  0  0  0  0  0  0  0  0  0  0
   67.5440   32.7200   50.0232 H   0  0  0  0  0  0  0  0  0  0  0  0
   66.6443   34.2748   50.0232 H   0  0  0  0  0  0  0  0  0  0  0  0
   66.0814   30.8673   51.5792 H   0  0  0  0  0  0  0  0  0  0  0  0
   63.9146   29.6610   51.3826 H   0  0  0  0  0  0  0  0  0  0  0  0
   61.2140   30.4420   49.2500 H   0  0  0  0  0  0  0  0  0  0  0  0
   60.0301   28.0310   51.8021 H   0  0  0  0  0  0  0  0  0  0  0  0
   59.1861   29.5520   51.2876 H   0  0  0  0  0  0  0  0  0  0  0  0
   60.6682   26.4777   50.3197 H   0  0  0  0  0  0  0  0  0  0  0  0
   59.7038   26.4386   48.8047 H   0  0  0  0  0  0  0  0  0  0  0  0
   61.3473   27.1635   48.8047 H   0  0  0  0  0  0  0  0  0  0  0  0
   57.4584   27.1119   48.2827 H   0  0  0  0  0  0  0  0  0  0  0  0
   54.7340   27.0960   46.6340 H   0  0  0  0  0  0  0  0  0  0  0  0
   57.8423   26.8191   43.9878 H   0  0  0  0  0  0  0  0  0  0  0  0
   59.5672   28.6134   44.0166 H   0  0  0  0  0  0  0  0  0  0  0  0
   60.5116   32.7850   47.3929 H   0  0  0  0  0  0  0  0  0  0  0  0
   58.8122   34.6047   47.1921 H   0  0  0  0  0  0  0  0  0  0  0  0
   56.6618   32.2759   44.2468 H   0  0  0  0  0  0  0  0  0  0  0  0
   58.3581   30.4542   44.4486 H   0  0  0  0  0  0  0  0  0  0  0  0
   61.3067   33.4848   49.3223 H   0  0  0  0  0  0  0  0  0  0  0  0
   62.5040   33.8361   48.0301 H   0  0  0  0  0  0  0  0  0  0  0  0
   61.6145   32.2755   48.0301 H   0  0  0  0  0  0  0  0  0  0  0  0
   64.5236   34.0762   49.1295 H   0  0  0  0  0  0  0  0  0  0  0  0
  1  2  1  0
  2  3  2  0
  3  4  1  0
  4  5  2  0
  5  6  1  0
  6  7  1  0
  7  8  2  0
  7  9  1  0
  9 10  1  0
 10 11  1  0
 10 12  1  0
 12 13  2  0
 12 14  1  0
 14 15  2  0
 15 16  1  0
 16 17  1  0
 17 18  1  0
 17 19  2  0
 17 20  2  0
 16 21  2  0
 21 22  1  0
 22 23  2  0
 23 24  1  0
 24 25  1  0
 25 26  2  0
 26 27  1  0
 27 28  2  0
 28 29  1  0
 28 30  1  0
 30 31  2  0
  5 32  1  0
 32 33  1  0
 32 34  2  0
 34  2  1  0
 23 14  1  0
 31 25  1  0
  1 35  1  0
  1 36  1  0
  1 37  1  0
  3 38  1  0
  4 39  1  0
  6 40  1  0
  9 41  1  0
  9 42  1  0
 11 43  1  0
 11 44  1  0
 11 45  1  0
 15 46  1  0
 18 47  1  0
 21 48  1  0
 22 49  1  0
 26 50  1  0
 27 51  1  0
 30 52  1  0
 31 53  1  0
 33 54  1  0
 33 55  1  0
 33 56  1  0
 34 57  1  0
M  CHG  1  18  -1
M  END
>  <UniqueID>  (23) 
20

>  <SMILES>  (23) 
Cc1ccc(NC(=O)CN(C)C(=O)c2cc(S([NH-])(=O)=O)ccc2Sc2ccc(F)cc2)c(C)c1

>  <Energy>  (23) 
60.67440267936308

>  <Genealogy>  (23) 
Cc1ccc(NC(=O)CN(C)C(=O)c2cc(S([NH-])(=O)=O)ccc2Sc2ccc(F)cc2)c(C)c1 (protonated)
Cc1ccc(NC(=O)CN(C)C(=O)c2cc(S([NH-])(=O)=O)ccc2Sc2ccc(F)cc2)c(C)c1 (3D coordinates assigned)
Cc1ccc(NC(=O)CN(C)C(=O)c2cc(S([NH-])(=O)=O)ccc2Sc2ccc(F)cc2)c(C)c1 (optimized conformer: 60.67440267936308 kcal/mol)

>  <smiles>  (23) 
Cc1ccc(NC(=O)CN(C)C(=O)c2cc(S(N)(=O)=O)ccc2Sc2ccc(F)cc2)c(C)c1

>  <score_type>  (23) 
oracle

>  <origin>  (23) 
adg

>  <m_score__min__energy>  (23) 
-11.85

>  <m_primary>  (23) 
energy

$$$$
23:0
     RDKit          3D

 41 43  0  0  0  0  0  0  0  0999 V2000
   56.1980   23.1690   45.5110 C   0  0  0  0  0  0  0  0  0  0  0  0
   56.0550   24.6430   45.6850 C   0  0  0  0  0  0  0  0  0  0  0  0
   57.0520   25.5780   45.5110 C   0  0  0  0  0  0  0  0  0  0  0  0
   56.4070   26.7740   45.7410 C   0  0  0  0  0  0  0  0  0  0  0  0
   57.0270   28.1370   45.7100 C   0  0  0  0  0  0  0  0  0  0  0  0
   57.6410   28.3890   44.3820 N   0  0  0  0  0  0  0  0  0  0  0  0
   59.0420   28.8570   44.5060 C   0  0  0  0  0  0  0  0  0  0  0  0
   59.6330   28.4450   45.8290 C   0  0  0  0  0  0  0  0  0  0  0  0
   60.0500   27.1210   46.0310 C   0  0  0  0  0  0  0  0  0  0  0  0
   60.5520   26.7390   47.2760 C   0  0  0  0  0  0  0  0  0  0  0  0
   60.6390   27.6480   48.2840 N   0  0  0  0  0  0  0  0  0  0  0  0
   60.2470   28.9380   48.1150 C   0  0  0  0  0  0  0  0  0  0  0  0
   59.7360   29.3620   46.8850 C   0  0  0  0  0  0  0  0  0  0  0  0
   56.8420   29.3630   43.6080 C   0  0  0  0  0  0  0  0  0  0  0  0
   57.1970   30.7600   44.0140 C   0  0  0  0  0  0  0  0  0  0  0  0
   57.7620   31.7190   43.1940 C   0  0  0  0  0  0  0  0  0  0  0  0
   57.8960   32.8460   43.9750 C   0  0  0  0  0  0  0  0  0  0  0  0
   57.4090   32.4980   45.2200 C   0  0  0  0  0  0  0  0  0  0  0  0
   57.3270   33.4020   46.4030 C   0  0  0  0  0  0  0  0  0  0  0  0
   56.9970   31.2520   45.2150 O   0  0  0  0  0  0  0  0  0  0  0  0
   55.1420   26.5370   45.9980 O   0  0  0  0  0  0  0  0  0  0  0  0
   54.8920   25.2600   45.9680 N   0  0  0  0  0  0  0  0  0  0  0  0
   56.2449   22.6861   46.4982 H   0  0  0  0  0  0  0  0  0  0  0  0
   55.3334   22.7800   44.9532 H   0  0  0  0  0  0  0  0  0  0  0  0
   57.1213   22.9535   44.9532 H   0  0  0  0  0  0  0  0  0  0  0  0
   58.1077   25.4104   45.2513 H   0  0  0  0  0  0  0  0  0  0  0  0
   56.2519   28.8936   45.9017 H   0  0  0  0  0  0  0  0  0  0  0  0
   57.8068   28.1951   46.4836 H   0  0  0  0  0  0  0  0  0  0  0  0
   59.6405   28.4204   43.6929 H   0  0  0  0  0  0  0  0  0  0  0  0
   59.0517   29.9552   44.4443 H   0  0  0  0  0  0  0  0  0  0  0  0
   59.9818   26.3884   45.2133 H   0  0  0  0  0  0  0  0  0  0  0  0
   60.8777   25.7015   47.4422 H   0  0  0  0  0  0  0  0  0  0  0  0
   60.3320   29.6507   48.9486 H   0  0  0  0  0  0  0  0  0  0  0  0
   59.4175   30.4057   46.7466 H   0  0  0  0  0  0  0  0  0  0  0  0
   57.0488   29.2324   42.5356 H   0  0  0  0  0  0  0  0  0  0  0  0
   55.7740   29.1911   43.8075 H   0  0  0  0  0  0  0  0  0  0  0  0
   58.0457   31.6057   42.1373 H   0  0  0  0  0  0  0  0  0  0  0  0
   58.3056   33.8204   43.6705 H   0  0  0  0  0  0  0  0  0  0  0  0
   57.3812   32.8049   47.3252 H   0  0  0  0  0  0  0  0  0  0  0  0
   58.1641   34.1151   46.3782 H   0  0  0  0  0  0  0  0  0  0  0  0
   56.3752   33.9529   46.3782 H   0  0  0  0  0  0  0  0  0  0  0  0
  1  2  1  0
  2  3  1  0
  3  4  2  0
  4  5  1  0
  5  6  1  0
  6  7  1  0
  7  8  1  0
  8  9  2  0
  9 10  1  0
 10 11  2  0
 11 12  1  0
 12 13  2  0
  6 14  1  0
 14 15  1  0
 15 16  2  0
 16 17  1  0
 17 18  2  0
 18 19  1  0
 18 20  1  0
  4 21  1  0
 21 22  1  0
 22  2  2  0
 13  8  1  0
 20 15  1  0
  1 23  1  0
  1 24  1  0
  1 25  1  0
  3 26  1  0
  5 27  1  0
  5 28  1  0
  7 29  1  0
  7 30  1  0
  9 31  1  0
 10 32  1  0
 12 33  1  0
 13 34  1  0
 14 35  1  0
 14 36  1  0
 16 37  1  0
 17 38  1  0
 19 39  1  0
 19 40  1  0
 19 41  1  0
M  END
>  <UniqueID>  (24) 
21

>  <SMILES>  (24) 
Cc1cc(CN(Cc2ccncc2)Cc2ccc(C)o2)on1

>  <Energy>  (24) 
95.56313968622929

>  <Genealogy>  (24) 
Cc1cc(CN(Cc2ccncc2)Cc2ccc(C)o2)on1 (3D coordinates assigned)
Cc1cc(CN(Cc2ccncc2)Cc2ccc(C)o2)on1 (optimized conformer: 95.56313968622929 kcal/mol)

>  <smiles>  (24) 
Cc1cc(CN(Cc2ccncc2)Cc2ccc(C)o2)on1

>  <score_type>  (24) 
oracle

>  <origin>  (24) 
adg

>  <m_score__min__energy>  (24) 
-7.9199999999999999

>  <m_primary>  (24) 
energy

$$$$
24:0
     RDKit          3D

 44 47  0  0  0  0  0  0  0  0999 V2000
   57.3740   32.7580   43.9440 O   0  0  0  0  0  0  0  0  0  0  0  0
   57.6590   31.9550   44.8730 C   0  0  0  0  0  0  0  0  0  0  0  0
   57.0560   30.6100   44.8760 C   0  0  0  0  0  0  0  0  0  0  0  0
   55.7920   30.2860   44.4410 C   0  0  0  0  0  0  0  0  0  0  0  0
   55.5870   28.9720   44.6370 N   0  0  0  0  0  0  0  0  0  0  0  0
   56.7390   28.5370   45.1950 C   0  0  0  0  0  0  0  0  0  0  0  0
   56.9720   27.1300   45.5900 C   0  0  0  0  0  0  0  0  0  0  0  0
   55.8980   26.3180   45.9990 C   0  0  0  0  0  0  0  0  0  0  0  0
   56.1200   24.9890   46.3730 C   0  0  0  0  0  0  0  0  0  0  0  0
   57.4130   24.4580   46.3420 C   0  0  0  0  0  0  0  0  0  0  0  0
   58.4850   25.2570   45.9380 C   0  0  0  0  0  0  0  0  0  0  0  0
   58.2690   26.5870   45.5640 C   0  0  0  0  0  0  0  0  0  0  0  0
   57.6580   29.5120   45.3630 N   0  0  0  0  0  0  0  0  0  0  0  0
   58.5240   32.3830   45.9380 N   0  0  0  0  0  0  0  0  0  0  0  0
   58.3450   33.7280   46.5050 C   0  0  0  0  0  0  0  0  0  0  0  0
   59.2870   33.9620   47.6930 C   0  0  0  0  0  0  0  0  0  0  0  0
   59.3160   32.7670   48.5460 N   0  0  0  0  0  0  0  0  0  0  0  0
   59.0080   32.8560   49.9510 C   0  0  0  0  0  0  0  0  0  0  0  0
   58.0830   31.9720   50.5350 C   0  0  0  0  0  0  0  0  0  0  0  0
   57.7950   32.0500   51.9020 C   0  0  0  0  0  0  0  0  0  0  0  0
   58.4320   33.0050   52.6970 C   0  0  0  0  0  0  0  0  0  0  0  0
   58.1540   33.0790   54.0230 F   0  0  0  0  0  0  0  0  0  0  0  0
   59.3590   33.8840   52.1290 C   0  0  0  0  0  0  0  0  0  0  0  0
   59.6500   33.8080   50.7630 C   0  0  0  0  0  0  0  0  0  0  0  0
   59.5860   31.4500   47.9460 C   0  0  0  0  0  0  0  0  0  0  0  0
   59.6210   31.5290   46.4150 C   0  0  0  0  0  0  0  0  0  0  0  0
   55.0667   30.9880   44.0038 H   0  0  0  0  0  0  0  0  0  0  0  0
   54.8787   26.7308   46.0246 H   0  0  0  0  0  0  0  0  0  0  0  0
   55.2758   24.3602   46.6922 H   0  0  0  0  0  0  0  0  0  0  0  0
   57.5858   23.4121   46.6355 H   0  0  0  0  0  0  0  0  0  0  0  0
   59.5021   24.8388   45.9140 H   0  0  0  0  0  0  0  0  0  0  0  0
   59.1176   27.2115   45.2480 H   0  0  0  0  0  0  0  0  0  0  0  0
   58.5570   34.4760   45.7269 H   0  0  0  0  0  0  0  0  0  0  0  0
   57.3082   33.8196   46.8608 H   0  0  0  0  0  0  0  0  0  0  0  0
   60.3009   34.1695   47.3201 H   0  0  0  0  0  0  0  0  0  0  0  0
   58.9261   34.8193   48.2801 H   0  0  0  0  0  0  0  0  0  0  0  0
   57.5830   31.2147   49.9133 H   0  0  0  0  0  0  0  0  0  0  0  0
   57.0664   31.3587   52.3506 H   0  0  0  0  0  0  0  0  0  0  0  0
   59.8598   34.6358   52.7567 H   0  0  0  0  0  0  0  0  0  0  0  0
   60.3852   34.4968   50.3213 H   0  0  0  0  0  0  0  0  0  0  0  0
   60.5584   31.0845   48.3078 H   0  0  0  0  0  0  0  0  0  0  0  0
   58.7775   30.7640   48.2388 H   0  0  0  0  0  0  0  0  0  0  0  0
   60.5826   31.9549   46.0927 H   0  0  0  0  0  0  0  0  0  0  0  0
   59.5053   30.5188   45.9953 H   0  0  0  0  0  0  0  0  0  0  0  0
  1  2  2  0
  2  3  1  0
  3  4  2  0
  4  5  1  0
  5  6  1  0
  6  7  1  0
  7  8  2  0
  8  9  1  0
  9 10  2  0
 10 11  1  0
 11 12  2  0
  6 13  2  0
  2 14  1  0
 14 15  1  0
 15 16  1  0
 16 17  1  0
 17 18  1  0
 18 19  2  0
 19 20  1  0
 20 21  2  0
 21 22  1  0
 21 23  1  0
 23 24  2  0
 17 25  1  0
 25 26  1  0
 13  3  1  0
 26 14  1  0
 12  7  1  0
 24 18  1  0
  4 27  1  0
  8 28  1  0
  9 29  1  0
 10 30  1  0
 11 31  1  0
 12 32  1  0
 15 33  1  0
 15 34  1  0
 16 35  1  0
 16 36  1  0
 19 37  1  0
 20 38  1  0
 23 39  1  0
 24 40  1  0
 25 41  1  0
 25 42  1  0
 26 43  1  0
 26 44  1  0
M  CHG  1   5  -1
M  END
>  <UniqueID>  (25) 
22

>  <SMILES>  (25) 
O=C(c1c[n-]c(-c2ccccc2)n1)N1CCN(c2ccc(F)cc2)CC1

>  <Energy>  (25) 
82.71695616026932

>  <Genealogy>  (25) 
O=C(c1c[n-]c(-c2ccccc2)n1)N1CCN(c2ccc(F)cc2)CC1 (protonated)
O=C(c1c[n-]c(-c2ccccc2)n1)N1CCN(c2ccc(F)cc2)CC1 (3D coordinates assigned)
O=C(c1c[n-]c(-c2ccccc2)n1)N1CCN(c2ccc(F)cc2)CC1 (nonaromatic ring conformer: 82.71695616026932 kcal/mol)

>  <smiles>  (25) 
O=C(c1c[nH]c(-c2ccccc2)n1)N1CCN(c2ccc(F)cc2)CC1

>  <score_type>  (25) 
oracle

>  <origin>  (25) 
adg

>  <m_score__min__energy>  (25) 
-8.9100000000000001

>  <m_primary>  (25) 
energy

$$$$
25:0
     RDKit          3D

 62 65  0  0  0  0  0  0  0  0999 V2000
   57.0780   30.9840   43.8340 C   0  0  0  0  0  0  0  0  0  0  0  0
   58.4640   30.8760   44.4630 C   0  0  0  0  0  0  0  0  0  0  0  0
   58.7280   29.4970   44.9130 N   0  0  0  0  0  0  0  0  0  0  0  0
   58.3400   28.3650   44.0540 C   0  0  0  0  0  0  0  0  0  0  0  0
   57.2790   27.5870   44.6960 N   0  0  0  0  0  0  0  0  0  0  0  0
   57.9160   26.8740   46.1420 S   0  0  0  0  0  0  0  0  0  0  0  0
   58.6550   25.6100   45.8030 O   0  0  0  0  0  0  0  0  0  0  0  0
   56.7850   26.5680   47.0820 O   0  0  0  0  0  0  0  0  0  0  0  0
   59.0160   28.0230   46.8790 C   0  0  0  0  0  0  0  0  0  0  0  0
   59.5710   27.7480   48.1340 C   0  0  0  0  0  0  0  0  0  0  0  0
   60.4350   28.6660   48.7400 C   0  0  0  0  0  0  0  0  0  0  0  0
   61.0070   28.3570   50.0630 C   0  0  0  0  0  0  0  0  0  0  0  0
   61.0840   27.1470   50.4100 O   0  0  0  0  0  0  0  0  0  0  0  0
   61.3970   29.3980   50.9890 N   0  0  0  0  0  0  0  0  0  0  0  0
   62.8120   29.7200   51.2080 C   0  0  0  0  0  0  0  0  0  0  0  0
   60.3600   30.2380   51.6060 C   0  0  0  0  0  0  0  0  0  0  0  0
   59.8960   31.2790   50.6210 C   0  0  0  0  0  0  0  0  0  0  0  0
   60.7910   32.2570   50.1620 C   0  0  0  0  0  0  0  0  0  0  0  0
   60.3970   33.1700   49.1810 C   0  0  0  0  0  0  0  0  0  0  0  0
   59.0980   33.1260   48.6440 C   0  0  0  0  0  0  0  0  0  0  0  0
   58.6770   34.0730   47.5340 C   0  0  0  0  0  0  0  0  0  0  0  0
   59.8880   34.5940   46.7060 C   0  0  0  0  0  0  0  0  0  0  0  0
   59.9390   34.0120   45.2860 C   0  0  0  0  0  0  0  0  0  0  0  0
   58.6400   34.2860   44.5040 C   0  0  0  0  0  0  0  0  0  0  0  0
   57.3660   34.2260   45.3740 C   0  0  0  0  0  0  0  0  0  0  0  0
   57.5810   33.4230   46.6600 C   0  0  0  0  0  0  0  0  0  0  0  0
   58.2040   32.1460   49.1080 C   0  0  0  0  0  0  0  0  0  0  0  0
   58.6000   31.2300   50.0870 C   0  0  0  0  0  0  0  0  0  0  0  0
   60.7700   29.8470   48.0670 C   0  0  0  0  0  0  0  0  0  0  0  0
   60.2170   30.1260   46.8130 C   0  0  0  0  0  0  0  0  0  0  0  0
   59.3240   29.2200   46.2070 C   0  0  0  0  0  0  0  0  0  0  0  0
   56.3187   31.0432   44.6277 H   0  0  0  0  0  0  0  0  0  0  0  0
   57.0278   31.8888   43.2104 H   0  0  0  0  0  0  0  0  0  0  0  0
   56.8883   30.0979   43.2104 H   0  0  0  0  0  0  0  0  0  0  0  0
   59.2213   31.1639   43.7189 H   0  0  0  0  0  0  0  0  0  0  0  0
   58.5094   31.5462   45.3341 H   0  0  0  0  0  0  0  0  0  0  0  0
   57.9770   28.7483   43.0889 H   0  0  0  0  0  0  0  0  0  0  0  0
   59.2149   27.7177   43.8944 H   0  0  0  0  0  0  0  0  0  0  0  0
   57.0180   26.8040   44.0530 H   0  0  0  0  0  0  0  0  0  0  0  0
   59.3266   26.8057   48.6461 H   0  0  0  0  0  0  0  0  0  0  0  0
   63.0146   29.7661   52.2882 H   0  0  0  0  0  0  0  0  0  0  0  0
   63.4403   28.9419   50.7500 H   0  0  0  0  0  0  0  0  0  0  0  0
   63.0417   30.6934   50.7500 H   0  0  0  0  0  0  0  0  0  0  0  0
   59.5076   29.6085   51.9012 H   0  0  0  0  0  0  0  0  0  0  0  0
   60.7763   30.7369   52.4936 H   0  0  0  0  0  0  0  0  0  0  0  0
   61.8086   32.3051   50.5769 H   0  0  0  0  0  0  0  0  0  0  0  0
   61.1087   33.9297   48.8256 H   0  0  0  0  0  0  0  0  0  0  0  0
   58.2399   34.9698   47.9973 H   0  0  0  0  0  0  0  0  0  0  0  0
   59.8178   35.6894   46.6335 H   0  0  0  0  0  0  0  0  0  0  0  0
   60.8035   34.2746   47.2255 H   0  0  0  0  0  0  0  0  0  0  0  0
   60.7819   34.4673   44.7454 H   0  0  0  0  0  0  0  0  0  0  0  0
   60.0625   32.9221   45.3693 H   0  0  0  0  0  0  0  0  0  0  0  0
   58.7086   35.2891   44.0578 H   0  0  0  0  0  0  0  0  0  0  0  0
   58.5486   33.4941   43.7460 H   0  0  0  0  0  0  0  0  0  0  0  0
   57.0713   35.2514   45.6418 H   0  0  0  0  0  0  0  0  0  0  0  0
   56.5812   33.7236   44.7894 H   0  0  0  0  0  0  0  0  0  0  0  0
   56.6390   33.3907   47.2271 H   0  0  0  0  0  0  0  0  0  0  0  0
   57.9005   32.4052   46.3917 H   0  0  0  0  0  0  0  0  0  0  0  0
   57.1845   32.0993   48.6976 H   0  0  0  0  0  0  0  0  0  0  0  0
   57.8913   30.4666   50.4405 H   0  0  0  0  0  0  0  0  0  0  0  0
   61.4714   30.5589   48.5266 H   0  0  0  0  0  0  0  0  0  0  0  0
   60.4813   31.0601   46.2957 H   0  0  0  0  0  0  0  0  0  0  0  0
  1  2  1  0
  2  3  1  0
  3  4  1  0
  4  5  1  0
  5  6  1  0
  6  7  2  0
  6  8  2  0
  6  9  1  0
  9 10  2  0
 10 11  1  0
 11 12  1  0
 12 13  2  0
 12 14  1  0
 14 15  1  0
 14 16  1  0
 16 17  1  0
 17 18  2  0
 18 19  1  0
 19 20  2  0
 20 21  1  0
 21 22  1  0
 22 23  1  0
 23 24  1  0
 24 25  1  0
 25 26  1  0
 20 27  1  0
 27 28  2  0
 11 29  2  0
 29 30  1  0
 30 31  2  0
 31  3  1  0
 31  9  1  0
 28 17  1  0
 26 21  1  0
  1 32  1  0
  1 33  1  0
  1 34  1  0
  2 35  1  0
  2 36  1  0
  4 37  1  0
  4 38  1  0
  5 39  1  0
 10 40  1  0
 15 41  1  0
 15 42  1  0
 15 43  1  0
 16 44  1  0
 16 45  1  0
 18 46  1  0
 19 47  1  0
 21 48  1  0
 22 49  1  0
 22 50  1  0
 23 51  1  0
 23 52  1  0
 24 53  1  0
 24 54  1  0
 25 55  1  0
 25 56  1  0
 26 57  1  0
 26 58  1  0
 27 59  1  0
 28 60  1  0
 29 61  1  0
 30 62  1  0
M  END
>  <UniqueID>  (26) 
23

>  <SMILES>  (26) 
CCN1CNS(=O)(=O)c2cc(C(=O)N(C)Cc3ccc(C4CCCCC4)cc3)ccc21

>  <Energy>  (26) 
70.98887079597853

>  <Genealogy>  (26) 
CCN1CNS(=O)(=O)c2cc(C(=O)N(C)Cc3ccc(C4CCCCC4)cc3)ccc21 (3D coordinates assigned)
CCN1CNS(=O)(=O)c2cc(C(=O)N(C)Cc3ccc(C4CCCCC4)cc3)ccc21 (nonaromatic ring conformer: 70.98887079597853 kcal/mol)

>  <smiles>  (26) 
CCN1CNS(=O)(=O)c2cc(C(=O)N(C)Cc3ccc(C4CCCCC4)cc3)ccc21

>  <score_type>  (26) 
oracle

>  <origin>  (26) 
adg

>  <m_score__min__energy>  (26) 
-9.9800000000000004

>  <m_primary>  (26) 
energy

$$$$
26:0
     RDKit          3D

 38 41  0  0  0  0  0  0  0  0999 V2000
   61.7590   33.4000   50.0640 O   0  0  0  0  0  0  0  0  0  0  0  0
   60.9640   32.8200   49.2770 C   0  0  0  0  0  0  0  0  0  0  0  0
   60.8640   31.3090   49.2610 C   0  0  0  0  0  0  0  0  0  0  0  0
   59.4930   30.8000   48.7360 C   0  0  0  0  0  0  0  0  0  0  0  0
   58.9950   31.5850   47.5440 C   0  0  0  0  0  0  0  0  0  0  0  0
   58.1110   31.0640   46.5810 C   0  0  0  0  0  0  0  0  0  0  0  0
   57.6260   31.8960   45.5330 C   0  0  0  0  0  0  0  0  0  0  0  0
   56.7230   31.4090   44.5320 N   0  0  0  0  0  0  0  0  0  0  0  0
   56.4250   29.7360   44.1870 S   0  0  0  0  0  0  0  0  0  0  0  0
   55.1460   29.3170   44.8530 O   0  0  0  0  0  0  0  0  0  0  0  0
   56.2860   29.5610   42.7000 O   0  0  0  0  0  0  0  0  0  0  0  0
   57.7430   28.7460   44.8080 C   0  0  0  0  0  0  0  0  0  0  0  0
   59.0690   29.0560   44.4730 C   0  0  0  0  0  0  0  0  0  0  0  0
   60.1170   28.2630   44.9530 C   0  0  0  0  0  0  0  0  0  0  0  0
   59.8450   27.1610   45.7700 C   0  0  0  0  0  0  0  0  0  0  0  0
   60.8610   26.3930   46.2340 F   0  0  0  0  0  0  0  0  0  0  0  0
   58.5240   26.8530   46.1110 C   0  0  0  0  0  0  0  0  0  0  0  0
   57.4750   27.6440   45.6320 C   0  0  0  0  0  0  0  0  0  0  0  0
   58.0310   33.2480   45.4710 C   0  0  0  0  0  0  0  0  0  0  0  0
   58.8920   33.7360   46.4560 C   0  0  0  0  0  0  0  0  0  0  0  0
   59.3310   32.9240   47.4490 C   0  0  0  0  0  0  0  0  0  0  0  0
   60.2080   33.5700   48.3250 N   0  0  0  0  0  0  0  0  0  0  0  0
   60.4010   34.9470   47.8760 C   0  0  0  0  0  0  0  0  0  0  0  0
   59.4880   35.0980   46.6210 C   0  0  0  0  0  0  0  0  0  0  0  0
   61.6581   30.9114   48.6119 H   0  0  0  0  0  0  0  0  0  0  0  0
   60.9708   30.9598   50.2986 H   0  0  0  0  0  0  0  0  0  0  0  0
   59.5984   29.7450   48.4431 H   0  0  0  0  0  0  0  0  0  0  0  0
   58.7599   30.9268   49.5462 H   0  0  0  0  0  0  0  0  0  0  0  0
   57.7943   30.0121   46.6383 H   0  0  0  0  0  0  0  0  0  0  0  0
   59.2854   29.9235   43.8322 H   0  0  0  0  0  0  0  0  0  0  0  0
   61.1563   28.5066   44.6874 H   0  0  0  0  0  0  0  0  0  0  0  0
   58.3101   25.9882   46.7563 H   0  0  0  0  0  0  0  0  0  0  0  0
   56.4369   27.4009   45.9025 H   0  0  0  0  0  0  0  0  0  0  0  0
   57.6750   33.9035   44.6625 H   0  0  0  0  0  0  0  0  0  0  0  0
   60.0979   35.6551   48.6613 H   0  0  0  0  0  0  0  0  0  0  0  0
   61.4552   35.1612   47.6464 H   0  0  0  0  0  0  0  0  0  0  0  0
   58.7052   35.8514   46.7928 H   0  0  0  0  0  0  0  0  0  0  0  0
   60.0375   35.4357   45.7299 H   0  0  0  0  0  0  0  0  0  0  0  0
  1  2  2  0
  2  3  1  0
  3  4  1  0
  4  5  1  0
  5  6  2  0
  6  7  1  0
  7  8  1  0
  8  9  1  0
  9 10  2  0
  9 11  2  0
  9 12  1  0
 12 13  2  0
 13 14  1  0
 14 15  2  0
 15 16  1  0
 15 17  1  0
 17 18  2  0
  7 19  2  0
 19 20  1  0
 20 21  2  0
 21 22  1  0
 22 23  1  0
 23 24  1  0
 22  2  1  0
 21  5  1  0
 18 12  1  0
 24 20  1  0
  3 25  1  0
  3 26  1  0
  4 27  1  0
  4 28  1  0
  6 29  1  0
 13 30  1  0
 14 31  1  0
 17 32  1  0
 18 33  1  0
 19 34  1  0
 23 35  1  0
 23 36  1  0
 24 37  1  0
 24 38  1  0
M  CHG  1   8  -1
M  END
>  <UniqueID>  (27) 
24

>  <SMILES>  (27) 
O=C1CCc2cc([N-]S(=O)(=O)c3ccc(F)cc3)cc3c2N1CC3

>  <Energy>  (27) 
62.78047334427066

>  <Genealogy>  (27) 
O=C1CCc2cc([N-]S(=O)(=O)c3ccc(F)cc3)cc3c2N1CC3 (protonated)
O=C1CCc2cc([N-]S(=O)(=O)c3ccc(F)cc3)cc3c2N1CC3 (3D coordinates assigned)
O=C1CCc2cc([N-]S(=O)(=O)c3ccc(F)cc3)cc3c2N1CC3 (nonaromatic ring conformer: 62.78047334427066 kcal/mol)

>  <smiles>  (27) 
O=C1CCc2cc(NS(=O)(=O)c3ccc(F)cc3)cc3c2N1CC3

>  <score_type>  (27) 
oracle

>  <origin>  (27) 
adg

>  <m_score__min__energy>  (27) 
-9.6300000000000008

>  <m_primary>  (27) 
energy

$$$$
27:0
     RDKit          3D

 60 63  0  0  0  0  0  0  0  0999 V2000
   63.0770   29.3440   53.1130 C   0  0  0  0  0  0  0  0  0  0  0  0
   62.5170   29.8940   51.8350 C   0  0  0  0  0  0  0  0  0  0  0  0
   63.0440   31.0620   51.2670 C   0  0  0  0  0  0  0  0  0  0  0  0
   62.5350   31.5540   50.0610 C   0  0  0  0  0  0  0  0  0  0  0  0
   61.5190   30.8560   49.3710 C   0  0  0  0  0  0  0  0  0  0  0  0
   60.9120   31.3790   48.0700 C   0  0  1  0  0  0  0  0  0  0  0  0
   60.3080   30.3180   47.1720 C   0  0  0  0  0  0  0  0  0  0  0  0
   60.9830   29.8880   46.1980 O   0  0  0  0  0  0  0  0  0  0  0  0
   58.9710   29.8330   47.3880 N   0  0  0  0  0  0  0  0  0  0  0  0
   58.3390   28.8630   46.4970 C   0  0  0  0  0  0  0  0  0  0  0  0
   57.7380   29.5660   45.3120 C   0  0  0  0  0  0  0  0  0  0  0  0
   56.4770   29.1860   44.8190 C   0  0  0  0  0  0  0  0  0  0  0  0
   55.9370   29.8260   43.6980 C   0  0  0  0  0  0  0  0  0  0  0  0
   56.6510   30.8470   43.0630 C   0  0  0  0  0  0  0  0  0  0  0  0
   57.9080   31.2250   43.5440 C   0  0  0  0  0  0  0  0  0  0  0  0
   58.4550   30.5840   44.6610 C   0  0  0  0  0  0  0  0  0  0  0  0
   59.9270   32.4570   48.3230 N   0  0  0  0  0  0  0  0  0  0  0  0
   59.6850   32.9110   49.6750 C   0  0  0  0  0  0  0  0  0  0  0  0
   60.3050   33.9170   50.1150 O   0  0  0  0  0  0  0  0  0  0  0  0
   58.7250   32.2070   50.5560 C   0  0  0  0  0  0  0  0  0  0  0  0
   58.2400   30.9660   50.2380 N   0  0  0  0  0  0  0  0  0  0  0  0
   57.3930   30.4460   51.1230 N   0  0  0  0  0  0  0  0  0  0  0  0
   57.2190   31.5400   52.3570 S   0  0  0  0  0  0  0  0  0  0  0  0
   58.2440   32.7160   51.7680 C   0  0  0  0  0  0  0  0  0  0  0  0
   58.5400   34.0290   52.4200 C   0  0  0  0  0  0  0  0  0  0  0  0
   59.2320   33.1030   47.2330 C   0  0  0  0  0  0  0  0  0  0  0  0
   57.8390   32.9590   47.1060 C   0  0  0  0  0  0  0  0  0  0  0  0
   57.1480   33.6170   46.0870 C   0  0  0  0  0  0  0  0  0  0  0  0
   57.8330   34.4410   45.1950 C   0  0  0  0  0  0  0  0  0  0  0  0
   59.2150   34.6000   45.3090 C   0  0  0  0  0  0  0  0  0  0  0  0
   59.9310   33.9190   46.3080 C   0  0  0  0  0  0  0  0  0  0  0  0
   61.4250   34.0910   46.3920 C   0  0  0  0  0  0  0  0  0  0  0  0
   60.9680   29.7080   49.9760 C   0  0  0  0  0  0  0  0  0  0  0  0
   61.4770   29.2210   51.1820 C   0  0  0  0  0  0  0  0  0  0  0  0
   62.5834   29.8288   53.9682 H   0  0  0  0  0  0  0  0  0  0  0  0
   62.8998   28.2591   53.1541 H   0  0  0  0  0  0  0  0  0  0  0  0
   64.1585   29.5407   53.1541 H   0  0  0  0  0  0  0  0  0  0  0  0
   63.8627   31.5947   51.7728 H   0  0  0  0  0  0  0  0  0  0  0  0
   62.9294   32.4932   49.6458 H   0  0  0  0  0  0  0  0  0  0  0  0
   61.7709   31.7853   47.5158 H   0  0  0  0  0  0  0  0  0  0  0  0
   58.4390   30.1440   48.2290 H   0  0  0  0  0  0  0  0  0  0  0  0
   59.0941   28.1430   46.1486 H   0  0  0  0  0  0  0  0  0  0  0  0
   57.5439   28.3356   47.0444 H   0  0  0  0  0  0  0  0  0  0  0  0
   55.9133   28.3829   45.3163 H   0  0  0  0  0  0  0  0  0  0  0  0
   54.9501   29.5258   43.3160 H   0  0  0  0  0  0  0  0  0  0  0  0
   56.2234   31.3529   42.1848 H   0  0  0  0  0  0  0  0  0  0  0  0
   58.4684   32.0282   43.0432 H   0  0  0  0  0  0  0  0  0  0  0  0
   59.4486   30.8777   45.0303 H   0  0  0  0  0  0  0  0  0  0  0  0
   58.5131   33.9098   53.5132 H   0  0  0  0  0  0  0  0  0  0  0  0
   59.5384   34.3739   52.1132 H   0  0  0  0  0  0  0  0  0  0  0  0
   57.7861   34.7690   52.1132 H   0  0  0  0  0  0  0  0  0  0  0  0
   57.2894   32.3228   47.8153 H   0  0  0  0  0  0  0  0  0  0  0  0
   56.0605   33.4851   45.9876 H   0  0  0  0  0  0  0  0  0  0  0  0
   57.2835   34.9666   44.4002 H   0  0  0  0  0  0  0  0  0  0  0  0
   59.7476   35.2633   44.6116 H   0  0  0  0  0  0  0  0  0  0  0  0
   61.7312   34.1263   47.4479 H   0  0  0  0  0  0  0  0  0  0  0  0
   61.9201   33.2439   45.8947 H   0  0  0  0  0  0  0  0  0  0  0  0
   61.7147   35.0284   45.8947 H   0  0  0  0  0  0  0  0  0  0  0  0
   60.1270   29.1895   49.4924 H   0  0  0  0  0  0  0  0  0  0  0  0
   61.0585   28.3035   51.6214 H   0  0  0  0  0  0  0  0  0  0  0  0
  1  2  1  0
  2  3  2  0
  3  4  1  0
  4  5  2  0
  5  6  1  0
  6  7  1  0
  7  8  2  0
  7  9  1  0
  9 10  1  0
 10 11  1  0
 11 12  2  0
 12 13  1  0
 13 14  2  0
 14 15  1  0
 15 16  2  0
  6 17  1  0
 17 18  1  0
 18 19  2  0
 18 20  1  0
 20 21  1  0
 21 22  2  0
 22 23  1  0
 23 24  1  0
 24 25  1  0
 17 26  1  0
 26 27  2  0
 27 28  1  0
 28 29  2  0
 29 30  1  0
 30 31  2  0
 31 32  1  0
  5 33  1  0
 33 34  2  0
 34  2  1  0
 16 11  1  0
 24 20  2  0
 31 26  1  0
  1 35  1  0
  1 36  1  0
  1 37  1  0
  3 38  1  0
  4 39  1  0
  6 40  1  6
  9 41  1  0
 10 42  1  0
 10 43  1  0
 12 44  1  0
 13 45  1  0
 14 46  1  0
 15 47  1  0
 16 48  1  0
 25 49  1  0
 25 50  1  0
 25 51  1  0
 27 52  1  0
 28 53  1  0
 29 54  1  0
 30 55  1  0
 32 56  1  0
 32 57  1  0
 32 58  1  0
 33 59  1  0
 34 60  1  0
M  END
>  <UniqueID>  (28) 
25

>  <SMILES>  (28) 
Cc1ccc([C@@H](C(=O)NCc2ccccc2)N(C(=O)c2nnsc2C)c2ccccc2C)cc1

>  <Energy>  (28) 
105.5252539544816

>  <Genealogy>  (28) 
Cc1ccc([C@@H](C(=O)NCc2ccccc2)N(C(=O)c2nnsc2C)c2ccccc2C)cc1 (chirality)
Cc1ccc([C@@H](C(=O)NCc2ccccc2)N(C(=O)c2nnsc2C)c2ccccc2C)cc1 (3D coordinates assigned)
Cc1ccc([C@@H](C(=O)NCc2ccccc2)N(C(=O)c2nnsc2C)c2ccccc2C)cc1 (optimized conformer: 105.5252539544816 kcal/mol)

>  <smiles>  (28) 
Cc1ccc(C(C(=O)NCc2ccccc2)N(C(=O)c2nnsc2C)c2ccccc2C)cc1

>  <score_type>  (28) 
oracle

>  <origin>  (28) 
adg

>  <m_score__min__energy>  (28) 
-9.5500000000000007

>  <m_primary>  (28) 
energy

$$$$
28:0
     RDKit          3D

 44 46  0  0  0  0  0  0  0  0999 V2000
   58.3890   30.4420   50.3430 O   0  0  0  0  0  0  0  0  0  0  0  0
   59.4350   30.4620   49.6370 C   0  0  0  0  0  0  0  0  0  0  0  0
   59.4410   29.8210   48.3560 N   0  0  0  0  0  0  0  0  0  0  0  0
   60.5890   29.8080   47.4510 C   0  0  1  0  0  0  0  0  0  0  0  0
   60.2830   28.9750   46.1750 C   0  0  0  0  0  0  0  0  0  0  0  0
   58.8300   28.9260   45.7240 C   0  0  0  0  0  0  0  0  0  0  0  0
   58.2730   30.0720   45.1260 C   0  0  0  0  0  0  0  0  0  0  0  0
   56.9380   30.0860   44.7160 C   0  0  0  0  0  0  0  0  0  0  0  0
   56.1330   28.9610   44.9090 C   0  0  0  0  0  0  0  0  0  0  0  0
   54.8060   28.9760   44.4980 O   0  0  0  0  0  0  0  0  0  0  0  0
   56.6640   27.8220   45.5180 C   0  0  0  0  0  0  0  0  0  0  0  0
   57.9990   27.8040   45.9320 C   0  0  0  0  0  0  0  0  0  0  0  0
   61.0660   31.2360   47.2170 C   0  0  0  0  0  0  0  0  0  0  0  0
   62.4430   31.5000   47.3480 C   0  0  0  0  0  0  0  0  0  0  0  0
   62.9460   32.7880   47.1500 C   0  0  0  0  0  0  0  0  0  0  0  0
   62.0840   33.8340   46.8200 C   0  0  0  0  0  0  0  0  0  0  0  0
   60.7160   33.5940   46.6860 C   0  0  0  0  0  0  0  0  0  0  0  0
   59.6320   34.9120   46.2770 Cl  0  0  0  0  0  0  0  0  0  0  0  0
   60.2060   32.3050   46.8800 C   0  0  0  0  0  0  0  0  0  0  0  0
   60.6510   31.1500   50.1270 C   0  0  0  0  0  0  0  0  0  0  0  0
   60.6990   32.5550   50.1960 C   0  0  0  0  0  0  0  0  0  0  0  0
   61.8510   33.2040   50.6480 C   0  0  0  0  0  0  0  0  0  0  0  0
   62.9730   32.4620   51.0460 C   0  0  0  0  0  0  0  0  0  0  0  0
   64.2230   33.1620   51.4940 C   0  0  0  0  0  0  0  0  0  0  0  0
   65.6060   32.9520   50.1560 Br  0  0  0  0  0  0  0  0  0  0  0  0
   62.9360   31.0630   50.9630 C   0  0  0  0  0  0  0  0  0  0  0  0
   61.7840   30.4120   50.5130 C   0  0  0  0  0  0  0  0  0  0  0  0
   61.4433   29.2843   47.9049 H   0  0  0  0  0  0  0  0  0  0  0  0
   60.8742   29.3992   45.3500 H   0  0  0  0  0  0  0  0  0  0  0  0
   60.5398   27.9381   46.4376 H   0  0  0  0  0  0  0  0  0  0  0  0
   58.8962   30.9666   44.9799 H   0  0  0  0  0  0  0  0  0  0  0  0
   56.5195   30.9851   44.2400 H   0  0  0  0  0  0  0  0  0  0  0  0
   56.0299   26.9365   45.6724 H   0  0  0  0  0  0  0  0  0  0  0  0
   58.4054   26.9080   46.4240 H   0  0  0  0  0  0  0  0  0  0  0  0
   63.1307   30.6822   47.6094 H   0  0  0  0  0  0  0  0  0  0  0  0
   64.0244   32.9780   47.2545 H   0  0  0  0  0  0  0  0  0  0  0  0
   62.4826   34.8475   46.6655 H   0  0  0  0  0  0  0  0  0  0  0  0
   59.1269   32.1229   46.7692 H   0  0  0  0  0  0  0  0  0  0  0  0
   59.8230   33.1467   49.8918 H   0  0  0  0  0  0  0  0  0  0  0  0
   61.8782   34.3028   50.6920 H   0  0  0  0  0  0  0  0  0  0  0  0
   64.0116   34.2321   51.6361 H   0  0  0  0  0  0  0  0  0  0  0  0
   64.5654   32.7232   52.4428 H   0  0  0  0  0  0  0  0  0  0  0  0
   63.8186   30.4744   51.2537 H   0  0  0  0  0  0  0  0  0  0  0  0
   61.7635   29.3135   50.4604 H   0  0  0  0  0  0  0  0  0  0  0  0
  1  2  2  0
  2  3  1  0
  3  4  1  0
  4  5  1  0
  5  6  1  0
  6  7  2  0
  7  8  1  0
  8  9  2  0
  9 10  1  0
  9 11  1  0
 11 12  2  0
  4 13  1  0
 13 14  2  0
 14 15  1  0
 15 16  2  0
 16 17  1  0
 17 18  1  0
 17 19  2  0
  2 20  1  0
 20 21  2  0
 21 22  1  0
 22 23  2  0
 23 24  1  0
 24 25  1  0
 23 26  1  0
 26 27  2  0
 12  6  1  0
 19 13  1  0
 27 20  1  0
  4 28  1  1
  5 29  1  0
  5 30  1  0
  7 31  1  0
  8 32  1  0
 11 33  1  0
 12 34  1  0
 14 35  1  0
 15 36  1  0
 16 37  1  0
 19 38  1  0
 21 39  1  0
 22 40  1  0
 24 41  1  0
 24 42  1  0
 26 43  1  0
 27 44  1  0
M  CHG  2   3  -1  10  -1
M  END
>  <UniqueID>  (29) 
26

>  <SMILES>  (29) 
O=C([N-][C@@H](Cc1ccc([O-])cc1)c1cccc(Cl)c1)c1ccc(CBr)cc1

>  <Energy>  (29) 
51.24609504049934

>  <Genealogy>  (29) 
O=C([N-]C(Cc1ccc([O-])cc1)c1cccc(Cl)c1)c1ccc(CBr)cc1 (protonated)
O=C([N-][C@@H](Cc1ccc([O-])cc1)c1cccc(Cl)c1)c1ccc(CBr)cc1 (chirality)
O=C([N-][C@@H](Cc1ccc([O-])cc1)c1cccc(Cl)c1)c1ccc(CBr)cc1 (3D coordinates assigned)
O=C([N-][C@@H](Cc1ccc([O-])cc1)c1cccc(Cl)c1)c1ccc(CBr)cc1 (optimized conformer: 51.24609504049934 kcal/mol)

>  <smiles>  (29) 
O=C(NC(Cc1ccc(O)cc1)c1cccc(Cl)c1)c1ccc(CBr)cc1

>  <score_type>  (29) 
oracle

>  <origin>  (29) 
adg

>  <m_score__min__energy>  (29) 
-12.52

>  <m_primary>  (29) 
energy

$$$$
29:0
     RDKit          3D

 22 23  0  0  0  0  0  0  0  0999 V2000
   50.0410   27.6200   55.0100 C   0  0  0  0  0  0  0  0  0  0  0  0
   51.1320   28.5150   54.8300 O   0  0  0  0  0  0  0  0  0  0  0  0
   51.0960   29.6700   54.0300 C   0  0  0  0  0  0  0  0  0  0  0  0
   49.9800   30.5290   54.0260 C   0  0  0  0  0  0  0  0  0  0  0  0
   49.9660   31.6700   53.2230 C   0  0  0  0  0  0  0  0  0  0  0  0
   51.0590   31.9790   52.4110 C   0  0  0  0  0  0  0  0  0  0  0  0
   51.0140   33.1250   51.6220 O   0  0  0  0  0  0  0  0  0  0  0  0
   52.1840   31.1350   52.3990 C   0  0  0  0  0  0  0  0  0  0  0  0
   53.2980   31.4190   51.5930 C   0  0  0  0  0  0  0  0  0  0  0  0
   54.3990   30.5660   51.6020 C   0  0  0  0  0  0  0  0  0  0  0  0
   54.3840   29.4340   52.4150 C   0  0  0  0  0  0  0  0  0  0  0  0
   53.3040   29.1590   53.1950 N   0  0  0  0  0  0  0  0  0  0  0  0
   52.2060   29.9740   53.2120 C   0  0  0  0  0  0  0  0  0  0  0  0
   49.8613   27.4725   56.0851 H   0  0  0  0  0  0  0  0  0  0  0  0
   49.1394   28.0421   54.5420 H   0  0  0  0  0  0  0  0  0  0  0  0
   50.2787   26.6533   54.5420 H   0  0  0  0  0  0  0  0  0  0  0  0
   49.1121   30.2985   54.6613 H   0  0  0  0  0  0  0  0  0  0  0  0
   49.0870   32.3313   53.2297 H   0  0  0  0  0  0  0  0  0  0  0  0
   53.3012   32.3148   50.9547 H   0  0  0  0  0  0  0  0  0  0  0  0
   55.2740   30.7841   50.9721 H   0  0  0  0  0  0  0  0  0  0  0  0
   55.2518   28.7581   52.4260 H   0  0  0  0  0  0  0  0  0  0  0  0
   53.3410   28.2990   53.7860 H   0  0  0  0  0  0  0  0  0  0  0  0
  1  2  1  0
  2  3  1  0
  3  4  2  0
  4  5  1  0
  5  6  2  0
  6  7  1  0
  6  8  1  0
  8  9  2  0
  9 10  1  0
 10 11  2  0
 11 12  1  0
 12 13  2  0
 13  3  1  0
 13  8  1  0
  1 14  1  0
  1 15  1  0
  1 16  1  0
  4 17  1  0
  5 18  1  0
  9 19  1  0
 10 20  1  0
 11 21  1  0
 12 22  1  0
M  CHG  2   7  -1  12   1
M  END
>  <UniqueID>  (30) 
27

>  <SMILES>  (30) 
COc1ccc([O-])c2ccc[nH+]c12

>  <Energy>  (30) 
26.855749428301877

>  <Genealogy>  (30) 
COc1ccc([O-])c2ccc[nH+]c12 (protonated)
COc1ccc([O-])c2ccc[nH+]c12 (3D coordinates assigned)
COc1ccc([O-])c2ccc[nH+]c12 (optimized conformer: 26.855749428301877 kcal/mol)

>  <smiles>  (30) 
COc1ccc(O)c2cccnc12

>  <score_type>  (30) 
oracle

>  <origin>  (30) 
adg

>  <m_score__min__energy>  (30) 
-7.1900000000000004

>  <m_primary>  (30) 
energy

$$$$
30:0
     RDKit          3D

 47 49  0  0  1  0  0  0  0  0999 V2000
   59.0160   32.1350   53.1270 C   0  0  0  0  0  0  0  0  0  0  0  0
   59.9620   33.0850   52.4470 C   0  0  0  0  0  0  0  0  0  0  0  0
   59.8390   33.0320   50.6750 S   0  0  0  0  0  0  0  0  0  0  0  0
   58.8580   32.0020   50.2630 O   0  0  0  0  0  0  0  0  0  0  0  0
   59.3160   34.3980   50.2580 O   0  0  0  0  0  0  0  0  0  0  0  0
   61.4070   32.8630   49.9240 C   0  0  0  0  0  0  0  0  0  0  0  0
   62.4590   32.2500   50.5810 C   0  0  0  0  0  0  0  0  0  0  0  0
   63.7080   32.1220   49.9740 C   0  0  0  0  0  0  0  0  0  0  0  0
   65.0230   31.3340   50.8470 Cl  0  0  0  0  0  0  0  0  0  0  0  0
   63.9260   32.6050   48.7000 C   0  0  0  0  0  0  0  0  0  0  0  0
   62.8800   33.2160   48.0390 C   0  0  0  0  0  0  0  0  0  0  0  0
   63.1380   33.8320   46.4260 Cl  0  0  0  0  0  0  0  0  0  0  0  0
   58.4060   29.2090   46.2530 C   0  0  0  0  0  0  0  0  0  0  0  0
   60.6170   34.0250   47.8950 N   0  0  0  0  0  0  0  0  0  0  0  0
   59.7620   33.4530   47.1670 C   0  0  0  0  0  0  0  0  0  0  0  0
   59.3940   32.1870   47.4990 N   0  0  0  0  0  0  0  0  0  0  0  0
   58.4870   31.5030   46.7770 C   0  0  0  0  0  0  0  0  0  0  0  0
   58.1770   30.3040   47.1410 N   0  0  0  0  0  0  0  0  0  0  0  0
   61.6150   33.3560   48.6320 C   0  0  0  0  0  0  0  0  0  0  0  0
   59.5290   28.4270   46.4270 C   0  0  0  0  0  0  0  0  0  0  0  0
   59.7760   27.3500   45.5740 C   0  0  0  0  0  0  0  0  0  0  0  0
   58.8560   27.1090   44.5580 C   0  0  0  0  0  0  0  0  0  0  0  0
   57.7400   27.8960   44.3960 C   0  0  0  0  0  0  0  0  0  0  0  0
   57.4890   28.9630   45.2360 C   0  0  0  0  0  0  0  0  0  0  0  0
   56.3670   29.7670   45.0840 O   0  0  0  0  0  0  0  0  0  0  0  0
   55.8840   30.0420   43.7680 C   0  0  0  0  0  0  0  0  0  0  0  0
   57.9210   32.0720   45.6970 N   0  0  0  0  0  0  0  0  0  0  0  0
   58.2780   33.3400   45.3500 C   0  0  0  0  0  0  0  0  0  0  0  0
   59.2040   34.0630   46.0700 C   0  0  0  0  0  0  0  0  0  0  0  0
   59.6440   35.6830   45.5940 Cl  0  0  0  0  0  0  0  0  0  0  0  0
   59.1163   32.2357   54.2178 H   0  0  0  0  0  0  0  0  0  0  0  0
   57.9833   32.3708   52.8304 H   0  0  0  0  0  0  0  0  0  0  0  0
   59.2562   31.1033   52.8304 H   0  0  0  0  0  0  0  0  0  0  0  0
   59.7358   34.1073   52.7843 H   0  0  0  0  0  0  0  0  0  0  0  0
   60.9847   32.7824   52.7164 H   0  0  0  0  0  0  0  0  0  0  0  0
   62.3080   31.8577   51.5975 H   0  0  0  0  0  0  0  0  0  0  0  0
   64.9116   32.5052   48.2219 H   0  0  0  0  0  0  0  0  0  0  0  0
   59.8230   31.7280   48.3340 H   0  0  0  0  0  0  0  0  0  0  0  0
   60.2329   28.6531   47.2415 H   0  0  0  0  0  0  0  0  0  0  0  0
   60.6653   26.7150   45.7003 H   0  0  0  0  0  0  0  0  0  0  0  0
   59.0255   26.2691   43.8682 H   0  0  0  0  0  0  0  0  0  0  0  0
   57.0344   27.6715   43.5825 H   0  0  0  0  0  0  0  0  0  0  0  0
   54.9298   30.5853   43.8337 H   0  0  0  0  0  0  0  0  0  0  0  0
   56.6195   30.6567   43.2285 H   0  0  0  0  0  0  0  0  0  0  0  0
   55.7308   29.0957   43.2285 H   0  0  0  0  0  0  0  0  0  0  0  0
   57.2200   31.5760   45.1180 H   0  0  0  0  0  0  0  0  0  0  0  0
   57.8122   33.8015   44.4668 H   0  0  0  0  0  0  0  0  0  0  0  0
  1  2  1  0
  2  3  1  0
  3  4  2  0
  3  5  2  0
  3  6  1  0
  6  7  2  0
  7  8  1  0
  8  9  1  0
  8 10  2  0
 10 11  1  0
 11 12  1  0
 11 13  2  0
 13 14  1  0
 14 15  2  0
 15 16  1  0
 16 17  1  0
 17 18  2  0
 18 19  1  0
 19 20  2  0
 20 21  1  0
 21 22  2  0
 22 23  1  0
 23 24  2  0
 24 25  1  0
 25 26  1  0
 17 27  1  0
 27 28  1  0
 28 29  2  0
 29 30  1  0
 13  6  1  0
 29 15  1  0
 24 19  1  0
  1 31  1  0
  1 32  1  0
  1 33  1  0
  2 34  1  0
  2 35  1  0
  7 36  1  0
 10 37  1  0
 16 38  1  0
 20 39  1  0
 21 40  1  0
 22 41  1  0
 23 42  1  0
 26 43  1  0
 26 44  1  0
 26 45  1  0
 27 46  1  0
 28 47  1  0
M  END
>  <smiles>  (31) 
CCS(=O)(=O)c1cc(Cl)cc(Cl)c1N=c1[nH]c(=Nc2ccccc2OC)[nH]cc1Cl

>  <score_type>  (31) 
oracle

>  <origin>  (31) 
adg

>  <m_score__min__energy>  (31) 
-8.7699999999999996

>  <m_primary>  (31) 
energy

$$$$
31:0
     RDKit          3D

 28 29  0  0  0  0  0  0  0  0999 V2000
   54.7670   28.3680   44.4270 H   0  0  0  0  0  0  0  0  0  0  0  0
   55.1400   29.3370   44.3090 N   0  0  0  0  0  0  0  0  0  0  0  0
   56.2450   29.7090   44.8710 C   0  0  0  0  0  0  0  0  0  0  0  0
   56.6040   31.0240   44.8690 N   0  0  0  0  0  0  0  0  0  0  0  0
   57.7560   31.4520   45.4500 C   0  0  0  0  0  0  0  0  0  0  0  0
   58.0169   32.5205   45.4319 H   0  0  0  0  0  0  0  0  0  0  0  0
   58.6100   30.5340   46.0710 C   0  0  0  0  0  0  0  0  0  0  0  0
   59.8320   30.9790   46.6880 C   0  0  0  0  0  0  0  0  0  0  0  0
   60.8570   31.3480   47.2030 C   0  0  0  0  0  0  0  0  0  0  0  0
   62.0870   31.7870   47.8170 C   0  0  0  0  0  0  0  0  0  0  0  0
   62.8980   32.7020   47.1410 C   0  0  0  0  0  0  0  0  0  0  0  0
   62.5957   33.0780   46.1524 H   0  0  0  0  0  0  0  0  0  0  0  0
   64.0890   33.1390   47.7170 C   0  0  0  0  0  0  0  0  0  0  0  0
   64.7289   33.8603   47.1876 H   0  0  0  0  0  0  0  0  0  0  0  0
   64.4640   32.6540   48.9720 C   0  0  0  0  0  0  0  0  0  0  0  0
   65.5730   33.0600   49.5070 N   0  0  0  0  0  0  0  0  0  0  0  0
   66.4860   33.0080   49.0030 H   0  0  0  0  0  0  0  0  0  0  0  0
   63.6650   31.7590   49.6250 N   0  0  0  0  0  0  0  0  0  0  0  0
   63.9600   31.4050   50.5640 H   0  0  0  0  0  0  0  0  0  0  0  0
   62.4900   31.3140   49.0830 C   0  0  0  0  0  0  0  0  0  0  0  0
   61.6440   30.3270   49.8420 C   0  0  0  0  0  0  0  0  0  0  0  0
   61.7782   30.4836   50.9225 H   0  0  0  0  0  0  0  0  0  0  0  0
   60.5859   30.4726   49.5791 H   0  0  0  0  0  0  0  0  0  0  0  0
   61.9497   29.3036   49.5791 H   0  0  0  0  0  0  0  0  0  0  0  0
   58.2620   29.1800   46.0840 C   0  0  0  0  0  0  0  0  0  0  0  0
   58.9230   28.4456   46.5676 H   0  0  0  0  0  0  0  0  0  0  0  0
   57.0740   28.7620   45.4820 C   0  0  0  0  0  0  0  0  0  0  0  0
   56.7924   27.6987   45.4879 H   0  0  0  0  0  0  0  0  0  0  0  0
  1  2  1  0
  2  3  2  0
  3  4  1  0
  4  5  1  0
  5  6  1  0
  5  7  2  0
  7  8  1  0
  8  9  3  0
  9 10  1  0
 10 11  1  0
 11 12  1  0
 11 13  2  0
 13 14  1  0
 13 15  1  0
 15 16  2  0
 16 17  1  0
 15 18  1  0
 18 19  1  0
 18 20  1  0
 20 21  1  0
 21 22  1  0
 21 23  1  0
 21 24  1  0
  7 25  1  0
 25 26  1  0
 25 27  2  0
 27 28  1  0
 27  3  1  0
 20 10  2  0
M  CHG  1   4  -1
M  END
>  <UniqueID>  (32) 
28

>  <SMILES>  (32) 
[H]/N=c1/ccc(C#Cc2cc/c(=N/[H])[nH]c2C)c[n-]1

>  <Energy>  (32) 
26.09821644643484

>  <Genealogy>  (32) 
Cc1[nH]c(=N)ccc1C#Cc1ccc(=N)[n-]c1 (protonated)
[H]/N=c1/ccc(C#Cc2cc/c(=N/[H])[nH]c2C)c[n-]1 (cis-trans isomerization)
[H]/N=c1/ccc(C#Cc2cc/c(=N/[H])[nH]c2C)c[n-]1 (3D coordinates assigned)
[H]/N=c1/ccc(C#Cc2cc/c(=N/[H])[nH]c2C)c[n-]1 (optimized conformer: 26.09821644643484 kcal/mol)

>  <smiles>  (32) 
Cc1[nH]c(=N)ccc1C#Cc1ccc(=N)[nH]c1

>  <score_type>  (32) 
oracle

>  <origin>  (32) 
adg

>  <m_score__min__energy>  (32) 
-7.3700000000000001

>  <m_primary>  (32) 
energy

$$$$
32:0
     RDKit          3D

 59 62  0  0  0  0  0  0  0  0999 V2000
   60.7490   27.1750   48.2680 C   0  0  0  0  0  0  0  0  0  0  0  0
   60.5310   27.2660   46.8630 O   0  0  0  0  0  0  0  0  0  0  0  0
   59.3890   27.8290   46.2720 C   0  0  0  0  0  0  0  0  0  0  0  0
   58.5300   26.9870   45.5630 C   0  0  0  0  0  0  0  0  0  0  0  0
   57.3930   27.4980   44.9390 C   0  0  0  0  0  0  0  0  0  0  0  0
   57.0810   28.8680   45.0300 C   0  0  0  0  0  0  0  0  0  0  0  0
   55.9530   29.4100   44.3940 O   0  0  0  0  0  0  0  0  0  0  0  0
   55.9120   29.8000   43.0250 C   0  0  0  0  0  0  0  0  0  0  0  0
   57.9180   29.7210   45.7760 C   0  0  0  0  0  0  0  0  0  0  0  0
   57.6060   31.1250   45.8670 N   0  0  0  0  0  0  0  0  0  0  0  0
   57.9040   32.0930   44.8450 C   0  0  0  0  0  0  0  0  0  0  0  0
   58.5810   31.7710   43.8310 O   0  0  0  0  0  0  0  0  0  0  0  0
   57.4020   33.5030   44.9740 C   0  0  0  0  0  0  0  0  0  0  0  0
   58.3610   34.3990   45.7710 C   0  0  0  0  0  0  0  0  0  0  0  0
   59.1860   33.6160   46.7200 N   0  0  0  0  0  0  0  0  0  0  0  0
   60.5450   33.5730   46.5770 C   0  0  0  0  0  0  0  0  0  0  0  0
   61.1040   34.2020   45.6330 O   0  0  0  0  0  0  0  0  0  0  0  0
   61.3290   32.8420   47.4770 C   0  0  0  0  0  0  0  0  0  0  0  0
   62.7310   32.7900   47.3320 C   0  0  0  0  0  0  0  0  0  0  0  0
   63.5080   32.0680   48.2300 C   0  0  0  0  0  0  0  0  0  0  0  0
   62.9040   31.3930   49.2840 C   0  0  0  0  0  0  0  0  0  0  0  0
   61.5190   31.4340   49.4460 C   0  0  0  0  0  0  0  0  0  0  0  0
   60.6930   32.1560   48.5410 C   0  0  0  0  0  0  0  0  0  0  0  0
   59.3150   32.2130   48.6610 N   0  0  0  0  0  0  0  0  0  0  0  0
   58.5680   31.5090   49.7360 C   0  0  0  0  0  0  0  0  0  0  0  0
   58.5930   32.3020   51.0300 C   0  0  0  0  0  0  0  0  0  0  0  0
   59.3930   33.4570   51.1090 C   0  0  0  0  0  0  0  0  0  0  0  0
   59.4380   34.2170   52.2790 C   0  0  0  0  0  0  0  0  0  0  0  0
   58.7000   33.8270   53.3950 C   0  0  0  0  0  0  0  0  0  0  0  0
   57.9030   32.6830   53.3390 C   0  0  0  0  0  0  0  0  0  0  0  0
   57.8330   31.9220   52.1650 C   0  0  0  0  0  0  0  0  0  0  0  0
   56.7660   30.5210   52.1730 Cl  0  0  0  0  0  0  0  0  0  0  0  0
   58.5810   32.9330   47.7430 C   0  0  0  0  0  0  0  0  0  0  0  0
   57.3210   32.9760   47.8470 O   0  0  0  0  0  0  0  0  0  0  0  0
   59.0870   29.1980   46.3660 C   0  0  0  0  0  0  0  0  0  0  0  0
   59.8613   27.5456   48.8015 H   0  0  0  0  0  0  0  0  0  0  0  0
   60.9310   26.1258   48.5436 H   0  0  0  0  0  0  0  0  0  0  0  0
   61.6230   27.7834   48.5436 H   0  0  0  0  0  0  0  0  0  0  0  0
   58.7522   25.9118   45.4963 H   0  0  0  0  0  0  0  0  0  0  0  0
   56.7339   26.8252   44.3707 H   0  0  0  0  0  0  0  0  0  0  0  0
   55.7972   30.8919   42.9581 H   0  0  0  0  0  0  0  0  0  0  0  0
   56.8468   29.4986   42.5297 H   0  0  0  0  0  0  0  0  0  0  0  0
   55.0603   29.3107   42.5297 H   0  0  0  0  0  0  0  0  0  0  0  0
   57.1990   31.4800   46.7620 H   0  0  0  0  0  0  0  0  0  0  0  0
   57.2787   33.9269   43.9665 H   0  0  0  0  0  0  0  0  0  0  0  0
   56.4469   33.4688   45.5186 H   0  0  0  0  0  0  0  0  0  0  0  0
   59.0265   34.9217   45.0682 H   0  0  0  0  0  0  0  0  0  0  0  0
   57.7583   35.1133   46.3511 H   0  0  0  0  0  0  0  0  0  0  0  0
   63.2135   33.3255   46.5011 H   0  0  0  0  0  0  0  0  0  0  0  0
   64.6004   32.0308   48.1066 H   0  0  0  0  0  0  0  0  0  0  0  0
   63.5213   30.8234   49.9943 H   0  0  0  0  0  0  0  0  0  0  0  0
   61.0576   30.8984   50.2887 H   0  0  0  0  0  0  0  0  0  0  0  0
   57.5237   31.3736   49.4180 H   0  0  0  0  0  0  0  0  0  0  0  0
   59.0479   30.5354   49.9142 H   0  0  0  0  0  0  0  0  0  0  0  0
   59.9903   33.7647   50.2380 H   0  0  0  0  0  0  0  0  0  0  0  0
   60.0571   35.1253   52.3202 H   0  0  0  0  0  0  0  0  0  0  0  0
   58.7458   34.4209   54.3198 H   0  0  0  0  0  0  0  0  0  0  0  0
   57.3253   32.3764   54.2235 H   0  0  0  0  0  0  0  0  0  0  0  0
   59.7705   29.8696   46.9062 H   0  0  0  0  0  0  0  0  0  0  0  0
  1  2  1  0
  2  3  1  0
  3  4  2  0
  4  5  1  0
  5  6  2  0
  6  7  1  0
  7  8  1  0
  6  9  1  0
  9 10  1  0
 10 11  1  0
 11 12  2  0
 11 13  1  0
 13 14  1  0
 14 15  1  0
 15 16  1  0
 16 17  2  0
 16 18  1  0
 18 19  2  0
 19 20  1  0
 20 21  2  0
 21 22  1  0
 22 23  2  0
 23 24  1  0
 24 25  1  0
 25 26  1  0
 26 27  2  0
 27 28  1  0
 28 29  2  0
 29 30  1  0
 30 31  2  0
 31 32  1  0
 24 33  1  0
 33 34  2  0
  9 35  2  0
 35  3  1  0
 33 15  1  0
 23 18  1  0
 31 26  1  0
  1 36  1  0
  1 37  1  0
  1 38  1  0
  4 39  1  0
  5 40  1  0
  8 41  1  0
  8 42  1  0
  8 43  1  0
 10 44  1  0
 13 45  1  0
 13 46  1  0
 14 47  1  0
 14 48  1  0
 19 49  1  0
 20 50  1  0
 21 51  1  0
 22 52  1  0
 25 53  1  0
 25 54  1  0
 27 55  1  0
 28 56  1  0
 29 57  1  0
 30 58  1  0
 35 59  1  0
M  END
>  <UniqueID>  (33) 
29

>  <SMILES>  (33) 
COc1ccc(OC)c(NC(=O)CCn2c(=O)c3ccccc3n(Cc3ccccc3Cl)c2=O)c1

>  <Energy>  (33) 
81.87390884217459

>  <Genealogy>  (33) 
COc1ccc(OC)c(NC(=O)CCn2c(=O)c3ccccc3n(Cc3ccccc3Cl)c2=O)c1 (3D coordinates assigned)
COc1ccc(OC)c(NC(=O)CCn2c(=O)c3ccccc3n(Cc3ccccc3Cl)c2=O)c1 (optimized conformer: 81.87390884217459 kcal/mol)

>  <smiles>  (33) 
COc1ccc(OC)c(NC(=O)CCn2c(=O)c3ccccc3n(Cc3ccccc3Cl)c2=O)c1

>  <score_type>  (33) 
oracle

>  <origin>  (33) 
adg

>  <m_score__min__energy>  (33) 
-10.16

>  <m_primary>  (33) 
energy

$$$$
33:0
     RDKit          3D

 46 48  0  0  0  0  0  0  0  0999 V2000
   61.1180   28.6780   44.9220 C   0  0  0  0  0  0  0  0  0  0  0  0
   60.2740   28.6060   46.0670 O   0  0  0  0  0  0  0  0  0  0  0  0
   59.0010   28.0160   46.0810 C   0  0  0  0  0  0  0  0  0  0  0  0
   58.6740   26.9610   46.9540 C   0  0  0  0  0  0  0  0  0  0  0  0
   57.3950   26.3970   46.9330 C   0  0  0  0  0  0  0  0  0  0  0  0
   56.4260   26.8670   46.0310 C   0  0  0  0  0  0  0  0  0  0  0  0
   55.0940   26.3340   45.9980 N   0  0  0  0  0  0  0  0  0  0  0  0
   54.7200   24.9990   45.6340 C   0  0  0  0  0  0  0  0  0  0  0  0
   53.5300   24.6140   45.7920 O   0  0  0  0  0  0  0  0  0  0  0  0
   55.7580   24.0510   45.1510 C   0  0  0  0  0  0  0  0  0  0  0  0
   55.9430   23.9090   43.7620 C   0  0  0  0  0  0  0  0  0  0  0  0
   56.9200   23.0530   43.2530 C   0  0  0  0  0  0  0  0  0  0  0  0
   57.7290   22.3230   44.1190 C   0  0  0  0  0  0  0  0  0  0  0  0
   57.5570   22.4350   45.4990 C   0  0  0  0  0  0  0  0  0  0  0  0
   56.5680   23.2820   46.0330 C   0  0  0  0  0  0  0  0  0  0  0  0
   56.4010   23.3350   47.5300 C   0  0  0  0  0  0  0  0  0  0  0  0
   56.7430   27.9330   45.1820 C   0  0  0  0  0  0  0  0  0  0  0  0
   58.0220   28.5040   45.2000 C   0  0  0  0  0  0  0  0  0  0  0  0
   58.3140   29.6000   44.3360 N   0  0  0  0  0  0  0  0  0  0  0  0
   57.2210   30.9350   44.2050 S   0  0  0  0  0  0  0  0  0  0  0  0
   55.8930   30.5600   44.8010 O   0  0  0  0  0  0  0  0  0  0  0  0
   57.0190   31.2650   42.7530 O   0  0  0  0  0  0  0  0  0  0  0  0
   57.8870   32.3330   45.0430 C   0  0  0  0  0  0  0  0  0  0  0  0
   58.2460   33.4850   44.3260 C   0  0  0  0  0  0  0  0  0  0  0  0
   58.8260   34.5710   44.9880 C   0  0  0  0  0  0  0  0  0  0  0  0
   59.0540   34.5110   46.3660 C   0  0  0  0  0  0  0  0  0  0  0  0
   59.6220   35.5620   47.0060 F   0  0  0  0  0  0  0  0  0  0  0  0
   58.7020   33.3630   47.0840 C   0  0  0  0  0  0  0  0  0  0  0  0
   58.1200   32.2760   46.4240 C   0  0  0  0  0  0  0  0  0  0  0  0
   62.1660   28.7674   45.2440 H   0  0  0  0  0  0  0  0  0  0  0  0
   60.9963   27.7662   44.3188 H   0  0  0  0  0  0  0  0  0  0  0  0
   60.8436   29.5560   44.3188 H   0  0  0  0  0  0  0  0  0  0  0  0
   59.4290   26.5784   47.6565 H   0  0  0  0  0  0  0  0  0  0  0  0
   57.1460   25.5805   47.6268 H   0  0  0  0  0  0  0  0  0  0  0  0
   55.3084   24.4809   43.0690 H   0  0  0  0  0  0  0  0  0  0  0  0
   57.0512   22.9548   42.1653 H   0  0  0  0  0  0  0  0  0  0  0  0
   58.5052   21.6567   43.7147 H   0  0  0  0  0  0  0  0  0  0  0  0
   58.2010   21.8553   46.1766 H   0  0  0  0  0  0  0  0  0  0  0  0
   57.3422   23.0363   48.0147 H   0  0  0  0  0  0  0  0  0  0  0  0
   56.1412   24.3598   47.8339 H   0  0  0  0  0  0  0  0  0  0  0  0
   55.5978   22.6476   47.8339 H   0  0  0  0  0  0  0  0  0  0  0  0
   55.9805   28.3265   44.4937 H   0  0  0  0  0  0  0  0  0  0  0  0
   58.0706   33.5333   43.2411 H   0  0  0  0  0  0  0  0  0  0  0  0
   59.1033   35.4738   44.4241 H   0  0  0  0  0  0  0  0  0  0  0  0
   58.8831   33.3153   48.1679 H   0  0  0  0  0  0  0  0  0  0  0  0
   57.8444   31.3740   46.9901 H   0  0  0  0  0  0  0  0  0  0  0  0
  1  2  1  0
  2  3  1  0
  3  4  2  0
  4  5  1  0
  5  6  2  0
  6  7  1  0
  7  8  1  0
  8  9  2  0
  8 10  1  0
 10 11  2  0
 11 12  1  0
 12 13  2  0
 13 14  1  0
 14 15  2  0
 15 16  1  0
  6 17  1  0
 17 18  2  0
 18 19  1  0
 19 20  1  0
 20 21  2  0
 20 22  2  0
 20 23  1  0
 23 24  2  0
 24 25  1  0
 25 26  2  0
 26 27  1  0
 26 28  1  0
 28 29  2  0
 18  3  1  0
 29 23  1  0
 15 10  1  0
  1 30  1  0
  1 31  1  0
  1 32  1  0
  4 33  1  0
  5 34  1  0
 11 35  1  0
 12 36  1  0
 13 37  1  0
 14 38  1  0
 16 39  1  0
 16 40  1  0
 16 41  1  0
 17 42  1  0
 24 43  1  0
 25 44  1  0
 28 45  1  0
 29 46  1  0
M  CHG  2   7  -1  19  -1
M  END
>  <UniqueID>  (34) 
30

>  <SMILES>  (34) 
COc1ccc([N-]C(=O)c2ccccc2C)cc1[N-]S(=O)(=O)c1ccc(F)cc1

>  <Energy>  (34) 
64.0654718018789

>  <Genealogy>  (34) 
COc1ccc([N-]C(=O)c2ccccc2C)cc1[N-]S(=O)(=O)c1ccc(F)cc1 (protonated)
COc1ccc([N-]C(=O)c2ccccc2C)cc1[N-]S(=O)(=O)c1ccc(F)cc1 (3D coordinates assigned)
COc1ccc([N-]C(=O)c2ccccc2C)cc1[N-]S(=O)(=O)c1ccc(F)cc1 (optimized conformer: 64.0654718018789 kcal/mol)

>  <smiles>  (34) 
COc1ccc(NC(=O)c2ccccc2C)cc1NS(=O)(=O)c1ccc(F)cc1

>  <score_type>  (34) 
oracle

>  <origin>  (34) 
adg

>  <m_score__min__energy>  (34) 
-12.5

>  <m_primary>  (34) 
energy

$$$$
34:0
     RDKit          3D

 31 33  0  0  0  0  0  0  0  0999 V2000
   55.1930   29.3210   44.8750 O   0  0  0  0  0  0  0  0  0  0  0  0
   56.3550   29.8030   44.8260 C   0  0  0  0  0  0  0  0  0  0  0  0
   56.5070   31.1920   44.5020 N   0  0  0  0  0  0  0  0  0  0  0  0
   57.3510   32.1340   45.1820 C   0  0  0  0  0  0  0  0  0  0  0  0
   57.5400   33.4010   44.6170 C   0  0  0  0  0  0  0  0  0  0  0  0
   58.3590   34.3430   45.2430 C   0  0  0  0  0  0  0  0  0  0  0  0
   59.0140   34.0210   46.4400 C   0  0  0  0  0  0  0  0  0  0  0  0
   59.8380   34.9490   47.0880 C   0  0  0  0  0  0  0  0  0  0  0  0
   60.4810   34.5960   48.2740 C   0  0  0  0  0  0  0  0  0  0  0  0
   60.2970   33.3170   48.8020 C   0  0  0  0  0  0  0  0  0  0  0  0
   59.4950   32.4180   48.1680 N   0  0  0  0  0  0  0  0  0  0  0  0
   58.8500   32.7350   47.0070 C   0  0  0  0  0  0  0  0  0  0  0  0
   58.0280   31.7960   46.3680 C   0  0  0  0  0  0  0  0  0  0  0  0
   57.5140   28.9390   45.1540 C   0  0  0  0  0  0  0  0  0  0  0  0
   57.3780   27.8530   46.0400 C   0  0  0  0  0  0  0  0  0  0  0  0
   58.4780   27.0450   46.3400 C   0  0  0  0  0  0  0  0  0  0  0  0
   59.7180   27.3040   45.7550 C   0  0  0  0  0  0  0  0  0  0  0  0
   59.8620   28.3690   44.8620 C   0  0  0  0  0  0  0  0  0  0  0  0
   58.7640   29.1810   44.5570 C   0  0  0  0  0  0  0  0  0  0  0  0
   57.0390   33.6566   43.6717 H   0  0  0  0  0  0  0  0  0  0  0  0
   58.4905   35.3395   44.7961 H   0  0  0  0  0  0  0  0  0  0  0  0
   59.9778   35.9538   46.6628 H   0  0  0  0  0  0  0  0  0  0  0  0
   61.1286   35.3203   48.7898 H   0  0  0  0  0  0  0  0  0  0  0  0
   60.8034   33.0336   49.7365 H   0  0  0  0  0  0  0  0  0  0  0  0
   59.3790   31.4700   48.5920 H   0  0  0  0  0  0  0  0  0  0  0  0
   57.9118   30.7895   46.7963 H   0  0  0  0  0  0  0  0  0  0  0  0
   56.4010   27.6396   46.4983 H   0  0  0  0  0  0  0  0  0  0  0  0
   58.3661   26.2029   47.0389 H   0  0  0  0  0  0  0  0  0  0  0  0
   60.5831   26.6691   45.9971 H   0  0  0  0  0  0  0  0  0  0  0  0
   60.8392   28.5692   44.3984 H   0  0  0  0  0  0  0  0  0  0  0  0
   58.8792   30.0129   43.8466 H   0  0  0  0  0  0  0  0  0  0  0  0
  1  2  2  0
  2  3  1  0
  3  4  1  0
  4  5  2  0
  5  6  1  0
  6  7  2  0
  7  8  1  0
  8  9  2  0
  9 10  1  0
 10 11  2  0
 11 12  1  0
 12 13  2  0
  2 14  1  0
 14 15  2  0
 15 16  1  0
 16 17  2  0
 17 18  1  0
 18 19  2  0
 13  4  1  0
 19 14  1  0
 12  7  1  0
  5 20  1  0
  6 21  1  0
  8 22  1  0
  9 23  1  0
 10 24  1  0
 11 25  1  0
 13 26  1  0
 15 27  1  0
 16 28  1  0
 17 29  1  0
 18 30  1  0
 19 31  1  0
M  CHG  2   3  -1  11   1
M  END
>  <UniqueID>  (35) 
31

>  <SMILES>  (35) 
O=C([N-]c1ccc2ccc[nH+]c2c1)c1ccccc1

>  <Energy>  (35) 
43.65001128318784

>  <Genealogy>  (35) 
O=C([N-]c1ccc2ccc[nH+]c2c1)c1ccccc1 (protonated)
O=C([N-]c1ccc2ccc[nH+]c2c1)c1ccccc1 (3D coordinates assigned)
O=C([N-]c1ccc2ccc[nH+]c2c1)c1ccccc1 (optimized conformer: 43.65001128318784 kcal/mol)

>  <smiles>  (35) 
O=C(Nc1ccc2cccnc2c1)c1ccccc1

>  <score_type>  (35) 
oracle

>  <origin>  (35) 
adg

>  <m_score__min__energy>  (35) 
-7.6399999999999997

>  <m_primary>  (35) 
energy

$$$$
35:0
     RDKit          3D

 44 46  0  0  0  0  0  0  0  0999 V2000
   61.3980   27.1290   51.5590 C   0  0  0  0  0  0  0  0  0  0  0  0
   60.6570   28.3370   51.4090 O   0  0  0  0  0  0  0  0  0  0  0  0
   60.1750   28.8220   50.1850 C   0  0  0  0  0  0  0  0  0  0  0  0
   60.7670   28.3560   49.0040 C   0  0  0  0  0  0  0  0  0  0  0  0
   60.3250   28.8120   47.7600 C   0  0  0  0  0  0  0  0  0  0  0  0
   59.2780   29.7410   47.6800 C   0  0  0  0  0  0  0  0  0  0  0  0
   58.8280   30.2480   46.3580 C   0  0  0  0  0  0  0  0  0  0  0  0
   58.1940   29.3780   45.4440 C   0  0  0  0  0  0  0  0  0  0  0  0
   57.9770   27.9920   45.8050 C   0  0  0  0  0  0  0  0  0  0  0  0
   57.8060   26.8830   46.0920 N   0  0  0  0  0  0  0  0  0  0  0  0
   57.7440   29.8600   44.1940 C   0  0  0  0  0  0  0  0  0  0  0  0
   57.0920   28.9720   43.2640 N   0  0  0  0  0  0  0  0  0  0  0  0
   57.9360   31.2190   43.8640 C   0  0  0  0  0  0  0  0  0  0  0  0
   57.4790   31.7290   42.5890 C   0  0  0  0  0  0  0  0  0  0  0  0
   57.1160   32.1370   41.5690 N   0  0  0  0  0  0  0  0  0  0  0  0
   58.5770   32.0890   44.7690 C   0  0  0  0  0  0  0  0  0  0  0  0
   58.8540   33.8210   44.3130 S   0  0  0  0  0  0  0  0  0  0  0  0
   57.2410   34.3770   44.9470 C   0  0  0  0  0  0  0  0  0  0  0  0
   59.0160   31.6080   46.0210 C   0  0  0  0  0  0  0  0  0  0  0  0
   59.6940   32.5220   46.9710 C   0  0  0  0  0  0  0  0  0  0  0  0
   61.0930   32.5040   47.0920 C   0  0  0  0  0  0  0  0  0  0  0  0
   61.7300   33.3470   48.0070 C   0  0  0  0  0  0  0  0  0  0  0  0
   60.9750   34.2110   48.8060 C   0  0  0  0  0  0  0  0  0  0  0  0
   59.5820   34.2320   48.6910 C   0  0  0  0  0  0  0  0  0  0  0  0
   58.9410   33.3900   47.7780 C   0  0  0  0  0  0  0  0  0  0  0  0
   58.6780   30.2090   48.8580 C   0  0  0  0  0  0  0  0  0  0  0  0
   59.1220   29.7550   50.1030 C   0  0  0  0  0  0  0  0  0  0  0  0
   61.5316   26.9112   52.6289 H   0  0  0  0  0  0  0  0  0  0  0  0
   60.8516   26.3020   51.0819 H   0  0  0  0  0  0  0  0  0  0  0  0
   62.3828   27.2413   51.0819 H   0  0  0  0  0  0  0  0  0  0  0  0
   61.5870   27.6247   49.0568 H   0  0  0  0  0  0  0  0  0  0  0  0
   60.8000   28.4410   46.8398 H   0  0  0  0  0  0  0  0  0  0  0  0
   56.3500   28.3030   43.5650 H   0  0  0  0  0  0  0  0  0  0  0  0
   57.3350   28.9580   42.2500 H   0  0  0  0  0  0  0  0  0  0  0  0
   57.2576   34.3713   46.0469 H   0  0  0  0  0  0  0  0  0  0  0  0
   57.0380   35.3970   44.5886 H   0  0  0  0  0  0  0  0  0  0  0  0
   56.4526   33.6988   44.5886 H   0  0  0  0  0  0  0  0  0  0  0  0
   61.6891   31.8246   46.4650 H   0  0  0  0  0  0  0  0  0  0  0  0
   62.8261   33.3307   48.0986 H   0  0  0  0  0  0  0  0  0  0  0  0
   61.4773   34.8745   49.5254 H   0  0  0  0  0  0  0  0  0  0  0  0
   58.9893   34.9124   49.3202 H   0  0  0  0  0  0  0  0  0  0  0  0
   57.8445   33.4073   47.6915 H   0  0  0  0  0  0  0  0  0  0  0  0
   57.8547   30.9363   48.8019 H   0  0  0  0  0  0  0  0  0  0  0  0
   58.6475   30.1275   51.0228 H   0  0  0  0  0  0  0  0  0  0  0  0
  1  2  1  0
  2  3  1  0
  3  4  2  0
  4  5  1  0
  5  6  2  0
  6  7  1  0
  7  8  2  0
  8  9  1  0
  9 10  3  0
  8 11  1  0
 11 12  1  0
 11 13  2  0
 13 14  1  0
 14 15  3  0
 13 16  1  0
 16 17  1  0
 17 18  1  0
 16 19  2  0
 19 20  1  0
 20 21  2  0
 21 22  1  0
 22 23  2  0
 23 24  1  0
 24 25  2  0
  6 26  1  0
 26 27  2  0
 27  3  1  0
 19  7  1  0
 25 20  1  0
  1 28  1  0
  1 29  1  0
  1 30  1  0
  4 31  1  0
  5 32  1  0
 12 33  1  0
 12 34  1  0
 18 35  1  0
 18 36  1  0
 18 37  1  0
 21 38  1  0
 22 39  1  0
 23 40  1  0
 24 41  1  0
 25 42  1  0
 26 43  1  0
 27 44  1  0
M  END
>  <UniqueID>  (36) 
32

>  <SMILES>  (36) 
COc1ccc(-c2c(C#N)c(N)c(C#N)c(SC)c2-c2ccccc2)cc1

>  <Energy>  (36) 
60.48854543417291

>  <Genealogy>  (36) 
COc1ccc(-c2c(C#N)c(N)c(C#N)c(SC)c2-c2ccccc2)cc1 (3D coordinates assigned)
COc1ccc(-c2c(C#N)c(N)c(C#N)c(SC)c2-c2ccccc2)cc1 (optimized conformer: 60.48854543417291 kcal/mol)

>  <smiles>  (36) 
COc1ccc(-c2c(C#N)c(N)c(C#N)c(SC)c2-c2ccccc2)cc1

>  <score_type>  (36) 
oracle

>  <origin>  (36) 
adg

>  <m_score__min__energy>  (36) 
-7.3399999999999999

>  <m_primary>  (36) 
energy

$$$$
36:0
     RDKit          3D

 65 68  0  0  0  0  0  0  0  0999 V2000
   56.4820   21.3350   46.4190 H   0  0  0  0  0  0  0  0  0  0  0  0
   57.3890   21.6440   46.6770 O   0  0  0  0  0  0  0  0  0  0  0  0
   58.1870   21.5630   45.5260 C   0  0  0  0  0  0  0  0  0  0  0  0
   58.9805   20.8197   45.6929 H   0  0  0  0  0  0  0  0  0  0  0  0
   58.6159   22.5574   45.3330 H   0  0  0  0  0  0  0  0  0  0  0  0
   57.3620   21.1460   44.2950 C   0  0  0  0  0  0  0  0  0  0  0  0
   57.3473   20.0473   44.2428 H   0  0  0  0  0  0  0  0  0  0  0  0
   57.8426   21.6017   43.4167 H   0  0  0  0  0  0  0  0  0  0  0  0
   55.9700   21.6290   44.3230 N   0  0  0  0  0  0  0  0  0  0  0  0
   55.7460   21.8830   45.3130 H   0  0  0  0  0  0  0  0  0  0  0  0
   55.6790   22.7870   43.4480 C   0  0  2  0  0  0  0  0  0  0  0  0
   55.4006   22.3907   42.4604 H   0  0  0  0  0  0  0  0  0  0  0  0
   56.9430   23.6870   43.3350 C   0  0  0  0  0  0  0  0  0  0  0  0
   56.9746   24.1086   42.3195 H   0  0  0  0  0  0  0  0  0  0  0  0
   57.8059   23.0434   43.5613 H   0  0  0  0  0  0  0  0  0  0  0  0
   56.9910   24.8580   44.3460 C   0  0  0  0  0  0  0  0  0  0  0  0
   56.5602   25.7520   43.8715 H   0  0  0  0  0  0  0  0  0  0  0  0
   58.0431   25.0165   44.6251 H   0  0  0  0  0  0  0  0  0  0  0  0
   56.2020   24.5540   45.6390 C   0  0  1  0  0  0  0  0  0  0  0  0
   56.6882   23.6684   46.0741 H   0  0  0  0  0  0  0  0  0  0  0  0
   56.3130   25.6440   46.6190 N   0  0  0  0  0  0  0  0  0  0  0  0
   57.1320   26.6600   46.6750 C   0  0  0  0  0  0  0  0  0  0  0  0
   58.1500   26.6080   47.5740 N   0  0  0  0  0  0  0  0  0  0  0  0
   59.0620   27.6040   47.7060 C   0  0  0  0  0  0  0  0  0  0  0  0
   59.8704   27.5116   48.4462 H   0  0  0  0  0  0  0  0  0  0  0  0
   58.9790   28.7450   46.9070 C   0  0  0  0  0  0  0  0  0  0  0  0
   60.2260   29.9730   47.0800 Cl  0  0  0  0  0  0  0  0  0  0  0  0
   57.9350   28.8530   45.9660 C   0  0  0  0  0  0  0  0  0  0  0  0
   57.7700   30.0640   45.1280 C   0  0  0  0  0  0  0  0  0  0  0  0
   57.6920   31.2850   45.7200 N   0  0  0  0  0  0  0  0  0  0  0  0
   57.5180   32.4360   45.0120 C   0  0  0  0  0  0  0  0  0  0  0  0
   57.4490   33.5860   45.6160 N   0  0  0  0  0  0  0  0  0  0  0  0
   57.8000   33.8120   47.0180 C   0  0  0  0  0  0  0  0  0  0  0  0
   57.2485   33.0986   47.6480 H   0  0  0  0  0  0  0  0  0  0  0  0
   57.5330   34.8445   47.2878 H   0  0  0  0  0  0  0  0  0  0  0  0
   59.2840   33.6210   47.2340 C   0  0  0  0  0  0  0  0  0  0  0  0
   59.7990   32.9910   48.3930 C   0  0  0  0  0  0  0  0  0  0  0  0
   58.9070   32.5300   49.5080 C   0  0  0  0  0  0  0  0  0  0  0  0
   59.3737   32.7712   50.4745 H   0  0  0  0  0  0  0  0  0  0  0  0
   57.9343   33.0383   49.4335 H   0  0  0  0  0  0  0  0  0  0  0  0
   58.7591   31.4425   49.4335 H   0  0  0  0  0  0  0  0  0  0  0  0
   61.1420   32.8020   48.5140 N   0  0  0  0  0  0  0  0  0  0  0  0
   62.0250   33.1910   47.5540 C   0  0  0  0  0  0  0  0  0  0  0  0
   63.4920   32.9330   47.7360 C   0  0  0  0  0  0  0  0  0  0  0  0
   64.1600   33.0470   46.5300 F   0  0  0  0  0  0  0  0  0  0  0  0
   63.6850   31.6570   48.2350 F   0  0  0  0  0  0  0  0  0  0  0  0
   64.0150   33.8540   48.6250 F   0  0  0  0  0  0  0  0  0  0  0  0
   61.5520   33.8070   46.3900 C   0  0  0  0  0  0  0  0  0  0  0  0
   62.2544   34.1152   45.6016 H   0  0  0  0  0  0  0  0  0  0  0  0
   60.1850   34.0270   46.2370 C   0  0  0  0  0  0  0  0  0  0  0  0
   59.8092   34.5219   45.3293 H   0  0  0  0  0  0  0  0  0  0  0  0
   57.4150   32.3760   43.6190 C   0  0  0  0  0  0  0  0  0  0  0  0
   57.2778   33.2961   43.0320 H   0  0  0  0  0  0  0  0  0  0  0  0
   57.4880   31.1360   42.9800 C   0  0  0  0  0  0  0  0  0  0  0  0
   57.4083   31.0766   41.8845 H   0  0  0  0  0  0  0  0  0  0  0  0
   57.6620   29.9720   43.7310 C   0  0  0  0  0  0  0  0  0  0  0  0
   57.7140   28.9924   43.2332 H   0  0  0  0  0  0  0  0  0  0  0  0
   57.0090   27.8010   45.8540 C   0  0  0  0  0  0  0  0  0  0  0  0
   56.1876   27.8675   45.1254 H   0  0  0  0  0  0  0  0  0  0  0  0
   54.7310   24.1200   45.4010 C   0  0  0  0  0  0  0  0  0  0  0  0
   54.0729   24.9795   45.5960 H   0  0  0  0  0  0  0  0  0  0  0  0
   54.5131   23.2838   46.0816 H   0  0  0  0  0  0  0  0  0  0  0  0
   54.4910   23.6300   43.9630 C   0  0  0  0  0  0  0  0  0  0  0  0
   54.3593   24.5018   43.3053 H   0  0  0  0  0  0  0  0  0  0  0  0
   53.5909   22.9978   43.9588 H   0  0  0  0  0  0  0  0  0  0  0  0
  1  2  1  0
  2  3  1  0
  3  4  1  0
  3  5  1  0
  3  6  1  0
  6  7  1  0
  6  8  1  0
  6  9  1  0
  9 10  1  0
  9 11  1  0
 11 12  1  6
 11 13  1  0
 13 14  1  0
 13 15  1  0
 13 16  1  0
 16 17  1  0
 16 18  1  0
 16 19  1  0
 19 20  1  1
 19 21  1  0
 21 22  2  0
 22 23  1  0
 23 24  1  0
 24 25  1  0
 24 26  2  0
 26 27  1  0
 26 28  1  0
 28 29  1  0
 29 30  1  0
 30 31  1  0
 31 32  2  0
 32 33  1  0
 33 34  1  0
 33 35  1  0
 33 36  1  0
 36 37  2  0
 37 38  1  0
 38 39  1  0
 38 40  1  0
 38 41  1  0
 37 42  1  0
 42 43  2  0
 43 44  1  0
 44 45  1  0
 44 46  1  0
 44 47  1  0
 43 48  1  0
 48 49  1  0
 48 50  2  0
 50 51  1  0
 31 52  1  0
 52 53  1  0
 52 54  2  0
 54 55  1  0
 54 56  1  0
 56 57  1  0
 28 58  2  0
 58 59  1  0
 19 60  1  0
 60 61  1  0
 60 62  1  0
 60 63  1  0
 63 64  1  0
 63 65  1  0
 63 11  1  0
 58 22  1  0
 56 29  2  0
 50 36  1  0
M  CHG  2  23  -1  30  -1
M  END
>  <UniqueID>  (37) 
33

>  <SMILES>  (37) 
Cc1nc(C(F)(F)F)ccc1C/N=c1/cccc(-c2c/c(=N\C3CCC(NCCO)CC3)[n-]cc2Cl)[n-]1

>  <Energy>  (37) 
85.54715902965343

>  <Genealogy>  (37) 
Cc1nc(C(F)(F)F)ccc1CN=c1cccc(-c2cc(=NC3CCC(NCCO)CC3)[n-]cc2Cl)[n-]1 (protonated)
Cc1nc(C(F)(F)F)ccc1C/N=c1/cccc(-c2c/c(=N\C3CCC(NCCO)CC3)[n-]cc2Cl)[n-]1 (cis-trans isomerization)
Cc1nc(C(F)(F)F)ccc1C/N=c1/cccc(-c2c/c(=N\C3CCC(NCCO)CC3)[n-]cc2Cl)[n-]1 (3D coordinates assigned)
Cc1nc(C(F)(F)F)ccc1C/N=c1/cccc(-c2c/c(=N\C3CCC(NCCO)CC3)[n-]cc2Cl)[n-]1 (nonaromatic ring conformer: 85.54715902965343 kcal/mol)

>  <smiles>  (37) 
Cc1nc(C(F)(F)F)ccc1CN=c1cccc(-c2cc(=NC3CCC(NCCO)CC3)[nH]cc2Cl)[nH]1

>  <score_type>  (37) 
oracle

>  <origin>  (37) 
adg

>  <m_score__min__energy>  (37) 
-11.99

>  <m_primary>  (37) 
energy

$$$$
37:0
     RDKit          3D

 38 40  0  0  0  0  0  0  0  0999 V2000
   57.3060   22.0380   44.9590 C   0  0  0  0  0  0  0  0  0  0  0  0
   57.3590   23.1370   45.9780 C   0  0  0  0  0  0  0  0  0  0  0  0
   57.3250   22.8240   47.1990 O   0  0  0  0  0  0  0  0  0  0  0  0
   57.4460   24.5700   45.5860 C   0  0  0  0  0  0  0  0  0  0  0  0
   57.2950   25.6000   46.5340 C   0  0  0  0  0  0  0  0  0  0  0  0
   57.3790   26.9410   46.1470 C   0  0  0  0  0  0  0  0  0  0  0  0
   57.6010   27.2830   44.8040 C   0  0  0  0  0  0  0  0  0  0  0  0
   57.7150   28.6540   44.3860 N   0  0  0  0  0  0  0  0  0  0  0  0
   56.6660   29.6260   44.5160 C   0  0  0  0  0  0  0  0  0  0  0  0
   55.4980   29.2720   44.8320 O   0  0  0  0  0  0  0  0  0  0  0  0
   56.9290   31.0620   44.1820 C   0  0  0  0  0  0  0  0  0  0  0  0
   57.7260   31.6840   45.2370 N   0  0  0  0  0  0  0  0  0  0  0  0
   57.6170   33.0340   45.6930 C   0  0  0  0  0  0  0  0  0  0  0  0
   56.6420   33.7910   45.4410 O   0  0  0  0  0  0  0  0  0  0  0  0
   58.8040   33.4040   46.4550 C   0  0  0  0  0  0  0  0  0  0  0  0
   59.1440   34.5980   47.0900 C   0  0  0  0  0  0  0  0  0  0  0  0
   60.3870   34.6650   47.7440 C   0  0  0  0  0  0  0  0  0  0  0  0
   61.2570   33.5530   47.7460 C   0  0  0  0  0  0  0  0  0  0  0  0
   60.8920   32.3610   47.0950 C   0  0  0  0  0  0  0  0  0  0  0  0
   59.6530   32.3170   46.4580 C   0  0  0  0  0  0  0  0  0  0  0  0
   59.0100   31.2530   45.6970 C   0  0  0  0  0  0  0  0  0  0  0  0
   59.5060   30.1200   45.4570 O   0  0  0  0  0  0  0  0  0  0  0  0
   57.7770   26.2600   43.8620 C   0  0  0  0  0  0  0  0  0  0  0  0
   57.6920   24.9190   44.2450 C   0  0  0  0  0  0  0  0  0  0  0  0
   57.2591   21.0654   45.4708 H   0  0  0  0  0  0  0  0  0  0  0  0
   56.4129   22.1645   44.3294 H   0  0  0  0  0  0  0  0  0  0  0  0
   58.2071   22.0780   44.3294 H   0  0  0  0  0  0  0  0  0  0  0  0
   57.1093   25.3475   47.5884 H   0  0  0  0  0  0  0  0  0  0  0  0
   57.2702   27.7343   46.9012 H   0  0  0  0  0  0  0  0  0  0  0  0
   58.5800   28.9370   43.8720 H   0  0  0  0  0  0  0  0  0  0  0  0
   57.4768   31.1198   43.2299 H   0  0  0  0  0  0  0  0  0  0  0  0
   55.9698   31.5932   44.0942 H   0  0  0  0  0  0  0  0  0  0  0  0
   58.4613   35.4604   47.0796 H   0  0  0  0  0  0  0  0  0  0  0  0
   60.6839   35.5910   48.2581 H   0  0  0  0  0  0  0  0  0  0  0  0
   62.2271   33.6194   48.2603 H   0  0  0  0  0  0  0  0  0  0  0  0
   61.5638   31.4900   47.0887 H   0  0  0  0  0  0  0  0  0  0  0  0
   57.9838   26.5152   42.8122 H   0  0  0  0  0  0  0  0  0  0  0  0
   57.8186   24.1282   43.4909 H   0  0  0  0  0  0  0  0  0  0  0  0
  1  2  1  0
  2  3  2  0
  2  4  1  0
  4  5  2  0
  5  6  1  0
  6  7  2  0
  7  8  1  0
  8  9  1  0
  9 10  2  0
  9 11  1  0
 11 12  1  0
 12 13  1  0
 13 14  2  0
 13 15  1  0
 15 16  2  0
 16 17  1  0
 17 18  2  0
 18 19  1  0
 19 20  2  0
 20 21  1  0
 21 22  2  0
  7 23  1  0
 23 24  2  0
 24  4  1  0
 21 12  1  0
 20 15  1  0
  1 25  1  0
  1 26  1  0
  1 27  1  0
  5 28  1  0
  6 29  1  0
  8 30  1  0
 11 31  1  0
 11 32  1  0
 16 33  1  0
 17 34  1  0
 18 35  1  0
 19 36  1  0
 23 37  1  0
 24 38  1  0
M  END
>  <UniqueID>  (38) 
34

>  <SMILES>  (38) 
CC(=O)c1ccc(NC(=O)CN2C(=O)c3ccccc3C2=O)cc1

>  <Energy>  (38) 
73.72391146909901

>  <Genealogy>  (38) 
CC(=O)c1ccc(NC(=O)CN2C(=O)c3ccccc3C2=O)cc1 (3D coordinates assigned)
CC(=O)c1ccc(NC(=O)CN2C(=O)c3ccccc3C2=O)cc1 (nonaromatic ring conformer: 73.72391146909901 kcal/mol)

>  <smiles>  (38) 
CC(=O)c1ccc(NC(=O)CN2C(=O)c3ccccc3C2=O)cc1

>  <score_type>  (38) 
oracle

>  <origin>  (38) 
adg

>  <m_score__min__energy>  (38) 
-8.1400000000000006

>  <m_primary>  (38) 
energy

$$$$
38:0
     RDKit          3D

 31 32  0  0  0  0  0  0  0  0999 V2000
   54.1460   25.0760   45.6070 C   0  0  0  0  0  0  0  0  0  0  0  0
   54.7960   26.2900   45.9670 O   0  0  0  0  0  0  0  0  0  0  0  0
   56.1840   26.4410   46.1100 C   0  0  0  0  0  0  0  0  0  0  0  0
   56.9710   25.4730   46.7670 C   0  0  0  0  0  0  0  0  0  0  0  0
   58.3590   25.6230   46.8430 C   0  0  0  0  0  0  0  0  0  0  0  0
   58.9770   26.7290   46.2590 C   0  0  0  0  0  0  0  0  0  0  0  0
   58.2070   27.6980   45.6120 C   0  0  0  0  0  0  0  0  0  0  0  0
   56.8130   27.5800   45.5590 C   0  0  0  0  0  0  0  0  0  0  0  0
   56.0650   28.5950   44.8760 N   0  0  0  0  0  0  0  0  0  0  0  0
   56.3730   29.9940   44.8730 C   0  0  0  0  0  0  0  0  0  0  0  0
   55.5180   30.8030   44.4260 O   0  0  0  0  0  0  0  0  0  0  0  0
   57.6470   30.4700   45.3380 N   0  0  0  0  0  0  0  0  0  0  0  0
   57.9460   31.8670   45.4590 C   0  0  0  0  0  0  0  0  0  0  0  0
   58.2110   32.3990   46.7290 C   0  0  0  0  0  0  0  0  0  0  0  0
   58.5060   33.7570   46.8770 C   0  0  0  0  0  0  0  0  0  0  0  0
   58.5540   34.5890   45.7570 C   0  0  0  0  0  0  0  0  0  0  0  0
   58.3200   34.0620   44.4840 C   0  0  0  0  0  0  0  0  0  0  0  0
   58.0220   32.7030   44.3250 C   0  0  0  0  0  0  0  0  0  0  0  0
   57.8280   32.0650   42.6980 Cl  0  0  0  0  0  0  0  0  0  0  0  0
   53.8547   24.5320   46.5176 H   0  0  0  0  0  0  0  0  0  0  0  0
   53.2487   25.3028   45.0126 H   0  0  0  0  0  0  0  0  0  0  0  0
   54.8323   24.4549   45.0126 H   0  0  0  0  0  0  0  0  0  0  0  0
   56.4902   24.5947   47.2224 H   0  0  0  0  0  0  0  0  0  0  0  0
   58.9650   24.8674   47.3644 H   0  0  0  0  0  0  0  0  0  0  0  0
   60.0705   26.8378   46.3081 H   0  0  0  0  0  0  0  0  0  0  0  0
   58.6998   28.5609   45.1402 H   0  0  0  0  0  0  0  0  0  0  0  0
   58.3260   29.7930   45.7510 H   0  0  0  0  0  0  0  0  0  0  0  0
   58.1866   31.7445   47.6128 H   0  0  0  0  0  0  0  0  0  0  0  0
   58.7007   34.1709   47.8774 H   0  0  0  0  0  0  0  0  0  0  0  0
   58.7761   35.6597   45.8765 H   0  0  0  0  0  0  0  0  0  0  0  0
   58.3702   34.7180   43.6025 H   0  0  0  0  0  0  0  0  0  0  0  0
  1  2  1  0
  2  3  1  0
  3  4  2  0
  4  5  1  0
  5  6  2  0
  6  7  1  0
  7  8  2  0
  8  9  1  0
  9 10  1  0
 10 11  2  0
 10 12  1  0
 12 13  1  0
 13 14  2  0
 14 15  1  0
 15 16  2  0
 16 17  1  0
 17 18  2  0
 18 19  1  0
  8  3  1  0
 18 13  1  0
  1 20  1  0
  1 21  1  0
  1 22  1  0
  4 23  1  0
  5 24  1  0
  6 25  1  0
  7 26  1  0
 12 27  1  0
 14 28  1  0
 15 29  1  0
 16 30  1  0
 17 31  1  0
M  CHG  1   9  -1
M  END
>  <UniqueID>  (39) 
35

>  <SMILES>  (39) 
COc1ccccc1[N-]C(=O)Nc1ccccc1Cl

>  <Energy>  (39) 
42.39154385040017

>  <Genealogy>  (39) 
COc1ccccc1[N-]C(=O)Nc1ccccc1Cl (protonated)
COc1ccccc1[N-]C(=O)Nc1ccccc1Cl (3D coordinates assigned)
COc1ccccc1[N-]C(=O)Nc1ccccc1Cl (optimized conformer: 42.39154385040017 kcal/mol)

>  <smiles>  (39) 
COc1ccccc1NC(=O)Nc1ccccc1Cl

>  <score_type>  (39) 
oracle

>  <origin>  (39) 
adg

>  <m_score__min__energy>  (39) 
-9.4000000000000004

>  <m_primary>  (39) 
energy

$$$$
39:0
     RDKit          3D

 45 47  0  0  0  0  0  0  0  0999 V2000
   57.8360   32.7020   46.8770 C   0  0  0  0  0  0  0  0  0  0  0  0
   57.7770   32.1020   45.5140 C   0  0  0  0  0  0  0  0  0  0  0  0
   57.2130   30.9050   45.2490 N   0  0  0  0  0  0  0  0  0  0  0  0
   57.2240   30.6190   43.9180 C   0  0  0  0  0  0  0  0  0  0  0  0
   56.6570   29.3360   43.3840 C   0  0  0  0  0  0  0  0  0  0  0  0
   57.4380   28.1790   43.8510 N   0  0  0  0  0  0  0  0  0  0  0  0
   58.0830   27.3070   42.8620 C   0  0  0  0  0  0  0  0  0  0  0  0
   57.6030   27.8680   45.2570 C   0  0  0  0  0  0  0  0  0  0  0  0
   56.5810   27.7950   45.9940 O   0  0  0  0  0  0  0  0  0  0  0  0
   58.9580   27.5560   45.8710 C   0  0  0  0  0  0  0  0  0  0  0  0
   60.1020   28.3080   45.1370 C   0  0  0  0  0  0  0  0  0  0  0  0
   60.3890   29.6980   45.7260 C   0  0  0  0  0  0  0  0  0  0  0  0
   60.5150   29.6580   47.1930 N   0  0  0  0  0  0  0  0  0  0  0  0
   60.6400   30.8910   47.9240 C   0  0  0  0  0  0  0  0  0  0  0  0
   59.8840   31.1110   48.9100 O   0  0  0  0  0  0  0  0  0  0  0  0
   61.6230   31.9190   47.5410 C   0  0  0  0  0  0  0  0  0  0  0  0
   61.3720   33.0700   46.8030 C   0  0  0  0  0  0  0  0  0  0  0  0
   62.5220   33.8340   46.5620 C   0  0  0  0  0  0  0  0  0  0  0  0
   63.6820   33.2810   47.0910 C   0  0  0  0  0  0  0  0  0  0  0  0
   63.2740   31.8420   47.8580 S   0  0  0  0  0  0  0  0  0  0  0  0
   60.2400   28.4070   47.9110 C   0  0  0  0  0  0  0  0  0  0  0  0
   58.9270   27.8150   47.4000 C   0  0  0  0  0  0  0  0  0  0  0  0
   57.8060   31.5960   43.1110 C   0  0  0  0  0  0  0  0  0  0  0  0
   58.2960   32.8610   44.1050 S   0  0  0  0  0  0  0  0  0  0  0  0
   57.7577   31.9057   47.6318 H   0  0  0  0  0  0  0  0  0  0  0  0
   58.7908   33.2337   47.0026 H   0  0  0  0  0  0  0  0  0  0  0  0
   57.0031   33.4095   47.0026 H   0  0  0  0  0  0  0  0  0  0  0  0
   55.6177   29.2311   43.7287 H   0  0  0  0  0  0  0  0  0  0  0  0
   56.6977   29.3656   42.2851 H   0  0  0  0  0  0  0  0  0  0  0  0
   58.6597   26.5274   43.3813 H   0  0  0  0  0  0  0  0  0  0  0  0
   57.3143   26.8360   42.2318 H   0  0  0  0  0  0  0  0  0  0  0  0
   58.7584   27.9042   42.2318 H   0  0  0  0  0  0  0  0  0  0  0  0
   59.1765   26.4866   45.7345 H   0  0  0  0  0  0  0  0  0  0  0  0
   61.0183   27.7033   45.2059 H   0  0  0  0  0  0  0  0  0  0  0  0
   59.7807   28.4547   44.0953 H   0  0  0  0  0  0  0  0  0  0  0  0
   61.3286   30.0781   45.2987 H   0  0  0  0  0  0  0  0  0  0  0  0
   59.5440   30.3558   45.4744 H   0  0  0  0  0  0  0  0  0  0  0  0
   60.3713   33.3527   46.4442 H   0  0  0  0  0  0  0  0  0  0  0  0
   62.5077   34.7830   46.0059 H   0  0  0  0  0  0  0  0  0  0  0  0
   64.6922   33.7105   47.0201 H   0  0  0  0  0  0  0  0  0  0  0  0
   61.0587   27.6938   47.7350 H   0  0  0  0  0  0  0  0  0  0  0  0
   60.1606   28.6086   48.9894 H   0  0  0  0  0  0  0  0  0  0  0  0
   58.7429   26.8618   47.9173 H   0  0  0  0  0  0  0  0  0  0  0  0
   58.1266   28.5416   47.6037 H   0  0  0  0  0  0  0  0  0  0  0  0
   57.9237   31.5479   42.0184 H   0  0  0  0  0  0  0  0  0  0  0  0
  1  2  1  0
  2  3  2  0
  3  4  1  0
  4  5  1  0
  5  6  1  0
  6  7  1  0
  6  8  1  0
  8  9  2  0
  8 10  1  0
 10 11  1  0
 11 12  1  0
 12 13  1  0
 13 14  1  0
 14 15  2  0
 14 16  1  0
 16 17  2  0
 17 18  1  0
 18 19  2  0
 19 20  1  0
 13 21  1  0
 21 22  1  0
  4 23  2  0
 23 24  1  0
 24  2  1  0
 22 10  1  0
 20 16  1  0
  1 25  1  0
  1 26  1  0
  1 27  1  0
  5 28  1  0
  5 29  1  0
  7 30  1  0
  7 31  1  0
  7 32  1  0
 10 33  1  0
 11 34  1  0
 11 35  1  0
 12 36  1  0
 12 37  1  0
 17 38  1  0
 18 39  1  0
 19 40  1  0
 21 41  1  0
 21 42  1  0
 22 43  1  0
 22 44  1  0
 23 45  1  0
M  END
>  <UniqueID>  (40) 
36

>  <SMILES>  (40) 
Cc1nc(CN(C)C(=O)C2CCN(C(=O)c3cccs3)CC2)cs1

>  <Energy>  (40) 
104.38501908602291

>  <Genealogy>  (40) 
Cc1nc(CN(C)C(=O)C2CCN(C(=O)c3cccs3)CC2)cs1 (3D coordinates assigned)
Cc1nc(CN(C)C(=O)C2CCN(C(=O)c3cccs3)CC2)cs1 (nonaromatic ring conformer: 104.38501908602291 kcal/mol)

>  <smiles>  (40) 
Cc1nc(CN(C)C(=O)C2CCN(C(=O)c3cccs3)CC2)cs1

>  <score_type>  (40) 
oracle

>  <origin>  (40) 
adg

>  <m_score__min__energy>  (40) 
-7.9900000000000002

>  <m_primary>  (40) 
energy

$$$$
40:0
     RDKit          3D

 51 54  0  0  0  0  0  0  0  0999 V2000
   63.5040   32.9440   47.4650 C   0  0  0  0  0  0  0  0  0  0  0  0
   63.4980   32.4290   48.7800 O   0  0  0  0  0  0  0  0  0  0  0  0
   64.3780   32.9490   49.7320 C   0  0  0  0  0  0  0  0  0  0  0  0
   65.7050   32.6020   49.7740 C   0  0  0  0  0  0  0  0  0  0  0  0
   66.5170   33.1520   50.7370 C   0  0  0  0  0  0  0  0  0  0  0  0
   65.9850   34.0460   51.6520 C   0  0  0  0  0  0  0  0  0  0  0  0
   64.6510   34.4070   51.6250 C   0  0  0  0  0  0  0  0  0  0  0  0
   63.8130   33.8530   50.6470 C   0  0  0  0  0  0  0  0  0  0  0  0
   62.5110   34.1560   50.5830 N   0  0  0  0  0  0  0  0  0  0  0  0
   61.3860   33.8350   50.2140 C   0  0  0  0  0  0  0  0  0  0  0  0
   60.6200   33.0960   51.0770 N   0  0  0  0  0  0  0  0  0  0  0  0
   59.3930   32.6990   50.7430 C   0  0  0  0  0  0  0  0  0  0  0  0
   58.6730   31.9320   51.7120 N   0  0  0  0  0  0  0  0  0  0  0  0
   57.3960   32.3480   52.2340 C   0  0  0  0  0  0  0  0  0  0  0  0
   56.3930   31.2840   51.9320 C   0  0  0  0  0  0  0  0  0  0  0  0
   56.9460   30.0630   51.6310 O   0  0  0  0  0  0  0  0  0  0  0  0
   58.0590   29.7190   52.3670 C   0  0  0  0  0  0  0  0  0  0  0  0
   59.2200   30.6670   52.2230 C   0  0  0  0  0  0  0  0  0  0  0  0
   58.8830   33.0200   49.5470 N   0  0  0  0  0  0  0  0  0  0  0  0
   59.5820   33.7350   48.6670 C   0  0  0  0  0  0  0  0  0  0  0  0
   58.9670   34.0390   47.4160 N   0  0  0  0  0  0  0  0  0  0  0  0
   57.7200   33.4440   46.9970 C   0  0  0  0  0  0  0  0  0  0  0  0
   57.8720   33.0810   45.5340 C   0  0  0  0  0  0  0  0  0  0  0  0
   58.0370   34.2750   44.8460 O   0  0  0  0  0  0  0  0  0  0  0  0
   59.2270   34.9080   45.1110 C   0  0  0  0  0  0  0  0  0  0  0  0
   59.6280   34.9640   46.5460 C   0  0  0  0  0  0  0  0  0  0  0  0
   60.8110   34.1280   49.0140 N   0  0  0  0  0  0  0  0  0  0  0  0
   63.5168   34.0433   47.5018 H   0  0  0  0  0  0  0  0  0  0  0  0
   64.3980   32.5844   46.9345 H   0  0  0  0  0  0  0  0  0  0  0  0
   62.6019   32.6054   46.9345 H   0  0  0  0  0  0  0  0  0  0  0  0
   66.1154   31.8897   49.0431 H   0  0  0  0  0  0  0  0  0  0  0  0
   67.5829   32.8839   50.7810 H   0  0  0  0  0  0  0  0  0  0  0  0
   66.6417   34.4800   52.4204 H   0  0  0  0  0  0  0  0  0  0  0  0
   64.2519   35.1199   52.3615 H   0  0  0  0  0  0  0  0  0  0  0  0
   57.4686   32.4917   53.3221 H   0  0  0  0  0  0  0  0  0  0  0  0
   57.0900   33.2976   51.7708 H   0  0  0  0  0  0  0  0  0  0  0  0
   55.7431   31.1620   52.8111 H   0  0  0  0  0  0  0  0  0  0  0  0
   55.8410   31.6118   51.0388 H   0  0  0  0  0  0  0  0  0  0  0  0
   57.7722   29.6857   53.4284 H   0  0  0  0  0  0  0  0  0  0  0  0
   58.3998   28.7462   51.9829 H   0  0  0  0  0  0  0  0  0  0  0  0
   59.7004   30.8288   53.1992 H   0  0  0  0  0  0  0  0  0  0  0  0
   59.9799   30.2603   51.5395 H   0  0  0  0  0  0  0  0  0  0  0  0
   57.9170   32.6860   49.3290 H   0  0  0  0  0  0  0  0  0  0  0  0
   57.5138   32.5413   47.5908 H   0  0  0  0  0  0  0  0  0  0  0  0
   56.8830   34.1426   47.1432 H   0  0  0  0  0  0  0  0  0  0  0  0
   58.7517   32.4361   45.3921 H   0  0  0  0  0  0  0  0  0  0  0  0
   56.9934   32.5295   45.1680 H   0  0  0  0  0  0  0  0  0  0  0  0
   60.0195   34.3808   44.5597 H   0  0  0  0  0  0  0  0  0  0  0  0
   59.0844   35.9535   44.8002 H   0  0  0  0  0  0  0  0  0  0  0  0
   60.7086   34.7662   46.6020 H   0  0  0  0  0  0  0  0  0  0  0  0
   59.3363   35.9645   46.8980 H   0  0  0  0  0  0  0  0  0  0  0  0
  1  2  1  0
  2  3  1  0
  3  4  2  0
  4  5  1  0
  5  6  2  0
  6  7  1  0
  7  8  2  0
  8  9  1  0
  9 10  2  3
 10 11  1  0
 11 12  2  0
 12 13  1  0
 13 14  1  0
 14 15  1  0
 15 16  1  0
 16 17  1  0
 17 18  1  0
 12 19  1  0
 19 20  1  0
 20 21  1  0
 21 22  1  0
 22 23  1  0
 23 24  1  0
 24 25  1  0
 25 26  1  0
 20 27  2  0
  8  3  1  0
 27 10  1  0
 18 13  1  0
 26 21  1  0
  1 28  1  0
  1 29  1  0
  1 30  1  0
  4 31  1  0
  5 32  1  0
  6 33  1  0
  7 34  1  0
 14 35  1  0
 14 36  1  0
 15 37  1  0
 15 38  1  0
 17 39  1  0
 17 40  1  0
 18 41  1  0
 18 42  1  0
 19 43  1  0
 22 44  1  0
 22 45  1  0
 23 46  1  0
 23 47  1  0
 25 48  1  0
 25 49  1  0
 26 50  1  0
 26 51  1  0
M  END
>  <smiles>  (41) 
COc1ccccc1N=c1nc(N2CCOCC2)[nH]c(N2CCOCC2)n1

>  <score_type>  (41) 
oracle

>  <origin>  (41) 
adg

>  <m_score__min__energy>  (41) 
-6.8399999999999999

>  <m_primary>  (41) 
energy

$$$$
41:0
     RDKit          3D

 33 34  0  0  0  0  0  0  0  0999 V2000
   59.3880   34.4240   48.0820 C   0  0  0  0  0  0  0  0  0  0  0  0
   58.8690   34.9760   46.8270 N   0  0  0  0  0  0  0  0  0  0  0  0
   59.9400   35.5070   45.9800 C   0  0  0  0  0  0  0  0  0  0  0  0
   57.8640   33.8180   45.9760 S   0  0  0  0  0  0  0  0  0  0  0  0
   56.8440   33.2600   46.9310 O   0  0  0  0  0  0  0  0  0  0  0  0
   57.1180   34.5630   44.9050 O   0  0  0  0  0  0  0  0  0  0  0  0
   58.7080   32.4730   45.2320 N   0  0  0  0  0  0  0  0  0  0  0  0
   59.4780   31.6270   46.1550 C   0  0  0  0  0  0  0  0  0  0  0  0
   58.0260   31.8070   44.1030 C   0  0  0  0  0  0  0  0  0  0  0  0
   57.2040   30.6070   44.4930 C   0  0  0  0  0  0  0  0  0  0  0  0
   55.8560   30.6060   44.5380 N   0  0  0  0  0  0  0  0  0  0  0  0
   55.5360   29.4170   44.9460 O   0  0  0  0  0  0  0  0  0  0  0  0
   56.6230   28.7180   45.1530 C   0  0  0  0  0  0  0  0  0  0  0  0
   56.6300   27.3270   45.6150 C   0  0  0  0  0  0  0  0  0  0  0  0
   57.7420   26.5180   45.7330 C   0  0  0  0  0  0  0  0  0  0  0  0
   57.2710   25.3080   46.1950 C   0  0  0  0  0  0  0  0  0  0  0  0
   55.9040   25.4550   46.3300 C   0  0  0  0  0  0  0  0  0  0  0  0
   55.5530   26.6700   45.9750 O   0  0  0  0  0  0  0  0  0  0  0  0
   57.7340   29.4320   44.8900 N   0  0  0  0  0  0  0  0  0  0  0  0
   58.9096   34.9328   48.9319 H   0  0  0  0  0  0  0  0  0  0  0  0
   59.1676   33.3473   48.1279 H   0  0  0  0  0  0  0  0  0  0  0  0
   60.4762   34.5777   48.1279 H   0  0  0  0  0  0  0  0  0  0  0  0
   60.7452   35.9062   46.6142 H   0  0  0  0  0  0  0  0  0  0  0  0
   60.3384   34.7021   45.3449 H   0  0  0  0  0  0  0  0  0  0  0  0
   59.5405   36.3114   45.3449 H   0  0  0  0  0  0  0  0  0  0  0  0
   59.2317   31.8976   47.1924 H   0  0  0  0  0  0  0  0  0  0  0  0
   59.2250   30.5706   45.9817 H   0  0  0  0  0  0  0  0  0  0  0  0
   60.5535   31.7797   45.9817 H   0  0  0  0  0  0  0  0  0  0  0  0
   57.3598   32.5392   43.6233 H   0  0  0  0  0  0  0  0  0  0  0  0
   58.8161   31.4411   43.4308 H   0  0  0  0  0  0  0  0  0  0  0  0
   58.7851   26.7833   45.5060 H   0  0  0  0  0  0  0  0  0  0  0  0
   57.8637   24.4072   46.4123 H   0  0  0  0  0  0  0  0  0  0  0  0
   55.2143   24.6734   46.6814 H   0  0  0  0  0  0  0  0  0  0  0  0
  1  2  1  0
  2  3  1  0
  2  4  1  0
  4  5  2  0
  4  6  2  0
  4  7  1  0
  7  8  1  0
  7  9  1  0
  9 10  1  0
 10 11  2  0
 11 12  1  0
 12 13  1  0
 13 14  1  0
 14 15  2  0
 15 16  1  0
 16 17  2  0
 17 18  1  0
 13 19  2  0
 19 10  1  0
 18 14  1  0
  1 20  1  0
  1 21  1  0
  1 22  1  0
  3 23  1  0
  3 24  1  0
  3 25  1  0
  8 26  1  0
  8 27  1  0
  8 28  1  0
  9 29  1  0
  9 30  1  0
 15 31  1  0
 16 32  1  0
 17 33  1  0
M  END
>  <UniqueID>  (42) 
37

>  <SMILES>  (42) 
CN(C)S(=O)(=O)N(C)Cc1noc(-c2ccco2)n1

>  <Energy>  (42) 
98.42133168302976

>  <Genealogy>  (42) 
CN(C)S(=O)(=O)N(C)Cc1noc(-c2ccco2)n1 (3D coordinates assigned)
CN(C)S(=O)(=O)N(C)Cc1noc(-c2ccco2)n1 (optimized conformer: 98.42133168302976 kcal/mol)

>  <smiles>  (42) 
CN(C)S(=O)(=O)N(C)Cc1noc(-c2ccco2)n1

>  <score_type>  (42) 
oracle

>  <origin>  (42) 
adg

>  <m_score__min__energy>  (42) 
-7.6500000000000004

>  <m_primary>  (42) 
energy

$$$$
42:0
     RDKit          3D

 41 43  0  0  0  0  0  0  0  0999 V2000
   55.9180   29.7160   42.9880 C   0  0  0  0  0  0  0  0  0  0  0  0
   55.9140   29.2700   44.3410 O   0  0  0  0  0  0  0  0  0  0  0  0
   56.9780   29.4480   45.2370 C   0  0  0  0  0  0  0  0  0  0  0  0
   57.4620   28.4060   46.0500 C   0  0  0  0  0  0  0  0  0  0  0  0
   58.5260   28.6340   46.9290 C   0  0  0  0  0  0  0  0  0  0  0  0
   59.1220   29.9020   47.0100 C   0  0  0  0  0  0  0  0  0  0  0  0
   60.2470   30.1470   47.9350 C   0  0  0  0  0  0  0  0  0  0  0  0
   61.3150   30.9160   47.6280 N   0  0  0  0  0  0  0  0  0  0  0  0
   62.0650   30.8550   48.7440 C   0  0  0  0  0  0  0  0  0  0  0  0
   63.3580   31.5950   48.9300 C   0  0  0  0  0  0  0  0  0  0  0  0
   63.7610   32.3170   47.7090 N   0  0  0  0  0  0  0  0  0  0  0  0
   63.3530   33.7340   47.6970 C   0  0  0  0  0  0  0  0  0  0  0  0
   61.8650   33.8990   47.5000 C   0  0  0  0  0  0  0  0  0  0  0  0
   61.3120   33.8420   46.2090 C   0  0  0  0  0  0  0  0  0  0  0  0
   59.9320   33.9750   46.0270 C   0  0  0  0  0  0  0  0  0  0  0  0
   59.0950   34.1670   47.1300 C   0  0  0  0  0  0  0  0  0  0  0  0
   57.7570   34.2960   46.9510 F   0  0  0  0  0  0  0  0  0  0  0  0
   59.6370   34.2250   48.4170 C   0  0  0  0  0  0  0  0  0  0  0  0
   61.0160   34.0910   48.6030 C   0  0  0  0  0  0  0  0  0  0  0  0
   61.4340   30.0720   49.6840 C   0  0  0  0  0  0  0  0  0  0  0  0
   60.3160   29.6470   49.1510 O   0  0  0  0  0  0  0  0  0  0  0  0
   58.6380   30.9390   46.1970 C   0  0  0  0  0  0  0  0  0  0  0  0
   57.5740   30.7110   45.3200 C   0  0  0  0  0  0  0  0  0  0  0  0
   55.9279   30.8157   42.9645 H   0  0  0  0  0  0  0  0  0  0  0  0
   56.8127   29.3303   42.4774 H   0  0  0  0  0  0  0  0  0  0  0  0
   55.0165   29.3464   42.4774 H   0  0  0  0  0  0  0  0  0  0  0  0
   57.0018   27.4085   45.9940 H   0  0  0  0  0  0  0  0  0  0  0  0
   58.8980   27.8140   47.5609 H   0  0  0  0  0  0  0  0  0  0  0  0
   63.2377   32.3203   49.7482 H   0  0  0  0  0  0  0  0  0  0  0  0
   64.1409   30.8584   49.1636 H   0  0  0  0  0  0  0  0  0  0  0  0
   64.8020   32.2670   47.6100 H   0  0  0  0  0  0  0  0  0  0  0  0
   63.3480   31.8290   46.8790 H   0  0  0  0  0  0  0  0  0  0  0  0
   63.6360   34.1920   48.6563 H   0  0  0  0  0  0  0  0  0  0  0  0
   63.8611   34.2239   46.8533 H   0  0  0  0  0  0  0  0  0  0  0  0
   61.9675   33.6922   45.3384 H   0  0  0  0  0  0  0  0  0  0  0  0
   59.5045   33.9285   45.0145 H   0  0  0  0  0  0  0  0  0  0  0  0
   58.9777   34.3762   49.2845 H   0  0  0  0  0  0  0  0  0  0  0  0
   61.4384   34.1361   49.6176 H   0  0  0  0  0  0  0  0  0  0  0  0
   61.8011   29.8452   50.6958 H   0  0  0  0  0  0  0  0  0  0  0  0
   59.0987   31.9364   46.2505 H   0  0  0  0  0  0  0  0  0  0  0  0
   57.2019   31.5319   44.6894 H   0  0  0  0  0  0  0  0  0  0  0  0
  1  2  1  0
  2  3  1  0
  3  4  2  0
  4  5  1  0
  5  6  2  0
  6  7  1  0
  7  8  2  0
  8  9  1  0
  9 10  1  0
 10 11  1  0
 11 12  1  0
 12 13  1  0
 13 14  2  0
 14 15  1  0
 15 16  2  0
 16 17  1  0
 16 18  1  0
 18 19  2  0
  9 20  2  0
 20 21  1  0
  6 22  1  0
 22 23  2  0
 23  3  1  0
 21  7  1  0
 19 13  1  0
  1 24  1  0
  1 25  1  0
  1 26  1  0
  4 27  1  0
  5 28  1  0
 10 29  1  0
 10 30  1  0
 11 31  1  0
 11 32  1  0
 12 33  1  0
 12 34  1  0
 14 35  1  0
 15 36  1  0
 18 37  1  0
 19 38  1  0
 20 39  1  0
 22 40  1  0
 23 41  1  0
M  CHG  1  11   1
M  END
>  <UniqueID>  (43) 
38

>  <SMILES>  (43) 
COc1ccc(-c2nc(C[NH2+]Cc3ccc(F)cc3)co2)cc1

>  <Energy>  (43) 
71.37471406812182

>  <Genealogy>  (43) 
COc1ccc(-c2nc(C[NH2+]Cc3ccc(F)cc3)co2)cc1 (protonated)
COc1ccc(-c2nc(C[NH2+]Cc3ccc(F)cc3)co2)cc1 (3D coordinates assigned)
COc1ccc(-c2nc(C[NH2+]Cc3ccc(F)cc3)co2)cc1 (optimized conformer: 71.37471406812182 kcal/mol)

>  <smiles>  (43) 
COc1ccc(-c2nc(CNCc3ccc(F)cc3)co2)cc1

>  <score_type>  (43) 
oracle

>  <origin>  (43) 
adg

>  <m_score__min__energy>  (43) 
-5.2199999999999998

>  <m_primary>  (43) 
energy

$$$$
43:0
     RDKit          3D

 41 44  0  0  0  0  0  0  0  0999 V2000
   57.6740   31.7470   43.9180 C   0  0  0  0  0  0  0  0  0  0  0  0
   57.7340   31.3100   45.2440 C   0  0  0  0  0  0  0  0  0  0  0  0
   58.2440   32.1510   46.2380 C   0  0  0  0  0  0  0  0  0  0  0  0
   58.6940   33.4420   45.9090 C   0  0  0  0  0  0  0  0  0  0  0  0
   59.2730   34.3430   46.9700 C   0  0  0  0  0  0  0  0  0  0  0  0
   60.0350   33.5450   48.0510 C   0  0  2  0  0  0  0  0  0  0  0  0
   59.6620   34.0360   49.4800 C   0  0  0  0  0  0  0  0  0  0  0  0
   60.6170   33.5690   50.5140 N   0  0  0  0  0  0  0  0  0  0  0  0
   60.5830   32.0990   50.6790 C   0  0  0  0  0  0  0  0  0  0  0  0
   59.2130   31.6550   51.0910 C   0  0  0  0  0  0  0  0  0  0  0  0
   58.3300   32.3420   51.8960 C   0  0  0  0  0  0  0  0  0  0  0  0
   57.1990   31.5540   51.9560 C   0  0  0  0  0  0  0  0  0  0  0  0
   57.3740   30.4670   51.2380 O   0  0  0  0  0  0  0  0  0  0  0  0
   58.5740   30.4970   50.7020 C   0  0  0  0  0  0  0  0  0  0  0  0
   61.9850   34.0770   50.2550 C   0  0  0  0  0  0  0  0  0  0  0  0
   62.3800   33.8430   48.8300 C   0  0  0  0  0  0  0  0  0  0  0  0
   63.6450   33.7750   48.2970 C   0  0  0  0  0  0  0  0  0  0  0  0
   63.5450   33.5090   46.9760 N   0  0  0  0  0  0  0  0  0  0  0  0
   62.2160   33.4350   46.7420 C   0  0  0  0  0  0  0  0  0  0  0  0
   61.4840   33.6640   47.8530 N   0  0  0  0  0  0  0  0  0  0  0  0
   58.6370   33.8710   44.5720 C   0  0  0  0  0  0  0  0  0  0  0  0
   58.1250   33.0270   43.5830 C   0  0  0  0  0  0  0  0  0  0  0  0
   57.2719   31.0838   43.1379 H   0  0  0  0  0  0  0  0  0  0  0  0
   57.3793   30.3024   45.5064 H   0  0  0  0  0  0  0  0  0  0  0  0
   58.2933   31.8018   47.2799 H   0  0  0  0  0  0  0  0  0  0  0  0
   59.9679   35.0510   46.4947 H   0  0  0  0  0  0  0  0  0  0  0  0
   58.4414   34.8712   47.4593 H   0  0  0  0  0  0  0  0  0  0  0  0
   59.7408   32.4895   47.9546 H   0  0  0  0  0  0  0  0  0  0  0  0
   59.6512   35.1359   49.4823 H   0  0  0  0  0  0  0  0  0  0  0  0
   58.6748   33.6185   49.7272 H   0  0  0  0  0  0  0  0  0  0  0  0
   60.8482   31.6203   49.7248 H   0  0  0  0  0  0  0  0  0  0  0  0
   61.3032   31.8091   51.4583 H   0  0  0  0  0  0  0  0  0  0  0  0
   58.4926   33.3130   52.3867 H   0  0  0  0  0  0  0  0  0  0  0  0
   56.2871   31.7989   52.5204 H   0  0  0  0  0  0  0  0  0  0  0  0
   59.0001   29.7221   50.0478 H   0  0  0  0  0  0  0  0  0  0  0  0
   62.0141   35.1565   50.4643 H   0  0  0  0  0  0  0  0  0  0  0  0
   62.6891   33.5403   50.9079 H   0  0  0  0  0  0  0  0  0  0  0  0
   64.5835   33.9141   48.8537 H   0  0  0  0  0  0  0  0  0  0  0  0
   61.7797   33.2131   45.7569 H   0  0  0  0  0  0  0  0  0  0  0  0
   58.9968   34.8751   44.3030 H   0  0  0  0  0  0  0  0  0  0  0  0
   58.0768   33.3704   42.5391 H   0  0  0  0  0  0  0  0  0  0  0  0
  1  2  2  0
  2  3  1  0
  3  4  2  0
  4  5  1  0
  5  6  1  0
  6  7  1  0
  7  8  1  0
  8  9  1  0
  9 10  1  0
 10 11  1  0
 11 12  2  0
 12 13  1  0
 13 14  1  0
  8 15  1  0
 15 16  1  0
 16 17  2  0
 17 18  1  0
 18 19  2  0
 19 20  1  0
  4 21  1  0
 21 22  2  0
 22  1  1  0
 20  6  1  0
 14 10  2  0
 20 16  1  0
  1 23  1  0
  2 24  1  0
  3 25  1  0
  5 26  1  0
  5 27  1  0
  6 28  1  1
  7 29  1  0
  7 30  1  0
  9 31  1  0
  9 32  1  0
 11 33  1  0
 12 34  1  0
 14 35  1  0
 15 36  1  0
 15 37  1  0
 17 38  1  0
 19 39  1  0
 21 40  1  0
 22 41  1  0
M  END
>  <UniqueID>  (44) 
39

>  <SMILES>  (44) 
c1ccc(C[C@@H]2CN(Cc3ccoc3)Cc3cncn32)cc1

>  <Energy>  (44) 
104.45281639214564

>  <Genealogy>  (44) 
c1ccc(C[C@@H]2CN(Cc3ccoc3)Cc3cncn32)cc1 (chirality)
c1ccc(C[C@@H]2CN(Cc3ccoc3)Cc3cncn32)cc1 (3D coordinates assigned)
c1ccc(C[C@@H]2CN(Cc3ccoc3)Cc3cncn32)cc1 (nonaromatic ring conformer: 104.45281639214564 kcal/mol)

>  <smiles>  (44) 
c1ccc(CC2CN(Cc3ccoc3)Cc3cncn32)cc1

>  <score_type>  (44) 
oracle

>  <origin>  (44) 
adg

>  <m_score__min__energy>  (44) 
-6.8899999999999997

>  <m_primary>  (44) 
energy

$$$$
44:0
     RDKit          3D

 25 26  0  0  0  0  0  0  0  0999 V2000
   60.1960   31.7400   54.9910 C   0  0  0  0  0  0  0  0  0  0  0  0
   59.6420   30.6070   54.3300 O   0  0  0  0  0  0  0  0  0  0  0  0
   58.3700   30.5780   53.7390 C   0  0  0  0  0  0  0  0  0  0  0  0
   57.4240   29.6800   54.2410 C   0  0  0  0  0  0  0  0  0  0  0  0
   56.1420   29.6120   53.6870 C   0  0  0  0  0  0  0  0  0  0  0  0
   55.7820   30.4460   52.6120 C   0  0  0  0  0  0  0  0  0  0  0  0
   54.4210   30.3740   52.0230 C   0  0  0  0  0  0  0  0  0  0  0  0
   53.6370   31.4440   51.6220 C   0  0  0  0  0  0  0  0  0  0  0  0
   52.4810   30.8520   51.1530 C   0  0  0  0  0  0  0  0  0  0  0  0
   51.3110   31.5410   50.6020 C   0  0  0  0  0  0  0  0  0  0  0  0
   50.6510   32.3360   51.3210 O   0  0  0  0  0  0  0  0  0  0  0  0
   50.9240   31.3240   49.2850 O   0  0  0  0  0  0  0  0  0  0  0  0
   52.5850   29.5500   51.2770 O   0  0  0  0  0  0  0  0  0  0  0  0
   53.7360   29.2350   51.7930 N   0  0  0  0  0  0  0  0  0  0  0  0
   56.7360   31.3500   52.1100 C   0  0  0  0  0  0  0  0  0  0  0  0
   58.0160   31.4170   52.6660 C   0  0  0  0  0  0  0  0  0  0  0  0
   60.1272   31.5993   56.0798 H   0  0  0  0  0  0  0  0  0  0  0  0
   61.2513   31.8535   54.7019 H   0  0  0  0  0  0  0  0  0  0  0  0
   59.6375   32.6425   54.7019 H   0  0  0  0  0  0  0  0  0  0  0  0
   57.6906   29.0204   55.0800 H   0  0  0  0  0  0  0  0  0  0  0  0
   55.4087   28.9007   54.0948 H   0  0  0  0  0  0  0  0  0  0  0  0
   53.8793   32.5160   51.6669 H   0  0  0  0  0  0  0  0  0  0  0  0
   54.0350   28.2570   52.0000 H   0  0  0  0  0  0  0  0  0  0  0  0
   56.4715   32.0107   51.2713 H   0  0  0  0  0  0  0  0  0  0  0  0
   58.7510   32.1293   52.2629 H   0  0  0  0  0  0  0  0  0  0  0  0
  1  2  1  0
  2  3  1  0
  3  4  2  0
  4  5  1  0
  5  6  2  0
  6  7  1  0
  7  8  1  0
  8  9  2  0
  9 10  1  0
 10 11  2  0
 10 12  1  0
  9 13  1  0
 13 14  1  0
  6 15  1  0
 15 16  2  0
 16  3  1  0
 14  7  2  0
  1 17  1  0
  1 18  1  0
  1 19  1  0
  4 20  1  0
  5 21  1  0
  8 22  1  0
 14 23  1  0
 15 24  1  0
 16 25  1  0
M  CHG  2  12  -1  14   1
M  END
>  <UniqueID>  (45) 
40

>  <SMILES>  (45) 
COc1ccc(-c2cc(C(=O)[O-])o[nH+]2)cc1

>  <Energy>  (45) 
56.9706116769055

>  <Genealogy>  (45) 
COc1ccc(-c2cc(C(=O)[O-])o[nH+]2)cc1 (protonated)
COc1ccc(-c2cc(C(=O)[O-])o[nH+]2)cc1 (3D coordinates assigned)
COc1ccc(-c2cc(C(=O)[O-])o[nH+]2)cc1 (optimized conformer: 56.9706116769055 kcal/mol)

>  <smiles>  (45) 
COc1ccc(-c2cc(C(=O)O)on2)cc1

>  <score_type>  (45) 
oracle

>  <origin>  (45) 
adg

>  <m_score__min__energy>  (45) 
-7.5099999999999998

>  <m_primary>  (45) 
energy

$$$$
45:0
     RDKit          3D

 34 37  0  0  0  0  0  0  0  0999 V2000
   64.4090   32.2280   49.6850 C   0  0  0  0  0  0  0  0  0  0  0  0
   63.3430   31.3400   49.5300 O   0  0  0  0  0  0  0  0  0  0  0  0
   62.3270   31.5320   48.6340 C   0  0  0  0  0  0  0  0  0  0  0  0
   62.2560   32.7790   48.0140 C   0  0  0  0  0  0  0  0  0  0  0  0
   61.2670   33.0770   47.0890 C   0  0  0  0  0  0  0  0  0  0  0  0
   60.3150   32.1300   46.7590 C   0  0  0  0  0  0  0  0  0  0  0  0
   59.2320   32.0930   45.9110 C   0  0  0  0  0  0  0  0  0  0  0  0
   58.6960   30.8300   46.0550 C   0  0  0  0  0  0  0  0  0  0  0  0
   59.3950   30.1060   46.9400 N   0  0  0  0  0  0  0  0  0  0  0  0
   60.3860   30.8970   47.3730 C   0  0  0  0  0  0  0  0  0  0  0  0
   61.3790   30.5870   48.3040 C   0  0  0  0  0  0  0  0  0  0  0  0
   57.5270   30.3030   45.3610 C   0  0  0  0  0  0  0  0  0  0  0  0
   56.8480   29.1940   45.7090 N   0  0  0  0  0  0  0  0  0  0  0  0
   55.8510   29.0230   44.8570 N   0  0  0  0  0  0  0  0  0  0  0  0
   55.8530   30.0160   43.9300 C   0  0  0  0  0  0  0  0  0  0  0  0
   56.9000   30.8280   44.2340 C   0  0  0  0  0  0  0  0  0  0  0  0
   57.3200   32.0730   43.4960 C   0  0  0  0  0  0  0  0  0  0  0  0
   57.5010   33.1910   44.4830 C   0  0  0  0  0  0  0  0  0  0  0  0
   58.8650   33.2620   45.0910 C   0  0  0  0  0  0  0  0  0  0  0  0
   64.6005   32.3875   50.7564 H   0  0  0  0  0  0  0  0  0  0  0  0
   65.3081   31.8080   49.2104 H   0  0  0  0  0  0  0  0  0  0  0  0
   64.1584   33.1882   49.2104 H   0  0  0  0  0  0  0  0  0  0  0  0
   63.0036   33.5458   48.2651 H   0  0  0  0  0  0  0  0  0  0  0  0
   61.2396   34.0698   46.6162 H   0  0  0  0  0  0  0  0  0  0  0  0
   59.1800   29.1120   47.2170 H   0  0  0  0  0  0  0  0  0  0  0  0
   61.4049   29.5922   48.7727 H   0  0  0  0  0  0  0  0  0  0  0  0
   55.1550   28.2230   44.8990 H   0  0  0  0  0  0  0  0  0  0  0  0
   55.1458   30.1390   43.0965 H   0  0  0  0  0  0  0  0  0  0  0  0
   58.2687   31.8878   42.9709 H   0  0  0  0  0  0  0  0  0  0  0  0
   56.5479   32.3474   42.7621 H   0  0  0  0  0  0  0  0  0  0  0  0
   57.3047   34.1418   43.9659 H   0  0  0  0  0  0  0  0  0  0  0  0
   56.7988   32.9991   45.3077 H   0  0  0  0  0  0  0  0  0  0  0  0
   59.5992   33.3546   44.2772 H   0  0  0  0  0  0  0  0  0  0  0  0
   58.8603   34.1291   45.7679 H   0  0  0  0  0  0  0  0  0  0  0  0
  1  2  1  0
  2  3  1  0
  3  4  2  0
  4  5  1  0
  5  6  2  0
  6  7  1  0
  7  8  2  0
  8  9  1  0
  9 10  1  0
 10 11  2  0
  8 12  1  0
 12 13  2  0
 13 14  1  0
 14 15  1  0
 15 16  2  0
 16 17  1  0
 17 18  1  0
 18 19  1  0
 11  3  1  0
 16 12  1  0
 10  6  1  0
 19  7  1  0
  1 20  1  0
  1 21  1  0
  1 22  1  0
  4 23  1  0
  5 24  1  0
  9 25  1  0
 11 26  1  0
 14 27  1  0
 15 28  1  0
 17 29  1  0
 17 30  1  0
 18 31  1  0
 18 32  1  0
 19 33  1  0
 19 34  1  0
M  END
>  <smiles>  (46) 
COc1ccc2c3c([nH]c2c1)-c1n[nH]cc1CCC3

>  <score_type>  (46) 
oracle

>  <origin>  (46) 
adg

>  <m_score__min__energy>  (46) 
-5.6399999999999997

>  <m_primary>  (46) 
energy

$$$$
46:0
     RDKit          3D

 52 54  0  0  1  0  0  0  0  0999 V2000
   57.8350   31.9520   51.2920 C   0  0  0  0  0  0  0  0  0  0  0  0
   58.5930   33.1550   51.1190 O   0  0  0  0  0  0  0  0  0  0  0  0
   59.3380   33.3580   49.9640 C   0  0  0  0  0  0  0  0  0  0  0  0
   58.8670   33.1150   48.7290 N   0  0  0  0  0  0  0  0  0  0  0  0
   59.5760   33.3080   47.6020 C   0  0  0  0  0  0  0  0  0  0  0  0
   58.9640   33.0100   46.3130 C   0  0  0  0  0  0  0  0  0  0  0  0
   59.1680   33.7920   45.2010 C   0  0  0  0  0  0  0  0  0  0  0  0
   58.5670   33.4790   43.9860 C   0  0  0  0  0  0  0  0  0  0  0  0
   57.7510   32.3610   43.8970 C   0  0  0  0  0  0  0  0  0  0  0  0
   57.1160   31.9830   42.7240 O   0  0  0  0  0  0  0  0  0  0  0  0
   57.6980   32.3290   41.4820 C   0  0  0  0  0  0  0  0  0  0  0  0
   57.5320   31.5620   45.0040 C   0  0  0  0  0  0  0  0  0  0  0  0
   56.7080   30.4240   44.9410 O   0  0  0  0  0  0  0  0  0  0  0  0
   57.1370   29.3580   44.1210 C   0  0  0  0  0  0  0  0  0  0  0  0
   58.1450   31.9140   46.1700 C   0  0  0  0  0  0  0  0  0  0  0  0
   60.8240   33.7670   47.7300 N   0  0  0  0  0  0  0  0  0  0  0  0
   61.3110   34.0140   48.9490 C   0  0  0  0  0  0  0  0  0  0  0  0
   62.5130   34.4560   49.0490 N   0  0  0  0  0  0  0  0  0  0  0  0
   63.6920   33.8430   48.5370 C   0  0  0  0  0  0  0  0  0  0  0  0
   63.6070   32.3340   48.6850 C   0  0  0  0  0  0  0  0  0  0  0  0
   63.0700   31.7220   47.4060 C   0  0  0  0  0  0  0  0  0  0  0  0
   61.8910   30.8770   47.6970 C   0  0  0  0  0  0  0  0  0  0  0  0
   61.5090   30.7000   49.0250 C   0  0  0  0  0  0  0  0  0  0  0  0
   60.4100   29.9180   49.3490 C   0  0  0  0  0  0  0  0  0  0  0  0
   59.6520   29.2850   48.3630 C   0  0  0  0  0  0  0  0  0  0  0  0
   60.0520   29.4750   47.0360 C   0  0  0  0  0  0  0  0  0  0  0  0
   61.1420   30.2520   46.7210 C   0  0  0  0  0  0  0  0  0  0  0  0
   60.6040   33.8240   50.0760 N   0  0  0  0  0  0  0  0  0  0  0  0
   57.7077   31.7500   52.3658 H   0  0  0  0  0  0  0  0  0  0  0  0
   56.8477   32.0699   50.8215 H   0  0  0  0  0  0  0  0  0  0  0  0
   58.3675   31.1123   50.8215 H   0  0  0  0  0  0  0  0  0  0  0  0
   59.8158   34.6781   45.2729 H   0  0  0  0  0  0  0  0  0  0  0  0
   58.7375   34.1129   43.1033 H   0  0  0  0  0  0  0  0  0  0  0  0
   58.6316   32.8840   41.6565 H   0  0  0  0  0  0  0  0  0  0  0  0
   57.9165   31.4140   40.9119 H   0  0  0  0  0  0  0  0  0  0  0  0
   56.9985   32.9580   40.9119 H   0  0  0  0  0  0  0  0  0  0  0  0
   57.4733   28.5223   44.7522 H   0  0  0  0  0  0  0  0  0  0  0  0
   56.3028   29.0252   43.4859 H   0  0  0  0  0  0  0  0  0  0  0  0
   57.9692   29.6959   43.4859 H   0  0  0  0  0  0  0  0  0  0  0  0
   57.9736   31.2809   47.0531 H   0  0  0  0  0  0  0  0  0  0  0  0
   61.4160   33.9340   46.9140 H   0  0  0  0  0  0  0  0  0  0  0  0
   63.8008   34.0978   47.4725 H   0  0  0  0  0  0  0  0  0  0  0  0
   64.5612   34.2101   49.1025 H   0  0  0  0  0  0  0  0  0  0  0  0
   64.6094   31.9302   48.8903 H   0  0  0  0  0  0  0  0  0  0  0  0
   62.9308   32.0882   49.5171 H   0  0  0  0  0  0  0  0  0  0  0  0
   62.7786   32.5256   46.7136 H   0  0  0  0  0  0  0  0  0  0  0  0
   63.8537   31.0985   46.9510 H   0  0  0  0  0  0  0  0  0  0  0  0
   62.0855   31.1860   49.8259 H   0  0  0  0  0  0  0  0  0  0  0  0
   60.1301   29.7942   50.4056 H   0  0  0  0  0  0  0  0  0  0  0  0
   58.7798   28.6650   48.6176 H   0  0  0  0  0  0  0  0  0  0  0  0
   59.4827   28.9928   46.2277 H   0  0  0  0  0  0  0  0  0  0  0  0
   61.4237   30.3784   45.6652 H   0  0  0  0  0  0  0  0  0  0  0  0
  1  2  1  0
  2  3  1  0
  3  4  1  0
  4  5  2  0
  5  6  1  0
  6  7  2  0
  7  8  1  0
  8  9  2  0
  9 10  1  0
 10 11  1  0
  9 12  1  0
 12 13  1  0
 13 14  1  0
 12 15  2  0
  5 16  1  0
 16 17  1  0
 17 18  2  0
 18 19  1  0
 19 20  1  0
 20 21  1  0
 21 22  1  0
 22 23  2  0
 23 24  1  0
 24 25  2  0
 25 26  1  0
 26 27  2  0
 17 28  1  0
 28  3  2  0
 15  6  1  0
 27 22  1  0
  1 29  1  0
  1 30  1  0
  1 31  1  0
  7 32  1  0
  8 33  1  0
 11 34  1  0
 11 35  1  0
 11 36  1  0
 14 37  1  0
 14 38  1  0
 14 39  1  0
 15 40  1  0
 16 41  1  0
 19 42  1  0
 19 43  1  0
 20 44  1  0
 20 45  1  0
 21 46  1  0
 21 47  1  0
 23 48  1  0
 24 49  1  0
 25 50  1  0
 26 51  1  0
 27 52  1  0
M  END
>  <smiles>  (47) 
COc1nc(-c2ccc(OC)c(OC)c2)[nH]c(=NCCCc2ccccc2)n1

>  <score_type>  (47) 
oracle

>  <origin>  (47) 
adg

>  <m_score__min__energy>  (47) 
-8.1799999999999997

>  <m_primary>  (47) 
energy

$$$$
47:0
     RDKit          3D

 32 34  0  0  0  0  0  0  0  0999 V2000
   60.0090   36.0750   46.0920 O   0  0  0  0  0  0  0  0  0  0  0  0
   59.3980   34.9850   45.9340 C   0  0  0  0  0  0  0  0  0  0  0  0
   58.9710   34.2570   47.0500 C   0  0  0  0  0  0  0  0  0  0  0  0
   58.2960   33.0520   46.8520 C   0  0  0  0  0  0  0  0  0  0  0  0
   58.0630   32.6030   45.5490 C   0  0  0  0  0  0  0  0  0  0  0  0
   57.3910   31.3990   45.2970 C   0  0  0  0  0  0  0  0  0  0  0  0
   57.1830   30.9740   43.9770 C   0  0  0  0  0  0  0  0  0  0  0  0
   56.3580   29.4490   43.6660 S   0  0  0  0  0  0  0  0  0  0  0  0
   55.1470   29.3670   44.5520 O   0  0  0  0  0  0  0  0  0  0  0  0
   55.9220   29.3630   42.2300 O   0  0  0  0  0  0  0  0  0  0  0  0
   57.4160   28.1180   44.0180 N   0  0  0  0  0  0  0  0  0  0  0  0
   58.3940   28.1280   45.0740 C   0  0  0  0  0  0  0  0  0  0  0  0
   59.6860   28.6540   44.8810 C   0  0  0  0  0  0  0  0  0  0  0  0
   60.6140   28.6590   45.9260 C   0  0  0  0  0  0  0  0  0  0  0  0
   60.2670   28.1350   47.1730 C   0  0  0  0  0  0  0  0  0  0  0  0
   58.9930   27.6020   47.3750 C   0  0  0  0  0  0  0  0  0  0  0  0
   58.0590   27.5950   46.3340 C   0  0  0  0  0  0  0  0  0  0  0  0
   56.8250   27.0780   46.5580 F   0  0  0  0  0  0  0  0  0  0  0  0
   57.6370   31.7640   42.9110 C   0  0  0  0  0  0  0  0  0  0  0  0
   58.3050   32.9670   43.1570 C   0  0  0  0  0  0  0  0  0  0  0  0
   58.5240   33.3910   44.4720 C   0  0  0  0  0  0  0  0  0  0  0  0
   59.1630   34.5350   44.7050 O   0  0  0  0  0  0  0  0  0  0  0  0
   59.1643   34.6287   48.0671 H   0  0  0  0  0  0  0  0  0  0  0  0
   57.9505   32.4611   47.7131 H   0  0  0  0  0  0  0  0  0  0  0  0
   57.0265   30.7871   46.1353 H   0  0  0  0  0  0  0  0  0  0  0  0
   57.2590   27.2400   43.4730 H   0  0  0  0  0  0  0  0  0  0  0  0
   59.9671   29.0642   43.8998 H   0  0  0  0  0  0  0  0  0  0  0  0
   61.6191   29.0763   45.7660 H   0  0  0  0  0  0  0  0  0  0  0  0
   60.9973   28.1423   47.9956 H   0  0  0  0  0  0  0  0  0  0  0  0
   58.7225   27.1859   48.3567 H   0  0  0  0  0  0  0  0  0  0  0  0
   57.4665   31.4351   41.8753 H   0  0  0  0  0  0  0  0  0  0  0  0
   58.6589   33.5809   42.3157 H   0  0  0  0  0  0  0  0  0  0  0  0
  1  2  2  0
  2  3  1  0
  3  4  2  0
  4  5  1  0
  5  6  2  0
  6  7  1  0
  7  8  1  0
  8  9  2  0
  8 10  2  0
  8 11  1  0
 11 12  1  0
 12 13  2  0
 13 14  1  0
 14 15  2  0
 15 16  1  0
 16 17  2  0
 17 18  1  0
  7 19  2  0
 19 20  1  0
 20 21  2  0
 21 22  1  0
 22  2  1  0
 21  5  1  0
 17 12  1  0
  3 23  1  0
  4 24  1  0
  6 25  1  0
 11 26  1  0
 13 27  1  0
 14 28  1  0
 15 29  1  0
 16 30  1  0
 19 31  1  0
 20 32  1  0
M  END
>  <UniqueID>  (48) 
41

>  <SMILES>  (48) 
O=c1ccc2cc(S(=O)(=O)Nc3ccccc3F)ccc2o1

>  <Energy>  (48) 
41.87948188813985

>  <Genealogy>  (48) 
O=c1ccc2cc(S(=O)(=O)Nc3ccccc3F)ccc2o1 (3D coordinates assigned)
O=c1ccc2cc(S(=O)(=O)Nc3ccccc3F)ccc2o1 (optimized conformer: 41.87948188813985 kcal/mol)

>  <smiles>  (48) 
O=c1ccc2cc(S(=O)(=O)Nc3ccccc3F)ccc2o1

>  <score_type>  (48) 
oracle

>  <origin>  (48) 
adg

>  <m_score__min__energy>  (48) 
-8.1899999999999995

>  <m_primary>  (48) 
energy

$$$$
48:0
     RDKit          3D

 60 63  0  0  0  0  0  0  0  0999 V2000
   54.6170   25.7310   45.6120 N   0  0  0  0  0  0  0  0  0  0  0  0
   56.0460   24.8200   45.2780 S   0  0  0  0  0  0  0  0  0  0  0  0
   55.8800   23.4180   45.7970 O   0  0  0  0  0  0  0  0  0  0  0  0
   56.2670   24.7620   43.7940 O   0  0  0  0  0  0  0  0  0  0  0  0
   57.4270   25.5840   46.0600 C   0  0  0  0  0  0  0  0  0  0  0  0
   58.4350   26.1720   45.2840 C   0  0  0  0  0  0  0  0  0  0  0  0
   59.5400   26.7670   45.9000 C   0  0  0  0  0  0  0  0  0  0  0  0
   59.6550   26.7660   47.2990 C   0  0  0  0  0  0  0  0  0  0  0  0
   60.8320   27.4250   47.9640 C   0  0  0  0  0  0  0  0  0  0  0  0
   60.5740   27.6080   49.4630 C   0  0  0  0  0  0  0  0  0  0  0  0
   60.8210   29.0020   49.8510 N   0  0  0  0  0  0  0  0  0  0  0  0
   59.7750   29.9620   49.6080 C   0  0  0  0  0  0  0  0  0  0  0  0
   58.5840   30.2000   50.7100 S   0  0  0  0  0  0  0  0  0  0  0  0
   59.8050   30.7510   48.4130 N   0  0  0  0  0  0  0  0  0  0  0  0
   58.9550   30.5030   47.2760 C   0  0  0  0  0  0  0  0  0  0  0  0
   58.9420   31.4280   46.2180 C   0  0  0  0  0  0  0  0  0  0  0  0
   58.1690   31.1940   45.0780 C   0  0  0  0  0  0  0  0  0  0  0  0
   57.3980   30.0290   44.9760 C   0  0  0  0  0  0  0  0  0  0  0  0
   56.4310   29.7350   43.5360 S   0  0  0  0  0  0  0  0  0  0  0  0
   54.8080   29.3680   43.9960 N   0  0  0  0  0  0  0  0  0  0  0  0
   56.4420   30.9560   42.6590 O   0  0  0  0  0  0  0  0  0  0  0  0
   57.0040   28.5820   42.7620 O   0  0  0  0  0  0  0  0  0  0  0  0
   57.3880   29.1120   46.0340 C   0  0  0  0  0  0  0  0  0  0  0  0
   58.1610   29.3430   47.1750 C   0  0  0  0  0  0  0  0  0  0  0  0
   62.0630   29.4110   50.4720 C   0  0  0  0  0  0  0  0  0  0  0  0
   62.6330   28.8290   51.5940 C   0  0  0  0  0  0  0  0  0  0  0  0
   63.7750   29.5580   51.8560 C   0  0  0  0  0  0  0  0  0  0  0  0
   64.6630   29.2810   52.8890 O   0  0  0  0  0  0  0  0  0  0  0  0
   63.9340   30.5600   50.9650 N   0  0  0  0  0  0  0  0  0  0  0  0
   64.9980   31.5300   50.9350 C   0  0  0  0  0  0  0  0  0  0  0  0
   64.7080   32.9060   50.9600 C   0  0  0  0  0  0  0  0  0  0  0  0
   65.7410   33.8470   50.9260 C   0  0  0  0  0  0  0  0  0  0  0  0
   67.0720   33.4260   50.8540 C   0  0  0  0  0  0  0  0  0  0  0  0
   68.3690   34.6060   50.8090 Cl  0  0  0  0  0  0  0  0  0  0  0  0
   67.3700   32.0600   50.8290 C   0  0  0  0  0  0  0  0  0  0  0  0
   66.3400   31.1170   50.8670 C   0  0  0  0  0  0  0  0  0  0  0  0
   62.8870   30.4730   50.1160 C   0  0  0  0  0  0  0  0  0  0  0  0
   62.6840   31.3440   49.0520 O   0  0  0  0  0  0  0  0  0  0  0  0
   58.6400   26.1830   48.0740 C   0  0  0  0  0  0  0  0  0  0  0  0
   57.5350   25.5880   47.4560 C   0  0  0  0  0  0  0  0  0  0  0  0
   54.7810   26.6970   45.2520 H   0  0  0  0  0  0  0  0  0  0  0  0
   58.3565   26.1654   44.1868 H   0  0  0  0  0  0  0  0  0  0  0  0
   60.3221   27.2376   45.2862 H   0  0  0  0  0  0  0  0  0  0  0  0
   61.7239   26.7964   47.8251 H   0  0  0  0  0  0  0  0  0  0  0  0
   60.9877   28.4140   47.5084 H   0  0  0  0  0  0  0  0  0  0  0  0
   59.5289   27.3478   49.6867 H   0  0  0  0  0  0  0  0  0  0  0  0
   61.2523   26.9516   50.0278 H   0  0  0  0  0  0  0  0  0  0  0  0
   60.6580   31.3360   48.2690 H   0  0  0  0  0  0  0  0  0  0  0  0
   59.5460   32.3447   46.2881 H   0  0  0  0  0  0  0  0  0  0  0  0
   58.1658   31.9270   44.2578 H   0  0  0  0  0  0  0  0  0  0  0  0
   54.7820   29.3580   45.0390 H   0  0  0  0  0  0  0  0  0  0  0  0
   56.7687   28.2054   45.9667 H   0  0  0  0  0  0  0  0  0  0  0  0
   58.1497   28.6149   47.9995 H   0  0  0  0  0  0  0  0  0  0  0  0
   62.2533   27.9647   52.1586 H   0  0  0  0  0  0  0  0  0  0  0  0
   63.6621   33.2436   51.0066 H   0  0  0  0  0  0  0  0  0  0  0  0
   65.5060   34.9212   50.9560 H   0  0  0  0  0  0  0  0  0  0  0  0
   68.4173   31.7274   50.7793 H   0  0  0  0  0  0  0  0  0  0  0  0
   66.5807   30.0439   50.8436 H   0  0  0  0  0  0  0  0  0  0  0  0
   58.7138   26.1941   49.1715 H   0  0  0  0  0  0  0  0  0  0  0  0
   56.7489   25.1221   48.0684 H   0  0  0  0  0  0  0  0  0  0  0  0
  1  2  1  0
  2  3  2  0
  2  4  2  0
  2  5  1  0
  5  6  2  0
  6  7  1  0
  7  8  2  0
  8  9  1  0
  9 10  1  0
 10 11  1  0
 11 12  1  0
 12 13  2  0
 12 14  1  0
 14 15  1  0
 15 16  2  0
 16 17  1  0
 17 18  2  0
 18 19  1  0
 19 20  1  0
 19 21  2  0
 19 22  2  0
 18 23  1  0
 23 24  2  0
 11 25  1  0
 25 26  1  0
 26 27  2  0
 27 28  1  0
 27 29  1  0
 29 30  1  0
 30 31  2  0
 31 32  1  0
 32 33  2  0
 33 34  1  0
 33 35  1  0
 35 36  2  0
 29 37  1  0
 37 38  1  0
  8 39  1  0
 39 40  2  0
 40  5  1  0
 24 15  1  0
 37 25  2  0
 36 30  1  0
  1 41  1  0
  6 42  1  0
  7 43  1  0
  9 44  1  0
  9 45  1  0
 10 46  1  0
 10 47  1  0
 14 48  1  0
 16 49  1  0
 17 50  1  0
 20 51  1  0
 23 52  1  0
 24 53  1  0
 26 54  1  0
 31 55  1  0
 32 56  1  0
 35 57  1  0
 36 58  1  0
 39 59  1  0
 40 60  1  0
M  CHG  4   1  -1  20  -1  28  -1  38  -1
M  END
>  <UniqueID>  (49) 
42

>  <SMILES>  (49) 
[NH-]S(=O)(=O)c1ccc(CCN(C(=S)Nc2ccc(S([NH-])(=O)=O)cc2)c2cc([O-])n(-c3ccc(Cl)cc3)c2[O-])cc1

>  <Energy>  (49) 
108.23618936014249

>  <Genealogy>  (49) 
[NH-]S(=O)(=O)c1ccc(CCN(C(=S)Nc2ccc(S([NH-])(=O)=O)cc2)c2cc([O-])n(-c3ccc(Cl)cc3)c2[O-])cc1 (protonated)
[NH-]S(=O)(=O)c1ccc(CCN(C(=S)Nc2ccc(S([NH-])(=O)=O)cc2)c2cc([O-])n(-c3ccc(Cl)cc3)c2[O-])cc1 (3D coordinates assigned)
[NH-]S(=O)(=O)c1ccc(CCN(C(=S)Nc2ccc(S([NH-])(=O)=O)cc2)c2cc([O-])n(-c3ccc(Cl)cc3)c2[O-])cc1 (optimized conformer: 108.23618936014249 kcal/mol)

>  <smiles>  (49) 
NS(=O)(=O)c1ccc(CCN(C(=S)Nc2ccc(S(N)(=O)=O)cc2)c2cc(O)n(-c3ccc(Cl)cc3)c2O)cc1

>  <score_type>  (49) 
oracle

>  <origin>  (49) 
adg

>  <m_score__min__energy>  (49) 
-15.380000000000001

>  <m_primary>  (49) 
energy

$$$$
49:0
     RDKit          3D

 35 38  0  0  0  0  0  0  0  0999 V2000
   59.6170   26.7610   46.7850 C   0  0  0  0  0  0  0  0  0  0  0  0
   59.5340   28.1950   46.4870 N   0  0  0  0  0  0  0  0  0  0  0  0
   60.7660   29.0140   46.5810 C   0  0  0  0  0  0  0  0  0  0  0  0
   60.4730   30.4440   46.8060 N   0  0  0  0  0  0  0  0  0  0  0  0
   61.3520   31.2400   47.6210 C   0  0  0  0  0  0  0  0  0  0  0  0
   62.6060   31.6390   47.1290 C   0  0  0  0  0  0  0  0  0  0  0  0
   63.4530   32.4230   47.9160 C   0  0  0  0  0  0  0  0  0  0  0  0
   63.0530   32.8220   49.1950 C   0  0  0  0  0  0  0  0  0  0  0  0
   61.8000   32.4390   49.6860 C   0  0  0  0  0  0  0  0  0  0  0  0
   60.9510   31.6540   48.9010 C   0  0  0  0  0  0  0  0  0  0  0  0
   59.2900   30.9920   46.2080 C   0  0  0  0  0  0  0  0  0  0  0  0
   58.2480   30.2110   45.7980 C   0  0  0  0  0  0  0  0  0  0  0  0
   57.2400   30.9350   45.2580 N   0  0  0  0  0  0  0  0  0  0  0  0
   57.6910   32.2070   45.3280 C   0  0  0  0  0  0  0  0  0  0  0  0
   57.0290   33.3440   44.8690 C   0  0  0  0  0  0  0  0  0  0  0  0
   57.6810   34.5840   44.9870 C   0  0  0  0  0  0  0  0  0  0  0  0
   58.9760   34.6620   45.5440 C   0  0  0  0  0  0  0  0  0  0  0  0
   59.6290   33.5030   45.9960 C   0  0  0  0  0  0  0  0  0  0  0  0
   58.9470   32.2890   45.8920 C   0  0  0  0  0  0  0  0  0  0  0  0
   58.3100   28.7620   45.9550 C   0  0  0  0  0  0  0  0  0  0  0  0
   57.0020   27.8380   45.5870 S   0  0  0  0  0  0  0  0  0  0  0  0
   59.6256   26.6129   47.8750 H   0  0  0  0  0  0  0  0  0  0  0  0
   58.7472   26.2455   46.3518 H   0  0  0  0  0  0  0  0  0  0  0  0
   60.5405   26.3493   46.3518 H   0  0  0  0  0  0  0  0  0  0  0  0
   61.3751   28.6418   47.4179 H   0  0  0  0  0  0  0  0  0  0  0  0
   61.3017   28.9269   45.6242 H   0  0  0  0  0  0  0  0  0  0  0  0
   62.9219   31.3330   46.1207 H   0  0  0  0  0  0  0  0  0  0  0  0
   64.4366   32.7271   47.5287 H   0  0  0  0  0  0  0  0  0  0  0  0
   63.7227   33.4364   49.8146 H   0  0  0  0  0  0  0  0  0  0  0  0
   61.4830   32.7560   50.6905 H   0  0  0  0  0  0  0  0  0  0  0  0
   59.9643   31.3593   49.2878 H   0  0  0  0  0  0  0  0  0  0  0  0
   56.0243   33.2734   44.4267 H   0  0  0  0  0  0  0  0  0  0  0  0
   57.1785   35.5000   44.6429 H   0  0  0  0  0  0  0  0  0  0  0  0
   59.4776   35.6377   45.6247 H   0  0  0  0  0  0  0  0  0  0  0  0
   60.6438   33.5504   46.4178 H   0  0  0  0  0  0  0  0  0  0  0  0
  1  2  1  0
  2  3  1  0
  3  4  1  0
  4  5  1  0
  5  6  2  0
  6  7  1  0
  7  8  2  0
  8  9  1  0
  9 10  2  0
  4 11  1  0
 11 12  2  0
 12 13  1  0
 13 14  1  0
 14 15  2  0
 15 16  1  0
 16 17  2  0
 17 18  1  0
 18 19  2  0
 12 20  1  0
 20 21  2  0
 20  2  1  0
 10  5  1  0
 19 11  1  0
 19 14  1  0
  1 22  1  0
  1 23  1  0
  1 24  1  0
  3 25  1  0
  3 26  1  0
  6 27  1  0
  7 28  1  0
  8 29  1  0
  9 30  1  0
 10 31  1  0
 15 32  1  0
 16 33  1  0
 17 34  1  0
 18 35  1  0
M  CHG  1  13  -1
M  END
>  <UniqueID>  (50) 
43

>  <SMILES>  (50) 
CN1CN(c2ccccc2)c2c([n-]c3ccccc23)C1=S

>  <Energy>  (50) 
83.84191263136682

>  <Genealogy>  (50) 
CN1CN(c2ccccc2)c2c([n-]c3ccccc23)C1=S (protonated)
CN1CN(c2ccccc2)c2c([n-]c3ccccc23)C1=S (3D coordinates assigned)
CN1CN(c2ccccc2)c2c([n-]c3ccccc23)C1=S (nonaromatic ring conformer: 83.84191263136682 kcal/mol)

>  <smiles>  (50) 
CN1CN(c2ccccc2)c2c([nH]c3ccccc23)C1=S

>  <score_type>  (50) 
oracle

>  <origin>  (50) 
adg

>  <m_score__min__energy>  (50) 
-8.6699999999999999

>  <m_primary>  (50) 
energy

$$$$
50:0
     RDKit          3D

 36 38  0  0  0  0  0  0  0  0999 V2000
   60.3010   27.5650   47.8450 C   0  0  0  0  0  0  0  0  0  0  0  0
   60.3430   27.4020   46.4310 O   0  0  0  0  0  0  0  0  0  0  0  0
   59.3970   27.9400   45.5440 C   0  0  0  0  0  0  0  0  0  0  0  0
   58.7430   27.0610   44.6510 C   0  0  0  0  0  0  0  0  0  0  0  0
   57.7760   27.5380   43.7490 C   0  0  0  0  0  0  0  0  0  0  0  0
   57.4930   28.9010   43.7540 C   0  0  0  0  0  0  0  0  0  0  0  0
   56.5840   29.5420   43.0020 N   0  0  0  0  0  0  0  0  0  0  0  0
   56.6410   30.8410   43.3710 C   0  0  0  0  0  0  0  0  0  0  0  0
   57.6050   31.0270   44.3580 C   0  0  0  0  0  0  0  0  0  0  0  0
   57.9510   32.3100   45.0100 C   0  0  0  0  0  0  0  0  0  0  0  0
   58.2820   33.3770   44.2660 C   0  0  0  0  0  0  0  0  0  0  0  0
   58.6110   34.7170   44.8720 C   0  0  0  0  0  0  0  0  0  0  0  0
   59.0540   34.6210   46.2760 N   0  0  0  0  0  0  0  0  0  0  0  0
   60.4490   34.1600   46.3830 C   0  0  0  0  0  0  0  0  0  0  0  0
   58.1230   33.7930   47.0660 C   0  0  0  0  0  0  0  0  0  0  0  0
   58.0050   32.3610   46.5190 C   0  0  0  0  0  0  0  0  0  0  0  0
   58.1360   29.7690   44.5990 C   0  0  0  0  0  0  0  0  0  0  0  0
   59.0840   29.3210   45.5240 C   0  0  0  0  0  0  0  0  0  0  0  0
   60.5471   26.6097   48.3317 H   0  0  0  0  0  0  0  0  0  0  0  0
   61.0314   28.3297   48.1478 H   0  0  0  0  0  0  0  0  0  0  0  0
   59.2920   27.8815   48.1478 H   0  0  0  0  0  0  0  0  0  0  0  0
   58.9939   25.9900   44.6620 H   0  0  0  0  0  0  0  0  0  0  0  0
   57.2584   26.8546   43.0598 H   0  0  0  0  0  0  0  0  0  0  0  0
   55.9520   29.1240   42.2840 H   0  0  0  0  0  0  0  0  0  0  0  0
   56.0131   31.6400   42.9500 H   0  0  0  0  0  0  0  0  0  0  0  0
   58.3144   33.2692   43.1718 H   0  0  0  0  0  0  0  0  0  0  0  0
   59.4149   35.1810   44.2816 H   0  0  0  0  0  0  0  0  0  0  0  0
   57.6910   35.3198   44.8575 H   0  0  0  0  0  0  0  0  0  0  0  0
   60.7247   34.0689   47.4440 H   0  0  0  0  0  0  0  0  0  0  0  0
   60.5502   33.1806   45.8925 H   0  0  0  0  0  0  0  0  0  0  0  0
   61.1138   34.8862   45.8925 H   0  0  0  0  0  0  0  0  0  0  0  0
   58.4851   33.7462   48.1037 H   0  0  0  0  0  0  0  0  0  0  0  0
   57.1278   34.2579   47.0074 H   0  0  0  0  0  0  0  0  0  0  0  0
   58.8769   31.7827   46.8586 H   0  0  0  0  0  0  0  0  0  0  0  0
   57.0617   31.9401   46.8972 H   0  0  0  0  0  0  0  0  0  0  0  0
   59.5730   30.0216   46.2168 H   0  0  0  0  0  0  0  0  0  0  0  0
  1  2  1  0
  2  3  1  0
  3  4  2  0
  4  5  1  0
  5  6  2  0
  6  7  1  0
  7  8  1  0
  8  9  2  0
  9 10  1  0
 10 11  2  0
 11 12  1  0
 12 13  1  0
 13 14  1  0
 13 15  1  0
 15 16  1  0
  9 17  1  0
 17 18  2  0
 18  3  1  0
 17  6  1  0
 16 10  1  0
  1 19  1  0
  1 20  1  0
  1 21  1  0
  4 22  1  0
  5 23  1  0
  7 24  1  0
  8 25  1  0
 11 26  1  0
 12 27  1  0
 12 28  1  0
 14 29  1  0
 14 30  1  0
 14 31  1  0
 15 32  1  0
 15 33  1  0
 16 34  1  0
 16 35  1  0
 18 36  1  0
M  END
>  <UniqueID>  (51) 
44

>  <SMILES>  (51) 
COc1ccc2[nH]cc(C3=CCN(C)CC3)c2c1

>  <Energy>  (51) 
77.69425325617065

>  <Genealogy>  (51) 
COc1ccc2[nH]cc(C3=CCN(C)CC3)c2c1 (3D coordinates assigned)
COc1ccc2[nH]cc(C3=CCN(C)CC3)c2c1 (nonaromatic ring conformer: 77.69425325617065 kcal/mol)

>  <smiles>  (51) 
COc1ccc2[nH]cc(C3=CCN(C)CC3)c2c1

>  <score_type>  (51) 
oracle

>  <origin>  (51) 
adg

>  <m_score__min__energy>  (51) 
-6.7699999999999996

>  <m_primary>  (51) 
energy

$$$$
51:0
     RDKit          3D

 60 63  0  0  0  0  0  0  0  0999 V2000
   55.5860   30.8380   51.9980 C   0  0  0  0  0  0  0  0  0  0  0  0
   57.0110   31.2750   51.6830 C   0  0  0  0  0  0  0  0  0  0  0  0
   57.6200   30.2990   50.8670 O   0  0  0  0  0  0  0  0  0  0  0  0
   58.7260   30.8450   50.1730 C   0  0  0  0  0  0  0  0  0  0  0  0
   58.8750   32.3340   50.4780 C   0  0  0  0  0  0  0  0  0  0  0  0
   59.2980   33.0110   49.2970 O   0  0  0  0  0  0  0  0  0  0  0  0
   60.6040   33.0370   48.7720 C   0  0  0  0  0  0  0  0  0  0  0  0
   61.7650   33.1270   49.5840 C   0  0  0  0  0  0  0  0  0  0  0  0
   61.6430   33.1550   50.9830 O   0  0  0  0  0  0  0  0  0  0  0  0
   62.2150   32.2000   51.8720 C   0  0  0  0  0  0  0  0  0  0  0  0
   63.0310   33.1710   48.9670 C   0  0  0  0  0  0  0  0  0  0  0  0
   63.1480   33.1270   47.5790 C   0  0  0  0  0  0  0  0  0  0  0  0
   62.0110   33.0330   46.7830 C   0  0  0  0  0  0  0  0  0  0  0  0
   60.7400   32.9640   47.3680 C   0  0  0  0  0  0  0  0  0  0  0  0
   59.5360   32.9110   46.5050 C   0  0  0  0  0  0  0  0  0  0  0  0
   59.1120   34.0710   45.9300 N   0  0  0  0  0  0  0  0  0  0  0  0
   58.0360   34.1270   45.1020 C   0  0  0  0  0  0  0  0  0  0  0  0
   57.3220   32.9700   44.8020 C   0  0  0  0  0  0  0  0  0  0  0  0
   57.7150   31.7570   45.3720 C   0  0  0  0  0  0  0  0  0  0  0  0
   57.0200   30.6240   45.0870 N   0  0  0  0  0  0  0  0  0  0  0  0
   57.3480   29.4140   45.6140 C   0  0  0  0  0  0  0  0  0  0  0  0
   56.6310   28.3780   45.2750 N   0  0  0  0  0  0  0  0  0  0  0  0
   56.9920   26.9920   45.3780 C   0  0  0  0  0  0  0  0  0  0  0  0
   56.4430   26.2200   46.4120 C   0  0  0  0  0  0  0  0  0  0  0  0
   56.7100   24.8490   46.4890 C   0  0  0  0  0  0  0  0  0  0  0  0
   57.5170   24.2330   45.5200 C   0  0  0  0  0  0  0  0  0  0  0  0
   57.8220   22.5020   45.5970 S   0  0  0  0  0  0  0  0  0  0  0  0
   59.5030   22.2010   45.3280 N   0  0  0  0  0  0  0  0  0  0  0  0
   57.4250   21.9740   46.9490 O   0  0  0  0  0  0  0  0  0  0  0  0
   57.0110   21.7960   44.5460 O   0  0  0  0  0  0  0  0  0  0  0  0
   58.0390   24.9960   44.4630 C   0  0  0  0  0  0  0  0  0  0  0  0
   57.7690   26.3660   44.3860 C   0  0  0  0  0  0  0  0  0  0  0  0
   58.4160   29.3330   46.5310 C   0  0  0  0  0  0  0  0  0  0  0  0
   59.1460   30.4810   46.8460 C   0  0  0  0  0  0  0  0  0  0  0  0
   58.8250   31.7120   46.2460 C   0  0  0  0  0  0  0  0  0  0  0  0
   55.4480   30.7957   53.0885 H   0  0  0  0  0  0  0  0  0  0  0  0
   54.8772   31.5601   51.5665 H   0  0  0  0  0  0  0  0  0  0  0  0
   55.4038   29.8427   51.5665 H   0  0  0  0  0  0  0  0  0  0  0  0
   56.9928   32.2392   51.1539 H   0  0  0  0  0  0  0  0  0  0  0  0
   57.5808   31.3871   52.6172 H   0  0  0  0  0  0  0  0  0  0  0  0
   59.6415   30.3198   50.4830 H   0  0  0  0  0  0  0  0  0  0  0  0
   58.5611   30.7208   49.0926 H   0  0  0  0  0  0  0  0  0  0  0  0
   57.9083   32.7408   50.8098 H   0  0  0  0  0  0  0  0  0  0  0  0
   59.6201   32.4768   51.2746 H   0  0  0  0  0  0  0  0  0  0  0  0
   62.0297   32.5094   52.9112 H   0  0  0  0  0  0  0  0  0  0  0  0
   61.7580   31.2151   51.6956 H   0  0  0  0  0  0  0  0  0  0  0  0
   63.2990   32.1381   51.6956 H   0  0  0  0  0  0  0  0  0  0  0  0
   63.9366   33.2408   49.5875 H   0  0  0  0  0  0  0  0  0  0  0  0
   64.1428   33.1667   47.1113 H   0  0  0  0  0  0  0  0  0  0  0  0
   62.1106   33.0127   45.6877 H   0  0  0  0  0  0  0  0  0  0  0  0
   57.7281   35.0895   44.6674 H   0  0  0  0  0  0  0  0  0  0  0  0
   56.4574   33.0108   44.1232 H   0  0  0  0  0  0  0  0  0  0  0  0
   55.7989   26.6951   47.1666 H   0  0  0  0  0  0  0  0  0  0  0  0
   56.2866   24.2526   47.3106 H   0  0  0  0  0  0  0  0  0  0  0  0
   59.7390   22.5950   44.3910 H   0  0  0  0  0  0  0  0  0  0  0  0
   59.6230   21.1650   45.2670 H   0  0  0  0  0  0  0  0  0  0  0  0
   58.6615   24.5151   43.6941 H   0  0  0  0  0  0  0  0  0  0  0  0
   58.1655   26.9564   43.5468 H   0  0  0  0  0  0  0  0  0  0  0  0
   58.6730   28.3699   46.9961 H   0  0  0  0  0  0  0  0  0  0  0  0
   59.9754   30.4224   47.5662 H   0  0  0  0  0  0  0  0  0  0  0  0
  1  2  1  0
  2  3  1  0
  3  4  1  0
  4  5  1  0
  5  6  1  0
  6  7  1  0
  7  8  2  0
  8  9  1  0
  9 10  1  0
  8 11  1  0
 11 12  2  0
 12 13  1  0
 13 14  2  0
 14 15  1  0
 15 16  2  0
 16 17  1  0
 17 18  2  0
 18 19  1  0
 19 20  1  0
 20 21  1  0
 21 22  2  3
 22 23  1  0
 23 24  2  0
 24 25  1  0
 25 26  2  0
 26 27  1  0
 27 28  1  0
 27 29  2  0
 27 30  2  0
 26 31  1  0
 31 32  2  0
 21 33  1  0
 33 34  2  0
 34 35  1  0
 14  7  1  0
 35 15  1  0
 35 19  2  0
 32 23  1  0
  1 36  1  0
  1 37  1  0
  1 38  1  0
  2 39  1  0
  2 40  1  0
  4 41  1  0
  4 42  1  0
  5 43  1  0
  5 44  1  0
 10 45  1  0
 10 46  1  0
 10 47  1  0
 11 48  1  0
 12 49  1  0
 13 50  1  0
 17 51  1  0
 18 52  1  0
 24 53  1  0
 25 54  1  0
 28 55  1  0
 28 56  1  0
 31 57  1  0
 32 58  1  0
 33 59  1  0
 34 60  1  0
M  CHG  1  20  -1
M  END
>  <UniqueID>  (52) 
45

>  <SMILES>  (52) 
CCOCCOc1c(OC)cccc1-c1nccc2[n-]c(=Nc3ccc(S(N)(=O)=O)cc3)ccc12

>  <Energy>  (52) 
84.19335267777801

>  <Genealogy>  (52) 
CCOCCOc1c(OC)cccc1-c1nccc2[n-]c(=Nc3ccc(S(N)(=O)=O)cc3)ccc12 (protonated)
CCOCCOc1c(OC)cccc1-c1nccc2[n-]c(=Nc3ccc(S(N)(=O)=O)cc3)ccc12 (3D coordinates assigned)
CCOCCOc1c(OC)cccc1-c1nccc2[n-]c(=Nc3ccc(S(N)(=O)=O)cc3)ccc12 (optimized conformer: 84.19335267777801 kcal/mol)

>  <smiles>  (52) 
CCOCCOc1c(OC)cccc1-c1nccc2[nH]c(=Nc3ccc(S(N)(=O)=O)cc3)ccc12

>  <score_type>  (52) 
oracle

>  <origin>  (52) 
adg

>  <m_score__min__energy>  (52) 
-10.43

>  <m_primary>  (52) 
energy

$$$$
52:0
     RDKit          3D

 27 29  0  0  0  0  0  0  0  0999 V2000
   63.3940   34.3100   45.9990 O   0  0  0  0  0  0  0  0  0  0  0  0
   62.9280   33.5640   46.9010 C   0  0  0  0  0  0  0  0  0  0  0  0
   63.7260   32.5000   47.4120 N   0  0  0  0  0  0  0  0  0  0  0  0
   63.3040   31.7650   48.5580 C   0  0  0  0  0  0  0  0  0  0  0  0
   62.1170   31.9240   49.0510 N   0  0  0  0  0  0  0  0  0  0  0  0
   61.0670   32.7570   48.4610 C   0  0  2  0  0  0  0  0  0  0  0  0
   60.1420   31.9300   47.7100 N   0  0  0  0  0  0  0  0  0  0  0  0
   59.8110   32.4780   46.5910 C   0  0  0  0  0  0  0  0  0  0  0  0
   58.8420   31.8470   45.6590 C   0  0  0  0  0  0  0  0  0  0  0  0
   58.3180   32.5670   44.5690 C   0  0  0  0  0  0  0  0  0  0  0  0
   57.4060   31.9670   43.6960 C   0  0  0  0  0  0  0  0  0  0  0  0
   57.0040   30.6450   43.9000 C   0  0  0  0  0  0  0  0  0  0  0  0
   56.1170   30.0750   43.0460 F   0  0  0  0  0  0  0  0  0  0  0  0
   57.5130   29.9190   44.9820 C   0  0  0  0  0  0  0  0  0  0  0  0
   57.0120   28.2570   45.2470 Cl  0  0  0  0  0  0  0  0  0  0  0  0
   58.4270   30.5160   45.8580 C   0  0  0  0  0  0  0  0  0  0  0  0
   60.4920   33.7810   46.3470 C   0  0  0  0  0  0  0  0  0  0  0  0
   61.5530   33.8350   47.4600 C   0  0  2  0  0  0  0  0  0  0  0  0
   64.6760   32.3230   47.0130 H   0  0  0  0  0  0  0  0  0  0  0  0
   63.9963   31.0526   49.0304 H   0  0  0  0  0  0  0  0  0  0  0  0
   60.6188   33.2626   49.3291 H   0  0  0  0  0  0  0  0  0  0  0  0
   58.6284   33.6092   44.4030 H   0  0  0  0  0  0  0  0  0  0  0  0
   57.0038   32.5376   42.8459 H   0  0  0  0  0  0  0  0  0  0  0  0
   58.8240   29.9415   46.7079 H   0  0  0  0  0  0  0  0  0  0  0  0
   60.9617   33.8008   45.3525 H   0  0  0  0  0  0  0  0  0  0  0  0
   59.8032   34.6385   46.3647 H   0  0  0  0  0  0  0  0  0  0  0  0
   61.6523   34.8181   47.9434 H   0  0  0  0  0  0  0  0  0  0  0  0
  1  2  2  0
  2  3  1  0
  3  4  1  0
  4  5  2  0
  5  6  1  0
  6  7  1  0
  7  8  2  0
  8  9  1  0
  9 10  2  0
 10 11  1  0
 11 12  2  0
 12 13  1  0
 12 14  1  0
 14 15  1  0
 14 16  2  0
  8 17  1  0
 17 18  1  0
 18  2  1  0
 18  6  1  0
 16  9  1  0
  3 19  1  0
  4 20  1  0
  6 21  1  1
 10 22  1  0
 11 23  1  0
 16 24  1  0
 17 25  1  0
 17 26  1  0
 18 27  1  1
M  END
>  <UniqueID>  (53) 
46

>  <SMILES>  (53) 
O=C1NC=N[C@@H]2N=C(c3ccc(F)c(Cl)c3)C[C@H]12

>  <Energy>  (53) 
40.3093472846232

>  <Genealogy>  (53) 
O=C1NC=N[C@@H]2N=C(c3ccc(F)c(Cl)c3)C[C@H]12 (chirality)
O=C1NC=N[C@@H]2N=C(c3ccc(F)c(Cl)c3)C[C@H]12 (3D coordinates assigned)
O=C1NC=N[C@@H]2N=C(c3ccc(F)c(Cl)c3)C[C@H]12 (nonaromatic ring conformer: 40.3093472846232 kcal/mol)

>  <smiles>  (53) 
O=C1NC=NC2N=C(c3ccc(F)c(Cl)c3)CC12

>  <score_type>  (53) 
oracle

>  <origin>  (53) 
adg

>  <m_score__min__energy>  (53) 
-7.1699999999999999

>  <m_primary>  (53) 
energy

$$$$
53:0
     RDKit          3D

 39 41  0  0  0  0  0  0  0  0999 V2000
   59.9610   34.5890   48.0040 C   0  0  0  0  0  0  0  0  0  0  0  0
   59.5920   34.9570   46.5710 C   0  0  0  0  0  0  0  0  0  0  0  0
   58.9350   33.7970   45.8740 C   0  0  0  0  0  0  0  0  0  0  0  0
   58.7360   33.8270   44.4840 C   0  0  0  0  0  0  0  0  0  0  0  0
   58.0810   32.7720   43.8430 C   0  0  0  0  0  0  0  0  0  0  0  0
   57.6140   31.6780   44.5820 C   0  0  0  0  0  0  0  0  0  0  0  0
   56.7740   30.3520   43.7850 S   0  0  0  0  0  0  0  0  0  0  0  0
   56.3400   30.7500   42.4020 O   0  0  0  0  0  0  0  0  0  0  0  0
   55.5590   29.9940   44.5930 O   0  0  0  0  0  0  0  0  0  0  0  0
   57.8160   28.9680   43.6760 N   0  0  0  0  0  0  0  0  0  0  0  0
   58.3670   28.2870   44.8170 C   0  0  0  0  0  0  0  0  0  0  0  0
   59.3160   28.9460   45.6150 C   0  0  0  0  0  0  0  0  0  0  0  0
   59.8780   28.3070   46.7230 C   0  0  0  0  0  0  0  0  0  0  0  0
   59.4990   27.0030   47.0500 C   0  0  0  0  0  0  0  0  0  0  0  0
   60.0680   26.3770   48.1540 O   0  0  0  0  0  0  0  0  0  0  0  0
   58.5470   26.3340   46.2660 C   0  0  0  0  0  0  0  0  0  0  0  0
   58.0470   24.6580   46.6650 S   0  0  0  0  0  0  0  0  0  0  0  0
   56.3540   24.9580   46.1750 C   0  0  0  0  0  0  0  0  0  0  0  0
   55.5910   24.0540   45.5330 N   0  0  0  0  0  0  0  0  0  0  0  0
   54.4330   24.7260   45.3890 C   0  0  0  0  0  0  0  0  0  0  0  0
   54.4920   25.9650   45.9120 N   0  0  0  0  0  0  0  0  0  0  0  0
   55.7060   26.1130   46.4090 N   0  0  0  0  0  0  0  0  0  0  0  0
   57.9800   26.9770   45.1590 C   0  0  0  0  0  0  0  0  0  0  0  0
   57.8080   31.6470   45.9700 C   0  0  0  0  0  0  0  0  0  0  0  0
   58.4610   32.7020   46.6130 C   0  0  0  0  0  0  0  0  0  0  0  0
   59.3596   35.1888   48.7030 H   0  0  0  0  0  0  0  0  0  0  0  0
   59.7606   33.5204   48.1714 H   0  0  0  0  0  0  0  0  0  0  0  0
   61.0290   34.7923   48.1714 H   0  0  0  0  0  0  0  0  0  0  0  0
   58.8973   35.8097   46.5851 H   0  0  0  0  0  0  0  0  0  0  0  0
   60.5109   35.2208   46.0269 H   0  0  0  0  0  0  0  0  0  0  0  0
   59.0972   34.6846   43.8974 H   0  0  0  0  0  0  0  0  0  0  0  0
   57.9317   32.8010   42.7536 H   0  0  0  0  0  0  0  0  0  0  0  0
   57.9820   28.5760   42.7230 H   0  0  0  0  0  0  0  0  0  0  0  0
   59.6194   29.9735   45.3658 H   0  0  0  0  0  0  0  0  0  0  0  0
   60.6216   28.8327   47.3400 H   0  0  0  0  0  0  0  0  0  0  0  0
   53.5402   24.3097   44.8995 H   0  0  0  0  0  0  0  0  0  0  0  0
   57.2262   26.4546   44.5516 H   0  0  0  0  0  0  0  0  0  0  0  0
   57.4449   30.7892   46.5551 H   0  0  0  0  0  0  0  0  0  0  0  0
   58.6042   32.6741   47.7033 H   0  0  0  0  0  0  0  0  0  0  0  0
  1  2  1  0
  2  3  1  0
  3  4  2  0
  4  5  1  0
  5  6  2  0
  6  7  1  0
  7  8  2  0
  7  9  2  0
  7 10  1  0
 10 11  1  0
 11 12  2  0
 12 13  1  0
 13 14  2  0
 14 15  1  0
 14 16  1  0
 16 17  1  0
 17 18  1  0
 18 19  1  0
 19 20  2  0
 20 21  1  0
 21 22  1  0
 16 23  2  0
  6 24  1  0
 24 25  2  0
 25  3  1  0
 23 11  1  0
 22 18  2  0
  1 26  1  0
  1 27  1  0
  1 28  1  0
  2 29  1  0
  2 30  1  0
  4 31  1  0
  5 32  1  0
 10 33  1  0
 12 34  1  0
 13 35  1  0
 20 36  1  0
 23 37  1  0
 24 38  1  0
 25 39  1  0
M  CHG  2  15  -1  21  -1
M  END
>  <UniqueID>  (54) 
47

>  <SMILES>  (54) 
CCc1ccc(S(=O)(=O)Nc2ccc([O-])c(Sc3nc[n-]n3)c2)cc1

>  <Energy>  (54) 
66.13488469375486

>  <Genealogy>  (54) 
CCc1ccc(S(=O)(=O)Nc2ccc([O-])c(Sc3nc[n-]n3)c2)cc1 (protonated)
CCc1ccc(S(=O)(=O)Nc2ccc([O-])c(Sc3nc[n-]n3)c2)cc1 (3D coordinates assigned)
CCc1ccc(S(=O)(=O)Nc2ccc([O-])c(Sc3nc[n-]n3)c2)cc1 (optimized conformer: 66.13488469375486 kcal/mol)

>  <smiles>  (54) 
CCc1ccc(S(=O)(=O)Nc2ccc(O)c(Sc3nc[nH]n3)c2)cc1

>  <score_type>  (54) 
oracle

>  <origin>  (54) 
adg

>  <m_score__min__energy>  (54) 
-12.880000000000001

>  <m_primary>  (54) 
energy

$$$$
54:0
     RDKit          3D

 20 21  0  0  0  0  0  0  0  0999 V2000
   56.5010   30.4990   44.5590 N   0  0  0  0  0  0  0  0  0  0  0  0
   56.9810   29.3610   44.9960 C   0  0  0  0  0  0  0  0  0  0  0  0
   56.1040   28.4010   45.3320 N   0  0  0  0  0  0  0  0  0  0  0  0
   56.5240   27.1980   45.7920 C   0  0  0  0  0  0  0  0  0  0  0  0
   55.6310   26.3440   46.0880 N   0  0  0  0  0  0  0  0  0  0  0  0
   57.8820   27.0210   45.8920 C   0  0  0  0  0  0  0  0  0  0  0  0
   58.3650   25.8180   46.3530 C   0  0  0  0  0  0  0  0  0  0  0  0
   59.7270   25.6360   46.4540 C   0  0  0  0  0  0  0  0  0  0  0  0
   60.6180   26.6380   46.1020 C   0  0  0  0  0  0  0  0  0  0  0  0
   60.1490   27.8420   45.6410 C   0  0  0  0  0  0  0  0  0  0  0  0
   58.7700   28.0360   45.5340 C   0  0  0  0  0  0  0  0  0  0  0  0
   58.3140   29.2180   45.0820 N   0  0  0  0  0  0  0  0  0  0  0  0
   56.0510   31.1590   45.2300 H   0  0  0  0  0  0  0  0  0  0  0  0
   55.0690   28.5880   45.2360 H   0  0  0  0  0  0  0  0  0  0  0  0
   55.1290   26.3440   46.9630 H   0  0  0  0  0  0  0  0  0  0  0  0
   57.6727   25.0119   46.6373 H   0  0  0  0  0  0  0  0  0  0  0  0
   60.1157   24.6750   46.8218 H   0  0  0  0  0  0  0  0  0  0  0  0
   61.7010   26.4677   46.1923 H   0  0  0  0  0  0  0  0  0  0  0  0
   60.8487   28.6428   45.3598 H   0  0  0  0  0  0  0  0  0  0  0  0
   58.9610   30.0020   44.8050 H   0  0  0  0  0  0  0  0  0  0  0  0
  1  2  2  3
  2  3  1  0
  3  4  1  0
  4  5  2  3
  4  6  1  0
  6  7  2  0
  7  8  1  0
  8  9  2  0
  9 10  1  0
 10 11  2  0
 11 12  1  0
 12  2  1  0
 11  6  1  0
  1 13  1  0
  3 14  1  0
  5 15  1  0
  7 16  1  0
  8 17  1  0
  9 18  1  0
 10 19  1  0
 12 20  1  0
M  END
>  <smiles>  (55) 
N=c1[nH]c(=N)c2ccccc2[nH]1

>  <score_type>  (55) 
oracle

>  <origin>  (55) 
adg

>  <m_score__min__energy>  (55) 
-5.21

>  <m_primary>  (55) 
energy

$$$$
55:0
     RDKit          3D

 50 52  0  0  0  0  0  0  0  0999 V2000
   57.6118   35.3232   44.4585 H   0  0  0  0  0  0  0  0  0  0  0  0
   57.9430   34.3480   44.8450 C   0  0  0  0  0  0  0  0  0  0  0  0
   58.8920   34.2900   45.8680 C   0  0  0  0  0  0  0  0  0  0  0  0
   59.3011   35.2205   46.2885 H   0  0  0  0  0  0  0  0  0  0  0  0
   59.3270   33.0480   46.3630 C   0  0  0  0  0  0  0  0  0  0  0  0
   60.2800   32.9610   47.4370 N   0  0  0  0  0  0  0  0  0  0  0  0
   60.2320   33.6810   48.1920 H   0  0  0  0  0  0  0  0  0  0  0  0
   61.1870   31.8590   47.6130 C   0  0  0  0  0  0  0  0  0  0  0  0
   60.9180   30.7410   47.0930 O   0  0  0  0  0  0  0  0  0  0  0  0
   62.4090   32.0040   48.4400 C   0  0  0  0  0  0  0  0  0  0  0  0
   62.6150   31.1960   49.5740 C   0  0  0  0  0  0  0  0  0  0  0  0
   61.8630   30.4428   49.8518 H   0  0  0  0  0  0  0  0  0  0  0  0
   63.7690   31.3440   50.3500 C   0  0  0  0  0  0  0  0  0  0  0  0
   63.9258   30.6972   51.2258 H   0  0  0  0  0  0  0  0  0  0  0  0
   64.7270   32.3120   50.0180 C   0  0  0  0  0  0  0  0  0  0  0  0
   65.9820   32.4430   50.8290 C   0  0  0  0  0  0  0  0  0  0  0  0
   65.7311   32.4168   51.8997 H   0  0  0  0  0  0  0  0  0  0  0  0
   66.6609   31.6108   50.5910 H   0  0  0  0  0  0  0  0  0  0  0  0
   66.4744   33.3974   50.5910 H   0  0  0  0  0  0  0  0  0  0  0  0
   64.5310   33.1130   48.8850 C   0  0  0  0  0  0  0  0  0  0  0  0
   65.2884   33.8604   48.6062 H   0  0  0  0  0  0  0  0  0  0  0  0
   63.3790   32.9680   48.1070 C   0  0  0  0  0  0  0  0  0  0  0  0
   63.2293   33.6120   47.2279 H   0  0  0  0  0  0  0  0  0  0  0  0
   58.7750   31.8700   45.8360 C   0  0  0  0  0  0  0  0  0  0  0  0
   59.0870   30.8945   46.2374 H   0  0  0  0  0  0  0  0  0  0  0  0
   57.8290   31.9260   44.8020 C   0  0  0  0  0  0  0  0  0  0  0  0
   57.1430   30.4420   44.1520 S   0  0  0  0  0  0  0  0  0  0  0  0
   55.9100   30.0820   44.9330 O   0  0  0  0  0  0  0  0  0  0  0  0
   56.7740   30.6540   42.7110 O   0  0  0  0  0  0  0  0  0  0  0  0
   58.3290   29.1800   44.2860 N   0  0  0  0  0  0  0  0  0  0  0  0
   58.4780   28.3590   45.2860 C   0  0  0  0  0  0  0  0  0  0  0  0
   59.6680   28.5010   46.0790 N   0  0  0  0  0  0  0  0  0  0  0  0
   60.1880   29.4060   46.0160 H   0  0  0  0  0  0  0  0  0  0  0  0
   60.3960   27.3640   46.6330 C   0  0  0  0  0  0  0  0  0  0  0  0
   60.9917   27.7050   47.4925 H   0  0  0  0  0  0  0  0  0  0  0  0
   61.0454   26.9524   45.8463 H   0  0  0  0  0  0  0  0  0  0  0  0
   59.4400   26.2590   47.0960 C   0  0  0  0  0  0  0  0  0  0  0  0
   58.5951   26.7298   47.6198 H   0  0  0  0  0  0  0  0  0  0  0  0
   60.0206   25.5878   47.7459 H   0  0  0  0  0  0  0  0  0  0  0  0
   58.8810   25.3980   45.9550 C   0  0  0  0  0  0  0  0  0  0  0  0
   58.7323   24.3740   46.3281 H   0  0  0  0  0  0  0  0  0  0  0  0
   59.6074   25.4308   45.1296 H   0  0  0  0  0  0  0  0  0  0  0  0
   57.5470   25.9200   45.4150 C   0  0  0  0  0  0  0  0  0  0  0  0
   56.7298   25.3620   45.8954 H   0  0  0  0  0  0  0  0  0  0  0  0
   57.5497   25.7764   44.3244 H   0  0  0  0  0  0  0  0  0  0  0  0
   57.3460   27.4190   45.6870 C   0  0  0  0  0  0  0  0  0  0  0  0
   57.1829   27.5400   46.7681 H   0  0  0  0  0  0  0  0  0  0  0  0
   56.4971   27.7108   45.0512 H   0  0  0  0  0  0  0  0  0  0  0  0
   57.4130   33.1700   44.3110 C   0  0  0  0  0  0  0  0  0  0  0  0
   56.6677   33.2201   43.5035 H   0  0  0  0  0  0  0  0  0  0  0  0
  1  2  1  0
  2  3  2  0
  3  4  1  0
  3  5  1  0
  5  6  1  0
  6  7  1  0
  6  8  1  0
  8  9  2  0
  8 10  1  0
 10 11  2  0
 11 12  1  0
 11 13  1  0
 13 14  1  0
 13 15  2  0
 15 16  1  0
 16 17  1  0
 16 18  1  0
 16 19  1  0
 15 20  1  0
 20 21  1  0
 20 22  2  0
 22 23  1  0
  5 24  2  0
 24 25  1  0
 24 26  1  0
 26 27  1  0
 27 28  2  0
 27 29  2  0
 27 30  1  0
 30 31  2  0
 31 32  1  0
 32 33  1  0
 32 34  1  0
 34 35  1  0
 34 36  1  0
 34 37  1  0
 37 38  1  0
 37 39  1  0
 37 40  1  0
 40 41  1  0
 40 42  1  0
 40 43  1  0
 43 44  1  0
 43 45  1  0
 43 46  1  0
 46 47  1  0
 46 48  1  0
 26 49  2  0
 49 50  1  0
 49  2  1  0
 22 10  1  0
 46 31  1  0
M  END
>  <UniqueID>  (56) 
48

>  <SMILES>  (56) 
Cc1ccc(C(=O)Nc2cccc(S(=O)(=O)/N=C3\CCCCCN3)c2)cc1

>  <Energy>  (56) 
65.08564324058034

>  <Genealogy>  (56) 
Cc1ccc(C(=O)Nc2cccc(S(=O)(=O)/N=C3\CCCCCN3)c2)cc1 (cis-trans isomerization)
Cc1ccc(C(=O)Nc2cccc(S(=O)(=O)/N=C3\CCCCCN3)c2)cc1 (3D coordinates assigned)
Cc1ccc(C(=O)Nc2cccc(S(=O)(=O)/N=C3\CCCCCN3)c2)cc1 (nonaromatic ring conformer: 65.08564324058034 kcal/mol)

>  <smiles>  (56) 
Cc1ccc(C(=O)Nc2cccc(S(=O)(=O)N=C3CCCCCN3)c2)cc1

>  <score_type>  (56) 
oracle

>  <origin>  (56) 
adg

>  <m_score__min__energy>  (56) 
-7.2800000000000002

>  <m_primary>  (56) 
energy

$$$$
56:0
     RDKit          3D

 40 43  0  0  0  0  0  0  0  0999 V2000
   54.4040   29.6680   45.3740 H   0  0  0  0  0  0  0  0  0  0  0  0
   55.1950   29.3740   44.7580 N   0  0  0  0  0  0  0  0  0  0  0  0
   56.0980   30.2040   44.3410 C   0  0  0  0  0  0  0  0  0  0  0  0
   56.8790   30.8510   45.2470 N   0  0  0  0  0  0  0  0  0  0  0  0
   57.8500   31.7330   44.8750 C   0  0  0  0  0  0  0  0  0  0  0  0
   58.6500   32.4130   45.9230 C   0  0  0  0  0  0  0  0  0  0  0  0
   59.2550   31.6510   46.9320 C   0  0  0  0  0  0  0  0  0  0  0  0
   59.1370   30.5574   46.9412 H   0  0  0  0  0  0  0  0  0  0  0  0
   60.0080   32.2810   47.9260 C   0  0  0  0  0  0  0  0  0  0  0  0
   60.6050   31.5540   48.9650 C   0  0  0  0  0  0  0  0  0  0  0  0
   60.4912   30.4608   49.0091 H   0  0  0  0  0  0  0  0  0  0  0  0
   61.3460   32.2220   49.9460 C   0  0  0  0  0  0  0  0  0  0  0  0
   61.7961   31.6523   50.7723 H   0  0  0  0  0  0  0  0  0  0  0  0
   61.5190   33.6100   49.8840 C   0  0  0  0  0  0  0  0  0  0  0  0
   62.2420   34.2720   50.9350 N   0  0  0  0  0  0  0  0  0  0  0  0
   63.5230   34.2210   51.1720 C   0  0  0  0  0  0  0  0  0  0  0  0
   64.1870   35.1630   51.9860 C   0  0  0  0  0  0  0  0  0  0  0  0
   63.6236   35.9792   52.4618 H   0  0  0  0  0  0  0  0  0  0  0  0
   65.5660   35.0510   52.1830 C   0  0  0  0  0  0  0  0  0  0  0  0
   66.0887   35.7762   52.8239 H   0  0  0  0  0  0  0  0  0  0  0  0
   66.2630   34.0500   51.5860 N   0  0  0  0  0  0  0  0  0  0  0  0
   65.6570   33.1340   50.7850 C   0  0  0  0  0  0  0  0  0  0  0  0
   66.4690   32.0580   50.1370 C   0  0  0  0  0  0  0  0  0  0  0  0
   66.9387   31.4356   50.9128 H   0  0  0  0  0  0  0  0  0  0  0  0
   65.8158   31.4325   49.5108 H   0  0  0  0  0  0  0  0  0  0  0  0
   67.2497   32.5146   49.5108 H   0  0  0  0  0  0  0  0  0  0  0  0
   64.2770   33.2130   50.5580 C   0  0  0  0  0  0  0  0  0  0  0  0
   63.7855   32.4834   49.8976 H   0  0  0  0  0  0  0  0  0  0  0  0
   60.8910   34.3420   48.8610 C   0  0  0  0  0  0  0  0  0  0  0  0
   60.9844   35.4377   48.8345 H   0  0  0  0  0  0  0  0  0  0  0  0
   60.1480   33.6820   47.8770 C   0  0  0  0  0  0  0  0  0  0  0  0
   59.5770   34.3770   46.8990 O   0  0  0  0  0  0  0  0  0  0  0  0
   58.8550   33.8110   45.9350 C   0  0  0  0  0  0  0  0  0  0  0  0
   58.3810   34.5400   45.0250 O   0  0  0  0  0  0  0  0  0  0  0  0
   58.0410   32.0080   43.5110 C   0  0  0  0  0  0  0  0  0  0  0  0
   58.8051   32.7326   43.1931 H   0  0  0  0  0  0  0  0  0  0  0  0
   57.2530   31.3540   42.5620 C   0  0  0  0  0  0  0  0  0  0  0  0
   57.4019   31.5549   41.4908 H   0  0  0  0  0  0  0  0  0  0  0  0
   56.2770   30.4460   42.9720 C   0  0  0  0  0  0  0  0  0  0  0  0
   55.6546   29.9255   42.2292 H   0  0  0  0  0  0  0  0  0  0  0  0
  1  2  1  0
  2  3  2  0
  3  4  1  0
  4  5  1  0
  5  6  1  0
  6  7  2  0
  7  8  1  0
  7  9  1  0
  9 10  2  0
 10 11  1  0
 10 12  1  0
 12 13  1  0
 12 14  2  0
 14 15  1  0
 15 16  2  3
 16 17  1  0
 17 18  1  0
 17 19  2  0
 19 20  1  0
 19 21  1  0
 21 22  1  0
 22 23  1  0
 23 24  1  0
 23 25  1  0
 23 26  1  0
 22 27  2  0
 27 28  1  0
 14 29  1  0
 29 30  1  0
 29 31  2  0
 31 32  1  0
 32 33  1  0
 33 34  2  0
  5 35  2  0
 35 36  1  0
 35 37  1  0
 37 38  1  0
 37 39  2  0
 39 40  1  0
 39  3  1  0
 33  6  1  0
 31  9  1  0
 27 16  1  0
M  CHG  2   4  -1  21  -1
M  END
>  <UniqueID>  (57) 
49

>  <SMILES>  (57) 
[H]/N=c1\cccc(-c2cc3ccc(N=c4cc[n-]c(C)c4)cc3oc2=O)[n-]1

>  <Energy>  (57) 
64.90178968115893

>  <Genealogy>  (57) 
Cc1cc(=Nc2ccc3cc(-c4cccc(=N)[n-]4)c(=O)oc3c2)cc[n-]1 (protonated)
[H]/N=c1\cccc(-c2cc3ccc(N=c4cc[n-]c(C)c4)cc3oc2=O)[n-]1 (cis-trans isomerization)
[H]/N=c1\cccc(-c2cc3ccc(N=c4cc[n-]c(C)c4)cc3oc2=O)[n-]1 (3D coordinates assigned)
[H]/N=c1\cccc(-c2cc3ccc(N=c4cc[n-]c(C)c4)cc3oc2=O)[n-]1 (optimized conformer: 64.90178968115893 kcal/mol)

>  <smiles>  (57) 
Cc1cc(=Nc2ccc3cc(-c4cccc(=N)[nH]4)c(=O)oc3c2)cc[nH]1

>  <score_type>  (57) 
oracle

>  <origin>  (57) 
adg

>  <m_score__min__energy>  (57) 
-11.109999999999999

>  <m_primary>  (57) 
energy

$$$$
57:0
     RDKit          3D

 53 57  0  0  0  0  0  0  0  0999 V2000
   64.7689   32.8387   46.7558 H   0  0  0  0  0  0  0  0  0  0  0  0
   63.7630   33.0830   47.1280 C   0  0  0  0  0  0  0  0  0  0  0  0
   63.3670   32.6590   48.3980 C   0  0  0  0  0  0  0  0  0  0  0  0
   64.0598   32.0773   49.0239 H   0  0  0  0  0  0  0  0  0  0  0  0
   62.0910   32.9730   48.8750 C   0  0  0  0  0  0  0  0  0  0  0  0
   61.7813   32.6299   49.8732 H   0  0  0  0  0  0  0  0  0  0  0  0
   61.2000   33.7250   48.0870 C   0  0  0  0  0  0  0  0  0  0  0  0
   59.8440   34.0620   48.5800 C   0  0  0  0  0  0  0  0  0  0  0  0
   59.6490   34.1810   49.8180 O   0  0  0  0  0  0  0  0  0  0  0  0
   58.7490   34.3080   47.6860 N   0  0  0  0  0  0  0  0  0  0  0  0
   58.4020   33.5200   46.5380 C   0  0  0  0  0  0  0  0  0  0  0  0
   57.9530   34.1110   45.3480 C   0  0  0  0  0  0  0  0  0  0  0  0
   57.8526   35.2045   45.2837 H   0  0  0  0  0  0  0  0  0  0  0  0
   57.6330   33.3180   44.2450 C   0  0  0  0  0  0  0  0  0  0  0  0
   57.2748   33.7917   43.3191 H   0  0  0  0  0  0  0  0  0  0  0  0
   57.7640   31.9210   44.3060 C   0  0  0  0  0  0  0  0  0  0  0  0
   57.3870   31.1010   43.0990 C   0  0  0  0  0  0  0  0  0  0  0  0
   56.9483   30.1469   43.4264 H   0  0  0  0  0  0  0  0  0  0  0  0
   56.6527   31.6540   42.4948 H   0  0  0  0  0  0  0  0  0  0  0  0
   58.2848   30.9036   42.4948 H   0  0  0  0  0  0  0  0  0  0  0  0
   58.2680   31.3240   45.4870 C   0  0  0  0  0  0  0  0  0  0  0  0
   58.4830   29.8630   45.5970 C   0  0  0  0  0  0  0  0  0  0  0  0
   59.7820   29.3370   45.5230 C   0  0  0  0  0  0  0  0  0  0  0  0
   60.6384   30.0137   45.3862 H   0  0  0  0  0  0  0  0  0  0  0  0
   59.9950   27.9590   45.6220 C   0  0  0  0  0  0  0  0  0  0  0  0
   61.0177   27.5572   45.5702 H   0  0  0  0  0  0  0  0  0  0  0  0
   58.9100   27.0880   45.7870 C   0  0  0  0  0  0  0  0  0  0  0  0
   59.1060   25.7050   45.8900 C   0  0  0  0  0  0  0  0  0  0  0  0
   60.1223   25.2864   45.8469 H   0  0  0  0  0  0  0  0  0  0  0  0
   58.0030   24.8580   46.0480 C   0  0  0  0  0  0  0  0  0  0  0  0
   58.1970   23.5740   46.1480 N   0  0  0  0  0  0  0  0  0  0  0  0
   58.9360   22.7400   45.2400 C   0  0  0  0  0  0  0  0  0  0  0  0
   60.1770   22.5590   45.3770 O   0  0  0  0  0  0  0  0  0  0  0  0
   58.2060   22.0240   44.1480 C   0  0  0  0  0  0  0  0  0  0  0  0
   59.0852   21.5083   43.7343 H   0  0  0  0  0  0  0  0  0  0  0  0
   56.7810   21.6220   44.5010 C   0  0  0  0  0  0  0  0  0  0  0  0
   56.3630   20.6812   44.1134 H   0  0  0  0  0  0  0  0  0  0  0  0
   56.2213   21.4848   45.4380 H   0  0  0  0  0  0  0  0  0  0  0  0
   57.0290   22.7880   43.5590 C   0  0  0  0  0  0  0  0  0  0  0  0
   56.7904   22.6912   42.4896 H   0  0  0  0  0  0  0  0  0  0  0  0
   56.7230   23.8442   43.5319 H   0  0  0  0  0  0  0  0  0  0  0  0
   56.7480   25.3910   46.1010 N   0  0  0  0  0  0  0  0  0  0  0  0
   56.5230   26.7270   46.0050 C   0  0  0  0  0  0  0  0  0  0  0  0
   55.4952   27.1160   46.0521 H   0  0  0  0  0  0  0  0  0  0  0  0
   57.5990   27.6100   45.8460 C   0  0  0  0  0  0  0  0  0  0  0  0
   57.3910   28.9930   45.7470 C   0  0  0  0  0  0  0  0  0  0  0  0
   56.3690   29.3979   45.7870 H   0  0  0  0  0  0  0  0  0  0  0  0
   58.5740   32.1330   46.5930 C   0  0  0  0  0  0  0  0  0  0  0  0
   58.9542   31.6697   47.5154 H   0  0  0  0  0  0  0  0  0  0  0  0
   61.6060   34.1340   46.8030 C   0  0  0  0  0  0  0  0  0  0  0  0
   60.9144   34.7066   46.1676 H   0  0  0  0  0  0  0  0  0  0  0  0
   62.8830   33.8170   46.3300 C   0  0  0  0  0  0  0  0  0  0  0  0
   63.1949   34.1463   45.3279 H   0  0  0  0  0  0  0  0  0  0  0  0
  1  2  1  0
  2  3  2  0
  3  4  1  0
  3  5  1  0
  5  6  1  0
  5  7  2  0
  7  8  1  0
  8  9  2  0
  8 10  1  0
 10 11  1  0
 11 12  2  0
 12 13  1  0
 12 14  1  0
 14 15  1  0
 14 16  2  0
 16 17  1  0
 17 18  1  0
 17 19  1  0
 17 20  1  0
 16 21  1  0
 21 22  1  0
 22 23  1  0
 23 24  1  0
 23 25  2  0
 25 26  1  0
 25 27  1  0
 27 28  2  0
 28 29  1  0
 28 30  1  0
 30 31  2  0
 31 32  1  0
 32 33  2  0
 32 34  1  0
 34 35  1  0
 34 36  1  0
 36 37  1  0
 36 38  1  0
 36 39  1  0
 39 40  1  0
 39 41  1  0
 30 42  1  0
 42 43  1  0
 43 44  1  0
 43 45  2  0
 45 46  1  0
 46 47  1  0
 21 48  2  0
 48 49  1  0
  7 50  1  0
 50 51  1  0
 50 52  2  0
 52 53  1  0
 52  2  1  0
 48 11  1  0
 46 22  2  0
 45 27  1  0
 39 34  1  0
M  CHG  2  10  -1  42  -1
M  END
>  <UniqueID>  (58) 
50

>  <SMILES>  (58) 
Cc1ccc([N-]C(=O)c2ccccc2)cc1-c1ccc2c/c(=N/C(=O)C3CC3)[n-]cc2c1

>  <Energy>  (58) 
341.65480820755516

>  <Genealogy>  (58) 
Cc1ccc([N-]C(=O)c2ccccc2)cc1-c1ccc2cc(=NC(=O)C3CC3)[n-]cc2c1 (protonated)
Cc1ccc([N-]C(=O)c2ccccc2)cc1-c1ccc2c/c(=N/C(=O)C3CC3)[n-]cc2c1 (cis-trans isomerization)
Cc1ccc([N-]C(=O)c2ccccc2)cc1-c1ccc2c/c(=N/C(=O)C3CC3)[n-]cc2c1 (3D coordinates assigned)
Cc1ccc([N-]C(=O)c2ccccc2)cc1-c1ccc2c/c(=N/C(=O)C3CC3)[n-]cc2c1 (nonaromatic ring conformer: 341.65480820755516 kcal/mol)

>  <smiles>  (58) 
Cc1ccc(NC(=O)c2ccccc2)cc1-c1ccc2cc(=NC(=O)C3CC3)[nH]cc2c1

>  <score_type>  (58) 
oracle

>  <origin>  (58) 
adg

>  <m_score__min__energy>  (58) 
-12.6

>  <m_primary>  (58) 
energy

$$$$
58:0
     RDKit          3D

 47 49  0  0  0  0  0  0  0  0999 V2000
   59.1590   26.0570   47.9010 C   0  0  0  0  0  0  0  0  0  0  0  0
   58.5500   26.1620   46.7090 C   0  0  0  0  0  0  0  0  0  0  0  0
   58.2100   25.0880   45.8760 C   0  0  0  0  0  0  0  0  0  0  0  0
   58.3750   23.6380   46.1310 C   0  0  0  0  0  0  0  0  0  0  0  0
   57.5500   23.0350   46.8700 O   0  0  0  0  0  0  0  0  0  0  0  0
   59.4560   22.9420   45.5850 O   0  0  0  0  0  0  0  0  0  0  0  0
   59.3430   22.1480   44.4100 C   0  0  0  0  0  0  0  0  0  0  0  0
   57.5990   25.6430   44.7600 C   0  0  0  0  0  0  0  0  0  0  0  0
   57.0360   24.8970   43.5880 C   0  0  0  0  0  0  0  0  0  0  0  0
   57.5410   26.9820   44.8740 N   0  0  0  0  0  0  0  0  0  0  0  0
   58.1170   27.3260   46.0440 C   0  0  0  0  0  0  0  0  0  0  0  0
   58.2000   28.6220   46.4120 C   0  0  0  0  0  0  0  0  0  0  0  0
   57.5190   29.7470   45.7630 C   0  0  0  0  0  0  0  0  0  0  0  0
   56.3230   29.7100   45.0640 C   0  0  0  0  0  0  0  0  0  0  0  0
   55.5200   28.5840   44.9330 O   0  0  0  0  0  0  0  0  0  0  0  0
   56.0140   30.9070   44.5120 N   0  0  0  0  0  0  0  0  0  0  0  0
   57.0470   31.7010   44.8570 C   0  0  0  0  0  0  0  0  0  0  0  0
   57.2180   33.0380   44.5070 C   0  0  0  0  0  0  0  0  0  0  0  0
   58.3900   33.6880   44.9350 C   0  0  0  0  0  0  0  0  0  0  0  0
   59.3620   32.9940   45.6910 C   0  0  0  0  0  0  0  0  0  0  0  0
   60.8680   33.8300   46.1810 S   0  0  0  0  0  0  0  0  0  0  0  0
   60.0870   34.5910   47.5730 N   0  0  0  0  0  0  0  0  0  0  0  0
   59.9760   33.9270   48.8310 C   0  0  0  0  0  0  0  0  0  0  0  0
   58.9580   33.2300   49.0920 O   0  0  0  0  0  0  0  0  0  0  0  0
   61.0150   34.0490   49.7590 O   0  0  0  0  0  0  0  0  0  0  0  0
   62.3870   34.1810   49.3890 C   0  0  0  0  0  0  0  0  0  0  0  0
   62.8850   32.9170   48.7020 C   0  0  0  0  0  0  0  0  0  0  0  0
   59.1610   31.6430   46.0350 C   0  0  0  0  0  0  0  0  0  0  0  0
   57.9850   31.0310   45.6030 C   0  0  0  0  0  0  0  0  0  0  0  0
   59.3857   26.9616   48.4844 H   0  0  0  0  0  0  0  0  0  0  0  0
   59.4312   25.0664   48.2942 H   0  0  0  0  0  0  0  0  0  0  0  0
   59.1932   21.0953   44.6918 H   0  0  0  0  0  0  0  0  0  0  0  0
   58.4850   22.4939   43.8148 H   0  0  0  0  0  0  0  0  0  0  0  0
   60.2634   22.2408   43.8148 H   0  0  0  0  0  0  0  0  0  0  0  0
   56.4098   24.0673   43.9479 H   0  0  0  0  0  0  0  0  0  0  0  0
   56.4256   25.5792   42.9780 H   0  0  0  0  0  0  0  0  0  0  0  0
   57.8594   24.4971   42.9780 H   0  0  0  0  0  0  0  0  0  0  0  0
   57.1230   27.6340   44.1730 H   0  0  0  0  0  0  0  0  0  0  0  0
   58.8367   28.8557   47.2780 H   0  0  0  0  0  0  0  0  0  0  0  0
   56.4596   33.5698   43.9138 H   0  0  0  0  0  0  0  0  0  0  0  0
   58.5514   34.7456   44.6791 H   0  0  0  0  0  0  0  0  0  0  0  0
   62.4947   35.0321   48.7005 H   0  0  0  0  0  0  0  0  0  0  0  0
   62.9833   34.3467   50.2984 H   0  0  0  0  0  0  0  0  0  0  0  0
   63.1765   32.1771   49.4620 H   0  0  0  0  0  0  0  0  0  0  0  0
   62.0835   32.5011   48.0738 H   0  0  0  0  0  0  0  0  0  0  0  0
   63.7548   33.1595   48.0738 H   0  0  0  0  0  0  0  0  0  0  0  0
   59.9066   31.0894   46.6246 H   0  0  0  0  0  0  0  0  0  0  0  0
  1  2  2  0
  2  3  1  0
  3  4  1  0
  4  5  2  0
  4  6  1  0
  6  7  1  0
  3  8  2  0
  8  9  1  0
  8 10  1  0
 10 11  1  0
 11 12  2  3
 12 13  1  0
 13 14  2  0
 14 15  1  0
 14 16  1  0
 16 17  1  0
 17 18  2  0
 18 19  1  0
 19 20  2  0
 20 21  1  0
 21 22  1  0
 22 23  1  0
 23 24  2  0
 23 25  1  0
 25 26  1  0
 26 27  1  0
 20 28  1  0
 28 29  2  0
 11  2  1  0
 29 13  1  0
 29 17  1  0
  1 30  1  0
  1 31  1  0
  7 32  1  0
  7 33  1  0
  7 34  1  0
  9 35  1  0
  9 36  1  0
  9 37  1  0
 10 38  1  0
 12 39  1  0
 18 40  1  0
 19 41  1  0
 26 42  1  0
 26 43  1  0
 27 44  1  0
 27 45  1  0
 27 46  1  0
 28 47  1  0
M  CHG  3  15  -1  16  -1  22  -1
M  END
>  <UniqueID>  (59) 
51

>  <SMILES>  (59) 
C=c1c(C(=O)OC)c(C)[nH]c1=Cc1c([O-])[n-]c2ccc(S[N-]C(=O)OCC)cc12

>  <Energy>  (59) 
110.68473430658638

>  <Genealogy>  (59) 
C=c1c(C(=O)OC)c(C)[nH]c1=Cc1c([O-])[n-]c2ccc(S[N-]C(=O)OCC)cc12 (protonated)
C=c1c(C(=O)OC)c(C)[nH]c1=Cc1c([O-])[n-]c2ccc(S[N-]C(=O)OCC)cc12 (3D coordinates assigned)
C=c1c(C(=O)OC)c(C)[nH]c1=Cc1c([O-])[n-]c2ccc(S[N-]C(=O)OCC)cc12 (optimized conformer: 110.68473430658638 kcal/mol)

>  <smiles>  (59) 
C=c1c(C(=O)OC)c(C)[nH]c1=Cc1c(O)[nH]c2ccc(SNC(=O)OCC)cc12

>  <score_type>  (59) 
oracle

>  <origin>  (59) 
adg

>  <m_score__min__energy>  (59) 
-12.789999999999999

>  <m_primary>  (59) 
energy

$$$$
59:0
     RDKit          3D

 28 29  0  0  0  0  0  0  0  0999 V2000
   59.2520   29.0570   53.8750 C   0  0  0  0  0  0  0  0  0  0  0  0
   57.9020   29.5930   53.5330 C   0  0  0  0  0  0  0  0  0  0  0  0
   57.5690   30.2570   52.3650 C   0  0  0  0  0  0  0  0  0  0  0  0
   56.2490   30.6020   52.5560 C   0  0  0  0  0  0  0  0  0  0  0  0
   55.4450   31.2900   51.6530 O   0  0  0  0  0  0  0  0  0  0  0  0
   55.8410   30.1730   53.7650 N   0  0  0  0  0  0  0  0  0  0  0  0
   54.5090   30.3310   54.3420 C   0  0  0  0  0  0  0  0  0  0  0  0
   53.4760   29.6760   53.4650 C   0  0  0  0  0  0  0  0  0  0  0  0
   53.2180   28.4570   53.6630 O   0  0  0  0  0  0  0  0  0  0  0  0
   52.7290   30.4200   52.4110 C   0  0  0  0  0  0  0  0  0  0  0  0
   52.7120   29.9320   51.0900 C   0  0  0  0  0  0  0  0  0  0  0  0
   52.0110   30.6100   50.0890 C   0  0  0  0  0  0  0  0  0  0  0  0
   51.3200   31.7850   50.3880 C   0  0  0  0  0  0  0  0  0  0  0  0
   50.6250   32.4540   49.3870 O   0  0  0  0  0  0  0  0  0  0  0  0
   51.3300   32.2860   51.6930 C   0  0  0  0  0  0  0  0  0  0  0  0
   50.6470   33.4580   51.9970 O   0  0  0  0  0  0  0  0  0  0  0  0
   52.0300   31.6110   52.6990 C   0  0  0  0  0  0  0  0  0  0  0  0
   56.8460   29.5630   54.3730 N   0  0  0  0  0  0  0  0  0  0  0  0
   59.3628   29.0130   54.9685 H   0  0  0  0  0  0  0  0  0  0  0  0
   59.3627   28.0467   53.4543 H   0  0  0  0  0  0  0  0  0  0  0  0
   60.0256   29.7162   53.4543 H   0  0  0  0  0  0  0  0  0  0  0  0
   58.2066   30.4607   51.4921 H   0  0  0  0  0  0  0  0  0  0  0  0
   54.7640   31.9670   51.9750 H   0  0  0  0  0  0  0  0  0  0  0  0
   54.4877   29.8641   55.3378 H   0  0  0  0  0  0  0  0  0  0  0  0
   54.2801   31.4039   54.4225 H   0  0  0  0  0  0  0  0  0  0  0  0
   53.2558   29.0081   50.8437 H   0  0  0  0  0  0  0  0  0  0  0  0
   52.0039   30.2162   49.0619 H   0  0  0  0  0  0  0  0  0  0  0  0
   52.0353   32.0124   53.7231 H   0  0  0  0  0  0  0  0  0  0  0  0
  1  2  1  0
  2  3  1  0
  3  4  2  0
  4  5  1  0
  4  6  1  0
  6  7  1  0
  7  8  1  0
  8  9  2  0
  8 10  1  0
 10 11  2  0
 11 12  1  0
 12 13  2  0
 13 14  1  0
 13 15  1  0
 15 16  1  0
 15 17  2  0
  6 18  1  0
 18  2  2  0
 17 10  1  0
  1 19  1  0
  1 20  1  0
  1 21  1  0
  3 22  1  0
  5 23  1  0
  7 24  1  0
  7 25  1  0
 11 26  1  0
 12 27  1  0
 17 28  1  0
M  CHG  2  14  -1  16  -1
M  END
>  <UniqueID>  (60) 
52

>  <SMILES>  (60) 
Cc1cc(O)n(CC(=O)c2ccc([O-])c([O-])c2)n1

>  <Energy>  (60) 
57.81902907407387

>  <Genealogy>  (60) 
Cc1cc(O)n(CC(=O)c2ccc([O-])c([O-])c2)n1 (protonated)
Cc1cc(O)n(CC(=O)c2ccc([O-])c([O-])c2)n1 (3D coordinates assigned)
Cc1cc(O)n(CC(=O)c2ccc([O-])c([O-])c2)n1 (optimized conformer: 57.81902907407387 kcal/mol)

>  <smiles>  (60) 
Cc1cc(O)n(CC(=O)c2ccc(O)c(O)c2)n1

>  <score_type>  (60) 
oracle

>  <origin>  (60) 
adg

>  <m_score__min__energy>  (60) 
-14.699999999999999

>  <m_primary>  (60) 
energy

$$$$
60:0
     RDKit          3D

 44 47  0  0  0  0  0  0  0  0999 V2000
   54.2430   26.8240   46.7480 H   0  0  0  0  0  0  0  0  0  0  0  0
   54.7850   26.3440   46.0000 N   0  0  0  0  0  0  0  0  0  0  0  0
   55.9670   25.8210   46.1210 C   0  0  0  0  0  0  0  0  0  0  0  0
   56.0440   24.4760   46.3090 N   0  0  0  0  0  0  0  0  0  0  0  0
   57.2210   23.8200   46.4550 C   0  0  0  0  0  0  0  0  0  0  0  0
   57.2271   22.7301   46.6039 H   0  0  0  0  0  0  0  0  0  0  0  0
   58.4210   24.5220   46.4170 C   0  0  0  0  0  0  0  0  0  0  0  0
   59.3770   23.9914   46.5378 H   0  0  0  0  0  0  0  0  0  0  0  0
   58.4040   25.9080   46.2240 C   0  0  0  0  0  0  0  0  0  0  0  0
   59.6110   26.6170   46.1790 C   0  0  0  0  0  0  0  0  0  0  0  0
   60.5643   26.0810   46.2969 H   0  0  0  0  0  0  0  0  0  0  0  0
   59.6120   27.9960   45.9860 C   0  0  0  0  0  0  0  0  0  0  0  0
   60.5675   28.5396   45.9476 H   0  0  0  0  0  0  0  0  0  0  0  0
   58.4070   28.6990   45.8400 C   0  0  0  0  0  0  0  0  0  0  0  0
   58.4390   30.1690   45.6270 C   0  0  0  0  0  0  0  0  0  0  0  0
   59.3710   30.9160   46.2830 N   0  0  0  0  0  0  0  0  0  0  0  0
   59.4650   32.2680   46.1440 C   0  0  0  0  0  0  0  0  0  0  0  0
   60.4650   32.9910   46.8880 N   0  0  0  0  0  0  0  0  0  0  0  0
   60.1360   34.2220   47.6210 C   0  0  0  0  0  0  0  0  0  0  0  0
   60.5756   35.0836   47.0972 H   0  0  0  0  0  0  0  0  0  0  0  0
   59.0419   34.3254   47.6695 H   0  0  0  0  0  0  0  0  0  0  0  0
   60.6930   34.1620   49.0510 C   0  0  0  0  0  0  0  0  0  0  0  0
   60.7862   35.1899   49.4314 H   0  0  0  0  0  0  0  0  0  0  0  0
   59.9916   33.5581   49.6454 H   0  0  0  0  0  0  0  0  0  0  0  0
   62.0750   33.4780   49.1480 C   0  0  0  0  0  0  0  0  0  0  0  0
   62.7184   34.0767   49.8095 H   0  0  0  0  0  0  0  0  0  0  0  0
   61.9169   32.4638   49.5435 H   0  0  0  0  0  0  0  0  0  0  0  0
   62.7670   33.3410   47.7800 C   0  0  1  0  0  0  0  0  0  0  0  0
   62.9317   34.3420   47.3546 H   0  0  0  0  0  0  0  0  0  0  0  0
   64.0730   32.6970   47.9370 N   0  0  0  0  0  0  0  0  0  0  0  0
   64.1460   31.8880   47.2770 H   0  0  0  0  0  0  0  0  0  0  0  0
   64.8160   33.3840   47.6710 H   0  0  0  0  0  0  0  0  0  0  0  0
   61.8650   32.5490   46.8090 C   0  0  0  0  0  0  0  0  0  0  0  0
   62.2290   32.6982   45.7817 H   0  0  0  0  0  0  0  0  0  0  0  0
   61.9066   31.4864   47.0902 H   0  0  0  0  0  0  0  0  0  0  0  0
   58.5470   32.9360   45.3180 C   0  0  0  0  0  0  0  0  0  0  0  0
   58.5938   34.0294   45.2072 H   0  0  0  0  0  0  0  0  0  0  0  0
   57.5750   32.2010   44.6390 C   0  0  0  0  0  0  0  0  0  0  0  0
   56.8552   32.7145   43.9847 H   0  0  0  0  0  0  0  0  0  0  0  0
   57.5150   30.8150   44.7890 C   0  0  0  0  0  0  0  0  0  0  0  0
   56.7498   30.2325   44.2550 H   0  0  0  0  0  0  0  0  0  0  0  0
   57.1910   27.9890   45.8700 C   0  0  0  0  0  0  0  0  0  0  0  0
   56.2441   28.5324   45.7356 H   0  0  0  0  0  0  0  0  0  0  0  0
   57.1670   26.5890   46.0700 C   0  0  0  0  0  0  0  0  0  0  0  0
  1  2  1  0
  2  3  2  0
  3  4  1  0
  4  5  1  0
  5  6  1  0
  5  7  2  0
  7  8  1  0
  7  9  1  0
  9 10  2  0
 10 11  1  0
 10 12  1  0
 12 13  1  0
 12 14  2  0
 14 15  1  0
 15 16  2  0
 16 17  1  0
 17 18  1  0
 18 19  1  0
 19 20  1  0
 19 21  1  0
 19 22  1  0
 22 23  1  0
 22 24  1  0
 22 25  1  0
 25 26  1  0
 25 27  1  0
 25 28  1  0
 28 29  1  6
 28 30  1  0
 30 31  1  0
 30 32  1  0
 28 33  1  0
 33 34  1  0
 33 35  1  0
 17 36  2  0
 36 37  1  0
 36 38  1  0
 38 39  1  0
 38 40  2  0
 40 41  1  0
 14 42  1  0
 42 43  1  0
 42 44  2  0
 44  3  1  0
 44  9  1  0
 40 15  1  0
 33 18  1  0
M  CHG  1   4  -1
M  END
>  <UniqueID>  (61) 
53

>  <SMILES>  (61) 
[H]/N=c1/[n-]ccc2ccc(-c3cccc(N4CCC[C@@H](N)C4)n3)cc12

>  <Energy>  (61) 
64.90110604031094

>  <Genealogy>  (61) 
N=c1[n-]ccc2ccc(-c3cccc(N4CCCC(N)C4)n3)cc12 (protonated)
N=c1[n-]ccc2ccc(-c3cccc(N4CCC[C@@H](N)C4)n3)cc12 (chirality)
[H]/N=c1/[n-]ccc2ccc(-c3cccc(N4CCC[C@@H](N)C4)n3)cc12 (cis-trans isomerization)
[H]/N=c1/[n-]ccc2ccc(-c3cccc(N4CCC[C@@H](N)C4)n3)cc12 (3D coordinates assigned)
[H]/N=c1/[n-]ccc2ccc(-c3cccc(N4CCC[C@@H](N)C4)n3)cc12 (nonaromatic ring conformer: 64.90110604031094 kcal/mol)

>  <smiles>  (61) 
N=c1[nH]ccc2ccc(-c3cccc(N4CCCC(N)C4)n3)cc12

>  <score_type>  (61) 
oracle

>  <origin>  (61) 
adg

>  <m_score__min__energy>  (61) 
-11.01

>  <m_primary>  (61) 
energy

$$$$
61:0
     RDKit          3D

 25 26  0  0  0  0  0  0  0  0999 V2000
   55.7900   29.6410   43.3070 O   0  0  0  0  0  0  0  0  0  0  0  0
   56.5300   30.0490   44.2450 C   0  0  0  0  0  0  0  0  0  0  0  0
   56.2740   31.3130   44.8670 N   0  0  0  0  0  0  0  0  0  0  0  0
   57.2550   32.3450   45.0350 C   0  0  0  0  0  0  0  0  0  0  0  0
   57.4060   32.9250   46.3030 C   0  0  0  0  0  0  0  0  0  0  0  0
   58.3490   33.9350   46.5100 C   0  0  0  0  0  0  0  0  0  0  0  0
   59.1350   34.3870   45.4490 C   0  0  0  0  0  0  0  0  0  0  0  0
   58.9700   33.8400   44.1740 C   0  0  0  0  0  0  0  0  0  0  0  0
   58.0270   32.8260   43.9550 C   0  0  0  0  0  0  0  0  0  0  0  0
   57.7780   32.2580   42.3080 Cl  0  0  0  0  0  0  0  0  0  0  0  0
   57.6490   29.2600   44.6650 N   0  0  0  0  0  0  0  0  0  0  0  0
   58.5670   29.6380   45.7280 C   0  0  0  0  0  0  0  0  0  0  0  0
   59.5180   28.4940   45.7810 C   0  0  0  0  0  0  0  0  0  0  0  0
   59.2070   27.5700   44.8780 C   0  0  0  0  0  0  0  0  0  0  0  0
   58.0020   27.9670   44.0960 C   0  0  0  0  0  0  0  0  0  0  0  0
   56.7785   32.5828   47.1392 H   0  0  0  0  0  0  0  0  0  0  0  0
   58.4721   34.3746   47.5108 H   0  0  0  0  0  0  0  0  0  0  0  0
   59.8847   35.1743   45.6167 H   0  0  0  0  0  0  0  0  0  0  0  0
   59.5832   34.2069   43.3377 H   0  0  0  0  0  0  0  0  0  0  0  0
   59.0899   30.5742   45.4829 H   0  0  0  0  0  0  0  0  0  0  0  0
   58.0621   29.8233   46.6876 H   0  0  0  0  0  0  0  0  0  0  0  0
   60.3671   28.4228   46.4767 H   0  0  0  0  0  0  0  0  0  0  0  0
   59.7658   26.6346   44.7274 H   0  0  0  0  0  0  0  0  0  0  0  0
   58.2385   28.0581   43.0256 H   0  0  0  0  0  0  0  0  0  0  0  0
   57.1864   27.2314   44.1562 H   0  0  0  0  0  0  0  0  0  0  0  0
  1  2  2  0
  2  3  1  0
  3  4  1  0
  4  5  2  0
  5  6  1  0
  6  7  2  0
  7  8  1  0
  8  9  2  0
  9 10  1  0
  2 11  1  0
 11 12  1  0
 12 13  1  0
 13 14  2  0
 14 15  1  0
  9  4  1  0
 15 11  1  0
  5 16  1  0
  6 17  1  0
  7 18  1  0
  8 19  1  0
 12 20  1  0
 12 21  1  0
 13 22  1  0
 14 23  1  0
 15 24  1  0
 15 25  1  0
M  CHG  1   3  -1
M  END
>  <UniqueID>  (62) 
54

>  <SMILES>  (62) 
O=C([N-]c1ccccc1Cl)N1CC=CC1

>  <Energy>  (62) 
36.36552843058125

>  <Genealogy>  (62) 
O=C([N-]c1ccccc1Cl)N1CC=CC1 (protonated)
O=C([N-]c1ccccc1Cl)N1CC=CC1 (3D coordinates assigned)
O=C([N-]c1ccccc1Cl)N1CC=CC1 (nonaromatic ring conformer: 36.36552843058125 kcal/mol)

>  <smiles>  (62) 
O=C(Nc1ccccc1Cl)N1CC=CC1

>  <score_type>  (62) 
oracle

>  <origin>  (62) 
adg

>  <m_score__min__energy>  (62) 
-8.1799999999999997

>  <m_primary>  (62) 
energy

$$$$
62:0
     RDKit          3D

 55 57  0  0  0  0  0  0  0  0999 V2000
   58.5010   28.2070   47.3420 H   0  0  0  0  0  0  0  0  0  0  0  0
   58.5290   28.7510   48.2340 N   0  0  0  0  0  0  0  0  0  0  0  0
   59.4890   29.5790   48.4870 C   0  0  0  0  0  0  0  0  0  0  0  0
   59.8990   29.7810   49.7650 N   0  0  0  0  0  0  0  0  0  0  0  0
   60.9040   30.6440   50.0670 C   0  0  0  0  0  0  0  0  0  0  0  0
   61.2840   30.7820   51.4420 N   0  0  0  0  0  0  0  0  0  0  0  0
   61.2910   31.7300   51.8770 H   0  0  0  0  0  0  0  0  0  0  0  0
   61.5060   29.9780   52.0610 H   0  0  0  0  0  0  0  0  0  0  0  0
   61.5350   31.3680   49.0240 C   0  0  0  0  0  0  0  0  0  0  0  0
   62.6610   32.3590   49.2680 C   0  0  0  0  0  0  0  0  0  0  0  0
   63.0659   32.1938   50.2773 H   0  0  0  0  0  0  0  0  0  0  0  0
   63.4285   32.1949   48.4972 H   0  0  0  0  0  0  0  0  0  0  0  0
   62.1860   33.8140   49.1580 C   0  0  0  0  0  0  0  0  0  0  0  0
   62.9546   34.4720   49.5896 H   0  0  0  0  0  0  0  0  0  0  0  0
   62.0220   34.0380   48.0936 H   0  0  0  0  0  0  0  0  0  0  0  0
   60.8860   34.0410   49.8870 C   0  0  0  0  0  0  0  0  0  0  0  0
   60.7860   33.6730   51.0850 O   0  0  0  0  0  0  0  0  0  0  0  0
   59.7250   34.5620   49.2260 N   0  0  0  0  0  0  0  0  0  0  0  0
   59.2950   34.2350   47.9000 C   0  0  0  0  0  0  0  0  0  0  0  0
   59.7720   34.9900   46.8230 C   0  0  0  0  0  0  0  0  0  0  0  0
   60.4324   35.8502   47.0071 H   0  0  0  0  0  0  0  0  0  0  0  0
   59.4130   34.6560   45.5140 C   0  0  0  0  0  0  0  0  0  0  0  0
   59.7778   35.2631   44.6724 H   0  0  0  0  0  0  0  0  0  0  0  0
   58.5900   33.5500   45.2730 C   0  0  0  0  0  0  0  0  0  0  0  0
   58.1630   33.0980   43.5920 S   0  0  0  0  0  0  0  0  0  0  0  0
   57.7980   31.3990   44.0320 C   0  0  0  0  0  0  0  0  0  0  0  0
   56.4700   30.9730   44.1410 C   0  0  0  0  0  0  0  0  0  0  0  0
   55.6493   31.6781   43.9430 H   0  0  0  0  0  0  0  0  0  0  0  0
   56.1840   29.6530   44.5010 C   0  0  0  0  0  0  0  0  0  0  0  0
   55.1380   29.3259   44.5957 H   0  0  0  0  0  0  0  0  0  0  0  0
   57.2280   28.7400   44.7430 C   0  0  0  0  0  0  0  0  0  0  0  0
   56.9650   27.3850   45.1490 N   0  0  0  0  0  0  0  0  0  0  0  0
   55.9810   27.0380   45.0810 H   0  0  0  0  0  0  0  0  0  0  0  0
   57.9460   26.5150   45.7410 C   0  0  0  0  0  0  0  0  0  0  0  0
   59.0720   26.9650   46.0950 O   0  0  0  0  0  0  0  0  0  0  0  0
   57.6370   25.0510   45.9050 C   0  0  0  0  0  0  0  0  0  0  0  0
   58.4960   24.4654   45.5456 H   0  0  0  0  0  0  0  0  0  0  0  0
   57.4429   24.8647   46.9716 H   0  0  0  0  0  0  0  0  0  0  0  0
   56.3900   24.6300   45.1200 C   0  0  0  0  0  0  0  0  0  0  0  0
   56.3937   25.1294   44.1399 H   0  0  0  0  0  0  0  0  0  0  0  0
   56.4041   23.5378   44.9897 H   0  0  0  0  0  0  0  0  0  0  0  0
   55.1490   25.0120   45.8620 C   0  0  0  0  0  0  0  0  0  0  0  0
   54.4510   24.1280   46.4270 O   0  0  0  0  0  0  0  0  0  0  0  0
   54.7390   26.3390   45.8990 O   0  0  0  0  0  0  0  0  0  0  0  0
   58.5560   29.1820   44.6520 C   0  0  0  0  0  0  0  0  0  0  0  0
   59.3796   28.4845   44.8645 H   0  0  0  0  0  0  0  0  0  0  0  0
   58.8400   30.5030   44.2930 C   0  0  0  0  0  0  0  0  0  0  0  0
   59.8848   30.8384   44.2156 H   0  0  0  0  0  0  0  0  0  0  0  0
   58.1320   32.7760   46.3440 C   0  0  0  0  0  0  0  0  0  0  0  0
   57.4902   31.9027   46.1559 H   0  0  0  0  0  0  0  0  0  0  0  0
   58.4890   33.1110   47.6530 C   0  0  0  0  0  0  0  0  0  0  0  0
   58.1379   32.4928   48.4924 H   0  0  0  0  0  0  0  0  0  0  0  0
   61.0920   31.1250   47.7060 C   0  0  0  0  0  0  0  0  0  0  0  0
   61.6200   31.7220   46.7290 O   0  0  0  0  0  0  0  0  0  0  0  0
   60.0880   30.2450   47.4720 N   0  0  0  0  0  0  0  0  0  0  0  0
  1  2  1  0
  2  3  2  0
  3  4  1  0
  4  5  1  0
  5  6  1  0
  6  7  1  0
  6  8  1  0
  5  9  2  0
  9 10  1  0
 10 11  1  0
 10 12  1  0
 10 13  1  0
 13 14  1  0
 13 15  1  0
 13 16  1  0
 16 17  2  0
 16 18  1  0
 18 19  1  0
 19 20  2  0
 20 21  1  0
 20 22  1  0
 22 23  1  0
 22 24  2  0
 24 25  1  0
 25 26  1  0
 26 27  2  0
 27 28  1  0
 27 29  1  0
 29 30  1  0
 29 31  2  0
 31 32  1  0
 32 33  1  0
 32 34  1  0
 34 35  2  0
 34 36  1  0
 36 37  1  0
 36 38  1  0
 36 39  1  0
 39 40  1  0
 39 41  1  0
 39 42  1  0
 42 43  2  0
 42 44  1  0
 31 45  1  0
 45 46  1  0
 45 47  2  0
 47 48  1  0
 24 49  1  0
 49 50  1  0
 49 51  2  0
 51 52  1  0
  9 53  1  0
 53 54  2  0
 53 55  1  0
 55  3  1  0
 51 19  1  0
 47 26  1  0
M  CHG  4   4  -1  18  -1  44  -1  55  -1
M  END
>  <UniqueID>  (63) 
55

>  <SMILES>  (63) 
[H]/N=c1\[n-]c(N)c(CCC(=O)[N-]c2ccc(Sc3ccc(NC(=O)CCC(=O)[O-])cc3)cc2)c(=O)[n-]1

>  <Energy>  (63) 
58.401440313632015

>  <Genealogy>  (63) 
N=c1[n-]c(N)c(CCC(=O)[N-]c2ccc(Sc3ccc(NC(=O)CCC(=O)[O-])cc3)cc2)c(=O)[n-]1 (protonated)
[H]/N=c1\[n-]c(N)c(CCC(=O)[N-]c2ccc(Sc3ccc(NC(=O)CCC(=O)[O-])cc3)cc2)c(=O)[n-]1 (cis-trans isomerization)
[H]/N=c1\[n-]c(N)c(CCC(=O)[N-]c2ccc(Sc3ccc(NC(=O)CCC(=O)[O-])cc3)cc2)c(=O)[n-]1 (3D coordinates assigned)
[H]/N=c1\[n-]c(N)c(CCC(=O)[N-]c2ccc(Sc3ccc(NC(=O)CCC(=O)[O-])cc3)cc2)c(=O)[n-]1 (optimized conformer: 58.401440313632015 kcal/mol)

>  <smiles>  (63) 
N=c1[nH]c(N)c(CCC(=O)Nc2ccc(Sc3ccc(NC(=O)CCC(=O)O)cc3)cc2)c(=O)[nH]1

>  <score_type>  (63) 
oracle

>  <origin>  (63) 
adg

>  <m_score__min__energy>  (63) 
-17.789999999999999

>  <m_primary>  (63) 
energy

$$$$
63:0
     RDKit          3D

 36 38  0  0  0  0  0  0  0  0999 V2000
   57.5448   26.1997   47.6113 H   0  0  0  0  0  0  0  0  0  0  0  0
   57.3270   26.3380   46.5420 C   0  0  0  0  0  0  0  0  0  0  0  0
   57.0520   25.1220   45.7520 C   0  0  0  0  0  0  0  0  0  0  0  0
   58.0990   24.2930   45.3200 C   0  0  0  0  0  0  0  0  0  0  0  0
   59.1353   24.5243   45.6076 H   0  0  0  0  0  0  0  0  0  0  0  0
   57.8300   23.1750   44.5260 C   0  0  0  0  0  0  0  0  0  0  0  0
   58.6554   22.5215   44.2072 H   0  0  0  0  0  0  0  0  0  0  0  0
   56.5140   22.8780   44.1310 C   0  0  0  0  0  0  0  0  0  0  0  0
   56.2410   21.7260   43.3140 N   0  0  0  0  0  0  0  0  0  0  0  0
   56.2660   20.5770   43.8030 O   0  0  0  0  0  0  0  0  0  0  0  0
   55.9480   21.8700   41.9760 O   0  0  0  0  0  0  0  0  0  0  0  0
   55.4730   23.7320   44.5410 C   0  0  0  0  0  0  0  0  0  0  0  0
   54.4387   23.5178   44.2340 H   0  0  0  0  0  0  0  0  0  0  0  0
   55.7430   24.8500   45.3350 C   0  0  0  0  0  0  0  0  0  0  0  0
   54.9232   25.5197   45.6339 H   0  0  0  0  0  0  0  0  0  0  0  0
   57.3360   27.6040   46.0740 C   0  0  0  0  0  0  0  0  0  0  0  0
   56.2300   28.0330   45.4060 N   0  0  0  0  0  0  0  0  0  0  0  0
   56.1260   29.2820   44.8840 C   0  0  0  0  0  0  0  0  0  0  0  0
   55.0730   29.6060   44.2720 O   0  0  0  0  0  0  0  0  0  0  0  0
   57.1940   30.1870   45.0400 C   0  0  0  0  0  0  0  0  0  0  0  0
   57.1490   31.4280   44.5120 C   0  0  0  0  0  0  0  0  0  0  0  0
   56.5841   31.5687   43.5787 H   0  0  0  0  0  0  0  0  0  0  0  0
   57.8100   32.6140   45.1060 C   0  0  0  0  0  0  0  0  0  0  0  0
   57.7880   32.7770   46.5010 C   0  0  0  0  0  0  0  0  0  0  0  0
   57.2654   32.0406   47.1291 H   0  0  0  0  0  0  0  0  0  0  0  0
   58.4260   33.8690   47.0960 C   0  0  0  0  0  0  0  0  0  0  0  0
   58.3926   33.9963   48.1881 H   0  0  0  0  0  0  0  0  0  0  0  0
   59.1060   34.7990   46.3060 C   0  0  0  0  0  0  0  0  0  0  0  0
   59.6009   35.6622   46.7750 H   0  0  0  0  0  0  0  0  0  0  0  0
   59.1570   34.6320   44.9200 C   0  0  0  0  0  0  0  0  0  0  0  0
   59.6993   35.3605   44.2993 H   0  0  0  0  0  0  0  0  0  0  0  0
   58.5210   33.5420   44.3200 C   0  0  0  0  0  0  0  0  0  0  0  0
   58.5757   33.4080   43.2296 H   0  0  0  0  0  0  0  0  0  0  0  0
   58.2960   29.7680   45.7200 N   0  0  0  0  0  0  0  0  0  0  0  0
   58.4000   28.5220   46.2490 C   0  0  0  0  0  0  0  0  0  0  0  0
   59.4320   28.2320   46.9100 O   0  0  0  0  0  0  0  0  0  0  0  0
  1  2  1  0
  2  3  1  0
  3  4  2  0
  4  5  1  0
  4  6  1  0
  6  7  1  0
  6  8  2  0
  8  9  1  0
  9 10  2  0
  9 11  1  0
  8 12  1  0
 12 13  1  0
 12 14  2  0
 14 15  1  0
  2 16  2  3
 16 17  1  0
 17 18  1  0
 18 19  2  0
 18 20  1  0
 20 21  2  0
 21 22  1  0
 21 23  1  0
 23 24  2  0
 24 25  1  0
 24 26  1  0
 26 27  1  0
 26 28  2  0
 28 29  1  0
 28 30  1  0
 30 31  1  0
 30 32  2  0
 32 33  1  0
 20 34  1  0
 34 35  1  0
 35 36  2  0
 14  3  1  0
 35 16  1  0
 32 23  1  0
M  CHG  4   9   1  11  -1  17  -1  34  -1
M  END
>  <UniqueID>  (64) 
56

>  <SMILES>  (64) 
O=c1[n-]/c(=C\c2ccccc2)c(=O)[n-]c1=Cc1ccc([N+](=O)[O-])cc1

>  <Energy>  (64) 
61.74747730028462

>  <Genealogy>  (64) 
O=c1[n-]c(=Cc2ccc([N+](=O)[O-])cc2)c(=O)[n-]c1=Cc1ccccc1 (protonated)
O=c1[n-]/c(=C\c2ccccc2)c(=O)[n-]c1=Cc1ccc([N+](=O)[O-])cc1 (cis-trans isomerization)
O=c1[n-]/c(=C\c2ccccc2)c(=O)[n-]c1=Cc1ccc([N+](=O)[O-])cc1 (3D coordinates assigned)
O=c1[n-]/c(=C\c2ccccc2)c(=O)[n-]c1=Cc1ccc([N+](=O)[O-])cc1 (optimized conformer: 61.74747730028462 kcal/mol)

>  <smiles>  (64) 
O=c1[nH]c(=Cc2ccc([N+](=O)[O-])cc2)c(=O)[nH]c1=Cc1ccccc1

>  <score_type>  (64) 
oracle

>  <origin>  (64) 
adg

>  <m_score__min__energy>  (64) 
-11.800000000000001

>  <m_primary>  (64) 
energy

$$$$
64:0
     RDKit          3D

 20 20  0  0  0  0  0  0  0  0999 V2000
   50.5830   32.3290   51.7840 O   0  0  0  0  0  0  0  0  0  0  0  0
   51.2460   32.0080   50.7640 C   0  0  0  0  0  0  0  0  0  0  0  0
   51.3970   32.9200   49.7270 O   0  0  0  0  0  0  0  0  0  0  0  0
   51.8220   30.6330   50.6400 C   0  0  0  0  0  0  0  0  0  0  0  0
   52.8330   30.4120   51.6870 N   0  0  0  0  0  0  0  0  0  0  0  0
   54.0990   30.8970   51.4950 C   0  0  0  0  0  0  0  0  0  0  0  0
   55.1090   30.6790   52.4470 C   0  0  0  0  0  0  0  0  0  0  0  0
   56.4840   31.2650   52.2540 C   0  0  0  0  0  0  0  0  0  0  0  0
   56.4390   32.6470   52.3340 F   0  0  0  0  0  0  0  0  0  0  0  0
   56.9970   30.9200   51.0160 F   0  0  0  0  0  0  0  0  0  0  0  0
   57.3260   30.7850   53.2400 F   0  0  0  0  0  0  0  0  0  0  0  0
   54.7850   29.9830   53.6190 C   0  0  0  0  0  0  0  0  0  0  0  0
   53.4980   29.4800   53.7980 C   0  0  0  0  0  0  0  0  0  0  0  0
   52.5280   29.6940   52.8170 C   0  0  0  0  0  0  0  0  0  0  0  0
   51.3720   29.2180   52.9870 O   0  0  0  0  0  0  0  0  0  0  0  0
   51.0177   29.8904   50.7483 H   0  0  0  0  0  0  0  0  0  0  0  0
   52.2968   30.5291   49.6532 H   0  0  0  0  0  0  0  0  0  0  0  0
   54.3287   31.4657   50.5819 H   0  0  0  0  0  0  0  0  0  0  0  0
   55.5470   29.8336   54.3982 H   0  0  0  0  0  0  0  0  0  0  0  0
   53.2472   28.9164   54.7088 H   0  0  0  0  0  0  0  0  0  0  0  0
  1  2  2  0
  2  3  1  0
  2  4  1  0
  4  5  1  0
  5  6  1  0
  6  7  2  0
  7  8  1  0
  8  9  1  0
  8 10  1  0
  8 11  1  0
  7 12  1  0
 12 13  2  0
 13 14  1  0
 14 15  2  0
 14  5  1  0
  4 16  1  0
  4 17  1  0
  6 18  1  0
 12 19  1  0
 13 20  1  0
M  CHG  1   3  -1
M  END
>  <UniqueID>  (65) 
57

>  <SMILES>  (65) 
O=C([O-])Cn1cc(C(F)(F)F)ccc1=O

>  <Energy>  (65) 
20.193898746842653

>  <Genealogy>  (65) 
O=C([O-])Cn1cc(C(F)(F)F)ccc1=O (protonated)
O=C([O-])Cn1cc(C(F)(F)F)ccc1=O (3D coordinates assigned)
O=C([O-])Cn1cc(C(F)(F)F)ccc1=O (optimized conformer: 20.193898746842653 kcal/mol)

>  <smiles>  (65) 
O=C(O)Cn1cc(C(F)(F)F)ccc1=O

>  <score_type>  (65) 
oracle

>  <origin>  (65) 
adg

>  <m_score__min__energy>  (65) 
-8

>  <m_primary>  (65) 
energy

$$$$
65:0
     RDKit          3D

 29 29  0  0  0  0  0  0  0  0999 V2000
   57.7510   30.7070   47.0650 H   0  0  0  0  0  0  0  0  0  0  0  0
   58.1490   31.3760   46.3680 N   0  0  0  0  0  0  0  0  0  0  0  0
   57.5340   31.4830   45.0750 C   0  0  0  0  0  0  0  0  0  0  0  0
   56.4770   30.7630   44.8280 N   0  0  0  0  0  0  0  0  0  0  0  0
   56.3320   29.7830   43.7540 C   0  0  0  0  0  0  0  0  0  0  0  0
   56.3089   30.3051   42.7861 H   0  0  0  0  0  0  0  0  0  0  0  0
   55.3959   29.2243   43.9012 H   0  0  0  0  0  0  0  0  0  0  0  0
   57.5060   28.8040   43.7720 C   0  0  0  0  0  0  0  0  0  0  0  0
   58.4423   29.3697   43.6566 H   0  0  0  0  0  0  0  0  0  0  0  0
   57.3678   28.0917   42.9453 H   0  0  0  0  0  0  0  0  0  0  0  0
   57.5670   28.0090   45.0760 C   0  0  0  0  0  0  0  0  0  0  0  0
   57.5139   28.7005   45.9298 H   0  0  0  0  0  0  0  0  0  0  0  0
   56.7200   27.3085   45.1183 H   0  0  0  0  0  0  0  0  0  0  0  0
   58.5110   27.4459   45.1183 H   0  0  0  0  0  0  0  0  0  0  0  0
   58.0620   32.5150   44.1010 C   0  0  0  0  0  0  0  0  0  0  0  0
   59.1519   32.3958   44.0119 H   0  0  0  0  0  0  0  0  0  0  0  0
   57.5666   32.3558   43.1319 H   0  0  0  0  0  0  0  0  0  0  0  0
   57.7540   33.9490   44.5660 C   0  0  0  0  0  0  0  0  0  0  0  0
   58.4855   34.6239   44.0976 H   0  0  0  0  0  0  0  0  0  0  0  0
   56.7157   34.1529   44.2653 H   0  0  0  0  0  0  0  0  0  0  0  0
   57.8110   34.1670   46.0930 C   0  0  0  0  0  0  0  0  0  0  0  0
   57.7103   35.2441   46.2925 H   0  0  0  0  0  0  0  0  0  0  0  0
   56.9918   33.5765   46.5292 H   0  0  0  0  0  0  0  0  0  0  0  0
   59.1140   33.6730   46.7490 C   0  0  0  0  0  0  0  0  0  0  0  0
   59.9561   34.1443   46.2211 H   0  0  0  0  0  0  0  0  0  0  0  0
   59.0352   33.9510   47.8104 H   0  0  0  0  0  0  0  0  0  0  0  0
   59.3440   32.1400   46.7350 C   0  0  0  0  0  0  0  0  0  0  0  0
   60.1393   31.9133   46.0096 H   0  0  0  0  0  0  0  0  0  0  0  0
   59.6178   31.8432   47.7582 H   0  0  0  0  0  0  0  0  0  0  0  0
  1  2  1  0
  2  3  1  0
  3  4  2  0
  4  5  1  0
  5  6  1  0
  5  7  1  0
  5  8  1  0
  8  9  1  0
  8 10  1  0
  8 11  1  0
 11 12  1  0
 11 13  1  0
 11 14  1  0
  3 15  1  0
 15 16  1  0
 15 17  1  0
 15 18  1  0
 18 19  1  0
 18 20  1  0
 18 21  1  0
 21 22  1  0
 21 23  1  0
 21 24  1  0
 24 25  1  0
 24 26  1  0
 24 27  1  0
 27 28  1  0
 27 29  1  0
 27  2  1  0
M  END
>  <UniqueID>  (66) 
58

>  <SMILES>  (66) 
CCC/N=C1\CCCCCN1

>  <Energy>  (66) 
23.680229199277196

>  <Genealogy>  (66) 
CCC/N=C1\CCCCCN1 (cis-trans isomerization)
CCC/N=C1\CCCCCN1 (3D coordinates assigned)
CCC/N=C1\CCCCCN1 (nonaromatic ring conformer: 23.680229199277196 kcal/mol)

>  <smiles>  (66) 
CCCN=C1CCCCCN1

>  <score_type>  (66) 
oracle

>  <origin>  (66) 
adg

>  <m_score__min__energy>  (66) 
-3.27

>  <m_primary>  (66) 
energy

$$$$
66:0
     RDKit          3D

 39 41  0  0  0  0  0  0  0  0999 V2000
   58.8100   30.4220   48.1610 O   0  0  0  0  0  0  0  0  0  0  0  0
   59.9150   30.5290   47.5630 C   0  0  0  0  0  0  0  0  0  0  0  0
   61.1760   30.6380   48.3620 C   0  0  0  0  0  0  0  0  0  0  0  0
   62.0140   31.7650   47.8480 C   0  0  0  0  0  0  0  0  0  0  0  0
   61.5680   32.8140   47.0520 C   0  0  0  0  0  0  0  0  0  0  0  0
   62.5580   33.7680   46.7930 C   0  0  0  0  0  0  0  0  0  0  0  0
   63.7810   33.4760   47.3850 C   0  0  0  0  0  0  0  0  0  0  0  0
   63.6280   32.0320   48.2350 S   0  0  0  0  0  0  0  0  0  0  0  0
   59.9630   30.5260   46.1300 N   0  0  0  0  0  0  0  0  0  0  0  0
   58.7860   30.3280   45.3370 C   0  0  0  0  0  0  0  0  0  0  0  0
   58.4650   29.0340   44.9040 C   0  0  0  0  0  0  0  0  0  0  0  0
   57.3630   28.8210   44.0730 C   0  0  0  0  0  0  0  0  0  0  0  0
   56.5690   29.8990   43.6740 C   0  0  0  0  0  0  0  0  0  0  0  0
   56.8660   31.1890   44.1190 C   0  0  0  0  0  0  0  0  0  0  0  0
   57.9640   31.4140   44.9630 C   0  0  0  0  0  0  0  0  0  0  0  0
   58.1820   32.7330   45.4900 N   0  0  0  0  0  0  0  0  0  0  0  0
   58.6350   33.8130   44.6120 C   0  0  0  0  0  0  0  0  0  0  0  0
   59.5270   34.7810   45.3960 C   0  0  0  0  0  0  0  0  0  0  0  0
   58.8960   35.1920   46.5940 O   0  0  0  0  0  0  0  0  0  0  0  0
   58.7370   34.0810   47.4570 C   0  0  0  0  0  0  0  0  0  0  0  0
   57.7670   33.0610   46.8550 C   0  0  0  0  0  0  0  0  0  0  0  0
   60.9237   30.8237   49.4165 H   0  0  0  0  0  0  0  0  0  0  0  0
   61.7415   29.6987   48.2723 H   0  0  0  0  0  0  0  0  0  0  0  0
   60.5409   32.8865   46.6651 H   0  0  0  0  0  0  0  0  0  0  0  0
   62.3848   34.6642   46.1791 H   0  0  0  0  0  0  0  0  0  0  0  0
   64.6938   34.0853   47.3105 H   0  0  0  0  0  0  0  0  0  0  0  0
   60.8380   30.8420   45.6520 H   0  0  0  0  0  0  0  0  0  0  0  0
   59.0844   28.1818   45.2204 H   0  0  0  0  0  0  0  0  0  0  0  0
   57.1200   27.8037   43.7324 H   0  0  0  0  0  0  0  0  0  0  0  0
   55.7091   29.7316   43.0087 H   0  0  0  0  0  0  0  0  0  0  0  0
   56.2352   32.0340   43.8058 H   0  0  0  0  0  0  0  0  0  0  0  0
   59.2067   33.3869   43.7744 H   0  0  0  0  0  0  0  0  0  0  0  0
   57.7607   34.3574   44.2257 H   0  0  0  0  0  0  0  0  0  0  0  0
   60.4743   34.2788   45.6419 H   0  0  0  0  0  0  0  0  0  0  0  0
   59.7129   35.6692   44.7743 H   0  0  0  0  0  0  0  0  0  0  0  0
   59.7148   33.6014   47.6117 H   0  0  0  0  0  0  0  0  0  0  0  0
   58.3284   34.4340   48.4154 H   0  0  0  0  0  0  0  0  0  0  0  0
   57.7699   32.1475   47.4678 H   0  0  0  0  0  0  0  0  0  0  0  0
   56.7538   33.4887   46.8353 H   0  0  0  0  0  0  0  0  0  0  0  0
  1  2  2  0
  2  3  1  0
  3  4  1  0
  4  5  2  0
  5  6  1  0
  6  7  2  0
  7  8  1  0
  2  9  1  0
  9 10  1  0
 10 11  2  0
 11 12  1  0
 12 13  2  0
 13 14  1  0
 14 15  2  0
 15 16  1  0
 16 17  1  0
 17 18  1  0
 18 19  1  0
 19 20  1  0
 20 21  1  0
  8  4  1  0
 15 10  1  0
 21 16  1  0
  3 22  1  0
  3 23  1  0
  5 24  1  0
  6 25  1  0
  7 26  1  0
  9 27  1  0
 11 28  1  0
 12 29  1  0
 13 30  1  0
 14 31  1  0
 17 32  1  0
 17 33  1  0
 18 34  1  0
 18 35  1  0
 20 36  1  0
 20 37  1  0
 21 38  1  0
 21 39  1  0
M  END
>  <UniqueID>  (67) 
59

>  <SMILES>  (67) 
O=C(Cc1cccs1)Nc1ccccc1N1CCOCC1

>  <Energy>  (67) 
72.24334570209848

>  <Genealogy>  (67) 
O=C(Cc1cccs1)Nc1ccccc1N1CCOCC1 (3D coordinates assigned)
O=C(Cc1cccs1)Nc1ccccc1N1CCOCC1 (nonaromatic ring conformer: 72.24334570209848 kcal/mol)

>  <smiles>  (67) 
O=C(Cc1cccs1)Nc1ccccc1N1CCOCC1

>  <score_type>  (67) 
oracle

>  <origin>  (67) 
adg

>  <m_score__min__energy>  (67) 
-7.0499999999999998

>  <m_primary>  (67) 
energy

$$$$
67:0
     RDKit          3D

 31 32  0  0  0  0  0  0  0  0999 V2000
   56.2820   29.9860   43.1860 C   0  0  0  0  0  0  0  0  0  0  0  0
   56.2740   30.5200   44.5040 O   0  0  0  0  0  0  0  0  0  0  0  0
   57.4400   30.6880   45.2580 C   0  0  0  0  0  0  0  0  0  0  0  0
   57.9840   29.6930   45.8110 O   0  0  0  0  0  0  0  0  0  0  0  0
   58.0350   32.0360   45.4040 C   0  0  0  0  0  0  0  0  0  0  0  0
   57.9870   32.9510   44.3460 C   0  0  0  0  0  0  0  0  0  0  0  0
   58.5420   34.2190   44.4940 C   0  0  0  0  0  0  0  0  0  0  0  0
   59.1480   34.5730   45.7010 C   0  0  0  0  0  0  0  0  0  0  0  0
   59.6400   35.7280   45.8220 O   0  0  0  0  0  0  0  0  0  0  0  0
   59.2050   33.6740   46.7380 N   0  0  0  0  0  0  0  0  0  0  0  0
   59.8130   34.0470   48.0270 C   0  0  0  0  0  0  0  0  0  0  0  0
   61.2980   33.7990   47.9950 C   0  0  0  0  0  0  0  0  0  0  0  0
   62.0380   33.7860   49.1880 C   0  0  0  0  0  0  0  0  0  0  0  0
   63.4220   33.5900   49.1580 C   0  0  0  0  0  0  0  0  0  0  0  0
   64.0770   33.4120   47.9370 C   0  0  0  0  0  0  0  0  0  0  0  0
   63.3500   33.4310   46.7440 C   0  0  0  0  0  0  0  0  0  0  0  0
   61.9650   33.6270   46.7700 C   0  0  0  0  0  0  0  0  0  0  0  0
   58.6540   32.4270   46.6020 C   0  0  0  0  0  0  0  0  0  0  0  0
   56.2985   28.8872   43.2357 H   0  0  0  0  0  0  0  0  0  0  0  0
   55.3788   30.3154   42.6514 H   0  0  0  0  0  0  0  0  0  0  0  0
   57.1749   30.3423   42.6514 H   0  0  0  0  0  0  0  0  0  0  0  0
   57.5100   32.6677   43.3961 H   0  0  0  0  0  0  0  0  0  0  0  0
   58.5033   34.9392   43.6634 H   0  0  0  0  0  0  0  0  0  0  0  0
   59.6272   35.1137   48.2208 H   0  0  0  0  0  0  0  0  0  0  0  0
   59.3650   33.4358   48.8244 H   0  0  0  0  0  0  0  0  0  0  0  0
   61.5264   33.9307   50.1510 H   0  0  0  0  0  0  0  0  0  0  0  0
   63.9956   33.5759   50.0965 H   0  0  0  0  0  0  0  0  0  0  0  0
   65.1658   33.2568   47.9148 H   0  0  0  0  0  0  0  0  0  0  0  0
   63.8672   33.2917   45.7832 H   0  0  0  0  0  0  0  0  0  0  0  0
   61.3963   33.6465   45.8286 H   0  0  0  0  0  0  0  0  0  0  0  0
   58.6973   31.7211   47.4446 H   0  0  0  0  0  0  0  0  0  0  0  0
  1  2  1  0
  2  3  1  0
  3  4  2  0
  3  5  1  0
  5  6  1  0
  6  7  2  0
  7  8  1  0
  8  9  2  0
  8 10  1  0
 10 11  1  0
 11 12  1  0
 12 13  2  0
 13 14  1  0
 14 15  2  0
 15 16  1  0
 16 17  2  0
 10 18  1  0
 18  5  2  0
 17 12  1  0
  1 19  1  0
  1 20  1  0
  1 21  1  0
  6 22  1  0
  7 23  1  0
 11 24  1  0
 11 25  1  0
 13 26  1  0
 14 27  1  0
 15 28  1  0
 16 29  1  0
 17 30  1  0
 18 31  1  0
M  END
>  <UniqueID>  (68) 
60

>  <SMILES>  (68) 
COC(=O)c1ccc(=O)n(Cc2ccccc2)c1

>  <Energy>  (68) 
31.303541179710937

>  <Genealogy>  (68) 
COC(=O)c1ccc(=O)n(Cc2ccccc2)c1 (3D coordinates assigned)
COC(=O)c1ccc(=O)n(Cc2ccccc2)c1 (optimized conformer: 31.303541179710937 kcal/mol)

>  <smiles>  (68) 
COC(=O)c1ccc(=O)n(Cc2ccccc2)c1

>  <score_type>  (68) 
oracle

>  <origin>  (68) 
adg

>  <m_score__min__energy>  (68) 
-6.5999999999999996

>  <m_primary>  (68) 
energy

$$$$
68:0
     RDKit          3D

 46 50  0  0  0  0  0  0  0  0999 V2000
   62.5015   30.3688   50.7116 H   0  0  0  0  0  0  0  0  0  0  0  0
   63.1270   31.1330   50.2270 C   0  0  0  0  0  0  0  0  0  0  0  0
   64.3330   31.5230   50.8150 C   0  0  0  0  0  0  0  0  0  0  0  0
   64.6580   31.0624   51.7596 H   0  0  0  0  0  0  0  0  0  0  0  0
   65.1270   32.4980   50.2040 C   0  0  0  0  0  0  0  0  0  0  0  0
   66.2930   32.8810   50.7800 F   0  0  0  0  0  0  0  0  0  0  0  0
   64.7170   33.0810   49.0000 C   0  0  0  0  0  0  0  0  0  0  0  0
   65.3401   33.8531   48.5250 H   0  0  0  0  0  0  0  0  0  0  0  0
   63.5120   32.6840   48.3950 C   0  0  0  0  0  0  0  0  0  0  0  0
   63.0680   33.3220   47.1040 C   0  0  0  0  0  0  0  0  0  0  0  0
   62.8793   32.5345   46.3595 H   0  0  0  0  0  0  0  0  0  0  0  0
   63.8622   33.9985   46.7553 H   0  0  0  0  0  0  0  0  0  0  0  0
   61.8440   34.1000   47.2990 N   0  0  0  0  0  0  0  0  0  0  0  0
   60.6690   33.8680   46.7810 C   0  0  0  0  0  0  0  0  0  0  0  0
   60.3400   32.5840   46.4740 N   0  0  0  0  0  0  0  0  0  0  0  0
   59.1360   32.2460   45.9330 C   0  0  0  0  0  0  0  0  0  0  0  0
   58.1870   33.2520   45.6730 C   0  0  0  0  0  0  0  0  0  0  0  0
   56.9850   32.9230   45.1340 N   0  0  0  0  0  0  0  0  0  0  0  0
   56.6760   31.6590   44.8430 N   0  0  0  0  0  0  0  0  0  0  0  0
   57.5470   30.6390   45.0700 C   0  0  0  0  0  0  0  0  0  0  0  0
   57.1870   29.3260   44.7490 C   0  0  0  0  0  0  0  0  0  0  0  0
   56.1973   29.1217   44.3145 H   0  0  0  0  0  0  0  0  0  0  0  0
   58.0820   28.2650   44.9780 C   0  0  0  0  0  0  0  0  0  0  0  0
   57.7000   26.8710   44.6380 C   0  0  0  0  0  0  0  0  0  0  0  0
   57.7680   26.4140   43.3090 C   0  0  0  0  0  0  0  0  0  0  0  0
   58.1069   27.0948   42.5143 H   0  0  0  0  0  0  0  0  0  0  0  0
   57.4080   25.1010   42.9910 C   0  0  0  0  0  0  0  0  0  0  0  0
   57.4645   24.7540   41.9487 H   0  0  0  0  0  0  0  0  0  0  0  0
   56.9760   24.2270   43.9950 C   0  0  0  0  0  0  0  0  0  0  0  0
   56.6060   22.8760   43.6660 C   0  0  0  0  0  0  0  0  0  0  0  0
   56.3090   21.7890   43.4010 N   0  0  0  0  0  0  0  0  0  0  0  0
   56.9060   24.6710   45.3200 C   0  0  0  0  0  0  0  0  0  0  0  0
   56.5679   23.9859   46.1114 H   0  0  0  0  0  0  0  0  0  0  0  0
   57.2650   25.9840   45.6400 C   0  0  0  0  0  0  0  0  0  0  0  0
   57.2069   26.3264   46.6837 H   0  0  0  0  0  0  0  0  0  0  0  0
   59.3440   28.5440   45.5320 C   0  0  0  0  0  0  0  0  0  0  0  0
   60.0521   27.7220   45.7134 H   0  0  0  0  0  0  0  0  0  0  0  0
   59.7090   29.8550   45.8550 C   0  0  0  0  0  0  0  0  0  0  0  0
   60.6990   30.0574   46.2896 H   0  0  0  0  0  0  0  0  0  0  0  0
   58.8150   30.9140   45.6260 C   0  0  0  0  0  0  0  0  0  0  0  0
   58.4950   34.5800   45.9730 C   0  0  0  0  0  0  0  0  0  0  0  0
   57.7612   35.3750   45.7742 H   0  0  0  0  0  0  0  0  0  0  0  0
   59.7370   34.8960   46.5260 C   0  0  0  0  0  0  0  0  0  0  0  0
   59.9878   35.9408   46.7617 H   0  0  0  0  0  0  0  0  0  0  0  0
   62.7140   31.7130   49.0230 C   0  0  0  0  0  0  0  0  0  0  0  0
   61.7610   31.4078   48.5662 H   0  0  0  0  0  0  0  0  0  0  0  0
  1  2  1  0
  2  3  2  0
  3  4  1  0
  3  5  1  0
  5  6  1  0
  5  7  2  0
  7  8  1  0
  7  9  1  0
  9 10  1  0
 10 11  1  0
 10 12  1  0
 10 13  1  0
 13 14  2  0
 14 15  1  0
 15 16  1  0
 16 17  2  0
 17 18  1  0
 18 19  2  0
 19 20  1  0
 20 21  2  0
 21 22  1  0
 21 23  1  0
 23 24  1  0
 24 25  2  0
 25 26  1  0
 25 27  1  0
 27 28  1  0
 27 29  2  0
 29 30  1  0
 30 31  3  0
 29 32  1  0
 32 33  1  0
 32 34  2  0
 34 35  1  0
 23 36  2  0
 36 37  1  0
 36 38  1  0
 38 39  1  0
 38 40  2  0
 17 41  1  0
 41 42  1  0
 41 43  2  0
 43 44  1  0
  9 45  2  0
 45 46  1  0
 45  2  1  0
 43 14  1  0
 40 16  1  0
 40 20  1  0
 34 24  1  0
M  CHG  1  15  -1
M  END
>  <UniqueID>  (69) 
61

>  <SMILES>  (69) 
N#Cc1ccc(-c2ccc3c(c2)nnc2cc/c(=N\Cc4cccc(F)c4)[n-]c23)cc1

>  <Energy>  (69) 
67.07461846642026

>  <Genealogy>  (69) 
N#Cc1ccc(-c2ccc3c(c2)nnc2ccc(=NCc4cccc(F)c4)[n-]c23)cc1 (protonated)
N#Cc1ccc(-c2ccc3c(c2)nnc2cc/c(=N\Cc4cccc(F)c4)[n-]c23)cc1 (cis-trans isomerization)
N#Cc1ccc(-c2ccc3c(c2)nnc2cc/c(=N\Cc4cccc(F)c4)[n-]c23)cc1 (3D coordinates assigned)
N#Cc1ccc(-c2ccc3c(c2)nnc2cc/c(=N\Cc4cccc(F)c4)[n-]c23)cc1 (optimized conformer: 67.07461846642026 kcal/mol)

>  <smiles>  (69) 
N#Cc1ccc(-c2ccc3c(c2)nnc2ccc(=NCc4cccc(F)c4)[nH]c23)cc1

>  <score_type>  (69) 
oracle

>  <origin>  (69) 
adg

>  <m_score__min__energy>  (69) 
-10.91

>  <m_primary>  (69) 
energy

$$$$
69:0
     RDKit          3D

 39 41  0  0  0  0  0  0  0  0999 V2000
   55.8650   25.4420   46.5250 O   0  0  0  0  0  0  0  0  0  0  0  0
   56.2540   26.1830   45.5850 C   0  0  0  0  0  0  0  0  0  0  0  0
   55.9320   27.5770   45.6310 N   0  0  0  0  0  0  0  0  0  0  0  0
   56.6370   28.6240   44.9500 C   0  0  0  0  0  0  0  0  0  0  0  0
   55.9560   29.5160   44.1000 C   0  0  0  0  0  0  0  0  0  0  0  0
   56.6360   30.5770   43.5010 C   0  0  0  0  0  0  0  0  0  0  0  0
   57.9940   30.7730   43.7570 C   0  0  0  0  0  0  0  0  0  0  0  0
   58.6740   29.9090   44.6170 C   0  0  0  0  0  0  0  0  0  0  0  0
   58.0030   28.8340   45.2210 C   0  0  0  0  0  0  0  0  0  0  0  0
   58.7210   27.9480   46.0930 N   0  0  0  0  0  0  0  0  0  0  0  0
   59.8030   27.0910   45.6410 C   0  0  0  0  0  0  0  0  0  0  0  0
   60.2510   26.3190   46.8740 C   0  0  0  0  0  0  0  0  0  0  0  0
   59.6930   27.0840   48.0740 C   0  0  0  0  0  0  0  0  0  0  0  0
   58.5520   27.9390   47.5350 C   0  0  0  0  0  0  0  0  0  0  0  0
   57.0330   25.6410   44.5020 N   0  0  0  0  0  0  0  0  0  0  0  0
   57.3940   24.2550   44.3850 C   0  0  0  0  0  0  0  0  0  0  0  0
   56.6510   23.4220   43.5350 C   0  0  0  0  0  0  0  0  0  0  0  0
   56.9960   22.0750   43.3840 C   0  0  0  0  0  0  0  0  0  0  0  0
   56.2630   21.2750   42.5710 F   0  0  0  0  0  0  0  0  0  0  0  0
   58.0980   21.5540   44.0680 C   0  0  0  0  0  0  0  0  0  0  0  0
   58.8610   22.3820   44.8960 C   0  0  0  0  0  0  0  0  0  0  0  0
   59.9430   21.8810   45.5420 F   0  0  0  0  0  0  0  0  0  0  0  0
   58.5180   23.7290   45.0510 C   0  0  0  0  0  0  0  0  0  0  0  0
   54.8822   29.3758   43.9070 H   0  0  0  0  0  0  0  0  0  0  0  0
   56.1006   31.2605   42.8255 H   0  0  0  0  0  0  0  0  0  0  0  0
   58.5284   31.6084   43.2810 H   0  0  0  0  0  0  0  0  0  0  0  0
   59.7423   30.0715   44.8227 H   0  0  0  0  0  0  0  0  0  0  0  0
   59.4468   26.3999   44.8629 H   0  0  0  0  0  0  0  0  0  0  0  0
   60.6271   27.6714   45.2006 H   0  0  0  0  0  0  0  0  0  0  0  0
   59.8481   25.2957   46.8518 H   0  0  0  0  0  0  0  0  0  0  0  0
   61.3468   26.2364   46.9222 H   0  0  0  0  0  0  0  0  0  0  0  0
   59.3186   26.3823   48.8338 H   0  0  0  0  0  0  0  0  0  0  0  0
   60.4671   27.7015   48.5529 H   0  0  0  0  0  0  0  0  0  0  0  0
   57.5809   27.4987   47.8054 H   0  0  0  0  0  0  0  0  0  0  0  0
   58.5710   28.9558   47.9542 H   0  0  0  0  0  0  0  0  0  0  0  0
   57.3010   26.2730   43.7150 H   0  0  0  0  0  0  0  0  0  0  0  0
   55.7915   23.8310   42.9837 H   0  0  0  0  0  0  0  0  0  0  0  0
   58.3646   20.4928   43.9547 H   0  0  0  0  0  0  0  0  0  0  0  0
   59.1279   24.3796   45.6950 H   0  0  0  0  0  0  0  0  0  0  0  0
  1  2  2  0
  2  3  1  0
  3  4  1  0
  4  5  2  0
  5  6  1  0
  6  7  2  0
  7  8  1  0
  8  9  2  0
  9 10  1  0
 10 11  1  0
 11 12  1  0
 12 13  1  0
 13 14  1  0
  2 15  1  0
 15 16  1  0
 16 17  2  0
 17 18  1  0
 18 19  1  0
 18 20  2  0
 20 21  1  0
 21 22  1  0
 21 23  2  0
  9  4  1  0
 14 10  1  0
 23 16  1  0
  5 24  1  0
  6 25  1  0
  7 26  1  0
  8 27  1  0
 11 28  1  0
 11 29  1  0
 12 30  1  0
 12 31  1  0
 13 32  1  0
 13 33  1  0
 14 34  1  0
 14 35  1  0
 15 36  1  0
 17 37  1  0
 20 38  1  0
 23 39  1  0
M  CHG  1   3  -1
M  END
>  <UniqueID>  (70) 
62

>  <SMILES>  (70) 
O=C([N-]c1ccccc1N1CCCC1)Nc1cc(F)cc(F)c1

>  <Energy>  (70) 
54.0695324722665

>  <Genealogy>  (70) 
O=C([N-]c1ccccc1N1CCCC1)Nc1cc(F)cc(F)c1 (protonated)
O=C([N-]c1ccccc1N1CCCC1)Nc1cc(F)cc(F)c1 (3D coordinates assigned)
O=C([N-]c1ccccc1N1CCCC1)Nc1cc(F)cc(F)c1 (nonaromatic ring conformer: 54.0695324722665 kcal/mol)

>  <smiles>  (70) 
O=C(Nc1cc(F)cc(F)c1)Nc1ccccc1N1CCCC1

>  <score_type>  (70) 
oracle

>  <origin>  (70) 
adg

>  <m_score__min__energy>  (70) 
-8.7200000000000006

>  <m_primary>  (70) 
energy

$$$$
70:0
     RDKit          3D

 39 40  0  0  0  0  0  0  0  0999 V2000
   56.2430   29.2650   42.6560 N   0  0  0  0  0  0  0  0  0  0  0  0
   56.6280   29.3700   44.0300 C   0  0  0  0  0  0  0  0  0  0  0  0
   55.7770   29.0490   44.9580 N   0  0  0  0  0  0  0  0  0  0  0  0
   57.9620   29.8060   44.3490 N   0  0  0  0  0  0  0  0  0  0  0  0
   58.4150   30.2110   45.6800 C   0  0  0  0  0  0  0  0  0  0  0  0
   58.4420   31.7200   45.8250 C   0  0  0  0  0  0  0  0  0  0  0  0
   57.9920   32.5000   44.7420 C   0  0  0  0  0  0  0  0  0  0  0  0
   57.9550   33.8920   44.8290 C   0  0  0  0  0  0  0  0  0  0  0  0
   58.3480   34.5290   46.0020 C   0  0  0  0  0  0  0  0  0  0  0  0
   58.7820   33.7780   47.0930 C   0  0  0  0  0  0  0  0  0  0  0  0
   58.8460   32.3730   47.0250 C   0  0  0  0  0  0  0  0  0  0  0  0
   59.3500   31.6250   48.2450 C   0  0  0  0  0  0  0  0  0  0  0  0
   60.6480   30.8480   47.9680 C   0  0  0  0  0  0  0  0  0  0  0  0
   61.8670   31.7340   47.9990 C   0  0  0  0  0  0  0  0  0  0  0  0
   62.0560   32.7190   47.0130 C   0  0  0  0  0  0  0  0  0  0  0  0
   63.1680   33.5640   47.0660 C   0  0  0  0  0  0  0  0  0  0  0  0
   64.0960   33.4350   48.1020 C   0  0  0  0  0  0  0  0  0  0  0  0
   63.9140   32.4620   49.0890 C   0  0  0  0  0  0  0  0  0  0  0  0
   62.8020   31.6150   49.0400 C   0  0  0  0  0  0  0  0  0  0  0  0
   55.2850   28.9480   42.3870 H   0  0  0  0  0  0  0  0  0  0  0  0
   56.9180   29.5140   41.8980 H   0  0  0  0  0  0  0  0  0  0  0  0
   55.1400   28.2280   44.8710 H   0  0  0  0  0  0  0  0  0  0  0  0
   55.6890   29.6280   45.8220 H   0  0  0  0  0  0  0  0  0  0  0  0
   58.6550   29.8630   43.5690 H   0  0  0  0  0  0  0  0  0  0  0  0
   57.7309   29.7922   46.4327 H   0  0  0  0  0  0  0  0  0  0  0  0
   59.4377   29.8330   45.8252 H   0  0  0  0  0  0  0  0  0  0  0  0
   57.6654   32.0052   43.8154 H   0  0  0  0  0  0  0  0  0  0  0  0
   57.6145   34.4870   43.9687 H   0  0  0  0  0  0  0  0  0  0  0  0
   58.3161   35.6265   46.0683 H   0  0  0  0  0  0  0  0  0  0  0  0
   59.0787   34.2901   48.0202 H   0  0  0  0  0  0  0  0  0  0  0  0
   59.5387   32.3505   49.0500 H   0  0  0  0  0  0  0  0  0  0  0  0
   58.5787   30.8943   48.5299 H   0  0  0  0  0  0  0  0  0  0  0  0
   60.7609   30.0652   48.7326 H   0  0  0  0  0  0  0  0  0  0  0  0
   60.5720   30.4181   46.9584 H   0  0  0  0  0  0  0  0  0  0  0  0
   61.3259   32.8247   46.1971 H   0  0  0  0  0  0  0  0  0  0  0  0
   63.3125   34.3313   46.2912 H   0  0  0  0  0  0  0  0  0  0  0  0
   64.9713   34.1001   48.1412 H   0  0  0  0  0  0  0  0  0  0  0  0
   64.6455   32.3624   49.9045 H   0  0  0  0  0  0  0  0  0  0  0  0
   62.6593   30.8526   49.8200 H   0  0  0  0  0  0  0  0  0  0  0  0
  1  2  1  0
  2  3  2  0
  2  4  1  0
  4  5  1  0
  5  6  1  0
  6  7  2  0
  7  8  1  0
  8  9  2  0
  9 10  1  0
 10 11  2  0
 11 12  1  0
 12 13  1  0
 13 14  1  0
 14 15  2  0
 15 16  1  0
 16 17  2  0
 17 18  1  0
 18 19  2  0
 11  6  1  0
 19 14  1  0
  1 20  1  0
  1 21  1  0
  3 22  1  0
  3 23  1  0
  4 24  1  0
  5 25  1  0
  5 26  1  0
  7 27  1  0
  8 28  1  0
  9 29  1  0
 10 30  1  0
 12 31  1  0
 12 32  1  0
 13 33  1  0
 13 34  1  0
 15 35  1  0
 16 36  1  0
 17 37  1  0
 18 38  1  0
 19 39  1  0
M  CHG  1   3   1
M  END
>  <UniqueID>  (71) 
63

>  <SMILES>  (71) 
NC(=[NH2+])NCc1ccccc1CCc1ccccc1

>  <Energy>  (71) 
34.520956286871694

>  <Genealogy>  (71) 
NC(=[NH2+])NCc1ccccc1CCc1ccccc1 (protonated)
NC(=[NH2+])NCc1ccccc1CCc1ccccc1 (3D coordinates assigned)
NC(=[NH2+])NCc1ccccc1CCc1ccccc1 (optimized conformer: 34.520956286871694 kcal/mol)

>  <smiles>  (71) 
N=C(N)NCc1ccccc1CCc1ccccc1

>  <score_type>  (71) 
oracle

>  <origin>  (71) 
adg

>  <m_score__min__energy>  (71) 
-6.3300000000000001

>  <m_primary>  (71) 
energy

$$$$
71:0
     RDKit          3D

 37 39  0  0  0  0  0  0  0  0999 V2000
   60.3090   34.1350   47.9990 C   0  0  0  0  0  0  0  0  0  0  0  0
   59.6230   33.4710   49.1550 C   0  0  0  0  0  0  0  0  0  0  0  0
   59.0190   32.1990   48.9860 C   0  0  0  0  0  0  0  0  0  0  0  0
   58.4050   31.5470   50.0710 C   0  0  0  0  0  0  0  0  0  0  0  0
   58.4220   32.1850   51.3120 C   0  0  0  0  0  0  0  0  0  0  0  0
   59.0200   33.4070   51.4820 C   0  0  0  0  0  0  0  0  0  0  0  0
   58.8860   33.7550   52.8100 C   0  0  0  0  0  0  0  0  0  0  0  0
   58.1970   32.7010   53.4000 C   0  0  0  0  0  0  0  0  0  0  0  0
   57.9170   31.7500   52.4800 N   0  0  0  0  0  0  0  0  0  0  0  0
   57.1040   30.2470   52.7800 S   0  0  0  0  0  0  0  0  0  0  0  0
   57.5530   29.7100   54.1110 O   0  0  0  0  0  0  0  0  0  0  0  0
   57.4530   29.2550   51.7060 O   0  0  0  0  0  0  0  0  0  0  0  0
   55.3630   30.5070   52.7770 C   0  0  0  0  0  0  0  0  0  0  0  0
   54.6100   30.2790   53.9360 C   0  0  0  0  0  0  0  0  0  0  0  0
   53.2290   30.4940   53.9300 C   0  0  0  0  0  0  0  0  0  0  0  0
   52.5870   30.9470   52.7660 C   0  0  0  0  0  0  0  0  0  0  0  0
   51.0980   31.1500   52.7510 C   0  0  0  0  0  0  0  0  0  0  0  0
   50.7480   32.3320   51.9040 C   0  0  0  0  0  0  0  0  0  0  0  0
   50.1700   33.3270   52.4140 O   0  0  0  0  0  0  0  0  0  0  0  0
   51.0140   32.3130   50.5410 O   0  0  0  0  0  0  0  0  0  0  0  0
   53.3430   31.1580   51.6010 C   0  0  0  0  0  0  0  0  0  0  0  0
   54.7240   30.9400   51.6090 C   0  0  0  0  0  0  0  0  0  0  0  0
   59.6360   34.0780   50.4290 C   0  0  0  0  0  0  0  0  0  0  0  0
   61.0513   34.8535   48.3767 H   0  0  0  0  0  0  0  0  0  0  0  0
   60.8141   33.3740   47.3861 H   0  0  0  0  0  0  0  0  0  0  0  0
   59.5648   34.6647   47.3861 H   0  0  0  0  0  0  0  0  0  0  0  0
   59.0307   31.7175   47.9970 H   0  0  0  0  0  0  0  0  0  0  0  0
   57.9263   30.5647   49.9450 H   0  0  0  0  0  0  0  0  0  0  0  0
   59.2475   34.6718   53.2987 H   0  0  0  0  0  0  0  0  0  0  0  0
   57.9194   32.6483   54.4631 H   0  0  0  0  0  0  0  0  0  0  0  0
   55.1069   29.9299   54.8532 H   0  0  0  0  0  0  0  0  0  0  0  0
   52.6421   30.3075   54.8415 H   0  0  0  0  0  0  0  0  0  0  0  0
   50.6127   30.2521   52.3407 H   0  0  0  0  0  0  0  0  0  0  0  0
   50.7490   31.3281   53.7788 H   0  0  0  0  0  0  0  0  0  0  0  0
   52.8468   31.4959   50.6793 H   0  0  0  0  0  0  0  0  0  0  0  0
   55.3107   31.1093   50.6941 H   0  0  0  0  0  0  0  0  0  0  0  0
   60.1192   35.0537   50.5857 H   0  0  0  0  0  0  0  0  0  0  0  0
  1  2  1  0
  2  3  2  0
  3  4  1  0
  4  5  2  0
  5  6  1  0
  6  7  1  0
  7  8  2  0
  8  9  1  0
  9 10  1  0
 10 11  2  0
 10 12  2  0
 10 13  1  0
 13 14  2  0
 14 15  1  0
 15 16  2  0
 16 17  1  0
 17 18  1  0
 18 19  2  0
 18 20  1  0
 16 21  1  0
 21 22  2  0
  6 23  2  0
 23  2  1  0
  9  5  1  0
 22 13  1  0
  1 24  1  0
  1 25  1  0
  1 26  1  0
  3 27  1  0
  4 28  1  0
  7 29  1  0
  8 30  1  0
 14 31  1  0
 15 32  1  0
 17 33  1  0
 17 34  1  0
 21 35  1  0
 22 36  1  0
 23 37  1  0
M  CHG  1  20  -1
M  END
>  <UniqueID>  (72) 
64

>  <SMILES>  (72) 
Cc1ccc2c(ccn2S(=O)(=O)c2ccc(CC(=O)[O-])cc2)c1

>  <Energy>  (72) 
71.50967881973334

>  <Genealogy>  (72) 
Cc1ccc2c(ccn2S(=O)(=O)c2ccc(CC(=O)[O-])cc2)c1 (protonated)
Cc1ccc2c(ccn2S(=O)(=O)c2ccc(CC(=O)[O-])cc2)c1 (3D coordinates assigned)
Cc1ccc2c(ccn2S(=O)(=O)c2ccc(CC(=O)[O-])cc2)c1 (optimized conformer: 71.50967881973334 kcal/mol)

>  <smiles>  (72) 
Cc1ccc2c(ccn2S(=O)(=O)c2ccc(CC(=O)O)cc2)c1

>  <score_type>  (72) 
oracle

>  <origin>  (72) 
adg

>  <m_score__min__energy>  (72) 
-11.18

>  <m_primary>  (72) 
energy

$$$$
72:0
     RDKit          3D

 51 54  0  0  0  0  0  0  0  0999 V2000
   63.5650   33.4820   48.7100 C   0  0  0  0  0  0  0  0  0  0  0  0
   63.3460   32.7090   49.8840 O   0  0  0  0  0  0  0  0  0  0  0  0
   62.3390   32.9640   50.8300 C   0  0  0  0  0  0  0  0  0  0  0  0
   62.6140   33.5890   52.0640 C   0  0  0  0  0  0  0  0  0  0  0  0
   61.5840   33.8270   52.9780 C   0  0  0  0  0  0  0  0  0  0  0  0
   60.2750   33.4490   52.6750 C   0  0  0  0  0  0  0  0  0  0  0  0
   59.9900   32.8290   51.4570 C   0  0  0  0  0  0  0  0  0  0  0  0
   61.0160   32.5850   50.5330 C   0  0  0  0  0  0  0  0  0  0  0  0
   60.6960   31.9290   49.2420 C   0  0  0  0  0  0  0  0  0  0  0  0
   60.9710   30.5560   49.0770 C   0  0  0  0  0  0  0  0  0  0  0  0
   61.5840   29.7450   50.1930 C   0  0  0  0  0  0  0  0  0  0  0  0
   60.6850   29.9320   47.8590 C   0  0  0  0  0  0  0  0  0  0  0  0
   60.1230   30.6390   46.7860 C   0  0  0  0  0  0  0  0  0  0  0  0
   59.8860   29.8860   45.4890 C   0  0  0  0  0  0  0  0  0  0  0  0
   58.6340   29.0460   45.5600 C   0  0  0  0  0  0  0  0  0  0  0  0
   57.4370   29.5130   44.9920 C   0  0  0  0  0  0  0  0  0  0  0  0
   56.2800   28.7340   45.0450 C   0  0  0  0  0  0  0  0  0  0  0  0
   56.3030   27.4780   45.6580 C   0  0  0  0  0  0  0  0  0  0  0  0
   55.1400   26.7150   45.6940 O   0  0  0  0  0  0  0  0  0  0  0  0
   57.4940   26.9940   46.2260 C   0  0  0  0  0  0  0  0  0  0  0  0
   57.5320   25.6330   46.8630 C   0  0  0  0  0  0  0  0  0  0  0  0
   58.6590   27.7760   46.1590 C   0  0  0  0  0  0  0  0  0  0  0  0
   59.8440   32.0230   46.9350 C   0  0  0  0  0  0  0  0  0  0  0  0
   59.2840   32.7830   45.8850 C   0  0  0  0  0  0  0  0  0  0  0  0
   59.0200   34.1430   46.0460 C   0  0  0  0  0  0  0  0  0  0  0  0
   59.3040   34.7730   47.2530 C   0  0  0  0  0  0  0  0  0  0  0  0
   59.8520   34.0480   48.3090 C   0  0  0  0  0  0  0  0  0  0  0  0
   60.1320   32.6700   48.1720 C   0  0  0  0  0  0  0  0  0  0  0  0
   63.8547   34.5047   48.9931 H   0  0  0  0  0  0  0  0  0  0  0  0
   64.3689   33.0247   48.1145 H   0  0  0  0  0  0  0  0  0  0  0  0
   62.6407   33.5143   48.1145 H   0  0  0  0  0  0  0  0  0  0  0  0
   63.6434   33.8904   52.3080 H   0  0  0  0  0  0  0  0  0  0  0  0
   61.8056   34.3138   53.9392 H   0  0  0  0  0  0  0  0  0  0  0  0
   59.4670   33.6398   53.3967 H   0  0  0  0  0  0  0  0  0  0  0  0
   58.9576   32.5311   51.2216 H   0  0  0  0  0  0  0  0  0  0  0  0
   61.2706   30.1596   51.1625 H   0  0  0  0  0  0  0  0  0  0  0  0
   61.2475   28.7006   50.1149 H   0  0  0  0  0  0  0  0  0  0  0  0
   62.6805   29.7838   50.1149 H   0  0  0  0  0  0  0  0  0  0  0  0
   60.9060   28.8611   47.7394 H   0  0  0  0  0  0  0  0  0  0  0  0
   59.7844   30.6109   44.6679 H   0  0  0  0  0  0  0  0  0  0  0  0
   60.7420   29.2171   45.3160 H   0  0  0  0  0  0  0  0  0  0  0  0
   57.4114   30.4979   44.5028 H   0  0  0  0  0  0  0  0  0  0  0  0
   55.3459   29.1102   44.6024 H   0  0  0  0  0  0  0  0  0  0  0  0
   57.5290   25.7403   47.9577 H   0  0  0  0  0  0  0  0  0  0  0  0
   56.6496   25.0563   46.5487 H   0  0  0  0  0  0  0  0  0  0  0  0
   58.4452   25.1064   46.5487 H   0  0  0  0  0  0  0  0  0  0  0  0
   59.5994   27.3901   46.5795 H   0  0  0  0  0  0  0  0  0  0  0  0
   59.0527   32.2955   44.9264 H   0  0  0  0  0  0  0  0  0  0  0  0
   58.5858   34.7192   45.2157 H   0  0  0  0  0  0  0  0  0  0  0  0
   59.0955   35.8462   47.3741 H   0  0  0  0  0  0  0  0  0  0  0  0
   60.0693   34.5546   49.2609 H   0  0  0  0  0  0  0  0  0  0  0  0
  1  2  1  0
  2  3  1  0
  3  4  2  0
  4  5  1  0
  5  6  2  0
  6  7  1  0
  7  8  2  0
  8  9  1  0
  9 10  2  0
 10 11  1  0
 10 12  1  0
 12 13  2  0
 13 14  1  0
 14 15  1  0
 15 16  2  0
 16 17  1  0
 17 18  2  0
 18 19  1  0
 18 20  1  0
 20 21  1  0
 20 22  2  0
 13 23  1  0
 23 24  2  0
 24 25  1  0
 25 26  2  0
 26 27  1  0
 27 28  2  0
  8  3  1  0
 28  9  1  0
 22 15  1  0
 28 23  1  0
  1 29  1  0
  1 30  1  0
  1 31  1  0
  4 32  1  0
  5 33  1  0
  6 34  1  0
  7 35  1  0
 11 36  1  0
 11 37  1  0
 11 38  1  0
 12 39  1  0
 14 40  1  0
 14 41  1  0
 16 42  1  0
 17 43  1  0
 21 44  1  0
 21 45  1  0
 21 46  1  0
 22 47  1  0
 24 48  1  0
 25 49  1  0
 26 50  1  0
 27 51  1  0
M  CHG  1  19  -1
M  END
>  <UniqueID>  (73) 
65

>  <SMILES>  (73) 
COc1ccccc1-c1c(C)cc(Cc2ccc([O-])c(C)c2)c2ccccc12

>  <Energy>  (73) 
69.61432813795712

>  <Genealogy>  (73) 
COc1ccccc1-c1c(C)cc(Cc2ccc([O-])c(C)c2)c2ccccc12 (protonated)
COc1ccccc1-c1c(C)cc(Cc2ccc([O-])c(C)c2)c2ccccc12 (3D coordinates assigned)
COc1ccccc1-c1c(C)cc(Cc2ccc([O-])c(C)c2)c2ccccc12 (optimized conformer: 69.61432813795712 kcal/mol)

>  <smiles>  (73) 
COc1ccccc1-c1c(C)cc(Cc2ccc(O)c(C)c2)c2ccccc12

>  <score_type>  (73) 
oracle

>  <origin>  (73) 
adg

>  <m_score__min__energy>  (73) 
-10.859999999999999

>  <m_primary>  (73) 
energy

$$$$
73:0
     RDKit          3D

 28 27  0  0  0  0  0  0  0  0999 V2000
   60.2480   32.4440   46.7600 C   0  0  0  0  0  0  0  0  0  0  0  0
   58.7830   32.5890   46.8320 N   0  0  0  0  0  0  0  0  0  0  0  0
   58.3540   32.5270   48.2380 C   0  0  0  0  0  0  0  0  0  0  0  0
   58.3460   33.8600   46.2160 C   0  0  0  0  0  0  0  0  0  0  0  0
   57.1340   33.6480   45.2890 C   0  0  0  0  0  0  0  0  0  0  0  0
   56.9180   32.2280   44.9500 N   0  0  0  0  0  0  0  0  0  0  0  0
   57.6860   31.7950   43.7730 C   0  0  0  0  0  0  0  0  0  0  0  0
   57.2530   30.3980   43.3160 C   0  0  0  0  0  0  0  0  0  0  0  0
   56.2780   29.7870   44.2780 C   0  0  0  0  0  0  0  0  0  0  0  0
   54.9840   29.3770   43.8350 N   0  0  0  0  0  0  0  0  0  0  0  0
   56.5880   29.6700   45.4940 O   0  0  0  0  0  0  0  0  0  0  0  0
   60.6629   32.4029   47.7779 H   0  0  0  0  0  0  0  0  0  0  0  0
   60.4988   31.5166   46.2242 H   0  0  0  0  0  0  0  0  0  0  0  0
   60.6757   33.3042   46.2242 H   0  0  0  0  0  0  0  0  0  0  0  0
   59.2280   32.6533   48.8939 H   0  0  0  0  0  0  0  0  0  0  0  0
   57.6282   33.3296   48.4356 H   0  0  0  0  0  0  0  0  0  0  0  0
   57.8851   31.5518   48.4356 H   0  0  0  0  0  0  0  0  0  0  0  0
   58.0684   34.5666   47.0120 H   0  0  0  0  0  0  0  0  0  0  0  0
   59.1769   34.2566   45.6141 H   0  0  0  0  0  0  0  0  0  0  0  0
   56.2342   34.0303   45.7932 H   0  0  0  0  0  0  0  0  0  0  0  0
   57.3346   34.1868   44.3512 H   0  0  0  0  0  0  0  0  0  0  0  0
   57.1630   31.6160   45.7630 H   0  0  0  0  0  0  0  0  0  0  0  0
   57.5198   32.5090   42.9529 H   0  0  0  0  0  0  0  0  0  0  0  0
   58.7514   31.7595   44.0443 H   0  0  0  0  0  0  0  0  0  0  0  0
   56.7789   30.4758   42.3265 H   0  0  0  0  0  0  0  0  0  0  0  0
   58.1449   29.7557   43.2712 H   0  0  0  0  0  0  0  0  0  0  0  0
   54.3010   28.9670   44.5090 H   0  0  0  0  0  0  0  0  0  0  0  0
   54.7030   29.4880   42.8350 H   0  0  0  0  0  0  0  0  0  0  0  0
  1  2  1  0
  2  3  1  0
  2  4  1  0
  4  5  1  0
  5  6  1  0
  6  7  1  0
  7  8  1  0
  8  9  1  0
  9 10  1  0
  9 11  2  0
  1 12  1  0
  1 13  1  0
  1 14  1  0
  3 15  1  0
  3 16  1  0
  3 17  1  0
  4 18  1  0
  4 19  1  0
  5 20  1  0
  5 21  1  0
  6 22  1  0
  7 23  1  0
  7 24  1  0
  8 25  1  0
  8 26  1  0
 10 27  1  0
 10 28  1  0
M  END
>  <UniqueID>  (74) 
66

>  <SMILES>  (74) 
CN(C)CCNCCC(N)=O

>  <Energy>  (74) 
19.792581976429936

>  <Genealogy>  (74) 
CN(C)CCNCCC(N)=O (3D coordinates assigned)
CN(C)CCNCCC(N)=O (optimized conformer: 19.792581976429936 kcal/mol)

>  <smiles>  (74) 
CN(C)CCNCCC(N)=O

>  <score_type>  (74) 
oracle

>  <origin>  (74) 
adg

>  <m_score__min__energy>  (74) 
-4.9500000000000002

>  <m_primary>  (74) 
energy

$$$$
74:0
     RDKit          3D

 38 40  0  0  1  0  0  0  0  0999 V2000
   63.2310   32.7920   47.5180 C   0  0  0  0  0  0  0  0  0  0  0  0
   63.9990   33.4120   48.6380 C   0  0  0  0  0  0  0  0  0  0  0  0
   63.2050   33.8150   49.7360 O   0  0  0  0  0  0  0  0  0  0  0  0
   61.8240   33.7380   49.7360 C   0  0  0  0  0  0  0  0  0  0  0  0
   61.3150   32.8380   50.4840 O   0  0  0  0  0  0  0  0  0  0  0  0
   56.6350   32.0320   45.2160 N   0  0  0  0  0  0  0  0  0  0  0  0
   57.4910   32.9800   45.2390 C   0  0  0  0  0  0  0  0  0  0  0  0
   60.0240   34.7990   46.8890 C   0  0  0  0  0  0  0  0  0  0  0  0
   59.0980   34.3110   45.9980 C   0  0  0  0  0  0  0  0  0  0  0  0
   58.7340   34.6770   44.7540 N   0  0  0  0  0  0  0  0  0  0  0  0
   57.7780   33.8900   44.2910 N   0  0  0  0  0  0  0  0  0  0  0  0
   60.1300   34.1640   48.1040 C   0  0  0  0  0  0  0  0  0  0  0  0
   60.9850   34.5880   48.9660 N   0  0  0  0  0  0  0  0  0  0  0  0
   56.9000   30.7860   44.5800 C   0  0  0  0  0  0  0  0  0  0  0  0
   56.3550   30.4380   43.3620 C   0  0  0  0  0  0  0  0  0  0  0  0
   56.6440   29.2170   42.7860 C   0  0  0  0  0  0  0  0  0  0  0  0
   57.4830   28.2870   43.3920 C   0  0  0  0  0  0  0  0  0  0  0  0
   57.7680   27.0610   42.8070 O   0  0  0  0  0  0  0  0  0  0  0  0
   58.0330   28.6460   44.6290 C   0  0  0  0  0  0  0  0  0  0  0  0
   59.2000   27.3930   45.5050 Br  0  0  0  0  0  0  0  0  0  0  0  0
   57.7470   29.8670   45.2070 C   0  0  0  0  0  0  0  0  0  0  0  0
   58.3160   33.2260   46.3340 C   0  0  0  0  0  0  0  0  0  0  0  0
   58.4430   32.6000   47.5710 C   0  0  0  0  0  0  0  0  0  0  0  0
   59.3630   33.1040   48.4210 N   0  0  0  0  0  0  0  0  0  0  0  0
   62.4370   32.1510   47.9286 H   0  0  0  0  0  0  0  0  0  0  0  0
   62.7809   33.5829   46.9001 H   0  0  0  0  0  0  0  0  0  0  0  0
   63.9092   32.1852   46.9001 H   0  0  0  0  0  0  0  0  0  0  0  0
   64.7365   32.6790   48.9970 H   0  0  0  0  0  0  0  0  0  0  0  0
   64.4634   34.3237   48.2342 H   0  0  0  0  0  0  0  0  0  0  0  0
   60.6559   35.6642   46.6396 H   0  0  0  0  0  0  0  0  0  0  0  0
   59.1500   35.4710   44.2260 H   0  0  0  0  0  0  0  0  0  0  0  0
   57.2920   33.9130   43.3760 H   0  0  0  0  0  0  0  0  0  0  0  0
   55.6840   31.1395   42.8447 H   0  0  0  0  0  0  0  0  0  0  0  0
   56.1947   28.9705   41.8127 H   0  0  0  0  0  0  0  0  0  0  0  0
   56.9750   26.4360   42.5890 H   0  0  0  0  0  0  0  0  0  0  0  0
   58.1941   30.1216   46.1793 H   0  0  0  0  0  0  0  0  0  0  0  0
   57.8219   31.7340   47.8435 H   0  0  0  0  0  0  0  0  0  0  0  0
   59.4640   32.6510   49.3350 H   0  0  0  0  0  0  0  0  0  0  0  0
  1  2  1  0
  2  3  1  0
  3  4  1  0
  4  5  2  0
  4  6  1  0
  6  7  2  0
  7  8  1  0
  8  9  2  0
  9 10  1  0
 10 11  1  0
 11 12  1  0
 12 13  2  0
 13 14  1  0
 14 15  2  0
 15 16  1  0
 16 17  2  0
 17 18  1  0
 17 19  1  0
 19 20  1  0
 19 21  2  0
 12 22  1  0
 22 23  2  0
 23 24  1  0
 24  7  1  0
 22  9  1  0
 21 14  1  0
  1 25  1  0
  1 26  1  0
  1 27  1  0
  2 28  1  0
  2 29  1  0
  8 30  1  0
 10 31  1  0
 11 32  1  0
 15 33  1  0
 16 34  1  0
 18 35  1  0
 21 36  1  0
 23 37  1  0
 24 38  1  0
M  END
>  <smiles>  (75) 
CCOC(=O)N=c1cc2[nH][nH]c(=Nc3ccc(O)c(Br)c3)c2c[nH]1

>  <score_type>  (75) 
oracle

>  <origin>  (75) 
adg

>  <m_score__min__energy>  (75) 
-7.2400000000000002

>  <m_primary>  (75) 
energy

$$$$
75:0
     RDKit          3D

 40 41  0  0  0  0  0  0  0  0999 V2000
   56.4840   30.4110   43.6750 C   0  0  0  0  0  0  0  0  0  0  0  0
   56.4510   31.2090   44.8550 O   0  0  0  0  0  0  0  0  0  0  0  0
   57.4600   32.1090   45.2290 C   0  0  0  0  0  0  0  0  0  0  0  0
   57.4310   33.4010   44.6890 C   0  0  0  0  0  0  0  0  0  0  0  0
   58.4070   34.3370   45.0360 C   0  0  0  0  0  0  0  0  0  0  0  0
   59.4270   33.9900   45.9240 C   0  0  0  0  0  0  0  0  0  0  0  0
   59.4780   32.6980   46.4710 C   0  0  0  0  0  0  0  0  0  0  0  0
   60.5380   32.3420   47.4820 C   0  0  0  0  0  0  0  0  0  0  0  0
   61.2240   31.0140   47.1360 C   0  0  0  0  0  0  0  0  0  0  0  0
   60.2990   29.8930   47.3030 N   0  0  0  0  0  0  0  0  0  0  0  0
   60.0540   28.9330   46.2580 C   0  0  0  0  0  0  0  0  0  0  0  0
   60.7250   28.9860   45.1910 O   0  0  0  0  0  0  0  0  0  0  0  0
   58.9980   27.9050   46.3980 C   0  0  0  0  0  0  0  0  0  0  0  0
   57.8250   27.9990   45.6310 C   0  0  0  0  0  0  0  0  0  0  0  0
   56.8170   27.0380   45.7550 C   0  0  0  0  0  0  0  0  0  0  0  0
   56.9620   25.9630   46.6400 C   0  0  0  0  0  0  0  0  0  0  0  0
   55.9170   25.0290   46.7250 O   0  0  0  0  0  0  0  0  0  0  0  0
   54.9190   24.8150   45.7290 C   0  0  0  0  0  0  0  0  0  0  0  0
   54.1610   23.7020   46.0460 F   0  0  0  0  0  0  0  0  0  0  0  0
   55.5380   24.6010   44.5130 F   0  0  0  0  0  0  0  0  0  0  0  0
   54.1040   25.9280   45.6240 F   0  0  0  0  0  0  0  0  0  0  0  0
   58.1410   25.8600   47.4030 C   0  0  0  0  0  0  0  0  0  0  0  0
   59.1490   26.8210   47.2800 C   0  0  0  0  0  0  0  0  0  0  0  0
   58.4900   31.7620   46.1260 C   0  0  0  0  0  0  0  0  0  0  0  0
   56.5280   29.3475   43.9527 H   0  0  0  0  0  0  0  0  0  0  0  0
   55.5774   30.5976   43.0807 H   0  0  0  0  0  0  0  0  0  0  0  0
   57.3721   30.6718   43.0807 H   0  0  0  0  0  0  0  0  0  0  0  0
   56.6327   33.6805   43.9857 H   0  0  0  0  0  0  0  0  0  0  0  0
   58.3723   35.3501   44.6089 H   0  0  0  0  0  0  0  0  0  0  0  0
   60.1930   34.7312   46.1959 H   0  0  0  0  0  0  0  0  0  0  0  0
   61.2946   33.1402   47.5022 H   0  0  0  0  0  0  0  0  0  0  0  0
   60.0548   32.2343   48.4643 H   0  0  0  0  0  0  0  0  0  0  0  0
   61.5666   31.0464   46.0912 H   0  0  0  0  0  0  0  0  0  0  0  0
   62.0780   30.8708   47.8144 H   0  0  0  0  0  0  0  0  0  0  0  0
   59.6620   29.9240   48.1280 H   0  0  0  0  0  0  0  0  0  0  0  0
   57.6985   28.8350   44.9274 H   0  0  0  0  0  0  0  0  0  0  0  0
   55.9016   27.1275   45.1516 H   0  0  0  0  0  0  0  0  0  0  0  0
   58.2697   25.0186   48.0998 H   0  0  0  0  0  0  0  0  0  0  0  0
   60.0675   26.7281   47.8782 H   0  0  0  0  0  0  0  0  0  0  0  0
   58.5201   30.7511   46.5587 H   0  0  0  0  0  0  0  0  0  0  0  0
  1  2  1  0
  2  3  1  0
  3  4  2  0
  4  5  1  0
  5  6  2  0
  6  7  1  0
  7  8  1  0
  8  9  1  0
  9 10  1  0
 10 11  1  0
 11 12  2  0
 11 13  1  0
 13 14  2  0
 14 15  1  0
 15 16  2  0
 16 17  1  0
 17 18  1  0
 18 19  1  0
 18 20  1  0
 18 21  1  0
 16 22  1  0
 22 23  2  0
  7 24  2  0
 24  3  1  0
 23 13  1  0
  1 25  1  0
  1 26  1  0
  1 27  1  0
  4 28  1  0
  5 29  1  0
  6 30  1  0
  8 31  1  0
  8 32  1  0
  9 33  1  0
  9 34  1  0
 10 35  1  0
 14 36  1  0
 15 37  1  0
 22 38  1  0
 23 39  1  0
 24 40  1  0
M  END
>  <UniqueID>  (76) 
67

>  <SMILES>  (76) 
COc1cccc(CCNC(=O)c2ccc(OC(F)(F)F)cc2)c1

>  <Energy>  (76) 
37.08285075379006

>  <Genealogy>  (76) 
COc1cccc(CCNC(=O)c2ccc(OC(F)(F)F)cc2)c1 (3D coordinates assigned)
COc1cccc(CCNC(=O)c2ccc(OC(F)(F)F)cc2)c1 (optimized conformer: 37.08285075379006 kcal/mol)

>  <smiles>  (76) 
COc1cccc(CCNC(=O)c2ccc(OC(F)(F)F)cc2)c1

>  <score_type>  (76) 
oracle

>  <origin>  (76) 
adg

>  <m_score__min__energy>  (76) 
-6.7000000000000002

>  <m_primary>  (76) 
energy

$$$$
76:0
     RDKit          3D

 49 52  0  0  0  0  0  0  0  0999 V2000
   59.9237   34.9995   49.4940 H   0  0  0  0  0  0  0  0  0  0  0  0
   59.6300   34.4190   48.6070 C   0  0  0  0  0  0  0  0  0  0  0  0
   59.6470   35.0010   47.3780 N   0  0  0  0  0  0  0  0  0  0  0  0
   59.2770   34.3210   46.2610 C   0  0  0  0  0  0  0  0  0  0  0  0
   59.3182   34.8144   45.2787 H   0  0  0  0  0  0  0  0  0  0  0  0
   58.8420   32.9890   46.3590 C   0  0  0  0  0  0  0  0  0  0  0  0
   58.5170   32.2300   45.1890 N   0  0  0  0  0  0  0  0  0  0  0  0
   57.9760   31.0460   45.1090 C   0  0  0  0  0  0  0  0  0  0  0  0
   56.7580   30.9400   44.5020 N   0  0  0  0  0  0  0  0  0  0  0  0
   56.0750   29.7600   44.4170 C   0  0  0  0  0  0  0  0  0  0  0  0
   54.8080   29.7170   43.7620 N   0  0  0  0  0  0  0  0  0  0  0  0
   54.6450   29.0790   42.9500 H   0  0  0  0  0  0  0  0  0  0  0  0
   54.0260   30.3260   44.0900 H   0  0  0  0  0  0  0  0  0  0  0  0
   56.6330   28.6010   44.9690 C   0  0  0  0  0  0  0  0  0  0  0  0
   56.1010   27.6392   44.9256 H   0  0  0  0  0  0  0  0  0  0  0  0
   57.8520   28.7010   45.5600 N   0  0  0  0  0  0  0  0  0  0  0  0
   58.6720   27.7410   46.0390 C   0  0  0  0  0  0  0  0  0  0  0  0
   58.3520   26.3030   46.1760 C   0  0  0  0  0  0  0  0  0  0  0  0
   59.3080   25.3370   45.8450 C   0  0  0  0  0  0  0  0  0  0  0  0
   60.2939   25.6517   45.4723 H   0  0  0  0  0  0  0  0  0  0  0  0
   59.0210   23.9680   45.9840 C   0  0  0  0  0  0  0  0  0  0  0  0
   59.9590   22.9770   45.6470 O   0  0  0  0  0  0  0  0  0  0  0  0
   59.8630   22.1230   44.5120 C   0  0  0  0  0  0  0  0  0  0  0  0
   59.7459   21.0814   44.8457 H   0  0  0  0  0  0  0  0  0  0  0  0
   58.9919   22.4142   43.9067 H   0  0  0  0  0  0  0  0  0  0  0  0
   60.7770   22.2135   43.9067 H   0  0  0  0  0  0  0  0  0  0  0  0
   57.7690   23.5570   46.4700 C   0  0  0  0  0  0  0  0  0  0  0  0
   57.5580   22.1680   46.5740 O   0  0  0  0  0  0  0  0  0  0  0  0
   56.9110   21.3350   45.6190 C   0  0  0  0  0  0  0  0  0  0  0  0
   56.3173   20.5706   46.1417 H   0  0  0  0  0  0  0  0  0  0  0  0
   56.2484   21.9461   44.9885 H   0  0  0  0  0  0  0  0  0  0  0  0
   57.6671   20.8443   44.9885 H   0  0  0  0  0  0  0  0  0  0  0  0
   56.8000   24.5300   46.8280 C   0  0  0  0  0  0  0  0  0  0  0  0
   55.5500   24.1270   47.3240 O   0  0  0  0  0  0  0  0  0  0  0  0
   55.3380   23.0470   48.2290 C   0  0  0  0  0  0  0  0  0  0  0  0
   55.4103   23.4154   49.2629 H   0  0  0  0  0  0  0  0  0  0  0  0
   54.3387   22.6189   48.0614 H   0  0  0  0  0  0  0  0  0  0  0  0
   56.1013   22.2729   48.0614 H   0  0  0  0  0  0  0  0  0  0  0  0
   57.1120   25.8960   46.6820 C   0  0  0  0  0  0  0  0  0  0  0  0
   56.3695   26.6547   46.9702 H   0  0  0  0  0  0  0  0  0  0  0  0
   59.8870   28.3330   46.3350 C   0  0  0  0  0  0  0  0  0  0  0  0
   60.7712   27.8128   46.7319 H   0  0  0  0  0  0  0  0  0  0  0  0
   59.8120   29.6520   46.0580 N   0  0  0  0  0  0  0  0  0  0  0  0
   60.6150   30.3140   46.1030 H   0  0  0  0  0  0  0  0  0  0  0  0
   58.5510   29.8530   45.6130 C   0  0  0  0  0  0  0  0  0  0  0  0
   58.8570   32.3640   47.6110 C   0  0  0  0  0  0  0  0  0  0  0  0
   58.5676   31.3067   47.7025 H   0  0  0  0  0  0  0  0  0  0  0  0
   59.2400   33.0850   48.7440 C   0  0  0  0  0  0  0  0  0  0  0  0
   59.2346   32.6069   49.7346 H   0  0  0  0  0  0  0  0  0  0  0  0
  1  2  1  0
  2  3  2  0
  3  4  1  0
  4  5  1  0
  4  6  2  0
  6  7  1  0
  7  8  2  0
  8  9  1  0
  9 10  1  0
 10 11  1  0
 11 12  1  0
 11 13  1  0
 10 14  2  0
 14 15  1  0
 14 16  1  0
 16 17  1  0
 17 18  1  0
 18 19  2  0
 19 20  1  0
 19 21  1  0
 21 22  1  0
 22 23  1  0
 23 24  1  0
 23 25  1  0
 23 26  1  0
 21 27  2  0
 27 28  1  0
 28 29  1  0
 29 30  1  0
 29 31  1  0
 29 32  1  0
 27 33  1  0
 33 34  1  0
 34 35  1  0
 35 36  1  0
 35 37  1  0
 35 38  1  0
 33 39  2  0
 39 40  1  0
 17 41  2  0
 41 42  1  0
 41 43  1  0
 43 44  1  0
 43 45  2  0
  6 46  1  0
 46 47  1  0
 46 48  2  0
 48 49  1  0
 48  2  1  0
 45  8  1  0
 45 16  1  0
 39 18  1  0
M  CHG  2   9  -1  43   1
M  END
>  <UniqueID>  (77) 
68

>  <SMILES>  (77) 
COc1cc(-c2c[nH+]c3/c(=N\c4cccnc4)[n-]c(N)cn23)cc(OC)c1OC

>  <Energy>  (77) 
111.63443413359836

>  <Genealogy>  (77) 
COc1cc(-c2c[nH+]c3c(=Nc4cccnc4)[n-]c(N)cn23)cc(OC)c1OC (protonated)
COc1cc(-c2c[nH+]c3/c(=N\c4cccnc4)[n-]c(N)cn23)cc(OC)c1OC (cis-trans isomerization)
COc1cc(-c2c[nH+]c3/c(=N\c4cccnc4)[n-]c(N)cn23)cc(OC)c1OC (3D coordinates assigned)
COc1cc(-c2c[nH+]c3/c(=N\c4cccnc4)[n-]c(N)cn23)cc(OC)c1OC (optimized conformer: 111.63443413359836 kcal/mol)

>  <smiles>  (77) 
COc1cc(-c2cnc3c(=Nc4cccnc4)[nH]c(N)cn23)cc(OC)c1OC

>  <score_type>  (77) 
oracle

>  <origin>  (77) 
adg

>  <m_score__min__energy>  (77) 
-7.5800000000000001

>  <m_primary>  (77) 
energy

$$$$
77:0
     RDKit          3D

 52 52  0  0  0  0  0  0  0  0999 V2000
   55.4440   30.4400   44.5100 O   0  0  0  0  0  0  0  0  0  0  0  0
   56.6700   30.1490   44.5630 C   0  0  0  0  0  0  0  0  0  0  0  0
   57.6330   30.8020   43.6160 C   0  0  0  0  0  0  0  0  0  0  0  0
   57.4060   32.3170   43.5370 C   0  0  0  0  0  0  0  0  0  0  0  0
   57.9410   33.0300   44.7550 C   0  0  0  0  0  0  0  0  0  0  0  0
   57.3470   32.8310   46.0130 C   0  0  0  0  0  0  0  0  0  0  0  0
   57.8560   33.4810   47.1440 C   0  0  0  0  0  0  0  0  0  0  0  0
   58.9670   34.3240   47.0310 C   0  0  0  0  0  0  0  0  0  0  0  0
   59.4600   34.9680   48.1630 O   0  0  0  0  0  0  0  0  0  0  0  0
   59.5730   34.5110   45.7810 C   0  0  0  0  0  0  0  0  0  0  0  0
   59.0650   33.8640   44.6480 C   0  0  0  0  0  0  0  0  0  0  0  0
   57.1430   29.1640   45.4830 N   0  0  0  0  0  0  0  0  0  0  0  0
   58.5060   29.1510   45.9980 C   0  0  0  0  0  0  0  0  0  0  0  0
   58.6490   30.1620   47.1370 C   0  0  0  0  0  0  0  0  0  0  0  0
   60.0960   30.2560   47.6360 C   0  0  0  0  0  0  0  0  0  0  0  0
   60.6650   31.5560   47.2680 N   0  0  0  0  0  0  0  0  0  0  0  0
   62.1260   31.4630   47.1740 C   0  0  0  0  0  0  0  0  0  0  0  0
   62.7530   32.8660   47.2030 C   0  0  0  0  0  0  0  0  0  0  0  0
   61.9660   33.8020   48.0310 N   0  0  0  0  0  0  0  0  0  0  0  0
   62.6460   34.2240   49.2660 C   0  0  0  0  0  0  0  0  0  0  0  0
   61.9000   33.8280   50.5550 C   0  0  0  0  0  0  0  0  0  0  0  0
   61.1450   32.5020   50.4330 C   0  0  0  0  0  0  0  0  0  0  0  0
   59.8140   32.7490   49.8920 N   0  0  0  0  0  0  0  0  0  0  0  0
   58.7580   32.3780   50.5040 C   0  0  0  0  0  0  0  0  0  0  0  0
   57.4200   31.9060   51.2720 S   0  0  0  0  0  0  0  0  0  0  0  0
   58.6594   30.6123   43.9631 H   0  0  0  0  0  0  0  0  0  0  0  0
   57.4728   30.3769   42.6142 H   0  0  0  0  0  0  0  0  0  0  0  0
   57.9160   32.7070   42.6438 H   0  0  0  0  0  0  0  0  0  0  0  0
   56.3221   32.4973   43.4848 H   0  0  0  0  0  0  0  0  0  0  0  0
   56.4790   32.1622   46.1095 H   0  0  0  0  0  0  0  0  0  0  0  0
   57.3810   33.3284   48.1243 H   0  0  0  0  0  0  0  0  0  0  0  0
   60.0690   34.4910   48.8190 H   0  0  0  0  0  0  0  0  0  0  0  0
   60.4504   35.1681   45.6899 H   0  0  0  0  0  0  0  0  0  0  0  0
   59.5483   34.0097   43.6707 H   0  0  0  0  0  0  0  0  0  0  0  0
   58.7432   28.1446   46.3733 H   0  0  0  0  0  0  0  0  0  0  0  0
   59.1989   29.4221   45.1878 H   0  0  0  0  0  0  0  0  0  0  0  0
   58.3315   31.1517   46.7767 H   0  0  0  0  0  0  0  0  0  0  0  0
   58.0196   29.8256   47.9741 H   0  0  0  0  0  0  0  0  0  0  0  0
   60.1126   30.1468   48.7304 H   0  0  0  0  0  0  0  0  0  0  0  0
   60.6920   29.4550   47.1743 H   0  0  0  0  0  0  0  0  0  0  0  0
   60.4310   32.2330   48.0320 H   0  0  0  0  0  0  0  0  0  0  0  0
   62.5077   30.8774   48.0233 H   0  0  0  0  0  0  0  0  0  0  0  0
   62.3930   30.9714   46.2269 H   0  0  0  0  0  0  0  0  0  0  0  0
   63.7696   32.7931   47.6168 H   0  0  0  0  0  0  0  0  0  0  0  0
   62.7717   33.2532   46.1736 H   0  0  0  0  0  0  0  0  0  0  0  0
   61.0050   33.4480   48.2360 H   0  0  0  0  0  0  0  0  0  0  0  0
   63.6440   33.7619   49.2873 H   0  0  0  0  0  0  0  0  0  0  0  0
   62.6903   35.3229   49.2470 H   0  0  0  0  0  0  0  0  0  0  0  0
   62.6336   33.7387   51.3698 H   0  0  0  0  0  0  0  0  0  0  0  0
   61.1538   34.6113   50.7540 H   0  0  0  0  0  0  0  0  0  0  0  0
   61.6949   31.8274   49.7603 H   0  0  0  0  0  0  0  0  0  0  0  0
   61.0569   32.0374   51.4262 H   0  0  0  0  0  0  0  0  0  0  0  0
  1  2  2  0
  2  3  1  0
  3  4  1  0
  4  5  1  0
  5  6  2  0
  6  7  1  0
  7  8  2  0
  8  9  1  0
  8 10  1  0
 10 11  2  0
  2 12  1  0
 12 13  1  0
 13 14  1  0
 14 15  1  0
 15 16  1  0
 16 17  1  0
 17 18  1  0
 18 19  1  0
 19 20  1  0
 20 21  1  0
 21 22  1  0
 22 23  1  0
 23 24  2  0
 24 25  2  0
 11  5  1  0
  3 26  1  0
  3 27  1  0
  4 28  1  0
  4 29  1  0
  6 30  1  0
  7 31  1  0
  9 32  1  0
 10 33  1  0
 11 34  1  0
 13 35  1  0
 13 36  1  0
 14 37  1  0
 14 38  1  0
 15 39  1  0
 15 40  1  0
 16 41  1  0
 17 42  1  0
 17 43  1  0
 18 44  1  0
 18 45  1  0
 19 46  1  0
 20 47  1  0
 20 48  1  0
 21 49  1  0
 21 50  1  0
 22 51  1  0
 22 52  1  0
M  CHG  1  12  -1
M  END
>  <UniqueID>  (78) 
69

>  <SMILES>  (78) 
O=C(CCc1ccc(O)cc1)[N-]CCCNCCNCCCN=C=S

>  <Energy>  (78) 
32.65219428519252

>  <Genealogy>  (78) 
O=C(CCc1ccc(O)cc1)[N-]CCCNCCNCCCN=C=S (protonated)
O=C(CCc1ccc(O)cc1)[N-]CCCNCCNCCCN=C=S (3D coordinates assigned)
O=C(CCc1ccc(O)cc1)[N-]CCCNCCNCCCN=C=S (optimized conformer: 32.65219428519252 kcal/mol)

>  <smiles>  (78) 
O=C(CCc1ccc(O)cc1)NCCCNCCNCCCN=C=S

>  <score_type>  (78) 
oracle

>  <origin>  (78) 
adg

>  <m_score__min__energy>  (78) 
-8.8599999999999994

>  <m_primary>  (78) 
energy

$$$$
78:0
     RDKit          3D

 30 31  0  0  0  0  0  0  0  0999 V2000
   60.6640   26.8310   48.2060 C   0  0  0  0  0  0  0  0  0  0  0  0
   60.3940   26.7250   46.8120 O   0  0  0  0  0  0  0  0  0  0  0  0
   59.5930   27.6220   46.0890 C   0  0  0  0  0  0  0  0  0  0  0  0
   58.2050   27.5490   46.2440 C   0  0  0  0  0  0  0  0  0  0  0  0
   57.3650   28.4210   45.5450 C   0  0  0  0  0  0  0  0  0  0  0  0
   57.9070   29.3750   44.6760 C   0  0  0  0  0  0  0  0  0  0  0  0
   56.8440   30.4650   43.7900 S   0  0  0  0  0  0  0  0  0  0  0  0
   56.5950   29.8920   42.4240 O   0  0  0  0  0  0  0  0  0  0  0  0
   55.5280   30.6180   44.5010 O   0  0  0  0  0  0  0  0  0  0  0  0
   57.5870   32.0260   43.6230 N   0  0  0  0  0  0  0  0  0  0  0  0
   57.9600   32.8150   44.5900 C   0  0  0  0  0  0  0  0  0  0  0  0
   57.3990   32.6270   45.8600 C   0  0  0  0  0  0  0  0  0  0  0  0
   57.7730   33.4600   46.9160 C   0  0  0  0  0  0  0  0  0  0  0  0
   58.6800   34.4520   46.7170 N   0  0  0  0  0  0  0  0  0  0  0  0
   59.2440   34.6610   45.4960 C   0  0  0  0  0  0  0  0  0  0  0  0
   58.8990   33.8500   44.4120 C   0  0  0  0  0  0  0  0  0  0  0  0
   59.2960   29.4580   44.5190 C   0  0  0  0  0  0  0  0  0  0  0  0
   60.1380   28.5870   45.2190 C   0  0  0  0  0  0  0  0  0  0  0  0
   59.7884   26.4873   48.7762 H   0  0  0  0  0  0  0  0  0  0  0  0
   61.5343   26.2078   48.4593 H   0  0  0  0  0  0  0  0  0  0  0  0
   60.8779   27.8798   48.4593 H   0  0  0  0  0  0  0  0  0  0  0  0
   57.7706   26.7992   46.9216 H   0  0  0  0  0  0  0  0  0  0  0  0
   56.2750   28.3572   45.6784 H   0  0  0  0  0  0  0  0  0  0  0  0
   56.6651   31.8244   46.0248 H   0  0  0  0  0  0  0  0  0  0  0  0
   57.3318   33.3128   47.9128 H   0  0  0  0  0  0  0  0  0  0  0  0
   58.9500   35.0680   47.5170 H   0  0  0  0  0  0  0  0  0  0  0  0
   59.9748   35.4722   45.3621 H   0  0  0  0  0  0  0  0  0  0  0  0
   59.3574   34.0184   43.4263 H   0  0  0  0  0  0  0  0  0  0  0  0
   59.7268   30.2110   43.8427 H   0  0  0  0  0  0  0  0  0  0  0  0
   61.2282   28.6558   45.0898 H   0  0  0  0  0  0  0  0  0  0  0  0
  1  2  1  0
  2  3  1  0
  3  4  2  0
  4  5  1  0
  5  6  2  0
  6  7  1  0
  7  8  2  0
  7  9  2  0
  7 10  1  0
 10 11  2  3
 11 12  1  0
 12 13  2  0
 13 14  1  0
 14 15  1  0
 15 16  2  0
  6 17  1  0
 17 18  2  0
 18  3  1  0
 16 11  1  0
  1 19  1  0
  1 20  1  0
  1 21  1  0
  4 22  1  0
  5 23  1  0
 12 24  1  0
 13 25  1  0
 14 26  1  0
 15 27  1  0
 16 28  1  0
 17 29  1  0
 18 30  1  0
M  END
>  <UniqueID>  (79) 
70

>  <SMILES>  (79) 
COc1ccc(S(=O)(=O)N=c2cc[nH]cc2)cc1

>  <Energy>  (79) 
35.187238067650156

>  <Genealogy>  (79) 
COc1ccc(S(=O)(=O)N=c2cc[nH]cc2)cc1 (3D coordinates assigned)
COc1ccc(S(=O)(=O)N=c2cc[nH]cc2)cc1 (optimized conformer: 35.187238067650156 kcal/mol)

>  <smiles>  (79) 
COc1ccc(S(=O)(=O)N=c2cc[nH]cc2)cc1

>  <score_type>  (79) 
oracle

>  <origin>  (79) 
adg

>  <m_score__min__energy>  (79) 
-6.6600000000000001

>  <m_primary>  (79) 
energy

$$$$
79:0
     RDKit          3D

 48 51  0  0  0  0  0  0  0  0999 V2000
   56.8336   28.9794   41.8488 H   0  0  0  0  0  0  0  0  0  0  0  0
   56.9680   29.2880   42.8960 C   0  0  0  0  0  0  0  0  0  0  0  0
   56.7140   30.5700   43.2630 N   0  0  0  0  0  0  0  0  0  0  0  0
   56.8690   30.9720   44.5510 C   0  0  0  0  0  0  0  0  0  0  0  0
   56.6290   32.2090   44.8690 N   0  0  0  0  0  0  0  0  0  0  0  0
   57.5390   33.3130   44.5730 C   0  0  0  0  0  0  0  0  0  0  0  0
   58.1444   33.0620   43.6895 H   0  0  0  0  0  0  0  0  0  0  0  0
   56.9561   34.2240   44.3722 H   0  0  0  0  0  0  0  0  0  0  0  0
   58.4380   33.5460   45.7420 C   0  0  0  0  0  0  0  0  0  0  0  0
   59.7210   33.1370   45.7980 N   0  0  0  0  0  0  0  0  0  0  0  0
   60.1300   33.5770   47.0110 C   0  0  0  0  0  0  0  0  0  0  0  0
   61.4920   33.3540   47.5470 C   0  0  0  0  0  0  0  0  0  0  0  0
   62.6160   33.5680   46.7280 C   0  0  0  0  0  0  0  0  0  0  0  0
   62.4797   33.9122   45.6922 H   0  0  0  0  0  0  0  0  0  0  0  0
   63.9050   33.3460   47.2220 C   0  0  0  0  0  0  0  0  0  0  0  0
   64.7777   33.5161   46.5744 H   0  0  0  0  0  0  0  0  0  0  0  0
   64.0870   32.9090   48.5350 C   0  0  0  0  0  0  0  0  0  0  0  0
   65.1021   32.7323   48.9202 H   0  0  0  0  0  0  0  0  0  0  0  0
   62.9800   32.6960   49.3600 C   0  0  0  0  0  0  0  0  0  0  0  0
   63.1255   32.3544   50.3954 H   0  0  0  0  0  0  0  0  0  0  0  0
   61.6860   32.9160   48.8730 C   0  0  0  0  0  0  0  0  0  0  0  0
   60.6310   32.6990   49.6990 F   0  0  0  0  0  0  0  0  0  0  0  0
   59.1800   34.2190   47.6610 O   0  0  0  0  0  0  0  0  0  0  0  0
   58.1150   34.2210   46.8970 C   0  0  0  0  0  0  0  0  0  0  0  0
   57.1430   34.6777   47.1349 H   0  0  0  0  0  0  0  0  0  0  0  0
   57.2880   30.0790   45.4890 N   0  0  0  0  0  0  0  0  0  0  0  0
   57.5660   28.7880   45.1690 C   0  0  0  0  0  0  0  0  0  0  0  0
   57.9990   27.8730   46.1920 N   0  0  0  0  0  0  0  0  0  0  0  0
   57.2680   26.7120   46.5500 C   0  0  0  0  0  0  0  0  0  0  0  0
   56.0340   26.5640   46.3450 O   0  0  0  0  0  0  0  0  0  0  0  0
   58.0590   25.7230   47.0770 O   0  0  0  0  0  0  0  0  0  0  0  0
   59.4080   26.1590   47.1170 C   0  0  0  0  0  0  0  0  0  0  0  0
   60.0441   25.4922   46.5164 H   0  0  0  0  0  0  0  0  0  0  0  0
   59.8065   26.1497   48.1422 H   0  0  0  0  0  0  0  0  0  0  0  0
   59.4070   27.6000   46.5130 C   0  0  2  0  0  0  0  0  0  0  0  0
   60.0465   27.6744   45.6211 H   0  0  0  0  0  0  0  0  0  0  0  0
   59.9960   28.6420   47.5090 C   0  0  0  0  0  0  0  0  0  0  0  0
   60.7921   28.1220   48.0621 H   0  0  0  0  0  0  0  0  0  0  0  0
   60.5760   29.8480   46.7510 C   0  0  0  0  0  0  0  0  0  0  0  0
   60.9358   30.5961   47.4727 H   0  0  0  0  0  0  0  0  0  0  0  0
   61.4129   29.5159   46.1191 H   0  0  0  0  0  0  0  0  0  0  0  0
   59.7941   30.2945   46.1191 H   0  0  0  0  0  0  0  0  0  0  0  0
   58.9620   29.1420   48.5290 C   0  0  0  0  0  0  0  0  0  0  0  0
   59.3352   28.9616   49.5479 H   0  0  0  0  0  0  0  0  0  0  0  0
   58.7962   30.2198   48.3848 H   0  0  0  0  0  0  0  0  0  0  0  0
   58.0142   28.6027   48.3848 H   0  0  0  0  0  0  0  0  0  0  0  0
   57.3990   28.3620   43.8450 C   0  0  0  0  0  0  0  0  0  0  0  0
   57.6035   27.3194   43.5602 H   0  0  0  0  0  0  0  0  0  0  0  0
  1  2  1  0
  2  3  1  0
  3  4  1  0
  4  5  2  0
  5  6  1  0
  6  7  1  0
  6  8  1  0
  6  9  1  0
  9 10  1  0
 10 11  2  0
 11 12  1  0
 12 13  2  0
 13 14  1  0
 13 15  1  0
 15 16  1  0
 15 17  2  0
 17 18  1  0
 17 19  1  0
 19 20  1  0
 19 21  2  0
 21 22  1  0
 11 23  1  0
 23 24  1  0
 24 25  1  0
  4 26  1  0
 26 27  2  0
 27 28  1  0
 28 29  1  0
 29 30  2  0
 29 31  1  0
 31 32  1  0
 32 33  1  0
 32 34  1  0
 32 35  1  0
 35 36  1  6
 35 37  1  0
 37 38  1  0
 37 39  1  0
 39 40  1  0
 39 41  1  0
 39 42  1  0
 37 43  1  0
 43 44  1  0
 43 45  1  0
 43 46  1  0
 27 47  1  0
 47 48  1  0
 47  2  2  0
 24  9  2  0
 35 28  1  0
 21 12  1  0
M  CHG  1   3  -1
M  END
>  <UniqueID>  (80) 
71

>  <SMILES>  (80) 
CC(C)[C@H]1COC(=O)N1c1cc[n-]/c(=N/Cc2coc(-c3ccccc3F)n2)n1

>  <Energy>  (80) 
96.56848796718819

>  <Genealogy>  (80) 
CC(C)C1COC(=O)N1c1cc[n-]c(=NCc2coc(-c3ccccc3F)n2)n1 (protonated)
CC(C)[C@H]1COC(=O)N1c1cc[n-]c(=NCc2coc(-c3ccccc3F)n2)n1 (chirality)
CC(C)[C@H]1COC(=O)N1c1cc[n-]/c(=N/Cc2coc(-c3ccccc3F)n2)n1 (cis-trans isomerization)
CC(C)[C@H]1COC(=O)N1c1cc[n-]/c(=N/Cc2coc(-c3ccccc3F)n2)n1 (3D coordinates assigned)
CC(C)[C@H]1COC(=O)N1c1cc[n-]/c(=N/Cc2coc(-c3ccccc3F)n2)n1 (nonaromatic ring conformer: 96.56848796718819 kcal/mol)

>  <smiles>  (80) 
CC(C)C1COC(=O)N1c1cc[nH]c(=NCc2coc(-c3ccccc3F)n2)n1

>  <score_type>  (80) 
oracle

>  <origin>  (80) 
adg

>  <m_score__min__energy>  (80) 
-10.09

>  <m_primary>  (80) 
energy

$$$$
80:0
     RDKit          3D

 39 41  0  0  0  0  0  0  0  0999 V2000
   64.4350   33.4060   50.6530 C   0  0  0  0  0  0  0  0  0  0  0  0
   63.2100   33.8770   50.2410 C   0  0  0  0  0  0  0  0  0  0  0  0
   63.0290   33.5080   48.9590 N   0  0  0  0  0  0  0  0  0  0  0  0
   61.8880   33.7850   48.1210 C   0  0  0  0  0  0  0  0  0  0  0  0
   60.6890   34.2650   48.6800 C   0  0  0  0  0  0  0  0  0  0  0  0
   59.5840   34.5330   47.8670 C   0  0  0  0  0  0  0  0  0  0  0  0
   59.6510   34.3290   46.4850 C   0  0  0  0  0  0  0  0  0  0  0  0
   58.5140   34.6130   45.7150 O   0  0  0  0  0  0  0  0  0  0  0  0
   57.3820   33.7550   45.6020 C   0  0  0  0  0  0  0  0  0  0  0  0
   57.7650   32.3390   46.0240 C   0  0  0  0  0  0  0  0  0  0  0  0
   58.3490   31.6020   44.8790 N   0  0  0  0  0  0  0  0  0  0  0  0
   58.6750   30.2050   45.2240 C   0  0  0  0  0  0  0  0  0  0  0  0
   57.4000   29.3480   45.4090 C   0  0  0  0  0  0  0  0  0  0  0  0
   56.2400   29.9510   44.8610 O   0  0  0  0  0  0  0  0  0  0  0  0
   56.5210   30.4650   43.5770 C   0  0  0  0  0  0  0  0  0  0  0  0
   57.4920   31.6600   43.6700 C   0  0  0  0  0  0  0  0  0  0  0  0
   60.8460   33.8510   45.9200 C   0  0  0  0  0  0  0  0  0  0  0  0
   61.9520   33.5820   46.7310 C   0  0  0  0  0  0  0  0  0  0  0  0
   64.1450   32.8240   48.6260 C   0  0  0  0  0  0  0  0  0  0  0  0
   65.0280   32.7410   49.6430 N   0  0  0  0  0  0  0  0  0  0  0  0
   64.8650   33.5505   51.6551 H   0  0  0  0  0  0  0  0  0  0  0  0
   62.5014   34.4547   50.8527 H   0  0  0  0  0  0  0  0  0  0  0  0
   60.6209   34.4306   49.7653 H   0  0  0  0  0  0  0  0  0  0  0  0
   58.6534   34.9077   48.3182 H   0  0  0  0  0  0  0  0  0  0  0  0
   56.5763   34.1252   46.2530 H   0  0  0  0  0  0  0  0  0  0  0  0
   57.0371   33.7429   44.5575 H   0  0  0  0  0  0  0  0  0  0  0  0
   58.5036   32.3900   46.8376 H   0  0  0  0  0  0  0  0  0  0  0  0
   56.8628   31.8112   46.3669 H   0  0  0  0  0  0  0  0  0  0  0  0
   59.2821   29.7708   44.4160 H   0  0  0  0  0  0  0  0  0  0  0  0
   59.2275   30.2070   46.1752 H   0  0  0  0  0  0  0  0  0  0  0  0
   57.5561   28.3772   44.9158 H   0  0  0  0  0  0  0  0  0  0  0  0
   57.2327   29.2384   46.4907 H   0  0  0  0  0  0  0  0  0  0  0  0
   56.9783   29.6747   42.9636 H   0  0  0  0  0  0  0  0  0  0  0  0
   55.5812   30.8070   43.1189 H   0  0  0  0  0  0  0  0  0  0  0  0
   58.1377   31.6601   42.7795 H   0  0  0  0  0  0  0  0  0  0  0  0
   56.8883   32.5775   43.7316 H   0  0  0  0  0  0  0  0  0  0  0  0
   60.9110   33.6878   44.8341 H   0  0  0  0  0  0  0  0  0  0  0  0
   62.8817   33.2078   46.2775 H   0  0  0  0  0  0  0  0  0  0  0  0
   64.3156   32.3823   47.6331 H   0  0  0  0  0  0  0  0  0  0  0  0
  1  2  2  0
  2  3  1  0
  3  4  1  0
  4  5  2  0
  5  6  1  0
  6  7  2  0
  7  8  1  0
  8  9  1  0
  9 10  1  0
 10 11  1  0
 11 12  1  0
 12 13  1  0
 13 14  1  0
 14 15  1  0
 15 16  1  0
  7 17  1  0
 17 18  2  0
  3 19  1  0
 19 20  2  0
 20  1  1  0
 18  4  1  0
 16 11  1  0
  1 21  1  0
  2 22  1  0
  5 23  1  0
  6 24  1  0
  9 25  1  0
  9 26  1  0
 10 27  1  0
 10 28  1  0
 12 29  1  0
 12 30  1  0
 13 31  1  0
 13 32  1  0
 15 33  1  0
 15 34  1  0
 16 35  1  0
 16 36  1  0
 17 37  1  0
 18 38  1  0
 19 39  1  0
M  END
>  <UniqueID>  (81) 
72

>  <SMILES>  (81) 
c1cn(-c2ccc(OCCN3CCOCC3)cc2)cn1

>  <Energy>  (81) 
82.68981100654268

>  <Genealogy>  (81) 
c1cn(-c2ccc(OCCN3CCOCC3)cc2)cn1 (3D coordinates assigned)
c1cn(-c2ccc(OCCN3CCOCC3)cc2)cn1 (nonaromatic ring conformer: 82.68981100654268 kcal/mol)

>  <smiles>  (81) 
c1cn(-c2ccc(OCCN3CCOCC3)cc2)cn1

>  <score_type>  (81) 
oracle

>  <origin>  (81) 
adg

>  <m_score__min__energy>  (81) 
-6.5899999999999999

>  <m_primary>  (81) 
energy

$$$$
81:0
     RDKit          3D

 45 47  0  0  0  0  0  0  0  0999 V2000
   57.8410   31.7670   42.9630 C   0  0  0  0  0  0  0  0  0  0  0  0
   56.9870   30.3360   43.5910 S   0  0  0  0  0  0  0  0  0  0  0  0
   56.3560   29.5980   42.4440 O   0  0  0  0  0  0  0  0  0  0  0  0
   55.9000   30.7710   44.5340 O   0  0  0  0  0  0  0  0  0  0  0  0
   58.0950   29.2830   44.4260 N   0  0  0  0  0  0  0  0  0  0  0  0
   59.3890   29.8110   44.8730 C   0  0  0  0  0  0  0  0  0  0  0  0
   59.4190   29.9430   46.3780 C   0  0  0  0  0  0  0  0  0  0  0  0
   59.6960   28.8040   47.1560 C   0  0  0  0  0  0  0  0  0  0  0  0
   59.7760   28.8930   48.5480 C   0  0  0  0  0  0  0  0  0  0  0  0
   59.5690   30.1180   49.1820 C   0  0  0  0  0  0  0  0  0  0  0  0
   59.2690   31.2530   48.4280 C   0  0  0  0  0  0  0  0  0  0  0  0
   59.1810   31.1770   47.0310 C   0  0  0  0  0  0  0  0  0  0  0  0
   58.8330   32.3540   46.2910 N   0  0  0  0  0  0  0  0  0  0  0  0
   59.7890   33.3990   45.9810 C   0  0  0  0  0  0  0  0  0  0  0  0
   58.9890   34.4720   45.2580 C   0  0  0  0  0  0  0  0  0  0  0  0
   57.5260   34.2070   45.6080 C   0  0  0  0  0  0  0  0  0  0  0  0
   57.4570   32.7520   46.0560 C   0  0  0  0  0  0  0  0  0  0  0  0
   57.7450   27.9050   44.6450 C   0  0  0  0  0  0  0  0  0  0  0  0
   58.1260   26.9190   43.7200 C   0  0  0  0  0  0  0  0  0  0  0  0
   57.7880   25.5800   43.9360 C   0  0  0  0  0  0  0  0  0  0  0  0
   57.0660   25.2150   45.0750 C   0  0  0  0  0  0  0  0  0  0  0  0
   56.6780   26.1890   45.9980 C   0  0  0  0  0  0  0  0  0  0  0  0
   57.0150   27.5290   45.7870 C   0  0  0  0  0  0  0  0  0  0  0  0
   58.2042   32.3757   43.8042 H   0  0  0  0  0  0  0  0  0  0  0  0
   58.6944   31.4443   42.3485 H   0  0  0  0  0  0  0  0  0  0  0  0
   57.1519   32.3649   42.3485 H   0  0  0  0  0  0  0  0  0  0  0  0
   60.1884   29.1259   44.5543 H   0  0  0  0  0  0  0  0  0  0  0  0
   59.5392   30.8052   44.4270 H   0  0  0  0  0  0  0  0  0  0  0  0
   59.8513   27.8330   46.6630 H   0  0  0  0  0  0  0  0  0  0  0  0
   60.0023   27.9967   49.1441 H   0  0  0  0  0  0  0  0  0  0  0  0
   59.6423   30.1893   50.2772 H   0  0  0  0  0  0  0  0  0  0  0  0
   59.1002   32.2151   48.9338 H   0  0  0  0  0  0  0  0  0  0  0  0
   60.2306   33.8035   46.9037 H   0  0  0  0  0  0  0  0  0  0  0  0
   60.6218   33.0246   45.3676 H   0  0  0  0  0  0  0  0  0  0  0  0
   59.2903   35.4721   45.6029 H   0  0  0  0  0  0  0  0  0  0  0  0
   59.1576   34.4396   44.1715 H   0  0  0  0  0  0  0  0  0  0  0  0
   57.2011   34.8729   46.4210 H   0  0  0  0  0  0  0  0  0  0  0  0
   56.8661   34.3951   44.7483 H   0  0  0  0  0  0  0  0  0  0  0  0
   56.8673   32.6617   46.9802 H   0  0  0  0  0  0  0  0  0  0  0  0
   56.9705   32.1152   45.3025 H   0  0  0  0  0  0  0  0  0  0  0  0
   58.6933   27.2020   42.8210 H   0  0  0  0  0  0  0  0  0  0  0  0
   58.0908   24.8127   43.2083 H   0  0  0  0  0  0  0  0  0  0  0  0
   56.8031   24.1605   45.2450 H   0  0  0  0  0  0  0  0  0  0  0  0
   56.1062   25.9010   46.8925 H   0  0  0  0  0  0  0  0  0  0  0  0
   56.7081   28.2925   46.5169 H   0  0  0  0  0  0  0  0  0  0  0  0
  1  2  1  0
  2  3  2  0
  2  4  2  0
  2  5  1  0
  5  6  1  0
  6  7  1  0
  7  8  2  0
  8  9  1  0
  9 10  2  0
 10 11  1  0
 11 12  2  0
 12 13  1  0
 13 14  1  0
 14 15  1  0
 15 16  1  0
 16 17  1  0
  5 18  1  0
 18 19  2  0
 19 20  1  0
 20 21  2  0
 21 22  1  0
 22 23  2  0
 12  7  1  0
 17 13  1  0
 23 18  1  0
  1 24  1  0
  1 25  1  0
  1 26  1  0
  6 27  1  0
  6 28  1  0
  8 29  1  0
  9 30  1  0
 10 31  1  0
 11 32  1  0
 14 33  1  0
 14 34  1  0
 15 35  1  0
 15 36  1  0
 16 37  1  0
 16 38  1  0
 17 39  1  0
 17 40  1  0
 19 41  1  0
 20 42  1  0
 21 43  1  0
 22 44  1  0
 23 45  1  0
M  END
>  <UniqueID>  (82) 
73

>  <SMILES>  (82) 
CS(=O)(=O)N(Cc1ccccc1N1CCCC1)c1ccccc1

>  <Energy>  (82) 
51.300941290312

>  <Genealogy>  (82) 
CS(=O)(=O)N(Cc1ccccc1N1CCCC1)c1ccccc1 (3D coordinates assigned)
CS(=O)(=O)N(Cc1ccccc1N1CCCC1)c1ccccc1 (nonaromatic ring conformer: 51.300941290312 kcal/mol)

>  <smiles>  (82) 
CS(=O)(=O)N(Cc1ccccc1N1CCCC1)c1ccccc1

>  <score_type>  (82) 
oracle

>  <origin>  (82) 
adg

>  <m_score__min__energy>  (82) 
-8.1400000000000006

>  <m_primary>  (82) 
energy

$$$$
82:0
     RDKit          3D

 40 42  0  0  0  0  0  0  0  0999 V2000
   55.8830   26.0700   46.0210 C   0  0  0  0  0  0  0  0  0  0  0  0
   55.8810   27.4720   45.6320 N   0  0  0  0  0  0  0  0  0  0  0  0
   57.0660   28.1650   45.2290 C   0  0  0  0  0  0  0  0  0  0  0  0
   57.7360   27.7590   44.2410 O   0  0  0  0  0  0  0  0  0  0  0  0
   57.4960   29.3960   45.9690 C   0  0  2  0  0  0  0  0  0  0  0  0
   57.1050   30.5450   45.2220 O   0  0  0  0  0  0  0  0  0  0  0  0
   57.7410   31.7800   45.3450 C   0  0  0  0  0  0  0  0  0  0  0  0
   57.0890   32.9300   44.8950 C   0  0  0  0  0  0  0  0  0  0  0  0
   57.6980   34.1780   45.0170 C   0  0  0  0  0  0  0  0  0  0  0  0
   58.9680   34.2880   45.5970 C   0  0  0  0  0  0  0  0  0  0  0  0
   59.6390   35.6260   45.6960 C   0  0  0  0  0  0  0  0  0  0  0  0
   59.6410   33.1280   46.0150 C   0  0  0  0  0  0  0  0  0  0  0  0
   59.0350   31.8600   45.8960 C   0  0  0  0  0  0  0  0  0  0  0  0
   59.7140   30.6360   46.2810 N   0  0  0  0  0  0  0  0  0  0  0  0
   61.1130   30.6390   46.7470 C   0  0  0  0  0  0  0  0  0  0  0  0
   61.3280   31.6790   47.8190 C   0  0  0  0  0  0  0  0  0  0  0  0
   62.4270   32.5530   47.7500 C   0  0  0  0  0  0  0  0  0  0  0  0
   62.6370   33.5050   48.7520 C   0  0  0  0  0  0  0  0  0  0  0  0
   61.7610   33.5850   49.8370 C   0  0  0  0  0  0  0  0  0  0  0  0
   60.6760   32.7080   49.9250 C   0  0  0  0  0  0  0  0  0  0  0  0
   60.4630   31.7550   48.9240 C   0  0  0  0  0  0  0  0  0  0  0  0
   58.9820   29.3900   46.2240 C   0  0  0  0  0  0  0  0  0  0  0  0
   59.5610   28.2980   46.4810 O   0  0  0  0  0  0  0  0  0  0  0  0
   55.8831   25.9940   47.1184 H   0  0  0  0  0  0  0  0  0  0  0  0
   54.9856   25.5768   45.6194 H   0  0  0  0  0  0  0  0  0  0  0  0
   56.7818   25.5793   45.6194 H   0  0  0  0  0  0  0  0  0  0  0  0
   57.0040   29.4178   46.9526 H   0  0  0  0  0  0  0  0  0  0  0  0
   56.0898   32.8507   44.4420 H   0  0  0  0  0  0  0  0  0  0  0  0
   57.1796   35.0788   44.6567 H   0  0  0  0  0  0  0  0  0  0  0  0
   59.7723   35.8919   46.7550 H   0  0  0  0  0  0  0  0  0  0  0  0
   60.6212   35.5810   45.2028 H   0  0  0  0  0  0  0  0  0  0  0  0
   59.0155   36.3863   45.2028 H   0  0  0  0  0  0  0  0  0  0  0  0
   60.6523   33.2095   46.4400 H   0  0  0  0  0  0  0  0  0  0  0  0
   61.3576   29.6471   47.1549 H   0  0  0  0  0  0  0  0  0  0  0  0
   61.7643   30.8783   45.8935 H   0  0  0  0  0  0  0  0  0  0  0  0
   63.1256   32.4874   46.9028 H   0  0  0  0  0  0  0  0  0  0  0  0
   63.4934   34.1921   48.6858 H   0  0  0  0  0  0  0  0  0  0  0  0
   61.9249   34.3379   50.6220 H   0  0  0  0  0  0  0  0  0  0  0  0
   59.9893   32.7676   50.7822 H   0  0  0  0  0  0  0  0  0  0  0  0
   59.6134   31.0607   49.0020 H   0  0  0  0  0  0  0  0  0  0  0  0
  1  2  1  0
  2  3  1  0
  3  4  2  0
  3  5  1  0
  5  6  1  0
  6  7  1  0
  7  8  2  0
  8  9  1  0
  9 10  2  0
 10 11  1  0
 10 12  1  0
 12 13  2  0
 13 14  1  0
 14 15  1  0
 15 16  1  0
 16 17  2  0
 17 18  1  0
 18 19  2  0
 19 20  1  0
 20 21  2  0
 14 22  1  0
 22 23  2  0
 22  5  1  0
 13  7  1  0
 21 16  1  0
  1 24  1  0
  1 25  1  0
  1 26  1  0
  5 27  1  1
  8 28  1  0
  9 29  1  0
 11 30  1  0
 11 31  1  0
 11 32  1  0
 12 33  1  0
 15 34  1  0
 15 35  1  0
 17 36  1  0
 18 37  1  0
 19 38  1  0
 20 39  1  0
 21 40  1  0
M  CHG  1   2  -1
M  END
>  <UniqueID>  (83) 
74

>  <SMILES>  (83) 
C[N-]C(=O)[C@@H]1Oc2ccc(C)cc2N(Cc2ccccc2)C1=O

>  <Energy>  (83) 
42.90437844830594

>  <Genealogy>  (83) 
C[N-]C(=O)C1Oc2ccc(C)cc2N(Cc2ccccc2)C1=O (protonated)
C[N-]C(=O)[C@@H]1Oc2ccc(C)cc2N(Cc2ccccc2)C1=O (chirality)
C[N-]C(=O)[C@@H]1Oc2ccc(C)cc2N(Cc2ccccc2)C1=O (3D coordinates assigned)
C[N-]C(=O)[C@@H]1Oc2ccc(C)cc2N(Cc2ccccc2)C1=O (nonaromatic ring conformer: 42.90437844830594 kcal/mol)

>  <smiles>  (83) 
CNC(=O)C1Oc2ccc(C)cc2N(Cc2ccccc2)C1=O

>  <score_type>  (83) 
oracle

>  <origin>  (83) 
adg

>  <m_score__min__energy>  (83) 
-8.9700000000000006

>  <m_primary>  (83) 
energy

$$$$
83:0
     RDKit          3D

 28 29  0  0  0  0  0  0  0  0999 V2000
   56.4530   29.8870   42.6650 O   0  0  0  0  0  0  0  0  0  0  0  0
   56.8910   29.6410   44.0830 S   0  0  0  0  0  0  0  0  0  0  0  0
   55.6630   29.3400   44.8950 O   0  0  0  0  0  0  0  0  0  0  0  0
   57.6520   31.1060   44.7040 C   0  0  0  0  0  0  0  0  0  0  0  0
   58.1280   31.1500   46.0220 C   0  0  0  0  0  0  0  0  0  0  0  0
   58.7190   32.3160   46.5190 C   0  0  0  0  0  0  0  0  0  0  0  0
   58.8430   33.4420   45.7000 C   0  0  0  0  0  0  0  0  0  0  0  0
   59.6480   35.0350   46.3790 Br  0  0  0  0  0  0  0  0  0  0  0  0
   58.3790   33.4000   44.3810 C   0  0  0  0  0  0  0  0  0  0  0  0
   57.7870   32.2360   43.8820 C   0  0  0  0  0  0  0  0  0  0  0  0
   57.9640   28.2550   44.1190 N   0  0  0  0  0  0  0  0  0  0  0  0
   59.3460   28.6110   44.5010 C   0  0  0  0  0  0  0  0  0  0  0  0
   59.6750   28.2600   45.9620 C   0  0  0  0  0  0  0  0  0  0  0  0
   58.5150   28.3330   46.7570 O   0  0  0  0  0  0  0  0  0  0  0  0
   57.6390   27.2770   46.4210 C   0  0  0  0  0  0  0  0  0  0  0  0
   57.4090   27.1310   44.8970 C   0  0  0  0  0  0  0  0  0  0  0  0
   58.0363   30.2641   46.6676 H   0  0  0  0  0  0  0  0  0  0  0  0
   59.0866   32.3471   47.5553 H   0  0  0  0  0  0  0  0  0  0  0  0
   58.4802   34.2847   43.7351 H   0  0  0  0  0  0  0  0  0  0  0  0
   57.4263   32.2055   42.8433 H   0  0  0  0  0  0  0  0  0  0  0  0
   60.0420   28.0679   43.8447 H   0  0  0  0  0  0  0  0  0  0  0  0
   59.4466   29.7011   44.3938 H   0  0  0  0  0  0  0  0  0  0  0  0
   60.0816   27.2389   46.0068 H   0  0  0  0  0  0  0  0  0  0  0  0
   60.4153   28.9784   46.3438 H   0  0  0  0  0  0  0  0  0  0  0  0
   58.0644   26.3365   46.8012 H   0  0  0  0  0  0  0  0  0  0  0  0
   56.6642   27.5061   46.8763 H   0  0  0  0  0  0  0  0  0  0  0  0
   57.8874   26.2003   44.5581 H   0  0  0  0  0  0  0  0  0  0  0  0
   56.3221   27.1196   44.7283 H   0  0  0  0  0  0  0  0  0  0  0  0
  1  2  2  0
  2  3  2  0
  2  4  1  0
  4  5  2  0
  5  6  1  0
  6  7  2  0
  7  8  1  0
  7  9  1  0
  9 10  2  0
  2 11  1  0
 11 12  1  0
 12 13  1  0
 13 14  1  0
 14 15  1  0
 15 16  1  0
 10  4  1  0
 16 11  1  0
  5 17  1  0
  6 18  1  0
  9 19  1  0
 10 20  1  0
 12 21  1  0
 12 22  1  0
 13 23  1  0
 13 24  1  0
 15 25  1  0
 15 26  1  0
 16 27  1  0
 16 28  1  0
M  END
>  <UniqueID>  (84) 
75

>  <SMILES>  (84) 
O=S(=O)(c1ccc(Br)cc1)N1CCOCC1

>  <Energy>  (84) 
37.881241264308166

>  <Genealogy>  (84) 
O=S(=O)(c1ccc(Br)cc1)N1CCOCC1 (3D coordinates assigned)
O=S(=O)(c1ccc(Br)cc1)N1CCOCC1 (nonaromatic ring conformer: 37.881241264308166 kcal/mol)

>  <smiles>  (84) 
O=S(=O)(c1ccc(Br)cc1)N1CCOCC1

>  <score_type>  (84) 
oracle

>  <origin>  (84) 
adg

>  <m_score__min__energy>  (84) 
-6.96

>  <m_primary>  (84) 
energy

$$$$
84:0
     RDKit          3D

 34 36  0  0  0  0  0  0  0  0999 V2000
   55.6670   24.5020   47.8220 O   0  0  0  0  0  0  0  0  0  0  0  0
   55.8620   24.4850   46.5790 C   0  0  0  0  0  0  0  0  0  0  0  0
   55.2730   23.4320   45.8050 N   0  0  0  0  0  0  0  0  0  0  0  0
   55.9470   22.6190   44.8330 C   0  0  0  0  0  0  0  0  0  0  0  0
   55.9870   23.0380   43.5000 C   0  0  0  0  0  0  0  0  0  0  0  0
   56.6490   22.2650   42.5460 C   0  0  0  0  0  0  0  0  0  0  0  0
   57.2830   21.0860   42.9400 C   0  0  0  0  0  0  0  0  0  0  0  0
   57.2630   20.7020   44.2460 N   0  0  0  0  0  0  0  0  0  0  0  0
   56.6230   21.4420   45.1930 C   0  0  0  0  0  0  0  0  0  0  0  0
   56.7520   25.4890   45.9580 C   0  0  0  0  0  0  0  0  0  0  0  0
   56.3930   26.7210   45.6990 O   0  0  0  0  0  0  0  0  0  0  0  0
   57.4240   27.3250   45.1520 C   0  0  0  0  0  0  0  0  0  0  0  0
   57.4090   28.7400   44.7340 C   0  0  0  0  0  0  0  0  0  0  0  0
   57.0040   29.1010   43.4360 C   0  0  0  0  0  0  0  0  0  0  0  0
   56.9980   30.4450   43.0480 C   0  0  0  0  0  0  0  0  0  0  0  0
   57.3940   31.4370   43.9480 C   0  0  0  0  0  0  0  0  0  0  0  0
   57.7990   31.0870   45.2390 C   0  0  0  0  0  0  0  0  0  0  0  0
   57.8070   29.7450   45.6330 C   0  0  0  0  0  0  0  0  0  0  0  0
   58.4950   26.5110   45.0240 N   0  0  0  0  0  0  0  0  0  0  0  0
   58.0660   25.3410   45.5400 C   0  0  0  0  0  0  0  0  0  0  0  0
   58.9200   24.1120   45.6220 C   0  0  0  0  0  0  0  0  0  0  0  0
   60.2440   24.4710   45.7910 F   0  0  0  0  0  0  0  0  0  0  0  0
   58.8040   23.3750   44.4570 F   0  0  0  0  0  0  0  0  0  0  0  0
   58.5110   23.3300   46.6870 F   0  0  0  0  0  0  0  0  0  0  0  0
   55.4966   23.9769   43.2034 H   0  0  0  0  0  0  0  0  0  0  0  0
   56.6710   22.5819   41.4929 H   0  0  0  0  0  0  0  0  0  0  0  0
   57.8002   20.4653   42.1935 H   0  0  0  0  0  0  0  0  0  0  0  0
   57.7540   19.8240   44.5270 H   0  0  0  0  0  0  0  0  0  0  0  0
   56.6356   21.1167   46.2437 H   0  0  0  0  0  0  0  0  0  0  0  0
   56.6909   28.3236   42.7236 H   0  0  0  0  0  0  0  0  0  0  0  0
   56.6806   30.7213   42.0316 H   0  0  0  0  0  0  0  0  0  0  0  0
   57.3871   32.4932   43.6408 H   0  0  0  0  0  0  0  0  0  0  0  0
   58.1122   31.8686   45.9468 H   0  0  0  0  0  0  0  0  0  0  0  0
   58.1260   29.4748   46.6505 H   0  0  0  0  0  0  0  0  0  0  0  0
  1  2  2  0
  2  3  1  0
  3  4  1  0
  4  5  2  0
  5  6  1  0
  6  7  2  0
  7  8  1  0
  8  9  2  0
  2 10  1  0
 10 11  1  0
 11 12  1  0
 12 13  1  0
 13 14  2  0
 14 15  1  0
 15 16  2  0
 16 17  1  0
 17 18  2  0
 12 19  2  0
 19 20  1  0
 20 21  1  0
 21 22  1  0
 21 23  1  0
 21 24  1  0
  9  4  1  0
 20 10  2  0
 18 13  1  0
  5 25  1  0
  6 26  1  0
  7 27  1  0
  8 28  1  0
  9 29  1  0
 14 30  1  0
 15 31  1  0
 16 32  1  0
 17 33  1  0
 18 34  1  0
M  CHG  2   3  -1   8   1
M  END
>  <UniqueID>  (85) 
76

>  <SMILES>  (85) 
O=C([N-]c1ccc[nH+]c1)c1oc(-c2ccccc2)nc1C(F)(F)F

>  <Energy>  (85) 
70.50664071029135

>  <Genealogy>  (85) 
O=C([N-]c1ccc[nH+]c1)c1oc(-c2ccccc2)nc1C(F)(F)F (protonated)
O=C([N-]c1ccc[nH+]c1)c1oc(-c2ccccc2)nc1C(F)(F)F (3D coordinates assigned)
O=C([N-]c1ccc[nH+]c1)c1oc(-c2ccccc2)nc1C(F)(F)F (optimized conformer: 70.50664071029135 kcal/mol)

>  <smiles>  (85) 
O=C(Nc1cccnc1)c1oc(-c2ccccc2)nc1C(F)(F)F

>  <score_type>  (85) 
oracle

>  <origin>  (85) 
adg

>  <m_score__min__energy>  (85) 
-7.8499999999999996

>  <m_primary>  (85) 
energy

$$$$
85:0
     RDKit          3D

 56 60  0  0  0  0  0  0  0  0999 V2000
   56.2740   25.1490   46.8170 O   0  0  0  0  0  0  0  0  0  0  0  0
   57.2090   24.6200   46.1540 C   0  0  0  0  0  0  0  0  0  0  0  0
   58.5570   25.0810   46.3230 N   0  0  0  0  0  0  0  0  0  0  0  0
   58.8810   26.2490   47.1530 C   0  0  1  0  0  0  0  0  0  0  0  0
   60.4130   26.5430   47.1740 C   0  0  0  0  0  0  0  0  0  0  0  0
   60.6580   27.7730   46.2610 C   0  0  0  0  0  0  0  0  0  0  0  0
   59.3520   27.8790   45.5070 C   0  0  2  0  0  0  0  0  0  0  0  0
   58.7860   29.1490   44.9060 C   0  0  0  0  0  0  0  0  0  0  0  0
   57.3400   28.8930   44.9600 N   0  0  0  0  0  0  0  0  0  0  0  0
   56.3360   29.6600   44.2730 C   0  0  0  0  0  0  0  0  0  0  0  0
   55.1180   29.3830   44.4430 O   0  0  0  0  0  0  0  0  0  0  0  0
   56.7000   30.8090   43.3740 C   0  0  0  0  0  0  0  0  0  0  0  0
   57.4650   31.8620   44.1290 C   0  0  0  0  0  0  0  0  0  0  0  0
   58.1630   32.8710   43.4410 C   0  0  0  0  0  0  0  0  0  0  0  0
   58.8780   33.8440   44.1460 C   0  0  0  0  0  0  0  0  0  0  0  0
   58.8940   33.8220   45.5430 C   0  0  0  0  0  0  0  0  0  0  0  0
   58.2180   32.8090   46.2360 C   0  0  0  0  0  0  0  0  0  0  0  0
   57.4900   31.8430   45.5360 C   0  0  0  0  0  0  0  0  0  0  0  0
   58.2840   32.7820   47.6330 O   0  0  0  0  0  0  0  0  0  0  0  0
   59.2370   33.5780   48.3410 C   0  0  0  0  0  0  0  0  0  0  0  0
   59.3820   34.9520   47.6750 C   0  0  0  0  0  0  0  0  0  0  0  0
   59.5800   34.8010   46.2670 O   0  0  0  0  0  0  0  0  0  0  0  0
   57.0260   27.7430   45.8170 C   0  0  0  0  0  0  0  0  0  0  0  0
   58.3370   27.5360   46.5520 C   0  0  1  0  0  0  0  0  0  0  0  0
   56.9020   23.4920   45.2470 C   0  0  0  0  0  0  0  0  0  0  0  0
   56.9390   23.7130   43.8590 C   0  0  0  0  0  0  0  0  0  0  0  0
   56.6380   22.6790   42.9670 C   0  0  0  0  0  0  0  0  0  0  0  0
   56.3100   21.4120   43.4500 C   0  0  0  0  0  0  0  0  0  0  0  0
   56.2890   21.1720   44.8260 C   0  0  0  0  0  0  0  0  0  0  0  0
   56.5890   22.2000   45.7300 C   0  0  0  0  0  0  0  0  0  0  0  0
   56.6400   21.7960   47.4440 Cl  0  0  0  0  0  0  0  0  0  0  0  0
   59.3280   24.5110   45.9100 H   0  0  0  0  0  0  0  0  0  0  0  0
   58.4607   25.9997   48.1385 H   0  0  0  0  0  0  0  0  0  0  0  0
   60.7399   26.7649   48.2006 H   0  0  0  0  0  0  0  0  0  0  0  0
   60.9821   25.6723   46.8162 H   0  0  0  0  0  0  0  0  0  0  0  0
   60.8496   28.6786   46.8554 H   0  0  0  0  0  0  0  0  0  0  0  0
   61.5368   27.6688   45.6077 H   0  0  0  0  0  0  0  0  0  0  0  0
   59.5623   27.2757   44.6116 H   0  0  0  0  0  0  0  0  0  0  0  0
   59.0586   30.0307   45.5045 H   0  0  0  0  0  0  0  0  0  0  0  0
   59.1608   29.3673   43.8951 H   0  0  0  0  0  0  0  0  0  0  0  0
   57.3220   30.4358   42.5470 H   0  0  0  0  0  0  0  0  0  0  0  0
   55.7737   31.2584   42.9866 H   0  0  0  0  0  0  0  0  0  0  0  0
   58.1462   32.8947   42.3414 H   0  0  0  0  0  0  0  0  0  0  0  0
   59.4274   34.6260   43.6014 H   0  0  0  0  0  0  0  0  0  0  0  0
   56.9362   31.0673   46.0851 H   0  0  0  0  0  0  0  0  0  0  0  0
   58.8985   33.7117   49.3790 H   0  0  0  0  0  0  0  0  0  0  0  0
   60.2115   33.0680   48.3254 H   0  0  0  0  0  0  0  0  0  0  0  0
   58.4692   35.5397   47.8524 H   0  0  0  0  0  0  0  0  0  0  0  0
   60.2520   35.4692   48.1059 H   0  0  0  0  0  0  0  0  0  0  0  0
   56.2080   27.9752   46.5148 H   0  0  0  0  0  0  0  0  0  0  0  0
   56.6807   26.8569   45.2643 H   0  0  0  0  0  0  0  0  0  0  0  0
   58.1357   28.0993   47.4752 H   0  0  0  0  0  0  0  0  0  0  0  0
   57.2068   24.7071   43.4717 H   0  0  0  0  0  0  0  0  0  0  0  0
   56.6599   22.8649   41.8830 H   0  0  0  0  0  0  0  0  0  0  0  0
   56.0678   20.6015   42.7469 H   0  0  0  0  0  0  0  0  0  0  0  0
   56.0354   20.1699   45.2023 H   0  0  0  0  0  0  0  0  0  0  0  0
  1  2  2  0
  2  3  1  0
  3  4  1  0
  4  5  1  0
  5  6  1  0
  6  7  1  0
  7  8  1  0
  8  9  1  0
  9 10  1  0
 10 11  2  0
 10 12  1  0
 12 13  1  0
 13 14  2  0
 14 15  1  0
 15 16  2  0
 16 17  1  0
 17 18  2  0
 17 19  1  0
 19 20  1  0
 20 21  1  0
 21 22  1  0
  9 23  1  0
 23 24  1  0
  2 25  1  0
 25 26  2  0
 26 27  1  0
 27 28  2  0
 28 29  1  0
 29 30  2  0
 30 31  1  0
 24  4  1  0
 30 25  1  0
 24  7  1  0
 18 13  1  0
 22 16  1  0
  3 32  1  0
  4 33  1  1
  5 34  1  0
  5 35  1  0
  6 36  1  0
  6 37  1  0
  7 38  1  6
  8 39  1  0
  8 40  1  0
 12 41  1  0
 12 42  1  0
 14 43  1  0
 15 44  1  0
 18 45  1  0
 20 46  1  0
 20 47  1  0
 21 48  1  0
 21 49  1  0
 23 50  1  0
 23 51  1  0
 24 52  1  1
 26 53  1  0
 27 54  1  0
 28 55  1  0
 29 56  1  0
M  END
>  <UniqueID>  (86) 
77

>  <SMILES>  (86) 
O=C(N[C@H]1CC[C@@H]2CN(C(=O)Cc3ccc4c(c3)OCCO4)CC21)c1ccccc1Cl

>  <Energy>  (86) 
91.82673917195059

>  <Genealogy>  (86) 
O=C(N[C@H]1CC[C@@H]2CN(C(=O)Cc3ccc4c(c3)OCCO4)CC21)c1ccccc1Cl (chirality)
O=C(N[C@H]1CC[C@@H]2CN(C(=O)Cc3ccc4c(c3)OCCO4)CC21)c1ccccc1Cl (3D coordinates assigned)
O=C(N[C@H]1CC[C@@H]2CN(C(=O)Cc3ccc4c(c3)OCCO4)CC21)c1ccccc1Cl (nonaromatic ring conformer: 91.82673917195059 kcal/mol)

>  <smiles>  (86) 
O=C(NC1CCC2CN(C(=O)Cc3ccc4c(c3)OCCO4)CC21)c1ccccc1Cl

>  <score_type>  (86) 
oracle

>  <origin>  (86) 
adg

>  <m_score__min__energy>  (86) 
-10.34

>  <m_primary>  (86) 
energy

$$$$
86:0
     RDKit          3D

 41 43  0  0  0  0  0  0  0  0999 V2000
   55.1510   30.0910   45.6180 H   0  0  0  0  0  0  0  0  0  0  0  0
   55.7450   29.5330   44.9680 N   0  0  0  0  0  0  0  0  0  0  0  0
   56.7720   28.8310   45.3380 C   0  0  0  0  0  0  0  0  0  0  0  0
   57.9770   29.4440   45.9600 C   0  0  0  0  0  0  0  0  0  0  0  0
   58.2770   30.8150   45.8430 C   0  0  0  0  0  0  0  0  0  0  0  0
   57.6052   31.4721   45.2713 H   0  0  0  0  0  0  0  0  0  0  0  0
   59.4240   31.3520   46.4480 C   0  0  0  0  0  0  0  0  0  0  0  0
   59.7160   32.7550   46.3290 N   0  0  0  0  0  0  0  0  0  0  0  0
   60.7860   33.3610   47.1300 C   0  0  0  0  0  0  0  0  0  0  0  0
   61.0439   32.6831   47.9570 H   0  0  0  0  0  0  0  0  0  0  0  0
   61.6582   33.5268   46.4806 H   0  0  0  0  0  0  0  0  0  0  0  0
   60.3410   34.7210   47.7120 C   0  0  0  0  0  0  0  0  0  0  0  0
   60.0388   34.5702   48.7589 H   0  0  0  0  0  0  0  0  0  0  0  0
   61.1949   35.4083   47.6206 H   0  0  0  0  0  0  0  0  0  0  0  0
   59.2130   35.3290   46.9830 N   0  0  0  0  0  0  0  0  0  0  0  0
   59.2560   36.3660   47.1190 H   0  0  0  0  0  0  0  0  0  0  0  0
   59.2790   35.0530   45.5460 C   0  0  0  0  0  0  0  0  0  0  0  0
   58.5102   35.6404   45.0227 H   0  0  0  0  0  0  0  0  0  0  0  0
   60.2717   35.3299   45.1614 H   0  0  0  0  0  0  0  0  0  0  0  0
   59.0330   33.5610   45.3090 C   0  0  0  0  0  0  0  0  0  0  0  0
   57.9522   33.3613   45.3547 H   0  0  0  0  0  0  0  0  0  0  0  0
   59.4292   33.2896   44.3194 H   0  0  0  0  0  0  0  0  0  0  0  0
   60.2750   30.5130   47.1800 C   0  0  0  0  0  0  0  0  0  0  0  0
   61.3630   31.0190   47.8140 F   0  0  0  0  0  0  0  0  0  0  0  0
   59.9980   29.1490   47.2850 C   0  0  0  0  0  0  0  0  0  0  0  0
   60.6717   28.4980   47.8615 H   0  0  0  0  0  0  0  0  0  0  0  0
   58.8670   28.6020   46.6610 C   0  0  0  0  0  0  0  0  0  0  0  0
   58.5720   27.1260   46.8050 C   0  0  0  0  0  0  0  0  0  0  0  0
   57.9122   26.9734   47.6718 H   0  0  0  0  0  0  0  0  0  0  0  0
   59.5219   26.5897   46.9465 H   0  0  0  0  0  0  0  0  0  0  0  0
   57.8800   26.5780   45.5410 C   0  0  1  0  0  0  0  0  0  0  0  0
   58.6054   26.6208   44.7152 H   0  0  0  0  0  0  0  0  0  0  0  0
   57.4550   25.1020   45.7040 C   0  0  0  0  0  0  0  0  0  0  0  0
   56.7817   24.8375   44.8753 H   0  0  0  0  0  0  0  0  0  0  0  0
   58.3711   24.4931   45.6988 H   0  0  0  0  0  0  0  0  0  0  0  0
   56.7330   24.8310   47.0240 C   0  0  0  0  0  0  0  0  0  0  0  0
   57.3982   25.0807   47.8637 H   0  0  0  0  0  0  0  0  0  0  0  0
   55.8250   25.4495   47.0790 H   0  0  0  0  0  0  0  0  0  0  0  0
   56.4563   23.7678   47.0790 H   0  0  0  0  0  0  0  0  0  0  0  0
   56.7100   27.4040   45.2260 N   0  0  0  0  0  0  0  0  0  0  0  0
   55.8160   26.9600   44.9130 H   0  0  0  0  0  0  0  0  0  0  0  0
  1  2  1  0
  2  3  2  0
  3  4  1  0
  4  5  2  0
  5  6  1  0
  5  7  1  0
  7  8  1  0
  8  9  1  0
  9 10  1  0
  9 11  1  0
  9 12  1  0
 12 13  1  0
 12 14  1  0
 12 15  1  0
 15 16  1  0
 15 17  1  0
 17 18  1  0
 17 19  1  0
 17 20  1  0
 20 21  1  0
 20 22  1  0
  7 23  2  0
 23 24  1  0
 23 25  1  0
 25 26  1  0
 25 27  2  0
 27 28  1  0
 28 29  1  0
 28 30  1  0
 28 31  1  0
 31 32  1  6
 31 33  1  0
 33 34  1  0
 33 35  1  0
 33 36  1  0
 36 37  1  0
 36 38  1  0
 36 39  1  0
 31 40  1  0
 40 41  1  0
 40  3  1  0
 27  4  1  0
 20  8  1  0
M  END
>  <UniqueID>  (87) 
78

>  <SMILES>  (87) 
[H]/N=C1/N[C@H](CC)Cc2cc(F)c(N3CCNCC3)cc21

>  <Energy>  (87) 
49.606075706793305

>  <Genealogy>  (87) 
CC[C@@H]1Cc2cc(F)c(N3CCNCC3)cc2C(=N)N1 (chirality)
[H]/N=C1/N[C@H](CC)Cc2cc(F)c(N3CCNCC3)cc21 (cis-trans isomerization)
[H]/N=C1/N[C@H](CC)Cc2cc(F)c(N3CCNCC3)cc21 (3D coordinates assigned)
[H]/N=C1/N[C@H](CC)Cc2cc(F)c(N3CCNCC3)cc21 (nonaromatic ring conformer: 49.606075706793305 kcal/mol)

>  <smiles>  (87) 
CCC1Cc2cc(F)c(N3CCNCC3)cc2C(=N)N1

>  <score_type>  (87) 
oracle

>  <origin>  (87) 
adg

>  <m_score__min__energy>  (87) 
-7.0199999999999996

>  <m_primary>  (87) 
energy

$$$$
87:0
     RDKit          3D

 39 41  0  0  1  0  0  0  0  0999 V2000
   59.7390   30.0950   47.8450 C   0  0  0  0  0  0  0  0  0  0  0  0
   58.4490   29.9250   47.2510 O   0  0  0  0  0  0  0  0  0  0  0  0
   58.3450   29.1710   46.0910 C   0  0  0  0  0  0  0  0  0  0  0  0
   59.0030   27.9590   45.9320 C   0  0  0  0  0  0  0  0  0  0  0  0
   58.8730   27.2280   44.7470 C   0  0  0  0  0  0  0  0  0  0  0  0
   58.0840   27.6960   43.7000 C   0  0  0  0  0  0  0  0  0  0  0  0
   57.4330   28.9000   43.8660 C   0  0  0  0  0  0  0  0  0  0  0  0
   57.5500   29.6420   45.0410 C   0  0  0  0  0  0  0  0  0  0  0  0
   59.1120   34.1110   47.5350 N   0  0  0  0  0  0  0  0  0  0  0  0
   58.6890   33.6220   46.4220 C   0  0  0  0  0  0  0  0  0  0  0  0
   57.9790   32.4760   46.3540 N   0  0  0  0  0  0  0  0  0  0  0  0
   57.5480   31.9850   45.1780 C   0  0  0  0  0  0  0  0  0  0  0  0
   56.8750   30.8840   45.2030 N   0  0  0  0  0  0  0  0  0  0  0  0
   60.5020   33.8880   47.8460 C   0  0  0  0  0  0  0  0  0  0  0  0
   61.2580   33.3210   46.8310 C   0  0  0  0  0  0  0  0  0  0  0  0
   62.6010   33.0880   47.0870 C   0  0  0  0  0  0  0  0  0  0  0  0
   63.1670   33.4140   48.3240 C   0  0  0  0  0  0  0  0  0  0  0  0
   64.5140   33.1730   48.5610 O   0  0  0  0  0  0  0  0  0  0  0  0
   62.3750   33.9740   49.2980 C   0  0  0  0  0  0  0  0  0  0  0  0
   61.0320   34.2200   49.0770 C   0  0  0  0  0  0  0  0  0  0  0  0
   58.9980   34.3260   45.2980 N   0  0  0  0  0  0  0  0  0  0  0  0
   58.5680   33.8370   44.1210 C   0  0  0  0  0  0  0  0  0  0  0  0
   57.8380   32.6670   44.0090 C   0  0  0  0  0  0  0  0  0  0  0  0
   57.4010   32.1650   42.8390 F   0  0  0  0  0  0  0  0  0  0  0  0
   59.6427   30.0823   48.9407 H   0  0  0  0  0  0  0  0  0  0  0  0
   60.4005   29.2763   47.5256 H   0  0  0  0  0  0  0  0  0  0  0  0
   60.1658   31.0572   47.5256 H   0  0  0  0  0  0  0  0  0  0  0  0
   59.6326   27.5700   46.7458 H   0  0  0  0  0  0  0  0  0  0  0  0
   59.4018   26.2693   44.6407 H   0  0  0  0  0  0  0  0  0  0  0  0
   57.9828   27.1219   42.7672 H   0  0  0  0  0  0  0  0  0  0  0  0
   56.8045   29.2856   43.0498 H   0  0  0  0  0  0  0  0  0  0  0  0
   57.7630   31.9640   47.2480 H   0  0  0  0  0  0  0  0  0  0  0  0
   60.8094   33.0657   45.8596 H   0  0  0  0  0  0  0  0  0  0  0  0
   63.2312   32.6397   46.3048 H   0  0  0  0  0  0  0  0  0  0  0  0
   65.1060   32.7770   47.8470 H   0  0  0  0  0  0  0  0  0  0  0  0
   62.8177   34.2313   50.2716 H   0  0  0  0  0  0  0  0  0  0  0  0
   60.4033   34.6679   49.8606 H   0  0  0  0  0  0  0  0  0  0  0  0
   59.5480   35.2110   45.3530 H   0  0  0  0  0  0  0  0  0  0  0  0
   58.8083   34.3941   43.2034 H   0  0  0  0  0  0  0  0  0  0  0  0
  1  2  1  0
  2  3  1  0
  3  4  2  0
  4  5  1  0
  5  6  2  0
  6  7  1  0
  7  8  2  0
  8  9  1  0
  9 10  2  0
 10 11  1  0
 11 12  1  0
 12 13  2  0
 13 14  1  0
 14 15  2  0
 15 16  1  0
 16 17  2  0
 17 18  1  0
 17 19  1  0
 19 20  2  0
 12 21  1  0
 21 22  1  0
 22 23  2  0
 23 24  1  0
  8  3  1  0
 23 10  1  0
 20 14  1  0
  1 25  1  0
  1 26  1  0
  1 27  1  0
  4 28  1  0
  5 29  1  0
  6 30  1  0
  7 31  1  0
 11 32  1  0
 15 33  1  0
 16 34  1  0
 18 35  1  0
 19 36  1  0
 20 37  1  0
 21 38  1  0
 22 39  1  0
M  END
>  <smiles>  (88) 
COc1ccccc1N=c1[nH]c(=Nc2ccc(O)cc2)[nH]cc1F

>  <score_type>  (88) 
oracle

>  <origin>  (88) 
adg

>  <m_score__min__energy>  (88) 
-8.1899999999999995

>  <m_primary>  (88) 
energy

$$$$
88:0
     RDKit          3D

 28 29  0  0  0  0  0  0  0  0999 V2000
   55.8540   28.8500   44.9650 N   0  0  0  0  0  0  0  0  0  0  0  0
   57.2030   28.2880   45.0980 C   0  0  1  0  0  0  0  0  0  0  0  0
   58.0900   29.1890   45.9390 C   0  0  0  0  0  0  0  0  0  0  0  0
   58.4710   28.8220   47.2450 C   0  0  0  0  0  0  0  0  0  0  0  0
   59.2880   29.6630   48.0070 C   0  0  0  0  0  0  0  0  0  0  0  0
   59.7350   30.8760   47.4780 C   0  0  0  0  0  0  0  0  0  0  0  0
   60.5480   31.7080   48.2370 O   0  0  0  0  0  0  0  0  0  0  0  0
   59.3620   31.2520   46.1850 C   0  0  0  0  0  0  0  0  0  0  0  0
   58.5440   30.4150   45.4200 C   0  0  0  0  0  0  0  0  0  0  0  0
   57.2350   26.8470   45.6090 C   0  0  0  0  0  0  0  0  0  0  0  0
   58.4910   26.2160   45.7000 C   0  0  0  0  0  0  0  0  0  0  0  0
   58.6090   24.9090   46.1920 C   0  0  0  0  0  0  0  0  0  0  0  0
   59.8570   24.2940   46.2690 O   0  0  0  0  0  0  0  0  0  0  0  0
   57.4690   24.2200   46.6120 C   0  0  0  0  0  0  0  0  0  0  0  0
   57.5760   22.9240   47.1000 O   0  0  0  0  0  0  0  0  0  0  0  0
   56.2180   24.8350   46.5470 C   0  0  0  0  0  0  0  0  0  0  0  0
   56.0910   26.1400   46.0590 C   0  0  0  0  0  0  0  0  0  0  0  0
   54.8230   26.7080   46.0340 O   0  0  0  0  0  0  0  0  0  0  0  0
   55.6050   29.4460   45.7870 H   0  0  0  0  0  0  0  0  0  0  0  0
   55.1560   28.0750   44.8810 H   0  0  0  0  0  0  0  0  0  0  0  0
   57.6060   28.2443   44.0754 H   0  0  0  0  0  0  0  0  0  0  0  0
   58.1235   27.8678   47.6678 H   0  0  0  0  0  0  0  0  0  0  0  0
   59.5795   29.3684   49.0260 H   0  0  0  0  0  0  0  0  0  0  0  0
   59.7124   32.2078   45.7684 H   0  0  0  0  0  0  0  0  0  0  0  0
   58.2529   30.7179   44.4034 H   0  0  0  0  0  0  0  0  0  0  0  0
   59.3934   26.7575   45.3799 H   0  0  0  0  0  0  0  0  0  0  0  0
   59.9770   23.3920   46.7180 H   0  0  0  0  0  0  0  0  0  0  0  0
   55.3239   24.2889   46.8824 H   0  0  0  0  0  0  0  0  0  0  0  0
  1  2  1  0
  2  3  1  0
  3  4  2  0
  4  5  1  0
  5  6  2  0
  6  7  1  0
  6  8  1  0
  8  9  2  0
  2 10  1  0
 10 11  2  0
 11 12  1  0
 12 13  1  0
 12 14  2  0
 14 15  1  0
 14 16  1  0
 16 17  2  0
 17 18  1  0
  9  3  1  0
 17 10  1  0
  1 19  1  0
  1 20  1  0
  2 21  1  6
  4 22  1  0
  5 23  1  0
  8 24  1  0
  9 25  1  0
 11 26  1  0
 13 27  1  0
 16 28  1  0
M  CHG  3   7  -1  15  -1  18  -1
M  END
>  <UniqueID>  (89) 
79

>  <SMILES>  (89) 
N[C@@H](c1ccc([O-])cc1)c1cc(O)c([O-])cc1[O-]

>  <Energy>  (89) 
34.86120551729713

>  <Genealogy>  (89) 
NC(c1ccc([O-])cc1)c1cc(O)c([O-])cc1[O-] (protonated)
N[C@@H](c1ccc([O-])cc1)c1cc(O)c([O-])cc1[O-] (chirality)
N[C@@H](c1ccc([O-])cc1)c1cc(O)c([O-])cc1[O-] (3D coordinates assigned)
N[C@@H](c1ccc([O-])cc1)c1cc(O)c([O-])cc1[O-] (optimized conformer: 34.86120551729713 kcal/mol)

>  <smiles>  (89) 
NC(c1ccc(O)cc1)c1cc(O)c(O)cc1O

>  <score_type>  (89) 
oracle

>  <origin>  (89) 
adg

>  <m_score__min__energy>  (89) 
-12.1

>  <m_primary>  (89) 
energy

$$$$
89:0
     RDKit          3D

 57 61  0  0  0  0  0  0  0  0999 V2000
   57.2920   31.3290   44.6480 C   0  0  0  0  0  0  0  0  0  0  0  0
   57.9960   32.5720   45.0930 C   0  0  0  0  0  0  0  0  0  0  0  0
   58.4860   32.6840   46.3960 C   0  0  0  0  0  0  0  0  0  0  0  0
   59.1610   33.8500   46.7850 C   0  0  0  0  0  0  0  0  0  0  0  0
   59.6930   33.9730   48.1620 C   0  0  0  0  0  0  0  0  0  0  0  0
   60.7300   34.6630   48.3640 O   0  0  0  0  0  0  0  0  0  0  0  0
   59.0090   33.3720   49.2720 N   0  0  0  0  0  0  0  0  0  0  0  0
   59.6130   33.1840   50.5630 C   0  0  0  0  0  0  0  0  0  0  0  0
   59.0350   33.7590   51.7070 C   0  0  0  0  0  0  0  0  0  0  0  0
   59.6590   33.6450   52.9510 C   0  0  0  0  0  0  0  0  0  0  0  0
   60.8890   32.9790   53.0730 C   0  0  0  0  0  0  0  0  0  0  0  0
   61.5450   32.8220   54.4220 C   0  0  0  0  0  0  0  0  0  0  0  0
   61.8800   31.4950   54.6140 F   0  0  0  0  0  0  0  0  0  0  0  0
   60.6890   33.2210   55.4330 F   0  0  0  0  0  0  0  0  0  0  0  0
   62.6920   33.5920   54.4980 F   0  0  0  0  0  0  0  0  0  0  0  0
   61.4550   32.3830   51.9360 C   0  0  0  0  0  0  0  0  0  0  0  0
   60.8340   32.4900   50.6820 C   0  0  0  0  0  0  0  0  0  0  0  0
   61.4350   31.8460   49.5430 N   0  0  0  0  0  0  0  0  0  0  0  0
   62.8140   32.1790   49.1640 C   0  0  0  0  0  0  0  0  0  0  0  0
   62.9080   32.3580   47.6470 C   0  0  0  0  0  0  0  0  0  0  0  0
   62.3440   31.2310   46.9760 O   0  0  0  0  0  0  0  0  0  0  0  0
   61.1830   30.6070   47.4430 C   0  0  0  0  0  0  0  0  0  0  0  0
   60.5190   29.6770   46.6380 C   0  0  0  0  0  0  0  0  0  0  0  0
   59.3480   29.0570   47.0980 C   0  0  0  0  0  0  0  0  0  0  0  0
   58.4750   27.9150   46.0800 S   0  0  0  0  0  0  0  0  0  0  0  0
   59.3620   27.5050   44.9390 O   0  0  0  0  0  0  0  0  0  0  0  0
   57.2280   28.5400   45.5190 O   0  0  0  0  0  0  0  0  0  0  0  0
   58.0490   26.5110   47.0060 N   0  0  0  0  0  0  0  0  0  0  0  0
   57.1860   25.6190   46.6280 C   0  0  0  0  0  0  0  0  0  0  0  0
   57.4370   24.2960   46.7090 N   0  0  0  0  0  0  0  0  0  0  0  0
   56.3880   23.5580   46.2570 C   0  0  0  0  0  0  0  0  0  0  0  0
   55.2940   24.2920   45.8110 C   0  0  0  0  0  0  0  0  0  0  0  0
   55.6550   25.9260   45.9900 S   0  0  0  0  0  0  0  0  0  0  0  0
   58.8570   29.3630   48.3730 C   0  0  0  0  0  0  0  0  0  0  0  0
   59.5270   30.2800   49.1860 C   0  0  0  0  0  0  0  0  0  0  0  0
   60.6950   30.9130   48.7250 C   0  0  0  0  0  0  0  0  0  0  0  0
   59.3000   34.8820   45.8430 C   0  0  0  0  0  0  0  0  0  0  0  0
   59.8830   36.0630   46.1700 F   0  0  0  0  0  0  0  0  0  0  0  0
   58.8010   34.7200   44.5900 N   0  0  0  0  0  0  0  0  0  0  0  0
   58.1750   33.6000   44.2250 N   0  0  0  0  0  0  0  0  0  0  0  0
   56.9675   30.7560   45.5291 H   0  0  0  0  0  0  0  0  0  0  0  0
   56.4140   31.6012   44.0439 H   0  0  0  0  0  0  0  0  0  0  0  0
   57.9770   30.7160   44.0439 H   0  0  0  0  0  0  0  0  0  0  0  0
   58.3433   31.8622   47.1131 H   0  0  0  0  0  0  0  0  0  0  0  0
   57.9950   33.1440   49.1630 H   0  0  0  0  0  0  0  0  0  0  0  0
   58.0830   34.3035   51.6221 H   0  0  0  0  0  0  0  0  0  0  0  0
   59.1833   34.0803   53.8422 H   0  0  0  0  0  0  0  0  0  0  0  0
   62.3981   31.8244   52.0287 H   0  0  0  0  0  0  0  0  0  0  0  0
   63.1133   33.1136   49.6609 H   0  0  0  0  0  0  0  0  0  0  0  0
   63.4824   31.3624   49.4746 H   0  0  0  0  0  0  0  0  0  0  0  0
   62.3594   33.2655   47.3546 H   0  0  0  0  0  0  0  0  0  0  0  0
   63.9671   32.4481   47.3637 H   0  0  0  0  0  0  0  0  0  0  0  0
   60.9156   29.4309   45.6419 H   0  0  0  0  0  0  0  0  0  0  0  0
   56.4036   22.4582   46.2450 H   0  0  0  0  0  0  0  0  0  0  0  0
   54.3569   23.8771   45.4113 H   0  0  0  0  0  0  0  0  0  0  0  0
   57.9387   28.8786   48.7363 H   0  0  0  0  0  0  0  0  0  0  0  0
   59.1398   30.5078   50.1901 H   0  0  0  0  0  0  0  0  0  0  0  0
  1  2  1  0
  2  3  2  0
  3  4  1  0
  4  5  1  0
  5  6  2  0
  5  7  1  0
  7  8  1  0
  8  9  2  0
  9 10  1  0
 10 11  2  0
 11 12  1  0
 12 13  1  0
 12 14  1  0
 12 15  1  0
 11 16  1  0
 16 17  2  0
 17 18  1  0
 18 19  1  0
 19 20  1  0
 20 21  1  0
 21 22  1  0
 22 23  2  0
 23 24  1  0
 24 25  1  0
 25 26  2  0
 25 27  2  0
 25 28  1  0
 28 29  2  3
 29 30  1  0
 30 31  1  0
 31 32  2  0
 32 33  1  0
 24 34  2  0
 34 35  1  0
 35 36  2  0
  4 37  2  0
 37 38  1  0
 37 39  1  0
 39 40  2  0
 40  2  1  0
 17  8  1  0
 36 18  1  0
 36 22  1  0
 33 29  1  0
  1 41  1  0
  1 42  1  0
  1 43  1  0
  3 44  1  0
  7 45  1  0
  9 46  1  0
 10 47  1  0
 16 48  1  0
 19 49  1  0
 19 50  1  0
 20 51  1  0
 20 52  1  0
 23 53  1  0
 31 54  1  0
 32 55  1  0
 34 56  1  0
 35 57  1  0
M  CHG  1  30  -1
M  END
>  <UniqueID>  (90) 
80

>  <SMILES>  (90) 
Cc1cc(C(=O)Nc2ccc(C(F)(F)F)cc2N2CCOc3cc(S(=O)(=O)N=c4[n-]ccs4)ccc32)c(F)nn1

>  <Energy>  (90) 
111.60493627061408

>  <Genealogy>  (90) 
Cc1cc(C(=O)Nc2ccc(C(F)(F)F)cc2N2CCOc3cc(S(=O)(=O)N=c4[n-]ccs4)ccc32)c(F)nn1 (protonated)
Cc1cc(C(=O)Nc2ccc(C(F)(F)F)cc2N2CCOc3cc(S(=O)(=O)N=c4[n-]ccs4)ccc32)c(F)nn1 (3D coordinates assigned)
Cc1cc(C(=O)Nc2ccc(C(F)(F)F)cc2N2CCOc3cc(S(=O)(=O)N=c4[n-]ccs4)ccc32)c(F)nn1 (nonaromatic ring conformer: 111.60493627061408 kcal/mol)

>  <smiles>  (90) 
Cc1cc(C(=O)Nc2ccc(C(F)(F)F)cc2N2CCOc3cc(S(=O)(=O)N=c4[nH]ccs4)ccc32)c(F)nn1

>  <score_type>  (90) 
oracle

>  <origin>  (90) 
adg

>  <m_score__min__energy>  (90) 
-10.99

>  <m_primary>  (90) 
energy

$$$$
90:0
     RDKit          3D

 41 43  0  0  0  0  0  0  0  0999 V2000
   55.1330   27.4290   45.5240 H   0  0  0  0  0  0  0  0  0  0  0  0
   54.7930   26.5460   45.8870 O   0  0  0  0  0  0  0  0  0  0  0  0
   55.4000   25.3260   45.5810 C   0  0  0  0  0  0  0  0  0  0  0  0
   56.7590   25.2680   45.2100 C   0  0  0  0  0  0  0  0  0  0  0  0
   57.5280   26.4780   45.1530 N   0  0  0  0  0  0  0  0  0  0  0  0
   57.2810   27.4770   45.9020 N   0  0  0  0  0  0  0  0  0  0  0  0
   57.5050   28.8270   45.4710 C   0  0  0  0  0  0  0  0  0  0  0  0
   58.7780   29.4200   45.5500 C   0  0  0  0  0  0  0  0  0  0  0  0
   59.6245   28.8474   45.9569 H   0  0  0  0  0  0  0  0  0  0  0  0
   58.9720   30.7330   45.1140 C   0  0  0  0  0  0  0  0  0  0  0  0
   59.9711   31.1888   45.1776 H   0  0  0  0  0  0  0  0  0  0  0  0
   57.8960   31.4750   44.5940 C   0  0  0  0  0  0  0  0  0  0  0  0
   58.0500   32.8250   44.1370 N   0  0  0  0  0  0  0  0  0  0  0  0
   58.0050   34.2340   45.1470 S   0  0  0  0  0  0  0  0  0  0  0  0
   58.8220   35.3220   44.5080 O   0  0  0  0  0  0  0  0  0  0  0  0
   56.5830   34.7020   45.2760 O   0  0  0  0  0  0  0  0  0  0  0  0
   58.6250   33.8480   46.7480 C   0  0  0  0  0  0  0  0  0  0  0  0
   59.7060   34.5630   47.2840 C   0  0  0  0  0  0  0  0  0  0  0  0
   60.1671   35.3768   46.7051 H   0  0  0  0  0  0  0  0  0  0  0  0
   60.1990   34.2430   48.5540 C   0  0  0  0  0  0  0  0  0  0  0  0
   61.0492   34.8031   48.9705 H   0  0  0  0  0  0  0  0  0  0  0  0
   59.6120   33.2120   49.2940 C   0  0  0  0  0  0  0  0  0  0  0  0
   60.0003   32.9616   50.2922 H   0  0  0  0  0  0  0  0  0  0  0  0
   58.5310   32.4990   48.7650 C   0  0  0  0  0  0  0  0  0  0  0  0
   58.0685   31.6888   49.3479 H   0  0  0  0  0  0  0  0  0  0  0  0
   58.0380   32.8160   47.4950 C   0  0  0  0  0  0  0  0  0  0  0  0
   57.1876   32.2545   47.0809 H   0  0  0  0  0  0  0  0  0  0  0  0
   56.6310   30.8820   44.5190 C   0  0  0  0  0  0  0  0  0  0  0  0
   55.7834   31.4556   44.1156 H   0  0  0  0  0  0  0  0  0  0  0  0
   56.4340   29.5670   44.9520 C   0  0  0  0  0  0  0  0  0  0  0  0
   55.1680   28.9970   44.8650 O   0  0  0  0  0  0  0  0  0  0  0  0
   57.3420   24.0250   44.9070 C   0  0  0  0  0  0  0  0  0  0  0  0
   58.4010   23.9746   44.6139 H   0  0  0  0  0  0  0  0  0  0  0  0
   56.5850   22.8550   44.9760 C   0  0  0  0  0  0  0  0  0  0  0  0
   57.0486   21.8862   44.7385 H   0  0  0  0  0  0  0  0  0  0  0  0
   55.2400   22.9120   45.3460 C   0  0  0  0  0  0  0  0  0  0  0  0
   54.6482   21.9863   45.4001 H   0  0  0  0  0  0  0  0  0  0  0  0
   54.6390   24.1420   45.6490 C   0  0  0  0  0  0  0  0  0  0  0  0
   53.2580   24.1800   46.0220 N   0  0  0  0  0  0  0  0  0  0  0  0
   52.6990   25.0590   45.9520 H   0  0  0  0  0  0  0  0  0  0  0  0
   52.7750   23.3190   46.3630 H   0  0  0  0  0  0  0  0  0  0  0  0
  1  2  1  0
  2  3  1  0
  3  4  2  0
  4  5  1  0
  5  6  2  0
  6  7  1  0
  7  8  2  0
  8  9  1  0
  8 10  1  0
 10 11  1  0
 10 12  2  0
 12 13  1  0
 13 14  1  0
 14 15  2  0
 14 16  2  0
 14 17  1  0
 17 18  2  0
 18 19  1  0
 18 20  1  0
 20 21  1  0
 20 22  2  0
 22 23  1  0
 22 24  1  0
 24 25  1  0
 24 26  2  0
 26 27  1  0
 12 28  1  0
 28 29  1  0
 28 30  2  0
 30 31  1  0
  4 32  1  0
 32 33  1  0
 32 34  2  0
 34 35  1  0
 34 36  1  0
 36 37  1  0
 36 38  2  0
 38 39  1  0
 39 40  1  0
 39 41  1  0
 38  3  1  0
 30  7  1  0
 26 17  1  0
M  CHG  2  13  -1  31  -1
M  END
>  <UniqueID>  (91) 
81

>  <SMILES>  (91) 
Nc1cccc(/N=N/c2ccc([N-]S(=O)(=O)c3ccccc3)cc2[O-])c1O

>  <Energy>  (91) 
47.57436726572663

>  <Genealogy>  (91) 
Nc1cccc(N=Nc2ccc([N-]S(=O)(=O)c3ccccc3)cc2[O-])c1O (protonated)
Nc1cccc(/N=N/c2ccc([N-]S(=O)(=O)c3ccccc3)cc2[O-])c1O (cis-trans isomerization)
Nc1cccc(/N=N/c2ccc([N-]S(=O)(=O)c3ccccc3)cc2[O-])c1O (3D coordinates assigned)
Nc1cccc(/N=N/c2ccc([N-]S(=O)(=O)c3ccccc3)cc2[O-])c1O (optimized conformer: 47.57436726572663 kcal/mol)

>  <smiles>  (91) 
Nc1cccc(N=Nc2ccc(NS(=O)(=O)c3ccccc3)cc2O)c1O

>  <score_type>  (91) 
oracle

>  <origin>  (91) 
adg

>  <m_score__min__energy>  (91) 
-14.710000000000001

>  <m_primary>  (91) 
energy

$$$$
91:0
     RDKit          3D

 69 72  0  0  0  0  0  0  0  0999 V2000
   62.6830   31.7300   47.4820 C   0  0  0  0  0  0  0  0  0  0  0  0
   61.9940   30.5780   47.9550 O   0  0  0  0  0  0  0  0  0  0  0  0
   60.8260   30.0540   47.3790 C   0  0  0  0  0  0  0  0  0  0  0  0
   60.4120   30.4130   46.0810 C   0  0  0  0  0  0  0  0  0  0  0  0
   59.2710   29.8380   45.5180 C   0  0  0  0  0  0  0  0  0  0  0  0
   58.5240   28.8950   46.2360 C   0  0  0  0  0  0  0  0  0  0  0  0
   57.3100   28.2580   45.6160 C   0  0  0  0  0  0  0  0  0  0  0  0
   56.3300   29.3020   45.1820 C   0  0  0  0  0  0  0  0  0  0  0  0
   55.1550   28.9760   44.8630 O   0  0  0  0  0  0  0  0  0  0  0  0
   56.7120   30.6370   45.1320 O   0  0  0  0  0  0  0  0  0  0  0  0
   58.9300   28.5350   47.5300 C   0  0  0  0  0  0  0  0  0  0  0  0
   60.0570   29.1320   48.1150 C   0  0  0  0  0  0  0  0  0  0  0  0
   60.4600   28.7340   49.4820 C   0  0  0  0  0  0  0  0  0  0  0  0
   60.6520   27.3660   49.7430 C   0  0  0  0  0  0  0  0  0  0  0  0
   61.1070   26.9310   50.9940 C   0  0  0  0  0  0  0  0  0  0  0  0
   61.3520   25.4730   51.2450 C   0  0  0  0  0  0  0  0  0  0  0  0
   61.4190   27.8760   51.9770 C   0  0  0  0  0  0  0  0  0  0  0  0
   61.2210   29.2360   51.7340 C   0  0  0  0  0  0  0  0  0  0  0  0
   60.6970   29.6840   50.5100 C   0  0  0  0  0  0  0  0  0  0  0  0
   60.4510   31.1730   50.3140 C   0  0  0  0  0  0  0  0  0  0  0  0
   59.0030   31.5170   50.2160 N   0  0  2  0  0  0  0  0  0  0  0  0
   58.8510   32.9810   50.0310 C   0  0  0  0  0  0  0  0  0  0  0  0
   58.9090   33.4130   48.5810 C   0  0  0  0  0  0  0  0  0  0  0  0
   59.7740   34.4480   48.1830 C   0  0  0  0  0  0  0  0  0  0  0  0
   59.8380   34.8370   46.8400 C   0  0  0  0  0  0  0  0  0  0  0  0
   59.0440   34.1930   45.8870 C   0  0  0  0  0  0  0  0  0  0  0  0
   59.1090   34.5670   44.5850 F   0  0  0  0  0  0  0  0  0  0  0  0
   58.1840   33.1610   46.2740 C   0  0  0  0  0  0  0  0  0  0  0  0
   58.1170   32.7720   47.6150 C   0  0  0  0  0  0  0  0  0  0  0  0
   58.1410   30.9830   51.6510 S   0  0  0  0  0  0  0  0  0  0  0  0
   59.0090   31.1820   52.8630 O   0  0  0  0  0  0  0  0  0  0  0  0
   57.8010   29.5230   51.5290 O   0  0  0  0  0  0  0  0  0  0  0  0
   56.6320   31.9120   51.8960 C   0  0  0  0  0  0  0  0  0  0  0  0
   55.5160   31.0060   52.3390 C   0  0  0  0  0  0  0  0  0  0  0  0
   55.6680   30.1930   53.4750 C   0  0  0  0  0  0  0  0  0  0  0  0
   54.6420   29.3240   53.8610 C   0  0  0  0  0  0  0  0  0  0  0  0
   53.4650   29.2530   53.1110 C   0  0  0  0  0  0  0  0  0  0  0  0
   53.3100   30.0520   51.9740 C   0  0  0  0  0  0  0  0  0  0  0  0
   54.3320   30.9240   51.5850 C   0  0  0  0  0  0  0  0  0  0  0  0
   63.0374   32.3226   48.3383 H   0  0  0  0  0  0  0  0  0  0  0  0
   63.5429   31.4179   46.8711 H   0  0  0  0  0  0  0  0  0  0  0  0
   62.0012   32.3399   46.8711 H   0  0  0  0  0  0  0  0  0  0  0  0
   60.9916   31.1512   45.5073 H   0  0  0  0  0  0  0  0  0  0  0  0
   58.9566   30.1272   44.5043 H   0  0  0  0  0  0  0  0  0  0  0  0
   57.6191   27.6667   44.7414 H   0  0  0  0  0  0  0  0  0  0  0  0
   56.8293   27.6099   46.3635 H   0  0  0  0  0  0  0  0  0  0  0  0
   58.3603   27.7789   48.0901 H   0  0  0  0  0  0  0  0  0  0  0  0
   60.4422   26.6280   48.9547 H   0  0  0  0  0  0  0  0  0  0  0  0
   61.3831   25.2877   52.3288 H   0  0  0  0  0  0  0  0  0  0  0  0
   60.5406   24.8821   50.7951 H   0  0  0  0  0  0  0  0  0  0  0  0
   62.3120   25.1797   50.7951 H   0  0  0  0  0  0  0  0  0  0  0  0
   61.8221   27.5458   52.9457 H   0  0  0  0  0  0  0  0  0  0  0  0
   61.4793   29.9685   52.5130 H   0  0  0  0  0  0  0  0  0  0  0  0
   60.8829   31.7150   51.1682 H   0  0  0  0  0  0  0  0  0  0  0  0
   60.9227   31.4618   49.3632 H   0  0  0  0  0  0  0  0  0  0  0  0
   58.5680   31.0310   49.4000 H   0  0  0  0  0  0  0  0  0  0  0  0
   57.8795   33.2861   50.4471 H   0  0  0  0  0  0  0  0  0  0  0  0
   59.6943   33.4629   50.5474 H   0  0  0  0  0  0  0  0  0  0  0  0
   60.4029   34.9540   48.9303 H   0  0  0  0  0  0  0  0  0  0  0  0
   60.5134   35.6498   46.5345 H   0  0  0  0  0  0  0  0  0  0  0  0
   57.5597   32.6548   45.5229 H   0  0  0  0  0  0  0  0  0  0  0  0
   57.4397   31.9589   47.9152 H   0  0  0  0  0  0  0  0  0  0  0  0
   56.8013   32.6794   52.6657 H   0  0  0  0  0  0  0  0  0  0  0  0
   56.3481   32.3832   50.9434 H   0  0  0  0  0  0  0  0  0  0  0  0
   56.5967   30.2401   54.0626 H   0  0  0  0  0  0  0  0  0  0  0  0
   54.7618   28.6958   54.7560 H   0  0  0  0  0  0  0  0  0  0  0  0
   52.6599   28.5681   53.4153 H   0  0  0  0  0  0  0  0  0  0  0  0
   52.3830   29.9947   51.3847 H   0  0  0  0  0  0  0  0  0  0  0  0
   54.2092   31.5472   50.6869 H   0  0  0  0  0  0  0  0  0  0  0  0
  1  2  1  0
  2  3  1  0
  3  4  2  0
  4  5  1  0
  5  6  2  0
  6  7  1  0
  7  8  1  0
  8  9  2  0
  8 10  1  0
  6 11  1  0
 11 12  2  0
 12 13  1  0
 13 14  2  0
 14 15  1  0
 15 16  1  0
 15 17  2  0
 17 18  1  0
 18 19  2  0
 19 20  1  0
 20 21  1  0
 21 22  1  0
 22 23  1  0
 23 24  2  0
 24 25  1  0
 25 26  2  0
 26 27  1  0
 26 28  1  0
 28 29  2  0
 21 30  1  0
 30 31  2  0
 30 32  2  0
 30 33  1  0
 33 34  1  0
 34 35  2  0
 35 36  1  0
 36 37  2  0
 37 38  1  0
 38 39  2  0
 12  3  1  0
 19 13  1  0
 29 23  1  0
 39 34  1  0
  1 40  1  0
  1 41  1  0
  1 42  1  0
  4 43  1  0
  5 44  1  0
  7 45  1  0
  7 46  1  0
 11 47  1  0
 14 48  1  0
 16 49  1  0
 16 50  1  0
 16 51  1  0
 17 52  1  0
 18 53  1  0
 20 54  1  0
 20 55  1  0
 21 56  1  6
 22 57  1  0
 22 58  1  0
 24 59  1  0
 25 60  1  0
 28 61  1  0
 29 62  1  0
 33 63  1  0
 33 64  1  0
 35 65  1  0
 36 66  1  0
 37 67  1  0
 38 68  1  0
 39 69  1  0
M  CHG  2  10  -1  21   1
M  END
>  <UniqueID>  (92) 
82

>  <SMILES>  (92) 
COc1ccc(CC(=O)[O-])cc1-c1cc(C)ccc1C[N@H+](Cc1ccc(F)cc1)S(=O)(=O)Cc1ccccc1

>  <Energy>  (92) 
74.50769750399593

>  <Genealogy>  (92) 
COc1ccc(CC(=O)[O-])cc1-c1cc(C)ccc1C[NH+](Cc1ccc(F)cc1)S(=O)(=O)Cc1ccccc1 (protonated)
COc1ccc(CC(=O)[O-])cc1-c1cc(C)ccc1C[N@H+](Cc1ccc(F)cc1)S(=O)(=O)Cc1ccccc1 (chirality)
COc1ccc(CC(=O)[O-])cc1-c1cc(C)ccc1C[N@H+](Cc1ccc(F)cc1)S(=O)(=O)Cc1ccccc1 (3D coordinates assigned)
COc1ccc(CC(=O)[O-])cc1-c1cc(C)ccc1C[N@H+](Cc1ccc(F)cc1)S(=O)(=O)Cc1ccccc1 (optimized conformer: 74.50769750399593 kcal/mol)

>  <smiles>  (92) 
COc1ccc(CC(=O)O)cc1-c1cc(C)ccc1CN(Cc1ccc(F)cc1)S(=O)(=O)Cc1ccccc1

>  <score_type>  (92) 
oracle

>  <origin>  (92) 
adg

>  <m_score__min__energy>  (92) 
-11.35

>  <m_primary>  (92) 
energy

$$$$
92:0
     RDKit          3D

 48 49  0  0  0  0  0  0  0  0999 V2000
   56.0920   29.7890   43.2340 C   0  0  0  0  0  0  0  0  0  0  0  0
   56.2380   30.4040   44.5100 O   0  0  0  0  0  0  0  0  0  0  0  0
   57.4210   30.3860   45.2740 C   0  0  0  0  0  0  0  0  0  0  0  0
   58.2080   31.5420   45.4570 C   0  0  0  0  0  0  0  0  0  0  0  0
   59.3580   31.4970   46.2410 C   0  0  0  0  0  0  0  0  0  0  0  0
   59.7530   30.3050   46.8500 C   0  0  0  0  0  0  0  0  0  0  0  0
   60.9090   30.3290   47.6430 O   0  0  0  0  0  0  0  0  0  0  0  0
   62.0070   31.2340   47.4980 C   0  0  0  0  0  0  0  0  0  0  0  0
   61.8940   32.4190   48.4630 C   0  0  0  0  0  0  0  0  0  0  0  0
   63.0090   33.4520   48.2420 C   0  0  0  0  0  0  0  0  0  0  0  0
   63.7770   33.1740   46.9490 C   0  0  0  0  0  0  0  0  0  0  0  0
   63.4980   34.1460   46.0080 F   0  0  0  0  0  0  0  0  0  0  0  0
   58.9910   29.1370   46.6450 C   0  0  0  0  0  0  0  0  0  0  0  0
   57.8140   29.1760   45.8710 C   0  0  0  0  0  0  0  0  0  0  0  0
   56.9750   28.0280   45.6700 N   0  0  0  0  0  0  0  0  0  0  0  0
   57.1040   26.6740   46.1320 C   0  0  0  0  0  0  0  0  0  0  0  0
   58.2210   26.1820   46.4260 O   0  0  0  0  0  0  0  0  0  0  0  0
   55.8950   25.8550   46.2730 C   0  0  0  0  0  0  0  0  0  0  0  0
   54.7710   26.3420   45.9640 O   0  0  0  0  0  0  0  0  0  0  0  0
   56.0010   24.5090   46.7620 N   0  0  0  0  0  0  0  0  0  0  0  0
   56.1050   23.2930   45.9490 C   0  0  0  0  0  0  0  0  0  0  0  0
   55.4100   23.4540   44.5960 C   0  0  0  0  0  0  0  0  0  0  0  0
   56.5060   23.4860   43.5430 C   0  0  0  0  0  0  0  0  0  0  0  0
   57.7050   22.7840   44.1560 C   0  0  0  0  0  0  0  0  0  0  0  0
   57.5590   22.9010   45.6690 C   0  0  0  0  0  0  0  0  0  0  0  0
   55.8398   28.7265   43.3658 H   0  0  0  0  0  0  0  0  0  0  0  0
   55.2879   30.2902   42.6753 H   0  0  0  0  0  0  0  0  0  0  0  0
   57.0356   29.8753   42.6753 H   0  0  0  0  0  0  0  0  0  0  0  0
   57.9112   32.4861   44.9769 H   0  0  0  0  0  0  0  0  0  0  0  0
   59.9593   32.4074   46.3813 H   0  0  0  0  0  0  0  0  0  0  0  0
   62.9434   30.6946   47.7035 H   0  0  0  0  0  0  0  0  0  0  0  0
   61.9960   31.6257   46.4702 H   0  0  0  0  0  0  0  0  0  0  0  0
   60.9211   32.9091   48.3106 H   0  0  0  0  0  0  0  0  0  0  0  0
   61.9893   32.0315   49.4881 H   0  0  0  0  0  0  0  0  0  0  0  0
   62.5615   34.4552   48.1841 H   0  0  0  0  0  0  0  0  0  0  0  0
   63.7134   33.3876   49.0844 H   0  0  0  0  0  0  0  0  0  0  0  0
   64.8564   33.1731   47.1610 H   0  0  0  0  0  0  0  0  0  0  0  0
   63.4701   32.1944   46.5538 H   0  0  0  0  0  0  0  0  0  0  0  0
   59.3179   28.1870   47.0930 H   0  0  0  0  0  0  0  0  0  0  0  0
   55.6143   22.5077   46.5427 H   0  0  0  0  0  0  0  0  0  0  0  0
   54.7339   22.6057   44.4138 H   0  0  0  0  0  0  0  0  0  0  0  0
   54.8072   24.3737   44.5678 H   0  0  0  0  0  0  0  0  0  0  0  0
   56.1781   22.9579   42.6355 H   0  0  0  0  0  0  0  0  0  0  0  0
   56.7518   24.5180   43.2524 H   0  0  0  0  0  0  0  0  0  0  0  0
   57.7171   21.7253   43.8576 H   0  0  0  0  0  0  0  0  0  0  0  0
   58.6460   23.2397   43.8142 H   0  0  0  0  0  0  0  0  0  0  0  0
   57.7892   21.9371   46.1465 H   0  0  0  0  0  0  0  0  0  0  0  0
   58.2532   23.6522   46.0737 H   0  0  0  0  0  0  0  0  0  0  0  0
  1  2  1  0
  2  3  1  0
  3  4  2  0
  4  5  1  0
  5  6  2  0
  6  7  1  0
  7  8  1  0
  8  9  1  0
  9 10  1  0
 10 11  1  0
 11 12  1  0
  6 13  1  0
 13 14  2  0
 14 15  1  0
 15 16  1  0
 16 17  2  0
 16 18  1  0
 18 19  2  0
 18 20  1  0
 20 21  1  0
 21 22  1  0
 22 23  1  0
 23 24  1  0
 24 25  1  0
 14  3  1  0
 25 21  1  0
  1 26  1  0
  1 27  1  0
  1 28  1  0
  4 29  1  0
  5 30  1  0
  8 31  1  0
  8 32  1  0
  9 33  1  0
  9 34  1  0
 10 35  1  0
 10 36  1  0
 11 37  1  0
 11 38  1  0
 13 39  1  0
 21 40  1  0
 22 41  1  0
 22 42  1  0
 23 43  1  0
 23 44  1  0
 24 45  1  0
 24 46  1  0
 25 47  1  0
 25 48  1  0
M  CHG  2  15  -1  20  -1
M  END
>  <UniqueID>  (93) 
83

>  <SMILES>  (93) 
COc1ccc(OCCCCF)cc1[N-]C(=O)C(=O)[N-]C1CCCC1

>  <Energy>  (93) 
44.56140040603593

>  <Genealogy>  (93) 
COc1ccc(OCCCCF)cc1[N-]C(=O)C(=O)[N-]C1CCCC1 (protonated)
COc1ccc(OCCCCF)cc1[N-]C(=O)C(=O)[N-]C1CCCC1 (3D coordinates assigned)
COc1ccc(OCCCCF)cc1[N-]C(=O)C(=O)[N-]C1CCCC1 (nonaromatic ring conformer: 44.56140040603593 kcal/mol)

>  <smiles>  (93) 
COc1ccc(OCCCCF)cc1NC(=O)C(=O)NC1CCCC1

>  <score_type>  (93) 
oracle

>  <origin>  (93) 
adg

>  <m_score__min__energy>  (93) 
-10.5

>  <m_primary>  (93) 
energy

$$$$
93:0
     RDKit          3D

 47 49  0  0  0  0  0  0  0  0999 V2000
   59.0087   32.8672   42.9866 H   0  0  0  0  0  0  0  0  0  0  0  0
   58.5020   32.7790   43.9590 C   0  0  0  0  0  0  0  0  0  0  0  0
   58.5840   33.7710   44.7990 N   0  0  0  0  0  0  0  0  0  0  0  0
   59.7060   34.0480   45.7000 C   0  0  0  0  0  0  0  0  0  0  0  0
   60.6435   34.0174   45.1254 H   0  0  0  0  0  0  0  0  0  0  0  0
   59.5568   35.0422   46.1464 H   0  0  0  0  0  0  0  0  0  0  0  0
   59.7770   33.0310   46.8120 C   0  0  0  0  0  0  0  0  0  0  0  0
   60.9640   32.3220   47.0460 C   0  0  0  0  0  0  0  0  0  0  0  0
   61.8679   32.5626   46.4672 H   0  0  0  0  0  0  0  0  0  0  0  0
   61.0050   31.3120   48.0100 C   0  0  0  0  0  0  0  0  0  0  0  0
   61.9397   30.7575   48.1797 H   0  0  0  0  0  0  0  0  0  0  0  0
   59.8600   30.9980   48.7660 C   0  0  0  0  0  0  0  0  0  0  0  0
   59.9030   29.9150   49.7790 C   0  0  0  0  0  0  0  0  0  0  0  0
   60.2170   28.7430   49.4390 O   0  0  0  0  0  0  0  0  0  0  0  0
   59.4970   30.1550   51.1300 N   0  0  0  0  0  0  0  0  0  0  0  0
   58.3430   30.5560   51.5970 C   0  0  0  0  0  0  0  0  0  0  0  0
   57.4260   29.5850   51.8650 N   0  0  0  0  0  0  0  0  0  0  0  0
   56.1730   29.8520   52.3110 C   0  0  0  0  0  0  0  0  0  0  0  0
   55.4744   29.0272   52.5152 H   0  0  0  0  0  0  0  0  0  0  0  0
   55.7720   31.1680   52.5100 C   0  0  0  0  0  0  0  0  0  0  0  0
   54.7506   31.3926   52.8510 H   0  0  0  0  0  0  0  0  0  0  0  0
   56.6770   32.1980   52.2730 C   0  0  0  0  0  0  0  0  0  0  0  0
   56.3650   33.2412   52.4293 H   0  0  0  0  0  0  0  0  0  0  0  0
   57.9860   31.9230   51.8360 C   0  0  0  0  0  0  0  0  0  0  0  0
   58.9290   33.0910   51.6900 C   0  0  0  0  0  0  0  0  0  0  0  0
   59.2213   33.4531   52.6867 H   0  0  0  0  0  0  0  0  0  0  0  0
   59.8255   32.7717   51.1384 H   0  0  0  0  0  0  0  0  0  0  0  0
   58.4279   33.9001   51.1384 H   0  0  0  0  0  0  0  0  0  0  0  0
   58.6800   31.7300   48.5460 C   0  0  0  0  0  0  0  0  0  0  0  0
   57.7799   31.5039   49.1364 H   0  0  0  0  0  0  0  0  0  0  0  0
   58.6410   32.7420   47.5840 C   0  0  0  0  0  0  0  0  0  0  0  0
   57.7150   33.3156   47.4306 H   0  0  0  0  0  0  0  0  0  0  0  0
   57.7580   31.5440   44.2590 C   0  0  0  0  0  0  0  0  0  0  0  0
   56.6090   31.2120   43.5290 C   0  0  0  0  0  0  0  0  0  0  0  0
   56.2828   31.8519   42.6958 H   0  0  0  0  0  0  0  0  0  0  0  0
   55.8780   30.0690   43.8590 C   0  0  0  0  0  0  0  0  0  0  0  0
   54.9819   29.8049   43.2783 H   0  0  0  0  0  0  0  0  0  0  0  0
   56.2810   29.2590   44.9250 C   0  0  0  0  0  0  0  0  0  0  0  0
   55.5420   28.1260   45.2450 O   0  0  0  0  0  0  0  0  0  0  0  0
   57.4240   29.5840   45.6700 C   0  0  0  0  0  0  0  0  0  0  0  0
   57.7730   28.7660   46.7550 O   0  0  0  0  0  0  0  0  0  0  0  0
   58.9450   27.9600   46.8100 C   0  0  0  0  0  0  0  0  0  0  0  0
   59.2139   27.7751   47.8605 H   0  0  0  0  0  0  0  0  0  0  0  0
   58.7545   27.0010   46.3060 H   0  0  0  0  0  0  0  0  0  0  0  0
   59.7723   28.4811   46.3060 H   0  0  0  0  0  0  0  0  0  0  0  0
   58.1740   30.7230   45.3150 C   0  0  0  0  0  0  0  0  0  0  0  0
   59.0912   30.9688   45.8702 H   0  0  0  0  0  0  0  0  0  0  0  0
  1  2  1  0
  2  3  2  3
  3  4  1  0
  4  5  1  0
  4  6  1  0
  4  7  1  0
  7  8  2  0
  8  9  1  0
  8 10  1  0
 10 11  1  0
 10 12  2  0
 12 13  1  0
 13 14  2  0
 13 15  1  0
 15 16  2  0
 16 17  1  0
 17 18  1  0
 18 19  1  0
 18 20  2  0
 20 21  1  0
 20 22  1  0
 22 23  1  0
 22 24  2  0
 24 25  1  0
 25 26  1  0
 25 27  1  0
 25 28  1  0
 12 29  1  0
 29 30  1  0
 29 31  2  0
 31 32  1  0
  2 33  1  0
 33 34  2  0
 34 35  1  0
 34 36  1  0
 36 37  1  0
 36 38  2  0
 38 39  1  0
 38 40  1  0
 40 41  1  0
 41 42  1  0
 42 43  1  0
 42 44  1  0
 42 45  1  0
 40 46  2  0
 46 47  1  0
 31  7  1  0
 46 33  1  0
 24 16  1  0
M  CHG  2  17  -1  39  -1
M  END
>  <UniqueID>  (94) 
84

>  <SMILES>  (94) 
COc1cc(C=NCc2ccc(C(=O)/N=c3/[n-]cccc3C)cc2)ccc1[O-]

>  <Energy>  (94) 
70.91716586031748

>  <Genealogy>  (94) 
COc1cc(C=NCc2ccc(C(=O)N=c3[n-]cccc3C)cc2)ccc1[O-] (protonated)
COc1cc(C=NCc2ccc(C(=O)/N=c3/[n-]cccc3C)cc2)ccc1[O-] (cis-trans isomerization)
COc1cc(C=NCc2ccc(C(=O)/N=c3/[n-]cccc3C)cc2)ccc1[O-] (3D coordinates assigned)
COc1cc(C=NCc2ccc(C(=O)/N=c3/[n-]cccc3C)cc2)ccc1[O-] (optimized conformer: 70.91716586031748 kcal/mol)

>  <smiles>  (94) 
COc1cc(C=NCc2ccc(C(=O)N=c3[nH]cccc3C)cc2)ccc1O

>  <score_type>  (94) 
oracle

>  <origin>  (94) 
adg

>  <m_score__min__energy>  (94) 
-13.57

>  <m_primary>  (94) 
energy

$$$$
94:0
     RDKit          3D

 43 46  0  0  0  0  0  0  0  0999 V2000
   60.0930   33.8290   49.2600 C   0  0  0  0  0  0  0  0  0  0  0  0
   61.3100   33.5410   48.4210 C   0  0  0  0  0  0  0  0  0  0  0  0
   62.3370   32.7540   48.9680 C   0  0  0  0  0  0  0  0  0  0  0  0
   63.5080   32.5110   48.2460 C   0  0  0  0  0  0  0  0  0  0  0  0
   63.6670   33.0520   46.9700 C   0  0  0  0  0  0  0  0  0  0  0  0
   62.6470   33.8180   46.4030 C   0  0  0  0  0  0  0  0  0  0  0  0
   61.4530   34.0430   47.1010 C   0  0  0  0  0  0  0  0  0  0  0  0
   60.4320   34.8220   46.4650 N   0  0  0  0  0  0  0  0  0  0  0  0
   59.5220   34.3020   45.4920 C   0  0  0  0  0  0  0  0  0  0  0  0
   59.5620   34.7180   44.3020 O   0  0  0  0  0  0  0  0  0  0  0  0
   58.5380   33.3400   45.8910 N   0  0  0  0  0  0  0  0  0  0  0  0
   57.9960   32.3390   45.0110 C   0  0  0  0  0  0  0  0  0  0  0  0
   57.9310   32.5940   43.6330 C   0  0  0  0  0  0  0  0  0  0  0  0
   57.3760   31.6480   42.7660 C   0  0  0  0  0  0  0  0  0  0  0  0
   56.8580   30.4530   43.2680 C   0  0  0  0  0  0  0  0  0  0  0  0
   56.8760   30.1970   44.6440 C   0  0  0  0  0  0  0  0  0  0  0  0
   56.3400   28.9890   45.1150 O   0  0  0  0  0  0  0  0  0  0  0  0
   57.0890   27.8970   45.5790 C   0  0  0  0  0  0  0  0  0  0  0  0
   58.4730   27.9830   45.8630 C   0  0  0  0  0  0  0  0  0  0  0  0
   59.1810   26.8500   46.3240 C   0  0  0  0  0  0  0  0  0  0  0  0
   58.5150   25.6270   46.5240 C   0  0  0  0  0  0  0  0  0  0  0  0
   57.1490   25.5830   46.2600 C   0  0  0  0  0  0  0  0  0  0  0  0
   56.3250   24.5320   46.3860 N   0  0  0  0  0  0  0  0  0  0  0  0
   55.1360   25.0570   45.9920 C   0  0  0  0  0  0  0  0  0  0  0  0
   54.0770   24.3770   45.9650 O   0  0  0  0  0  0  0  0  0  0  0  0
   55.1710   26.3650   45.6290 N   0  0  0  0  0  0  0  0  0  0  0  0
   56.4640   26.6720   45.8110 C   0  0  0  0  0  0  0  0  0  0  0  0
   57.4640   31.1360   45.5100 C   0  0  0  0  0  0  0  0  0  0  0  0
   60.3589   33.7661   50.3255 H   0  0  0  0  0  0  0  0  0  0  0  0
   59.7224   34.8397   49.0337 H   0  0  0  0  0  0  0  0  0  0  0  0
   59.3087   33.0916   49.0337 H   0  0  0  0  0  0  0  0  0  0  0  0
   62.2181   32.3252   49.9740 H   0  0  0  0  0  0  0  0  0  0  0  0
   64.3053   31.8926   48.6840 H   0  0  0  0  0  0  0  0  0  0  0  0
   64.5971   32.8748   46.4101 H   0  0  0  0  0  0  0  0  0  0  0  0
   62.7817   34.2486   45.3998 H   0  0  0  0  0  0  0  0  0  0  0  0
   58.2340   33.3420   46.8910 H   0  0  0  0  0  0  0  0  0  0  0  0
   58.3185   33.5426   43.2329 H   0  0  0  0  0  0  0  0  0  0  0  0
   57.3474   31.8461   41.6844 H   0  0  0  0  0  0  0  0  0  0  0  0
   56.4334   29.7085   42.5786 H   0  0  0  0  0  0  0  0  0  0  0  0
   59.0010   28.9379   45.7240 H   0  0  0  0  0  0  0  0  0  0  0  0
   60.2594   26.9249   46.5277 H   0  0  0  0  0  0  0  0  0  0  0  0
   59.0552   24.7361   46.8769 H   0  0  0  0  0  0  0  0  0  0  0  0
   57.5085   30.9277   46.5892 H   0  0  0  0  0  0  0  0  0  0  0  0
  1  2  1  0
  2  3  2  0
  3  4  1  0
  4  5  2  0
  5  6  1  0
  6  7  2  0
  7  8  1  0
  8  9  1  0
  9 10  2  0
  9 11  1  0
 11 12  1  0
 12 13  2  0
 13 14  1  0
 14 15  2  0
 15 16  1  0
 16 17  1  0
 17 18  1  0
 18 19  2  0
 19 20  1  0
 20 21  2  0
 21 22  1  0
 22 23  1  0
 23 24  1  0
 24 25  2  0
 24 26  1  0
 26 27  1  0
 16 28  2  0
  7  2  1  0
 28 12  1  0
 27 18  1  0
 27 22  2  0
  1 29  1  0
  1 30  1  0
  1 31  1  0
  3 32  1  0
  4 33  1  0
  5 34  1  0
  6 35  1  0
 11 36  1  0
 13 37  1  0
 14 38  1  0
 15 39  1  0
 19 40  1  0
 20 41  1  0
 21 42  1  0
 28 43  1  0
M  CHG  3   8  -1  23  -1  26  -1
M  END
>  <UniqueID>  (95) 
85

>  <SMILES>  (95) 
Cc1ccccc1[N-]C(=O)Nc1cccc(Oc2cccc3[n-]c(=O)[n-]c23)c1

>  <Energy>  (95) 
97.93053242371728

>  <Genealogy>  (95) 
Cc1ccccc1[N-]C(=O)Nc1cccc(Oc2cccc3[n-]c(=O)[n-]c23)c1 (protonated)
Cc1ccccc1[N-]C(=O)Nc1cccc(Oc2cccc3[n-]c(=O)[n-]c23)c1 (3D coordinates assigned)
Cc1ccccc1[N-]C(=O)Nc1cccc(Oc2cccc3[n-]c(=O)[n-]c23)c1 (optimized conformer: 97.93053242371728 kcal/mol)

>  <smiles>  (95) 
Cc1ccccc1NC(=O)Nc1cccc(Oc2cccc3[nH]c(=O)[nH]c23)c1

>  <score_type>  (95) 
oracle

>  <origin>  (95) 
adg

>  <m_score__min__energy>  (95) 
-14.550000000000001

>  <m_primary>  (95) 
energy

$$$$
95:0
     RDKit          3D

 48 51  0  0  0  0  0  0  0  0999 V2000
   61.0360   28.3700   50.2860 C   0  0  0  0  0  0  0  0  0  0  0  0
   60.4750   27.7930   49.0310 C   0  0  0  0  0  0  0  0  0  0  0  0
   61.1270   26.9150   48.1870 C   0  0  0  0  0  0  0  0  0  0  0  0
   60.2370   26.6480   47.1690 C   0  0  0  0  0  0  0  0  0  0  0  0
   59.0970   27.3700   47.4660 C   0  0  0  0  0  0  0  0  0  0  0  0
   57.8610   27.4120   46.6650 C   0  0  0  0  0  0  0  0  0  0  0  0
   57.3530   28.5340   46.0010 C   0  0  0  0  0  0  0  0  0  0  0  0
   57.9410   29.8870   45.8830 C   0  0  0  0  0  0  0  0  0  0  0  0
   57.4150   30.7180   45.0950 O   0  0  0  0  0  0  0  0  0  0  0  0
   59.1280   30.2940   46.6630 C   0  0  0  0  0  0  0  0  0  0  0  0
   58.9640   31.1520   47.7630 C   0  0  0  0  0  0  0  0  0  0  0  0
   60.0620   31.5100   48.5500 C   0  0  0  0  0  0  0  0  0  0  0  0
   61.3370   31.0380   48.2300 C   0  0  0  0  0  0  0  0  0  0  0  0
   61.5180   30.2200   47.1130 C   0  0  0  0  0  0  0  0  0  0  0  0
   60.4240   29.8530   46.3200 C   0  0  0  0  0  0  0  0  0  0  0  0
   60.7260   28.9450   44.8450 Cl  0  0  0  0  0  0  0  0  0  0  0  0
   56.1240   28.1490   45.5060 C   0  0  0  0  0  0  0  0  0  0  0  0
   55.2370   28.9410   44.7850 O   0  0  0  0  0  0  0  0  0  0  0  0
   55.9250   26.8430   45.8740 C   0  0  0  0  0  0  0  0  0  0  0  0
   54.7680   26.1140   45.6220 O   0  0  0  0  0  0  0  0  0  0  0  0
   56.9830   26.3770   46.5720 N   0  0  0  0  0  0  0  0  0  0  0  0
   56.9860   25.1380   47.3630 C   0  0  0  0  0  0  0  0  0  0  0  0
   57.6120   23.9570   46.6050 C   0  0  0  0  0  0  0  0  0  0  0  0
   57.9310   24.2730   45.1350 C   0  0  0  0  0  0  0  0  0  0  0  0
   57.4830   23.2210   44.2220 N   0  0  0  0  0  0  0  0  0  0  0  0
   57.9540   21.9640   44.1800 C   0  0  0  0  0  0  0  0  0  0  0  0
   57.1180   21.2210   43.3790 C   0  0  0  0  0  0  0  0  0  0  0  0
   56.1090   21.9990   42.9350 N   0  0  0  0  0  0  0  0  0  0  0  0
   56.3590   23.2100   43.4770 C   0  0  0  0  0  0  0  0  0  0  0  0
   59.2720   28.0490   48.5760 O   0  0  0  0  0  0  0  0  0  0  0  0
   60.5654   27.8860   51.1545 H   0  0  0  0  0  0  0  0  0  0  0  0
   62.1222   28.1988   50.3147 H   0  0  0  0  0  0  0  0  0  0  0  0
   60.8343   29.4510   50.3147 H   0  0  0  0  0  0  0  0  0  0  0  0
   62.1442   26.5129   48.3032 H   0  0  0  0  0  0  0  0  0  0  0  0
   60.4006   25.9947   46.2993 H   0  0  0  0  0  0  0  0  0  0  0  0
   57.9656   31.5444   48.0064 H   0  0  0  0  0  0  0  0  0  0  0  0
   59.9219   32.1646   49.4229 H   0  0  0  0  0  0  0  0  0  0  0  0
   62.1982   31.3106   48.8577 H   0  0  0  0  0  0  0  0  0  0  0  0
   62.5255   29.8620   46.8546 H   0  0  0  0  0  0  0  0  0  0  0  0
   57.5607   25.3097   48.2851 H   0  0  0  0  0  0  0  0  0  0  0  0
   55.9396   24.8782   47.5808 H   0  0  0  0  0  0  0  0  0  0  0  0
   58.5467   23.6743   47.1113 H   0  0  0  0  0  0  0  0  0  0  0  0
   56.8733   23.1419   46.6082 H   0  0  0  0  0  0  0  0  0  0  0  0
   57.4311   25.2137   44.8606 H   0  0  0  0  0  0  0  0  0  0  0  0
   59.0242   24.3514   45.0413 H   0  0  0  0  0  0  0  0  0  0  0  0
   58.8518   21.5932   44.6961 H   0  0  0  0  0  0  0  0  0  0  0  0
   57.2516   20.1562   43.1376 H   0  0  0  0  0  0  0  0  0  0  0  0
   55.7168   24.0904   43.3274 H   0  0  0  0  0  0  0  0  0  0  0  0
  1  2  1  0
  2  3  2  0
  3  4  1  0
  4  5  2  0
  5  6  1  0
  6  7  2  0
  7  8  1  0
  8  9  2  0
  8 10  1  0
 10 11  2  0
 11 12  1  0
 12 13  2  0
 13 14  1  0
 14 15  2  0
 15 16  1  0
  7 17  1  0
 17 18  1  0
 17 19  2  0
 19 20  1  0
 19 21  1  0
 21 22  1  0
 22 23  1  0
 23 24  1  0
 24 25  1  0
 25 26  1  0
 26 27  2  0
 27 28  1  0
 28 29  2  0
  5 30  1  0
 30  2  1  0
 21  6  1  0
 29 25  1  0
 15 10  1  0
  1 31  1  0
  1 32  1  0
  1 33  1  0
  3 34  1  0
  4 35  1  0
 11 36  1  0
 12 37  1  0
 13 38  1  0
 14 39  1  0
 22 40  1  0
 22 41  1  0
 23 42  1  0
 23 43  1  0
 24 44  1  0
 24 45  1  0
 26 46  1  0
 27 47  1  0
 29 48  1  0
M  CHG  2  18  -1  20  -1
M  END
>  <UniqueID>  (96) 
86

>  <SMILES>  (96) 
Cc1ccc(-c2c(C(=O)c3ccccc3Cl)c([O-])c([O-])n2CCCn2ccnc2)o1

>  <Energy>  (96) 
142.64477535477354

>  <Genealogy>  (96) 
Cc1ccc(-c2c(C(=O)c3ccccc3Cl)c([O-])c([O-])n2CCCn2ccnc2)o1 (protonated)
Cc1ccc(-c2c(C(=O)c3ccccc3Cl)c([O-])c([O-])n2CCCn2ccnc2)o1 (3D coordinates assigned)
Cc1ccc(-c2c(C(=O)c3ccccc3Cl)c([O-])c([O-])n2CCCn2ccnc2)o1 (optimized conformer: 142.64477535477354 kcal/mol)

>  <smiles>  (96) 
Cc1ccc(-c2c(C(=O)c3ccccc3Cl)c(O)c(O)n2CCCn2ccnc2)o1

>  <score_type>  (96) 
oracle

>  <origin>  (96) 
adg

>  <m_score__min__energy>  (96) 
-13.880000000000001

>  <m_primary>  (96) 
energy

$$$$
96:0
     RDKit          3D

 53 56  0  0  0  0  0  0  0  0999 V2000
   61.3501   26.9399   47.4336 H   0  0  0  0  0  0  0  0  0  0  0  0
   60.3700   27.2410   47.0350 C   0  0  0  0  0  0  0  0  0  0  0  0
   58.9510   26.3220   47.1210 S   0  0  0  0  0  0  0  0  0  0  0  0
   57.9880   27.4550   46.3350 C   0  0  0  0  0  0  0  0  0  0  0  0
   56.6370   27.4180   45.9880 C   0  0  0  0  0  0  0  0  0  0  0  0
   55.8070   26.3360   46.3010 O   0  0  0  0  0  0  0  0  0  0  0  0
   55.7880   25.1200   45.6040 C   0  0  0  0  0  0  0  0  0  0  0  0
   57.0040   24.5520   45.2100 C   0  0  0  0  0  0  0  0  0  0  0  0
   57.9488   25.0575   45.4585 H   0  0  0  0  0  0  0  0  0  0  0  0
   57.0270   23.3470   44.5030 C   0  0  0  0  0  0  0  0  0  0  0  0
   57.9901   22.9071   44.2049 H   0  0  0  0  0  0  0  0  0  0  0  0
   55.8320   22.6950   44.1710 C   0  0  0  0  0  0  0  0  0  0  0  0
   55.9080   21.4860   43.4620 O   0  0  0  0  0  0  0  0  0  0  0  0
   57.0140   21.0960   42.6570 C   0  0  0  0  0  0  0  0  0  0  0  0
   57.8526   20.8003   43.3045 H   0  0  0  0  0  0  0  0  0  0  0  0
   56.7237   20.2460   42.0220 H   0  0  0  0  0  0  0  0  0  0  0  0
   57.3210   21.9401   42.0220 H   0  0  0  0  0  0  0  0  0  0  0  0
   54.6070   23.2720   44.5510 C   0  0  0  0  0  0  0  0  0  0  0  0
   53.6622   22.7723   44.2909 H   0  0  0  0  0  0  0  0  0  0  0  0
   54.5850   24.4780   45.2580 C   0  0  0  0  0  0  0  0  0  0  0  0
   53.6227   24.9269   45.5450 H   0  0  0  0  0  0  0  0  0  0  0  0
   56.1310   28.4750   45.2940 N   0  0  0  0  0  0  0  0  0  0  0  0
   56.9030   29.5600   44.9670 C   0  0  0  0  0  0  0  0  0  0  0  0
   56.3900   30.5830   44.3520 N   0  0  0  0  0  0  0  0  0  0  0  0
   57.0350   31.3320   43.2740 C   0  0  0  0  0  0  0  0  0  0  0  0
   57.5528   30.6228   42.6115 H   0  0  0  0  0  0  0  0  0  0  0  0
   56.2527   31.8875   42.7361 H   0  0  0  0  0  0  0  0  0  0  0  0
   58.0590   32.3540   43.8020 C   0  0  0  0  0  0  0  0  0  0  0  0
   58.7330   31.8413   44.5040 H   0  0  0  0  0  0  0  0  0  0  0  0
   58.5950   32.7568   42.9299 H   0  0  0  0  0  0  0  0  0  0  0  0
   57.4130   33.5470   44.5290 C   0  0  0  0  0  0  0  0  0  0  0  0
   57.5062   34.4425   43.8971 H   0  0  0  0  0  0  0  0  0  0  0  0
   56.3564   33.3041   44.7149 H   0  0  0  0  0  0  0  0  0  0  0  0
   58.0620   33.8100   45.8320 N   0  0  0  0  0  0  0  0  0  0  0  0
   58.1210   32.5680   46.6400 C   0  0  0  0  0  0  0  0  0  0  0  0
   57.1091   32.3388   47.0053 H   0  0  0  0  0  0  0  0  0  0  0  0
   58.5129   31.7710   45.9911 H   0  0  0  0  0  0  0  0  0  0  0  0
   59.0690   32.6840   47.8550 C   0  0  0  0  0  0  0  0  0  0  0  0
   58.6046   32.1866   48.7192 H   0  0  0  0  0  0  0  0  0  0  0  0
   60.0243   32.2053   47.5937 H   0  0  0  0  0  0  0  0  0  0  0  0
   59.3470   34.1450   48.2130 C   0  0  0  0  0  0  0  0  0  0  0  0
   58.4046   34.6274   48.5118 H   0  0  0  0  0  0  0  0  0  0  0  0
   60.0729   34.1706   49.0391 H   0  0  0  0  0  0  0  0  0  0  0  0
   59.9430   34.9050   47.0140 C   0  0  0  0  0  0  0  0  0  0  0  0
   59.6849   35.9702   47.1076 H   0  0  0  0  0  0  0  0  0  0  0  0
   61.0320   34.7507   47.0276 H   0  0  0  0  0  0  0  0  0  0  0  0
   59.4130   34.3850   45.6660 C   0  0  0  0  0  0  0  0  0  0  0  0
   59.3670   35.2178   44.9488 H   0  0  0  0  0  0  0  0  0  0  0  0
   60.0908   33.6029   45.2934 H   0  0  0  0  0  0  0  0  0  0  0  0
   58.2230   29.5840   45.3100 N   0  0  0  0  0  0  0  0  0  0  0  0
   58.7620   28.5400   45.9860 C   0  0  0  0  0  0  0  0  0  0  0  0
   60.0980   28.4410   46.3780 C   0  0  0  0  0  0  0  0  0  0  0  0
   60.8508   29.2207   46.1901 H   0  0  0  0  0  0  0  0  0  0  0  0
  1  2  1  0
  2  3  1  0
  3  4  1  0
  4  5  1  0
  5  6  1  0
  6  7  1  0
  7  8  2  0
  8  9  1  0
  8 10  1  0
 10 11  1  0
 10 12  2  0
 12 13  1  0
 13 14  1  0
 14 15  1  0
 14 16  1  0
 14 17  1  0
 12 18  1  0
 18 19  1  0
 18 20  2  0
 20 21  1  0
  5 22  2  0
 22 23  1  0
 23 24  2  0
 24 25  1  0
 25 26  1  0
 25 27  1  0
 25 28  1  0
 28 29  1  0
 28 30  1  0
 28 31  1  0
 31 32  1  0
 31 33  1  0
 31 34  1  0
 34 35  1  0
 35 36  1  0
 35 37  1  0
 35 38  1  0
 38 39  1  0
 38 40  1  0
 38 41  1  0
 41 42  1  0
 41 43  1  0
 41 44  1  0
 44 45  1  0
 44 46  1  0
 44 47  1  0
 47 48  1  0
 47 49  1  0
 23 50  1  0
 50 51  1  0
 51 52  1  0
 52 53  1  0
 52  2  2  0
 51  4  2  0
 20  7  1  0
 47 34  1  0
M  CHG  1  50  -1
M  END
>  <UniqueID>  (97) 
87

>  <SMILES>  (97) 
COc1ccc(Oc2n/c(=N\CCCN3CCCCC3)[n-]c3ccsc23)cc1

>  <Energy>  (97) 
93.90700179327955

>  <Genealogy>  (97) 
COc1ccc(Oc2nc(=NCCCN3CCCCC3)[n-]c3ccsc23)cc1 (protonated)
COc1ccc(Oc2n/c(=N\CCCN3CCCCC3)[n-]c3ccsc23)cc1 (cis-trans isomerization)
COc1ccc(Oc2n/c(=N\CCCN3CCCCC3)[n-]c3ccsc23)cc1 (3D coordinates assigned)
COc1ccc(Oc2n/c(=N\CCCN3CCCCC3)[n-]c3ccsc23)cc1 (nonaromatic ring conformer: 93.90700179327955 kcal/mol)

>  <smiles>  (97) 
COc1ccc(Oc2nc(=NCCCN3CCCCC3)[nH]c3ccsc23)cc1

>  <score_type>  (97) 
oracle

>  <origin>  (97) 
adg

>  <m_score__min__energy>  (97) 
-11.06

>  <m_primary>  (97) 
energy

$$$$
