0:0
     RDKit          3D

 41 42  0  0  0  0  0  0  0  0999 V2000
   62.4030   31.5760   47.5970 C   0  0  0  0  0  0  0  0  0  0  0  0
   63.4270   32.6140   47.1520 C   0  0  0  0  0  0  0  0  0  0  0  0
   63.0290   33.9480   47.5860 N   0  0  0  0  0  0  0  0  0  0  0  0
   62.4810   34.2190   48.8770 C   0  0  0  0  0  0  0  0  0  0  0  0
   63.2520   34.2680   49.8720 O   0  0  0  0  0  0  0  0  0  0  0  0
   61.1090   34.4760   49.0150 O   0  0  0  0  0  0  0  0  0  0  0  0
   60.1110   34.0850   48.1100 C   0  0  0  0  0  0  0  0  0  0  0  0
   59.9770   34.8040   46.9170 C   0  0  0  0  0  0  0  0  0  0  0  0
   59.0060   34.4460   45.9780 C   0  0  0  0  0  0  0  0  0  0  0  0
   58.1660   33.3480   46.2120 C   0  0  0  0  0  0  0  0  0  0  0  0
   57.0980   32.9830   45.2160 C   0  0  0  0  0  0  0  0  0  0  0  0
   57.7220   32.6100   43.8690 C   0  0  0  0  0  0  0  0  0  0  0  0
   57.2540   31.2980   43.4380 N   0  0  0  0  0  0  0  0  0  0  0  0
   56.6980   30.3210   44.3250 C   0  0  0  0  0  0  0  0  0  0  0  0
   55.4490   30.2710   44.5040 O   0  0  0  0  0  0  0  0  0  0  0  0
   57.5830   29.4190   45.0900 C   0  0  0  0  0  0  0  0  0  0  0  0
   58.9220   29.7910   45.2880 C   0  0  0  0  0  0  0  0  0  0  0  0
   59.8060   28.9280   45.9380 C   0  0  0  0  0  0  0  0  0  0  0  0
   59.3430   27.6950   46.3950 C   0  0  0  0  0  0  0  0  0  0  0  0
   60.1290   26.8990   46.9720 O   0  0  0  0  0  0  0  0  0  0  0  0
   58.0400   27.3540   46.2240 N   0  0  0  0  0  0  0  0  0  0  0  0
   57.1460   28.1750   45.6060 C   0  0  0  0  0  0  0  0  0  0  0  0
   55.8150   27.7630   45.5410 O   0  0  0  0  0  0  0  0  0  0  0  0
   58.3010   32.6200   47.4050 C   0  0  0  0  0  0  0  0  0  0  0  0
   59.2730   32.9790   48.3440 C   0  0  0  0  0  0  0  0  0  0  0  0
   62.3693   31.5419   48.6960 H   0  0  0  0  0  0  0  0  0  0  0  0
   61.4110   31.8493   47.2081 H   0  0  0  0  0  0  0  0  0  0  0  0
   62.6898   30.5878   47.2081 H   0  0  0  0  0  0  0  0  0  0  0  0
   64.4051   32.3680   47.5911 H   0  0  0  0  0  0  0  0  0  0  0  0
   63.4886   32.6025   46.0538 H   0  0  0  0  0  0  0  0  0  0  0  0
   60.6412   35.6577   46.7168 H   0  0  0  0  0  0  0  0  0  0  0  0
   58.9001   35.0284   45.0508 H   0  0  0  0  0  0  0  0  0  0  0  0
   56.5247   32.1257   45.5986 H   0  0  0  0  0  0  0  0  0  0  0  0
   56.4362   33.8498   45.0722 H   0  0  0  0  0  0  0  0  0  0  0  0
   57.4377   33.3612   43.1174 H   0  0  0  0  0  0  0  0  0  0  0  0
   58.8161   32.5803   43.9786 H   0  0  0  0  0  0  0  0  0  0  0  0
   59.2768   30.7683   44.9288 H   0  0  0  0  0  0  0  0  0  0  0  0
   60.8565   29.2177   46.0880 H   0  0  0  0  0  0  0  0  0  0  0  0
   55.1430   28.1580   44.8950 H   0  0  0  0  0  0  0  0  0  0  0  0
   57.6393   31.7636   47.6018 H   0  0  0  0  0  0  0  0  0  0  0  0
   59.3830   32.3945   49.2693 H   0  0  0  0  0  0  0  0  0  0  0  0
  1  2  1  0
  2  3  1  0
  3  4  1  0
  4  5  2  0
  4  6  1  0
  6  7  1  0
  7  8  2  0
  8  9  1  0
  9 10  2  0
 10 11  1  0
 11 12  1  0
 12 13  1  0
 13 14  1  0
 14 15  2  0
 14 16  1  0
 16 17  1  0
 17 18  2  0
 18 19  1  0
 19 20  2  0
 19 21  1  0
 21 22  1  0
 22 23  1  0
 10 24  1  0
 24 25  2  0
 25  7  1  0
 22 16  2  0
  1 26  1  0
  1 27  1  0
  1 28  1  0
  2 29  1  0
  2 30  1  0
  8 31  1  0
  9 32  1  0
 11 33  1  0
 11 34  1  0
 12 35  1  0
 12 36  1  0
 17 37  1  0
 18 38  1  0
 23 39  1  0
 24 40  1  0
 25 41  1  0
M  CHG  3   3  -1  13  -1  21  -1
M  END
>  <UniqueID>  (1) 
1

>  <SMILES>  (1) 
CC[N-]C(=O)Oc1ccc(CC[N-]C(=O)c2ccc(=O)[n-]c2O)cc1

>  <Energy>  (1) 
42.52610211019616

>  <Genealogy>  (1) 
CC[N-]C(=O)Oc1ccc(CC[N-]C(=O)c2ccc(=O)[n-]c2O)cc1 (protonated)
CC[N-]C(=O)Oc1ccc(CC[N-]C(=O)c2ccc(=O)[n-]c2O)cc1 (3D coordinates assigned)
CC[N-]C(=O)Oc1ccc(CC[N-]C(=O)c2ccc(=O)[n-]c2O)cc1 (optimized conformer: 42.52610211019616 kcal/mol)

>  <smiles>  (1) 
CCNC(=O)Oc1ccc(CCNC(=O)c2ccc(=O)[nH]c2O)cc1

>  <score_type>  (1) 
oracle

>  <origin>  (1) 
adg

>  <m_score__min__energy>  (1) 
-12.779999999999999

>  <m_primary>  (1) 
energy

$$$$
1:0
     RDKit          3D

 63 66  0  0  0  0  0  0  0  0999 V2000
   62.6930   30.7230   51.5490 C   0  0  0  0  0  0  0  0  0  0  0  0
   62.1740   29.9470   50.4110 N   0  0  0  0  0  0  0  0  0  0  0  0
   61.1820   30.7330   49.6590 C   0  0  0  0  0  0  0  0  0  0  0  0
   60.8080   29.9710   48.3870 C   0  0  0  0  0  0  0  0  0  0  0  0
   60.4370   28.5830   48.6920 N   0  0  0  0  0  0  0  0  0  0  0  0
   59.8280   27.7530   47.6790 C   0  0  0  0  0  0  0  0  0  0  0  0
   58.4470   27.8150   47.4140 C   0  0  0  0  0  0  0  0  0  0  0  0
   57.8940   27.0020   46.4100 C   0  0  0  0  0  0  0  0  0  0  0  0
   56.4440   27.0640   46.1100 C   0  0  0  0  0  0  0  0  0  0  0  0
   55.6800   26.1720   46.5690 O   0  0  0  0  0  0  0  0  0  0  0  0
   55.8870   28.0680   45.2520 N   0  0  0  0  0  0  0  0  0  0  0  0
   56.5680   29.2270   44.7420 C   0  0  0  0  0  0  0  0  0  0  0  0
   56.3660   29.6830   43.4280 C   0  0  0  0  0  0  0  0  0  0  0  0
   57.0430   30.8150   42.9670 C   0  0  0  0  0  0  0  0  0  0  0  0
   57.9390   31.4850   43.8020 C   0  0  0  0  0  0  0  0  0  0  0  0
   58.1820   31.0190   45.1030 C   0  0  0  0  0  0  0  0  0  0  0  0
   59.0830   31.7400   45.9490 N   0  0  0  0  0  0  0  0  0  0  0  0
   58.7340   33.3060   46.6070 S   0  0  0  0  0  0  0  0  0  0  0  0
   59.4420   34.3780   45.8240 O   0  0  0  0  0  0  0  0  0  0  0  0
   57.2590   33.5590   46.5050 O   0  0  0  0  0  0  0  0  0  0  0  0
   59.2190   33.3620   48.3010 C   0  0  0  0  0  0  0  0  0  0  0  0
   60.3500   34.0980   48.6730 C   0  0  0  0  0  0  0  0  0  0  0  0
   60.7620   34.1250   50.0080 C   0  0  0  0  0  0  0  0  0  0  0  0
   60.0370   33.4320   50.9790 C   0  0  0  0  0  0  0  0  0  0  0  0
   58.8820   32.7260   50.6270 C   0  0  0  0  0  0  0  0  0  0  0  0
   58.1620   32.0380   51.6510 N   0  0  0  0  0  0  0  0  0  0  0  0
   57.7700   30.3460   51.6380 S   0  0  0  0  0  0  0  0  0  0  0  0
   58.7120   29.5570   52.9250 C   0  0  0  0  0  0  0  0  0  0  0  0
   58.1330   29.7550   50.3010 O   0  0  0  0  0  0  0  0  0  0  0  0
   56.3070   30.1250   51.8920 O   0  0  0  0  0  0  0  0  0  0  0  0
   58.4880   32.6730   49.2790 C   0  0  0  0  0  0  0  0  0  0  0  0
   57.4820   29.8920   45.5700 C   0  0  0  0  0  0  0  0  0  0  0  0
   58.7270   26.1160   45.7110 C   0  0  0  0  0  0  0  0  0  0  0  0
   60.0890   26.0780   46.0000 C   0  0  0  0  0  0  0  0  0  0  0  0
   60.6020   26.8900   46.9610 N   0  0  0  0  0  0  0  0  0  0  0  0
   60.4080   28.1450   50.0940 C   0  0  0  0  0  0  0  0  0  0  0  0
   61.6520   28.6310   50.8640 C   0  0  0  0  0  0  0  0  0  0  0  0
   62.3765   30.2498   52.4902 H   0  0  0  0  0  0  0  0  0  0  0  0
   63.7917   30.7502   51.5036 H   0  0  0  0  0  0  0  0  0  0  0  0
   62.2986   31.7489   51.5036 H   0  0  0  0  0  0  0  0  0  0  0  0
   60.2845   30.8832   50.2769 H   0  0  0  0  0  0  0  0  0  0  0  0
   61.6053   31.7135   49.3954 H   0  0  0  0  0  0  0  0  0  0  0  0
   59.9562   30.4729   47.9049 H   0  0  0  0  0  0  0  0  0  0  0  0
   61.6802   29.9603   47.7168 H   0  0  0  0  0  0  0  0  0  0  0  0
   57.8038   28.4965   47.9900 H   0  0  0  0  0  0  0  0  0  0  0  0
   55.6738   29.1478   42.7614 H   0  0  0  0  0  0  0  0  0  0  0  0
   56.8696   31.1792   41.9436 H   0  0  0  0  0  0  0  0  0  0  0  0
   58.4578   32.3840   43.4377 H   0  0  0  0  0  0  0  0  0  0  0  0
   59.8990   31.2340   46.3570 H   0  0  0  0  0  0  0  0  0  0  0  0
   60.9158   34.6564   47.9127 H   0  0  0  0  0  0  0  0  0  0  0  0
   61.6592   34.6934   50.2943 H   0  0  0  0  0  0  0  0  0  0  0  0
   60.3755   33.4412   52.0256 H   0  0  0  0  0  0  0  0  0  0  0  0
   58.3311   29.8761   53.9064 H   0  0  0  0  0  0  0  0  0  0  0  0
   58.6169   28.4651   52.8321 H   0  0  0  0  0  0  0  0  0  0  0  0
   59.7703   29.8421   52.8321 H   0  0  0  0  0  0  0  0  0  0  0  0
   57.6022   32.0884   48.9900 H   0  0  0  0  0  0  0  0  0  0  0  0
   57.6536   29.5295   46.5943 H   0  0  0  0  0  0  0  0  0  0  0  0
   58.3069   25.4548   44.9388 H   0  0  0  0  0  0  0  0  0  0  0  0
   60.7491   25.3908   45.4504 H   0  0  0  0  0  0  0  0  0  0  0  0
   59.5073   28.5518   50.5769 H   0  0  0  0  0  0  0  0  0  0  0  0
   60.3992   27.0452   50.1117 H   0  0  0  0  0  0  0  0  0  0  0  0
   61.3884   28.7126   51.9288 H   0  0  0  0  0  0  0  0  0  0  0  0
   62.4472   27.8944   50.6767 H   0  0  0  0  0  0  0  0  0  0  0  0
  1  2  1  0
  2  3  1  0
  3  4  1  0
  4  5  1  0
  5  6  1  0
  6  7  2  0
  7  8  1  0
  8  9  1  0
  9 10  2  0
  9 11  1  0
 11 12  1  0
 12 13  2  0
 13 14  1  0
 14 15  2  0
 15 16  1  0
 16 17  1  0
 17 18  1  0
 18 19  2  0
 18 20  2  0
 18 21  1  0
 21 22  2  0
 22 23  1  0
 23 24  2  0
 24 25  1  0
 25 26  1  0
 26 27  1  0
 27 28  1  0
 27 29  2  0
 27 30  2  0
 25 31  2  0
 16 32  2  0
  8 33  2  0
 33 34  1  0
 34 35  2  0
  5 36  1  0
 36 37  1  0
 37  2  1  0
 35  6  1  0
 32 12  1  0
 31 21  1  0
  1 38  1  0
  1 39  1  0
  1 40  1  0
  3 41  1  0
  3 42  1  0
  4 43  1  0
  4 44  1  0
  7 45  1  0
 13 46  1  0
 14 47  1  0
 15 48  1  0
 17 49  1  0
 22 50  1  0
 23 51  1  0
 24 52  1  0
 28 53  1  0
 28 54  1  0
 28 55  1  0
 31 56  1  0
 32 57  1  0
 33 58  1  0
 34 59  1  0
 36 60  1  0
 36 61  1  0
 37 62  1  0
 37 63  1  0
M  CHG  2  11  -1  26  -1
M  END
>  <UniqueID>  (2) 
2

>  <SMILES>  (2) 
CN1CCN(c2cc(C(=O)[N-]c3cccc(NS(=O)(=O)c4cccc([N-]S(C)(=O)=O)c4)c3)ccn2)CC1

>  <Energy>  (2) 
88.49602708646844

>  <Genealogy>  (2) 
CN1CCN(c2cc(C(=O)[N-]c3cccc(NS(=O)(=O)c4cccc([N-]S(C)(=O)=O)c4)c3)ccn2)CC1 (protonated)
CN1CCN(c2cc(C(=O)[N-]c3cccc(NS(=O)(=O)c4cccc([N-]S(C)(=O)=O)c4)c3)ccn2)CC1 (3D coordinates assigned)
CN1CCN(c2cc(C(=O)[N-]c3cccc(NS(=O)(=O)c4cccc([N-]S(C)(=O)=O)c4)c3)ccn2)CC1 (nonaromatic ring conformer: 88.49602708646844 kcal/mol)

>  <smiles>  (2) 
CN1CCN(c2cc(C(=O)Nc3cccc(NS(=O)(=O)c4cccc(NS(C)(=O)=O)c4)c3)ccn2)CC1

>  <score_type>  (2) 
oracle

>  <origin>  (2) 
adg

>  <m_score__min__energy>  (2) 
-13.289999999999999

>  <m_primary>  (2) 
energy

$$$$
2:0
     RDKit          3D

 61 64  0  0  0  0  0  0  0  0999 V2000
   58.7450   32.9750   43.8310 O   0  0  0  0  0  0  0  0  0  0  0  0
   58.4410   32.2340   44.8040 C   0  0  0  0  0  0  0  0  0  0  0  0
   58.2600   30.7830   44.5700 C   0  0  0  0  0  0  0  0  0  0  0  0
   57.0160   30.2710   44.1630 C   0  0  0  0  0  0  0  0  0  0  0  0
   56.8530   28.9000   43.9450 C   0  0  0  0  0  0  0  0  0  0  0  0
   57.9390   28.0230   44.1010 C   0  0  0  0  0  0  0  0  0  0  0  0
   57.7600   26.5450   43.8930 C   0  0  0  0  0  0  0  0  0  0  0  0
   58.5460   25.8120   44.8880 N   0  0  0  0  0  0  0  0  0  0  0  0
   57.8030   25.9570   46.4530 S   0  0  0  0  0  0  0  0  0  0  0  0
   56.3670   26.3810   46.3050 O   0  0  0  0  0  0  0  0  0  0  0  0
   57.8420   24.6250   47.1500 O   0  0  0  0  0  0  0  0  0  0  0  0
   58.6970   27.1320   47.4130 C   0  0  0  0  0  0  0  0  0  0  0  0
   58.1570   28.3960   47.6870 C   0  0  0  0  0  0  0  0  0  0  0  0
   58.8890   29.3280   48.4320 C   0  0  0  0  0  0  0  0  0  0  0  0
   60.1720   29.0090   48.9100 C   0  0  0  0  0  0  0  0  0  0  0  0
   60.9220   29.9690   49.6790 N   0  0  0  0  0  0  0  0  0  0  0  0
   61.9480   30.5020   49.2050 O   0  0  0  0  0  0  0  0  0  0  0  0
   60.5220   30.3140   50.9530 O   0  0  0  0  0  0  0  0  0  0  0  0
   60.7100   27.7390   48.6240 C   0  0  0  0  0  0  0  0  0  0  0  0
   59.9780   26.8100   47.8790 C   0  0  0  0  0  0  0  0  0  0  0  0
   59.1860   28.5340   44.4920 C   0  0  0  0  0  0  0  0  0  0  0  0
   59.3460   29.9040   44.7190 C   0  0  0  0  0  0  0  0  0  0  0  0
   58.2980   32.8100   46.1180 N   0  0  0  0  0  0  0  0  0  0  0  0
   57.8890   34.2100   46.2740 C   0  0  0  0  0  0  0  0  0  0  0  0
   59.0400   35.0430   46.8790 C   0  0  0  0  0  0  0  0  0  0  0  0
   59.9410   34.2670   47.7760 N   0  0  0  0  0  0  0  0  0  0  0  0
   61.2220   33.9290   47.1130 C   0  0  0  0  0  0  0  0  0  0  0  0
   62.3090   33.6480   48.1190 C   0  0  0  0  0  0  0  0  0  0  0  0
   62.2180   34.1720   49.4180 C   0  0  0  0  0  0  0  0  0  0  0  0
   63.2170   33.9010   50.3590 C   0  0  0  0  0  0  0  0  0  0  0  0
   64.3120   33.1040   50.0100 C   0  0  0  0  0  0  0  0  0  0  0  0
   64.4100   32.5770   48.7190 C   0  0  0  0  0  0  0  0  0  0  0  0
   63.4120   32.8440   47.7750 C   0  0  0  0  0  0  0  0  0  0  0  0
   59.2660   33.0920   48.3770 C   0  0  0  0  0  0  0  0  0  0  0  0
   58.7870   32.0960   47.3060 C   0  0  0  0  0  0  0  0  0  0  0  0
   56.1658   30.9531   44.0152 H   0  0  0  0  0  0  0  0  0  0  0  0
   55.8694   28.5059   43.6498 H   0  0  0  0  0  0  0  0  0  0  0  0
   56.6966   26.2857   44.0026 H   0  0  0  0  0  0  0  0  0  0  0  0
   58.1022   26.2732   42.8835 H   0  0  0  0  0  0  0  0  0  0  0  0
   58.5270   24.7970   44.6360 H   0  0  0  0  0  0  0  0  0  0  0  0
   57.1549   28.6564   47.3155 H   0  0  0  0  0  0  0  0  0  0  0  0
   58.4572   30.3171   48.6449 H   0  0  0  0  0  0  0  0  0  0  0  0
   61.7136   27.4763   48.9897 H   0  0  0  0  0  0  0  0  0  0  0  0
   60.4095   25.8226   47.6579 H   0  0  0  0  0  0  0  0  0  0  0  0
   60.0410   27.8539   44.6204 H   0  0  0  0  0  0  0  0  0  0  0  0
   60.3294   30.2969   45.0165 H   0  0  0  0  0  0  0  0  0  0  0  0
   57.6225   34.6216   45.2893 H   0  0  0  0  0  0  0  0  0  0  0  0
   57.0223   34.2553   46.9499 H   0  0  0  0  0  0  0  0  0  0  0  0
   59.6416   35.4525   46.0542 H   0  0  0  0  0  0  0  0  0  0  0  0
   58.5763   35.8280   47.4944 H   0  0  0  0  0  0  0  0  0  0  0  0
   61.0755   33.0366   46.4868 H   0  0  0  0  0  0  0  0  0  0  0  0
   61.5317   34.7901   46.5025 H   0  0  0  0  0  0  0  0  0  0  0  0
   61.3578   34.7982   49.6971 H   0  0  0  0  0  0  0  0  0  0  0  0
   63.1412   34.3154   51.3751 H   0  0  0  0  0  0  0  0  0  0  0  0
   65.0963   32.8918   50.7516 H   0  0  0  0  0  0  0  0  0  0  0  0
   65.2725   31.9518   48.4448 H   0  0  0  0  0  0  0  0  0  0  0  0
   63.4897   32.4243   46.7612 H   0  0  0  0  0  0  0  0  0  0  0  0
   59.9721   32.5807   49.0478 H   0  0  0  0  0  0  0  0  0  0  0  0
   58.3842   33.4503   48.9284 H   0  0  0  0  0  0  0  0  0  0  0  0
   59.6252   31.4449   47.0170 H   0  0  0  0  0  0  0  0  0  0  0  0
   57.9649   31.4954   47.7224 H   0  0  0  0  0  0  0  0  0  0  0  0
  1  2  2  0
  2  3  1  0
  3  4  2  0
  4  5  1  0
  5  6  2  0
  6  7  1  0
  7  8  1  0
  8  9  1  0
  9 10  2  0
  9 11  2  0
  9 12  1  0
 12 13  2  0
 13 14  1  0
 14 15  2  0
 15 16  1  0
 16 17  2  0
 16 18  1  0
 15 19  1  0
 19 20  2  0
  6 21  1  0
 21 22  2  0
  2 23  1  0
 23 24  1  0
 24 25  1  0
 25 26  1  0
 26 27  1  0
 27 28  1  0
 28 29  2  0
 29 30  1  0
 30 31  2  0
 31 32  1  0
 32 33  2  0
 26 34  1  0
 34 35  1  0
 22  3  1  0
 35 23  1  0
 20 12  1  0
 33 28  1  0
  4 36  1  0
  5 37  1  0
  7 38  1  0
  7 39  1  0
  8 40  1  0
 13 41  1  0
 14 42  1  0
 19 43  1  0
 20 44  1  0
 21 45  1  0
 22 46  1  0
 24 47  1  0
 24 48  1  0
 25 49  1  0
 25 50  1  0
 27 51  1  0
 27 52  1  0
 29 53  1  0
 30 54  1  0
 31 55  1  0
 32 56  1  0
 33 57  1  0
 34 58  1  0
 34 59  1  0
 35 60  1  0
 35 61  1  0
M  CHG  2  16   1  18  -1
M  END
>  <UniqueID>  (3) 
3

>  <SMILES>  (3) 
O=C(c1ccc(CNS(=O)(=O)c2ccc([N+](=O)[O-])cc2)cc1)N1CCN(Cc2ccccc2)CC1

>  <Energy>  (3) 
77.07232306265202

>  <Genealogy>  (3) 
O=C(c1ccc(CNS(=O)(=O)c2ccc([N+](=O)[O-])cc2)cc1)N1CCN(Cc2ccccc2)CC1 (3D coordinates assigned)
O=C(c1ccc(CNS(=O)(=O)c2ccc([N+](=O)[O-])cc2)cc1)N1CCN(Cc2ccccc2)CC1 (nonaromatic ring conformer: 77.07232306265202 kcal/mol)

>  <smiles>  (3) 
O=C(c1ccc(CNS(=O)(=O)c2ccc([N+](=O)[O-])cc2)cc1)N1CCN(Cc2ccccc2)CC1

>  <score_type>  (3) 
oracle

>  <origin>  (3) 
adg

>  <m_score__min__energy>  (3) 
-9.7400000000000002

>  <m_primary>  (3) 
energy

$$$$
3:0
     RDKit          3D

 58 61  0  0  0  0  0  0  0  0999 V2000
   57.3770   27.2540   46.7260 O   0  0  0  0  0  0  0  0  0  0  0  0
   56.4270   27.1480   45.9040 C   0  0  0  0  0  0  0  0  0  0  0  0
   55.9150   28.3140   45.2460 N   0  0  0  0  0  0  0  0  0  0  0  0
   56.6440   29.0470   44.2170 C   0  0  0  0  0  0  0  0  0  0  0  0
   57.3860   30.2040   44.8280 C   0  0  0  0  0  0  0  0  0  0  0  0
   57.8760   30.1100   46.1380 C   0  0  0  0  0  0  0  0  0  0  0  0
   58.5590   31.1850   46.7150 C   0  0  0  0  0  0  0  0  0  0  0  0
   58.7620   32.3650   45.9890 C   0  0  0  0  0  0  0  0  0  0  0  0
   59.6670   33.7030   46.6990 S   0  0  0  0  0  0  0  0  0  0  0  0
   60.5570   34.3120   45.6500 O   0  0  0  0  0  0  0  0  0  0  0  0
   58.7050   34.7610   47.1640 O   0  0  0  0  0  0  0  0  0  0  0  0
   60.6370   33.1720   48.0540 N   0  0  0  0  0  0  0  0  0  0  0  0
   61.3100   34.3250   48.6920 C   0  0  0  0  0  0  0  0  0  0  0  0
   62.4840   33.8700   49.5620 C   0  0  0  0  0  0  0  0  0  0  0  0
   63.5810   33.2220   48.6850 C   0  0  0  0  0  0  0  0  0  0  0  0
   64.5610   32.3430   49.5010 C   0  0  0  0  0  0  0  0  0  0  0  0
   65.5700   33.1160   50.3220 C   0  0  0  0  0  0  0  0  0  0  0  0
   66.9480   32.9050   50.1370 C   0  0  0  0  0  0  0  0  0  0  0  0
   67.8810   33.6210   50.8910 C   0  0  0  0  0  0  0  0  0  0  0  0
   67.4470   34.5430   51.8480 C   0  0  0  0  0  0  0  0  0  0  0  0
   66.0810   34.7430   52.0560 C   0  0  0  0  0  0  0  0  0  0  0  0
   65.1450   34.0290   51.3030 C   0  0  0  0  0  0  0  0  0  0  0  0
   62.9900   32.5050   47.4440 C   0  0  0  0  0  0  0  0  0  0  0  0
   61.5380   32.0540   47.6800 C   0  0  0  0  0  0  0  0  0  0  0  0
   58.2570   32.4680   44.6850 C   0  0  0  0  0  0  0  0  0  0  0  0
   57.5730   31.3940   44.1070 C   0  0  0  0  0  0  0  0  0  0  0  0
   55.8490   25.8200   45.6260 C   0  0  0  0  0  0  0  0  0  0  0  0
   56.6650   24.7200   45.3130 C   0  0  0  0  0  0  0  0  0  0  0  0
   56.0770   23.4810   45.0540 C   0  0  0  0  0  0  0  0  0  0  0  0
   54.6890   23.3420   45.1100 C   0  0  0  0  0  0  0  0  0  0  0  0
   53.9050   24.4560   45.4260 C   0  0  0  0  0  0  0  0  0  0  0  0
   52.6520   24.3520   45.4840 O   0  0  0  0  0  0  0  0  0  0  0  0
   54.4970   25.6560   45.6720 N   0  0  0  0  0  0  0  0  0  0  0  0
   57.3626   28.3713   43.7302 H   0  0  0  0  0  0  0  0  0  0  0  0
   55.9278   29.4319   43.4761 H   0  0  0  0  0  0  0  0  0  0  0  0
   57.7224   29.1860   46.7148 H   0  0  0  0  0  0  0  0  0  0  0  0
   58.9387   31.1033   47.7442 H   0  0  0  0  0  0  0  0  0  0  0  0
   61.6848   35.0000   47.9085 H   0  0  0  0  0  0  0  0  0  0  0  0
   60.5812   34.8417   49.3338 H   0  0  0  0  0  0  0  0  0  0  0  0
   62.9055   34.7400   50.0869 H   0  0  0  0  0  0  0  0  0  0  0  0
   62.1238   33.1290   50.2909 H   0  0  0  0  0  0  0  0  0  0  0  0
   64.1966   34.0438   48.2905 H   0  0  0  0  0  0  0  0  0  0  0  0
   63.9705   31.7162   50.1854 H   0  0  0  0  0  0  0  0  0  0  0  0
   65.1381   31.7592   48.7688 H   0  0  0  0  0  0  0  0  0  0  0  0
   67.2935   32.1714   49.3937 H   0  0  0  0  0  0  0  0  0  0  0  0
   68.9573   33.4593   50.7316 H   0  0  0  0  0  0  0  0  0  0  0  0
   68.1819   35.1110   52.4373 H   0  0  0  0  0  0  0  0  0  0  0  0
   65.7409   35.4639   52.8140 H   0  0  0  0  0  0  0  0  0  0  0  0
   64.0700   34.1821   51.4788 H   0  0  0  0  0  0  0  0  0  0  0  0
   63.0131   33.1967   46.5890 H   0  0  0  0  0  0  0  0  0  0  0  0
   63.5974   31.6096   47.2459 H   0  0  0  0  0  0  0  0  0  0  0  0
   61.1595   31.5930   46.7557 H   0  0  0  0  0  0  0  0  0  0  0  0
   61.5466   31.3435   48.5197 H   0  0  0  0  0  0  0  0  0  0  0  0
   58.3995   33.3975   44.1143 H   0  0  0  0  0  0  0  0  0  0  0  0
   57.1799   31.4819   43.0834 H   0  0  0  0  0  0  0  0  0  0  0  0
   57.7583   24.8343   45.2724 H   0  0  0  0  0  0  0  0  0  0  0  0
   56.7071   22.6142   44.8058 H   0  0  0  0  0  0  0  0  0  0  0  0
   54.2181   22.3686   44.9081 H   0  0  0  0  0  0  0  0  0  0  0  0
  1  2  2  0
  2  3  1  0
  3  4  1  0
  4  5  1  0
  5  6  2  0
  6  7  1  0
  7  8  2  0
  8  9  1  0
  9 10  2  0
  9 11  2  0
  9 12  1  0
 12 13  1  0
 13 14  1  0
 14 15  1  0
 15 16  1  0
 16 17  1  0
 17 18  2  0
 18 19  1  0
 19 20  2  0
 20 21  1  0
 21 22  2  0
 15 23  1  0
 23 24  1  0
  8 25  1  0
 25 26  2  0
  2 27  1  0
 27 28  2  0
 28 29  1  0
 29 30  2  0
 30 31  1  0
 31 32  2  0
 31 33  1  0
 26  5  1  0
 33 27  1  0
 24 12  1  0
 22 17  1  0
  4 34  1  0
  4 35  1  0
  6 36  1  0
  7 37  1  0
 13 38  1  0
 13 39  1  0
 14 40  1  0
 14 41  1  0
 15 42  1  0
 16 43  1  0
 16 44  1  0
 18 45  1  0
 19 46  1  0
 20 47  1  0
 21 48  1  0
 22 49  1  0
 23 50  1  0
 23 51  1  0
 24 52  1  0
 24 53  1  0
 25 54  1  0
 26 55  1  0
 28 56  1  0
 29 57  1  0
 30 58  1  0
M  CHG  2   3  -1  33  -1
M  END
>  <UniqueID>  (4) 
4

>  <SMILES>  (4) 
O=C([N-]Cc1ccc(S(=O)(=O)N2CCC(Cc3ccccc3)CC2)cc1)c1cccc(=O)[n-]1

>  <Energy>  (4) 
65.32198013790503

>  <Genealogy>  (4) 
O=C([N-]Cc1ccc(S(=O)(=O)N2CCC(Cc3ccccc3)CC2)cc1)c1cccc(=O)[n-]1 (protonated)
O=C([N-]Cc1ccc(S(=O)(=O)N2CCC(Cc3ccccc3)CC2)cc1)c1cccc(=O)[n-]1 (3D coordinates assigned)
O=C([N-]Cc1ccc(S(=O)(=O)N2CCC(Cc3ccccc3)CC2)cc1)c1cccc(=O)[n-]1 (nonaromatic ring conformer: 65.32198013790503 kcal/mol)

>  <smiles>  (4) 
O=C(NCc1ccc(S(=O)(=O)N2CCC(Cc3ccccc3)CC2)cc1)c1cccc(=O)[nH]1

>  <score_type>  (4) 
oracle

>  <origin>  (4) 
adg

>  <m_score__min__energy>  (4) 
-14.210000000000001

>  <m_primary>  (4) 
energy

$$$$
4:0
     RDKit          3D

 72 74  0  0  0  0  0  0  0  0999 V2000
   58.0990   33.3290   52.8000 C   0  0  0  0  0  0  0  0  0  0  0  0
   58.6900   32.1240   52.0830 C   0  0  0  0  0  0  0  0  0  0  0  0
   57.9360   30.9190   51.9750 C   0  0  0  0  0  0  0  0  0  0  0  0
   56.5350   30.7800   52.5780 C   0  0  1  0  0  0  0  0  0  0  0  0
   55.6130   31.6810   52.0090 O   0  0  0  0  0  0  0  0  0  0  0  0
   56.0500   29.3870   52.4330 N   0  0  0  0  0  0  0  0  0  0  0  0
   54.5800   29.3090   52.3650 C   0  0  0  0  0  0  0  0  0  0  0  0
   56.5480   28.5410   53.5310 C   0  0  0  0  0  0  0  0  0  0  0  0
   58.5280   29.8150   51.3470 C   0  0  0  0  0  0  0  0  0  0  0  0
   59.8090   29.8920   50.8130 C   0  0  0  0  0  0  0  0  0  0  0  0
   60.4260   28.6660   50.1730 C   0  0  0  0  0  0  0  0  0  0  0  0
   60.5770   28.8100   48.6820 C   0  0  0  0  0  0  0  0  0  0  0  0
   60.2090   27.8840   47.9050 O   0  0  0  0  0  0  0  0  0  0  0  0
   61.1560   30.0050   48.1450 N   0  0  0  0  0  0  0  0  0  0  0  0
   61.3250   30.1890   46.7050 C   0  0  0  0  0  0  0  0  0  0  0  0
   59.9980   30.1130   45.9990 C   0  0  0  0  0  0  0  0  0  0  0  0
   59.0910   31.1800   46.0780 C   0  0  0  0  0  0  0  0  0  0  0  0
   57.8730   31.1220   45.3950 C   0  0  0  0  0  0  0  0  0  0  0  0
   57.5560   30.0060   44.6060 C   0  0  0  0  0  0  0  0  0  0  0  0
   56.2290   29.9280   43.8950 C   0  0  0  0  0  0  0  0  0  0  0  0
   55.1430   29.6700   44.8380 N   0  0  0  0  0  0  0  0  0  0  0  0
   58.4650   28.9400   44.5240 C   0  0  0  0  0  0  0  0  0  0  0  0
   59.6820   28.9970   45.2070 C   0  0  0  0  0  0  0  0  0  0  0  0
   60.5370   31.0800   50.9620 C   0  0  0  0  0  0  0  0  0  0  0  0
   61.7100   31.1380   50.4950 O   0  0  0  0  0  0  0  0  0  0  0  0
   59.9950   32.1610   51.6160 N   0  0  0  0  0  0  0  0  0  0  0  0
   60.8420   33.3650   51.7890 C   0  0  0  0  0  0  0  0  0  0  0  0
   60.9480   34.1430   50.4690 C   0  0  0  0  0  0  0  0  0  0  0  0
   59.6760   34.0180   49.6220 C   0  0  0  0  0  0  0  0  0  0  0  0
   59.9820   34.0990   48.1930 N   0  0  0  0  0  0  0  0  0  0  0  0
   59.2590   34.9280   47.2450 C   0  0  0  0  0  0  0  0  0  0  0  0
   59.8770   34.6230   45.8660 C   0  0  0  0  0  0  0  0  0  0  0  0
   61.1510   33.7960   46.1080 C   0  0  0  0  0  0  0  0  0  0  0  0
   61.0850   33.4900   47.5510 C   0  0  0  0  0  0  0  0  0  0  0  0
   61.9350   32.7840   48.1550 O   0  0  0  0  0  0  0  0  0  0  0  0
   58.1718   33.1806   53.8875 H   0  0  0  0  0  0  0  0  0  0  0  0
   58.6554   34.2342   52.5154 H   0  0  0  0  0  0  0  0  0  0  0  0
   57.0426   33.4432   52.5154 H   0  0  0  0  0  0  0  0  0  0  0  0
   56.6147   31.0302   53.6462 H   0  0  0  0  0  0  0  0  0  0  0  0
   55.9860   31.9650   51.1330 H   0  0  0  0  0  0  0  0  0  0  0  0
   54.1665   29.2871   53.3841 H   0  0  0  0  0  0  0  0  0  0  0  0
   54.1905   30.1877   51.8301 H   0  0  0  0  0  0  0  0  0  0  0  0
   54.2857   28.3940   51.8301 H   0  0  0  0  0  0  0  0  0  0  0  0
   56.2798   28.9967   54.4956 H   0  0  0  0  0  0  0  0  0  0  0  0
   56.0941   27.5416   53.4587 H   0  0  0  0  0  0  0  0  0  0  0  0
   57.6421   28.4529   53.4587 H   0  0  0  0  0  0  0  0  0  0  0  0
   57.9689   28.8704   51.2753 H   0  0  0  0  0  0  0  0  0  0  0  0
   61.4199   28.4998   50.6141 H   0  0  0  0  0  0  0  0  0  0  0  0
   59.7537   27.8159   50.3610 H   0  0  0  0  0  0  0  0  0  0  0  0
   61.4580   30.7550   48.8080 H   0  0  0  0  0  0  0  0  0  0  0  0
   61.7777   31.1739   46.5176 H   0  0  0  0  0  0  0  0  0  0  0  0
   61.9760   29.3900   46.3207 H   0  0  0  0  0  0  0  0  0  0  0  0
   59.3394   32.0664   46.6802 H   0  0  0  0  0  0  0  0  0  0  0  0
   57.1595   31.9553   45.4764 H   0  0  0  0  0  0  0  0  0  0  0  0
   56.0399   30.8820   43.3810 H   0  0  0  0  0  0  0  0  0  0  0  0
   56.2679   29.1008   43.1710 H   0  0  0  0  0  0  0  0  0  0  0  0
   54.4230   30.4230   44.7380 H   0  0  0  0  0  0  0  0  0  0  0  0
   55.5220   29.7200   45.8120 H   0  0  0  0  0  0  0  0  0  0  0  0
   58.2179   28.0553   43.9189 H   0  0  0  0  0  0  0  0  0  0  0  0
   60.3960   28.1643   45.1243 H   0  0  0  0  0  0  0  0  0  0  0  0
   60.3958   34.0141   52.5568 H   0  0  0  0  0  0  0  0  0  0  0  0
   61.8496   33.0495   52.0976 H   0  0  0  0  0  0  0  0  0  0  0  0
   61.1198   35.2055   50.6963 H   0  0  0  0  0  0  0  0  0  0  0  0
   61.7825   33.7184   49.8916 H   0  0  0  0  0  0  0  0  0  0  0  0
   59.1984   33.0497   49.8324 H   0  0  0  0  0  0  0  0  0  0  0  0
   59.0016   34.8474   49.8815 H   0  0  0  0  0  0  0  0  0  0  0  0
   58.1891   34.6726   47.2505 H   0  0  0  0  0  0  0  0  0  0  0  0
   59.3378   35.9957   47.4975 H   0  0  0  0  0  0  0  0  0  0  0  0
   59.1662   34.0487   45.2537 H   0  0  0  0  0  0  0  0  0  0  0  0
   60.1134   35.5545   45.3308 H   0  0  0  0  0  0  0  0  0  0  0  0
   61.1426   32.8739   45.5084 H   0  0  0  0  0  0  0  0  0  0  0  0
   62.0709   34.3265   45.8210 H   0  0  0  0  0  0  0  0  0  0  0  0
  1  2  1  0
  2  3  2  0
  3  4  1  0
  4  5  1  0
  4  6  1  0
  6  7  1  0
  6  8  1  0
  3  9  1  0
  9 10  2  0
 10 11  1  0
 11 12  1  0
 12 13  2  0
 12 14  1  0
 14 15  1  0
 15 16  1  0
 16 17  2  0
 17 18  1  0
 18 19  2  0
 19 20  1  0
 20 21  1  0
 19 22  1  0
 22 23  2  0
 10 24  1  0
 24 25  2  0
 24 26  1  0
 26 27  1  0
 27 28  1  0
 28 29  1  0
 29 30  1  0
 30 31  1  0
 31 32  1  0
 32 33  1  0
 33 34  1  0
 34 35  2  0
 26  2  1  0
 34 30  1  0
 23 16  1  0
  1 36  1  0
  1 37  1  0
  1 38  1  0
  4 39  1  1
  5 40  1  0
  7 41  1  0
  7 42  1  0
  7 43  1  0
  8 44  1  0
  8 45  1  0
  8 46  1  0
  9 47  1  0
 11 48  1  0
 11 49  1  0
 14 50  1  0
 15 51  1  0
 15 52  1  0
 17 53  1  0
 18 54  1  0
 20 55  1  0
 20 56  1  0
 21 57  1  0
 21 58  1  0
 22 59  1  0
 23 60  1  0
 27 61  1  0
 27 62  1  0
 28 63  1  0
 28 64  1  0
 29 65  1  0
 29 66  1  0
 31 67  1  0
 31 68  1  0
 32 69  1  0
 32 70  1  0
 33 71  1  0
 33 72  1  0
M  END
>  <UniqueID>  (5) 
5

>  <SMILES>  (5) 
Cc1c([C@@H](O)N(C)C)cc(CC(=O)NCc2ccc(CN)cc2)c(=O)n1CCCN1CCCC1=O

>  <Energy>  (5) 
81.06464865536688

>  <Genealogy>  (5) 
Cc1c([C@@H](O)N(C)C)cc(CC(=O)NCc2ccc(CN)cc2)c(=O)n1CCCN1CCCC1=O (chirality)
Cc1c([C@@H](O)N(C)C)cc(CC(=O)NCc2ccc(CN)cc2)c(=O)n1CCCN1CCCC1=O (3D coordinates assigned)
Cc1c([C@@H](O)N(C)C)cc(CC(=O)NCc2ccc(CN)cc2)c(=O)n1CCCN1CCCC1=O (nonaromatic ring conformer: 81.06464865536688 kcal/mol)

>  <smiles>  (5) 
Cc1c(C(O)N(C)C)cc(CC(=O)NCc2ccc(CN)cc2)c(=O)n1CCCN1CCCC1=O

>  <score_type>  (5) 
oracle

>  <origin>  (5) 
adg

>  <m_score__min__energy>  (5) 
-9.0299999999999994

>  <m_primary>  (5) 
energy

$$$$
5:0
     RDKit          3D

 72 76  0  0  0  0  0  0  0  0999 V2000
   61.6460   30.6920   48.0630 O   0  0  0  0  0  0  0  0  0  0  0  0
   60.3880   30.7550   48.0600 C   0  0  0  0  0  0  0  0  0  0  0  0
   59.6320   30.0770   49.1260 C   0  0  0  0  0  0  0  0  0  0  0  0
   58.5040   30.6020   49.6280 C   0  0  0  0  0  0  0  0  0  0  0  0
   58.4350   31.3660   50.8960 C   0  0  0  0  0  0  0  0  0  0  0  0
   57.5240   30.9270   51.8730 C   0  0  0  0  0  0  0  0  0  0  0  0
   57.4760   31.5460   53.1240 C   0  0  0  0  0  0  0  0  0  0  0  0
   58.3510   32.5880   53.4280 C   0  0  0  0  0  0  0  0  0  0  0  0
   59.2820   33.0150   52.4810 C   0  0  0  0  0  0  0  0  0  0  0  0
   59.3340   32.4210   51.2040 C   0  0  0  0  0  0  0  0  0  0  0  0
   60.2470   32.8460   50.2220 O   0  0  0  0  0  0  0  0  0  0  0  0
   60.4180   34.1780   49.7360 C   0  0  0  0  0  0  0  0  0  0  0  0
   60.1950   34.1840   48.2460 C   0  0  0  0  0  0  0  0  0  0  0  0
   58.9060   34.4290   47.7470 C   0  0  0  0  0  0  0  0  0  0  0  0
   58.6680   34.4630   46.3720 C   0  0  0  0  0  0  0  0  0  0  0  0
   59.7320   34.2900   45.4760 C   0  0  0  0  0  0  0  0  0  0  0  0
   61.0230   34.0440   45.9500 C   0  0  0  0  0  0  0  0  0  0  0  0
   61.2680   33.9880   47.3340 C   0  0  0  0  0  0  0  0  0  0  0  0
   62.6360   33.7090   47.8240 C   0  0  0  0  0  0  0  0  0  0  0  0
   63.6020   34.2150   47.2000 O   0  0  0  0  0  0  0  0  0  0  0  0
   62.9070   32.9560   49.0350 N   0  0  0  0  0  0  0  0  0  0  0  0
   63.9970   31.9800   48.8060 C   0  0  0  0  0  0  0  0  0  0  0  0
   65.0620   32.3270   49.7830 C   0  0  0  0  0  0  0  0  0  0  0  0
   64.6870   33.3250   50.5570 C   0  0  0  0  0  0  0  0  0  0  0  0
   63.3070   33.7680   50.2170 C   0  0  0  0  0  0  0  0  0  0  0  0
   59.7000   31.4630   47.0220 N   0  0  0  0  0  0  0  0  0  0  0  0
   58.8820   30.8100   46.0520 C   0  0  0  0  0  0  0  0  0  0  0  0
   57.8700   31.5160   45.3950 C   0  0  0  0  0  0  0  0  0  0  0  0
   57.0190   30.8530   44.5070 C   0  0  0  0  0  0  0  0  0  0  0  0
   57.1910   29.4860   44.2650 C   0  0  0  0  0  0  0  0  0  0  0  0
   58.2130   28.7740   44.9090 C   0  0  0  0  0  0  0  0  0  0  0  0
   58.3880   27.0400   44.6410 S   0  0  0  0  0  0  0  0  0  0  0  0
   58.4580   26.7680   43.1640 O   0  0  0  0  0  0  0  0  0  0  0  0
   59.6820   26.5840   45.2580 O   0  0  0  0  0  0  0  0  0  0  0  0
   57.0680   26.1270   45.3270 N   0  0  0  0  0  0  0  0  0  0  0  0
   56.7800   24.9330   44.5190 C   0  0  0  0  0  0  0  0  0  0  0  0
   55.5480   24.2100   45.0980 C   0  0  0  0  0  0  0  0  0  0  0  0
   55.1820   24.7010   46.3780 O   0  0  0  0  0  0  0  0  0  0  0  0
   56.3090   24.7380   47.2350 C   0  0  0  0  0  0  0  0  0  0  0  0
   57.3710   25.7340   46.7150 C   0  0  0  0  0  0  0  0  0  0  0  0
   59.0580   29.4430   45.8050 C   0  0  0  0  0  0  0  0  0  0  0  0
   60.0004   29.1182   49.5198 H   0  0  0  0  0  0  0  0  0  0  0  0
   57.5716   30.4562   49.0628 H   0  0  0  0  0  0  0  0  0  0  0  0
   56.8449   30.0908   51.6506 H   0  0  0  0  0  0  0  0  0  0  0  0
   56.7442   31.2097   53.8732 H   0  0  0  0  0  0  0  0  0  0  0  0
   58.3072   33.0732   54.4142 H   0  0  0  0  0  0  0  0  0  0  0  0
   59.9831   33.8241   52.7337 H   0  0  0  0  0  0  0  0  0  0  0  0
   59.6902   34.8448   50.2214 H   0  0  0  0  0  0  0  0  0  0  0  0
   61.4349   34.5308   49.9630 H   0  0  0  0  0  0  0  0  0  0  0  0
   58.0743   34.5960   48.4473 H   0  0  0  0  0  0  0  0  0  0  0  0
   57.6483   34.6251   45.9926 H   0  0  0  0  0  0  0  0  0  0  0  0
   59.5493   34.3483   44.3928 H   0  0  0  0  0  0  0  0  0  0  0  0
   61.8493   33.8938   45.2396 H   0  0  0  0  0  0  0  0  0  0  0  0
   62.0300   32.4420   49.2730 H   0  0  0  0  0  0  0  0  0  0  0  0
   63.6366   30.9553   48.9798 H   0  0  0  0  0  0  0  0  0  0  0  0
   64.3674   32.0216   47.7711 H   0  0  0  0  0  0  0  0  0  0  0  0
   66.0347   31.8178   49.8509 H   0  0  0  0  0  0  0  0  0  0  0  0
   65.3091   33.7705   51.3472 H   0  0  0  0  0  0  0  0  0  0  0  0
   62.6251   33.5816   51.0597 H   0  0  0  0  0  0  0  0  0  0  0  0
   63.2661   34.8463   50.0034 H   0  0  0  0  0  0  0  0  0  0  0  0
   57.7436   32.5934   45.5771 H   0  0  0  0  0  0  0  0  0  0  0  0
   56.2148   31.4053   43.9988 H   0  0  0  0  0  0  0  0  0  0  0  0
   56.5202   28.9663   43.5650 H   0  0  0  0  0  0  0  0  0  0  0  0
   56.5756   25.2328   43.4806 H   0  0  0  0  0  0  0  0  0  0  0  0
   57.6472   24.2566   44.5397 H   0  0  0  0  0  0  0  0  0  0  0  0
   54.7009   24.3509   44.4106 H   0  0  0  0  0  0  0  0  0  0  0  0
   55.8060   23.1465   45.2090 H   0  0  0  0  0  0  0  0  0  0  0  0
   55.9864   25.0488   48.2396 H   0  0  0  0  0  0  0  0  0  0  0  0
   56.7573   23.7340   47.2664 H   0  0  0  0  0  0  0  0  0  0  0  0
   57.3720   26.6296   47.3537 H   0  0  0  0  0  0  0  0  0  0  0  0
   58.3586   25.2504   46.7423 H   0  0  0  0  0  0  0  0  0  0  0  0
   59.8618   28.8925   46.3157 H   0  0  0  0  0  0  0  0  0  0  0  0
  1  2  2  0
  2  3  1  0
  3  4  2  3
  4  5  1  0
  5  6  2  0
  6  7  1  0
  7  8  2  0
  8  9  1  0
  9 10  2  0
 10 11  1  0
 11 12  1  0
 12 13  1  0
 13 14  2  0
 14 15  1  0
 15 16  2  0
 16 17  1  0
 17 18  2  0
 18 19  1  0
 19 20  2  0
 19 21  1  0
 21 22  1  0
 22 23  1  0
 23 24  2  0
 24 25  1  0
  2 26  1  0
 26 27  1  0
 27 28  2  0
 28 29  1  0
 29 30  2  0
 30 31  1  0
 31 32  1  0
 32 33  2  0
 32 34  2  0
 32 35  1  0
 35 36  1  0
 36 37  1  0
 37 38  1  0
 38 39  1  0
 39 40  1  0
 31 41  2  0
 10  5  1  0
 18 13  1  0
 25 21  1  0
 41 27  1  0
 40 35  1  0
  3 42  1  0
  4 43  1  0
  6 44  1  0
  7 45  1  0
  8 46  1  0
  9 47  1  0
 12 48  1  0
 12 49  1  0
 14 50  1  0
 15 51  1  0
 16 52  1  0
 17 53  1  0
 21 54  1  0
 22 55  1  0
 22 56  1  0
 23 57  1  0
 24 58  1  0
 25 59  1  0
 25 60  1  0
 28 61  1  0
 29 62  1  0
 30 63  1  0
 36 64  1  0
 36 65  1  0
 37 66  1  0
 37 67  1  0
 39 68  1  0
 39 69  1  0
 40 70  1  0
 40 71  1  0
 41 72  1  0
M  CHG  2  21   1  26  -1
M  END
>  <UniqueID>  (6) 
6

>  <SMILES>  (6) 
O=C(C=Cc1ccccc1OCc1ccccc1C(=O)[NH+]1CC=CC1)[N-]c1cccc(S(=O)(=O)N2CCOCC2)c1

>  <Energy>  (6) 
115.54331806410686

>  <Genealogy>  (6) 
O=C(C=Cc1ccccc1OCc1ccccc1C(=O)[NH+]1CC=CC1)[N-]c1cccc(S(=O)(=O)N2CCOCC2)c1 (protonated)
O=C(C=Cc1ccccc1OCc1ccccc1C(=O)[NH+]1CC=CC1)[N-]c1cccc(S(=O)(=O)N2CCOCC2)c1 (3D coordinates assigned)
O=C(C=Cc1ccccc1OCc1ccccc1C(=O)[NH+]1CC=CC1)[N-]c1cccc(S(=O)(=O)N2CCOCC2)c1 (nonaromatic ring conformer: 115.54331806410686 kcal/mol)

>  <smiles>  (6) 
O=C(C=Cc1ccccc1OCc1ccccc1C(=O)N1CC=CC1)Nc1cccc(S(=O)(=O)N2CCOCC2)c1

>  <score_type>  (6) 
oracle

>  <origin>  (6) 
adg

>  <m_score__min__energy>  (6) 
-11.92

>  <m_primary>  (6) 
energy

$$$$
6:0
     RDKit          3D

 26 27  0  0  0  0  0  0  0  0999 V2000
   57.6460   31.8450   50.5020 N   0  0  0  0  0  0  0  0  0  0  0  0
   57.4680   31.8460   52.2210 S   0  0  0  0  0  0  0  0  0  0  0  0
   58.8230   31.7890   52.8700 O   0  0  0  0  0  0  0  0  0  0  0  0
   56.7790   33.1100   52.6530 O   0  0  0  0  0  0  0  0  0  0  0  0
   56.5150   30.4500   52.7120 C   0  0  0  0  0  0  0  0  0  0  0  0
   57.0980   29.4350   53.4810 C   0  0  0  0  0  0  0  0  0  0  0  0
   56.3500   28.3140   53.8470 C   0  0  0  0  0  0  0  0  0  0  0  0
   55.0140   28.2030   53.4540 C   0  0  0  0  0  0  0  0  0  0  0  0
   54.4090   29.2270   52.7020 C   0  0  0  0  0  0  0  0  0  0  0  0
   53.0490   29.1340   52.2420 N   0  0  0  0  0  0  0  0  0  0  0  0
   52.4170   29.9900   51.4930 C   0  0  0  0  0  0  0  0  0  0  0  0
   52.0570   31.1880   52.0180 N   0  0  0  0  0  0  0  0  0  0  0  0
   51.3750   32.0910   51.2680 C   0  0  0  0  0  0  0  0  0  0  0  0
   51.0550   33.2010   51.7700 O   0  0  0  0  0  0  0  0  0  0  0  0
   51.0420   31.7940   49.9830 N   0  0  0  0  0  0  0  0  0  0  0  0
   50.3490   32.7070   49.2190 O   0  0  0  0  0  0  0  0  0  0  0  0
   51.3900   30.5880   49.4570 C   0  0  0  0  0  0  0  0  0  0  0  0
   51.0830   30.2980   48.2710 O   0  0  0  0  0  0  0  0  0  0  0  0
   52.0710   29.6910   50.2130 N   0  0  0  0  0  0  0  0  0  0  0  0
   55.1760   30.3320   52.3120 C   0  0  0  0  0  0  0  0  0  0  0  0
   56.8400   32.3800   50.1110 H   0  0  0  0  0  0  0  0  0  0  0  0
   58.5070   32.3930   50.2840 H   0  0  0  0  0  0  0  0  0  0  0  0
   58.1480   29.5210   53.7975 H   0  0  0  0  0  0  0  0  0  0  0  0
   56.8138   27.5165   54.4461 H   0  0  0  0  0  0  0  0  0  0  0  0
   54.4328   27.3118   53.7334 H   0  0  0  0  0  0  0  0  0  0  0  0
   54.7237   31.1151   51.6857 H   0  0  0  0  0  0  0  0  0  0  0  0
  1  2  1  0
  2  3  2  0
  2  4  2  0
  2  5  1  0
  5  6  2  0
  6  7  1  0
  7  8  2  0
  8  9  1  0
  9 10  1  0
 10 11  2  3
 11 12  1  0
 12 13  1  0
 13 14  2  0
 13 15  1  0
 15 16  1  0
 15 17  1  0
 17 18  2  0
 17 19  1  0
  9 20  2  0
 20  5  1  0
 19 11  1  0
  1 21  1  0
  1 22  1  0
  6 23  1  0
  7 24  1  0
  8 25  1  0
 20 26  1  0
M  CHG  3  12  -1  16  -1  19  -1
M  END
>  <UniqueID>  (7) 
7

>  <SMILES>  (7) 
NS(=O)(=O)c1cccc(N=c2[n-]c(=O)n([O-])c(=O)[n-]2)c1

>  <Energy>  (7) 
33.32098777901266

>  <Genealogy>  (7) 
NS(=O)(=O)c1cccc(N=c2[n-]c(=O)n([O-])c(=O)[n-]2)c1 (protonated)
NS(=O)(=O)c1cccc(N=c2[n-]c(=O)n([O-])c(=O)[n-]2)c1 (3D coordinates assigned)
NS(=O)(=O)c1cccc(N=c2[n-]c(=O)n([O-])c(=O)[n-]2)c1 (optimized conformer: 33.32098777901266 kcal/mol)

>  <smiles>  (7) 
NS(=O)(=O)c1cccc(N=c2[nH]c(=O)n(O)c(=O)[nH]2)c1

>  <score_type>  (7) 
oracle

>  <origin>  (7) 
adg

>  <m_score__min__energy>  (7) 
-14.6

>  <m_primary>  (7) 
energy

$$$$
7:0
     RDKit          3D

 42 44  0  0  0  0  0  0  0  0999 V2000
   55.8760   27.1910   45.6370 O   0  0  0  0  0  0  0  0  0  0  0  0
   56.5750   28.2000   45.3620 C   0  0  0  0  0  0  0  0  0  0  0  0
   55.9220   29.3880   44.8850 N   0  0  0  0  0  0  0  0  0  0  0  0
   56.5070   30.4320   44.3750 C   0  0  0  0  0  0  0  0  0  0  0  0
   56.7900   30.4590   43.0050 C   0  0  0  0  0  0  0  0  0  0  0  0
   57.4210   31.5780   42.4550 C   0  0  0  0  0  0  0  0  0  0  0  0
   57.7710   32.6510   43.2760 C   0  0  0  0  0  0  0  0  0  0  0  0
   57.4870   32.5870   44.6410 C   0  0  0  0  0  0  0  0  0  0  0  0
   56.8720   31.4890   45.1570 N   0  0  0  0  0  0  0  0  0  0  0  0
   57.9960   28.1280   45.5400 N   0  0  0  0  0  0  0  0  0  0  0  0
   58.7860   28.9760   46.3870 C   0  0  0  0  0  0  0  0  0  0  0  0
   59.5160   30.0190   45.8080 C   0  0  0  0  0  0  0  0  0  0  0  0
   60.2910   30.8660   46.6050 C   0  0  0  0  0  0  0  0  0  0  0  0
   60.3640   30.6740   47.9930 C   0  0  0  0  0  0  0  0  0  0  0  0
   61.1760   31.5630   48.7820 N   0  0  0  0  0  0  0  0  0  0  0  0
   60.6740   33.1450   49.2860 S   0  0  0  0  0  0  0  0  0  0  0  0
   60.1390   33.8920   48.0960 O   0  0  0  0  0  0  0  0  0  0  0  0
   61.8580   33.8880   49.8380 O   0  0  0  0  0  0  0  0  0  0  0  0
   59.4470   33.0210   50.5440 C   0  0  0  0  0  0  0  0  0  0  0  0
   59.2670   34.0650   51.4610 C   0  0  0  0  0  0  0  0  0  0  0  0
   58.2840   33.9680   52.4470 C   0  0  0  0  0  0  0  0  0  0  0  0
   57.4760   32.8300   52.5250 C   0  0  0  0  0  0  0  0  0  0  0  0
   57.6470   31.7720   51.6160 C   0  0  0  0  0  0  0  0  0  0  0  0
   56.7900   30.5690   51.6990 C   0  0  0  0  0  0  0  0  0  0  0  0
   55.5370   30.6690   51.6310 O   0  0  0  0  0  0  0  0  0  0  0  0
   57.3580   29.3090   51.8580 O   0  0  0  0  0  0  0  0  0  0  0  0
   58.6420   31.8760   50.6270 C   0  0  0  0  0  0  0  0  0  0  0  0
   59.6420   29.6120   48.5710 C   0  0  0  0  0  0  0  0  0  0  0  0
   58.8690   28.7650   47.7730 C   0  0  0  0  0  0  0  0  0  0  0  0
   56.5179   29.6061   42.3659 H   0  0  0  0  0  0  0  0  0  0  0  0
   57.6413   31.6130   41.3778 H   0  0  0  0  0  0  0  0  0  0  0  0
   58.2653   33.5375   42.8519 H   0  0  0  0  0  0  0  0  0  0  0  0
   57.7605   33.4246   45.2995 H   0  0  0  0  0  0  0  0  0  0  0  0
   59.4800   30.1735   44.7195 H   0  0  0  0  0  0  0  0  0  0  0  0
   60.8494   31.6915   46.1394 H   0  0  0  0  0  0  0  0  0  0  0  0
   62.0990   31.2250   49.1370 H   0  0  0  0  0  0  0  0  0  0  0  0
   59.9011   34.9620   51.4037 H   0  0  0  0  0  0  0  0  0  0  0  0
   58.1446   34.7896   53.1650 H   0  0  0  0  0  0  0  0  0  0  0  0
   56.7013   32.7622   53.3030 H   0  0  0  0  0  0  0  0  0  0  0  0
   58.7897   31.0524   49.9130 H   0  0  0  0  0  0  0  0  0  0  0  0
   59.6870   29.4483   49.6578 H   0  0  0  0  0  0  0  0  0  0  0  0
   58.3225   27.9284   48.2327 H   0  0  0  0  0  0  0  0  0  0  0  0
  1  2  2  0
  2  3  1  0
  3  4  2  3
  4  5  1  0
  5  6  2  0
  6  7  1  0
  7  8  2  0
  8  9  1  0
  2 10  1  0
 10 11  1  0
 11 12  2  0
 12 13  1  0
 13 14  2  0
 14 15  1  0
 15 16  1  0
 16 17  2  0
 16 18  2  0
 16 19  1  0
 19 20  2  0
 20 21  1  0
 21 22  2  0
 22 23  1  0
 23 24  1  0
 24 25  2  0
 24 26  1  0
 23 27  2  0
 14 28  1  0
 28 29  2  0
  9  4  1  0
 29 11  1  0
 27 19  1  0
  5 30  1  0
  6 31  1  0
  7 32  1  0
  8 33  1  0
 12 34  1  0
 13 35  1  0
 15 36  1  0
 20 37  1  0
 21 38  1  0
 22 39  1  0
 27 40  1  0
 28 41  1  0
 29 42  1  0
M  CHG  3   9  -1  10  -1  26  -1
M  END
>  <UniqueID>  (8) 
8

>  <SMILES>  (8) 
O=C(N=c1cccc[n-]1)[N-]c1ccc(NS(=O)(=O)c2cccc(C(=O)[O-])c2)cc1

>  <Energy>  (8) 
56.91598239024154

>  <Genealogy>  (8) 
O=C(N=c1cccc[n-]1)[N-]c1ccc(NS(=O)(=O)c2cccc(C(=O)[O-])c2)cc1 (protonated)
O=C(N=c1cccc[n-]1)[N-]c1ccc(NS(=O)(=O)c2cccc(C(=O)[O-])c2)cc1 (3D coordinates assigned)
O=C(N=c1cccc[n-]1)[N-]c1ccc(NS(=O)(=O)c2cccc(C(=O)[O-])c2)cc1 (optimized conformer: 56.91598239024154 kcal/mol)

>  <smiles>  (8) 
O=C(N=c1cccc[nH]1)Nc1ccc(NS(=O)(=O)c2cccc(C(=O)O)c2)cc1

>  <score_type>  (8) 
oracle

>  <origin>  (8) 
adg

>  <m_score__min__energy>  (8) 
-13.43

>  <m_primary>  (8) 
energy

$$$$
8:0
     RDKit          3D

 32 34  0  0  0  0  0  0  0  0999 V2000
   59.1750   36.2610   47.3180 H   0  0  0  0  0  0  0  0  0  0  0  0
   59.4970   35.3490   47.0140 O   0  0  0  0  0  0  0  0  0  0  0  0
   59.4280   34.2380   47.8520 C   0  0  0  0  0  0  0  0  0  0  0  0
   58.7730   33.0710   47.4390 C   0  0  0  0  0  0  0  0  0  0  0  0
   58.3051   33.0276   46.4444 H   0  0  0  0  0  0  0  0  0  0  0  0
   58.7120   31.9610   48.2870 C   0  0  0  0  0  0  0  0  0  0  0  0
   58.1861   31.0508   47.9629 H   0  0  0  0  0  0  0  0  0  0  0  0
   59.3220   32.0060   49.5540 C   0  0  0  0  0  0  0  0  0  0  0  0
   59.2810   30.8880   50.4530 N   0  0  0  0  0  0  0  0  0  0  0  0
   58.4470   30.7660   51.6150 C   0  0  0  0  0  0  0  0  0  0  0  0
   58.6190   31.5620   52.5740 O   0  0  0  0  0  0  0  0  0  0  0  0
   57.4120   29.7760   51.7100 N   0  0  0  0  0  0  0  0  0  0  0  0
   56.2260   29.9580   52.2100 C   0  0  0  0  0  0  0  0  0  0  0  0
   55.7950   29.2770   53.2950 N   0  0  0  0  0  0  0  0  0  0  0  0
   54.5150   29.6020   53.6180 C   0  0  0  0  0  0  0  0  0  0  0  0
   53.9867   29.1521   54.4715 H   0  0  0  0  0  0  0  0  0  0  0  0
   53.9250   30.5480   52.7850 C   0  0  0  0  0  0  0  0  0  0  0  0
   52.5120   31.0280   52.8670 C   0  0  0  0  0  0  0  0  0  0  0  0
   51.9249   30.3294   53.4812 H   0  0  0  0  0  0  0  0  0  0  0  0
   52.4964   32.0290   53.3228 H   0  0  0  0  0  0  0  0  0  0  0  0
   51.9170   31.1030   51.4960 C   0  0  0  0  0  0  0  0  0  0  0  0
   52.0380   29.9030   50.3200 S   0  0  0  0  0  0  0  0  0  0  0  0
   51.2310   30.8320   49.1740 C   0  0  0  0  0  0  0  0  0  0  0  0
   50.9840   30.4530   48.0010 O   0  0  0  0  0  0  0  0  0  0  0  0
   50.8750   32.0470   49.6440 N   0  0  0  0  0  0  0  0  0  0  0  0
   51.2650   32.2000   50.9370 C   0  0  0  0  0  0  0  0  0  0  0  0
   51.0250   33.3760   51.6360 O   0  0  0  0  0  0  0  0  0  0  0  0
   55.0270   30.9720   51.5860 S   0  0  0  0  0  0  0  0  0  0  0  0
   59.9550   33.1830   49.9700 C   0  0  0  0  0  0  0  0  0  0  0  0
   60.4078   33.2360   50.9711 H   0  0  0  0  0  0  0  0  0  0  0  0
   60.0150   34.2920   49.1200 C   0  0  0  0  0  0  0  0  0  0  0  0
   60.5252   35.2090   49.4498 H   0  0  0  0  0  0  0  0  0  0  0  0
  1  2  1  0
  2  3  1  0
  3  4  2  0
  4  5  1  0
  4  6  1  0
  6  7  1  0
  6  8  2  0
  8  9  1  0
  9 10  1  0
 10 11  2  0
 10 12  1  0
 12 13  2  0
 13 14  1  0
 14 15  1  0
 15 16  1  0
 15 17  2  0
 17 18  1  0
 18 19  1  0
 18 20  1  0
 18 21  1  0
 21 22  1  0
 22 23  1  0
 23 24  2  0
 23 25  1  0
 25 26  1  0
 26 27  1  0
 17 28  1  0
  8 29  1  0
 29 30  1  0
 29 31  2  0
 31 32  1  0
 31  3  1  0
 28 13  1  0
 26 21  2  0
M  CHG  4   9  -1  14  -1  25  -1  27  -1
M  END
>  <UniqueID>  (9) 
9

>  <SMILES>  (9) 
O=C(/N=c1/[n-]cc(Cc2sc(=O)[n-]c2[O-])s1)[N-]c1ccc(O)cc1

>  <Energy>  (9) 
102.1048328941691

>  <Genealogy>  (9) 
O=C(N=c1[n-]cc(Cc2sc(=O)[n-]c2[O-])s1)[N-]c1ccc(O)cc1 (protonated)
O=C(/N=c1/[n-]cc(Cc2sc(=O)[n-]c2[O-])s1)[N-]c1ccc(O)cc1 (cis-trans isomerization)
O=C(/N=c1/[n-]cc(Cc2sc(=O)[n-]c2[O-])s1)[N-]c1ccc(O)cc1 (3D coordinates assigned)
O=C(/N=c1/[n-]cc(Cc2sc(=O)[n-]c2[O-])s1)[N-]c1ccc(O)cc1 (optimized conformer: 102.1048328941691 kcal/mol)

>  <smiles>  (9) 
O=C(N=c1[nH]cc(Cc2sc(=O)[nH]c2O)s1)Nc1ccc(O)cc1

>  <score_type>  (9) 
oracle

>  <origin>  (9) 
adg

>  <m_score__min__energy>  (9) 
-15.48

>  <m_primary>  (9) 
energy

$$$$
9:0
     RDKit          3D

 27 28  0  0  0  0  0  0  0  0999 V2000
   59.0779   31.2965   48.1648 H   0  0  0  0  0  0  0  0  0  0  0  0
   58.9430   30.4810   47.4390 C   0  0  0  0  0  0  0  0  0  0  0  0
   59.3691   29.4875   47.6425 H   0  0  0  0  0  0  0  0  0  0  0  0
   58.2590   30.6980   46.3060 C   0  0  0  0  0  0  0  0  0  0  0  0
   57.9990   29.7770   45.2880 C   0  0  0  0  0  0  0  0  0  0  0  0
   58.3820   28.4840   45.2480 C   0  0  0  0  0  0  0  0  0  0  0  0
   59.3878   28.2566   44.8651 H   0  0  0  0  0  0  0  0  0  0  0  0
   57.5400   27.3580   45.6840 C   0  0  0  0  0  0  0  0  0  0  0  0
   56.1410   27.4440   45.6290 C   0  0  0  0  0  0  0  0  0  0  0  0
   55.5200   28.6110   45.1980 O   0  0  0  0  0  0  0  0  0  0  0  0
   55.3820   26.3820   46.0040 N   0  0  0  0  0  0  0  0  0  0  0  0
   55.9550   25.2250   46.4240 C   0  0  0  0  0  0  0  0  0  0  0  0
   55.2330   24.2550   46.7700 O   0  0  0  0  0  0  0  0  0  0  0  0
   57.3080   25.1110   46.4660 N   0  0  0  0  0  0  0  0  0  0  0  0
   58.1100   26.1450   46.1010 C   0  0  0  0  0  0  0  0  0  0  0  0
   59.3610   26.0050   46.1450 O   0  0  0  0  0  0  0  0  0  0  0  0
   57.2570   30.5120   44.3530 C   0  0  0  0  0  0  0  0  0  0  0  0
   56.6880   30.0500   43.0470 C   0  0  0  0  0  0  0  0  0  0  0  0
   55.8466   29.3668   43.2348 H   0  0  0  0  0  0  0  0  0  0  0  0
   56.3336   30.9192   42.4735 H   0  0  0  0  0  0  0  0  0  0  0  0
   57.4659   29.5247   42.4735 H   0  0  0  0  0  0  0  0  0  0  0  0
   57.1000   31.7750   44.7940 N   0  0  0  0  0  0  0  0  0  0  0  0
   57.7030   31.8830   45.9660 N   0  0  0  0  0  0  0  0  0  0  0  0
   57.7270   33.1250   46.7340 C   0  0  0  0  0  0  0  0  0  0  0  0
   57.7225   32.8916   47.8089 H   0  0  0  0  0  0  0  0  0  0  0  0
   58.6363   33.6921   46.4858 H   0  0  0  0  0  0  0  0  0  0  0  0
   56.8403   33.7268   46.4858 H   0  0  0  0  0  0  0  0  0  0  0  0
  1  2  1  0
  2  3  1  0
  2  4  2  0
  4  5  1  0
  5  6  2  0
  6  7  1  0
  6  8  1  0
  8  9  2  0
  9 10  1  0
  9 11  1  0
 11 12  1  0
 12 13  2  0
 12 14  1  0
 14 15  1  0
 15 16  2  0
  5 17  1  0
 17 18  1  0
 18 19  1  0
 18 20  1  0
 18 21  1  0
 17 22  2  0
 22 23  1  0
 23 24  1  0
 24 25  1  0
 24 26  1  0
 24 27  1  0
 23  4  1  0
 15  8  1  0
M  CHG  3  10  -1  11  -1  14  -1
M  END
>  <UniqueID>  (10) 
10

>  <SMILES>  (10) 
C=c1/c(=C/c2c([O-])[n-]c(=O)[n-]c2=O)c(C)nn1C

>  <Energy>  (10) 
71.77875229264214

>  <Genealogy>  (10) 
C=c1c(=Cc2c([O-])[n-]c(=O)[n-]c2=O)c(C)nn1C (protonated)
C=c1/c(=C/c2c([O-])[n-]c(=O)[n-]c2=O)c(C)nn1C (cis-trans isomerization)
C=c1/c(=C/c2c([O-])[n-]c(=O)[n-]c2=O)c(C)nn1C (3D coordinates assigned)
C=c1/c(=C/c2c([O-])[n-]c(=O)[n-]c2=O)c(C)nn1C (optimized conformer: 71.77875229264214 kcal/mol)

>  <smiles>  (10) 
C=c1c(=Cc2c(O)[nH]c(=O)[nH]c2=O)c(C)nn1C

>  <score_type>  (10) 
oracle

>  <origin>  (10) 
adg

>  <m_score__min__energy>  (10) 
-14.17

>  <m_primary>  (10) 
energy

$$$$
10:0
     RDKit          3D

 40 42  0  0  0  0  0  0  0  0999 V2000
   59.1340   27.9310   47.5610 C   0  0  0  0  0  0  0  0  0  0  0  0
   58.4590   28.5350   46.5700 C   0  0  0  0  0  0  0  0  0  0  0  0
   57.9770   27.9360   45.3950 C   0  0  0  0  0  0  0  0  0  0  0  0
   57.8430   26.6390   45.0570 C   0  0  0  0  0  0  0  0  0  0  0  0
   57.2610   25.5900   45.9080 C   0  0  0  0  0  0  0  0  0  0  0  0
   57.9300   24.4880   46.2910 N   0  0  0  0  0  0  0  0  0  0  0  0
   56.9930   23.7640   46.9400 C   0  0  0  0  0  0  0  0  0  0  0  0
   57.2450   22.6500   47.4690 O   0  0  0  0  0  0  0  0  0  0  0  0
   55.7640   24.3210   46.9680 N   0  0  0  0  0  0  0  0  0  0  0  0
   55.9440   25.4700   46.2970 C   0  0  0  0  0  0  0  0  0  0  0  0
   54.9270   26.3770   46.0230 O   0  0  0  0  0  0  0  0  0  0  0  0
   57.6060   28.9740   44.5550 C   0  0  0  0  0  0  0  0  0  0  0  0
   57.7950   30.1440   45.2600 C   0  0  0  0  0  0  0  0  0  0  0  0
   57.4880   31.5140   44.7350 C   0  0  0  0  0  0  0  0  0  0  0  0
   58.2980   29.8820   46.4870 N   0  0  0  0  0  0  0  0  0  0  0  0
   58.6310   30.8680   47.4820 C   0  0  0  0  0  0  0  0  0  0  0  0
   58.4800   30.5850   48.7020 O   0  0  0  0  0  0  0  0  0  0  0  0
   59.1490   32.2050   47.1020 C   0  0  0  0  0  0  0  0  0  0  0  0
   58.2650   33.2960   47.0490 C   0  0  0  0  0  0  0  0  0  0  0  0
   58.7200   34.5590   46.6660 C   0  0  0  0  0  0  0  0  0  0  0  0
   60.0620   34.7520   46.3380 C   0  0  0  0  0  0  0  0  0  0  0  0
   60.9700   33.6790   46.4020 C   0  0  0  0  0  0  0  0  0  0  0  0
   62.3300   33.8320   46.0890 O   0  0  0  0  0  0  0  0  0  0  0  0
   63.4010   33.4810   46.9590 C   0  0  0  0  0  0  0  0  0  0  0  0
   60.5120   32.4120   46.7930 C   0  0  0  0  0  0  0  0  0  0  0  0
   61.4270   31.3680   46.8930 O   0  0  0  0  0  0  0  0  0  0  0  0
   59.4610   28.5108   48.4368 H   0  0  0  0  0  0  0  0  0  0  0  0
   59.3601   26.8564   47.4972 H   0  0  0  0  0  0  0  0  0  0  0  0
   58.1989   26.3390   44.0603 H   0  0  0  0  0  0  0  0  0  0  0  0
   54.3180   26.7090   46.7600 H   0  0  0  0  0  0  0  0  0  0  0  0
   57.2327   28.8823   43.5244 H   0  0  0  0  0  0  0  0  0  0  0  0
   57.3335   32.2036   45.5780 H   0  0  0  0  0  0  0  0  0  0  0  0
   58.3290   31.8683   44.1209 H   0  0  0  0  0  0  0  0  0  0  0  0
   56.5762   31.4755   44.1209 H   0  0  0  0  0  0  0  0  0  0  0  0
   57.2062   33.1538   47.3113 H   0  0  0  0  0  0  0  0  0  0  0  0
   58.0180   35.4047   46.6227 H   0  0  0  0  0  0  0  0  0  0  0  0
   60.4121   35.7476   46.0279 H   0  0  0  0  0  0  0  0  0  0  0  0
   63.0746   33.5880   48.0040 H   0  0  0  0  0  0  0  0  0  0  0  0
   63.6982   32.4384   46.7726 H   0  0  0  0  0  0  0  0  0  0  0  0
   64.2576   34.1454   46.7726 H   0  0  0  0  0  0  0  0  0  0  0  0
  1  2  2  0
  2  3  1  0
  3  4  2  3
  4  5  1  0
  5  6  1  0
  6  7  1  0
  7  8  2  0
  7  9  1  0
  9 10  1  0
 10 11  1  0
  3 12  1  0
 12 13  2  0
 13 14  1  0
 13 15  1  0
 15 16  1  0
 16 17  2  0
 16 18  1  0
 18 19  2  0
 19 20  1  0
 20 21  2  0
 21 22  1  0
 22 23  1  0
 23 24  1  0
 22 25  2  0
 25 26  1  0
 15  2  1  0
 25 18  1  0
 10  5  2  0
  1 27  1  0
  1 28  1  0
  4 29  1  0
 11 30  1  0
 12 31  1  0
 14 32  1  0
 14 33  1  0
 14 34  1  0
 19 35  1  0
 20 36  1  0
 21 37  1  0
 24 38  1  0
 24 39  1  0
 24 40  1  0
M  CHG  3   6  -1   9  -1  26  -1
M  END
>  <UniqueID>  (11) 
11

>  <SMILES>  (11) 
C=c1c(=Cc2[n-]c(=O)[n-]c2O)cc(C)n1C(=O)c1cccc(OC)c1[O-]

>  <Energy>  (11) 
118.2762352654876

>  <Genealogy>  (11) 
C=c1c(=Cc2[n-]c(=O)[n-]c2O)cc(C)n1C(=O)c1cccc(OC)c1[O-] (protonated)
C=c1c(=Cc2[n-]c(=O)[n-]c2O)cc(C)n1C(=O)c1cccc(OC)c1[O-] (3D coordinates assigned)
C=c1c(=Cc2[n-]c(=O)[n-]c2O)cc(C)n1C(=O)c1cccc(OC)c1[O-] (optimized conformer: 118.2762352654876 kcal/mol)

>  <smiles>  (11) 
C=c1c(=Cc2[nH]c(=O)[nH]c2O)cc(C)n1C(=O)c1cccc(OC)c1O

>  <score_type>  (11) 
oracle

>  <origin>  (11) 
adg

>  <m_score__min__energy>  (11) 
-13.449999999999999

>  <m_primary>  (11) 
energy

$$$$
11:0
     RDKit          3D

 66 69  0  0  0  0  0  0  0  0999 V2000
   62.7940   31.3270   49.7310 C   0  0  0  0  0  0  0  0  0  0  0  0
   62.6040   31.1950   48.3250 O   0  0  0  0  0  0  0  0  0  0  0  0
   61.7590   32.0530   47.6130 C   0  0  0  0  0  0  0  0  0  0  0  0
   62.2280   33.3060   47.1680 C   0  0  0  0  0  0  0  0  0  0  0  0
   63.6400   33.7520   47.4340 C   0  0  0  0  0  0  0  0  0  0  0  0
   61.3800   34.1360   46.4260 C   0  0  0  0  0  0  0  0  0  0  0  0
   60.0560   33.7620   46.1610 C   0  0  0  0  0  0  0  0  0  0  0  0
   59.1790   34.7150   45.3930 C   0  0  0  0  0  0  0  0  0  0  0  0
   59.5600   32.5450   46.6740 C   0  0  0  0  0  0  0  0  0  0  0  0
   58.1920   32.1860   46.4560 N   0  0  0  0  0  0  0  0  0  0  0  0
   57.6580   31.5450   44.9390 S   0  0  0  0  0  0  0  0  0  0  0  0
   58.2480   32.3350   43.8050 O   0  0  0  0  0  0  0  0  0  0  0  0
   56.1600   31.6410   44.8610 O   0  0  0  0  0  0  0  0  0  0  0  0
   58.1360   29.8660   44.8040 C   0  0  0  0  0  0  0  0  0  0  0  0
   59.4380   29.3900   44.8400 C   0  0  0  0  0  0  0  0  0  0  0  0
   59.5130   27.9930   44.7640 C   0  0  0  0  0  0  0  0  0  0  0  0
   58.2660   27.3710   44.6790 C   0  0  0  0  0  0  0  0  0  0  0  0
   58.0120   25.9130   44.6010 C   0  0  0  0  0  0  0  0  0  0  0  0
   57.3890   25.3620   43.4680 C   0  0  0  0  0  0  0  0  0  0  0  0
   57.1530   23.9870   43.3860 C   0  0  0  0  0  0  0  0  0  0  0  0
   57.5480   23.1360   44.4280 C   0  0  0  0  0  0  0  0  0  0  0  0
   57.2770   21.6560   44.3380 C   0  0  0  0  0  0  0  0  0  0  0  0
   55.8950   21.3480   44.7620 N   0  0  0  0  0  0  0  0  0  0  0  0
   55.1720   22.5780   45.1780 C   0  0  0  0  0  0  0  0  0  0  0  0
   53.9830   22.2510   46.0920 C   0  0  0  0  0  0  0  0  0  0  0  0
   54.4100   21.5760   47.3430 N   0  0  0  0  0  0  0  0  0  0  0  0
   54.4880   22.5260   48.4660 C   0  0  0  0  0  0  0  0  0  0  0  0
   55.6860   20.8300   47.2080 C   0  0  0  0  0  0  0  0  0  0  0  0
   55.8640   20.2730   45.7880 C   0  0  0  0  0  0  0  0  0  0  0  0
   58.1630   23.6820   45.5650 C   0  0  0  0  0  0  0  0  0  0  0  0
   58.3930   25.0590   45.6520 C   0  0  0  0  0  0  0  0  0  0  0  0
   57.0760   28.5690   44.7010 S   0  0  0  0  0  0  0  0  0  0  0  0
   60.4240   31.6680   47.3690 C   0  0  0  0  0  0  0  0  0  0  0  0
   59.9320   30.3390   47.8920 C   0  0  0  0  0  0  0  0  0  0  0  0
   62.0025   30.7771   50.2612 H   0  0  0  0  0  0  0  0  0  0  0  0
   63.7755   30.9153   50.0086 H   0  0  0  0  0  0  0  0  0  0  0  0
   62.7507   32.3905   50.0086 H   0  0  0  0  0  0  0  0  0  0  0  0
   63.8093   33.8055   48.5196 H   0  0  0  0  0  0  0  0  0  0  0  0
   64.3421   33.0319   46.9885 H   0  0  0  0  0  0  0  0  0  0  0  0
   63.8010   34.7447   46.9885 H   0  0  0  0  0  0  0  0  0  0  0  0
   61.7585   35.0961   46.0453 H   0  0  0  0  0  0  0  0  0  0  0  0
   58.6072   35.3363   46.0980 H   0  0  0  0  0  0  0  0  0  0  0  0
   59.8054   35.3606   44.7600 H   0  0  0  0  0  0  0  0  0  0  0  0
   58.4836   34.1443   44.7600 H   0  0  0  0  0  0  0  0  0  0  0  0
   60.3205   30.0417   44.9199 H   0  0  0  0  0  0  0  0  0  0  0  0
   60.4634   27.4393   44.7707 H   0  0  0  0  0  0  0  0  0  0  0  0
   57.0848   26.0182   42.6393 H   0  0  0  0  0  0  0  0  0  0  0  0
   56.6544   23.5698   42.4987 H   0  0  0  0  0  0  0  0  0  0  0  0
   57.4169   21.3265   43.2979 H   0  0  0  0  0  0  0  0  0  0  0  0
   57.9757   21.1288   45.0043 H   0  0  0  0  0  0  0  0  0  0  0  0
   55.8681   23.2358   45.7190 H   0  0  0  0  0  0  0  0  0  0  0  0
   54.7863   23.0732   44.2747 H   0  0  0  0  0  0  0  0  0  0  0  0
   53.4676   23.1873   46.3522 H   0  0  0  0  0  0  0  0  0  0  0  0
   53.3158   21.5661   45.5481 H   0  0  0  0  0  0  0  0  0  0  0  0
   54.4427   21.9745   49.4167 H   0  0  0  0  0  0  0  0  0  0  0  0
   55.4349   23.0830   48.4100 H   0  0  0  0  0  0  0  0  0  0  0  0
   53.6446   23.2300   48.4100 H   0  0  0  0  0  0  0  0  0  0  0  0
   56.5222   21.5081   47.4335 H   0  0  0  0  0  0  0  0  0  0  0  0
   55.6677   19.9842   47.9110 H   0  0  0  0  0  0  0  0  0  0  0  0
   56.8099   19.7134   45.7432 H   0  0  0  0  0  0  0  0  0  0  0  0
   55.0033   19.6235   45.5701 H   0  0  0  0  0  0  0  0  0  0  0  0
   58.4659   23.0235   46.3924 H   0  0  0  0  0  0  0  0  0  0  0  0
   58.8750   25.4769   46.5481 H   0  0  0  0  0  0  0  0  0  0  0  0
   59.9372   30.3531   48.9919 H   0  0  0  0  0  0  0  0  0  0  0  0
   58.9080   30.1599   47.5325 H   0  0  0  0  0  0  0  0  0  0  0  0
   60.5925   29.5362   47.5325 H   0  0  0  0  0  0  0  0  0  0  0  0
  1  2  1  0
  2  3  1  0
  3  4  2  0
  4  5  1  0
  4  6  1  0
  6  7  2  0
  7  8  1  0
  7  9  1  0
  9 10  1  0
 10 11  1  0
 11 12  2  0
 11 13  2  0
 11 14  1  0
 14 15  2  0
 15 16  1  0
 16 17  2  0
 17 18  1  0
 18 19  2  0
 19 20  1  0
 20 21  2  0
 21 22  1  0
 22 23  1  0
 23 24  1  0
 24 25  1  0
 25 26  1  0
 26 27  1  0
 26 28  1  0
 28 29  1  0
 21 30  1  0
 30 31  2  0
 17 32  1  0
  9 33  2  0
 33 34  1  0
 33  3  1  0
 32 14  1  0
 31 18  1  0
 29 23  1  0
  1 35  1  0
  1 36  1  0
  1 37  1  0
  5 38  1  0
  5 39  1  0
  5 40  1  0
  6 41  1  0
  8 42  1  0
  8 43  1  0
  8 44  1  0
 15 45  1  0
 16 46  1  0
 19 47  1  0
 20 48  1  0
 22 49  1  0
 22 50  1  0
 24 51  1  0
 24 52  1  0
 25 53  1  0
 25 54  1  0
 27 55  1  0
 27 56  1  0
 27 57  1  0
 28 58  1  0
 28 59  1  0
 29 60  1  0
 29 61  1  0
 30 62  1  0
 31 63  1  0
 34 64  1  0
 34 65  1  0
 34 66  1  0
M  CHG  1  10  -1
M  END
>  <UniqueID>  (12) 
12

>  <SMILES>  (12) 
COc1c(C)cc(C)c([N-]S(=O)(=O)c2ccc(-c3ccc(CN4CCN(C)CC4)cc3)s2)c1C

>  <Energy>  (12) 
124.87183537950705

>  <Genealogy>  (12) 
COc1c(C)cc(C)c([N-]S(=O)(=O)c2ccc(-c3ccc(CN4CCN(C)CC4)cc3)s2)c1C (protonated)
COc1c(C)cc(C)c([N-]S(=O)(=O)c2ccc(-c3ccc(CN4CCN(C)CC4)cc3)s2)c1C (3D coordinates assigned)
COc1c(C)cc(C)c([N-]S(=O)(=O)c2ccc(-c3ccc(CN4CCN(C)CC4)cc3)s2)c1C (nonaromatic ring conformer: 124.87183537950705 kcal/mol)

>  <smiles>  (12) 
COc1c(C)cc(C)c(NS(=O)(=O)c2ccc(-c3ccc(CN4CCN(C)CC4)cc3)s2)c1C

>  <score_type>  (12) 
oracle

>  <origin>  (12) 
adg

>  <m_score__min__energy>  (12) 
-10.83

>  <m_primary>  (12) 
energy

$$$$
12:0
     RDKit          3D

 56 59  0  0  0  0  0  0  0  0999 V2000
   55.5190   26.9130   45.9910 O   0  0  0  0  0  0  0  0  0  0  0  0
   56.6000   26.3500   45.6700 C   0  0  0  0  0  0  0  0  0  0  0  0
   56.8450   24.9860   46.0360 N   0  0  0  0  0  0  0  0  0  0  0  0
   56.9210   23.8570   45.1540 C   0  0  0  0  0  0  0  0  0  0  0  0
   57.3850   22.6030   45.5830 C   0  0  0  0  0  0  0  0  0  0  0  0
   57.4230   21.5240   44.6920 C   0  0  0  0  0  0  0  0  0  0  0  0
   56.9830   21.6840   43.3760 C   0  0  0  0  0  0  0  0  0  0  0  0
   56.4990   22.9220   42.9490 C   0  0  0  0  0  0  0  0  0  0  0  0
   56.4610   24.0010   43.8370 C   0  0  0  0  0  0  0  0  0  0  0  0
   57.6080   27.0690   44.9450 N   0  0  0  0  0  0  0  0  0  0  0  0
   57.6250   28.4950   44.7620 C   0  0  0  0  0  0  0  0  0  0  0  0
   56.6500   29.0940   43.9500 C   0  0  0  0  0  0  0  0  0  0  0  0
   56.6620   30.4730   43.7230 C   0  0  0  0  0  0  0  0  0  0  0  0
   57.6680   31.2790   44.2850 C   0  0  0  0  0  0  0  0  0  0  0  0
   57.6820   32.7740   44.0270 C   0  0  0  0  0  0  0  0  0  0  0  0
   58.1360   33.5780   45.1860 N   0  0  0  0  0  0  0  0  0  0  0  0
   59.6030   33.5580   45.3800 C   0  0  0  0  0  0  0  0  0  0  0  0
   60.0080   34.2040   46.7110 C   0  0  0  0  0  0  0  0  0  0  0  0
   59.3240   33.5450   47.8330 N   0  0  0  0  0  0  0  0  0  0  0  0
   59.8470   33.6160   49.1770 C   0  0  0  0  0  0  0  0  0  0  0  0
   59.4010   32.8380   50.0640 O   0  0  0  0  0  0  0  0  0  0  0  0
   60.9390   34.5790   49.5600 C   0  0  0  0  0  0  0  0  0  0  0  0
   62.2850   33.9360   49.4300 C   0  0  0  0  0  0  0  0  0  0  0  0
   63.0720   33.4650   50.4730 C   0  0  0  0  0  0  0  0  0  0  0  0
   64.2980   32.9390   50.0450 C   0  0  0  0  0  0  0  0  0  0  0  0
   64.4850   33.0050   48.6720 C   0  0  0  0  0  0  0  0  0  0  0  0
   63.1240   33.7190   47.9890 S   0  0  0  0  0  0  0  0  0  0  0  0
   58.1120   32.7590   47.5630 C   0  0  0  0  0  0  0  0  0  0  0  0
   57.3230   33.3980   46.4130 C   0  0  0  0  0  0  0  0  0  0  0  0
   58.6390   30.6820   45.1040 C   0  0  0  0  0  0  0  0  0  0  0  0
   58.6290   29.3010   45.3270 C   0  0  0  0  0  0  0  0  0  0  0  0
   57.7196   22.4682   46.6222 H   0  0  0  0  0  0  0  0  0  0  0  0
   57.8004   20.5473   45.0292 H   0  0  0  0  0  0  0  0  0  0  0  0
   57.0178   20.8355   42.6768 H   0  0  0  0  0  0  0  0  0  0  0  0
   56.1477   23.0483   41.9143 H   0  0  0  0  0  0  0  0  0  0  0  0
   56.0670   24.9711   43.4999 H   0  0  0  0  0  0  0  0  0  0  0  0
   58.3560   26.5060   44.4810 H   0  0  0  0  0  0  0  0  0  0  0  0
   55.8689   28.4725   43.4878 H   0  0  0  0  0  0  0  0  0  0  0  0
   55.8792   30.9310   43.1005 H   0  0  0  0  0  0  0  0  0  0  0  0
   58.3566   32.9734   43.1813 H   0  0  0  0  0  0  0  0  0  0  0  0
   56.6440   33.0722   43.8179 H   0  0  0  0  0  0  0  0  0  0  0  0
   59.9497   32.5141   45.3703 H   0  0  0  0  0  0  0  0  0  0  0  0
   60.0647   34.1342   44.5646 H   0  0  0  0  0  0  0  0  0  0  0  0
   61.0958   34.1081   46.8436 H   0  0  0  0  0  0  0  0  0  0  0  0
   59.7200   35.2655   46.6931 H   0  0  0  0  0  0  0  0  0  0  0  0
   60.8935   35.4571   48.8991 H   0  0  0  0  0  0  0  0  0  0  0  0
   60.7919   34.8801   50.6077 H   0  0  0  0  0  0  0  0  0  0  0  0
   62.7639   33.5013   51.5283 H   0  0  0  0  0  0  0  0  0  0  0  0
   65.0429   32.5134   50.7335 H   0  0  0  0  0  0  0  0  0  0  0  0
   65.3709   32.6512   48.1243 H   0  0  0  0  0  0  0  0  0  0  0  0
   58.3964   31.7334   47.2850 H   0  0  0  0  0  0  0  0  0  0  0  0
   57.4843   32.7380   48.4661 H   0  0  0  0  0  0  0  0  0  0  0  0
   56.4653   32.7520   46.1742 H   0  0  0  0  0  0  0  0  0  0  0  0
   57.0030   34.3962   46.7466 H   0  0  0  0  0  0  0  0  0  0  0  0
   59.4140   31.3050   45.5743 H   0  0  0  0  0  0  0  0  0  0  0  0
   59.4121   28.8425   45.9487 H   0  0  0  0  0  0  0  0  0  0  0  0
  1  2  2  0
  2  3  1  0
  3  4  1  0
  4  5  2  0
  5  6  1  0
  6  7  2  0
  7  8  1  0
  8  9  2  0
  2 10  1  0
 10 11  1  0
 11 12  2  0
 12 13  1  0
 13 14  2  0
 14 15  1  0
 15 16  1  0
 16 17  1  0
 17 18  1  0
 18 19  1  0
 19 20  1  0
 20 21  2  0
 20 22  1  0
 22 23  1  0
 23 24  2  0
 24 25  1  0
 25 26  2  0
 26 27  1  0
 19 28  1  0
 28 29  1  0
 14 30  1  0
 30 31  2  0
  9  4  1  0
 31 11  1  0
 29 16  1  0
 27 23  1  0
  5 32  1  0
  6 33  1  0
  7 34  1  0
  8 35  1  0
  9 36  1  0
 10 37  1  0
 12 38  1  0
 13 39  1  0
 15 40  1  0
 15 41  1  0
 17 42  1  0
 17 43  1  0
 18 44  1  0
 18 45  1  0
 22 46  1  0
 22 47  1  0
 24 48  1  0
 25 49  1  0
 26 50  1  0
 28 51  1  0
 28 52  1  0
 29 53  1  0
 29 54  1  0
 30 55  1  0
 31 56  1  0
M  CHG  1   3  -1
M  END
>  <UniqueID>  (13) 
13

>  <SMILES>  (13) 
O=C([N-]c1ccccc1)Nc1ccc(CN2CCN(C(=O)Cc3cccs3)CC2)cc1

>  <Energy>  (13) 
99.96862604295609

>  <Genealogy>  (13) 
O=C([N-]c1ccccc1)Nc1ccc(CN2CCN(C(=O)Cc3cccs3)CC2)cc1 (protonated)
O=C([N-]c1ccccc1)Nc1ccc(CN2CCN(C(=O)Cc3cccs3)CC2)cc1 (3D coordinates assigned)
O=C([N-]c1ccccc1)Nc1ccc(CN2CCN(C(=O)Cc3cccs3)CC2)cc1 (nonaromatic ring conformer: 99.96862604295609 kcal/mol)

>  <smiles>  (13) 
O=C(Nc1ccccc1)Nc1ccc(CN2CCN(C(=O)Cc3cccs3)CC2)cc1

>  <score_type>  (13) 
oracle

>  <origin>  (13) 
adg

>  <m_score__min__energy>  (13) 
-10.960000000000001

>  <m_primary>  (13) 
energy

$$$$
13:0
     RDKit          3D

 19 20  0  0  0  0  0  0  0  0999 V2000
   55.1390   27.4880   45.3750 H   0  0  0  0  0  0  0  0  0  0  0  0
   54.9920   26.6970   45.9890 O   0  0  0  0  0  0  0  0  0  0  0  0
   56.0390   25.8320   46.2930 C   0  0  0  0  0  0  0  0  0  0  0  0
   55.8960   24.7120   47.0230 N   0  0  0  0  0  0  0  0  0  0  0  0
   57.1510   24.2180   47.0500 C   0  0  0  0  0  0  0  0  0  0  0  0
   57.4470   23.1510   47.6500 O   0  0  0  0  0  0  0  0  0  0  0  0
   58.0650   24.9550   46.3840 N   0  0  0  0  0  0  0  0  0  0  0  0
   57.3480   25.9860   45.9020 C   0  0  0  0  0  0  0  0  0  0  0  0
   57.8730   27.1050   45.0870 C   0  0  0  0  0  0  0  0  0  0  0  0
   58.2765   26.8627   44.0928 H   0  0  0  0  0  0  0  0  0  0  0  0
   57.8950   28.3990   45.4690 C   0  0  0  0  0  0  0  0  0  0  0  0
   58.8390   29.0480   46.7160 S   0  0  0  0  0  0  0  0  0  0  0  0
   58.2630   30.6030   46.4930 C   0  0  0  0  0  0  0  0  0  0  0  0
   58.6200   31.6000   47.1720 O   0  0  0  0  0  0  0  0  0  0  0  0
   57.3610   30.6760   45.4950 N   0  0  0  0  0  0  0  0  0  0  0  0
   57.1440   29.4630   44.9140 C   0  0  0  0  0  0  0  0  0  0  0  0
   56.2770   29.3540   43.9020 C   0  0  0  0  0  0  0  0  0  0  0  0
   56.1007   28.3753   43.4318 H   0  0  0  0  0  0  0  0  0  0  0  0
   55.7400   30.2430   43.5396 H   0  0  0  0  0  0  0  0  0  0  0  0
  1  2  1  0
  2  3  1  0
  3  4  1  0
  4  5  1  0
  5  6  2  0
  5  7  1  0
  7  8  1  0
  8  9  1  0
  9 10  1  0
  9 11  2  0
 11 12  1  0
 12 13  1  0
 13 14  2  0
 13 15  1  0
 15 16  1  0
 16 17  2  0
 17 18  1  0
 17 19  1  0
  8  3  2  0
 16 11  1  0
M  CHG  3   4  -1   7  -1  15  -1
M  END
>  <UniqueID>  (14) 
14

>  <SMILES>  (14) 
C=c1[n-]c(=O)s/c1=C\c1[n-]c(=O)[n-]c1O

>  <Energy>  (14) 
83.32019331544073

>  <Genealogy>  (14) 
C=c1[n-]c(=O)sc1=Cc1[n-]c(=O)[n-]c1O (protonated)
C=c1[n-]c(=O)s/c1=C\c1[n-]c(=O)[n-]c1O (cis-trans isomerization)
C=c1[n-]c(=O)s/c1=C\c1[n-]c(=O)[n-]c1O (3D coordinates assigned)
C=c1[n-]c(=O)s/c1=C\c1[n-]c(=O)[n-]c1O (optimized conformer: 83.32019331544073 kcal/mol)

>  <smiles>  (14) 
C=c1[nH]c(=O)sc1=Cc1[nH]c(=O)[nH]c1O

>  <score_type>  (14) 
oracle

>  <origin>  (14) 
adg

>  <m_score__min__energy>  (14) 
-11.77

>  <m_primary>  (14) 
energy

$$$$
14:0
     RDKit          3D

 39 41  0  0  0  0  0  0  0  0999 V2000
   57.8953   31.6368   43.7458 H   0  0  0  0  0  0  0  0  0  0  0  0
   57.6630   30.5990   44.0270 C   0  0  0  0  0  0  0  0  0  0  0  0
   57.1417   29.9403   43.3168 H   0  0  0  0  0  0  0  0  0  0  0  0
   58.0160   30.1360   45.2380 C   0  0  0  0  0  0  0  0  0  0  0  0
   57.8000   28.8480   45.7590 C   0  0  0  0  0  0  0  0  0  0  0  0
   57.3420   27.7210   45.1780 C   0  0  0  0  0  0  0  0  0  0  0  0
   57.0498   27.7842   44.1194 H   0  0  0  0  0  0  0  0  0  0  0  0
   57.1990   26.4100   45.8400 C   0  0  0  0  0  0  0  0  0  0  0  0
   55.9370   25.9600   46.2500 C   0  0  0  0  0  0  0  0  0  0  0  0
   54.7970   26.7140   45.9920 O   0  0  0  0  0  0  0  0  0  0  0  0
   55.8180   24.7710   46.8960 N   0  0  0  0  0  0  0  0  0  0  0  0
   56.9090   24.0110   47.1730 C   0  0  0  0  0  0  0  0  0  0  0  0
   56.7740   22.9110   47.7690 O   0  0  0  0  0  0  0  0  0  0  0  0
   58.1450   24.4390   46.8100 N   0  0  0  0  0  0  0  0  0  0  0  0
   58.3170   25.6200   46.1620 C   0  0  0  0  0  0  0  0  0  0  0  0
   59.4820   25.9970   45.8610 O   0  0  0  0  0  0  0  0  0  0  0  0
   58.1720   28.9030   47.0930 C   0  0  0  0  0  0  0  0  0  0  0  0
   58.1008   28.0866   47.8268 H   0  0  0  0  0  0  0  0  0  0  0  0
   58.6480   30.1750   47.3250 C   0  0  0  0  0  0  0  0  0  0  0  0
   59.1570   30.6680   48.6460 C   0  0  0  0  0  0  0  0  0  0  0  0
   58.6250   30.1528   49.4593 H   0  0  0  0  0  0  0  0  0  0  0  0
   60.2346   30.4614   48.7240 H   0  0  0  0  0  0  0  0  0  0  0  0
   58.9849   31.7516   48.7240 H   0  0  0  0  0  0  0  0  0  0  0  0
   58.5490   30.9250   46.2050 N   0  0  0  0  0  0  0  0  0  0  0  0
   58.9200   32.3090   46.0870 C   0  0  0  0  0  0  0  0  0  0  0  0
   57.9590   33.2510   45.6910 C   0  0  0  0  0  0  0  0  0  0  0  0
   56.9288   32.9275   45.4812 H   0  0  0  0  0  0  0  0  0  0  0  0
   58.3050   34.5980   45.5620 C   0  0  0  0  0  0  0  0  0  0  0  0
   57.5482   35.3328   45.2501 H   0  0  0  0  0  0  0  0  0  0  0  0
   59.6120   35.0120   45.8290 C   0  0  0  0  0  0  0  0  0  0  0  0
   59.8840   36.0726   45.7234 H   0  0  0  0  0  0  0  0  0  0  0  0
   60.5750   34.0820   46.2300 C   0  0  0  0  0  0  0  0  0  0  0  0
   61.6027   34.4140   46.4391 H   0  0  0  0  0  0  0  0  0  0  0  0
   60.2360   32.7200   46.3680 C   0  0  0  0  0  0  0  0  0  0  0  0
   61.1690   31.7590   46.7870 O   0  0  0  0  0  0  0  0  0  0  0  0
   62.3780   32.0540   47.4770 C   0  0  0  0  0  0  0  0  0  0  0  0
   62.2010   32.0108   48.5618 H   0  0  0  0  0  0  0  0  0  0  0  0
   63.1467   31.3171   47.2013 H   0  0  0  0  0  0  0  0  0  0  0  0
   62.7209   33.0622   47.2013 H   0  0  0  0  0  0  0  0  0  0  0  0
  1  2  1  0
  2  3  1  0
  2  4  2  0
  4  5  1  0
  5  6  2  0
  6  7  1  0
  6  8  1  0
  8  9  2  0
  9 10  1  0
  9 11  1  0
 11 12  1  0
 12 13  2  0
 12 14  1  0
 14 15  1  0
 15 16  2  0
  5 17  1  0
 17 18  1  0
 17 19  2  0
 19 20  1  0
 20 21  1  0
 20 22  1  0
 20 23  1  0
 19 24  1  0
 24 25  1  0
 25 26  2  0
 26 27  1  0
 26 28  1  0
 28 29  1  0
 28 30  2  0
 30 31  1  0
 30 32  1  0
 32 33  1  0
 32 34  2  0
 34 35  1  0
 35 36  1  0
 36 37  1  0
 36 38  1  0
 36 39  1  0
 24  4  1  0
 34 25  1  0
 15  8  1  0
M  CHG  3  10  -1  11  -1  14  -1
M  END
>  <UniqueID>  (15) 
15

>  <SMILES>  (15) 
C=c1/c(=C\c2c([O-])[n-]c(=O)[n-]c2=O)cc(C)n1-c1ccccc1OC

>  <Energy>  (15) 
90.08298318915492

>  <Genealogy>  (15) 
C=c1c(=Cc2c([O-])[n-]c(=O)[n-]c2=O)cc(C)n1-c1ccccc1OC (protonated)
C=c1/c(=C\c2c([O-])[n-]c(=O)[n-]c2=O)cc(C)n1-c1ccccc1OC (cis-trans isomerization)
C=c1/c(=C\c2c([O-])[n-]c(=O)[n-]c2=O)cc(C)n1-c1ccccc1OC (3D coordinates assigned)
C=c1/c(=C\c2c([O-])[n-]c(=O)[n-]c2=O)cc(C)n1-c1ccccc1OC (optimized conformer: 90.08298318915492 kcal/mol)

>  <smiles>  (15) 
C=c1c(=Cc2c(O)[nH]c(=O)[nH]c2=O)cc(C)n1-c1ccccc1OC

>  <score_type>  (15) 
oracle

>  <origin>  (15) 
adg

>  <m_score__min__energy>  (15) 
-15.09

>  <m_primary>  (15) 
energy

$$$$
15:0
     RDKit          3D

 51 54  0  0  0  0  0  0  0  0999 V2000
   58.0618   26.7120   44.0757 H   0  0  0  0  0  0  0  0  0  0  0  0
   57.7300   27.7100   44.3980 C   0  0  0  0  0  0  0  0  0  0  0  0
   57.3390   28.9960   43.3850 S   0  0  0  0  0  0  0  0  0  0  0  0
   56.9640   30.0170   44.6620 C   0  0  0  0  0  0  0  0  0  0  0  0
   56.5880   31.2520   44.5110 N   0  0  0  0  0  0  0  0  0  0  0  0
   57.4560   32.3600   44.2230 C   0  0  0  0  0  0  0  0  0  0  0  0
   57.6010   32.7130   43.0220 O   0  0  0  0  0  0  0  0  0  0  0  0
   58.1400   33.1310   45.2900 C   0  0  0  0  0  0  0  0  0  0  0  0
   58.8860   34.2770   44.9620 C   0  0  0  0  0  0  0  0  0  0  0  0
   58.9667   34.5961   43.9124 H   0  0  0  0  0  0  0  0  0  0  0  0
   59.5260   35.0130   45.9650 C   0  0  0  0  0  0  0  0  0  0  0  0
   60.1150   35.9039   45.7015 H   0  0  0  0  0  0  0  0  0  0  0  0
   59.4180   34.6180   47.3010 C   0  0  0  0  0  0  0  0  0  0  0  0
   59.9268   35.1945   48.0876 H   0  0  0  0  0  0  0  0  0  0  0  0
   58.6640   33.4910   47.6380 C   0  0  0  0  0  0  0  0  0  0  0  0
   58.5760   33.1837   48.6905 H   0  0  0  0  0  0  0  0  0  0  0  0
   58.0210   32.7530   46.6390 C   0  0  0  0  0  0  0  0  0  0  0  0
   57.4194   31.8728   46.9099 H   0  0  0  0  0  0  0  0  0  0  0  0
   57.1390   29.4160   45.8600 N   0  0  0  0  0  0  0  0  0  0  0  0
   57.5600   28.1300   45.7180 C   0  0  0  0  0  0  0  0  0  0  0  0
   57.8090   27.2690   46.8830 C   0  0  0  0  0  0  0  0  0  0  0  0
   57.0250   26.3140   47.1260 O   0  0  0  0  0  0  0  0  0  0  0  0
   58.9690   27.4870   47.6970 N   0  0  0  0  0  0  0  0  0  0  0  0
   59.7550   28.6860   47.7640 C   0  0  0  0  0  0  0  0  0  0  0  0
   60.2880   29.2950   46.6140 C   0  0  0  0  0  0  0  0  0  0  0  0
   60.0902   28.8618   45.6224 H   0  0  0  0  0  0  0  0  0  0  0  0
   61.0690   30.4500   46.7270 C   0  0  0  0  0  0  0  0  0  0  0  0
   61.4732   30.9281   45.8225 H   0  0  0  0  0  0  0  0  0  0  0  0
   61.3390   31.0010   47.9870 C   0  0  0  0  0  0  0  0  0  0  0  0
   62.3310   32.4550   48.1290 S   0  0  0  0  0  0  0  0  0  0  0  0
   61.5710   33.4900   48.9120 O   0  0  0  0  0  0  0  0  0  0  0  0
   62.5940   33.0100   46.7570 O   0  0  0  0  0  0  0  0  0  0  0  0
   63.8510   32.1290   48.9250 N   0  0  0  0  0  0  0  0  0  0  0  0
   64.4520   31.6130   48.2390 H   0  0  0  0  0  0  0  0  0  0  0  0
   63.6460   31.2790   50.1140 C   0  0  0  0  0  0  0  0  0  0  0  0
   62.8146   31.6873   50.7073 H   0  0  0  0  0  0  0  0  0  0  0  0
   63.4177   30.2576   49.7755 H   0  0  0  0  0  0  0  0  0  0  0  0
   64.9140   31.2290   50.9930 C   0  0  0  0  0  0  0  0  0  0  0  0
   64.7547   31.8475   51.8886 H   0  0  0  0  0  0  0  0  0  0  0  0
   65.1029   30.1824   51.2740 H   0  0  0  0  0  0  0  0  0  0  0  0
   66.0400   31.7150   50.2910 O   0  0  0  0  0  0  0  0  0  0  0  0
   65.8710   33.0910   50.0000 C   0  0  0  0  0  0  0  0  0  0  0  0
   65.9070   33.6582   50.9418 H   0  0  0  0  0  0  0  0  0  0  0  0
   66.6797   33.3911   49.3174 H   0  0  0  0  0  0  0  0  0  0  0  0
   64.5260   33.3840   49.2950 C   0  0  0  0  0  0  0  0  0  0  0  0
   63.8781   33.9560   49.9755 H   0  0  0  0  0  0  0  0  0  0  0  0
   64.7234   33.9634   48.3811 H   0  0  0  0  0  0  0  0  0  0  0  0
   60.8230   30.3840   49.1330 C   0  0  0  0  0  0  0  0  0  0  0  0
   61.0317   30.8103   50.1253 H   0  0  0  0  0  0  0  0  0  0  0  0
   60.0440   29.2290   49.0220 C   0  0  0  0  0  0  0  0  0  0  0  0
   59.6552   28.7431   49.9291 H   0  0  0  0  0  0  0  0  0  0  0  0
  1  2  1  0
  2  3  1  0
  3  4  1  0
  4  5  2  0
  5  6  1  0
  6  7  2  0
  6  8  1  0
  8  9  2  0
  9 10  1  0
  9 11  1  0
 11 12  1  0
 11 13  2  0
 13 14  1  0
 13 15  1  0
 15 16  1  0
 15 17  2  0
 17 18  1  0
  4 19  1  0
 19 20  1  0
 20 21  1  0
 21 22  2  0
 21 23  1  0
 23 24  1  0
 24 25  2  0
 25 26  1  0
 25 27  1  0
 27 28  1  0
 27 29  2  0
 29 30  1  0
 30 31  2  0
 30 32  2  0
 30 33  1  0
 33 34  1  0
 33 35  1  0
 35 36  1  0
 35 37  1  0
 35 38  1  0
 38 39  1  0
 38 40  1  0
 38 41  1  0
 41 42  1  0
 42 43  1  0
 42 44  1  0
 42 45  1  0
 45 46  1  0
 45 47  1  0
 29 48  1  0
 48 49  1  0
 48 50  2  0
 50 51  1  0
 20  2  2  0
 50 24  1  0
 17  8  1  0
 45 33  1  0
M  CHG  3  19  -1  23  -1  33   1
M  END
>  <UniqueID>  (16) 
16

>  <SMILES>  (16) 
O=C(/N=c1\[n-]c(C(=O)[N-]c2ccc(S(=O)(=O)[NH+]3CCOCC3)cc2)cs1)c1ccccc1

>  <Energy>  (16) 
101.47361210594283

>  <Genealogy>  (16) 
O=C(N=c1[n-]c(C(=O)[N-]c2ccc(S(=O)(=O)[NH+]3CCOCC3)cc2)cs1)c1ccccc1 (protonated)
O=C(/N=c1\[n-]c(C(=O)[N-]c2ccc(S(=O)(=O)[NH+]3CCOCC3)cc2)cs1)c1ccccc1 (cis-trans isomerization)
O=C(/N=c1\[n-]c(C(=O)[N-]c2ccc(S(=O)(=O)[NH+]3CCOCC3)cc2)cs1)c1ccccc1 (3D coordinates assigned)
O=C(/N=c1\[n-]c(C(=O)[N-]c2ccc(S(=O)(=O)[NH+]3CCOCC3)cc2)cs1)c1ccccc1 (nonaromatic ring conformer: 101.47361210594283 kcal/mol)

>  <smiles>  (16) 
O=C(N=c1[nH]c(C(=O)Nc2ccc(S(=O)(=O)N3CCOCC3)cc2)cs1)c1ccccc1

>  <score_type>  (16) 
oracle

>  <origin>  (16) 
adg

>  <m_score__min__energy>  (16) 
-12.07

>  <m_primary>  (16) 
energy

$$$$
16:0
     RDKit          3D

 52 55  0  0  0  0  0  0  0  0999 V2000
   57.6560   32.2910   49.0920 H   0  0  0  0  0  0  0  0  0  0  0  0
   57.3480   32.7840   48.2650 O   0  0  0  0  0  0  0  0  0  0  0  0
   58.2270   33.3550   47.3420 C   0  0  0  0  0  0  0  0  0  0  0  0
   58.0060   33.1090   45.9800 C   0  0  0  0  0  0  0  0  0  0  0  0
   57.1551   32.4851   45.6690 H   0  0  0  0  0  0  0  0  0  0  0  0
   58.8580   33.6500   45.0150 C   0  0  0  0  0  0  0  0  0  0  0  0
   58.6772   33.4505   43.9485 H   0  0  0  0  0  0  0  0  0  0  0  0
   59.9380   34.4430   45.4020 C   0  0  0  0  0  0  0  0  0  0  0  0
   60.6080   34.8682   44.6402 H   0  0  0  0  0  0  0  0  0  0  0  0
   60.1700   34.6980   46.7550 C   0  0  0  0  0  0  0  0  0  0  0  0
   61.0244   35.3232   47.0535 H   0  0  0  0  0  0  0  0  0  0  0  0
   59.3200   34.1620   47.7400 C   0  0  0  0  0  0  0  0  0  0  0  0
   59.6120   34.4410   49.1960 C   0  0  0  0  0  0  0  0  0  0  0  0
   58.6999   34.8185   49.6813 H   0  0  0  0  0  0  0  0  0  0  0  0
   60.4154   35.1898   49.2585 H   0  0  0  0  0  0  0  0  0  0  0  0
   58.6760   28.9010   49.0690 N   0  0  0  0  0  0  0  0  0  0  0  0
   58.5780   29.9950   49.7680 C   0  0  0  0  0  0  0  0  0  0  0  0
   57.6570   30.1230   50.7600 N   0  0  0  0  0  0  0  0  0  0  0  0
   57.5540   31.2790   51.4600 C   0  0  0  0  0  0  0  0  0  0  0  0
   56.6690   31.3750   52.4080 N   0  0  0  0  0  0  0  0  0  0  0  0
   56.2870   30.2870   53.3080 C   0  0  0  0  0  0  0  0  0  0  0  0
   55.9284   30.7120   54.2571 H   0  0  0  0  0  0  0  0  0  0  0  0
   57.1649   29.6482   53.4846 H   0  0  0  0  0  0  0  0  0  0  0  0
   55.1750   29.4370   52.6850 C   0  0  0  0  0  0  0  0  0  0  0  0
   54.9011   28.6320   53.3828 H   0  0  0  0  0  0  0  0  0  0  0  0
   55.5411   29.0117   51.7389 H   0  0  0  0  0  0  0  0  0  0  0  0
   53.9610   30.2800   52.4010 C   0  0  0  0  0  0  0  0  0  0  0  0
   53.0260   30.5380   53.4170 C   0  0  0  0  0  0  0  0  0  0  0  0
   53.1685   30.1017   54.4167 H   0  0  0  0  0  0  0  0  0  0  0  0
   51.9140   31.3480   53.1620 C   0  0  0  0  0  0  0  0  0  0  0  0
   51.1798   31.5400   53.9583 H   0  0  0  0  0  0  0  0  0  0  0  0
   51.7350   31.9140   51.8950 C   0  0  0  0  0  0  0  0  0  0  0  0
   50.6300   32.7180   51.6430 O   0  0  0  0  0  0  0  0  0  0  0  0
   52.6690   31.6710   50.8840 C   0  0  0  0  0  0  0  0  0  0  0  0
   52.5287   32.1174   49.8885 H   0  0  0  0  0  0  0  0  0  0  0  0
   53.7810   30.8620   51.1350 C   0  0  0  0  0  0  0  0  0  0  0  0
   54.5177   30.6804   50.3385 H   0  0  0  0  0  0  0  0  0  0  0  0
   58.3700   32.3230   51.1540 N   0  0  0  0  0  0  0  0  0  0  0  0
   59.2840   32.2110   50.1590 C   0  0  0  0  0  0  0  0  0  0  0  0
   60.0500   33.2230   49.8780 N   0  0  0  0  0  0  0  0  0  0  0  0
   59.0860   28.7850   47.6960 C   0  0  0  0  0  0  0  0  0  0  0  0
   58.6570   29.6940   46.7090 C   0  0  0  0  0  0  0  0  0  0  0  0
   58.0111   30.5401   46.9864 H   0  0  0  0  0  0  0  0  0  0  0  0
   59.0500   29.5240   45.3770 C   0  0  0  0  0  0  0  0  0  0  0  0
   58.7243   30.2443   44.6120 H   0  0  0  0  0  0  0  0  0  0  0  0
   59.8560   28.4400   45.0170 C   0  0  0  0  0  0  0  0  0  0  0  0
   60.1727   28.3128   43.9713 H   0  0  0  0  0  0  0  0  0  0  0  0
   60.2590   27.5180   45.9870 C   0  0  0  0  0  0  0  0  0  0  0  0
   60.8868   26.6607   45.7027 H   0  0  0  0  0  0  0  0  0  0  0  0
   59.8650   27.6840   47.3190 C   0  0  0  0  0  0  0  0  0  0  0  0
   60.1690   26.9451   48.0750 H   0  0  0  0  0  0  0  0  0  0  0  0
   59.3830   31.0440   49.4680 N   0  0  0  0  0  0  0  0  0  0  0  0
  1  2  1  0
  2  3  1  0
  3  4  2  0
  4  5  1  0
  4  6  1  0
  6  7  1  0
  6  8  2  0
  8  9  1  0
  8 10  1  0
 10 11  1  0
 10 12  2  0
 12 13  1  0
 13 14  1  0
 13 15  1  0
 13 16  1  0
 16 17  2  0
 17 18  1  0
 18 19  1  0
 19 20  2  3
 20 21  1  0
 21 22  1  0
 21 23  1  0
 21 24  1  0
 24 25  1  0
 24 26  1  0
 24 27  1  0
 27 28  2  0
 28 29  1  0
 28 30  1  0
 30 31  1  0
 30 32  2  0
 32 33  1  0
 32 34  1  0
 34 35  1  0
 34 36  2  0
 36 37  1  0
 19 38  1  0
 38 39  1  0
 39 40  2  0
 40 41  1  0
 41 42  2  0
 42 43  1  0
 42 44  1  0
 44 45  1  0
 44 46  2  0
 46 47  1  0
 46 48  1  0
 48 49  1  0
 48 50  2  0
 50 51  1  0
 39 52  1  0
 12  3  1  0
 52 17  1  0
 36 27  1  0
 50 41  1  0
M  CHG  4  18  -1  33  -1  38  -1  52  -1
M  END
>  <UniqueID>  (17) 
17

>  <SMILES>  (17) 
[O-]c1ccc(CCN=c2[n-]/c(=N/Cc3ccccc3O)[n-]/c(=N/c3ccccc3)[n-]2)cc1

>  <Energy>  (17) 
60.96550796776475

>  <Genealogy>  (17) 
[O-]c1ccc(CCN=c2[n-]c(=NCc3ccccc3O)[n-]c(=Nc3ccccc3)[n-]2)cc1 (protonated)
[O-]c1ccc(CCN=c2[n-]/c(=N/Cc3ccccc3O)[n-]/c(=N/c3ccccc3)[n-]2)cc1 (cis-trans isomerization)
[O-]c1ccc(CCN=c2[n-]/c(=N/Cc3ccccc3O)[n-]/c(=N/c3ccccc3)[n-]2)cc1 (3D coordinates assigned)
[O-]c1ccc(CCN=c2[n-]/c(=N/Cc3ccccc3O)[n-]/c(=N/c3ccccc3)[n-]2)cc1 (optimized conformer: 60.96550796776475 kcal/mol)

>  <smiles>  (17) 
Oc1ccc(CCN=c2[nH]c(=NCc3ccccc3O)[nH]c(=Nc3ccccc3)[nH]2)cc1

>  <score_type>  (17) 
oracle

>  <origin>  (17) 
adg

>  <m_score__min__energy>  (17) 
-15.4

>  <m_primary>  (17) 
energy

$$$$
17:0
     RDKit          3D

 51 54  0  0  0  0  0  0  0  0999 V2000
   59.5600   29.7150   46.8770 C   0  0  0  0  0  0  0  0  0  0  0  0
   59.0090   30.6320   46.0670 C   0  0  0  0  0  0  0  0  0  0  0  0
   58.3280   30.4140   44.8570 C   0  0  0  0  0  0  0  0  0  0  0  0
   57.9260   29.2760   44.2580 C   0  0  0  0  0  0  0  0  0  0  0  0
   57.3810   28.0900   44.9450 C   0  0  0  0  0  0  0  0  0  0  0  0
   56.0150   28.0150   45.2500 C   0  0  0  0  0  0  0  0  0  0  0  0
   55.1460   29.0290   44.8620 O   0  0  0  0  0  0  0  0  0  0  0  0
   55.5270   26.9390   45.9200 N   0  0  0  0  0  0  0  0  0  0  0  0
   56.3460   25.9330   46.3200 C   0  0  0  0  0  0  0  0  0  0  0  0
   55.8720   24.9440   46.9370 O   0  0  0  0  0  0  0  0  0  0  0  0
   57.6780   25.9950   46.0610 N   0  0  0  0  0  0  0  0  0  0  0  0
   58.2140   27.0490   45.3940 C   0  0  0  0  0  0  0  0  0  0  0  0
   59.4570   27.0840   45.1870 O   0  0  0  0  0  0  0  0  0  0  0  0
   58.0890   31.6690   44.3150 C   0  0  0  0  0  0  0  0  0  0  0  0
   58.5730   32.5930   45.2170 C   0  0  0  0  0  0  0  0  0  0  0  0
   58.5130   34.0800   45.0430 C   0  0  0  0  0  0  0  0  0  0  0  0
   59.1330   31.9680   46.2720 N   0  0  0  0  0  0  0  0  0  0  0  0
   59.7500   32.6180   47.3940 C   0  0  0  0  0  0  0  0  0  0  0  0
   61.1260   32.8790   47.3620 C   0  0  0  0  0  0  0  0  0  0  0  0
   61.7650   33.4870   48.4550 C   0  0  0  0  0  0  0  0  0  0  0  0
   63.2210   33.7570   48.4210 C   0  0  0  0  0  0  0  0  0  0  0  0
   63.7480   34.1840   47.3580 O   0  0  0  0  0  0  0  0  0  0  0  0
   64.0510   33.5120   49.5700 N   0  0  0  0  0  0  0  0  0  0  0  0
   63.7010   34.0850   50.8760 C   0  0  0  0  0  0  0  0  0  0  0  0
   64.1640   33.1620   52.0280 C   0  0  0  0  0  0  0  0  0  0  0  0
   65.0220   32.1110   51.6130 O   0  0  0  0  0  0  0  0  0  0  0  0
   66.0120   32.6020   50.7360 C   0  0  0  0  0  0  0  0  0  0  0  0
   65.3770   32.9170   49.3810 C   0  0  0  0  0  0  0  0  0  0  0  0
   61.0000   33.8600   49.5720 C   0  0  0  0  0  0  0  0  0  0  0  0
   59.6260   33.6090   49.6040 C   0  0  0  0  0  0  0  0  0  0  0  0
   58.9930   32.9880   48.5220 C   0  0  0  0  0  0  0  0  0  0  0  0
   57.6190   32.7590   48.5850 O   0  0  0  0  0  0  0  0  0  0  0  0
   60.0666   30.0307   47.8009 H   0  0  0  0  0  0  0  0  0  0  0  0
   59.5051   28.6476   46.6171 H   0  0  0  0  0  0  0  0  0  0  0  0
   58.0116   29.2272   43.1624 H   0  0  0  0  0  0  0  0  0  0  0  0
   57.6060   31.8853   43.3507 H   0  0  0  0  0  0  0  0  0  0  0  0
   58.4935   34.5642   46.0305 H   0  0  0  0  0  0  0  0  0  0  0  0
   59.3982   34.4199   44.4854 H   0  0  0  0  0  0  0  0  0  0  0  0
   57.6033   34.3475   44.4854 H   0  0  0  0  0  0  0  0  0  0  0  0
   61.7117   32.6051   46.4721 H   0  0  0  0  0  0  0  0  0  0  0  0
   64.1896   35.0649   50.9816 H   0  0  0  0  0  0  0  0  0  0  0  0
   62.6076   34.1919   50.9303 H   0  0  0  0  0  0  0  0  0  0  0  0
   64.6995   33.7743   52.7685 H   0  0  0  0  0  0  0  0  0  0  0  0
   63.2605   32.6916   52.4431 H   0  0  0  0  0  0  0  0  0  0  0  0
   66.4537   33.5175   51.1563 H   0  0  0  0  0  0  0  0  0  0  0  0
   66.7981   31.8435   50.6067 H   0  0  0  0  0  0  0  0  0  0  0  0
   66.0183   33.6244   48.8348 H   0  0  0  0  0  0  0  0  0  0  0  0
   65.2736   31.9842   48.8073 H   0  0  0  0  0  0  0  0  0  0  0  0
   61.4856   34.3529   50.4271 H   0  0  0  0  0  0  0  0  0  0  0  0
   59.0378   33.9017   50.4862 H   0  0  0  0  0  0  0  0  0  0  0  0
   57.0380   32.7130   47.7570 H   0  0  0  0  0  0  0  0  0  0  0  0
  1  2  2  0
  2  3  1  0
  3  4  2  3
  4  5  1  0
  5  6  2  0
  6  7  1  0
  6  8  1  0
  8  9  1  0
  9 10  2  0
  9 11  1  0
 11 12  1  0
 12 13  2  0
  3 14  1  0
 14 15  2  0
 15 16  1  0
 15 17  1  0
 17 18  1  0
 18 19  2  0
 19 20  1  0
 20 21  1  0
 21 22  2  0
 21 23  1  0
 23 24  1  0
 24 25  1  0
 25 26  1  0
 26 27  1  0
 27 28  1  0
 20 29  2  0
 29 30  1  0
 30 31  2  0
 31 32  1  0
 17  2  1  0
 31 18  1  0
 12  5  1  0
 28 23  1  0
  1 33  1  0
  1 34  1  0
  4 35  1  0
 14 36  1  0
 16 37  1  0
 16 38  1  0
 16 39  1  0
 19 40  1  0
 24 41  1  0
 24 42  1  0
 25 43  1  0
 25 44  1  0
 27 45  1  0
 27 46  1  0
 28 47  1  0
 28 48  1  0
 29 49  1  0
 30 50  1  0
 32 51  1  0
M  CHG  3   7  -1   8  -1  11  -1
M  END
>  <UniqueID>  (18) 
18

>  <SMILES>  (18) 
C=c1c(=Cc2c([O-])[n-]c(=O)[n-]c2=O)cc(C)n1-c1cc(C(=O)N2CCOCC2)ccc1O

>  <Energy>  (18) 
114.27155537082018

>  <Genealogy>  (18) 
C=c1c(=Cc2c([O-])[n-]c(=O)[n-]c2=O)cc(C)n1-c1cc(C(=O)N2CCOCC2)ccc1O (protonated)
C=c1c(=Cc2c([O-])[n-]c(=O)[n-]c2=O)cc(C)n1-c1cc(C(=O)N2CCOCC2)ccc1O (3D coordinates assigned)
C=c1c(=Cc2c([O-])[n-]c(=O)[n-]c2=O)cc(C)n1-c1cc(C(=O)N2CCOCC2)ccc1O (nonaromatic ring conformer: 114.27155537082018 kcal/mol)

>  <smiles>  (18) 
C=c1c(=Cc2c(O)[nH]c(=O)[nH]c2=O)cc(C)n1-c1cc(C(=O)N2CCOCC2)ccc1O

>  <score_type>  (18) 
oracle

>  <origin>  (18) 
adg

>  <m_score__min__energy>  (18) 
-16.710000000000001

>  <m_primary>  (18) 
energy

$$$$
18:0
     RDKit          3D

 60 64  0  0  1  0  0  0  0  0999 V2000
   57.7940   34.6470   52.3870 N   0  0  0  0  0  0  0  0  0  0  0  0
   58.9130   33.8050   52.4390 C   0  0  0  0  0  0  0  0  0  0  0  0
   59.9100   34.2710   53.1160 O   0  0  0  0  0  0  0  0  0  0  0  0
   59.1140   32.5070   51.8700 C   0  0  0  0  0  0  0  0  0  0  0  0
   59.1930   31.4470   52.7960 C   0  0  0  0  0  0  0  0  0  0  0  0
   59.3720   30.1790   52.4100 N   0  0  0  0  0  0  0  0  0  0  0  0
   59.2370   32.1480   50.5670 C   0  0  0  0  0  0  0  0  0  0  0  0
   59.3100   32.9980   49.6630 N   0  0  0  0  0  0  0  0  0  0  0  0
   60.7700   28.1760   50.0510 C   0  0  0  0  0  0  0  0  0  0  0  0
   60.5150   28.4010   48.6020 C   0  0  0  0  0  0  0  0  0  0  0  0
   60.9890   29.5010   47.9160 C   0  0  0  0  0  0  0  0  0  0  0  0
   60.7480   29.6980   46.5730 C   0  0  0  0  0  0  0  0  0  0  0  0
   60.0100   28.7870   45.8460 C   0  0  0  0  0  0  0  0  0  0  0  0
   59.7160   28.9430   44.4000 C   0  0  0  0  0  0  0  0  0  0  0  0
   58.5900   29.8200   44.1410 N   0  0  0  0  0  0  0  0  0  0  0  0
   57.4060   28.9480   44.1280 C   0  0  0  0  0  0  0  0  0  0  0  0
   56.1370   29.7250   43.9600 C   0  0  0  0  0  0  0  0  0  0  0  0
   56.0150   30.8370   44.7550 O   0  0  0  0  0  0  0  0  0  0  0  0
   57.1650   31.5990   44.8410 C   0  0  0  0  0  0  0  0  0  0  0  0
   58.3680   30.7600   45.2000 C   0  0  0  0  0  0  0  0  0  0  0  0
   59.5230   27.6770   46.5050 C   0  0  0  0  0  0  0  0  0  0  0  0
   59.7730   27.4950   47.8480 C   0  0  0  0  0  0  0  0  0  0  0  0
   59.4170   30.8370   50.2140 N   0  0  0  0  0  0  0  0  0  0  0  0
   59.4860   29.8560   51.1130 C   0  0  0  0  0  0  0  0  0  0  0  0
   59.6530   28.6300   50.8130 N   0  0  0  0  0  0  0  0  0  0  0  0
   60.2560   33.2020   48.6710 C   0  0  0  0  0  0  0  0  0  0  0  0
   59.8150   33.7760   47.4650 C   0  0  0  0  0  0  0  0  0  0  0  0
   60.7210   33.9280   46.4180 C   0  0  0  0  0  0  0  0  0  0  0  0
   62.0520   33.5200   46.5540 C   0  0  0  0  0  0  0  0  0  0  0  0
   62.4660   32.9600   47.7450 C   0  0  0  0  0  0  0  0  0  0  0  0
   63.6810   32.4870   48.1080 N   0  0  0  0  0  0  0  0  0  0  0  0
   63.5810   32.0340   49.3610 N   0  0  0  0  0  0  0  0  0  0  0  0
   62.3260   32.2090   49.8040 C   0  0  0  0  0  0  0  0  0  0  0  0
   61.5910   32.7930   48.8090 C   0  0  0  0  0  0  0  0  0  0  0  0
   56.8400   34.2370   52.5310 H   0  0  0  0  0  0  0  0  0  0  0  0
   57.8990   35.6730   52.2060 H   0  0  0  0  0  0  0  0  0  0  0  0
   59.1047   31.6697   53.8696 H   0  0  0  0  0  0  0  0  0  0  0  0
   59.4260   29.4160   53.1420 H   0  0  0  0  0  0  0  0  0  0  0  0
   61.6695   28.7318   50.3544 H   0  0  0  0  0  0  0  0  0  0  0  0
   60.9208   27.1014   50.2313 H   0  0  0  0  0  0  0  0  0  0  0  0
   61.5820   30.2494   48.4621 H   0  0  0  0  0  0  0  0  0  0  0  0
   61.1492   30.5929   46.0748 H   0  0  0  0  0  0  0  0  0  0  0  0
   60.6055   29.3593   43.9046 H   0  0  0  0  0  0  0  0  0  0  0  0
   59.4549   27.9487   44.0086 H   0  0  0  0  0  0  0  0  0  0  0  0
   57.4989   28.2358   43.2948 H   0  0  0  0  0  0  0  0  0  0  0  0
   57.3586   28.4262   45.0952 H   0  0  0  0  0  0  0  0  0  0  0  0
   56.0751   30.0501   42.9109 H   0  0  0  0  0  0  0  0  0  0  0  0
   55.3256   29.0469   44.2630 H   0  0  0  0  0  0  0  0  0  0  0  0
   57.3452   32.0825   43.8696 H   0  0  0  0  0  0  0  0  0  0  0  0
   57.0209   32.3472   45.6343 H   0  0  0  0  0  0  0  0  0  0  0  0
   59.2510   31.4056   45.3162 H   0  0  0  0  0  0  0  0  0  0  0  0
   58.1928   30.2303   46.1480 H   0  0  0  0  0  0  0  0  0  0  0  0
   58.9306   26.9315   45.9542 H   0  0  0  0  0  0  0  0  0  0  0  0
   59.3708   26.5992   48.3438 H   0  0  0  0  0  0  0  0  0  0  0  0
   59.5030   30.5960   49.2200 H   0  0  0  0  0  0  0  0  0  0  0  0
   58.7701   34.1001   47.3504 H   0  0  0  0  0  0  0  0  0  0  0  0
   60.3850   34.3752   45.4708 H   0  0  0  0  0  0  0  0  0  0  0  0
   62.7601   33.6441   45.7214 H   0  0  0  0  0  0  0  0  0  0  0  0
   64.5140   32.4940   47.4960 H   0  0  0  0  0  0  0  0  0  0  0  0
   61.9515   31.9297   50.7999 H   0  0  0  0  0  0  0  0  0  0  0  0
  1  2  1  0
  2  3  2  0
  2  4  1  0
  4  5  2  0
  5  6  1  0
  6  7  1  0
  7  8  2  0
  8  9  1  0
  9 10  1  0
 10 11  2  0
 11 12  1  0
 12 13  2  0
 13 14  1  0
 14 15  1  0
 15 16  1  0
 16 17  1  0
 17 18  1  0
 18 19  1  0
 19 20  1  0
 13 21  1  0
 21 22  2  0
  7 23  1  0
 23 24  1  0
 24 25  2  0
 25 26  1  0
 26 27  2  0
 27 28  1  0
 28 29  2  0
 29 30  1  0
 30 31  1  0
 31 32  1  0
 32 33  2  0
 33 34  1  0
 24  4  1  0
 34 26  1  0
 22 10  1  0
 34 30  2  0
 20 15  1  0
  1 35  1  0
  1 36  1  0
  5 37  1  0
  6 38  1  0
  9 39  1  0
  9 40  1  0
 11 41  1  0
 12 42  1  0
 14 43  1  0
 14 44  1  0
 16 45  1  0
 16 46  1  0
 17 47  1  0
 17 48  1  0
 19 49  1  0
 19 50  1  0
 20 51  1  0
 20 52  1  0
 21 53  1  0
 22 54  1  0
 23 55  1  0
 27 56  1  0
 28 57  1  0
 29 58  1  0
 31 59  1  0
 33 60  1  0
M  END
>  <smiles>  (19) 
NC(=O)c1c[nH]c(=NCc2ccc(CN3CCOCC3)cc2)[nH]c1=Nc1cccc2[nH]ncc12

>  <score_type>  (19) 
oracle

>  <origin>  (19) 
adg

>  <m_score__min__energy>  (19) 
-9.8900000000000006

>  <m_primary>  (19) 
energy

$$$$
19:0
     RDKit          3D

 35 37  0  0  0  0  0  0  0  0999 V2000
   59.4830   35.2260   46.0120 H   0  0  0  0  0  0  0  0  0  0  0  0
   60.4650   35.0150   46.1460 O   0  0  0  0  0  0  0  0  0  0  0  0
   60.9020   34.0280   47.0300 C   0  0  0  0  0  0  0  0  0  0  0  0
   62.2750   33.8330   47.2080 C   0  0  0  0  0  0  0  0  0  0  0  0
   62.9940   34.4521   46.6514 H   0  0  0  0  0  0  0  0  0  0  0  0
   62.7350   32.8550   48.0900 C   0  0  0  0  0  0  0  0  0  0  0  0
   63.8144   32.6995   48.2339 H   0  0  0  0  0  0  0  0  0  0  0  0
   61.8120   32.0770   48.7870 C   0  0  0  0  0  0  0  0  0  0  0  0
   62.1623   31.3026   49.4852 H   0  0  0  0  0  0  0  0  0  0  0  0
   60.4810   32.2740   48.6050 N   0  0  0  0  0  0  0  0  0  0  0  0
   59.9970   33.2200   47.7460 C   0  0  0  0  0  0  0  0  0  0  0  0
   58.7150   33.4020   47.6120 N   0  0  0  0  0  0  0  0  0  0  0  0
   58.0020   33.4520   46.3660 C   0  0  0  0  0  0  0  0  0  0  0  0
   57.4860   34.5450   46.0100 O   0  0  0  0  0  0  0  0  0  0  0  0
   57.9130   32.2780   45.4660 C   0  0  0  0  0  0  0  0  0  0  0  0
   57.3950   32.4190   44.1690 C   0  0  0  0  0  0  0  0  0  0  0  0
   57.0347   33.4004   43.8271 H   0  0  0  0  0  0  0  0  0  0  0  0
   57.3350   31.3180   43.3100 C   0  0  0  0  0  0  0  0  0  0  0  0
   56.9219   31.4344   42.2972 H   0  0  0  0  0  0  0  0  0  0  0  0
   57.7980   30.0710   43.7340 C   0  0  0  0  0  0  0  0  0  0  0  0
   57.7544   29.2104   43.0502 H   0  0  0  0  0  0  0  0  0  0  0  0
   58.3170   29.9090   45.0230 C   0  0  0  0  0  0  0  0  0  0  0  0
   58.8020   28.6470   45.3990 O   0  0  0  0  0  0  0  0  0  0  0  0
   58.0240   27.5920   45.8970 C   0  0  0  0  0  0  0  0  0  0  0  0
   58.6500   26.5620   46.6070 C   0  0  0  0  0  0  0  0  0  0  0  0
   59.7367   26.5942   46.7745 H   0  0  0  0  0  0  0  0  0  0  0  0
   57.9210   25.5210   47.0910 N   0  0  0  0  0  0  0  0  0  0  0  0
   56.5780   25.4360   46.8960 C   0  0  0  0  0  0  0  0  0  0  0  0
   56.0153   24.5847   47.3067 H   0  0  0  0  0  0  0  0  0  0  0  0
   55.9130   26.4300   46.1740 C   0  0  0  0  0  0  0  0  0  0  0  0
   54.5460   26.3390   45.9550 O   0  0  0  0  0  0  0  0  0  0  0  0
   56.6400   27.5100   45.6680 C   0  0  0  0  0  0  0  0  0  0  0  0
   56.1298   28.2953   45.0910 H   0  0  0  0  0  0  0  0  0  0  0  0
   58.3880   31.0210   45.8820 C   0  0  0  0  0  0  0  0  0  0  0  0
   58.8187   30.9065   46.8877 H   0  0  0  0  0  0  0  0  0  0  0  0
  1  2  1  0
  2  3  1  0
  3  4  2  0
  4  5  1  0
  4  6  1  0
  6  7  1  0
  6  8  2  0
  8  9  1  0
  8 10  1  0
 10 11  1  0
 11 12  2  0
 12 13  1  0
 13 14  2  0
 13 15  1  0
 15 16  2  0
 16 17  1  0
 16 18  1  0
 18 19  1  0
 18 20  2  0
 20 21  1  0
 20 22  1  0
 22 23  1  0
 23 24  1  0
 24 25  2  0
 25 26  1  0
 25 27  1  0
 27 28  2  0
 28 29  1  0
 28 30  1  0
 30 31  1  0
 30 32  2  0
 32 33  1  0
 22 34  2  0
 34 35  1  0
 11  3  1  0
 34 15  1  0
 32 24  1  0
M  CHG  2  10  -1  31  -1
M  END
>  <UniqueID>  (20) 
19

>  <SMILES>  (20) 
O=C(/N=c1\[n-]cccc1O)c1cccc(Oc2cncc([O-])c2)c1

>  <Energy>  (20) 
52.45165663919127

>  <Genealogy>  (20) 
O=C(N=c1[n-]cccc1O)c1cccc(Oc2cncc([O-])c2)c1 (protonated)
O=C(/N=c1\[n-]cccc1O)c1cccc(Oc2cncc([O-])c2)c1 (cis-trans isomerization)
O=C(/N=c1\[n-]cccc1O)c1cccc(Oc2cncc([O-])c2)c1 (3D coordinates assigned)
O=C(/N=c1\[n-]cccc1O)c1cccc(Oc2cncc([O-])c2)c1 (optimized conformer: 52.45165663919127 kcal/mol)

>  <smiles>  (20) 
O=C(N=c1[nH]cccc1O)c1cccc(Oc2cncc(O)c2)c1

>  <score_type>  (20) 
oracle

>  <origin>  (20) 
adg

>  <m_score__min__energy>  (20) 
-12.539999999999999

>  <m_primary>  (20) 
energy

$$$$
20:0
     RDKit          3D

 37 39  0  0  0  0  0  0  0  0999 V2000
   55.9490   34.8770   45.6740 H   0  0  0  0  0  0  0  0  0  0  0  0
   56.6440   34.2650   45.1920 N   0  0  0  0  0  0  0  0  0  0  0  0
   57.3970   33.4560   45.8600 C   0  0  0  0  0  0  0  0  0  0  0  0
   57.5080   32.1380   45.6090 N   0  0  0  0  0  0  0  0  0  0  0  0
   58.3810   31.5400   46.4830 C   0  0  0  0  0  0  0  0  0  0  0  0
   58.6610   30.1250   46.4210 N   0  0  0  0  0  0  0  0  0  0  0  0
   59.4580   29.4700   47.4630 C   0  0  0  0  0  0  0  0  0  0  0  0
   60.4839   29.3180   47.0963 H   0  0  0  0  0  0  0  0  0  0  0  0
   59.4750   30.1061   48.3603 H   0  0  0  0  0  0  0  0  0  0  0  0
   58.8410   28.1200   47.8150 C   0  0  0  0  0  0  0  0  0  0  0  0
   59.5350   27.5642   48.4627 H   0  0  0  0  0  0  0  0  0  0  0  0
   57.8873   28.2932   48.3350 H   0  0  0  0  0  0  0  0  0  0  0  0
   58.5800   27.3340   46.6030 N   0  0  0  0  0  0  0  0  0  0  0  0
   58.5600   25.9040   46.7600 C   0  0  0  0  0  0  0  0  0  0  0  0
   59.5660   25.2210   46.4270 O   0  0  0  0  0  0  0  0  0  0  0  0
   57.3620   25.2230   47.3490 C   0  0  0  0  0  0  0  0  0  0  0  0
   57.6939   24.4101   48.0116 H   0  0  0  0  0  0  0  0  0  0  0  0
   56.7755   25.9554   47.9231 H   0  0  0  0  0  0  0  0  0  0  0  0
   56.5100   24.6570   46.2590 C   0  0  0  0  0  0  0  0  0  0  0  0
   56.7160   23.4580   45.6850 N   0  0  0  0  0  0  0  0  0  0  0  0
   55.6670   23.3340   44.8420 C   0  0  0  0  0  0  0  0  0  0  0  0
   55.5040   22.3250   44.1080 O   0  0  0  0  0  0  0  0  0  0  0  0
   54.8020   24.3710   44.8560 N   0  0  0  0  0  0  0  0  0  0  0  0
   55.3470   25.1960   45.7640 C   0  0  0  0  0  0  0  0  0  0  0  0
   54.7880   26.4110   46.1460 O   0  0  0  0  0  0  0  0  0  0  0  0
   54.7670   26.6850   47.1210 H   0  0  0  0  0  0  0  0  0  0  0  0
   57.8230   27.9820   45.5110 C   0  0  2  0  0  0  0  0  0  0  0  0
   56.7875   28.0885   45.8664 H   0  0  0  0  0  0  0  0  0  0  0  0
   57.8040   27.1350   44.2240 C   0  0  0  0  0  0  0  0  0  0  0  0
   57.7801   26.0674   44.4880 H   0  0  0  0  0  0  0  0  0  0  0  0
   56.9113   27.3866   43.6326 H   0  0  0  0  0  0  0  0  0  0  0  0
   58.7071   27.3463   43.6326 H   0  0  0  0  0  0  0  0  0  0  0  0
   58.4250   29.3630   45.1890 C   0  0  0  0  0  0  0  0  0  0  0  0
   59.3798   29.2265   44.6601 H   0  0  0  0  0  0  0  0  0  0  0  0
   57.7163   29.9199   44.5585 H   0  0  0  0  0  0  0  0  0  0  0  0
   58.9630   32.3440   47.4210 N   0  0  0  0  0  0  0  0  0  0  0  0
   58.3600   33.8690   47.1410 S   0  0  0  0  0  0  0  0  0  0  0  0
  1  2  1  0
  2  3  2  0
  3  4  1  0
  4  5  2  0
  5  6  1  0
  6  7  1  0
  7  8  1  0
  7  9  1  0
  7 10  1  0
 10 11  1  0
 10 12  1  0
 10 13  1  0
 13 14  1  0
 14 15  2  0
 14 16  1  0
 16 17  1  0
 16 18  1  0
 16 19  1  0
 19 20  1  0
 20 21  1  0
 21 22  2  0
 21 23  1  0
 23 24  1  0
 24 25  1  0
 25 26  1  0
 13 27  1  0
 27 28  1  1
 27 29  1  0
 29 30  1  0
 29 31  1  0
 29 32  1  0
 27 33  1  0
 33 34  1  0
 33 35  1  0
  5 36  1  0
 36 37  1  0
 37  3  1  0
 33  6  1  0
 24 19  2  0
M  CHG  3  20  -1  23  -1  36  -1
M  END
>  <UniqueID>  (21) 
20

>  <SMILES>  (21) 
[H]/N=c1\nc(N2CCN(C(=O)Cc3[n-]c(=O)[n-]c3O)[C@H](C)C2)[n-]s1

>  <Energy>  (21) 
105.36969861227429

>  <Genealogy>  (21) 
CC1CN(c2nc(=N)s[n-]2)CCN1C(=O)Cc1[n-]c(=O)[n-]c1O (protonated)
C[C@@H]1CN(c2nc(=N)s[n-]2)CCN1C(=O)Cc1[n-]c(=O)[n-]c1O (chirality)
[H]/N=c1\nc(N2CCN(C(=O)Cc3[n-]c(=O)[n-]c3O)[C@H](C)C2)[n-]s1 (cis-trans isomerization)
[H]/N=c1\nc(N2CCN(C(=O)Cc3[n-]c(=O)[n-]c3O)[C@H](C)C2)[n-]s1 (3D coordinates assigned)
[H]/N=c1\nc(N2CCN(C(=O)Cc3[n-]c(=O)[n-]c3O)[C@H](C)C2)[n-]s1 (nonaromatic ring conformer: 105.36969861227429 kcal/mol)

>  <smiles>  (21) 
CC1CN(c2nc(=N)s[nH]2)CCN1C(=O)Cc1[nH]c(=O)[nH]c1O

>  <score_type>  (21) 
oracle

>  <origin>  (21) 
adg

>  <m_score__min__energy>  (21) 
-12.359999999999999

>  <m_primary>  (21) 
energy

$$$$
21:0
     RDKit          3D

 65 69  0  0  0  0  0  0  0  0999 V2000
   60.2040   32.2290   51.6590 C   0  0  0  0  0  0  0  0  0  0  0  0
   60.0190   31.1300   50.9110 C   0  0  0  0  0  0  0  0  0  0  0  0
   59.2860   29.9820   51.2570 C   0  0  0  0  0  0  0  0  0  0  0  0
   58.4690   29.7330   52.3000 C   0  0  0  0  0  0  0  0  0  0  0  0
   57.0280   30.0150   52.3480 C   0  0  0  0  0  0  0  0  0  0  0  0
   56.1010   29.0870   52.6450 N   0  0  0  0  0  0  0  0  0  0  0  0
   54.9350   29.7390   52.4450 C   0  0  0  0  0  0  0  0  0  0  0  0
   53.8150   29.1990   52.6420 O   0  0  0  0  0  0  0  0  0  0  0  0
   55.0620   31.0110   52.0100 N   0  0  0  0  0  0  0  0  0  0  0  0
   56.3930   31.1650   51.9370 C   0  0  0  0  0  0  0  0  0  0  0  0
   57.0170   32.3230   51.4830 O   0  0  0  0  0  0  0  0  0  0  0  0
   59.5370   29.0510   50.2660 C   0  0  0  0  0  0  0  0  0  0  0  0
   60.3390   29.6660   49.3290 C   0  0  0  0  0  0  0  0  0  0  0  0
   60.7310   29.0310   48.0270 C   0  0  0  0  0  0  0  0  0  0  0  0
   60.6520   30.9210   49.7260 N   0  0  0  0  0  0  0  0  0  0  0  0
   61.4330   31.8800   48.9830 C   0  0  0  0  0  0  0  0  0  0  0  0
   62.8310   31.8650   49.1140 C   0  0  0  0  0  0  0  0  0  0  0  0
   63.6150   32.8230   48.4710 C   0  0  0  0  0  0  0  0  0  0  0  0
   63.0110   33.8150   47.7000 C   0  0  0  0  0  0  0  0  0  0  0  0
   61.6220   33.8440   47.5580 C   0  0  0  0  0  0  0  0  0  0  0  0
   60.8220   32.8730   48.1800 C   0  0  0  0  0  0  0  0  0  0  0  0
   59.3600   32.9330   47.9990 C   0  0  0  0  0  0  0  0  0  0  0  0
   58.6130   32.6400   48.9720 O   0  0  0  0  0  0  0  0  0  0  0  0
   58.7790   33.3360   46.7460 N   0  0  0  0  0  0  0  0  0  0  0  0
   59.2290   34.5720   46.1010 C   0  0  0  0  0  0  0  0  0  0  0  0
   59.1330   34.4570   44.5710 C   0  0  0  0  0  0  0  0  0  0  0  0
   57.9060   33.7780   44.0750 N   0  0  0  0  0  0  0  0  0  0  0  0
   58.2190   32.6050   43.2310 C   0  0  0  0  0  0  0  0  0  0  0  0
   57.8210   31.3230   43.9110 C   0  0  0  0  0  0  0  0  0  0  0  0
   56.5170   30.8260   43.7700 C   0  0  0  0  0  0  0  0  0  0  0  0
   56.1420   29.6350   44.4000 C   0  0  0  0  0  0  0  0  0  0  0  0
   57.0680   28.9150   45.1730 C   0  0  0  0  0  0  0  0  0  0  0  0
   56.6680   27.6560   45.8380 C   0  0  0  0  0  0  0  0  0  0  0  0
   55.5240   27.1660   45.6440 O   0  0  0  0  0  0  0  0  0  0  0  0
   57.5480   26.9960   46.6880 O   0  0  0  0  0  0  0  0  0  0  0  0
   58.3780   29.4120   45.3030 C   0  0  0  0  0  0  0  0  0  0  0  0
   58.7510   30.6050   44.6780 C   0  0  0  0  0  0  0  0  0  0  0  0
   56.9100   33.4770   45.1290 C   0  0  0  0  0  0  0  0  0  0  0  0
   57.5230   32.7180   46.3120 C   0  0  0  0  0  0  0  0  0  0  0  0
   60.8036   33.0649   51.2695 H   0  0  0  0  0  0  0  0  0  0  0  0
   59.7560   32.2938   52.6616 H   0  0  0  0  0  0  0  0  0  0  0  0
   58.9212   29.2786   53.1939 H   0  0  0  0  0  0  0  0  0  0  0  0
   57.0200   32.5560   50.4970 H   0  0  0  0  0  0  0  0  0  0  0  0
   59.1668   28.0157   50.2319 H   0  0  0  0  0  0  0  0  0  0  0  0
   61.2994   28.1102   48.2246 H   0  0  0  0  0  0  0  0  0  0  0  0
   59.8262   28.7869   47.4510 H   0  0  0  0  0  0  0  0  0  0  0  0
   61.3547   29.7305   47.4510 H   0  0  0  0  0  0  0  0  0  0  0  0
   63.3124   31.0906   49.7294 H   0  0  0  0  0  0  0  0  0  0  0  0
   64.7100   32.7957   48.5724 H   0  0  0  0  0  0  0  0  0  0  0  0
   63.6297   34.5764   47.2025 H   0  0  0  0  0  0  0  0  0  0  0  0
   61.1514   34.6338   46.9541 H   0  0  0  0  0  0  0  0  0  0  0  0
   58.5972   35.4062   46.4401 H   0  0  0  0  0  0  0  0  0  0  0  0
   60.2792   34.7502   46.3755 H   0  0  0  0  0  0  0  0  0  0  0  0
   59.1572   35.4725   44.1488 H   0  0  0  0  0  0  0  0  0  0  0  0
   59.9827   33.8356   44.2520 H   0  0  0  0  0  0  0  0  0  0  0  0
   57.6728   32.6913   42.2801 H   0  0  0  0  0  0  0  0  0  0  0  0
   59.3045   32.5829   43.0544 H   0  0  0  0  0  0  0  0  0  0  0  0
   55.7851   31.3761   43.1604 H   0  0  0  0  0  0  0  0  0  0  0  0
   55.1141   29.2592   44.2894 H   0  0  0  0  0  0  0  0  0  0  0  0
   59.1149   28.8566   45.9018 H   0  0  0  0  0  0  0  0  0  0  0  0
   59.7782   30.9828   44.7878 H   0  0  0  0  0  0  0  0  0  0  0  0
   56.4879   34.4238   45.4971 H   0  0  0  0  0  0  0  0  0  0  0  0
   56.1343   32.8360   44.6846 H   0  0  0  0  0  0  0  0  0  0  0  0
   56.8111   32.7255   47.1505 H   0  0  0  0  0  0  0  0  0  0  0  0
   57.7350   31.6872   45.9917 H   0  0  0  0  0  0  0  0  0  0  0  0
  1  2  2  0
  2  3  1  0
  3  4  2  3
  4  5  1  0
  5  6  1  0
  6  7  1  0
  7  8  2  0
  7  9  1  0
  9 10  1  0
 10 11  1  0
  3 12  1  0
 12 13  2  0
 13 14  1  0
 13 15  1  0
 15 16  1  0
 16 17  2  0
 17 18  1  0
 18 19  2  0
 19 20  1  0
 20 21  2  0
 21 22  1  0
 22 23  2  0
 22 24  1  0
 24 25  1  0
 25 26  1  0
 26 27  1  0
 27 28  1  0
 28 29  1  0
 29 30  2  0
 30 31  1  0
 31 32  2  0
 32 33  1  0
 33 34  2  0
 33 35  1  0
 32 36  1  0
 36 37  2  0
 27 38  1  0
 38 39  1  0
 15  2  1  0
 21 16  1  0
 39 24  1  0
 10  5  2  0
 37 29  1  0
  1 40  1  0
  1 41  1  0
  4 42  1  0
 11 43  1  0
 12 44  1  0
 14 45  1  0
 14 46  1  0
 14 47  1  0
 17 48  1  0
 18 49  1  0
 19 50  1  0
 20 51  1  0
 25 52  1  0
 25 53  1  0
 26 54  1  0
 26 55  1  0
 28 56  1  0
 28 57  1  0
 30 58  1  0
 31 59  1  0
 36 60  1  0
 37 61  1  0
 38 62  1  0
 38 63  1  0
 39 64  1  0
 39 65  1  0
M  CHG  3   6  -1   9  -1  35  -1
M  END
>  <UniqueID>  (22) 
21

>  <SMILES>  (22) 
C=c1c(=Cc2[n-]c(=O)[n-]c2O)cc(C)n1-c1ccccc1C(=O)N1CCN(Cc2ccc(C(=O)[O-])cc2)CC1

>  <Energy>  (22) 
157.34457573102748

>  <Genealogy>  (22) 
C=c1c(=Cc2[n-]c(=O)[n-]c2O)cc(C)n1-c1ccccc1C(=O)N1CCN(Cc2ccc(C(=O)[O-])cc2)CC1 (protonated)
C=c1c(=Cc2[n-]c(=O)[n-]c2O)cc(C)n1-c1ccccc1C(=O)N1CCN(Cc2ccc(C(=O)[O-])cc2)CC1 (3D coordinates assigned)
C=c1c(=Cc2[n-]c(=O)[n-]c2O)cc(C)n1-c1ccccc1C(=O)N1CCN(Cc2ccc(C(=O)[O-])cc2)CC1 (nonaromatic ring conformer: 157.34457573102748 kcal/mol)

>  <smiles>  (22) 
C=c1c(=Cc2[nH]c(=O)[nH]c2O)cc(C)n1-c1ccccc1C(=O)N1CCN(Cc2ccc(C(=O)O)cc2)CC1

>  <score_type>  (22) 
oracle

>  <origin>  (22) 
adg

>  <m_score__min__energy>  (22) 
-15.69

>  <m_primary>  (22) 
energy

$$$$
22:0
     RDKit          3D

 32 34  0  0  0  0  0  0  0  0999 V2000
   56.1140   31.6420   52.1450 C   0  0  0  0  0  0  0  0  0  0  0  0
   55.4580   30.5910   52.6620 C   0  0  0  0  0  0  0  0  0  0  0  0
   54.0660   30.4050   52.7260 C   0  0  0  0  0  0  0  0  0  0  0  0
   53.0480   31.2540   52.4840 C   0  0  0  0  0  0  0  0  0  0  0  0
   52.2920   31.3520   51.2260 C   0  0  0  0  0  0  0  0  0  0  0  0
   52.2810   30.3880   50.2890 N   0  0  0  0  0  0  0  0  0  0  0  0
   51.3750   30.8350   49.3930 C   0  0  0  0  0  0  0  0  0  0  0  0
   51.0910   30.2020   48.3420 O   0  0  0  0  0  0  0  0  0  0  0  0
   50.7860   32.0070   49.7160 N   0  0  0  0  0  0  0  0  0  0  0  0
   51.3660   32.3130   50.8880 C   0  0  0  0  0  0  0  0  0  0  0  0
   51.0370   33.4320   51.6430 O   0  0  0  0  0  0  0  0  0  0  0  0
   53.8690   29.0930   53.1240 C   0  0  0  0  0  0  0  0  0  0  0  0
   55.1160   28.5520   53.3540 C   0  0  0  0  0  0  0  0  0  0  0  0
   55.3620   27.1480   53.8200 C   0  0  0  0  0  0  0  0  0  0  0  0
   56.0800   29.4550   53.0710 N   0  0  0  0  0  0  0  0  0  0  0  0
   57.4970   29.2310   53.1650 C   0  0  0  0  0  0  0  0  0  0  0  0
   58.3120   29.3760   52.0340 C   0  0  0  0  0  0  0  0  0  0  0  0
   59.6870   29.1620   52.1340 C   0  0  0  0  0  0  0  0  0  0  0  0
   60.2350   28.8020   53.3670 C   0  0  0  0  0  0  0  0  0  0  0  0
   59.4320   28.6590   54.4540 N   0  0  0  0  0  0  0  0  0  0  0  0
   58.0880   28.8620   54.3840 C   0  0  0  0  0  0  0  0  0  0  0  0
   57.3270   28.6840   55.4910 F   0  0  0  0  0  0  0  0  0  0  0  0
   57.2137   31.6643   52.1574 H   0  0  0  0  0  0  0  0  0  0  0  0
   55.5518   32.4809   51.7089 H   0  0  0  0  0  0  0  0  0  0  0  0
   52.7568   31.9334   53.2986 H   0  0  0  0  0  0  0  0  0  0  0  0
   52.9021   28.5805   53.2353 H   0  0  0  0  0  0  0  0  0  0  0  0
   55.3665   27.1222   54.9197 H   0  0  0  0  0  0  0  0  0  0  0  0
   54.5653   26.4910   53.4411 H   0  0  0  0  0  0  0  0  0  0  0  0
   56.3346   26.8010   53.4411 H   0  0  0  0  0  0  0  0  0  0  0  0
   57.8678   29.6584   51.0681 H   0  0  0  0  0  0  0  0  0  0  0  0
   60.3328   29.2757   51.2508 H   0  0  0  0  0  0  0  0  0  0  0  0
   61.3182   28.6339   53.4585 H   0  0  0  0  0  0  0  0  0  0  0  0
  1  2  2  0
  2  3  1  0
  3  4  2  3
  4  5  1  0
  5  6  1  0
  6  7  1  0
  7  8  2  0
  7  9  1  0
  9 10  1  0
 10 11  1  0
  3 12  1  0
 12 13  2  0
 13 14  1  0
 13 15  1  0
 15 16  1  0
 16 17  2  0
 17 18  1  0
 18 19  2  0
 19 20  1  0
 20 21  2  0
 21 22  1  0
 15  2  1  0
 21 16  1  0
 10  5  2  0
  1 23  1  0
  1 24  1  0
  4 25  1  0
 12 26  1  0
 14 27  1  0
 14 28  1  0
 14 29  1  0
 17 30  1  0
 18 31  1  0
 19 32  1  0
M  CHG  3   6  -1   9  -1  11  -1
M  END
>  <UniqueID>  (23) 
22

>  <SMILES>  (23) 
C=c1c(=Cc2[n-]c(=O)[n-]c2[O-])cc(C)n1-c1cccnc1F

>  <Energy>  (23) 
111.50714452931003

>  <Genealogy>  (23) 
C=c1c(=Cc2[n-]c(=O)[n-]c2[O-])cc(C)n1-c1cccnc1F (protonated)
C=c1c(=Cc2[n-]c(=O)[n-]c2[O-])cc(C)n1-c1cccnc1F (3D coordinates assigned)
C=c1c(=Cc2[n-]c(=O)[n-]c2[O-])cc(C)n1-c1cccnc1F (optimized conformer: 111.50714452931003 kcal/mol)

>  <smiles>  (23) 
C=c1c(=Cc2[nH]c(=O)[nH]c2O)cc(C)n1-c1cccnc1F

>  <score_type>  (23) 
oracle

>  <origin>  (23) 
adg

>  <m_score__min__energy>  (23) 
-15.25

>  <m_primary>  (23) 
energy

$$$$
23:0
     RDKit          3D

 72 76  0  0  0  0  0  0  0  0999 V2000
   62.7570   32.5840   49.1170 C   0  0  0  0  0  0  0  0  0  0  0  0
   61.9110   32.8680   50.3500 C   0  0  0  0  0  0  0  0  0  0  0  0
   62.2130   32.2070   51.5780 C   0  0  0  0  0  0  0  0  0  0  0  0
   63.4600   31.3450   51.8380 C   0  0  2  0  0  0  0  0  0  0  0  0
   64.6340   32.0720   51.5430 O   0  0  0  0  0  0  0  0  0  0  0  0
   63.4550   30.0080   51.1780 N   0  0  0  0  0  0  0  0  0  0  0  0
   62.2850   29.1670   51.5020 C   0  0  0  0  0  0  0  0  0  0  0  0
   61.2100   29.2340   50.4550 C   0  0  0  0  0  0  0  0  0  0  0  0
   61.4270   29.5910   49.1670 N   0  0  0  0  0  0  0  0  0  0  0  0
   60.2650   29.6630   48.4590 C   0  0  0  0  0  0  0  0  0  0  0  0
   59.1130   29.3840   49.1850 C   0  0  0  0  0  0  0  0  0  0  0  0
   59.5650   29.0380   50.7690 S   0  0  0  0  0  0  0  0  0  0  0  0
   61.3370   32.3800   52.6530 C   0  0  0  0  0  0  0  0  0  0  0  0
   60.2100   33.1830   52.5540 C   0  0  0  0  0  0  0  0  0  0  0  0
   59.3060   33.3610   53.7570 C   0  0  0  0  0  0  0  0  0  0  0  0
   58.7360   32.0410   54.2190 C   0  0  0  0  0  0  0  0  0  0  0  0
   59.0950   31.5960   55.3460 O   0  0  0  0  0  0  0  0  0  0  0  0
   57.8180   31.2670   53.4100 N   0  0  0  0  0  0  0  0  0  0  0  0
   57.0640   31.8850   52.3120 C   0  0  0  0  0  0  0  0  0  0  0  0
   55.7720   31.1030   52.0440 C   0  0  0  0  0  0  0  0  0  0  0  0
   56.0500   29.7240   51.8730 O   0  0  0  0  0  0  0  0  0  0  0  0
   56.5490   29.1860   53.0820 C   0  0  0  0  0  0  0  0  0  0  0  0
   57.9070   29.8010   53.4300 C   0  0  0  0  0  0  0  0  0  0  0  0
   59.9620   33.8510   51.3480 C   0  0  0  0  0  0  0  0  0  0  0  0
   58.9340   34.5840   51.2510 O   0  0  0  0  0  0  0  0  0  0  0  0
   60.8280   33.7330   50.2860 N   0  0  0  0  0  0  0  0  0  0  0  0
   60.5420   34.5340   49.0710 C   0  0  0  0  0  0  0  0  0  0  0  0
   59.8030   33.7410   48.0090 C   0  0  0  0  0  0  0  0  0  0  0  0
   58.9130   32.6980   48.3310 C   0  0  0  0  0  0  0  0  0  0  0  0
   58.2800   31.9680   47.3220 C   0  0  0  0  0  0  0  0  0  0  0  0
   58.5210   32.2600   45.9690 C   0  0  0  0  0  0  0  0  0  0  0  0
   57.8470   31.4770   44.9010 C   0  0  0  0  0  0  0  0  0  0  0  0
   57.3540   30.1840   45.1680 C   0  0  0  0  0  0  0  0  0  0  0  0
   56.7530   29.4300   44.1530 C   0  0  0  0  0  0  0  0  0  0  0  0
   56.6260   29.9610   42.8680 C   0  0  0  0  0  0  0  0  0  0  0  0
   57.1030   31.2460   42.5910 C   0  0  0  0  0  0  0  0  0  0  0  0
   57.7140   32.0000   43.6000 C   0  0  0  0  0  0  0  0  0  0  0  0
   59.4150   33.2950   45.6470 C   0  0  0  0  0  0  0  0  0  0  0  0
   60.0490   34.0260   46.6570 C   0  0  0  0  0  0  0  0  0  0  0  0
   63.7573   32.2482   49.4280 H   0  0  0  0  0  0  0  0  0  0  0  0
   62.2767   31.7978   48.5159 H   0  0  0  0  0  0  0  0  0  0  0  0
   62.8484   33.5007   48.5159 H   0  0  0  0  0  0  0  0  0  0  0  0
   63.4373   31.1111   52.9126 H   0  0  0  0  0  0  0  0  0  0  0  0
   64.9020   32.6040   52.3400 H   0  0  0  0  0  0  0  0  0  0  0  0
   64.3230   29.4970   51.4680 H   0  0  0  0  0  0  0  0  0  0  0  0
   63.5220   30.0840   50.1400 H   0  0  0  0  0  0  0  0  0  0  0  0
   62.6184   28.1230   51.5966 H   0  0  0  0  0  0  0  0  0  0  0  0
   61.8556   29.5459   52.4412 H   0  0  0  0  0  0  0  0  0  0  0  0
   60.2404   29.9230   47.3905 H   0  0  0  0  0  0  0  0  0  0  0  0
   58.0853   29.3885   48.7928 H   0  0  0  0  0  0  0  0  0  0  0  0
   61.5466   31.8660   53.6027 H   0  0  0  0  0  0  0  0  0  0  0  0
   59.8867   33.8069   54.5780 H   0  0  0  0  0  0  0  0  0  0  0  0
   58.4710   34.0162   53.4682 H   0  0  0  0  0  0  0  0  0  0  0  0
   56.8112   32.9205   52.5837 H   0  0  0  0  0  0  0  0  0  0  0  0
   57.6833   31.8732   51.4030 H   0  0  0  0  0  0  0  0  0  0  0  0
   55.0885   31.2310   52.8963 H   0  0  0  0  0  0  0  0  0  0  0  0
   55.3088   31.4882   51.1236 H   0  0  0  0  0  0  0  0  0  0  0  0
   55.8374   29.4002   53.8931 H   0  0  0  0  0  0  0  0  0  0  0  0
   56.6742   28.1000   52.9600 H   0  0  0  0  0  0  0  0  0  0  0  0
   58.2102   29.4687   54.4338 H   0  0  0  0  0  0  0  0  0  0  0  0
   58.6502   29.4756   52.6872 H   0  0  0  0  0  0  0  0  0  0  0  0
   59.9260   35.3994   49.3566 H   0  0  0  0  0  0  0  0  0  0  0  0
   61.5063   34.8455   48.6430 H   0  0  0  0  0  0  0  0  0  0  0  0
   58.7147   32.4562   49.3856 H   0  0  0  0  0  0  0  0  0  0  0  0
   57.5865   31.1571   47.5893 H   0  0  0  0  0  0  0  0  0  0  0  0
   57.4420   29.7643   46.1810 H   0  0  0  0  0  0  0  0  0  0  0  0
   56.3803   28.4177   44.3682 H   0  0  0  0  0  0  0  0  0  0  0  0
   56.1504   29.3681   42.0729 H   0  0  0  0  0  0  0  0  0  0  0  0
   56.9980   31.6648   41.5793 H   0  0  0  0  0  0  0  0  0  0  0  0
   58.0929   33.0079   43.3752 H   0  0  0  0  0  0  0  0  0  0  0  0
   59.6179   33.5323   44.5922 H   0  0  0  0  0  0  0  0  0  0  0  0
   60.7475   34.8324   46.3889 H   0  0  0  0  0  0  0  0  0  0  0  0
  1  2  1  0
  2  3  2  0
  3  4  1  0
  4  5  1  0
  4  6  1  0
  6  7  1  0
  7  8  1  0
  8  9  2  0
  9 10  1  0
 10 11  2  0
 11 12  1  0
  3 13  1  0
 13 14  2  0
 14 15  1  0
 15 16  1  0
 16 17  2  0
 16 18  1  0
 18 19  1  0
 19 20  1  0
 20 21  1  0
 21 22  1  0
 22 23  1  0
 14 24  1  0
 24 25  2  0
 24 26  1  0
 26 27  1  0
 27 28  1  0
 28 29  2  0
 29 30  1  0
 30 31  2  0
 31 32  1  0
 32 33  2  0
 33 34  1  0
 34 35  2  0
 35 36  1  0
 36 37  2  0
 31 38  1  0
 38 39  2  0
 26  2  1  0
 39 28  1  0
 12  8  1  0
 23 18  1  0
 37 32  1  0
  1 40  1  0
  1 41  1  0
  1 42  1  0
  4 43  1  1
  5 44  1  0
  6 45  1  0
  6 46  1  0
  7 47  1  0
  7 48  1  0
 10 49  1  0
 11 50  1  0
 13 51  1  0
 15 52  1  0
 15 53  1  0
 19 54  1  0
 19 55  1  0
 20 56  1  0
 20 57  1  0
 22 58  1  0
 22 59  1  0
 23 60  1  0
 23 61  1  0
 27 62  1  0
 27 63  1  0
 29 64  1  0
 30 65  1  0
 33 66  1  0
 34 67  1  0
 35 68  1  0
 36 69  1  0
 37 70  1  0
 38 71  1  0
 39 72  1  0
M  CHG  1   6   1
M  END
>  <UniqueID>  (24) 
23

>  <SMILES>  (24) 
Cc1c([C@H](O)[NH2+]Cc2nccs2)cc(CC(=O)N2CCOCC2)c(=O)n1Cc1ccc(-c2ccccc2)cc1

>  <Energy>  (24) 
133.04421439879832

>  <Genealogy>  (24) 
Cc1c(C(O)[NH2+]Cc2nccs2)cc(CC(=O)N2CCOCC2)c(=O)n1Cc1ccc(-c2ccccc2)cc1 (protonated)
Cc1c([C@H](O)[NH2+]Cc2nccs2)cc(CC(=O)N2CCOCC2)c(=O)n1Cc1ccc(-c2ccccc2)cc1 (chirality)
Cc1c([C@H](O)[NH2+]Cc2nccs2)cc(CC(=O)N2CCOCC2)c(=O)n1Cc1ccc(-c2ccccc2)cc1 (3D coordinates assigned)
Cc1c([C@H](O)[NH2+]Cc2nccs2)cc(CC(=O)N2CCOCC2)c(=O)n1Cc1ccc(-c2ccccc2)cc1 (nonaromatic ring conformer: 133.04421439879832 kcal/mol)

>  <smiles>  (24) 
Cc1c(C(O)NCc2nccs2)cc(CC(=O)N2CCOCC2)c(=O)n1Cc1ccc(-c2ccccc2)cc1

>  <score_type>  (24) 
oracle

>  <origin>  (24) 
adg

>  <m_score__min__energy>  (24) 
-8.7200000000000006

>  <m_primary>  (24) 
energy

$$$$
24:0
     RDKit          3D

 49 51  0  0  0  0  0  0  0  0999 V2000
   55.7850   23.8830   43.6590 C   0  0  0  0  0  0  0  0  0  0  0  0
   54.9180   23.3580   45.1190 S   0  0  0  0  0  0  0  0  0  0  0  0
   53.4390   23.3880   44.8580 O   0  0  0  0  0  0  0  0  0  0  0  0
   55.3480   21.9570   45.4540 O   0  0  0  0  0  0  0  0  0  0  0  0
   55.3150   24.4320   46.4230 N   0  0  0  0  0  0  0  0  0  0  0  0
   55.9020   25.7270   46.2530 C   0  0  0  0  0  0  0  0  0  0  0  0
   55.1530   26.7090   46.0120 O   0  0  0  0  0  0  0  0  0  0  0  0
   57.3580   25.9390   46.3340 C   0  0  0  0  0  0  0  0  0  0  0  0
   57.8540   27.2280   46.5820 C   0  0  0  0  0  0  0  0  0  0  0  0
   59.2400   27.4620   46.6500 C   0  0  0  0  0  0  0  0  0  0  0  0
   59.7820   28.8170   46.8920 C   0  0  0  0  0  0  0  0  0  0  0  0
   59.3820   30.0040   46.3030 C   0  0  0  0  0  0  0  0  0  0  0  0
   60.2080   30.9460   46.8790 C   0  0  0  0  0  0  0  0  0  0  0  0
   60.1770   32.4250   46.6210 C   0  0  0  0  0  0  0  0  0  0  0  0
   59.0400   33.0820   47.2870 N   0  0  0  0  0  0  0  0  0  0  0  0
   58.1450   33.7730   46.3460 C   0  0  0  0  0  0  0  0  0  0  0  0
   57.9230   32.9420   45.1090 C   0  0  0  0  0  0  0  0  0  0  0  0
   58.2770   33.4500   43.8510 C   0  0  0  0  0  0  0  0  0  0  0  0
   58.0530   32.6940   42.6990 C   0  0  0  0  0  0  0  0  0  0  0  0
   57.4690   31.4280   42.7910 C   0  0  0  0  0  0  0  0  0  0  0  0
   57.1020   30.9020   44.0430 C   0  0  0  0  0  0  0  0  0  0  0  0
   56.4760   29.5620   44.1440 C   0  0  0  0  0  0  0  0  0  0  0  0
   55.2420   29.3870   44.8360 N   0  0  0  0  0  0  0  0  0  0  0  0
   57.0300   28.5600   43.6150 O   0  0  0  0  0  0  0  0  0  0  0  0
   57.3330   31.6700   45.2000 C   0  0  0  0  0  0  0  0  0  0  0  0
   61.0360   30.3510   47.7580 N   0  0  0  0  0  0  0  0  0  0  0  0
   60.7550   29.0810   47.7380 O   0  0  0  0  0  0  0  0  0  0  0  0
   60.1210   26.3820   46.4810 C   0  0  0  0  0  0  0  0  0  0  0  0
   59.6310   25.0940   46.2580 C   0  0  0  0  0  0  0  0  0  0  0  0
   58.2510   24.8630   46.1940 C   0  0  0  0  0  0  0  0  0  0  0  0
   57.7680   23.5680   46.0120 O   0  0  0  0  0  0  0  0  0  0  0  0
   56.6926   24.4326   43.9492 H   0  0  0  0  0  0  0  0  0  0  0  0
   56.0647   23.0024   43.0621 H   0  0  0  0  0  0  0  0  0  0  0  0
   55.1343   24.5389   43.0621 H   0  0  0  0  0  0  0  0  0  0  0  0
   57.1528   28.0635   46.7246 H   0  0  0  0  0  0  0  0  0  0  0  0
   58.5923   30.1591   45.5531 H   0  0  0  0  0  0  0  0  0  0  0  0
   61.1113   32.8694   46.9945 H   0  0  0  0  0  0  0  0  0  0  0  0
   60.0669   32.5765   45.5371 H   0  0  0  0  0  0  0  0  0  0  0  0
   59.4060   33.7840   47.9720 H   0  0  0  0  0  0  0  0  0  0  0  0
   57.1774   33.9549   46.8365 H   0  0  0  0  0  0  0  0  0  0  0  0
   58.6107   34.7251   46.0517 H   0  0  0  0  0  0  0  0  0  0  0  0
   58.7329   34.4479   43.7715 H   0  0  0  0  0  0  0  0  0  0  0  0
   58.3372   33.0964   41.7155 H   0  0  0  0  0  0  0  0  0  0  0  0
   57.2951   30.8388   41.8785 H   0  0  0  0  0  0  0  0  0  0  0  0
   55.1620   28.7150   45.6310 H   0  0  0  0  0  0  0  0  0  0  0  0
   57.0489   31.2705   46.1847 H   0  0  0  0  0  0  0  0  0  0  0  0
   61.2069   26.5522   46.5247 H   0  0  0  0  0  0  0  0  0  0  0  0
   60.3324   24.2561   46.1319 H   0  0  0  0  0  0  0  0  0  0  0  0
   56.8170   23.3150   46.2590 H   0  0  0  0  0  0  0  0  0  0  0  0
  1  2  1  0
  2  3  2  0
  2  4  2  0
  2  5  1  0
  5  6  1  0
  6  7  2  0
  6  8  1  0
  8  9  2  0
  9 10  1  0
 10 11  1  0
 11 12  2  0
 12 13  1  0
 13 14  1  0
 14 15  1  0
 15 16  1  0
 16 17  1  0
 17 18  2  0
 18 19  1  0
 19 20  2  0
 20 21  1  0
 21 22  1  0
 22 23  1  0
 22 24  2  0
 21 25  2  0
 13 26  2  0
 26 27  1  0
 10 28  2  0
 28 29  1  0
 29 30  2  0
 30 31  1  0
 30  8  1  0
 27 11  1  0
 25 17  1  0
  1 32  1  0
  1 33  1  0
  1 34  1  0
  9 35  1  0
 12 36  1  0
 14 37  1  0
 14 38  1  0
 15 39  1  0
 16 40  1  0
 16 41  1  0
 18 42  1  0
 19 43  1  0
 20 44  1  0
 23 45  1  0
 25 46  1  0
 28 47  1  0
 29 48  1  0
 31 49  1  0
M  CHG  2   5  -1  23  -1
M  END
>  <UniqueID>  (25) 
24

>  <SMILES>  (25) 
CS(=O)(=O)[N-]C(=O)c1cc(-c2cc(CNCc3cccc(C([NH-])=O)c3)no2)ccc1O

>  <Energy>  (25) 
86.22798095544317

>  <Genealogy>  (25) 
CS(=O)(=O)[N-]C(=O)c1cc(-c2cc(CNCc3cccc(C([NH-])=O)c3)no2)ccc1O (protonated)
CS(=O)(=O)[N-]C(=O)c1cc(-c2cc(CNCc3cccc(C([NH-])=O)c3)no2)ccc1O (3D coordinates assigned)
CS(=O)(=O)[N-]C(=O)c1cc(-c2cc(CNCc3cccc(C([NH-])=O)c3)no2)ccc1O (optimized conformer: 86.22798095544317 kcal/mol)

>  <smiles>  (25) 
CS(=O)(=O)NC(=O)c1cc(-c2cc(CNCc3cccc(C(N)=O)c3)no2)ccc1O

>  <score_type>  (25) 
oracle

>  <origin>  (25) 
adg

>  <m_score__min__energy>  (25) 
-15.35

>  <m_primary>  (25) 
energy

$$$$
25:0
     RDKit          3D

 42 44  0  0  0  0  0  0  0  0999 V2000
   55.0920   23.7330   46.4900 C   0  0  0  0  0  0  0  0  0  0  0  0
   55.8940   24.8020   46.5410 C   0  0  0  0  0  0  0  0  0  0  0  0
   55.5000   25.9400   45.9110 N   0  0  0  0  0  0  0  0  0  0  0  0
   56.2620   27.0600   45.9360 C   0  0  0  0  0  0  0  0  0  0  0  0
   55.8660   28.1020   45.3540 O   0  0  0  0  0  0  0  0  0  0  0  0
   57.4530   27.0570   46.5840 N   0  0  0  0  0  0  0  0  0  0  0  0
   57.9270   25.9520   47.2220 C   0  0  0  0  0  0  0  0  0  0  0  0
   59.1290   26.0610   47.8250 C   0  0  0  0  0  0  0  0  0  0  0  0
   60.2090   26.8740   47.3400 N   0  0  0  0  0  0  0  0  0  0  0  0
   60.3890   28.2310   47.7880 C   0  0  0  0  0  0  0  0  0  0  0  0
   60.7700   28.4810   49.1210 C   0  0  0  0  0  0  0  0  0  0  0  0
   61.0270   29.7820   49.5560 C   0  0  0  0  0  0  0  0  0  0  0  0
   60.9150   30.8500   48.6680 C   0  0  0  0  0  0  0  0  0  0  0  0
   60.5390   30.6240   47.3440 C   0  0  0  0  0  0  0  0  0  0  0  0
   60.2680   29.3220   46.8880 C   0  0  0  0  0  0  0  0  0  0  0  0
   59.8070   29.1270   45.4920 C   0  0  0  0  0  0  0  0  0  0  0  0
   60.6600   28.8720   44.5950 O   0  0  0  0  0  0  0  0  0  0  0  0
   58.4020   29.2100   45.1470 N   0  0  0  0  0  0  0  0  0  0  0  0
   57.8830   30.5850   45.3760 C   0  0  0  0  0  0  0  0  0  0  0  0
   57.7660   31.3780   44.0620 C   0  0  0  0  0  0  0  0  0  0  0  0
   56.9080   30.7670   43.1080 O   0  0  0  0  0  0  0  0  0  0  0  0
   56.9000   29.3450   43.1690 C   0  0  0  0  0  0  0  0  0  0  0  0
   58.1870   28.7400   43.7580 C   0  0  0  0  0  0  0  0  0  0  0  0
   57.1230   24.7830   47.2350 C   0  0  0  0  0  0  0  0  0  0  0  0
   57.4650   23.7530   47.8810 O   0  0  0  0  0  0  0  0  0  0  0  0
   55.3872   22.7995   46.9914 H   0  0  0  0  0  0  0  0  0  0  0  0
   54.1371   23.7872   45.9466 H   0  0  0  0  0  0  0  0  0  0  0  0
   59.2928   25.4888   48.7501 H   0  0  0  0  0  0  0  0  0  0  0  0
   60.7720   26.5380   46.5290 H   0  0  0  0  0  0  0  0  0  0  0  0
   60.8659   27.6423   49.8262 H   0  0  0  0  0  0  0  0  0  0  0  0
   61.3183   29.9645   50.6009 H   0  0  0  0  0  0  0  0  0  0  0  0
   61.1236   31.8738   49.0120 H   0  0  0  0  0  0  0  0  0  0  0  0
   60.4537   31.4729   46.6497 H   0  0  0  0  0  0  0  0  0  0  0  0
   57.8630   28.5760   45.7840 H   0  0  0  0  0  0  0  0  0  0  0  0
   56.8883   30.5173   45.8408 H   0  0  0  0  0  0  0  0  0  0  0  0
   58.5909   31.1128   46.0320 H   0  0  0  0  0  0  0  0  0  0  0  0
   57.3735   32.3793   44.2929 H   0  0  0  0  0  0  0  0  0  0  0  0
   58.7709   31.4176   43.6163 H   0  0  0  0  0  0  0  0  0  0  0  0
   56.0513   29.0297   43.7938 H   0  0  0  0  0  0  0  0  0  0  0  0
   56.8199   28.9809   42.1341 H   0  0  0  0  0  0  0  0  0  0  0  0
   58.1030   27.6432   43.7574 H   0  0  0  0  0  0  0  0  0  0  0  0
   59.0405   29.0591   43.1418 H   0  0  0  0  0  0  0  0  0  0  0  0
  1  2  2  0
  2  3  1  0
  3  4  1  0
  4  5  2  0
  4  6  1  0
  6  7  1  0
  7  8  2  3
  8  9  1  0
  9 10  1  0
 10 11  2  0
 11 12  1  0
 12 13  2  0
 13 14  1  0
 14 15  2  0
 15 16  1  0
 16 17  2  0
 16 18  1  0
 18 19  1  0
 19 20  1  0
 20 21  1  0
 21 22  1  0
 22 23  1  0
  7 24  1  0
 24 25  2  0
 24  2  1  0
 15 10  1  0
 23 18  1  0
  1 26  1  0
  1 27  1  0
  8 28  1  0
  9 29  1  0
 11 30  1  0
 12 31  1  0
 13 32  1  0
 14 33  1  0
 18 34  1  0
 19 35  1  0
 19 36  1  0
 20 37  1  0
 20 38  1  0
 22 39  1  0
 22 40  1  0
 23 41  1  0
 23 42  1  0
M  CHG  3   3  -1   6  -1  18   1
M  END
>  <UniqueID>  (26) 
25

>  <SMILES>  (26) 
C=c1[n-]c(=O)[n-]c(=CNc2ccccc2C(=O)[NH+]2CCOCC2)c1=O

>  <Energy>  (26) 
76.91845703629436

>  <Genealogy>  (26) 
C=c1[n-]c(=O)[n-]c(=CNc2ccccc2C(=O)[NH+]2CCOCC2)c1=O (protonated)
C=c1[n-]c(=O)[n-]c(=CNc2ccccc2C(=O)[NH+]2CCOCC2)c1=O (3D coordinates assigned)
C=c1[n-]c(=O)[n-]c(=CNc2ccccc2C(=O)[NH+]2CCOCC2)c1=O (nonaromatic ring conformer: 76.91845703629436 kcal/mol)

>  <smiles>  (26) 
C=c1[nH]c(=O)[nH]c(=CNc2ccccc2C(=O)N2CCOCC2)c1=O

>  <score_type>  (26) 
oracle

>  <origin>  (26) 
adg

>  <m_score__min__energy>  (26) 
-9.7899999999999991

>  <m_primary>  (26) 
energy

$$$$
26:0
     RDKit          3D

 60 64  0  0  0  0  0  0  0  0999 V2000
   57.3970   28.5880   45.9250 C   0  0  0  0  0  0  0  0  0  0  0  0
   56.5110   29.5560   45.3690 O   0  0  0  0  0  0  0  0  0  0  0  0
   56.8110   30.3770   44.2710 C   0  0  0  0  0  0  0  0  0  0  0  0
   56.4940   29.9960   42.9520 C   0  0  0  0  0  0  0  0  0  0  0  0
   56.8090   30.8330   41.8800 C   0  0  0  0  0  0  0  0  0  0  0  0
   57.4480   32.0510   42.1060 C   0  0  0  0  0  0  0  0  0  0  0  0
   57.7700   32.4410   43.4060 C   0  0  0  0  0  0  0  0  0  0  0  0
   57.4440   31.6180   44.5000 C   0  0  0  0  0  0  0  0  0  0  0  0
   57.8040   32.0000   45.8410 N   0  0  0  0  0  0  0  0  0  0  0  0
   57.9140   33.3630   46.2790 C   0  0  0  0  0  0  0  0  0  0  0  0
   57.2770   34.2700   45.6780 O   0  0  0  0  0  0  0  0  0  0  0  0
   58.7280   33.7180   47.4550 C   0  0  0  0  0  0  0  0  0  0  0  0
   59.2550   34.9660   47.7640 C   0  0  0  0  0  0  0  0  0  0  0  0
   59.9970   34.8850   48.8910 N   0  0  0  0  0  0  0  0  0  0  0  0
   59.9360   33.6310   49.3100 N   0  0  0  0  0  0  0  0  0  0  0  0
   59.1980   32.9070   48.4660 C   0  0  0  0  0  0  0  0  0  0  0  0
   59.0510   31.4970   48.6110 N   0  0  0  0  0  0  0  0  0  0  0  0
   59.5020   30.8840   49.6690 C   0  0  0  0  0  0  0  0  0  0  0  0
   59.2040   29.4180   49.7970 C   0  0  0  0  0  0  0  0  0  0  0  0
   60.0890   31.6850   50.8420 C   0  0  1  0  0  0  0  0  0  0  0  0
   61.0580   30.8900   51.6840 C   0  0  0  0  0  0  0  0  0  0  0  0
   61.0850   31.0450   52.9350 O   0  0  0  0  0  0  0  0  0  0  0  0
   61.8440   29.8660   51.0610 N   0  0  0  0  0  0  0  0  0  0  0  0
   63.0860   29.3400   51.5470 C   0  0  0  0  0  0  0  0  0  0  0  0
   64.2670   30.1070   51.5470 C   0  0  0  0  0  0  0  0  0  0  0  0
   65.4640   29.5570   52.0160 C   0  0  0  0  0  0  0  0  0  0  0  0
   65.4940   28.2380   52.4770 C   0  0  0  0  0  0  0  0  0  0  0  0
   64.3310   27.4640   52.4590 C   0  0  0  0  0  0  0  0  0  0  0  0
   63.1330   28.0090   51.9850 C   0  0  0  0  0  0  0  0  0  0  0  0
   62.0090   27.2490   51.9810 F   0  0  0  0  0  0  0  0  0  0  0  0
   60.7130   33.0540   50.4030 C   0  0  1  0  0  0  0  0  0  0  0  0
   62.1730   32.9420   49.9890 C   0  0  0  0  0  0  0  0  0  0  0  0
   62.5400   32.3530   48.7640 C   0  0  0  0  0  0  0  0  0  0  0  0
   63.8860   32.2230   48.4180 C   0  0  0  0  0  0  0  0  0  0  0  0
   64.8820   32.6700   49.2900 C   0  0  0  0  0  0  0  0  0  0  0  0
   64.5320   33.2490   50.5120 C   0  0  0  0  0  0  0  0  0  0  0  0
   65.8930   33.8470   51.7100 Br  0  0  0  0  0  0  0  0  0  0  0  0
   63.1850   33.3830   50.8630 C   0  0  0  0  0  0  0  0  0  0  0  0
   57.3518   28.6374   47.0230 H   0  0  0  0  0  0  0  0  0  0  0  0
   57.0990   27.5833   45.5906 H   0  0  0  0  0  0  0  0  0  0  0  0
   58.4241   28.7961   45.5906 H   0  0  0  0  0  0  0  0  0  0  0  0
   55.9954   29.0333   42.7659 H   0  0  0  0  0  0  0  0  0  0  0  0
   56.5522   30.5304   40.8541 H   0  0  0  0  0  0  0  0  0  0  0  0
   57.6987   32.7055   41.2581 H   0  0  0  0  0  0  0  0  0  0  0  0
   58.2826   33.3991   43.5773 H   0  0  0  0  0  0  0  0  0  0  0  0
   57.9150   31.2490   46.5570 H   0  0  0  0  0  0  0  0  0  0  0  0
   59.0926   35.8831   47.1788 H   0  0  0  0  0  0  0  0  0  0  0  0
   59.1488   29.1466   50.8616 H   0  0  0  0  0  0  0  0  0  0  0  0
   58.2423   29.1956   49.3116 H   0  0  0  0  0  0  0  0  0  0  0  0
   60.0026   28.8378   49.3116 H   0  0  0  0  0  0  0  0  0  0  0  0
   59.2234   31.9141   51.4810 H   0  0  0  0  0  0  0  0  0  0  0  0
   64.2478   31.1426   51.1767 H   0  0  0  0  0  0  0  0  0  0  0  0
   66.3822   30.1626   52.0221 H   0  0  0  0  0  0  0  0  0  0  0  0
   66.4340   27.8089   52.8543 H   0  0  0  0  0  0  0  0  0  0  0  0
   64.3574   26.4246   52.8181 H   0  0  0  0  0  0  0  0  0  0  0  0
   60.6784   33.7109   51.2846 H   0  0  0  0  0  0  0  0  0  0  0  0
   61.7613   31.9931   48.0754 H   0  0  0  0  0  0  0  0  0  0  0  0
   64.1634   31.7673   47.4560 H   0  0  0  0  0  0  0  0  0  0  0  0
   65.9418   32.5659   49.0142 H   0  0  0  0  0  0  0  0  0  0  0  0
   62.9143   33.8359   51.8282 H   0  0  0  0  0  0  0  0  0  0  0  0
  1  2  1  0
  2  3  1  0
  3  4  2  0
  4  5  1  0
  5  6  2  0
  6  7  1  0
  7  8  2  0
  8  9  1  0
  9 10  1  0
 10 11  2  0
 10 12  1  0
 12 13  1  0
 13 14  2  0
 14 15  1  0
 15 16  1  0
 16 17  1  0
 17 18  2  0
 18 19  1  0
 18 20  1  0
 20 21  1  0
 21 22  2  0
 21 23  1  0
 23 24  1  0
 24 25  2  0
 25 26  1  0
 26 27  2  0
 27 28  1  0
 28 29  2  0
 29 30  1  0
 20 31  1  0
 31 32  1  0
 32 33  2  0
 33 34  1  0
 34 35  2  0
 35 36  1  0
 36 37  1  0
 36 38  2  0
  8  3  1  0
 16 12  2  0
 29 24  1  0
 38 32  1  0
 31 15  1  0
  1 39  1  0
  1 40  1  0
  1 41  1  0
  4 42  1  0
  5 43  1  0
  6 44  1  0
  7 45  1  0
  9 46  1  0
 13 47  1  0
 19 48  1  0
 19 49  1  0
 19 50  1  0
 20 51  1  1
 25 52  1  0
 26 53  1  0
 27 54  1  0
 28 55  1  0
 31 56  1  1
 33 57  1  0
 34 58  1  0
 35 59  1  0
 38 60  1  0
M  CHG  1  23  -1
M  END
>  <UniqueID>  (27) 
26

>  <SMILES>  (27) 
COc1ccccc1NC(=O)c1cnn2c1N=C(C)[C@@H](C(=O)[N-]c1ccccc1F)[C@H]2c1cccc(Br)c1

>  <Energy>  (27) 
109.53145925671895

>  <Genealogy>  (27) 
COc1ccccc1NC(=O)c1cnn2c1N=C(C)C(C(=O)[N-]c1ccccc1F)C2c1cccc(Br)c1 (protonated)
COc1ccccc1NC(=O)c1cnn2c1N=C(C)[C@@H](C(=O)[N-]c1ccccc1F)[C@H]2c1cccc(Br)c1 (chirality)
COc1ccccc1NC(=O)c1cnn2c1N=C(C)[C@@H](C(=O)[N-]c1ccccc1F)[C@H]2c1cccc(Br)c1 (3D coordinates assigned)
COc1ccccc1NC(=O)c1cnn2c1N=C(C)[C@@H](C(=O)[N-]c1ccccc1F)[C@H]2c1cccc(Br)c1 (nonaromatic ring conformer: 109.53145925671895 kcal/mol)

>  <smiles>  (27) 
COc1ccccc1NC(=O)c1cnn2c1N=C(C)C(C(=O)Nc1ccccc1F)C2c1cccc(Br)c1

>  <score_type>  (27) 
oracle

>  <origin>  (27) 
adg

>  <m_score__min__energy>  (27) 
-10.789999999999999

>  <m_primary>  (27) 
energy

$$$$
27:0
     RDKit          3D

 53 56  0  0  0  0  0  0  0  0999 V2000
   59.2080   34.7550   44.9000 C   0  0  0  0  0  0  0  0  0  0  0  0
   57.7820   34.2200   44.8630 C   0  0  0  0  0  0  0  0  0  0  0  0
   57.7480   32.7020   44.7940 C   0  0  0  0  0  0  0  0  0  0  0  0
   57.8560   31.8830   45.9470 C   0  0  0  0  0  0  0  0  0  0  0  0
   58.1740   32.4440   47.3180 C   0  0  0  0  0  0  0  0  0  0  0  0
   59.3700   31.7610   47.9520 C   0  0  0  0  0  0  0  0  0  0  0  0
   59.1430   30.6380   48.7680 C   0  0  0  0  0  0  0  0  0  0  0  0
   60.2010   29.9840   49.3950 C   0  0  0  0  0  0  0  0  0  0  0  0
   61.5080   30.4380   49.2270 C   0  0  0  0  0  0  0  0  0  0  0  0
   61.7680   31.5630   48.4340 C   0  0  0  0  0  0  0  0  0  0  0  0
   63.0860   32.0210   48.2830 C   0  0  0  0  0  0  0  0  0  0  0  0
   63.3530   33.1500   47.5070 C   0  0  0  0  0  0  0  0  0  0  0  0
   62.3110   33.8320   46.8810 C   0  0  0  0  0  0  0  0  0  0  0  0
   60.9930   33.3890   47.0200 C   0  0  0  0  0  0  0  0  0  0  0  0
   60.6980   32.2440   47.7920 C   0  0  0  0  0  0  0  0  0  0  0  0
   57.7520   30.5320   45.8080 N   0  0  0  0  0  0  0  0  0  0  0  0
   57.5720   29.9450   44.6010 C   0  0  0  0  0  0  0  0  0  0  0  0
   57.3720   28.1670   44.4930 S   0  0  0  0  0  0  0  0  0  0  0  0
   58.8590   27.7770   45.4750 C   0  0  0  0  0  0  0  0  0  0  0  0
   58.4870   27.0760   46.7500 C   0  0  0  0  0  0  0  0  0  0  0  0
   57.9600   27.7470   47.6760 O   0  0  0  0  0  0  0  0  0  0  0  0
   58.5990   25.6540   46.9110 N   0  0  0  0  0  0  0  0  0  0  0  0
   58.2780   24.6380   45.9480 C   0  0  0  0  0  0  0  0  0  0  0  0
   59.2060   23.6360   45.6110 C   0  0  0  0  0  0  0  0  0  0  0  0
   58.8750   22.6540   44.6730 C   0  0  0  0  0  0  0  0  0  0  0  0
   57.6060   22.6400   44.0920 C   0  0  0  0  0  0  0  0  0  0  0  0
   56.6560   23.5930   44.4660 C   0  0  0  0  0  0  0  0  0  0  0  0
   56.9820   24.5850   45.4000 C   0  0  0  0  0  0  0  0  0  0  0  0
   55.9770   25.5390   45.7990 C   0  0  0  0  0  0  0  0  0  0  0  0
   55.1700   26.3030   46.1180 N   0  0  0  0  0  0  0  0  0  0  0  0
   57.5180   30.7050   43.4810 N   0  0  0  0  0  0  0  0  0  0  0  0
   57.6040   32.0570   43.5470 C   0  0  0  0  0  0  0  0  0  0  0  0
   57.5470   32.7250   42.4790 O   0  0  0  0  0  0  0  0  0  0  0  0
   59.5276   34.8749   45.9457 H   0  0  0  0  0  0  0  0  0  0  0  0
   59.8785   34.0473   44.3905 H   0  0  0  0  0  0  0  0  0  0  0  0
   59.2475   35.7291   44.3905 H   0  0  0  0  0  0  0  0  0  0  0  0
   57.2559   34.5466   45.7722 H   0  0  0  0  0  0  0  0  0  0  0  0
   57.2935   34.6134   43.9593 H   0  0  0  0  0  0  0  0  0  0  0  0
   58.3900   33.5181   47.2200 H   0  0  0  0  0  0  0  0  0  0  0  0
   57.3022   32.2689   47.9655 H   0  0  0  0  0  0  0  0  0  0  0  0
   58.1161   30.2713   48.9129 H   0  0  0  0  0  0  0  0  0  0  0  0
   60.0040   29.1047   50.0259 H   0  0  0  0  0  0  0  0  0  0  0  0
   62.3386   29.9108   49.7191 H   0  0  0  0  0  0  0  0  0  0  0  0
   63.9114   31.4884   48.7779 H   0  0  0  0  0  0  0  0  0  0  0  0
   64.3883   33.5024   47.3892 H   0  0  0  0  0  0  0  0  0  0  0  0
   62.5273   34.7237   46.2743 H   0  0  0  0  0  0  0  0  0  0  0  0
   60.1784   33.9369   46.5238 H   0  0  0  0  0  0  0  0  0  0  0  0
   59.5203   27.1255   44.8849 H   0  0  0  0  0  0  0  0  0  0  0  0
   59.3724   28.7169   45.7261 H   0  0  0  0  0  0  0  0  0  0  0  0
   60.1971   23.6252   46.0880 H   0  0  0  0  0  0  0  0  0  0  0  0
   59.6159   21.8909   44.3922 H   0  0  0  0  0  0  0  0  0  0  0  0
   57.3541   21.8783   43.3395 H   0  0  0  0  0  0  0  0  0  0  0  0
   55.6484   23.5646   44.0257 H   0  0  0  0  0  0  0  0  0  0  0  0
  1  2  1  0
  2  3  1  0
  3  4  2  0
  4  5  1  0
  5  6  1  0
  6  7  2  0
  7  8  1  0
  8  9  2  0
  9 10  1  0
 10 11  2  0
 11 12  1  0
 12 13  2  0
 13 14  1  0
 14 15  2  0
  4 16  1  0
 16 17  1  0
 17 18  1  0
 18 19  1  0
 19 20  1  0
 20 21  2  0
 20 22  1  0
 22 23  1  0
 23 24  2  0
 24 25  1  0
 25 26  2  0
 26 27  1  0
 27 28  2  0
 28 29  1  0
 29 30  3  0
 17 31  2  0
 31 32  1  0
 32 33  2  0
 32  3  1  0
 15  6  1  0
 28 23  1  0
 15 10  1  0
  1 34  1  0
  1 35  1  0
  1 36  1  0
  2 37  1  0
  2 38  1  0
  5 39  1  0
  5 40  1  0
  7 41  1  0
  8 42  1  0
  9 43  1  0
 11 44  1  0
 12 45  1  0
 13 46  1  0
 14 47  1  0
 19 48  1  0
 19 49  1  0
 24 50  1  0
 25 51  1  0
 26 52  1  0
 27 53  1  0
M  CHG  2  16  -1  22  -1
M  END
>  <UniqueID>  (28) 
27

>  <SMILES>  (28) 
CCc1c(Cc2cccc3ccccc23)[n-]c(SCC(=O)[N-]c2ccccc2C#N)nc1=O

>  <Energy>  (28) 
59.689620525205214

>  <Genealogy>  (28) 
CCc1c(Cc2cccc3ccccc23)[n-]c(SCC(=O)[N-]c2ccccc2C#N)nc1=O (protonated)
CCc1c(Cc2cccc3ccccc23)[n-]c(SCC(=O)[N-]c2ccccc2C#N)nc1=O (3D coordinates assigned)
CCc1c(Cc2cccc3ccccc23)[n-]c(SCC(=O)[N-]c2ccccc2C#N)nc1=O (optimized conformer: 59.689620525205214 kcal/mol)

>  <smiles>  (28) 
CCc1c(Cc2cccc3ccccc23)[nH]c(SCC(=O)Nc2ccccc2C#N)nc1=O

>  <score_type>  (28) 
oracle

>  <origin>  (28) 
adg

>  <m_score__min__energy>  (28) 
-12.84

>  <m_primary>  (28) 
energy

$$$$
28:0
     RDKit          3D

 57 60  0  0  0  0  0  0  0  0999 V2000
   56.3670   29.7070   42.6580 C   0  0  0  0  0  0  0  0  0  0  0  0
   56.2520   29.9860   44.1250 C   0  0  0  0  0  0  0  0  0  0  0  0
   55.2180   29.5890   44.7300 O   0  0  0  0  0  0  0  0  0  0  0  0
   57.3070   30.7100   44.8810 C   0  0  0  0  0  0  0  0  0  0  0  0
   57.8130   30.1340   46.0600 C   0  0  0  0  0  0  0  0  0  0  0  0
   58.7910   30.7910   46.8250 C   0  0  0  0  0  0  0  0  0  0  0  0
   59.3500   30.1740   47.9930 N   0  0  0  0  0  0  0  0  0  0  0  0
   59.6530   28.7820   48.1400 C   0  0  0  0  0  0  0  0  0  0  0  0
   60.2400   28.3940   49.1840 O   0  0  0  0  0  0  0  0  0  0  0  0
   59.2160   27.7700   47.1140 C   0  0  0  0  0  0  0  0  0  0  0  0
   57.7600   27.3370   47.3270 C   0  0  0  0  0  0  0  0  0  0  0  0
   57.4310   26.1660   46.5100 N   0  0  0  0  0  0  0  0  0  0  0  0
   58.2620   25.1620   46.1500 C   0  0  0  0  0  0  0  0  0  0  0  0
   59.5870   25.0540   46.5600 O   0  0  0  0  0  0  0  0  0  0  0  0
   57.6090   24.2730   45.3190 C   0  0  0  0  0  0  0  0  0  0  0  0
   56.3160   24.7290   45.1960 C   0  0  0  0  0  0  0  0  0  0  0  0
   56.2440   25.9040   45.9170 C   0  0  0  0  0  0  0  0  0  0  0  0
   55.1220   26.7160   46.0190 O   0  0  0  0  0  0  0  0  0  0  0  0
   55.2880   24.1000   44.3060 C   0  0  0  0  0  0  0  0  0  0  0  0
   55.6940   22.6530   43.9600 C   0  0  0  0  0  0  0  0  0  0  0  0
   57.1830   22.5560   43.5630 C   0  0  0  0  0  0  0  0  0  0  0  0
   58.1100   22.9970   44.7150 C   0  0  0  0  0  0  0  0  0  0  0  0
   59.3000   32.0230   46.3890 C   0  0  0  0  0  0  0  0  0  0  0  0
   60.2880   32.7120   47.1670 N   0  0  0  0  0  0  0  0  0  0  0  0
   59.9730   34.0320   47.7180 C   0  0  0  0  0  0  0  0  0  0  0  0
   60.8060   34.2680   48.9780 C   0  0  0  0  0  0  0  0  0  0  0  0
   62.1820   34.0550   48.7140 O   0  0  0  0  0  0  0  0  0  0  0  0
   62.4050   32.6940   48.3910 C   0  0  0  0  0  0  0  0  0  0  0  0
   61.6940   32.3160   47.0870 C   0  0  0  0  0  0  0  0  0  0  0  0
   58.8210   32.5900   45.2010 C   0  0  0  0  0  0  0  0  0  0  0  0
   57.8350   31.9460   44.4480 C   0  0  0  0  0  0  0  0  0  0  0  0
   57.4150   32.5350   43.2610 O   0  0  0  0  0  0  0  0  0  0  0  0
   56.7823   28.6995   42.5078 H   0  0  0  0  0  0  0  0  0  0  0  0
   55.3712   29.7660   42.1944 H   0  0  0  0  0  0  0  0  0  0  0  0
   57.0320   30.4506   42.1944 H   0  0  0  0  0  0  0  0  0  0  0  0
   57.4371   29.1537   46.3883 H   0  0  0  0  0  0  0  0  0  0  0  0
   59.3128   28.2137   46.1121 H   0  0  0  0  0  0  0  0  0  0  0  0
   59.8560   26.8811   47.2155 H   0  0  0  0  0  0  0  0  0  0  0  0
   57.6113   27.0876   48.3880 H   0  0  0  0  0  0  0  0  0  0  0  0
   57.1024   28.1665   47.0279 H   0  0  0  0  0  0  0  0  0  0  0  0
   54.3170   24.0909   44.8229 H   0  0  0  0  0  0  0  0  0  0  0  0
   55.2141   24.6833   43.3763 H   0  0  0  0  0  0  0  0  0  0  0  0
   55.5168   22.0137   44.8375 H   0  0  0  0  0  0  0  0  0  0  0  0
   55.0888   22.3232   43.1027 H   0  0  0  0  0  0  0  0  0  0  0  0
   57.4143   21.5137   43.2982 H   0  0  0  0  0  0  0  0  0  0  0  0
   57.3547   23.2269   42.7083 H   0  0  0  0  0  0  0  0  0  0  0  0
   58.1304   22.2128   45.4861 H   0  0  0  0  0  0  0  0  0  0  0  0
   59.1235   23.1594   44.3196 H   0  0  0  0  0  0  0  0  0  0  0  0
   60.2074   34.8063   46.9727 H   0  0  0  0  0  0  0  0  0  0  0  0
   58.9034   34.0792   47.9704 H   0  0  0  0  0  0  0  0  0  0  0  0
   60.6595   35.3034   49.3194 H   0  0  0  0  0  0  0  0  0  0  0  0
   60.4807   33.5611   49.7555 H   0  0  0  0  0  0  0  0  0  0  0  0
   63.4855   32.5243   48.2739 H   0  0  0  0  0  0  0  0  0  0  0  0
   62.0030   32.0704   49.2031 H   0  0  0  0  0  0  0  0  0  0  0  0
   62.1738   32.8346   46.2439 H   0  0  0  0  0  0  0  0  0  0  0  0
   61.7611   31.2287   46.9341 H   0  0  0  0  0  0  0  0  0  0  0  0
   59.2255   33.5532   44.8567 H   0  0  0  0  0  0  0  0  0  0  0  0
  1  2  1  0
  2  3  2  0
  2  4  1  0
  4  5  2  0
  5  6  1  0
  6  7  1  0
  7  8  1  0
  8  9  2  0
  8 10  1  0
 10 11  1  0
 11 12  1  0
 12 13  1  0
 13 14  1  0
 13 15  2  0
 15 16  1  0
 16 17  2  0
 17 18  1  0
 16 19  1  0
 19 20  1  0
 20 21  1  0
 21 22  1  0
  6 23  2  0
 23 24  1  0
 24 25  1  0
 25 26  1  0
 26 27  1  0
 27 28  1  0
 28 29  1  0
 23 30  1  0
 30 31  2  0
 31 32  1  0
 31  4  1  0
 17 12  1  0
 29 24  1  0
 22 15  1  0
  1 33  1  0
  1 34  1  0
  1 35  1  0
  5 36  1  0
 10 37  1  0
 10 38  1  0
 11 39  1  0
 11 40  1  0
 19 41  1  0
 19 42  1  0
 20 43  1  0
 20 44  1  0
 21 45  1  0
 21 46  1  0
 22 47  1  0
 22 48  1  0
 25 49  1  0
 25 50  1  0
 26 51  1  0
 26 52  1  0
 28 53  1  0
 28 54  1  0
 29 55  1  0
 29 56  1  0
 30 57  1  0
M  CHG  4   7  -1  14  -1  18  -1  32  -1
M  END
>  <UniqueID>  (29) 
28

>  <SMILES>  (29) 
CC(=O)c1cc([N-]C(=O)CCn2c([O-])c3c(c2[O-])CCCC3)c(N2CCOCC2)cc1[O-]

>  <Energy>  (29) 
99.01014138512163

>  <Genealogy>  (29) 
CC(=O)c1cc([N-]C(=O)CCn2c([O-])c3c(c2[O-])CCCC3)c(N2CCOCC2)cc1[O-] (protonated)
CC(=O)c1cc([N-]C(=O)CCn2c([O-])c3c(c2[O-])CCCC3)c(N2CCOCC2)cc1[O-] (3D coordinates assigned)
CC(=O)c1cc([N-]C(=O)CCn2c([O-])c3c(c2[O-])CCCC3)c(N2CCOCC2)cc1[O-] (nonaromatic ring conformer: 99.01014138512163 kcal/mol)

>  <smiles>  (29) 
CC(=O)c1cc(NC(=O)CCn2c(O)c3c(c2O)CCCC3)c(N2CCOCC2)cc1O

>  <score_type>  (29) 
oracle

>  <origin>  (29) 
adg

>  <m_score__min__energy>  (29) 
-15.41

>  <m_primary>  (29) 
energy

$$$$
29:0
     RDKit          3D

 40 42  0  0  0  0  0  0  0  0999 V2000
   55.3470   29.3530   44.9450 O   0  0  0  0  0  0  0  0  0  0  0  0
   56.5750   30.0760   44.4650 S   0  0  0  0  0  0  0  0  0  0  0  0
   56.6650   29.9310   42.9720 O   0  0  0  0  0  0  0  0  0  0  0  0
   56.4640   31.7670   44.8650 N   0  0  0  0  0  0  0  0  0  0  0  0
   57.5530   32.5370   44.2590 C   0  0  0  0  0  0  0  0  0  0  0  0
   58.2400   33.4080   45.2780 C   0  0  0  0  0  0  0  0  0  0  0  0
   58.0700   33.1770   46.6510 C   0  0  0  0  0  0  0  0  0  0  0  0
   58.7460   33.9680   47.5810 C   0  0  0  0  0  0  0  0  0  0  0  0
   59.5850   34.9880   47.1290 C   0  0  0  0  0  0  0  0  0  0  0  0
   59.7320   35.2090   45.7960 N   0  0  0  0  0  0  0  0  0  0  0  0
   59.0810   34.4540   44.8690 C   0  0  0  0  0  0  0  0  0  0  0  0
   58.0230   29.3800   45.1860 C   0  0  0  0  0  0  0  0  0  0  0  0
   58.9400   28.7030   44.3730 C   0  0  0  0  0  0  0  0  0  0  0  0
   60.1170   28.1920   44.9200 C   0  0  0  0  0  0  0  0  0  0  0  0
   60.3860   28.3490   46.2820 C   0  0  0  0  0  0  0  0  0  0  0  0
   59.4730   29.0220   47.1150 C   0  0  0  0  0  0  0  0  0  0  0  0
   59.7150   29.2040   48.5220 N   0  0  0  0  0  0  0  0  0  0  0  0
   59.8260   30.7490   49.3030 S   0  0  0  0  0  0  0  0  0  0  0  0
   58.5290   31.4880   49.1270 O   0  0  0  0  0  0  0  0  0  0  0  0
   60.0700   30.5600   50.7750 O   0  0  0  0  0  0  0  0  0  0  0  0
   61.1140   31.6960   48.5820 C   0  0  0  0  0  0  0  0  0  0  0  0
   61.6480   32.8580   49.1130 C   0  0  0  0  0  0  0  0  0  0  0  0
   62.6640   33.4040   48.3180 C   0  0  0  0  0  0  0  0  0  0  0  0
   62.9240   32.6700   47.1660 C   0  0  0  0  0  0  0  0  0  0  0  0
   61.8920   31.3420   47.1360 S   0  0  0  0  0  0  0  0  0  0  0  0
   58.2880   29.5270   46.5550 C   0  0  0  0  0  0  0  0  0  0  0  0
   58.2880   31.8408   43.8288 H   0  0  0  0  0  0  0  0  0  0  0  0
   57.1277   33.1850   43.4784 H   0  0  0  0  0  0  0  0  0  0  0  0
   57.4037   32.3721   46.9948 H   0  0  0  0  0  0  0  0  0  0  0  0
   58.6190   33.7896   48.6590 H   0  0  0  0  0  0  0  0  0  0  0  0
   60.1279   35.6138   47.8526 H   0  0  0  0  0  0  0  0  0  0  0  0
   59.2145   34.6643   43.7976 H   0  0  0  0  0  0  0  0  0  0  0  0
   58.7318   28.5738   43.3006 H   0  0  0  0  0  0  0  0  0  0  0  0
   60.8360   27.6635   44.2767 H   0  0  0  0  0  0  0  0  0  0  0  0
   61.3169   27.9442   46.7057 H   0  0  0  0  0  0  0  0  0  0  0  0
   59.7640   28.3610   49.1380 H   0  0  0  0  0  0  0  0  0  0  0  0
   61.3100   33.3053   50.0594 H   0  0  0  0  0  0  0  0  0  0  0  0
   63.2045   34.3255   48.5801 H   0  0  0  0  0  0  0  0  0  0  0  0
   63.6773   32.9162   46.4032 H   0  0  0  0  0  0  0  0  0  0  0  0
   57.5598   30.0435   47.1976 H   0  0  0  0  0  0  0  0  0  0  0  0
  1  2  2  0
  2  3  2  0
  2  4  1  0
  4  5  1  0
  5  6  1  0
  6  7  2  0
  7  8  1  0
  8  9  2  0
  9 10  1  0
 10 11  2  0
  2 12  1  0
 12 13  2  0
 13 14  1  0
 14 15  2  0
 15 16  1  0
 16 17  1  0
 17 18  1  0
 18 19  2  0
 18 20  2  0
 18 21  1  0
 21 22  2  0
 22 23  1  0
 23 24  2  0
 24 25  1  0
 16 26  2  0
 11  6  1  0
 26 12  1  0
 25 21  1  0
  5 27  1  0
  5 28  1  0
  7 29  1  0
  8 30  1  0
  9 31  1  0
 11 32  1  0
 13 33  1  0
 14 34  1  0
 15 35  1  0
 17 36  1  0
 22 37  1  0
 23 38  1  0
 24 39  1  0
 26 40  1  0
M  CHG  1   4  -1
M  END
>  <UniqueID>  (30) 
29

>  <SMILES>  (30) 
O=S(=O)([N-]Cc1cccnc1)c1cccc(NS(=O)(=O)c2cccs2)c1

>  <Energy>  (30) 
66.09298251060689

>  <Genealogy>  (30) 
O=S(=O)([N-]Cc1cccnc1)c1cccc(NS(=O)(=O)c2cccs2)c1 (protonated)
O=S(=O)([N-]Cc1cccnc1)c1cccc(NS(=O)(=O)c2cccs2)c1 (3D coordinates assigned)
O=S(=O)([N-]Cc1cccnc1)c1cccc(NS(=O)(=O)c2cccs2)c1 (optimized conformer: 66.09298251060689 kcal/mol)

>  <smiles>  (30) 
O=S(=O)(NCc1cccnc1)c1cccc(NS(=O)(=O)c2cccs2)c1

>  <score_type>  (30) 
oracle

>  <origin>  (30) 
adg

>  <m_score__min__energy>  (30) 
-11.26

>  <m_primary>  (30) 
energy

$$$$
30:0
     RDKit          3D

 46 48  0  0  0  0  0  0  0  0999 V2000
   58.9670   28.0140   46.7910 C   0  0  0  0  0  0  0  0  0  0  0  0
   59.4400   28.3670   48.1720 C   0  0  0  0  0  0  0  0  0  0  0  0
   60.3220   27.5220   48.8500 C   0  0  0  0  0  0  0  0  0  0  0  0
   60.7380   27.8330   50.1430 C   0  0  0  0  0  0  0  0  0  0  0  0
   60.2750   28.9920   50.7920 C   0  0  0  0  0  0  0  0  0  0  0  0
   60.7240   29.2390   52.2070 C   0  0  0  0  0  0  0  0  0  0  0  0
   59.3640   29.8480   50.1160 C   0  0  0  0  0  0  0  0  0  0  0  0
   58.6710   31.3270   50.8350 S   0  0  0  0  0  0  0  0  0  0  0  0
   59.8110   32.2160   51.2470 O   0  0  0  0  0  0  0  0  0  0  0  0
   57.8690   32.0880   49.8160 O   0  0  0  0  0  0  0  0  0  0  0  0
   57.6930   31.0160   52.2580 N   0  0  0  0  0  0  0  0  0  0  0  0
   56.6080   32.0060   52.4430 C   0  0  0  0  0  0  0  0  0  0  0  0
   55.2470   31.4510   52.0120 C   0  0  0  0  0  0  0  0  0  0  0  0
   54.8880   30.2690   52.8280 N   0  0  0  0  0  0  0  0  0  0  0  0
   53.7420   29.5120   52.2800 C   0  0  0  0  0  0  0  0  0  0  0  0
   52.7480   30.3760   51.5410 C   0  0  0  0  0  0  0  0  0  0  0  0
   52.3040   30.0250   50.2590 C   0  0  0  0  0  0  0  0  0  0  0  0
   51.3940   30.8630   49.6140 C   0  0  0  0  0  0  0  0  0  0  0  0
   50.9770   30.5780   48.4600 O   0  0  0  0  0  0  0  0  0  0  0  0
   50.9560   31.9900   50.2320 N   0  0  0  0  0  0  0  0  0  0  0  0
   51.3930   32.3180   51.4750 C   0  0  0  0  0  0  0  0  0  0  0  0
   50.9740   33.3640   52.0320 O   0  0  0  0  0  0  0  0  0  0  0  0
   52.2830   31.5170   52.1160 N   0  0  0  0  0  0  0  0  0  0  0  0
   56.0390   29.4250   53.2340 C   0  0  0  0  0  0  0  0  0  0  0  0
   57.2430   29.6070   52.2980 C   0  0  0  0  0  0  0  0  0  0  0  0
   58.9490   29.5090   48.8150 C   0  0  0  0  0  0  0  0  0  0  0  0
   58.0872   27.3574   46.8614 H   0  0  0  0  0  0  0  0  0  0  0  0
   58.6965   28.9328   46.2501 H   0  0  0  0  0  0  0  0  0  0  0  0
   59.7708   27.4932   46.2501 H   0  0  0  0  0  0  0  0  0  0  0  0
   60.6895   26.6076   48.3613 H   0  0  0  0  0  0  0  0  0  0  0  0
   61.4381   27.1629   50.6634 H   0  0  0  0  0  0  0  0  0  0  0  0
   59.9790   28.8292   52.9049 H   0  0  0  0  0  0  0  0  0  0  0  0
   61.6935   28.7472   52.3752 H   0  0  0  0  0  0  0  0  0  0  0  0
   60.8277   30.3211   52.3752 H   0  0  0  0  0  0  0  0  0  0  0  0
   56.5580   32.2839   53.5061 H   0  0  0  0  0  0  0  0  0  0  0  0
   56.8338   32.8799   51.8142 H   0  0  0  0  0  0  0  0  0  0  0  0
   54.4804   32.2287   52.1442 H   0  0  0  0  0  0  0  0  0  0  0  0
   55.3034   31.1505   50.9554 H   0  0  0  0  0  0  0  0  0  0  0  0
   54.1273   28.7518   51.5846 H   0  0  0  0  0  0  0  0  0  0  0  0
   53.2111   29.0654   53.1336 H   0  0  0  0  0  0  0  0  0  0  0  0
   52.6655   29.1077   49.7713 H   0  0  0  0  0  0  0  0  0  0  0  0
   56.3386   29.7004   54.2560 H   0  0  0  0  0  0  0  0  0  0  0  0
   55.7240   28.3723   53.1823 H   0  0  0  0  0  0  0  0  0  0  0  0
   58.0714   28.9776   52.6553 H   0  0  0  0  0  0  0  0  0  0  0  0
   56.9372   29.3143   51.2827 H   0  0  0  0  0  0  0  0  0  0  0  0
   58.2256   30.1532   48.2938 H   0  0  0  0  0  0  0  0  0  0  0  0
  1  2  1  0
  2  3  2  0
  3  4  1  0
  4  5  2  0
  5  6  1  0
  5  7  1  0
  7  8  1  0
  8  9  2  0
  8 10  2  0
  8 11  1  0
 11 12  1  0
 12 13  1  0
 13 14  1  0
 14 15  1  0
 15 16  1  0
 16 17  2  0
 17 18  1  0
 18 19  2  0
 18 20  1  0
 20 21  1  0
 21 22  2  0
 21 23  1  0
 14 24  1  0
 24 25  1  0
  7 26  2  0
 26  2  1  0
 25 11  1  0
 23 16  1  0
  1 27  1  0
  1 28  1  0
  1 29  1  0
  3 30  1  0
  4 31  1  0
  6 32  1  0
  6 33  1  0
  6 34  1  0
 12 35  1  0
 12 36  1  0
 13 37  1  0
 13 38  1  0
 15 39  1  0
 15 40  1  0
 17 41  1  0
 24 42  1  0
 24 43  1  0
 25 44  1  0
 25 45  1  0
 26 46  1  0
M  CHG  2  20  -1  23  -1
M  END
>  <UniqueID>  (31) 
30

>  <SMILES>  (31) 
Cc1ccc(C)c(S(=O)(=O)N2CCN(Cc3cc(=O)[n-]c(=O)[n-]3)CC2)c1

>  <Energy>  (31) 
60.37851257744289

>  <Genealogy>  (31) 
Cc1ccc(C)c(S(=O)(=O)N2CCN(Cc3cc(=O)[n-]c(=O)[n-]3)CC2)c1 (protonated)
Cc1ccc(C)c(S(=O)(=O)N2CCN(Cc3cc(=O)[n-]c(=O)[n-]3)CC2)c1 (3D coordinates assigned)
Cc1ccc(C)c(S(=O)(=O)N2CCN(Cc3cc(=O)[n-]c(=O)[n-]3)CC2)c1 (nonaromatic ring conformer: 60.37851257744289 kcal/mol)

>  <smiles>  (31) 
Cc1ccc(C)c(S(=O)(=O)N2CCN(Cc3cc(=O)[nH]c(=O)[nH]3)CC2)c1

>  <score_type>  (31) 
oracle

>  <origin>  (31) 
adg

>  <m_score__min__energy>  (31) 
-13.26

>  <m_primary>  (31) 
energy

$$$$
31:0
     RDKit          3D

 31 32  0  0  0  0  0  0  0  0999 V2000
   59.0110   32.5170   45.7360 C   0  0  0  0  0  0  0  0  0  0  0  0
   57.7990   32.6420   44.4420 S   0  0  0  0  0  0  0  0  0  0  0  0
   56.9890   33.8920   44.6470 O   0  0  0  0  0  0  0  0  0  0  0  0
   58.5010   32.6980   43.1150 O   0  0  0  0  0  0  0  0  0  0  0  0
   56.7660   31.2520   44.5040 N   0  0  0  0  0  0  0  0  0  0  0  0
   57.1770   29.9300   44.8810 C   0  0  0  0  0  0  0  0  0  0  0  0
   58.5320   29.5550   44.9150 C   0  0  0  0  0  0  0  0  0  0  0  0
   58.8940   28.2560   45.2810 C   0  0  0  0  0  0  0  0  0  0  0  0
   57.9120   27.3260   45.6280 C   0  0  0  0  0  0  0  0  0  0  0  0
   56.5590   27.6940   45.6250 C   0  0  0  0  0  0  0  0  0  0  0  0
   55.5400   26.7530   45.9830 N   0  0  0  0  0  0  0  0  0  0  0  0
   55.6820   25.3260   45.9790 C   0  0  0  0  0  0  0  0  0  0  0  0
   54.6740   24.6160   46.2330 O   0  0  0  0  0  0  0  0  0  0  0  0
   57.0070   24.6500   45.7400 C   0  0  0  0  0  0  0  0  0  0  0  0
   56.8210   23.2250   45.3120 C   0  0  0  0  0  0  0  0  0  0  0  0
   56.5000   22.8470   44.0610 N   0  0  0  0  0  0  0  0  0  0  0  0
   56.4890   21.4990   44.1370 C   0  0  0  0  0  0  0  0  0  0  0  0
   56.2280   20.7680   43.1470 O   0  0  0  0  0  0  0  0  0  0  0  0
   56.7840   20.9960   45.3560 N   0  0  0  0  0  0  0  0  0  0  0  0
   56.9930   22.1040   46.0860 C   0  0  0  0  0  0  0  0  0  0  0  0
   57.3390   22.0890   47.4310 O   0  0  0  0  0  0  0  0  0  0  0  0
   56.1950   28.9890   45.2290 C   0  0  0  0  0  0  0  0  0  0  0  0
   54.8500   29.3480   45.1960 O   0  0  0  0  0  0  0  0  0  0  0  0
   58.5100   32.5687   46.7139 H   0  0  0  0  0  0  0  0  0  0  0  0
   59.5444   31.5591   45.6475 H   0  0  0  0  0  0  0  0  0  0  0  0
   59.7287   33.3459   45.6475 H   0  0  0  0  0  0  0  0  0  0  0  0
   59.3099   30.2871   44.6525 H   0  0  0  0  0  0  0  0  0  0  0  0
   59.9548   27.9654   45.2958 H   0  0  0  0  0  0  0  0  0  0  0  0
   58.2008   26.3013   45.9046 H   0  0  0  0  0  0  0  0  0  0  0  0
   57.5496   25.1931   44.9522 H   0  0  0  0  0  0  0  0  0  0  0  0
   57.5766   24.6589   46.6810 H   0  0  0  0  0  0  0  0  0  0  0  0
  1  2  1  0
  2  3  2  0
  2  4  2  0
  2  5  1  0
  5  6  1  0
  6  7  2  0
  7  8  1  0
  8  9  2  0
  9 10  1  0
 10 11  1  0
 11 12  1  0
 12 13  2  0
 12 14  1  0
 14 15  1  0
 15 16  1  0
 16 17  1  0
 17 18  2  0
 17 19  1  0
 19 20  1  0
 20 21  1  0
 10 22  2  0
 22 23  1  0
 22  6  1  0
 20 15  2  0
  1 24  1  0
  1 25  1  0
  1 26  1  0
  7 27  1  0
  8 28  1  0
  9 29  1  0
 14 30  1  0
 14 31  1  0
M  CHG  6   5  -1  11  -1  16  -1  19  -1  21  -1  23  -1
M  END
>  <UniqueID>  (32) 
31

>  <SMILES>  (32) 
CS(=O)(=O)[N-]c1cccc([N-]C(=O)Cc2[n-]c(=O)[n-]c2[O-])c1[O-]

>  <Energy>  (32) 
63.054090201863886

>  <Genealogy>  (32) 
CS(=O)(=O)[N-]c1cccc([N-]C(=O)Cc2[n-]c(=O)[n-]c2[O-])c1[O-] (protonated)
CS(=O)(=O)[N-]c1cccc([N-]C(=O)Cc2[n-]c(=O)[n-]c2[O-])c1[O-] (3D coordinates assigned)
CS(=O)(=O)[N-]c1cccc([N-]C(=O)Cc2[n-]c(=O)[n-]c2[O-])c1[O-] (optimized conformer: 63.054090201863886 kcal/mol)

>  <smiles>  (32) 
CS(=O)(=O)Nc1cccc(NC(=O)Cc2[nH]c(=O)[nH]c2O)c1O

>  <score_type>  (32) 
oracle

>  <origin>  (32) 
adg

>  <m_score__min__energy>  (32) 
-18.440000000000001

>  <m_primary>  (32) 
energy

$$$$
32:0
     RDKit          3D

 73 74  0  0  0  0  0  0  0  0999 V2000
   58.2110   33.4300   47.6070 C   0  0  0  0  0  0  0  0  0  0  0  0
   59.0790   33.6070   46.4370 N   0  0  0  0  0  0  0  0  0  0  0  0
   59.6360   34.9640   46.4200 C   0  0  0  0  0  0  0  0  0  0  0  0
   58.1700   33.3220   44.9720 S   0  0  0  0  0  0  0  0  0  0  0  0
   58.9690   33.7910   43.7870 O   0  0  0  0  0  0  0  0  0  0  0  0
   56.8930   34.1150   45.0150 O   0  0  0  0  0  0  0  0  0  0  0  0
   57.7850   31.6090   44.7700 C   0  0  0  0  0  0  0  0  0  0  0  0
   56.5640   31.2210   44.2000 C   0  0  0  0  0  0  0  0  0  0  0  0
   56.2880   29.8690   43.9870 C   0  0  0  0  0  0  0  0  0  0  0  0
   57.2320   28.8970   44.3340 C   0  0  0  0  0  0  0  0  0  0  0  0
   58.4520   29.2730   44.9150 C   0  0  0  0  0  0  0  0  0  0  0  0
   59.6770   28.0570   45.2770 S   0  0  0  0  0  0  0  0  0  0  0  0
   60.9310   28.3780   44.5170 O   0  0  0  0  0  0  0  0  0  0  0  0
   59.2140   26.6920   44.8600 O   0  0  0  0  0  0  0  0  0  0  0  0
   60.0370   28.0960   46.9750 N   0  0  0  0  0  0  0  0  0  0  0  0
   60.0660   29.2800   47.7830 C   0  0  0  0  0  0  0  0  0  0  0  0
   59.0280   29.5020   48.6950 C   0  0  0  0  0  0  0  0  0  0  0  0
   59.0480   30.6210   49.5330 C   0  0  0  0  0  0  0  0  0  0  0  0
   60.1040   31.5460   49.4660 C   0  0  0  0  0  0  0  0  0  0  0  0
   60.1230   32.7210   50.3730 C   0  0  0  0  0  0  0  0  0  0  0  0
   61.2210   33.2920   50.6170 O   0  0  0  0  0  0  0  0  0  0  0  0
   58.9120   33.2210   50.9670 N   0  0  0  0  0  0  0  0  0  0  0  0
   58.9040   34.2330   52.0250 C   0  0  0  0  0  0  0  0  0  0  0  0
   58.6720   33.5860   53.3940 C   0  0  0  0  0  0  0  0  0  0  0  0
   57.9840   32.2160   53.2770 C   0  0  0  0  0  0  0  0  0  0  0  0
   56.6600   32.2770   52.4830 C   0  0  0  0  0  0  0  0  0  0  0  0
   56.2420   30.9300   51.8630 C   0  0  0  0  0  0  0  0  0  0  0  0
   55.4670   29.9970   52.8110 C   0  0  0  0  0  0  0  0  0  0  0  0
   54.2680   29.2870   52.1430 C   0  0  0  0  0  0  0  0  0  0  0  0
   53.0060   29.3060   53.0210 C   0  0  0  0  0  0  0  0  0  0  0  0
   52.0670   30.4820   52.6920 C   0  0  0  0  0  0  0  0  0  0  0  0
   52.4510   31.2620   51.4240 C   0  0  0  0  0  0  0  0  0  0  0  0
   51.4060   32.2640   51.0390 C   0  0  0  0  0  0  0  0  0  0  0  0
   51.0260   32.3540   49.8420 O   0  0  0  0  0  0  0  0  0  0  0  0
   50.8260   33.0730   52.0080 O   0  0  0  0  0  0  0  0  0  0  0  0
   61.1160   31.3470   48.5100 C   0  0  0  0  0  0  0  0  0  0  0  0
   61.0980   30.2250   47.6780 C   0  0  0  0  0  0  0  0  0  0  0  0
   58.7170   30.6310   45.1420 C   0  0  0  0  0  0  0  0  0  0  0  0
   58.8043   33.5510   48.5254 H   0  0  0  0  0  0  0  0  0  0  0  0
   57.4096   34.1832   47.5863 H   0  0  0  0  0  0  0  0  0  0  0  0
   57.7685   32.4231   47.5863 H   0  0  0  0  0  0  0  0  0  0  0  0
   59.7798   35.3143   47.4528 H   0  0  0  0  0  0  0  0  0  0  0  0
   60.6038   34.9566   45.8972 H   0  0  0  0  0  0  0  0  0  0  0  0
   58.9421   35.6387   45.8972 H   0  0  0  0  0  0  0  0  0  0  0  0
   55.8221   31.9834   43.9201 H   0  0  0  0  0  0  0  0  0  0  0  0
   55.3265   29.5678   43.5456 H   0  0  0  0  0  0  0  0  0  0  0  0
   57.0169   27.8339   44.1506 H   0  0  0  0  0  0  0  0  0  0  0  0
   58.1905   28.7912   48.7529 H   0  0  0  0  0  0  0  0  0  0  0  0
   58.2299   30.7788   50.2512 H   0  0  0  0  0  0  0  0  0  0  0  0
   57.9900   32.8660   50.6340 H   0  0  0  0  0  0  0  0  0  0  0  0
   59.8722   34.7551   52.0322 H   0  0  0  0  0  0  0  0  0  0  0  0
   58.0877   34.9434   51.8276 H   0  0  0  0  0  0  0  0  0  0  0  0
   59.6433   33.4537   53.8930 H   0  0  0  0  0  0  0  0  0  0  0  0
   58.0123   34.2480   53.9741 H   0  0  0  0  0  0  0  0  0  0  0  0
   58.6680   31.5216   52.7671 H   0  0  0  0  0  0  0  0  0  0  0  0
   57.7440   31.8777   54.2958 H   0  0  0  0  0  0  0  0  0  0  0  0
   55.8622   32.6071   53.1646 H   0  0  0  0  0  0  0  0  0  0  0  0
   56.8193   32.9768   51.6494 H   0  0  0  0  0  0  0  0  0  0  0  0
   55.6050   31.1376   50.9906 H   0  0  0  0  0  0  0  0  0  0  0  0
   57.1735   30.4052   51.6045 H   0  0  0  0  0  0  0  0  0  0  0  0
   56.1601   29.2294   53.1856 H   0  0  0  0  0  0  0  0  0  0  0  0
   55.0596   30.6250   53.6170 H   0  0  0  0  0  0  0  0  0  0  0  0
   54.0436   29.7932   51.1925 H   0  0  0  0  0  0  0  0  0  0  0  0
   54.5489   28.2351   51.9858 H   0  0  0  0  0  0  0  0  0  0  0  0
   52.4574   28.3649   52.8681 H   0  0  0  0  0  0  0  0  0  0  0  0
   53.3310   29.4241   54.0652 H   0  0  0  0  0  0  0  0  0  0  0  0
   51.0505   30.0840   52.5571 H   0  0  0  0  0  0  0  0  0  0  0  0
   52.1411   31.1889   53.5315 H   0  0  0  0  0  0  0  0  0  0  0  0
   53.3985   31.7902   51.6061 H   0  0  0  0  0  0  0  0  0  0  0  0
   52.5476   30.5404   50.5994 H   0  0  0  0  0  0  0  0  0  0  0  0
   61.9293   32.0817   48.4165 H   0  0  0  0  0  0  0  0  0  0  0  0
   61.8975   30.0814   46.9362 H   0  0  0  0  0  0  0  0  0  0  0  0
   59.6635   30.9308   45.6156 H   0  0  0  0  0  0  0  0  0  0  0  0
  1  2  1  0
  2  3  1  0
  2  4  1  0
  4  5  2  0
  4  6  2  0
  4  7  1  0
  7  8  2  0
  8  9  1  0
  9 10  2  0
 10 11  1  0
 11 12  1  0
 12 13  2  0
 12 14  2  0
 12 15  1  0
 15 16  1  0
 16 17  2  0
 17 18  1  0
 18 19  2  0
 19 20  1  0
 20 21  2  0
 20 22  1  0
 22 23  1  0
 23 24  1  0
 24 25  1  0
 25 26  1  0
 26 27  1  0
 27 28  1  0
 28 29  1  0
 29 30  1  0
 30 31  1  0
 31 32  1  0
 32 33  1  0
 33 34  2  0
 33 35  1  0
 19 36  1  0
 36 37  2  0
 11 38  2  0
 38  7  1  0
 37 16  1  0
  1 39  1  0
  1 40  1  0
  1 41  1  0
  3 42  1  0
  3 43  1  0
  3 44  1  0
  8 45  1  0
  9 46  1  0
 10 47  1  0
 17 48  1  0
 18 49  1  0
 22 50  1  0
 23 51  1  0
 23 52  1  0
 24 53  1  0
 24 54  1  0
 25 55  1  0
 25 56  1  0
 26 57  1  0
 26 58  1  0
 27 59  1  0
 27 60  1  0
 28 61  1  0
 28 62  1  0
 29 63  1  0
 29 64  1  0
 30 65  1  0
 30 66  1  0
 31 67  1  0
 31 68  1  0
 32 69  1  0
 32 70  1  0
 36 71  1  0
 37 72  1  0
 38 73  1  0
M  CHG  2  15  -1  35  -1
M  END
>  <UniqueID>  (33) 
32

>  <SMILES>  (33) 
CN(C)S(=O)(=O)c1cccc(S(=O)(=O)[N-]c2ccc(C(=O)NCCCCCCCCCCC(=O)[O-])cc2)c1

>  <Energy>  (33) 
63.50641386176733

>  <Genealogy>  (33) 
CN(C)S(=O)(=O)c1cccc(S(=O)(=O)[N-]c2ccc(C(=O)NCCCCCCCCCCC(=O)[O-])cc2)c1 (protonated)
CN(C)S(=O)(=O)c1cccc(S(=O)(=O)[N-]c2ccc(C(=O)NCCCCCCCCCCC(=O)[O-])cc2)c1 (3D coordinates assigned)
CN(C)S(=O)(=O)c1cccc(S(=O)(=O)[N-]c2ccc(C(=O)NCCCCCCCCCCC(=O)[O-])cc2)c1 (optimized conformer: 63.50641386176733 kcal/mol)

>  <smiles>  (33) 
CN(C)S(=O)(=O)c1cccc(S(=O)(=O)Nc2ccc(C(=O)NCCCCCCCCCCC(=O)O)cc2)c1

>  <score_type>  (33) 
oracle

>  <origin>  (33) 
adg

>  <m_score__min__energy>  (33) 
-14.199999999999999

>  <m_primary>  (33) 
energy

$$$$
33:0
     RDKit          3D

 77 83  0  0  0  0  0  0  0  0999 V2000
   60.3495   36.0844   47.1727 H   0  0  0  0  0  0  0  0  0  0  0  0
   59.7420   35.2670   46.7570 C   0  0  0  0  0  0  0  0  0  0  0  0
   59.3330   35.3110   45.4250 C   0  0  0  0  0  0  0  0  0  0  0  0
   59.5981   36.1749   44.7977 H   0  0  0  0  0  0  0  0  0  0  0  0
   58.5870   34.2600   44.8850 C   0  0  0  0  0  0  0  0  0  0  0  0
   58.2738   34.2980   43.8312 H   0  0  0  0  0  0  0  0  0  0  0  0
   58.2340   33.1550   45.6780 C   0  0  0  0  0  0  0  0  0  0  0  0
   57.4770   32.0190   45.0430 C   0  0  0  0  0  0  0  0  0  0  0  0
   57.0501   31.3783   45.8287 H   0  0  0  0  0  0  0  0  0  0  0  0
   56.6665   32.4224   44.4182 H   0  0  0  0  0  0  0  0  0  0  0  0
   58.1613   31.4263   44.4182 H   0  0  0  0  0  0  0  0  0  0  0  0
   58.5910   33.1490   47.0500 C   0  0  0  0  0  0  0  0  0  0  0  0
   58.2270   32.0680   47.9230 N   0  0  0  0  0  0  0  0  0  0  0  0
   58.9660   31.3980   48.7750 C   0  0  0  0  0  0  0  0  0  0  0  0
   60.0720   30.6780   48.2580 C   0  0  0  0  0  0  0  0  0  0  0  0
   60.5010   30.7820   46.8330 C   0  0  0  0  0  0  0  0  0  0  0  0
   60.9680   31.8660   46.3900 O   0  0  0  0  0  0  0  0  0  0  0  0
   60.3030   29.6980   45.9170 N   0  0  0  0  0  0  0  0  0  0  0  0
   59.2120   28.7740   45.9880 C   0  0  0  0  0  0  0  0  0  0  0  0
   59.2510   27.7340   46.9220 C   0  0  0  0  0  0  0  0  0  0  0  0
   60.1056   27.6464   47.6090 H   0  0  0  0  0  0  0  0  0  0  0  0
   58.2080   26.8050   46.9860 C   0  0  0  0  0  0  0  0  0  0  0  0
   58.2619   25.9707   47.7009 H   0  0  0  0  0  0  0  0  0  0  0  0
   57.0910   26.9310   46.1420 C   0  0  0  0  0  0  0  0  0  0  0  0
   55.9880   25.9460   46.1870 C   0  0  0  0  0  0  0  0  0  0  0  0
   54.8010   26.3340   45.9990 O   0  0  0  0  0  0  0  0  0  0  0  0
   56.2550   24.5520   46.4040 N   0  0  0  0  0  0  0  0  0  0  0  0
   57.2410   24.2070   46.4450 H   0  0  0  0  0  0  0  0  0  0  0  0
   55.1770   23.5730   46.4840 C   0  0  0  0  0  0  0  0  0  0  0  0
   54.9481   23.3651   47.5396 H   0  0  0  0  0  0  0  0  0  0  0  0
   54.2811   23.9726   45.9864 H   0  0  0  0  0  0  0  0  0  0  0  0
   55.4887   22.6429   45.9864 H   0  0  0  0  0  0  0  0  0  0  0  0
   57.0290   28.0160   45.2530 C   0  0  0  0  0  0  0  0  0  0  0  0
   56.1349   28.1586   44.6283 H   0  0  0  0  0  0  0  0  0  0  0  0
   58.0930   28.9160   45.1550 C   0  0  0  0  0  0  0  0  0  0  0  0
   58.0529   29.7368   44.4237 H   0  0  0  0  0  0  0  0  0  0  0  0
   60.6880   29.7200   49.0690 C   0  0  0  0  0  0  0  0  0  0  0  0
   61.5837   29.1927   48.7090 H   0  0  0  0  0  0  0  0  0  0  0  0
   60.1720   29.4290   50.3340 C   0  0  0  0  0  0  0  0  0  0  0  0
   60.6710   28.3750   51.1220 C   0  0  0  0  0  0  0  0  0  0  0  0
   61.6350   27.6780   50.6930 O   0  0  0  0  0  0  0  0  0  0  0  0
   60.1070   28.1020   52.3450 N   0  0  0  0  0  0  0  0  0  0  0  0
   60.5840   27.0770   53.1230 C   0  0  0  0  0  0  0  0  0  0  0  0
   61.4273   26.4692   52.7633 H   0  0  0  0  0  0  0  0  0  0  0  0
   60.0120   26.7960   54.3660 C   0  0  0  0  0  0  0  0  0  0  0  0
   60.4015   25.9718   54.9816 H   0  0  0  0  0  0  0  0  0  0  0  0
   58.9450   27.5670   54.8200 C   0  0  0  0  0  0  0  0  0  0  0  0
   58.4880   27.3564   55.7982 H   0  0  0  0  0  0  0  0  0  0  0  0
   58.4590   28.6060   54.0300 C   0  0  0  0  0  0  0  0  0  0  0  0
   57.6158   29.2197   54.3799 H   0  0  0  0  0  0  0  0  0  0  0  0
   59.0500   28.8640   52.7890 C   0  0  0  0  0  0  0  0  0  0  0  0
   58.5840   29.8940   52.0400 N   0  0  0  0  0  0  0  0  0  0  0  0
   59.1200   30.2110   50.8340 C   0  0  0  0  0  0  0  0  0  0  0  0
   58.6530   31.2930   50.1220 N   0  0  0  0  0  0  0  0  0  0  0  0
   57.9360   32.3760   50.8480 C   0  0  0  0  0  0  0  0  0  0  0  0
   57.2284   32.8514   50.1528 H   0  0  0  0  0  0  0  0  0  0  0  0
   57.4298   31.9091   51.7058 H   0  0  0  0  0  0  0  0  0  0  0  0
   58.8720   33.4660   51.4130 C   0  0  0  0  0  0  0  0  0  0  0  0
   58.9267   34.2939   50.6907 H   0  0  0  0  0  0  0  0  0  0  0  0
   58.4572   33.7983   52.3760 H   0  0  0  0  0  0  0  0  0  0  0  0
   60.2610   32.9530   51.6650 C   0  0  0  0  0  0  0  0  0  0  0  0
   60.6920   32.2630   52.7940 C   0  0  0  0  0  0  0  0  0  0  0  0
   60.0637   32.0338   53.6674 H   0  0  0  0  0  0  0  0  0  0  0  0
   61.9920   31.9140   52.6660 N   0  0  0  0  0  0  0  0  0  0  0  0
   62.5620   31.3750   53.3540 H   0  0  0  0  0  0  0  0  0  0  0  0
   62.3880   32.3830   51.4700 C   0  0  0  0  0  0  0  0  0  0  0  0
   63.6480   32.2530   50.8860 C   0  0  0  0  0  0  0  0  0  0  0  0
   64.4593   31.7189   51.4023 H   0  0  0  0  0  0  0  0  0  0  0  0
   63.8500   32.8250   49.6180 C   0  0  0  0  0  0  0  0  0  0  0  0
   64.8380   32.7586   49.1391 H   0  0  0  0  0  0  0  0  0  0  0  0
   62.7920   33.4840   48.9560 C   0  0  0  0  0  0  0  0  0  0  0  0
   62.9605   33.9278   47.9637 H   0  0  0  0  0  0  0  0  0  0  0  0
   61.5250   33.5770   49.5560 C   0  0  0  0  0  0  0  0  0  0  0  0
   60.6883   34.0704   49.0397 H   0  0  0  0  0  0  0  0  0  0  0  0
   61.3600   33.0240   50.8280 C   0  0  0  0  0  0  0  0  0  0  0  0
   59.3810   34.1860   47.5640 C   0  0  0  0  0  0  0  0  0  0  0  0
   59.7190   34.1483   48.6101 H   0  0  0  0  0  0  0  0  0  0  0  0
  1  2  1  0
  2  3  2  0
  3  4  1  0
  3  5  1  0
  5  6  1  0
  5  7  2  0
  7  8  1  0
  8  9  1  0
  8 10  1  0
  8 11  1  0
  7 12  1  0
 12 13  1  0
 13 14  2  0
 14 15  1  0
 15 16  1  0
 16 17  2  0
 16 18  1  0
 18 19  1  0
 19 20  2  0
 20 21  1  0
 20 22  1  0
 22 23  1  0
 22 24  2  0
 24 25  1  0
 25 26  2  0
 25 27  1  0
 27 28  1  0
 27 29  1  0
 29 30  1  0
 29 31  1  0
 29 32  1  0
 24 33  1  0
 33 34  1  0
 33 35  2  0
 35 36  1  0
 15 37  2  0
 37 38  1  0
 37 39  1  0
 39 40  1  0
 40 41  2  0
 40 42  1  0
 42 43  1  0
 43 44  1  0
 43 45  2  0
 45 46  1  0
 45 47  1  0
 47 48  1  0
 47 49  2  0
 49 50  1  0
 49 51  1  0
 51 52  2  0
 52 53  1  0
 53 54  1  0
 54 55  1  0
 55 56  1  0
 55 57  1  0
 55 58  1  0
 58 59  1  0
 58 60  1  0
 58 61  1  0
 61 62  2  0
 62 63  1  0
 62 64  1  0
 64 65  1  0
 64 66  1  0
 66 67  2  0
 67 68  1  0
 67 69  1  0
 69 70  1  0
 69 71  2  0
 71 72  1  0
 71 73  1  0
 73 74  1  0
 73 75  2  0
 12 76  2  0
 76 77  1  0
 76  2  1  0
 54 14  1  0
 75 61  1  0
 35 19  1  0
 53 39  2  0
 75 66  1  0
 51 42  1  0
M  CHG  1  18  -1
M  END
>  <UniqueID>  (34) 
33

>  <SMILES>  (34) 
CNC(=O)c1ccc([N-]C(=O)c2cc3c(=O)n4ccccc4nc3n(CCc3c[nH]c4ccccc34)/c2=N/c2ccccc2C)cc1

>  <Energy>  (34) 
158.35897234764278

>  <Genealogy>  (34) 
CNC(=O)c1ccc([N-]C(=O)c2cc3c(=O)n4ccccc4nc3n(CCc3c[nH]c4ccccc34)c2=Nc2ccccc2C)cc1 (protonated)
CNC(=O)c1ccc([N-]C(=O)c2cc3c(=O)n4ccccc4nc3n(CCc3c[nH]c4ccccc34)/c2=N/c2ccccc2C)cc1 (cis-trans isomerization)
CNC(=O)c1ccc([N-]C(=O)c2cc3c(=O)n4ccccc4nc3n(CCc3c[nH]c4ccccc34)/c2=N/c2ccccc2C)cc1 (3D coordinates assigned)
CNC(=O)c1ccc([N-]C(=O)c2cc3c(=O)n4ccccc4nc3n(CCc3c[nH]c4ccccc34)/c2=N/c2ccccc2C)cc1 (optimized conformer: 158.35897234764278 kcal/mol)

>  <smiles>  (34) 
CNC(=O)c1ccc(NC(=O)c2cc3c(=O)n4ccccc4nc3n(CCc3c[nH]c4ccccc34)c2=Nc2ccccc2C)cc1

>  <score_type>  (34) 
oracle

>  <origin>  (34) 
adg

>  <m_score__min__energy>  (34) 
-12.26

>  <m_primary>  (34) 
energy

$$$$
34:0
     RDKit          3D

 28 29  0  0  0  0  0  0  0  0999 V2000
   57.4890   33.8390   45.0540 C   0  0  0  0  0  0  0  0  0  0  0  0
   57.8160   32.3720   45.1510 C   0  0  0  0  0  0  0  0  0  0  0  0
   57.7250   31.5680   44.0030 C   0  0  0  0  0  0  0  0  0  0  0  0
   58.0230   30.2060   44.0630 C   0  0  0  0  0  0  0  0  0  0  0  0
   58.4080   29.6190   45.2740 C   0  0  0  0  0  0  0  0  0  0  0  0
   58.7670   28.1590   45.3300 C   0  0  0  0  0  0  0  0  0  0  0  0
   57.5710   27.3490   45.7250 C   0  0  0  0  0  0  0  0  0  0  0  0
   57.6290   26.0670   46.1290 N   0  0  0  0  0  0  0  0  0  0  0  0
   56.3300   25.7400   46.3050 C   0  0  0  0  0  0  0  0  0  0  0  0
   55.9650   24.6010   46.6930 O   0  0  0  0  0  0  0  0  0  0  0  0
   55.4530   26.7280   46.0260 N   0  0  0  0  0  0  0  0  0  0  0  0
   56.2560   27.7390   45.6540 C   0  0  0  0  0  0  0  0  0  0  0  0
   55.8000   28.9890   45.2510 O   0  0  0  0  0  0  0  0  0  0  0  0
   58.5140   30.4150   46.4240 C   0  0  0  0  0  0  0  0  0  0  0  0
   58.2140   31.7880   46.3780 C   0  0  0  0  0  0  0  0  0  0  0  0
   58.3370   32.6130   47.6320 C   0  0  0  0  0  0  0  0  0  0  0  0
   57.3949   34.2613   46.0653 H   0  0  0  0  0  0  0  0  0  0  0  0
   58.2933   34.3590   44.5129 H   0  0  0  0  0  0  0  0  0  0  0  0
   56.5400   33.9681   44.5129 H   0  0  0  0  0  0  0  0  0  0  0  0
   57.4158   32.0163   43.0473 H   0  0  0  0  0  0  0  0  0  0  0  0
   57.9550   29.5905   43.1539 H   0  0  0  0  0  0  0  0  0  0  0  0
   59.1166   27.8322   44.3396 H   0  0  0  0  0  0  0  0  0  0  0  0
   59.5627   28.0126   46.0753 H   0  0  0  0  0  0  0  0  0  0  0  0
   55.6270   29.7190   45.9320 H   0  0  0  0  0  0  0  0  0  0  0  0
   58.8354   29.9601   47.3725 H   0  0  0  0  0  0  0  0  0  0  0  0
   58.2396   31.9598   48.5117 H   0  0  0  0  0  0  0  0  0  0  0  0
   59.3189   33.1084   47.6501 H   0  0  0  0  0  0  0  0  0  0  0  0
   57.5423   33.3733   47.6501 H   0  0  0  0  0  0  0  0  0  0  0  0
  1  2  1  0
  2  3  2  0
  3  4  1  0
  4  5  2  0
  5  6  1  0
  6  7  1  0
  7  8  1  0
  8  9  1  0
  9 10  2  0
  9 11  1  0
 11 12  1  0
 12 13  1  0
  5 14  1  0
 14 15  2  0
 15 16  1  0
 15  2  1  0
 12  7  2  0
  1 17  1  0
  1 18  1  0
  1 19  1  0
  3 20  1  0
  4 21  1  0
  6 22  1  0
  6 23  1  0
 13 24  1  0
 14 25  1  0
 16 26  1  0
 16 27  1  0
 16 28  1  0
M  CHG  2   8  -1  11  -1
M  END
>  <UniqueID>  (35) 
34

>  <SMILES>  (35) 
Cc1ccc(Cc2[n-]c(=O)[n-]c2O)cc1C

>  <Energy>  (35) 
54.88963045909031

>  <Genealogy>  (35) 
Cc1ccc(Cc2[n-]c(=O)[n-]c2O)cc1C (protonated)
Cc1ccc(Cc2[n-]c(=O)[n-]c2O)cc1C (3D coordinates assigned)
Cc1ccc(Cc2[n-]c(=O)[n-]c2O)cc1C (optimized conformer: 54.88963045909031 kcal/mol)

>  <smiles>  (35) 
Cc1ccc(Cc2[nH]c(=O)[nH]c2O)cc1C

>  <score_type>  (35) 
oracle

>  <origin>  (35) 
adg

>  <m_score__min__energy>  (35) 
-10.880000000000001

>  <m_primary>  (35) 
energy

$$$$
35:0
     RDKit          3D

 59 63  0  0  0  0  0  0  0  0999 V2000
   59.9900   28.7020   48.0060 C   0  0  0  0  0  0  0  0  0  0  0  0
   59.6770   30.0680   48.1770 O   0  0  0  0  0  0  0  0  0  0  0  0
   60.4710   30.6360   49.2040 C   0  0  0  0  0  0  0  0  0  0  0  0
   61.9220   30.8900   48.7270 C   0  0  2  0  0  0  0  0  0  0  0  0
   62.7600   31.4940   49.8220 C   0  0  0  0  0  0  0  0  0  0  0  0
   62.7880   31.0950   51.1100 N   0  0  0  0  0  0  0  0  0  0  0  0
   63.8330   31.7750   51.6370 C   0  0  0  0  0  0  0  0  0  0  0  0
   64.4630   32.5560   50.7290 N   0  0  0  0  0  0  0  0  0  0  0  0
   65.6420   33.3490   50.9490 C   0  0  0  0  0  0  0  0  0  0  0  0
   65.6060   34.4670   51.8010 C   0  0  0  0  0  0  0  0  0  0  0  0
   66.7540   35.2390   51.9980 C   0  0  0  0  0  0  0  0  0  0  0  0
   67.9460   34.9030   51.3510 C   0  0  0  0  0  0  0  0  0  0  0  0
   67.9960   33.7830   50.5170 C   0  0  0  0  0  0  0  0  0  0  0  0
   66.8500   33.0090   50.3170 C   0  0  0  0  0  0  0  0  0  0  0  0
   63.7930   32.3550   49.5780 C   0  0  0  0  0  0  0  0  0  0  0  0
   64.1180   32.8910   48.2170 C   0  0  0  0  0  0  0  0  0  0  0  0
   63.4090   32.0500   47.1300 C   0  0  0  0  0  0  0  0  0  0  0  0
   62.0020   31.7070   47.4740 N   0  0  2  0  0  0  0  0  0  0  0  0
   61.1830   32.9120   47.5000 C   0  0  0  0  0  0  0  0  0  0  0  0
   61.4960   33.8700   48.2600 O   0  0  0  0  0  0  0  0  0  0  0  0
   60.0350   33.0970   46.5740 C   0  0  0  0  0  0  0  0  0  0  0  0
   59.6790   34.3940   46.1660 C   0  0  0  0  0  0  0  0  0  0  0  0
   58.6050   34.5930   45.2970 C   0  0  0  0  0  0  0  0  0  0  0  0
   57.8620   33.5060   44.8350 C   0  0  0  0  0  0  0  0  0  0  0  0
   58.1780   32.2050   45.2540 C   0  0  0  0  0  0  0  0  0  0  0  0
   57.3980   31.0420   44.7780 C   0  0  0  0  0  0  0  0  0  0  0  0
   56.1760   31.1830   44.5030 O   0  0  0  0  0  0  0  0  0  0  0  0
   58.0070   29.7630   44.5880 N   0  0  0  0  0  0  0  0  0  0  0  0
   59.3570   29.1680   44.5390 C   0  0  0  0  0  0  0  0  0  0  0  0
   58.9180   27.8150   44.0860 C   0  0  0  0  0  0  0  0  0  0  0  0
   57.5590   28.4290   44.1550 C   0  0  0  0  0  0  0  0  0  0  0  0
   59.2690   32.0070   46.1180 C   0  0  0  0  0  0  0  0  0  0  0  0
   60.0993   28.2248   48.9910 H   0  0  0  0  0  0  0  0  0  0  0  0
   59.1818   28.2078   47.4469 H   0  0  0  0  0  0  0  0  0  0  0  0
   60.9327   28.6090   47.4469 H   0  0  0  0  0  0  0  0  0  0  0  0
   60.0242   31.5924   49.5132 H   0  0  0  0  0  0  0  0  0  0  0  0
   60.5040   29.9280   50.0452 H   0  0  0  0  0  0  0  0  0  0  0  0
   62.3349   29.9019   48.4757 H   0  0  0  0  0  0  0  0  0  0  0  0
   64.1378   31.7007   52.6913 H   0  0  0  0  0  0  0  0  0  0  0  0
   64.6707   34.7349   52.3143 H   0  0  0  0  0  0  0  0  0  0  0  0
   66.7192   36.1136   52.6642 H   0  0  0  0  0  0  0  0  0  0  0  0
   68.8447   35.5200   51.4982 H   0  0  0  0  0  0  0  0  0  0  0  0
   68.9376   33.5106   50.0179 H   0  0  0  0  0  0  0  0  0  0  0  0
   66.8938   32.1276   49.6604 H   0  0  0  0  0  0  0  0  0  0  0  0
   63.7795   33.9353   48.1471 H   0  0  0  0  0  0  0  0  0  0  0  0
   65.2055   32.8381   48.0601 H   0  0  0  0  0  0  0  0  0  0  0  0
   63.4089   32.6225   46.1907 H   0  0  0  0  0  0  0  0  0  0  0  0
   63.9617   31.1033   47.0391 H   0  0  0  0  0  0  0  0  0  0  0  0
   61.6730   31.0860   46.7020 H   0  0  0  0  0  0  0  0  0  0  0  0
   60.2509   35.2585   46.5342 H   0  0  0  0  0  0  0  0  0  0  0  0
   58.3431   35.6116   44.9748 H   0  0  0  0  0  0  0  0  0  0  0  0
   57.0255   33.6698   44.1397 H   0  0  0  0  0  0  0  0  0  0  0  0
   60.0145   29.6666   43.8116 H   0  0  0  0  0  0  0  0  0  0  0  0
   59.9596   29.2173   45.4579 H   0  0  0  0  0  0  0  0  0  0  0  0
   59.2546   27.5178   43.0818 H   0  0  0  0  0  0  0  0  0  0  0  0
   59.1957   26.8775   44.5901 H   0  0  0  0  0  0  0  0  0  0  0  0
   57.0525   28.4482   43.1787 H   0  0  0  0  0  0  0  0  0  0  0  0
   56.8141   27.9231   44.7868 H   0  0  0  0  0  0  0  0  0  0  0  0
   59.5275   30.9880   46.4419 H   0  0  0  0  0  0  0  0  0  0  0  0
  1  2  1  0
  2  3  1  0
  3  4  1  0
  4  5  1  0
  5  6  1  0
  6  7  2  0
  7  8  1  0
  8  9  1  0
  9 10  2  0
 10 11  1  0
 11 12  2  0
 12 13  1  0
 13 14  2  0
  8 15  1  0
 15 16  1  0
 16 17  1  0
 17 18  1  0
 18 19  1  0
 19 20  2  0
 19 21  1  0
 21 22  2  0
 22 23  1  0
 23 24  2  0
 24 25  1  0
 25 26  1  0
 26 27  2  0
 26 28  1  0
 28 29  1  0
 29 30  1  0
 30 31  1  0
 25 32  2  0
 18  4  1  0
 32 21  1  0
 15  5  2  0
 31 28  1  0
 14  9  1  0
  1 33  1  0
  1 34  1  0
  1 35  1  0
  3 36  1  0
  3 37  1  0
  4 38  1  6
  7 39  1  0
 10 40  1  0
 11 41  1  0
 12 42  1  0
 13 43  1  0
 14 44  1  0
 16 45  1  0
 16 46  1  0
 17 47  1  0
 17 48  1  0
 18 49  1  6
 22 50  1  0
 23 51  1  0
 24 52  1  0
 29 53  1  0
 29 54  1  0
 30 55  1  0
 30 56  1  0
 31 57  1  0
 31 58  1  0
 32 59  1  0
M  CHG  1  18   1
M  END
>  <UniqueID>  (36) 
35

>  <SMILES>  (36) 
COC[C@@H]1c2ncn(-c3ccccc3)c2CC[N@@H+]1C(=O)c1cccc(C(=O)N2CCC2)c1

>  <Energy>  (36) 
161.08937970187037

>  <Genealogy>  (36) 
COCC1c2ncn(-c3ccccc3)c2CC[NH+]1C(=O)c1cccc(C(=O)N2CCC2)c1 (protonated)
COC[C@@H]1c2ncn(-c3ccccc3)c2CC[N@@H+]1C(=O)c1cccc(C(=O)N2CCC2)c1 (chirality)
COC[C@@H]1c2ncn(-c3ccccc3)c2CC[N@@H+]1C(=O)c1cccc(C(=O)N2CCC2)c1 (3D coordinates assigned)
COC[C@@H]1c2ncn(-c3ccccc3)c2CC[N@@H+]1C(=O)c1cccc(C(=O)N2CCC2)c1 (nonaromatic ring conformer: 161.08937970187037 kcal/mol)

>  <smiles>  (36) 
COCC1c2ncn(-c3ccccc3)c2CCN1C(=O)c1cccc(C(=O)N2CCC2)c1

>  <score_type>  (36) 
oracle

>  <origin>  (36) 
adg

>  <m_score__min__energy>  (36) 
-7.7599999999999998

>  <m_primary>  (36) 
energy

$$$$
36:0
     RDKit          3D

 52 56  0  0  0  0  0  0  0  0999 V2000
   53.3219   23.3779   45.5101 H   0  0  0  0  0  0  0  0  0  0  0  0
   54.4070   23.5470   45.4480 C   0  0  0  0  0  0  0  0  0  0  0  0
   55.1330   24.1390   46.3670 O   0  0  0  0  0  0  0  0  0  0  0  0
   56.3830   24.1630   45.9610 C   0  0  0  0  0  0  0  0  0  0  0  0
   57.5010   24.7940   46.7290 C   0  0  0  0  0  0  0  0  0  0  0  0
   58.4226   24.7538   46.1299 H   0  0  0  0  0  0  0  0  0  0  0  0
   57.6449   24.2467   47.6723 H   0  0  0  0  0  0  0  0  0  0  0  0
   57.1790   26.1850   47.0270 N   0  0  0  0  0  0  0  0  0  0  0  0
   56.3720   27.0020   46.1710 C   0  0  0  0  0  0  0  0  0  0  0  0
   55.1620   26.7060   45.9830 O   0  0  0  0  0  0  0  0  0  0  0  0
   56.9720   28.1780   45.5130 C   0  0  0  0  0  0  0  0  0  0  0  0
   56.3480   29.3890   45.5500 N   0  0  0  0  0  0  0  0  0  0  0  0
   57.0470   30.3450   44.9040 C   0  0  0  0  0  0  0  0  0  0  0  0
   56.6430   31.5810   44.8550 N   0  0  0  0  0  0  0  0  0  0  0  0
   57.3700   32.7360   45.2980 C   0  0  0  0  0  0  0  0  0  0  0  0
   58.1160   33.4660   44.3620 C   0  0  0  0  0  0  0  0  0  0  0  0
   58.1072   33.1681   43.3031 H   0  0  0  0  0  0  0  0  0  0  0  0
   58.8720   34.5720   44.7680 C   0  0  0  0  0  0  0  0  0  0  0  0
   59.4415   35.1505   44.0257 H   0  0  0  0  0  0  0  0  0  0  0  0
   58.9040   34.9420   46.1150 C   0  0  0  0  0  0  0  0  0  0  0  0
   59.4918   35.8162   46.4316 H   0  0  0  0  0  0  0  0  0  0  0  0
   58.1890   34.2010   47.0600 C   0  0  0  0  0  0  0  0  0  0  0  0
   58.2224   34.4861   48.1219 H   0  0  0  0  0  0  0  0  0  0  0  0
   57.4310   33.0970   46.6560 C   0  0  0  0  0  0  0  0  0  0  0  0
   56.8799   32.5082   47.4041 H   0  0  0  0  0  0  0  0  0  0  0  0
   58.4960   29.7430   44.2810 S   0  0  0  0  0  0  0  0  0  0  0  0
   58.2020   28.1820   44.8320 C   0  0  0  0  0  0  0  0  0  0  0  0
   59.1650   27.0460   44.6930 C   0  0  0  0  0  0  0  0  0  0  0  0
   58.7108   26.1262   45.0900 H   0  0  0  0  0  0  0  0  0  0  0  0
   59.4134   26.8956   43.6320 H   0  0  0  0  0  0  0  0  0  0  0  0
   60.3470   27.3510   45.4270 O   0  0  0  0  0  0  0  0  0  0  0  0
   60.3980   27.5960   46.8070 C   0  0  0  0  0  0  0  0  0  0  0  0
   60.3240   26.5520   47.7480 C   0  0  0  0  0  0  0  0  0  0  0  0
   60.2355   25.5115   47.4024 H   0  0  0  0  0  0  0  0  0  0  0  0
   60.3620   26.8260   49.1160 C   0  0  0  0  0  0  0  0  0  0  0  0
   60.3049   26.0007   49.8410 H   0  0  0  0  0  0  0  0  0  0  0  0
   60.4720   28.1410   49.5690 C   0  0  0  0  0  0  0  0  0  0  0  0
   60.4961   28.3486   50.6490 H   0  0  0  0  0  0  0  0  0  0  0  0
   60.5520   29.1990   48.6520 C   0  0  0  0  0  0  0  0  0  0  0  0
   60.5180   28.9260   47.2630 C   0  0  0  0  0  0  0  0  0  0  0  0
   60.5970   30.0020   46.3650 C   0  0  0  0  0  0  0  0  0  0  0  0
   60.5714   29.8160   45.2811 H   0  0  0  0  0  0  0  0  0  0  0  0
   60.7080   31.3080   46.8460 C   0  0  0  0  0  0  0  0  0  0  0  0
   60.7744   32.1530   46.1449 H   0  0  0  0  0  0  0  0  0  0  0  0
   60.7340   31.5330   48.2220 C   0  0  0  0  0  0  0  0  0  0  0  0
   60.8188   32.5599   48.6072 H   0  0  0  0  0  0  0  0  0  0  0  0
   60.6550   30.4890   49.0900 N   0  0  0  0  0  0  0  0  0  0  0  0
   60.6750   30.6930   50.1150 H   0  0  0  0  0  0  0  0  0  0  0  0
   56.4900   23.5690   44.7190 C   0  0  0  0  0  0  0  0  0  0  0  0
   57.4027   23.4423   44.1183 H   0  0  0  0  0  0  0  0  0  0  0  0
   55.2120   23.1680   44.3900 C   0  0  0  0  0  0  0  0  0  0  0  0
   54.8970   22.6511   43.4715 H   0  0  0  0  0  0  0  0  0  0  0  0
  1  2  1  0
  2  3  1  0
  3  4  1  0
  4  5  1  0
  5  6  1  0
  5  7  1  0
  5  8  1  0
  8  9  1  0
  9 10  2  0
  9 11  1  0
 11 12  1  0
 12 13  1  0
 13 14  2  0
 14 15  1  0
 15 16  2  0
 16 17  1  0
 16 18  1  0
 18 19  1  0
 18 20  2  0
 20 21  1  0
 20 22  1  0
 22 23  1  0
 22 24  2  0
 24 25  1  0
 13 26  1  0
 26 27  1  0
 27 28  1  0
 28 29  1  0
 28 30  1  0
 28 31  1  0
 31 32  1  0
 32 33  2  0
 33 34  1  0
 33 35  1  0
 35 36  1  0
 35 37  2  0
 37 38  1  0
 37 39  1  0
 39 40  2  0
 40 41  1  0
 41 42  1  0
 41 43  2  0
 43 44  1  0
 43 45  1  0
 45 46  1  0
 45 47  2  0
 47 48  1  0
  4 49  2  0
 49 50  1  0
 49 51  1  0
 51 52  1  0
 51  2  2  0
 27 11  2  0
 40 32  1  0
 24 15  1  0
 47 39  1  0
M  CHG  3   8  -1  12  -1  47   1
M  END
>  <UniqueID>  (37) 
36

>  <SMILES>  (37) 
O=C([N-]Cc1ccco1)c1[n-]/c(=N/c2ccccc2)sc1COc1cccc2[nH+]cccc12

>  <Energy>  (37) 
119.54265705334456

>  <Genealogy>  (37) 
O=C([N-]Cc1ccco1)c1[n-]c(=Nc2ccccc2)sc1COc1cccc2[nH+]cccc12 (protonated)
O=C([N-]Cc1ccco1)c1[n-]/c(=N/c2ccccc2)sc1COc1cccc2[nH+]cccc12 (cis-trans isomerization)
O=C([N-]Cc1ccco1)c1[n-]/c(=N/c2ccccc2)sc1COc1cccc2[nH+]cccc12 (3D coordinates assigned)
O=C([N-]Cc1ccco1)c1[n-]/c(=N/c2ccccc2)sc1COc1cccc2[nH+]cccc12 (optimized conformer: 119.54265705334456 kcal/mol)

>  <smiles>  (37) 
O=C(NCc1ccco1)c1[nH]c(=Nc2ccccc2)sc1COc1cccc2ncccc12

>  <score_type>  (37) 
oracle

>  <origin>  (37) 
adg

>  <m_score__min__energy>  (37) 
-11.109999999999999

>  <m_primary>  (37) 
energy

$$$$
37:0
     RDKit          3D

 56 59  0  0  0  0  0  0  0  0999 V2000
   61.8498   31.9026   52.6043 H   0  0  0  0  0  0  0  0  0  0  0  0
   61.5080   31.9710   51.5610 C   0  0  0  0  0  0  0  0  0  0  0  0
   60.2150   32.6310   51.2730 C   0  0  0  0  0  0  0  0  0  0  0  0
   60.1910   33.8560   50.9710 O   0  0  0  0  0  0  0  0  0  0  0  0
   58.9750   31.9070   51.3810 N   0  0  0  0  0  0  0  0  0  0  0  0
   57.7820   32.6120   51.8750 C   0  0  0  0  0  0  0  0  0  0  0  0
   57.5798   33.4725   51.2203 H   0  0  0  0  0  0  0  0  0  0  0  0
   57.9797   32.9393   52.9064 H   0  0  0  0  0  0  0  0  0  0  0  0
   56.5480   31.6980   51.8910 C   0  0  0  0  0  0  0  0  0  0  0  0
   56.1757   31.5731   50.8635 H   0  0  0  0  0  0  0  0  0  0  0  0
   55.7712   32.1569   52.5203 H   0  0  0  0  0  0  0  0  0  0  0  0
   56.8950   30.3820   52.4440 N   0  0  0  0  0  0  0  0  0  0  0  0
   56.0420   29.7610   53.4260 C   0  0  0  0  0  0  0  0  0  0  0  0
   56.5960   29.3310   54.6440 C   0  0  0  0  0  0  0  0  0  0  0  0
   57.6810   29.4098   54.8067 H   0  0  0  0  0  0  0  0  0  0  0  0
   55.7830   28.8050   55.6490 C   0  0  0  0  0  0  0  0  0  0  0  0
   56.2293   28.4643   56.5949 H   0  0  0  0  0  0  0  0  0  0  0  0
   54.4050   28.7110   55.4550 C   0  0  0  0  0  0  0  0  0  0  0  0
   53.7644   28.3054   56.2519 H   0  0  0  0  0  0  0  0  0  0  0  0
   53.8380   29.1310   54.2510 C   0  0  0  0  0  0  0  0  0  0  0  0
   52.7492   29.0654   54.1092 H   0  0  0  0  0  0  0  0  0  0  0  0
   54.6440   29.6360   53.2200 C   0  0  0  0  0  0  0  0  0  0  0  0
   54.0200   30.0220   51.9860 N   0  0  0  0  0  0  0  0  0  0  0  0
   54.6430   30.3180   51.2010 H   0  0  0  0  0  0  0  0  0  0  0  0
   52.6240   30.3510   51.8960 C   0  0  0  0  0  0  0  0  0  0  0  0
   51.9560   30.5180   52.9510 O   0  0  0  0  0  0  0  0  0  0  0  0
   51.9670   30.5560   50.5800 C   0  0  0  0  0  0  0  0  0  0  0  0
   52.1400   29.5930   49.5680 C   0  0  0  0  0  0  0  0  0  0  0  0
   52.7588   28.7045   49.7621 H   0  0  0  0  0  0  0  0  0  0  0  0
   51.5340   29.7540   48.3200 C   0  0  0  0  0  0  0  0  0  0  0  0
   51.6730   28.9911   47.5398 H   0  0  0  0  0  0  0  0  0  0  0  0
   50.7530   30.8800   48.0610 C   0  0  0  0  0  0  0  0  0  0  0  0
   50.2726   31.0022   47.0790 H   0  0  0  0  0  0  0  0  0  0  0  0
   50.5810   31.8520   49.0480 C   0  0  0  0  0  0  0  0  0  0  0  0
   49.9654   32.7396   48.8404 H   0  0  0  0  0  0  0  0  0  0  0  0
   51.1880   31.7030   50.3010 C   0  0  0  0  0  0  0  0  0  0  0  0
   51.0270   32.7140   51.2420 O   0  0  0  0  0  0  0  0  0  0  0  0
   58.1280   29.7000   52.0170 C   0  0  0  0  0  0  0  0  0  0  0  0
   57.8685   28.7127   51.6072 H   0  0  0  0  0  0  0  0  0  0  0  0
   58.7888   29.5960   52.8902 H   0  0  0  0  0  0  0  0  0  0  0  0
   58.8640   30.5070   50.9460 C   0  0  0  0  0  0  0  0  0  0  0  0
   58.3035   30.4596   50.0007 H   0  0  0  0  0  0  0  0  0  0  0  0
   59.8698   30.0876   50.7958 H   0  0  0  0  0  0  0  0  0  0  0  0
   62.2760   31.4540   50.5920 C   0  0  0  0  0  0  0  0  0  0  0  0
   62.6914   30.4463   50.7402 H   0  0  0  0  0  0  0  0  0  0  0  0
   62.5970   32.1660   49.3300 C   0  0  0  0  0  0  0  0  0  0  0  0
   63.8240   32.8320   49.1260 C   0  0  0  0  0  0  0  0  0  0  0  0
   64.5805   32.8425   49.9245 H   0  0  0  0  0  0  0  0  0  0  0  0
   64.0830   33.4790   47.9130 C   0  0  0  0  0  0  0  0  0  0  0  0
   65.0387   34.0029   47.7643 H   0  0  0  0  0  0  0  0  0  0  0  0
   63.1320   33.4620   46.8900 C   0  0  0  0  0  0  0  0  0  0  0  0
   63.3365   33.9760   45.9392 H   0  0  0  0  0  0  0  0  0  0  0  0
   61.9220   32.7920   47.0760 C   0  0  0  0  0  0  0  0  0  0  0  0
   61.1749   32.7744   46.2688 H   0  0  0  0  0  0  0  0  0  0  0  0
   61.6570   32.1430   48.2860 C   0  0  0  0  0  0  0  0  0  0  0  0
   60.7044   31.6099   48.4216 H   0  0  0  0  0  0  0  0  0  0  0  0
  1  2  1  0
  2  3  1  0
  3  4  2  0
  3  5  1  0
  5  6  1  0
  6  7  1  0
  6  8  1  0
  6  9  1  0
  9 10  1  0
  9 11  1  0
  9 12  1  0
 12 13  1  0
 13 14  2  0
 14 15  1  0
 14 16  1  0
 16 17  1  0
 16 18  2  0
 18 19  1  0
 18 20  1  0
 20 21  1  0
 20 22  2  0
 22 23  1  0
 23 24  1  0
 23 25  1  0
 25 26  2  0
 25 27  1  0
 27 28  2  0
 28 29  1  0
 28 30  1  0
 30 31  1  0
 30 32  2  0
 32 33  1  0
 32 34  1  0
 34 35  1  0
 34 36  2  0
 36 37  1  0
 12 38  1  0
 38 39  1  0
 38 40  1  0
 38 41  1  0
 41 42  1  0
 41 43  1  0
  2 44  2  0
 44 45  1  0
 44 46  1  0
 46 47  2  0
 47 48  1  0
 47 49  1  0
 49 50  1  0
 49 51  2  0
 51 52  1  0
 51 53  1  0
 53 54  1  0
 53 55  2  0
 55 56  1  0
 41  5  1  0
 55 46  1  0
 22 13  1  0
 36 27  1  0
M  CHG  1  37  -1
M  END
>  <UniqueID>  (38) 
37

>  <SMILES>  (38) 
O=C(Nc1ccccc1N1CCN(C(=O)/C=C/c2ccccc2)CC1)c1ccccc1[O-]

>  <Energy>  (38) 
77.19574744005254

>  <Genealogy>  (38) 
O=C(Nc1ccccc1N1CCN(C(=O)C=Cc2ccccc2)CC1)c1ccccc1[O-] (protonated)
O=C(Nc1ccccc1N1CCN(C(=O)/C=C/c2ccccc2)CC1)c1ccccc1[O-] (cis-trans isomerization)
O=C(Nc1ccccc1N1CCN(C(=O)/C=C/c2ccccc2)CC1)c1ccccc1[O-] (3D coordinates assigned)
O=C(Nc1ccccc1N1CCN(C(=O)/C=C/c2ccccc2)CC1)c1ccccc1[O-] (nonaromatic ring conformer: 77.19574744005254 kcal/mol)

>  <smiles>  (38) 
O=C(Nc1ccccc1N1CCN(C(=O)C=Cc2ccccc2)CC1)c1ccccc1O

>  <score_type>  (38) 
oracle

>  <origin>  (38) 
adg

>  <m_score__min__energy>  (38) 
-13.57

>  <m_primary>  (38) 
energy

$$$$
38:0
     RDKit          3D

 43 45  0  0  0  0  0  0  0  0999 V2000
   63.7790   32.8860   48.3720 C   0  0  0  0  0  0  0  0  0  0  0  0
   62.4740   32.7570   47.6500 C   0  0  0  0  0  0  0  0  0  0  0  0
   61.9410   33.8160   46.9390 C   0  0  0  0  0  0  0  0  0  0  0  0
   60.7250   33.6330   46.2890 C   0  0  0  0  0  0  0  0  0  0  0  0
   60.0820   32.3940   46.3750 C   0  0  0  0  0  0  0  0  0  0  0  0
   58.5400   32.1720   45.5490 S   0  0  0  0  0  0  0  0  0  0  0  0
   57.3960   32.3980   46.5010 O   0  0  0  0  0  0  0  0  0  0  0  0
   58.3780   33.1220   44.3990 O   0  0  0  0  0  0  0  0  0  0  0  0
   58.3720   30.5540   44.9320 C   0  0  0  0  0  0  0  0  0  0  0  0
   59.4690   29.7290   44.7280 C   0  0  0  0  0  0  0  0  0  0  0  0
   59.2460   28.4910   44.2480 N   0  0  0  0  0  0  0  0  0  0  0  0
   58.0280   28.0140   43.9560 C   0  0  0  0  0  0  0  0  0  0  0  0
   57.8180   26.3570   43.3230 S   0  0  0  0  0  0  0  0  0  0  0  0
   57.1470   25.2300   44.5590 C   0  0  0  0  0  0  0  0  0  0  0  0
   57.0140   25.9560   45.8490 C   0  0  0  0  0  0  0  0  0  0  0  0
   55.8760   26.0850   46.3550 O   0  0  0  0  0  0  0  0  0  0  0  0
   58.1760   26.5100   46.5130 C   0  0  0  0  0  0  0  0  0  0  0  0
   59.4080   25.8980   46.3870 C   0  0  0  0  0  0  0  0  0  0  0  0
   60.5350   26.4180   47.0200 C   0  0  0  0  0  0  0  0  0  0  0  0
   60.3880   27.5590   47.7770 C   0  0  0  0  0  0  0  0  0  0  0  0
   59.1670   28.2050   47.9290 C   0  0  0  0  0  0  0  0  0  0  0  0
   58.0610   27.6610   47.2840 C   0  0  0  0  0  0  0  0  0  0  0  0
   56.9380   28.8120   44.1520 N   0  0  0  0  0  0  0  0  0  0  0  0
   57.1080   30.0770   44.6380 C   0  0  0  0  0  0  0  0  0  0  0  0
   56.1170   30.8290   44.8250 O   0  0  0  0  0  0  0  0  0  0  0  0
   60.6290   31.3490   47.0900 C   0  0  0  0  0  0  0  0  0  0  0  0
   61.8380   31.5370   47.7330 C   0  0  0  0  0  0  0  0  0  0  0  0
   63.6009   32.8684   49.4573 H   0  0  0  0  0  0  0  0  0  0  0  0
   64.4359   32.0484   48.0946 H   0  0  0  0  0  0  0  0  0  0  0  0
   64.2592   33.8360   48.0946 H   0  0  0  0  0  0  0  0  0  0  0  0
   62.4664   34.7811   46.8885 H   0  0  0  0  0  0  0  0  0  0  0  0
   60.2737   34.4544   45.7132 H   0  0  0  0  0  0  0  0  0  0  0  0
   60.4888   30.0756   44.9514 H   0  0  0  0  0  0  0  0  0  0  0  0
   60.0880   27.8740   44.0970 H   0  0  0  0  0  0  0  0  0  0  0  0
   56.1596   24.8705   44.2339 H   0  0  0  0  0  0  0  0  0  0  0  0
   57.8199   24.3687   44.6831 H   0  0  0  0  0  0  0  0  0  0  0  0
   59.5006   24.9867   45.7779 H   0  0  0  0  0  0  0  0  0  0  0  0
   61.5157   25.9303   46.9179 H   0  0  0  0  0  0  0  0  0  0  0  0
   61.2723   27.9756   48.2814 H   0  0  0  0  0  0  0  0  0  0  0  0
   59.0781   29.1161   48.5390 H   0  0  0  0  0  0  0  0  0  0  0  0
   57.0805   28.1491   47.3856 H   0  0  0  0  0  0  0  0  0  0  0  0
   60.1108   30.3804   47.1476 H   0  0  0  0  0  0  0  0  0  0  0  0
   62.2908   30.7163   48.3087 H   0  0  0  0  0  0  0  0  0  0  0  0
  1  2  1  0
  2  3  2  0
  3  4  1  0
  4  5  2  0
  5  6  1  0
  6  7  2  0
  6  8  2  0
  6  9  1  0
  9 10  2  0
 10 11  1  0
 11 12  1  0
 12 13  1  0
 13 14  1  0
 14 15  1  0
 15 16  2  0
 15 17  1  0
 17 18  2  0
 18 19  1  0
 19 20  2  0
 20 21  1  0
 21 22  2  0
 12 23  2  0
 23 24  1  0
 24 25  2  0
  5 26  1  0
 26 27  2  0
 27  2  1  0
 24  9  1  0
 22 17  1  0
  1 28  1  0
  1 29  1  0
  1 30  1  0
  3 31  1  0
  4 32  1  0
 10 33  1  0
 11 34  1  0
 14 35  1  0
 14 36  1  0
 18 37  1  0
 19 38  1  0
 20 39  1  0
 21 40  1  0
 22 41  1  0
 26 42  1  0
 27 43  1  0
M  END
>  <smiles>  (39) 
Cc1ccc(S(=O)(=O)c2c[nH]c(SCC(=O)c3ccccc3)nc2=O)cc1

>  <score_type>  (39) 
oracle

>  <origin>  (39) 
adg

>  <m_score__min__energy>  (39) 
-9.6199999999999992

>  <m_primary>  (39) 
energy

$$$$
39:0
     RDKit          3D

 48 51  0  0  0  0  0  0  0  0999 V2000
   59.4230   33.3430   54.4530 C   0  0  0  0  0  0  0  0  0  0  0  0
   59.0050   34.0500   53.1990 C   0  0  0  0  0  0  0  0  0  0  0  0
   58.5450   35.2180   53.2980 O   0  0  0  0  0  0  0  0  0  0  0  0
   59.1620   33.4320   51.8530 C   0  0  0  0  0  0  0  0  0  0  0  0
   59.6280   34.1810   50.7590 C   0  0  0  0  0  0  0  0  0  0  0  0
   59.6960   33.6140   49.4870 C   0  0  0  0  0  0  0  0  0  0  0  0
   59.3070   32.2890   49.2900 C   0  0  0  0  0  0  0  0  0  0  0  0
   59.3150   31.6210   47.7440 S   0  0  0  0  0  0  0  0  0  0  0  0
   58.8210   30.0120   47.7850 C   0  0  0  0  0  0  0  0  0  0  0  0
   58.6690   29.2470   46.5790 N   0  0  0  0  0  0  0  0  0  0  0  0
   57.4480   29.4080   45.7720 C   0  0  0  0  0  0  0  0  0  0  0  0
   57.2160   28.1940   44.8600 C   0  0  0  0  0  0  0  0  0  0  0  0
   57.5420   26.9570   45.5840 N   0  0  0  0  0  0  0  0  0  0  0  0
   56.5290   25.9660   45.8320 C   0  0  0  0  0  0  0  0  0  0  0  0
   55.3270   26.3210   45.9830 O   0  0  0  0  0  0  0  0  0  0  0  0
   56.8770   24.5370   45.9530 C   0  0  0  0  0  0  0  0  0  0  0  0
   56.2890   23.7490   46.9540 C   0  0  0  0  0  0  0  0  0  0  0  0
   56.6400   22.4010   47.0910 C   0  0  0  0  0  0  0  0  0  0  0  0
   57.5660   21.8260   46.2120 C   0  0  0  0  0  0  0  0  0  0  0  0
   57.9320   20.4870   46.3470 O   0  0  0  0  0  0  0  0  0  0  0  0
   58.1310   22.6010   45.1930 C   0  0  0  0  0  0  0  0  0  0  0  0
   59.0160   22.0480   44.3300 F   0  0  0  0  0  0  0  0  0  0  0  0
   57.7920   23.9510   45.0670 C   0  0  0  0  0  0  0  0  0  0  0  0
   58.8580   26.8260   46.2350 C   0  0  0  0  0  0  0  0  0  0  0  0
   59.6060   28.1630   46.2610 C   0  0  0  0  0  0  0  0  0  0  0  0
   58.5020   29.4740   48.9910 N   0  0  0  0  0  0  0  0  0  0  0  0
   58.5170   30.1110   50.2000 C   0  0  0  0  0  0  0  0  0  0  0  0
   58.1760   29.4390   51.2100 O   0  0  0  0  0  0  0  0  0  0  0  0
   58.8860   31.4820   50.3720 C   0  0  0  0  0  0  0  0  0  0  0  0
   58.8140   32.0820   51.6510 C   0  0  0  0  0  0  0  0  0  0  0  0
   59.0837   33.9169   55.3280 H   0  0  0  0  0  0  0  0  0  0  0  0
   58.9729   32.3396   54.4756 H   0  0  0  0  0  0  0  0  0  0  0  0
   60.5191   33.2538   54.4756 H   0  0  0  0  0  0  0  0  0  0  0  0
   59.9421   35.2247   50.9076 H   0  0  0  0  0  0  0  0  0  0  0  0
   60.0570   34.2125   48.6376 H   0  0  0  0  0  0  0  0  0  0  0  0
   56.5857   29.5197   46.4457 H   0  0  0  0  0  0  0  0  0  0  0  0
   57.5661   30.2997   45.1388 H   0  0  0  0  0  0  0  0  0  0  0  0
   56.1613   28.1676   44.5486 H   0  0  0  0  0  0  0  0  0  0  0  0
   57.8625   28.2770   43.9739 H   0  0  0  0  0  0  0  0  0  0  0  0
   55.5480   24.1931   47.6349 H   0  0  0  0  0  0  0  0  0  0  0  0
   56.1885   21.7934   47.8891 H   0  0  0  0  0  0  0  0  0  0  0  0
   58.4160   19.9950   45.6020 H   0  0  0  0  0  0  0  0  0  0  0  0
   58.2454   24.5568   44.2686 H   0  0  0  0  0  0  0  0  0  0  0  0
   58.7128   26.4773   47.2681 H   0  0  0  0  0  0  0  0  0  0  0  0
   59.4579   26.1055   45.6597 H   0  0  0  0  0  0  0  0  0  0  0  0
   60.3955   28.1257   47.0261 H   0  0  0  0  0  0  0  0  0  0  0  0
   60.0565   28.3480   45.2747 H   0  0  0  0  0  0  0  0  0  0  0  0
   58.4783   31.4800   52.5083 H   0  0  0  0  0  0  0  0  0  0  0  0
  1  2  1  0
  2  3  2  0
  2  4  1  0
  4  5  2  0
  5  6  1  0
  6  7  2  0
  7  8  1  0
  8  9  1  0
  9 10  1  0
 10 11  1  0
 11 12  1  0
 12 13  1  0
 13 14  1  0
 14 15  2  0
 14 16  1  0
 16 17  2  0
 17 18  1  0
 18 19  2  0
 19 20  1  0
 19 21  1  0
 21 22  1  0
 21 23  2  0
 13 24  1  0
 24 25  1  0
  9 26  2  0
 26 27  1  0
 27 28  2  0
 27 29  1  0
 29 30  2  0
 30  4  1  0
 29  7  1  0
 25 10  1  0
 23 16  1  0
  1 31  1  0
  1 32  1  0
  1 33  1  0
  5 34  1  0
  6 35  1  0
 11 36  1  0
 11 37  1  0
 12 38  1  0
 12 39  1  0
 17 40  1  0
 18 41  1  0
 20 42  1  0
 23 43  1  0
 24 44  1  0
 24 45  1  0
 25 46  1  0
 25 47  1  0
 30 48  1  0
M  END
>  <UniqueID>  (40) 
38

>  <SMILES>  (40) 
CC(=O)c1ccc2sc(N3CCN(C(=O)c4ccc(O)c(F)c4)CC3)nc(=O)c2c1

>  <Energy>  (40) 
70.26908186201055

>  <Genealogy>  (40) 
CC(=O)c1ccc2sc(N3CCN(C(=O)c4ccc(O)c(F)c4)CC3)nc(=O)c2c1 (3D coordinates assigned)
CC(=O)c1ccc2sc(N3CCN(C(=O)c4ccc(O)c(F)c4)CC3)nc(=O)c2c1 (nonaromatic ring conformer: 70.26908186201055 kcal/mol)

>  <smiles>  (40) 
CC(=O)c1ccc2sc(N3CCN(C(=O)c4ccc(O)c(F)c4)CC3)nc(=O)c2c1

>  <score_type>  (40) 
oracle

>  <origin>  (40) 
adg

>  <m_score__min__energy>  (40) 
-8.5600000000000005

>  <m_primary>  (40) 
energy

$$$$
40:0
     RDKit          3D

 41 43  0  0  0  0  0  0  0  0999 V2000
   58.4320   35.3560   52.0580 H   0  0  0  0  0  0  0  0  0  0  0  0
   58.7300   34.4090   52.3840 N   0  0  0  0  0  0  0  0  0  0  0  0
   58.6640   33.3760   51.6100 C   0  0  0  0  0  0  0  0  0  0  0  0
   59.2440   33.4150   50.3830 N   0  0  0  0  0  0  0  0  0  0  0  0
   59.2020   32.3440   49.5460 C   0  0  0  0  0  0  0  0  0  0  0  0
   59.8030   32.4500   48.2840 O   0  0  0  0  0  0  0  0  0  0  0  0
   59.1440   32.8000   47.0960 C   0  0  0  0  0  0  0  0  0  0  0  0
   59.5250   33.9740   46.4390 C   0  0  0  0  0  0  0  0  0  0  0  0
   60.3262   34.6006   46.8578 H   0  0  0  0  0  0  0  0  0  0  0  0
   58.8920   34.3550   45.2520 C   0  0  0  0  0  0  0  0  0  0  0  0
   59.1842   35.2892   44.7500 H   0  0  0  0  0  0  0  0  0  0  0  0
   57.8900   33.5530   44.7020 C   0  0  0  0  0  0  0  0  0  0  0  0
   57.3828   33.8663   43.7775 H   0  0  0  0  0  0  0  0  0  0  0  0
   57.5270   32.3460   45.3260 C   0  0  0  0  0  0  0  0  0  0  0  0
   56.4980   31.4950   44.7990 N   0  0  0  0  0  0  0  0  0  0  0  0
   56.4620   30.0640   44.8590 C   0  0  0  0  0  0  0  0  0  0  0  0
   55.3590   29.4540   44.8680 O   0  0  0  0  0  0  0  0  0  0  0  0
   57.6950   29.3330   44.8130 N   0  0  0  0  0  0  0  0  0  0  0  0
   58.5500   29.8550   44.5140 H   0  0  0  0  0  0  0  0  0  0  0  0
   57.8070   27.9190   45.0470 C   0  0  0  0  0  0  0  0  0  0  0  0
   57.8560   27.4420   46.3670 C   0  0  0  0  0  0  0  0  0  0  0  0
   57.8257   28.1524   47.2063 H   0  0  0  0  0  0  0  0  0  0  0  0
   57.9430   26.0700   46.6210 C   0  0  0  0  0  0  0  0  0  0  0  0
   57.9934   25.7055   47.6576 H   0  0  0  0  0  0  0  0  0  0  0  0
   57.9660   25.1610   45.5600 C   0  0  0  0  0  0  0  0  0  0  0  0
   58.0720   23.4390   45.8820 Cl  0  0  0  0  0  0  0  0  0  0  0  0
   57.8940   25.6240   44.2440 C   0  0  0  0  0  0  0  0  0  0  0  0
   57.9050   24.9078   43.4092 H   0  0  0  0  0  0  0  0  0  0  0  0
   57.8080   26.9960   43.9850 C   0  0  0  0  0  0  0  0  0  0  0  0
   57.7409   27.3546   42.9473 H   0  0  0  0  0  0  0  0  0  0  0  0
   58.1490   31.9840   46.5280 C   0  0  0  0  0  0  0  0  0  0  0  0
   57.8561   31.0517   47.0330 H   0  0  0  0  0  0  0  0  0  0  0  0
   58.5200   31.1860   49.9490 C   0  0  0  0  0  0  0  0  0  0  0  0
   58.4518   30.3149   49.2808 H   0  0  0  0  0  0  0  0  0  0  0  0
   57.9300   31.1600   51.2130 C   0  0  0  0  0  0  0  0  0  0  0  0
   57.2550   30.0100   51.6330 O   0  0  0  0  0  0  0  0  0  0  0  0
   56.3730   30.0000   52.7490 C   0  0  0  0  0  0  0  0  0  0  0  0
   56.9592   30.0066   53.6797 H   0  0  0  0  0  0  0  0  0  0  0  0
   55.7287   30.8909   52.7151 H   0  0  0  0  0  0  0  0  0  0  0  0
   55.7490   29.0947   52.7151 H   0  0  0  0  0  0  0  0  0  0  0  0
   58.0150   32.2530   52.0190 N   0  0  0  0  0  0  0  0  0  0  0  0
  1  2  1  0
  2  3  2  0
  3  4  1  0
  4  5  2  0
  5  6  1  0
  6  7  1  0
  7  8  2  0
  8  9  1  0
  8 10  1  0
 10 11  1  0
 10 12  2  0
 12 13  1  0
 12 14  1  0
 14 15  1  0
 15 16  1  0
 16 17  2  0
 16 18  1  0
 18 19  1  0
 18 20  1  0
 20 21  2  0
 21 22  1  0
 21 23  1  0
 23 24  1  0
 23 25  2  0
 25 26  1  0
 25 27  1  0
 27 28  1  0
 27 29  2  0
 29 30  1  0
 14 31  2  0
 31 32  1  0
  5 33  1  0
 33 34  1  0
 33 35  2  0
 35 36  1  0
 36 37  1  0
 37 38  1  0
 37 39  1  0
 37 40  1  0
 35 41  1  0
 41  3  1  0
 31  7  1  0
 29 20  1  0
M  CHG  2  15  -1  41  -1
M  END
>  <UniqueID>  (41) 
39

>  <SMILES>  (41) 
[H]/N=c1/nc(Oc2cccc([N-]C(=O)Nc3ccc(Cl)cc3)c2)cc(OC)[n-]1

>  <Energy>  (41) 
55.13456805789116

>  <Genealogy>  (41) 
COc1cc(Oc2cccc([N-]C(=O)Nc3ccc(Cl)cc3)c2)nc(=N)[n-]1 (protonated)
[H]/N=c1/nc(Oc2cccc([N-]C(=O)Nc3ccc(Cl)cc3)c2)cc(OC)[n-]1 (cis-trans isomerization)
[H]/N=c1/nc(Oc2cccc([N-]C(=O)Nc3ccc(Cl)cc3)c2)cc(OC)[n-]1 (3D coordinates assigned)
[H]/N=c1/nc(Oc2cccc([N-]C(=O)Nc3ccc(Cl)cc3)c2)cc(OC)[n-]1 (optimized conformer: 55.13456805789116 kcal/mol)

>  <smiles>  (41) 
COc1cc(Oc2cccc(NC(=O)Nc3ccc(Cl)cc3)c2)nc(=N)[nH]1

>  <score_type>  (41) 
oracle

>  <origin>  (41) 
adg

>  <m_score__min__energy>  (41) 
-11.08

>  <m_primary>  (41) 
energy

$$$$
41:0
     RDKit          3D

 57 60  0  0  0  0  0  0  0  0999 V2000
   53.6923   25.3246   44.6694 H   0  0  0  0  0  0  0  0  0  0  0  0
   53.5930   24.4750   45.3610 C   0  0  0  0  0  0  0  0  0  0  0  0
   54.5040   24.2980   46.3550 N   0  0  0  0  0  0  0  0  0  0  0  0
   54.4250   23.2700   47.2450 C   0  0  0  0  0  0  0  0  0  0  0  0
   55.3500   23.1750   48.1600 N   0  0  0  0  0  0  0  0  0  0  0  0
   56.6450   22.5650   48.0650 C   0  0  0  0  0  0  0  0  0  0  0  0
   57.0460   21.8460   49.0170 O   0  0  0  0  0  0  0  0  0  0  0  0
   57.4480   22.7280   46.8880 N   0  0  0  0  0  0  0  0  0  0  0  0
   57.4210   23.8340   45.9740 C   0  0  0  0  0  0  0  0  0  0  0  0
   57.4470   23.5660   44.6000 C   0  0  0  0  0  0  0  0  0  0  0  0
   57.4882   22.5250   44.2469 H   0  0  0  0  0  0  0  0  0  0  0  0
   57.4210   24.6120   43.6750 C   0  0  0  0  0  0  0  0  0  0  0  0
   57.4178   24.3919   42.5972 H   0  0  0  0  0  0  0  0  0  0  0  0
   57.3990   25.9370   44.1160 C   0  0  0  0  0  0  0  0  0  0  0  0
   57.3611   26.7567   43.3835 H   0  0  0  0  0  0  0  0  0  0  0  0
   57.4250   26.2280   45.4870 C   0  0  0  0  0  0  0  0  0  0  0  0
   57.3980   27.6010   45.9150 N   0  0  0  0  0  0  0  0  0  0  0  0
   57.1690   27.7940   46.9160 H   0  0  0  0  0  0  0  0  0  0  0  0
   57.5680   28.7220   45.0290 C   0  0  0  0  0  0  0  0  0  0  0  0
   57.4320   28.5720   43.7850 O   0  0  0  0  0  0  0  0  0  0  0  0
   57.8400   30.1010   45.5750 C   0  0  0  0  0  0  0  0  0  0  0  0
   57.0075   30.3550   46.2476 H   0  0  0  0  0  0  0  0  0  0  0  0
   57.8740   31.1560   44.4570 C   0  0  0  0  0  0  0  0  0  0  0  0
   58.6949   30.9180   43.7645 H   0  0  0  0  0  0  0  0  0  0  0  0
   56.9065   31.1390   43.9340 H   0  0  0  0  0  0  0  0  0  0  0  0
   58.0940   32.5740   45.0300 C   0  0  0  0  0  0  0  0  0  0  0  0
   58.8000   33.1107   44.3792 H   0  0  0  0  0  0  0  0  0  0  0  0
   57.1142   33.0726   45.0669 H   0  0  0  0  0  0  0  0  0  0  0  0
   58.6390   32.5570   46.4080 N   0  0  0  0  0  0  0  0  0  0  0  0
   59.1120   33.9020   46.7910 C   0  0  0  0  0  0  0  0  0  0  0  0
   59.0570   34.5681   45.9174 H   0  0  0  0  0  0  0  0  0  0  0  0
   58.4749   34.2876   47.6006 H   0  0  0  0  0  0  0  0  0  0  0  0
   60.5370   33.8380   47.2780 C   0  0  0  0  0  0  0  0  0  0  0  0
   61.6070   33.8730   46.3690 C   0  0  0  0  0  0  0  0  0  0  0  0
   61.4082   33.9636   45.2909 H   0  0  0  0  0  0  0  0  0  0  0  0
   62.9250   33.7930   46.8310 C   0  0  0  0  0  0  0  0  0  0  0  0
   63.7603   33.8231   46.1159 H   0  0  0  0  0  0  0  0  0  0  0  0
   63.1820   33.6750   48.1990 C   0  0  0  0  0  0  0  0  0  0  0  0
   64.4610   33.5950   48.6440 F   0  0  0  0  0  0  0  0  0  0  0  0
   62.1220   33.6370   49.1090 C   0  0  0  0  0  0  0  0  0  0  0  0
   62.3256   33.5441   50.1860 H   0  0  0  0  0  0  0  0  0  0  0  0
   60.8030   33.7170   48.6520 C   0  0  0  0  0  0  0  0  0  0  0  0
   59.9709   33.6851   49.3707 H   0  0  0  0  0  0  0  0  0  0  0  0
   59.7180   31.5550   46.5300 C   0  0  0  0  0  0  0  0  0  0  0  0
   60.4591   31.7217   45.7344 H   0  0  0  0  0  0  0  0  0  0  0  0
   60.1927   31.6601   47.5167 H   0  0  0  0  0  0  0  0  0  0  0  0
   59.1450   30.1300   46.4000 C   0  0  0  0  0  0  0  0  0  0  0  0
   59.8916   29.4914   45.9052 H   0  0  0  0  0  0  0  0  0  0  0  0
   58.9142   29.7644   47.4115 H   0  0  0  0  0  0  0  0  0  0  0  0
   57.4240   25.1700   46.4150 C   0  0  0  0  0  0  0  0  0  0  0  0
   57.4256   25.3892   47.4929 H   0  0  0  0  0  0  0  0  0  0  0  0
   53.3760   22.3330   47.1100 C   0  0  0  0  0  0  0  0  0  0  0  0
   53.3044   21.4773   47.7975 H   0  0  0  0  0  0  0  0  0  0  0  0
   52.4310   22.5030   46.0960 C   0  0  0  0  0  0  0  0  0  0  0  0
   51.6042   21.7853   45.9899 H   0  0  0  0  0  0  0  0  0  0  0  0
   52.5340   23.5810   45.2180 C   0  0  0  0  0  0  0  0  0  0  0  0
   51.7883   23.7240   44.4221 H   0  0  0  0  0  0  0  0  0  0  0  0
  1  2  1  0
  2  3  1  0
  3  4  1  0
  4  5  2  0
  5  6  1  0
  6  7  2  0
  6  8  1  0
  8  9  1  0
  9 10  2  0
 10 11  1  0
 10 12  1  0
 12 13  1  0
 12 14  2  0
 14 15  1  0
 14 16  1  0
 16 17  1  0
 17 18  1  0
 17 19  1  0
 19 20  2  0
 19 21  1  0
 21 22  1  0
 21 23  1  0
 23 24  1  0
 23 25  1  0
 23 26  1  0
 26 27  1  0
 26 28  1  0
 26 29  1  0
 29 30  1  0
 30 31  1  0
 30 32  1  0
 30 33  1  0
 33 34  2  0
 34 35  1  0
 34 36  1  0
 36 37  1  0
 36 38  2  0
 38 39  1  0
 38 40  1  0
 40 41  1  0
 40 42  2  0
 42 43  1  0
 29 44  1  0
 44 45  1  0
 44 46  1  0
 44 47  1  0
 47 48  1  0
 47 49  1  0
 16 50  2  0
 50 51  1  0
  4 52  1  0
 52 53  1  0
 52 54  2  0
 54 55  1  0
 54 56  1  0
 56 57  1  0
 56  2  2  0
 50  9  1  0
 47 21  1  0
 42 33  1  0
M  CHG  2   3  -1   8  -1
M  END
>  <UniqueID>  (42) 
40

>  <SMILES>  (42) 
O=C(/N=c1\cccc[n-]1)[N-]c1cccc(NC(=O)C2CCN(Cc3ccc(F)cc3)CC2)c1

>  <Energy>  (42) 
80.9696997315914

>  <Genealogy>  (42) 
O=C(N=c1cccc[n-]1)[N-]c1cccc(NC(=O)C2CCN(Cc3ccc(F)cc3)CC2)c1 (protonated)
O=C(/N=c1\cccc[n-]1)[N-]c1cccc(NC(=O)C2CCN(Cc3ccc(F)cc3)CC2)c1 (cis-trans isomerization)
O=C(/N=c1\cccc[n-]1)[N-]c1cccc(NC(=O)C2CCN(Cc3ccc(F)cc3)CC2)c1 (3D coordinates assigned)
O=C(/N=c1\cccc[n-]1)[N-]c1cccc(NC(=O)C2CCN(Cc3ccc(F)cc3)CC2)c1 (nonaromatic ring conformer: 80.9696997315914 kcal/mol)

>  <smiles>  (42) 
O=C(N=c1cccc[nH]1)Nc1cccc(NC(=O)C2CCN(Cc3ccc(F)cc3)CC2)c1

>  <score_type>  (42) 
oracle

>  <origin>  (42) 
adg

>  <m_score__min__energy>  (42) 
-11.869999999999999

>  <m_primary>  (42) 
energy

$$$$
42:0
     RDKit          3D

 49 51  0  0  0  0  0  0  0  0999 V2000
   58.0690   26.6350   43.9370 C   0  0  0  0  0  0  0  0  0  0  0  0
   57.7390   26.6770   45.3610 N   0  0  0  0  0  0  0  0  0  0  0  0
   58.4380   27.5580   46.2560 C   0  0  0  0  0  0  0  0  0  0  0  0
   59.0400   27.0340   47.4090 C   0  0  0  0  0  0  0  0  0  0  0  0
   59.7200   27.8700   48.2940 C   0  0  0  0  0  0  0  0  0  0  0  0
   59.8140   29.2440   48.0410 C   0  0  0  0  0  0  0  0  0  0  0  0
   60.5640   30.1290   48.9580 C   0  0  0  0  0  0  0  0  0  0  0  0
   60.5260   29.8960   50.1960 O   0  0  0  0  0  0  0  0  0  0  0  0
   61.3450   31.2330   48.4660 N   0  0  0  0  0  0  0  0  0  0  0  0
   61.9290   31.2820   47.1340 C   0  0  0  0  0  0  0  0  0  0  0  0
   63.0120   32.3520   47.2010 C   0  0  0  0  0  0  0  0  0  0  0  0
   62.7070   33.1740   48.4510 C   0  0  0  0  0  0  0  0  0  0  0  0
   61.8700   32.2670   49.3430 C   0  0  0  0  0  0  0  0  0  0  0  0
   59.2250   29.7720   46.8810 C   0  0  0  0  0  0  0  0  0  0  0  0
   58.5040   28.9420   46.0020 C   0  0  0  0  0  0  0  0  0  0  0  0
   57.8590   29.4740   44.8330 N   0  0  0  0  0  0  0  0  0  0  0  0
   56.5910   30.1360   44.7860 C   0  0  0  0  0  0  0  0  0  0  0  0
   55.5430   29.4420   44.8720 O   0  0  0  0  0  0  0  0  0  0  0  0
   56.5180   31.5710   44.8020 N   0  0  0  0  0  0  0  0  0  0  0  0
   57.4120   32.4230   45.2230 C   0  0  0  0  0  0  0  0  0  0  0  0
   57.7480   32.5820   46.5850 C   0  0  0  0  0  0  0  0  0  0  0  0
   58.6800   33.5050   46.9400 N   0  0  0  0  0  0  0  0  0  0  0  0
   59.2970   34.2820   46.0130 C   0  0  0  0  0  0  0  0  0  0  0  0
   58.9570   34.1420   44.6680 C   0  0  0  0  0  0  0  0  0  0  0  0
   58.0230   33.2230   44.3080 N   0  0  0  0  0  0  0  0  0  0  0  0
   56.4570   25.6710   45.9610 S   0  0  0  0  0  0  0  0  0  0  0  0
   56.2560   24.2450   44.9130 C   0  0  0  0  0  0  0  0  0  0  0  0
   55.1750   26.4560   45.9990 O   0  0  0  0  0  0  0  0  0  0  0  0
   56.7920   25.1980   47.3480 O   0  0  0  0  0  0  0  0  0  0  0  0
   59.1536   26.4970   43.8159 H   0  0  0  0  0  0  0  0  0  0  0  0
   57.5374   25.7973   43.4620 H   0  0  0  0  0  0  0  0  0  0  0  0
   57.7642   27.5792   43.4620 H   0  0  0  0  0  0  0  0  0  0  0  0
   58.9754   25.9557   47.6168 H   0  0  0  0  0  0  0  0  0  0  0  0
   60.1855   27.4474   49.1966 H   0  0  0  0  0  0  0  0  0  0  0  0
   62.3672   30.3080   46.8707 H   0  0  0  0  0  0  0  0  0  0  0  0
   61.1751   31.5131   46.3671 H   0  0  0  0  0  0  0  0  0  0  0  0
   64.0056   31.8870   47.2812 H   0  0  0  0  0  0  0  0  0  0  0  0
   63.0196   32.9779   46.2965 H   0  0  0  0  0  0  0  0  0  0  0  0
   63.6395   33.4590   48.9602 H   0  0  0  0  0  0  0  0  0  0  0  0
   62.1767   34.1061   48.2060 H   0  0  0  0  0  0  0  0  0  0  0  0
   62.4944   31.8213   50.1313 H   0  0  0  0  0  0  0  0  0  0  0  0
   61.0644   32.8218   49.8462 H   0  0  0  0  0  0  0  0  0  0  0  0
   59.3279   30.8440   46.6571 H   0  0  0  0  0  0  0  0  0  0  0  0
   57.2594   31.9638   47.3525 H   0  0  0  0  0  0  0  0  0  0  0  0
   60.0577   35.0148   46.3201 H   0  0  0  0  0  0  0  0  0  0  0  0
   59.4405   34.7699   43.9051 H   0  0  0  0  0  0  0  0  0  0  0  0
   56.1294   23.3472   45.5358 H   0  0  0  0  0  0  0  0  0  0  0  0
   55.3679   24.3789   44.2780 H   0  0  0  0  0  0  0  0  0  0  0  0
   57.1466   24.1282   44.2780 H   0  0  0  0  0  0  0  0  0  0  0  0
  1  2  1  0
  2  3  1  0
  3  4  2  0
  4  5  1  0
  5  6  2  0
  6  7  1  0
  7  8  2  0
  7  9  1  0
  9 10  1  0
 10 11  1  0
 11 12  1  0
 12 13  1  0
  6 14  1  0
 14 15  2  0
 15 16  1  0
 16 17  1  0
 17 18  2  0
 17 19  1  0
 19 20  2  3
 20 21  1  0
 21 22  2  0
 22 23  1  0
 23 24  2  0
 24 25  1  0
  2 26  1  0
 26 27  1  0
 26 28  2  0
 26 29  2  0
 15  3  1  0
 25 20  1  0
 13  9  1  0
  1 30  1  0
  1 31  1  0
  1 32  1  0
  4 33  1  0
  5 34  1  0
 10 35  1  0
 10 36  1  0
 11 37  1  0
 11 38  1  0
 12 39  1  0
 12 40  1  0
 13 41  1  0
 13 42  1  0
 14 43  1  0
 21 44  1  0
 23 45  1  0
 24 46  1  0
 27 47  1  0
 27 48  1  0
 27 49  1  0
M  CHG  2  16  -1  25  -1
M  END
>  <UniqueID>  (43) 
41

>  <SMILES>  (43) 
CN(c1ccc(C(=O)N2CCCC2)cc1[N-]C(=O)N=c1cncc[n-]1)S(C)(=O)=O

>  <Energy>  (43) 
67.67164259789638

>  <Genealogy>  (43) 
CN(c1ccc(C(=O)N2CCCC2)cc1[N-]C(=O)N=c1cncc[n-]1)S(C)(=O)=O (protonated)
CN(c1ccc(C(=O)N2CCCC2)cc1[N-]C(=O)N=c1cncc[n-]1)S(C)(=O)=O (3D coordinates assigned)
CN(c1ccc(C(=O)N2CCCC2)cc1[N-]C(=O)N=c1cncc[n-]1)S(C)(=O)=O (nonaromatic ring conformer: 67.67164259789638 kcal/mol)

>  <smiles>  (43) 
CN(c1ccc(C(=O)N2CCCC2)cc1NC(=O)N=c1cncc[nH]1)S(C)(=O)=O

>  <score_type>  (43) 
oracle

>  <origin>  (43) 
adg

>  <m_score__min__energy>  (43) 
-11.15

>  <m_primary>  (43) 
energy

$$$$
43:0
     RDKit          3D

 60 64  0  0  0  0  0  0  0  0999 V2000
   59.4170   29.0305   47.3901 H   0  0  0  0  0  0  0  0  0  0  0  0
   58.9940   28.2950   46.6900 C   0  0  0  0  0  0  0  0  0  0  0  0
   59.0739   27.2196   46.9073 H   0  0  0  0  0  0  0  0  0  0  0  0
   58.3800   28.7100   45.5700 C   0  0  0  0  0  0  0  0  0  0  0  0
   57.7970   27.8990   44.5910 C   0  0  0  0  0  0  0  0  0  0  0  0
   57.7550   26.5520   44.5670 C   0  0  0  0  0  0  0  0  0  0  0  0
   58.0957   26.0419   43.6539 H   0  0  0  0  0  0  0  0  0  0  0  0
   57.2810   25.7190   45.6880 C   0  0  0  0  0  0  0  0  0  0  0  0
   56.0360   25.7840   46.2730 C   0  0  0  0  0  0  0  0  0  0  0  0
   55.0510   26.7160   45.9780 O   0  0  0  0  0  0  0  0  0  0  0  0
   55.8880   24.8030   47.1840 N   0  0  0  0  0  0  0  0  0  0  0  0
   57.0650   24.1470   47.1090 C   0  0  0  0  0  0  0  0  0  0  0  0
   57.3240   23.1290   47.8020 O   0  0  0  0  0  0  0  0  0  0  0  0
   57.9280   24.6650   46.2130 N   0  0  0  0  0  0  0  0  0  0  0  0
   58.8610   24.2810   45.9440 H   0  0  0  0  0  0  0  0  0  0  0  0
   57.3200   28.7580   43.6070 C   0  0  0  0  0  0  0  0  0  0  0  0
   56.8128   28.4712   42.6740 H   0  0  0  0  0  0  0  0  0  0  0  0
   57.6070   30.0410   44.0290 C   0  0  0  0  0  0  0  0  0  0  0  0
   57.2950   31.2850   43.2540 C   0  0  0  0  0  0  0  0  0  0  0  0
   57.0882   32.1096   43.9520 H   0  0  0  0  0  0  0  0  0  0  0  0
   58.1551   31.5478   42.6206 H   0  0  0  0  0  0  0  0  0  0  0  0
   56.4127   31.1108   42.6206 H   0  0  0  0  0  0  0  0  0  0  0  0
   58.2500   30.0140   45.2170 N   0  0  0  0  0  0  0  0  0  0  0  0
   58.6870   31.1630   45.9610 C   0  0  0  0  0  0  0  0  0  0  0  0
   57.7820   32.1910   46.2610 C   0  0  0  0  0  0  0  0  0  0  0  0
   56.7390   32.1201   45.9187 H   0  0  0  0  0  0  0  0  0  0  0  0
   58.2000   33.3050   46.9930 C   0  0  0  0  0  0  0  0  0  0  0  0
   57.4835   34.1054   47.2295 H   0  0  0  0  0  0  0  0  0  0  0  0
   59.5310   33.4070   47.4280 C   0  0  0  0  0  0  0  0  0  0  0  0
   59.9660   34.5770   48.2690 C   0  0  0  0  0  0  0  0  0  0  0  0
   60.6830   35.1874   47.7004 H   0  0  0  0  0  0  0  0  0  0  0  0
   59.0845   35.1813   48.5293 H   0  0  0  0  0  0  0  0  0  0  0  0
   60.6200   34.0890   49.5330 C   0  0  0  0  0  0  0  0  0  0  0  0
   59.8510   33.8400   50.6770 C   0  0  0  0  0  0  0  0  0  0  0  0
   58.7589   33.9664   50.6415 H   0  0  0  0  0  0  0  0  0  0  0  0
   60.4660   33.4320   51.8620 C   0  0  0  0  0  0  0  0  0  0  0  0
   59.8557   33.2256   52.7536 H   0  0  0  0  0  0  0  0  0  0  0  0
   61.8540   33.2850   51.9190 C   0  0  0  0  0  0  0  0  0  0  0  0
   62.3301   32.9616   52.8564 H   0  0  0  0  0  0  0  0  0  0  0  0
   62.6480   33.5470   50.7880 C   0  0  0  0  0  0  0  0  0  0  0  0
   64.0860   33.4120   50.8500 N   0  0  0  0  0  0  0  0  0  0  0  0
   64.8270   33.9990   51.9790 C   0  0  0  0  0  0  0  0  0  0  0  0
   64.3553   34.9550   52.2501 H   0  0  0  0  0  0  0  0  0  0  0  0
   64.7928   33.2778   52.8089 H   0  0  0  0  0  0  0  0  0  0  0  0
   66.3190   34.2590   51.6470 C   0  0  0  0  0  0  0  0  0  0  0  0
   66.4947   35.3444   51.6784 H   0  0  0  0  0  0  0  0  0  0  0  0
   66.9084   33.7082   52.3949 H   0  0  0  0  0  0  0  0  0  0  0  0
   66.7260   33.7810   50.3790 O   0  0  0  0  0  0  0  0  0  0  0  0
   66.2620   32.4650   50.1870 C   0  0  0  0  0  0  0  0  0  0  0  0
   66.7832   32.0109   49.3314 H   0  0  0  0  0  0  0  0  0  0  0  0
   66.4589   31.8653   51.0879 H   0  0  0  0  0  0  0  0  0  0  0  0
   64.7650   32.5050   49.9110 C   0  0  0  0  0  0  0  0  0  0  0  0
   64.5969   32.8580   48.8828 H   0  0  0  0  0  0  0  0  0  0  0  0
   64.3550   31.4923   50.0392 H   0  0  0  0  0  0  0  0  0  0  0  0
   62.0170   33.9460   49.5950 C   0  0  0  0  0  0  0  0  0  0  0  0
   62.6242   34.1484   48.7004 H   0  0  0  0  0  0  0  0  0  0  0  0
   60.4350   32.3730   47.1310 C   0  0  0  0  0  0  0  0  0  0  0  0
   61.4763   32.4386   47.4793 H   0  0  0  0  0  0  0  0  0  0  0  0
   60.0160   31.2620   46.3950 C   0  0  0  0  0  0  0  0  0  0  0  0
   60.7318   30.4619   46.1552 H   0  0  0  0  0  0  0  0  0  0  0  0
  1  2  1  0
  2  3  1  0
  2  4  2  0
  4  5  1  0
  5  6  2  0
  6  7  1  0
  6  8  1  0
  8  9  2  0
  9 10  1  0
  9 11  1  0
 11 12  1  0
 12 13  2  0
 12 14  1  0
 14 15  1  0
  5 16  1  0
 16 17  1  0
 16 18  2  0
 18 19  1  0
 19 20  1  0
 19 21  1  0
 19 22  1  0
 18 23  1  0
 23 24  1  0
 24 25  2  0
 25 26  1  0
 25 27  1  0
 27 28  1  0
 27 29  2  0
 29 30  1  0
 30 31  1  0
 30 32  1  0
 30 33  1  0
 33 34  2  0
 34 35  1  0
 34 36  1  0
 36 37  1  0
 36 38  2  0
 38 39  1  0
 38 40  1  0
 40 41  1  0
 41 42  1  0
 42 43  1  0
 42 44  1  0
 42 45  1  0
 45 46  1  0
 45 47  1  0
 45 48  1  0
 48 49  1  0
 49 50  1  0
 49 51  1  0
 49 52  1  0
 52 53  1  0
 52 54  1  0
 40 55  2  0
 55 56  1  0
 29 57  1  0
 57 58  1  0
 57 59  2  0
 59 60  1  0
 23  4  1  0
 59 24  1  0
 14  8  1  0
 55 33  1  0
 52 41  1  0
M  CHG  2  10  -1  11  -1
M  END
>  <UniqueID>  (44) 
42

>  <SMILES>  (44) 
C=c1/c(=C/c2[nH]c(=O)[n-]c2[O-])cc(C)n1-c1ccc(Cc2cccc(N3CCOCC3)c2)cc1

>  <Energy>  (44) 
144.49439820874395

>  <Genealogy>  (44) 
C=c1c(=Cc2[nH]c(=O)[n-]c2[O-])cc(C)n1-c1ccc(Cc2cccc(N3CCOCC3)c2)cc1 (protonated)
C=c1/c(=C/c2[nH]c(=O)[n-]c2[O-])cc(C)n1-c1ccc(Cc2cccc(N3CCOCC3)c2)cc1 (cis-trans isomerization)
C=c1/c(=C/c2[nH]c(=O)[n-]c2[O-])cc(C)n1-c1ccc(Cc2cccc(N3CCOCC3)c2)cc1 (3D coordinates assigned)
C=c1/c(=C/c2[nH]c(=O)[n-]c2[O-])cc(C)n1-c1ccc(Cc2cccc(N3CCOCC3)c2)cc1 (nonaromatic ring conformer: 144.49439820874395 kcal/mol)

>  <smiles>  (44) 
C=c1c(=Cc2[nH]c(=O)[nH]c2O)cc(C)n1-c1ccc(Cc2cccc(N3CCOCC3)c2)cc1

>  <score_type>  (44) 
oracle

>  <origin>  (44) 
adg

>  <m_score__min__energy>  (44) 
-15.51

>  <m_primary>  (44) 
energy

$$$$
44:0
     RDKit          3D

 60 64  0  0  0  0  0  0  0  0999 V2000
   52.2430   20.9210   46.6080 C   0  0  0  0  0  0  0  0  0  0  0  0
   53.2420   21.1790   45.6280 O   0  0  0  0  0  0  0  0  0  0  0  0
   54.2400   22.1580   45.7500 C   0  0  0  0  0  0  0  0  0  0  0  0
   55.6100   21.8400   45.7330 C   0  0  0  0  0  0  0  0  0  0  0  0
   56.5810   22.8500   45.8380 C   0  0  0  0  0  0  0  0  0  0  0  0
   56.1890   24.2010   45.9600 C   0  0  0  0  0  0  0  0  0  0  0  0
   54.8120   24.4980   46.0340 C   0  0  0  0  0  0  0  0  0  0  0  0
   53.8520   23.4920   45.9110 C   0  0  0  0  0  0  0  0  0  0  0  0
   52.5020   23.8220   45.9580 O   0  0  0  0  0  0  0  0  0  0  0  0
   57.2270   25.3090   46.1320 C   0  0  2  0  0  0  0  0  0  0  0  0
   56.9470   26.5350   45.2320 C   0  0  0  0  0  0  0  0  0  0  0  0
   58.0080   27.6120   45.4080 C   0  0  0  0  0  0  0  0  0  0  0  0
   57.6460   29.0370   45.1930 C   0  0  0  0  0  0  0  0  0  0  0  0
   56.4320   29.3760   45.2020 O   0  0  0  0  0  0  0  0  0  0  0  0
   58.6540   30.0270   44.9280 N   0  0  0  0  0  0  0  0  0  0  0  0
   58.4880   31.4270   45.2120 C   0  0  0  0  0  0  0  0  0  0  0  0
   57.6170   32.1920   44.4210 C   0  0  0  0  0  0  0  0  0  0  0  0
   57.4490   33.5550   44.6730 C   0  0  0  0  0  0  0  0  0  0  0  0
   58.1680   34.1740   45.6980 C   0  0  0  0  0  0  0  0  0  0  0  0
   59.0760   33.4350   46.4690 C   0  0  0  0  0  0  0  0  0  0  0  0
   59.8400   34.0990   47.5440 C   0  0  0  0  0  0  0  0  0  0  0  0
   59.2700   34.9900   48.2300 O   0  0  0  0  0  0  0  0  0  0  0  0
   61.2170   33.7690   47.8090 N   0  0  0  0  0  0  0  0  0  0  0  0
   61.9310   34.2660   48.9730 C   0  0  0  0  0  0  0  0  0  0  0  0
   63.4100   34.0820   48.6600 C   0  0  0  0  0  0  0  0  0  0  0  0
   63.4730   33.0910   47.5030 C   0  0  0  0  0  0  0  0  0  0  0  0
   62.1020   33.1410   46.8390 C   0  0  0  0  0  0  0  0  0  0  0  0
   59.2210   32.0590   46.2330 C   0  0  0  0  0  0  0  0  0  0  0  0
   59.2740   27.2660   45.7040 C   0  0  0  0  0  0  0  0  0  0  0  0
   59.6400   25.8550   45.8890 C   0  0  0  0  0  0  0  0  0  0  0  0
   60.8510   25.5370   46.0340 O   0  0  0  0  0  0  0  0  0  0  0  0
   58.6100   24.8510   45.8820 N   0  0  0  0  0  0  0  0  0  0  0  0
   58.8990   23.5390   45.2940 C   0  0  0  0  0  0  0  0  0  0  0  0
   58.0290   22.4700   45.9300 C   0  0  0  0  0  0  0  0  0  0  0  0
   52.6771   21.0331   47.6125 H   0  0  0  0  0  0  0  0  0  0  0  0
   51.4152   21.6348   46.4845 H   0  0  0  0  0  0  0  0  0  0  0  0
   51.8644   19.8956   46.4845 H   0  0  0  0  0  0  0  0  0  0  0  0
   55.9243   20.7903   45.6366 H   0  0  0  0  0  0  0  0  0  0  0  0
   54.4898   25.5380   46.1910 H   0  0  0  0  0  0  0  0  0  0  0  0
   57.1351   25.6050   47.1874 H   0  0  0  0  0  0  0  0  0  0  0  0
   56.9374   26.2115   44.1807 H   0  0  0  0  0  0  0  0  0  0  0  0
   55.9741   26.9594   45.5208 H   0  0  0  0  0  0  0  0  0  0  0  0
   59.5130   29.7280   44.4140 H   0  0  0  0  0  0  0  0  0  0  0  0
   57.0638   31.7154   43.5983 H   0  0  0  0  0  0  0  0  0  0  0  0
   56.7482   34.1432   44.0623 H   0  0  0  0  0  0  0  0  0  0  0  0
   58.0212   35.2451   45.9010 H   0  0  0  0  0  0  0  0  0  0  0  0
   61.7033   35.3296   49.1372 H   0  0  0  0  0  0  0  0  0  0  0  0
   61.6400   33.7283   49.8875 H   0  0  0  0  0  0  0  0  0  0  0  0
   63.8611   35.0414   48.3668 H   0  0  0  0  0  0  0  0  0  0  0  0
   63.9653   33.7155   49.5360 H   0  0  0  0  0  0  0  0  0  0  0  0
   64.2557   33.3855   46.7885 H   0  0  0  0  0  0  0  0  0  0  0  0
   63.7176   32.0767   47.8513 H   0  0  0  0  0  0  0  0  0  0  0  0
   62.1445   33.7378   45.9159 H   0  0  0  0  0  0  0  0  0  0  0  0
   61.7500   32.1373   46.5586 H   0  0  0  0  0  0  0  0  0  0  0  0
   59.9138   31.4697   46.8517 H   0  0  0  0  0  0  0  0  0  0  0  0
   60.0421   28.0465   45.8085 H   0  0  0  0  0  0  0  0  0  0  0  0
   58.6978   23.5741   44.2131 H   0  0  0  0  0  0  0  0  0  0  0  0
   59.9557   23.2925   45.4744 H   0  0  0  0  0  0  0  0  0  0  0  0
   58.1870   21.5155   45.4065 H   0  0  0  0  0  0  0  0  0  0  0  0
   58.3047   22.3703   46.9902 H   0  0  0  0  0  0  0  0  0  0  0  0
  1  2  1  0
  2  3  1  0
  3  4  2  0
  4  5  1  0
  5  6  2  0
  6  7  1  0
  7  8  2  0
  8  9  1  0
  6 10  1  0
 10 11  1  0
 11 12  1  0
 12 13  1  0
 13 14  2  0
 13 15  1  0
 15 16  1  0
 16 17  2  0
 17 18  1  0
 18 19  2  0
 19 20  1  0
 20 21  1  0
 21 22  2  0
 21 23  1  0
 23 24  1  0
 24 25  1  0
 25 26  1  0
 26 27  1  0
 20 28  2  0
 12 29  2  0
 29 30  1  0
 30 31  2  0
 30 32  1  0
 32 33  1  0
 33 34  1  0
  8  3  1  0
 32 10  1  0
 34  5  1  0
 28 16  1  0
 27 23  1  0
  1 35  1  0
  1 36  1  0
  1 37  1  0
  4 38  1  0
  7 39  1  0
 10 40  1  1
 11 41  1  0
 11 42  1  0
 15 43  1  0
 17 44  1  0
 18 45  1  0
 19 46  1  0
 24 47  1  0
 24 48  1  0
 25 49  1  0
 25 50  1  0
 26 51  1  0
 26 52  1  0
 27 53  1  0
 27 54  1  0
 28 55  1  0
 29 56  1  0
 33 57  1  0
 33 58  1  0
 34 59  1  0
 34 60  1  0
M  CHG  1   9  -1
M  END
>  <UniqueID>  (45) 
43

>  <SMILES>  (45) 
COc1cc2c(cc1[O-])[C@@H]1CC(C(=O)Nc3cccc(C(=O)N4CCCC4)c3)=CC(=O)N1CC2

>  <Energy>  (45) 
79.65358187507849

>  <Genealogy>  (45) 
COc1cc2c(cc1[O-])C1CC(C(=O)Nc3cccc(C(=O)N4CCCC4)c3)=CC(=O)N1CC2 (protonated)
COc1cc2c(cc1[O-])[C@@H]1CC(C(=O)Nc3cccc(C(=O)N4CCCC4)c3)=CC(=O)N1CC2 (chirality)
COc1cc2c(cc1[O-])[C@@H]1CC(C(=O)Nc3cccc(C(=O)N4CCCC4)c3)=CC(=O)N1CC2 (3D coordinates assigned)
COc1cc2c(cc1[O-])[C@@H]1CC(C(=O)Nc3cccc(C(=O)N4CCCC4)c3)=CC(=O)N1CC2 (nonaromatic ring conformer: 79.65358187507849 kcal/mol)

>  <smiles>  (45) 
COc1cc2c(cc1O)C1CC(C(=O)Nc3cccc(C(=O)N4CCCC4)c3)=CC(=O)N1CC2

>  <score_type>  (45) 
oracle

>  <origin>  (45) 
adg

>  <m_score__min__energy>  (45) 
-10.76

>  <m_primary>  (45) 
energy

$$$$
45:0
     RDKit          3D

 59 63  0  0  0  0  0  0  0  0999 V2000
   57.0390   19.7320   42.9040 H   0  0  0  0  0  0  0  0  0  0  0  0
   56.6250   20.6250   42.6590 O   0  0  0  0  0  0  0  0  0  0  0  0
   56.4280   21.6210   43.6120 C   0  0  0  0  0  0  0  0  0  0  0  0
   56.2960   22.9530   43.2020 C   0  0  0  0  0  0  0  0  0  0  0  0
   56.3490   23.2056   42.1327 H   0  0  0  0  0  0  0  0  0  0  0  0
   56.0970   23.9630   44.1480 C   0  0  0  0  0  0  0  0  0  0  0  0
   55.9956   25.0080   43.8199 H   0  0  0  0  0  0  0  0  0  0  0  0
   56.0260   23.6500   45.5140 C   0  0  0  0  0  0  0  0  0  0  0  0
   55.8330   24.7460   46.5290 C   0  0  0  0  0  0  0  0  0  0  0  0
   54.9926   24.4836   47.1885 H   0  0  0  0  0  0  0  0  0  0  0  0
   56.7581   24.8532   47.1144 H   0  0  0  0  0  0  0  0  0  0  0  0
   55.5450   26.0180   45.8670 N   0  0  0  0  0  0  0  0  0  0  0  0
   56.2700   27.0920   45.9730 C   0  0  0  0  0  0  0  0  0  0  0  0
   55.9150   28.2070   45.2880 N   0  0  0  0  0  0  0  0  0  0  0  0
   56.6500   29.3420   45.3910 C   0  0  0  0  0  0  0  0  0  0  0  0
   56.2910   30.3950   44.7150 N   0  0  0  0  0  0  0  0  0  0  0  0
   57.1080   31.5790   44.4140 C   0  0  0  0  0  0  0  0  0  0  0  0
   56.9614   31.7551   43.3381 H   0  0  0  0  0  0  0  0  0  0  0  0
   58.6120   31.3510   44.7010 C   0  0  0  0  0  0  0  0  0  0  0  0
   58.7725   30.3917   45.2148 H   0  0  0  0  0  0  0  0  0  0  0  0
   59.2194   31.3063   43.7850 H   0  0  0  0  0  0  0  0  0  0  0  0
   58.9770   32.4880   45.5780 C   0  0  0  0  0  0  0  0  0  0  0  0
   60.2440   32.7630   46.1000 C   0  0  0  0  0  0  0  0  0  0  0  0
   61.0964   32.1037   45.8792 H   0  0  0  0  0  0  0  0  0  0  0  0
   60.4080   33.8960   46.9110 C   0  0  0  0  0  0  0  0  0  0  0  0
   61.3956   34.1283   47.3360 H   0  0  0  0  0  0  0  0  0  0  0  0
   59.3120   34.7360   47.1820 C   0  0  0  0  0  0  0  0  0  0  0  0
   59.4462   35.6268   47.8133 H   0  0  0  0  0  0  0  0  0  0  0  0
   58.0490   34.4400   46.6490 C   0  0  0  0  0  0  0  0  0  0  0  0
   57.1869   35.0911   46.8562 H   0  0  0  0  0  0  0  0  0  0  0  0
   57.9060   33.3030   45.8500 C   0  0  0  0  0  0  0  0  0  0  0  0
   56.6560   32.8240   45.2150 C   0  0  0  0  0  0  0  0  0  0  0  0
   55.9088   32.5519   45.9750 H   0  0  0  0  0  0  0  0  0  0  0  0
   56.1776   33.5875   44.5839 H   0  0  0  0  0  0  0  0  0  0  0  0
   57.7510   29.3580   46.1910 N   0  0  0  0  0  0  0  0  0  0  0  0
   58.1180   28.2410   46.8750 C   0  0  0  0  0  0  0  0  0  0  0  0
   59.1640   28.2400   47.6460 N   0  0  0  0  0  0  0  0  0  0  0  0
   60.2470   29.2220   47.5960 C   0  0  0  0  0  0  0  0  0  0  0  0
   61.2072   28.7031   47.7328 H   0  0  0  0  0  0  0  0  0  0  0  0
   60.2118   29.7268   46.6193 H   0  0  0  0  0  0  0  0  0  0  0  0
   60.0920   30.2820   48.6930 C   0  0  0  0  0  0  0  0  0  0  0  0
   59.5622   31.1531   48.2800 H   0  0  0  0  0  0  0  0  0  0  0  0
   59.5217   29.8451   49.5260 H   0  0  0  0  0  0  0  0  0  0  0  0
   61.4010   30.7100   49.1950 N   0  0  0  0  0  0  0  0  0  0  0  0
   62.1580   31.6790   48.7590 C   0  0  0  0  0  0  0  0  0  0  0  0
   62.2570   32.8070   49.5170 N   0  0  0  0  0  0  0  0  0  0  0  0
   63.0140   33.8720   49.1410 C   0  0  0  0  0  0  0  0  0  0  0  0
   63.0656   34.7636   49.7832 H   0  0  0  0  0  0  0  0  0  0  0  0
   63.7250   33.8350   47.9420 C   0  0  0  0  0  0  0  0  0  0  0  0
   64.3340   34.6961   47.6295 H   0  0  0  0  0  0  0  0  0  0  0  0
   63.6550   32.6940   47.1440 C   0  0  0  0  0  0  0  0  0  0  0  0
   64.2125   32.6504   46.1968 H   0  0  0  0  0  0  0  0  0  0  0  0
   62.8770   31.6060   47.5470 C   0  0  0  0  0  0  0  0  0  0  0  0
   62.8253   30.7002   46.9250 H   0  0  0  0  0  0  0  0  0  0  0  0
   57.3760   27.1140   46.7640 N   0  0  0  0  0  0  0  0  0  0  0  0
   56.1610   22.3120   45.9220 C   0  0  0  0  0  0  0  0  0  0  0  0
   56.1090   22.0577   46.9909 H   0  0  0  0  0  0  0  0  0  0  0  0
   56.3610   21.3030   44.9760 C   0  0  0  0  0  0  0  0  0  0  0  0
   56.4660   20.2577   45.3020 H   0  0  0  0  0  0  0  0  0  0  0  0
  1  2  1  0
  2  3  1  0
  3  4  2  0
  4  5  1  0
  4  6  1  0
  6  7  1  0
  6  8  2  0
  8  9  1  0
  9 10  1  0
  9 11  1  0
  9 12  1  0
 12 13  2  0
 13 14  1  0
 14 15  1  0
 15 16  2  3
 16 17  1  0
 17 18  1  0
 17 19  1  0
 19 20  1  0
 19 21  1  0
 19 22  1  0
 22 23  2  0
 23 24  1  0
 23 25  1  0
 25 26  1  0
 25 27  2  0
 27 28  1  0
 27 29  1  0
 29 30  1  0
 29 31  2  0
 31 32  1  0
 32 33  1  0
 32 34  1  0
 15 35  1  0
 35 36  1  0
 36 37  2  0
 37 38  1  0
 38 39  1  0
 38 40  1  0
 38 41  1  0
 41 42  1  0
 41 43  1  0
 41 44  1  0
 44 45  2  3
 45 46  1  0
 46 47  1  0
 47 48  1  0
 47 49  2  0
 49 50  1  0
 49 51  1  0
 51 52  1  0
 51 53  2  0
 53 54  1  0
 36 55  1  0
  8 56  1  0
 56 57  1  0
 56 58  2  0
 58 59  1  0
 58  3  1  0
 55 13  1  0
 32 17  1  0
 53 45  1  0
 31 22  1  0
M  CHG  4  14  -1  35  -1  46  -1  55  -1
M  END
>  <UniqueID>  (46) 
44

>  <SMILES>  (46) 
Oc1ccc(C/N=c2/[n-]c(=NC3Cc4ccccc4C3)[n-]/c(=N\CCN=c3cccc[n-]3)[n-]2)cc1

>  <Energy>  (46) 
71.52942453599124

>  <Genealogy>  (46) 
Oc1ccc(CN=c2[n-]c(=NCCN=c3cccc[n-]3)[n-]c(=NC3Cc4ccccc4C3)[n-]2)cc1 (protonated)
Oc1ccc(C/N=c2/[n-]c(=NC3Cc4ccccc4C3)[n-]/c(=N\CCN=c3cccc[n-]3)[n-]2)cc1 (cis-trans isomerization)
Oc1ccc(C/N=c2/[n-]c(=NC3Cc4ccccc4C3)[n-]/c(=N\CCN=c3cccc[n-]3)[n-]2)cc1 (3D coordinates assigned)
Oc1ccc(C/N=c2/[n-]c(=NC3Cc4ccccc4C3)[n-]/c(=N\CCN=c3cccc[n-]3)[n-]2)cc1 (nonaromatic ring conformer: 71.52942453599124 kcal/mol)

>  <smiles>  (46) 
Oc1ccc(CN=c2[nH]c(=NCCN=c3cccc[nH]3)[nH]c(=NC3Cc4ccccc4C3)[nH]2)cc1

>  <score_type>  (46) 
oracle

>  <origin>  (46) 
adg

>  <m_score__min__energy>  (46) 
-15.880000000000001

>  <m_primary>  (46) 
energy

$$$$
46:0
     RDKit          3D

 44 47  0  0  0  0  0  0  0  0999 V2000
   54.4430   26.7190   46.6960 H   0  0  0  0  0  0  0  0  0  0  0  0
   55.3220   26.3560   46.2640 N   0  0  0  0  0  0  0  0  0  0  0  0
   56.2040   27.1620   45.7740 C   0  0  0  0  0  0  0  0  0  0  0  0
   55.8960   28.3670   45.2480 N   0  0  0  0  0  0  0  0  0  0  0  0
   57.0000   28.9990   44.7670 C   0  0  0  0  0  0  0  0  0  0  0  0
   56.8950   30.3140   44.1020 C   0  0  0  0  0  0  0  0  0  0  0  0
   56.8860   30.3860   42.8460 O   0  0  0  0  0  0  0  0  0  0  0  0
   56.7150   31.5140   44.8640 N   0  0  0  0  0  0  0  0  0  0  0  0
   57.7460   32.2230   45.5670 C   0  0  0  0  0  0  0  0  0  0  0  0
   58.0390   33.5690   45.2840 C   0  0  0  0  0  0  0  0  0  0  0  0
   57.5207   34.0799   44.4591 H   0  0  0  0  0  0  0  0  0  0  0  0
   58.9850   34.2610   46.0450 C   0  0  0  0  0  0  0  0  0  0  0  0
   59.2100   35.3127   45.8141 H   0  0  0  0  0  0  0  0  0  0  0  0
   59.6510   33.6190   47.1050 C   0  0  0  0  0  0  0  0  0  0  0  0
   60.5770   34.2850   47.9230 O   0  0  0  0  0  0  0  0  0  0  0  0
   61.7340   33.7040   48.4580 C   0  0  0  0  0  0  0  0  0  0  0  0
   62.9480   33.9140   47.7990 C   0  0  0  0  0  0  0  0  0  0  0  0
   62.9863   34.5467   46.9000 H   0  0  0  0  0  0  0  0  0  0  0  0
   64.1110   33.3180   48.2860 C   0  0  0  0  0  0  0  0  0  0  0  0
   65.0670   33.4721   47.7642 H   0  0  0  0  0  0  0  0  0  0  0  0
   64.0650   32.5480   49.4030 N   0  0  0  0  0  0  0  0  0  0  0  0
   62.9050   32.3400   50.0810 C   0  0  0  0  0  0  0  0  0  0  0  0
   62.9044   31.7086   50.9817 H   0  0  0  0  0  0  0  0  0  0  0  0
   61.7070   32.9260   49.6390 C   0  0  0  0  0  0  0  0  0  0  0  0
   60.4700   32.7560   50.4390 C   0  0  0  0  0  0  0  0  0  0  0  0
   59.7830   31.5310   50.4540 C   0  0  0  0  0  0  0  0  0  0  0  0
   60.1736   30.6778   49.8800 H   0  0  0  0  0  0  0  0  0  0  0  0
   58.6380   31.3940   51.1740 N   0  0  0  0  0  0  0  0  0  0  0  0
   58.1230   32.4240   51.8960 C   0  0  0  0  0  0  0  0  0  0  0  0
   57.1970   32.2811   52.4722 H   0  0  0  0  0  0  0  0  0  0  0  0
   58.7660   33.6620   51.9080 C   0  0  0  0  0  0  0  0  0  0  0  0
   58.3489   34.4993   52.4868 H   0  0  0  0  0  0  0  0  0  0  0  0
   59.9440   33.8270   51.1780 C   0  0  0  0  0  0  0  0  0  0  0  0
   60.4610   34.7979   51.1818 H   0  0  0  0  0  0  0  0  0  0  0  0
   59.3580   32.2800   47.3830 C   0  0  0  0  0  0  0  0  0  0  0  0
   59.8799   31.7670   48.2042 H   0  0  0  0  0  0  0  0  0  0  0  0
   58.4070   31.5870   46.6260 C   0  0  0  0  0  0  0  0  0  0  0  0
   58.1220   30.2960   46.9310 F   0  0  0  0  0  0  0  0  0  0  0  0
   58.1930   28.2810   44.9260 C   0  0  0  0  0  0  0  0  0  0  0  0
   59.5600   28.6950   44.4840 C   0  0  0  0  0  0  0  0  0  0  0  0
   60.1887   28.8854   45.3663 H   0  0  0  0  0  0  0  0  0  0  0  0
   60.0089   27.8925   43.8802 H   0  0  0  0  0  0  0  0  0  0  0  0
   59.4882   29.6117   43.8802 H   0  0  0  0  0  0  0  0  0  0  0  0
   57.8430   26.8160   45.6800 S   0  0  0  0  0  0  0  0  0  0  0  0
  1  2  1  0
  2  3  2  0
  3  4  1  0
  4  5  1  0
  5  6  1  0
  6  7  2  0
  6  8  1  0
  8  9  1  0
  9 10  2  0
 10 11  1  0
 10 12  1  0
 12 13  1  0
 12 14  2  0
 14 15  1  0
 15 16  1  0
 16 17  2  0
 17 18  1  0
 17 19  1  0
 19 20  1  0
 19 21  2  0
 21 22  1  0
 22 23  1  0
 22 24  2  0
 24 25  1  0
 25 26  2  0
 26 27  1  0
 26 28  1  0
 28 29  2  0
 29 30  1  0
 29 31  1  0
 31 32  1  0
 31 33  2  0
 33 34  1  0
 14 35  1  0
 35 36  1  0
 35 37  2  0
 37 38  1  0
  5 39  2  0
 39 40  1  0
 40 41  1  0
 40 42  1  0
 40 43  1  0
 39 44  1  0
 44  3  1  0
 37  9  1  0
 24 16  1  0
 33 25  1  0
M  CHG  2   4  -1   8  -1
M  END
>  <UniqueID>  (47) 
45

>  <SMILES>  (47) 
[H]/N=c1\[n-]c(C(=O)[N-]c2ccc(Oc3ccncc3-c3cccnc3)cc2F)c(C)s1

>  <Energy>  (47) 
97.53914699030952

>  <Genealogy>  (47) 
Cc1sc(=N)[n-]c1C(=O)[N-]c1ccc(Oc2ccncc2-c2cccnc2)cc1F (protonated)
[H]/N=c1\[n-]c(C(=O)[N-]c2ccc(Oc3ccncc3-c3cccnc3)cc2F)c(C)s1 (cis-trans isomerization)
[H]/N=c1\[n-]c(C(=O)[N-]c2ccc(Oc3ccncc3-c3cccnc3)cc2F)c(C)s1 (3D coordinates assigned)
[H]/N=c1\[n-]c(C(=O)[N-]c2ccc(Oc3ccncc3-c3cccnc3)cc2F)c(C)s1 (optimized conformer: 97.53914699030952 kcal/mol)

>  <smiles>  (47) 
Cc1sc(=N)[nH]c1C(=O)Nc1ccc(Oc2ccncc2-c2cccnc2)cc1F

>  <score_type>  (47) 
oracle

>  <origin>  (47) 
adg

>  <m_score__min__energy>  (47) 
-12.57

>  <m_primary>  (47) 
energy

$$$$
47:0
     RDKit          3D

 61 65  0  0  0  0  0  0  0  0999 V2000
   54.0100   26.3380   46.4370 H   0  0  0  0  0  0  0  0  0  0  0  0
   54.8720   26.3400   45.9040 O   0  0  0  0  0  0  0  0  0  0  0  0
   55.8720   25.3990   46.1330 C   0  0  0  0  0  0  0  0  0  0  0  0
   55.7350   24.3710   46.9860 N   0  0  0  0  0  0  0  0  0  0  0  0
   56.9030   23.7080   46.8460 C   0  0  0  0  0  0  0  0  0  0  0  0
   57.1670   22.6580   47.4870 O   0  0  0  0  0  0  0  0  0  0  0  0
   57.7620   24.2530   45.9580 N   0  0  0  0  0  0  0  0  0  0  0  0
   57.1110   25.3470   45.5270 C   0  0  0  0  0  0  0  0  0  0  0  0
   57.6210   26.2250   44.4620 C   0  0  0  0  0  0  0  0  0  0  0  0
   57.8060   25.7670   43.4792 H   0  0  0  0  0  0  0  0  0  0  0  0
   57.8810   27.5410   44.5860 C   0  0  0  0  0  0  0  0  0  0  0  0
   57.4180   28.4820   43.6800 C   0  0  0  0  0  0  0  0  0  0  0  0
   56.8520   28.2809   42.7585 H   0  0  0  0  0  0  0  0  0  0  0  0
   57.8020   29.7180   44.1540 C   0  0  0  0  0  0  0  0  0  0  0  0
   57.4890   31.0220   43.4840 C   0  0  0  0  0  0  0  0  0  0  0  0
   57.3043   31.7917   44.2479 H   0  0  0  0  0  0  0  0  0  0  0  0
   58.3399   31.3252   42.8563 H   0  0  0  0  0  0  0  0  0  0  0  0
   56.5932   30.9060   42.8563 H   0  0  0  0  0  0  0  0  0  0  0  0
   58.5190   29.5830   45.2930 N   0  0  0  0  0  0  0  0  0  0  0  0
   59.0970   30.6600   46.0530 C   0  0  0  0  0  0  0  0  0  0  0  0
   60.4120   30.5650   46.5290 C   0  0  0  0  0  0  0  0  0  0  0  0
   61.0033   29.6598   46.3266 H   0  0  0  0  0  0  0  0  0  0  0  0
   60.9750   31.6140   47.2590 C   0  0  0  0  0  0  0  0  0  0  0  0
   62.0035   31.5256   47.6389 H   0  0  0  0  0  0  0  0  0  0  0  0
   60.2350   32.7820   47.5110 C   0  0  0  0  0  0  0  0  0  0  0  0
   60.8340   33.8830   48.2910 C   0  0  0  0  0  0  0  0  0  0  0  0
   60.1550   34.9260   48.4950 O   0  0  0  0  0  0  0  0  0  0  0  0
   62.1630   33.7850   48.8340 N   0  0  0  0  0  0  0  0  0  0  0  0
   63.3670   34.1300   48.0950 C   0  0  0  0  0  0  0  0  0  0  0  0
   63.3010   33.7641   47.0597 H   0  0  0  0  0  0  0  0  0  0  0  0
   63.5152   35.2186   48.0407 H   0  0  0  0  0  0  0  0  0  0  0  0
   64.5070   33.4400   48.8320 C   0  0  0  0  0  0  0  0  0  0  0  0
   64.7609   32.4883   48.3423 H   0  0  0  0  0  0  0  0  0  0  0  0
   65.4204   34.0529   48.8353 H   0  0  0  0  0  0  0  0  0  0  0  0
   63.9810   33.1870   50.2650 C   0  0  0  0  0  0  0  0  0  0  0  0
   62.4570   33.0460   50.0510 C   0  0  0  0  0  0  0  0  0  0  0  0
   62.1821   31.9874   49.9333 H   0  0  0  0  0  0  0  0  0  0  0  0
   61.8880   33.4326   50.9094 H   0  0  0  0  0  0  0  0  0  0  0  0
   64.2990   34.4100   51.1960 C   0  0  0  0  0  0  0  0  0  0  0  0
   64.5005   35.2847   50.5602 H   0  0  0  0  0  0  0  0  0  0  0  0
   63.4227   34.5495   51.8461 H   0  0  0  0  0  0  0  0  0  0  0  0
   65.5120   34.1970   52.1250 C   0  0  0  0  0  0  0  0  0  0  0  0
   65.9321   35.1782   52.3911 H   0  0  0  0  0  0  0  0  0  0  0  0
   65.1649   33.6570   53.0183 H   0  0  0  0  0  0  0  0  0  0  0  0
   66.6030   33.3570   51.4600 C   0  0  0  0  0  0  0  0  0  0  0  0
   66.9522   33.8803   50.5577 H   0  0  0  0  0  0  0  0  0  0  0  0
   67.4176   33.2251   52.1874 H   0  0  0  0  0  0  0  0  0  0  0  0
   66.0980   31.9590   51.0580 C   0  0  0  0  0  0  0  0  0  0  0  0
   66.5843   31.6726   50.1138 H   0  0  0  0  0  0  0  0  0  0  0  0
   66.3492   31.2774   51.8840 H   0  0  0  0  0  0  0  0  0  0  0  0
   64.5710   31.8830   50.8610 C   0  0  0  0  0  0  0  0  0  0  0  0
   64.3448   31.0501   50.1790 H   0  0  0  0  0  0  0  0  0  0  0  0
   64.1145   31.7327   51.8505 H   0  0  0  0  0  0  0  0  0  0  0  0
   58.9110   32.8660   47.0490 C   0  0  0  0  0  0  0  0  0  0  0  0
   58.3133   33.7645   47.2624 H   0  0  0  0  0  0  0  0  0  0  0  0
   58.3490   31.8150   46.3200 C   0  0  0  0  0  0  0  0  0  0  0  0
   57.3148   31.8943   45.9539 H   0  0  0  0  0  0  0  0  0  0  0  0
   58.5990   28.2540   45.5600 C   0  0  0  0  0  0  0  0  0  0  0  0
   59.3720   27.7460   46.5330 C   0  0  0  0  0  0  0  0  0  0  0  0
   59.8836   28.4190   47.2368 H   0  0  0  0  0  0  0  0  0  0  0  0
   59.4938   26.6568   46.6264 H   0  0  0  0  0  0  0  0  0  0  0  0
  1  2  1  0
  2  3  1  0
  3  4  1  0
  4  5  1  0
  5  6  2  0
  5  7  1  0
  7  8  1  0
  8  9  1  0
  9 10  1  0
  9 11  2  0
 11 12  1  0
 12 13  1  0
 12 14  2  0
 14 15  1  0
 15 16  1  0
 15 17  1  0
 15 18  1  0
 14 19  1  0
 19 20  1  0
 20 21  2  0
 21 22  1  0
 21 23  1  0
 23 24  1  0
 23 25  2  0
 25 26  1  0
 26 27  2  0
 26 28  1  0
 28 29  1  0
 29 30  1  0
 29 31  1  0
 29 32  1  0
 32 33  1  0
 32 34  1  0
 32 35  1  0
 35 36  1  0
 36 37  1  0
 36 38  1  0
 35 39  1  0
 39 40  1  0
 39 41  1  0
 39 42  1  0
 42 43  1  0
 42 44  1  0
 42 45  1  0
 45 46  1  0
 45 47  1  0
 45 48  1  0
 48 49  1  0
 48 50  1  0
 48 51  1  0
 51 52  1  0
 51 53  1  0
 25 54  1  0
 54 55  1  0
 54 56  2  0
 56 57  1  0
 19 58  1  0
 58 59  2  0
 59 60  1  0
 59 61  1  0
  8  3  2  0
 58 11  1  0
 56 20  1  0
 36 28  1  0
 51 35  1  0
M  CHG  2   4  -1   7  -1
M  END
>  <UniqueID>  (48) 
46

>  <SMILES>  (48) 
C=c1/c(=C\c2[n-]c(=O)[n-]c2O)cc(C)n1-c1ccc(C(=O)N2CCC3(CCCCC3)C2)cc1

>  <Energy>  (48) 
151.0833477524255

>  <Genealogy>  (48) 
C=c1c(=Cc2[n-]c(=O)[n-]c2O)cc(C)n1-c1ccc(C(=O)N2CCC3(CCCCC3)C2)cc1 (protonated)
C=c1/c(=C\c2[n-]c(=O)[n-]c2O)cc(C)n1-c1ccc(C(=O)N2CCC3(CCCCC3)C2)cc1 (cis-trans isomerization)
C=c1/c(=C\c2[n-]c(=O)[n-]c2O)cc(C)n1-c1ccc(C(=O)N2CCC3(CCCCC3)C2)cc1 (3D coordinates assigned)
C=c1/c(=C\c2[n-]c(=O)[n-]c2O)cc(C)n1-c1ccc(C(=O)N2CCC3(CCCCC3)C2)cc1 (nonaromatic ring conformer: 151.0833477524255 kcal/mol)

>  <smiles>  (48) 
C=c1c(=Cc2[nH]c(=O)[nH]c2O)cc(C)n1-c1ccc(C(=O)N2CCC3(CCCCC3)C2)cc1

>  <score_type>  (48) 
oracle

>  <origin>  (48) 
adg

>  <m_score__min__energy>  (48) 
-14.35

>  <m_primary>  (48) 
energy

$$$$
48:0
     RDKit          3D

 61 63  0  0  0  0  0  0  0  0999 V2000
   54.1610   26.7050   45.9910 H   0  0  0  0  0  0  0  0  0  0  0  0
   54.9310   26.0460   46.0330 O   0  0  0  0  0  0  0  0  0  0  0  0
   56.2650   26.4560   46.0080 C   0  0  0  0  0  0  0  0  0  0  0  0
   57.2890   25.5810   46.3890 C   0  0  0  0  0  0  0  0  0  0  0  0
   56.9930   24.2890   46.8140 O   0  0  0  0  0  0  0  0  0  0  0  0
   58.6180   26.0020   46.3510 C   0  0  0  0  0  0  0  0  0  0  0  0
   59.4168   25.3124   46.6613 H   0  0  0  0  0  0  0  0  0  0  0  0
   58.9460   27.2960   45.9210 C   0  0  0  0  0  0  0  0  0  0  0  0
   57.9190   28.1980   45.5630 C   0  0  0  0  0  0  0  0  0  0  0  0
   56.5740   27.7600   45.6020 C   0  0  0  0  0  0  0  0  0  0  0  0
   55.5350   28.6100   45.2360 O   0  0  0  0  0  0  0  0  0  0  0  0
   58.2770   29.5810   45.1460 C   0  0  0  0  0  0  0  0  0  0  0  0
   57.3850   30.4050   44.8050 O   0  0  0  0  0  0  0  0  0  0  0  0
   59.7090   30.0450   45.1630 C   0  0  1  0  0  0  0  0  0  0  0  0
   59.8671   30.7545   44.3374 H   0  0  0  0  0  0  0  0  0  0  0  0
   60.0020   30.7560   46.4670 C   0  0  0  0  0  0  0  0  0  0  0  0
   59.2282   31.4258   46.8702 H   0  0  0  0  0  0  0  0  0  0  0  0
   60.2700   29.1000   48.9510 C   0  0  0  0  0  0  0  0  0  0  0  0
   61.9969   31.2496   46.8790 H   0  0  0  0  0  0  0  0  0  0  0  0
   61.2910   29.6860   48.2920 C   0  0  0  0  0  0  0  0  0  0  0  0
   62.3135   29.4467   48.6196 H   0  0  0  0  0  0  0  0  0  0  0  0
   61.1360   30.6260   47.1620 C   0  0  0  0  0  0  0  0  0  0  0  0
   58.9710   29.7700   49.2310 C   0  0  0  0  0  0  0  0  0  0  0  0
   58.0990   29.8270   48.3220 O   0  0  0  0  0  0  0  0  0  0  0  0
   58.6630   30.2810   50.5370 N   0  0  0  0  0  0  0  0  0  0  0  0
   57.9870   29.5070   51.5720 C   0  0  0  0  0  0  0  0  0  0  0  0
   57.0659   29.0743   51.1544 H   0  0  0  0  0  0  0  0  0  0  0  0
   58.6645   28.7109   51.9145 H   0  0  0  0  0  0  0  0  0  0  0  0
   57.6270   30.3930   52.7700 C   0  0  0  0  0  0  0  0  0  0  0  0
   56.9905   29.8221   53.4621 H   0  0  0  0  0  0  0  0  0  0  0  0
   58.5562   30.7028   53.2706 H   0  0  0  0  0  0  0  0  0  0  0  0
   56.8740   31.6470   52.3140 C   0  0  0  0  0  0  0  0  0  0  0  0
   57.2619   32.5195   52.8601 H   0  0  0  0  0  0  0  0  0  0  0  0
   57.0246   31.7755   51.2320 H   0  0  0  0  0  0  0  0  0  0  0  0
   55.4430   31.5150   52.5760 N   0  0  0  0  0  0  0  0  0  0  0  0
   54.8780   30.4400   53.3360 C   0  0  0  0  0  0  0  0  0  0  0  0
   55.1450   30.3170   54.5600 O   0  0  0  0  0  0  0  0  0  0  0  0
   53.9210   29.4940   52.6840 C   0  0  0  0  0  0  0  0  0  0  0  0
   54.4828   28.7731   52.0719 H   0  0  0  0  0  0  0  0  0  0  0  0
   53.3538   28.9633   53.4629 H   0  0  0  0  0  0  0  0  0  0  0  0
   52.9620   30.2490   51.8070 C   0  0  0  0  0  0  0  0  0  0  0  0
   52.6280   29.7600   50.5330 C   0  0  0  0  0  0  0  0  0  0  0  0
   53.0602   28.8125   50.1787 H   0  0  0  0  0  0  0  0  0  0  0  0
   51.7490   30.4730   49.7150 C   0  0  0  0  0  0  0  0  0  0  0  0
   51.4816   30.0796   48.7231 H   0  0  0  0  0  0  0  0  0  0  0  0
   51.2080   31.6850   50.1530 C   0  0  0  0  0  0  0  0  0  0  0  0
   50.3330   32.3910   49.3330 O   0  0  0  0  0  0  0  0  0  0  0  0
   51.5470   32.1860   51.4160 C   0  0  0  0  0  0  0  0  0  0  0  0
   51.0190   33.3930   51.8550 O   0  0  0  0  0  0  0  0  0  0  0  0
   52.4210   31.4700   52.2400 C   0  0  0  0  0  0  0  0  0  0  0  0
   52.6858   31.8652   53.2318 H   0  0  0  0  0  0  0  0  0  0  0  0
   60.4540   27.6810   49.4320 C   0  0  0  0  0  0  0  0  0  0  0  0
   60.4562   27.6640   50.5319 H   0  0  0  0  0  0  0  0  0  0  0  0
   59.6292   27.0570   49.0573 H   0  0  0  0  0  0  0  0  0  0  0  0
   61.4106   27.2880   49.0573 H   0  0  0  0  0  0  0  0  0  0  0  0
   60.6640   28.8630   44.9450 C   0  0  0  0  0  0  0  0  0  0  0  0
   60.5333   28.4839   43.9207 H   0  0  0  0  0  0  0  0  0  0  0  0
   61.6919   29.2198   45.1064 H   0  0  0  0  0  0  0  0  0  0  0  0
   60.3940   27.7210   45.9360 C   0  0  0  0  0  0  0  0  0  0  0  0
   61.0209   26.8587   45.6649 H   0  0  0  0  0  0  0  0  0  0  0  0
   60.6337   28.0821   46.9470 H   0  0  0  0  0  0  0  0  0  0  0  0
  1  2  1  0
  2  3  1  0
  3  4  2  0
  4  5  1  0
  4  6  1  0
  6  7  1  0
  6  8  2  0
  8  9  1  0
  9 10  2  0
 10 11  1  0
  9 12  1  0
 12 13  2  0
 12 14  1  0
 14 15  1  6
 14 16  1  0
 16 17  1  0
 16 18  2  0
 18 19  1  0
 18 20  1  0
 20 21  1  0
 20 22  2  0
 22 23  1  0
 23 24  2  0
 23 25  1  0
 25 26  1  0
 26 27  1  0
 26 28  1  0
 26 29  1  0
 29 30  1  0
 29 31  1  0
 29 32  1  0
 32 33  1  0
 32 34  1  0
 32 35  1  0
 35 36  1  0
 36 37  2  0
 36 38  1  0
 38 39  1  0
 38 40  1  0
 38 41  1  0
 41 42  2  0
 42 43  1  0
 42 44  1  0
 44 45  1  0
 44 46  2  0
 46 47  1  0
 46 48  1  0
 48 49  1  0
 48 50  2  0
 50 51  1  0
 22 52  1  0
 52 53  1  0
 52 54  1  0
 52 55  1  0
 14 56  1  0
 56 57  1  0
 56 58  1  0
 56 59  1  0
 59 60  1  0
 59 61  1  0
 10  3  1  0
 50 41  1  0
 59  8  1  0
M  CHG  6   5  -1  11  -1  25  -1  35  -1  47  -1  49  -1
M  END
>  <UniqueID>  (49) 
47

>  <SMILES>  (49) 
C/C(=C/C=C[C@H]1CCc2cc([O-])c(O)c([O-])c2C1=O)C(=O)[N-]CCC[N-]C(=O)Cc1ccc([O-])c([O-])c1

>  <Energy>  (49) 
61.6458894475702

>  <Genealogy>  (49) 
CC(=CC=CC1CCc2cc([O-])c(O)c([O-])c2C1=O)C(=O)[N-]CCC[N-]C(=O)Cc1ccc([O-])c([O-])c1 (protonated)
CC(=CC=C[C@H]1CCc2cc([O-])c(O)c([O-])c2C1=O)C(=O)[N-]CCC[N-]C(=O)Cc1ccc([O-])c([O-])c1 (chirality)
C/C(=C/C=C[C@H]1CCc2cc([O-])c(O)c([O-])c2C1=O)C(=O)[N-]CCC[N-]C(=O)Cc1ccc([O-])c([O-])c1 (cis-trans isomerization)
C/C(=C/C=C[C@H]1CCc2cc([O-])c(O)c([O-])c2C1=O)C(=O)[N-]CCC[N-]C(=O)Cc1ccc([O-])c([O-])c1 (3D coordinates assigned)
C/C(=C/C=C[C@H]1CCc2cc([O-])c(O)c([O-])c2C1=O)C(=O)[N-]CCC[N-]C(=O)Cc1ccc([O-])c([O-])c1 (nonaromatic ring conformer: 61.6458894475702 kcal/mol)

>  <smiles>  (49) 
CC(=CC=CC1CCc2cc(O)c(O)c(O)c2C1=O)C(=O)NCCCNC(=O)Cc1ccc(O)c(O)c1

>  <score_type>  (49) 
oracle

>  <origin>  (49) 
adg

>  <m_score__min__energy>  (49) 
-26.620000000000001

>  <m_primary>  (49) 
energy

$$$$
49:0
     RDKit          3D

 46 48  0  0  0  0  0  0  0  0999 V2000
   55.6270   29.6870   53.9820 O   0  0  0  0  0  0  0  0  0  0  0  0
   55.3140   30.3540   52.9610 C   0  0  0  0  0  0  0  0  0  0  0  0
   56.3100   31.3040   52.3610 C   0  0  0  0  0  0  0  0  0  0  0  0
   57.6330   30.5870   52.0790 C   0  0  0  0  0  0  0  0  0  0  0  0
   58.1300   30.9190   50.6980 C   0  0  0  0  0  0  0  0  0  0  0  0
   58.1310   32.2480   50.2470 C   0  0  0  0  0  0  0  0  0  0  0  0
   58.5620   32.5540   48.9530 C   0  0  0  0  0  0  0  0  0  0  0  0
   59.0010   31.5360   48.0920 C   0  0  0  0  0  0  0  0  0  0  0  0
   59.4420   31.8470   46.7180 C   0  0  0  0  0  0  0  0  0  0  0  0
   60.6710   31.8020   46.4450 O   0  0  0  0  0  0  0  0  0  0  0  0
   58.5210   32.2020   45.6790 N   0  0  0  0  0  0  0  0  0  0  0  0
   57.7490   31.0770   44.6060 S   0  0  0  0  0  0  0  0  0  0  0  0
   58.1670   31.3510   43.1880 O   0  0  0  0  0  0  0  0  0  0  0  0
   56.2590   31.2150   44.7350 O   0  0  0  0  0  0  0  0  0  0  0  0
   58.2270   29.4320   45.0180 C   0  0  0  0  0  0  0  0  0  0  0  0
   59.5850   29.0860   45.0940 C   0  0  0  0  0  0  0  0  0  0  0  0
   59.9630   27.7780   45.4150 C   0  0  0  0  0  0  0  0  0  0  0  0
   58.9880   26.8080   45.6580 C   0  0  0  0  0  0  0  0  0  0  0  0
   57.6330   27.1420   45.5780 C   0  0  0  0  0  0  0  0  0  0  0  0
   57.2500   28.4490   45.2560 C   0  0  0  0  0  0  0  0  0  0  0  0
   55.9300   28.7530   45.1730 F   0  0  0  0  0  0  0  0  0  0  0  0
   58.9630   30.2030   48.5310 C   0  0  0  0  0  0  0  0  0  0  0  0
   58.5340   29.8970   49.8250 C   0  0  0  0  0  0  0  0  0  0  0  0
   54.0710   30.0830   52.3010 N   0  0  0  0  0  0  0  0  0  0  0  0
   53.0640   30.8980   52.1400 C   0  0  0  0  0  0  0  0  0  0  0  0
   52.8610   31.4470   50.8670 C   0  0  0  0  0  0  0  0  0  0  0  0
   51.8020   32.3290   50.6470 C   0  0  0  0  0  0  0  0  0  0  0  0
   50.9570   32.6460   51.6630 N   0  0  0  0  0  0  0  0  0  0  0  0
   51.1090   32.1180   52.9040 C   0  0  0  0  0  0  0  0  0  0  0  0
   52.1550   31.2300   53.1730 C   0  0  0  0  0  0  0  0  0  0  0  0
   52.2220   30.6700   54.4060 F   0  0  0  0  0  0  0  0  0  0  0  0
   55.9069   31.7035   51.4187 H   0  0  0  0  0  0  0  0  0  0  0  0
   56.4938   32.1226   53.0724 H   0  0  0  0  0  0  0  0  0  0  0  0
   58.3819   30.9053   52.8192 H   0  0  0  0  0  0  0  0  0  0  0  0
   57.4699   29.5012   52.1463 H   0  0  0  0  0  0  0  0  0  0  0  0
   57.7909   33.0529   50.9152 H   0  0  0  0  0  0  0  0  0  0  0  0
   58.5571   33.5983   48.6075 H   0  0  0  0  0  0  0  0  0  0  0  0
   60.3556   29.8467   44.9003 H   0  0  0  0  0  0  0  0  0  0  0  0
   61.0289   27.5132   45.4761 H   0  0  0  0  0  0  0  0  0  0  0  0
   59.2866   25.7804   45.9126 H   0  0  0  0  0  0  0  0  0  0  0  0
   56.8665   26.3763   45.7684 H   0  0  0  0  0  0  0  0  0  0  0  0
   59.2728   29.3948   47.8522 H   0  0  0  0  0  0  0  0  0  0  0  0
   58.5128   28.8499   50.1612 H   0  0  0  0  0  0  0  0  0  0  0  0
   53.5368   31.1826   50.0403 H   0  0  0  0  0  0  0  0  0  0  0  0
   51.6511   32.7682   49.6498 H   0  0  0  0  0  0  0  0  0  0  0  0
   50.4045   32.3905   53.7036 H   0  0  0  0  0  0  0  0  0  0  0  0
  1  2  2  0
  2  3  1  0
  3  4  1  0
  4  5  1  0
  5  6  2  0
  6  7  1  0
  7  8  2  0
  8  9  1  0
  9 10  2  0
  9 11  1  0
 11 12  1  0
 12 13  2  0
 12 14  2  0
 12 15  1  0
 15 16  2  0
 16 17  1  0
 17 18  2  0
 18 19  1  0
 19 20  2  0
 20 21  1  0
  8 22  1  0
 22 23  2  0
  2 24  1  0
 24 25  2  3
 25 26  1  0
 26 27  2  0
 27 28  1  0
 28 29  1  0
 29 30  2  0
 30 31  1  0
 23  5  1  0
 30 25  1  0
 20 15  1  0
  3 32  1  0
  3 33  1  0
  4 34  1  0
  4 35  1  0
  6 36  1  0
  7 37  1  0
 16 38  1  0
 17 39  1  0
 18 40  1  0
 19 41  1  0
 22 42  1  0
 23 43  1  0
 26 44  1  0
 27 45  1  0
 29 46  1  0
M  CHG  2  11  -1  28  -1
M  END
>  <UniqueID>  (50) 
48

>  <SMILES>  (50) 
O=C(CCc1ccc(C(=O)[N-]S(=O)(=O)c2ccccc2F)cc1)N=c1cc[n-]cc1F

>  <Energy>  (50) 
67.06591232505657

>  <Genealogy>  (50) 
O=C(CCc1ccc(C(=O)[N-]S(=O)(=O)c2ccccc2F)cc1)N=c1cc[n-]cc1F (protonated)
O=C(CCc1ccc(C(=O)[N-]S(=O)(=O)c2ccccc2F)cc1)N=c1cc[n-]cc1F (3D coordinates assigned)
O=C(CCc1ccc(C(=O)[N-]S(=O)(=O)c2ccccc2F)cc1)N=c1cc[n-]cc1F (optimized conformer: 67.06591232505657 kcal/mol)

>  <smiles>  (50) 
O=C(CCc1ccc(C(=O)NS(=O)(=O)c2ccccc2F)cc1)N=c1cc[nH]cc1F

>  <score_type>  (50) 
oracle

>  <origin>  (50) 
adg

>  <m_score__min__energy>  (50) 
-12.02

>  <m_primary>  (50) 
energy

$$$$
50:0
     RDKit          3D

 43 45  0  0  0  0  0  0  0  0999 V2000
   55.1890   24.1680   47.0000 O   0  0  0  0  0  0  0  0  0  0  0  0
   55.1320   24.8400   45.9340 C   0  0  0  0  0  0  0  0  0  0  0  0
   55.0460   24.1300   44.6210 C   0  0  0  0  0  0  0  0  0  0  0  0
   56.3110   23.3530   44.3740 C   0  0  0  0  0  0  0  0  0  0  0  0
   56.3110   22.2620   43.4860 C   0  0  0  0  0  0  0  0  0  0  0  0
   57.4750   21.5110   43.2940 C   0  0  0  0  0  0  0  0  0  0  0  0
   58.6420   21.8360   43.9940 C   0  0  0  0  0  0  0  0  0  0  0  0
   58.6440   22.9110   44.8880 C   0  0  0  0  0  0  0  0  0  0  0  0
   57.4840   23.6660   45.0830 C   0  0  0  0  0  0  0  0  0  0  0  0
   55.2680   26.2670   45.9510 N   0  0  0  0  0  0  0  0  0  0  0  0
   56.4820   27.0360   45.9850 C   0  0  0  0  0  0  0  0  0  0  0  0
   56.6330   28.2160   45.2300 C   0  0  0  0  0  0  0  0  0  0  0  0
   57.8480   28.9230   45.2400 C   0  0  0  0  0  0  0  0  0  0  0  0
   58.0290   30.1280   44.4820 N   0  0  0  0  0  0  0  0  0  0  0  0
   57.1460   31.2600   44.4530 C   0  0  0  0  0  0  0  0  0  0  0  0
   55.9060   31.0680   44.5470 O   0  0  0  0  0  0  0  0  0  0  0  0
   57.6280   32.6030   44.3030 N   0  0  0  0  0  0  0  0  0  0  0  0
   58.2890   33.3850   45.3100 C   0  0  0  0  0  0  0  0  0  0  0  0
   58.9900   34.5340   44.9220 C   0  0  0  0  0  0  0  0  0  0  0  0
   59.6480   35.3150   45.8770 C   0  0  0  0  0  0  0  0  0  0  0  0
   59.6030   34.9570   47.2290 C   0  0  0  0  0  0  0  0  0  0  0  0
   58.8870   33.8270   47.6260 C   0  0  0  0  0  0  0  0  0  0  0  0
   58.2210   33.0460   46.6750 C   0  0  0  0  0  0  0  0  0  0  0  0
   58.9010   28.4640   46.0380 C   0  0  0  0  0  0  0  0  0  0  0  0
   58.7650   27.2900   46.7820 C   0  0  0  0  0  0  0  0  0  0  0  0
   57.5680   26.5690   46.7510 C   0  0  0  0  0  0  0  0  0  0  0  0
   57.4780   25.3930   47.4980 O   0  0  0  0  0  0  0  0  0  0  0  0
   54.1905   23.4387   44.6357 H   0  0  0  0  0  0  0  0  0  0  0  0
   54.9131   24.8697   43.8178 H   0  0  0  0  0  0  0  0  0  0  0  0
   55.3925   21.9988   42.9409 H   0  0  0  0  0  0  0  0  0  0  0  0
   57.4730   20.6641   42.5921 H   0  0  0  0  0  0  0  0  0  0  0  0
   59.5577   21.2459   43.8410 H   0  0  0  0  0  0  0  0  0  0  0  0
   59.5615   23.1634   45.4397 H   0  0  0  0  0  0  0  0  0  0  0  0
   57.4889   24.5066   45.7925 H   0  0  0  0  0  0  0  0  0  0  0  0
   55.7917   28.5878   44.6267 H   0  0  0  0  0  0  0  0  0  0  0  0
   59.0230   34.8232   43.8612 H   0  0  0  0  0  0  0  0  0  0  0  0
   60.2021   36.2126   45.5649 H   0  0  0  0  0  0  0  0  0  0  0  0
   60.1313   35.5655   47.9778 H   0  0  0  0  0  0  0  0  0  0  0  0
   58.8460   33.5494   48.6896 H   0  0  0  0  0  0  0  0  0  0  0  0
   57.6435   32.1659   46.9942 H   0  0  0  0  0  0  0  0  0  0  0  0
   59.8424   29.0314   46.0798 H   0  0  0  0  0  0  0  0  0  0  0  0
   59.6043   26.9308   47.3956 H   0  0  0  0  0  0  0  0  0  0  0  0
   56.6210   24.8580   47.5680 H   0  0  0  0  0  0  0  0  0  0  0  0
  1  2  2  0
  2  3  1  0
  3  4  1  0
  4  5  2  0
  5  6  1  0
  6  7  2  0
  7  8  1  0
  8  9  2  0
  2 10  1  0
 10 11  1  0
 11 12  2  0
 12 13  1  0
 13 14  1  0
 14 15  1  0
 15 16  2  0
 15 17  1  0
 17 18  1  0
 18 19  2  0
 19 20  1  0
 20 21  2  0
 21 22  1  0
 22 23  2  0
 13 24  2  0
 24 25  1  0
 25 26  2  0
 26 27  1  0
  9  4  1  0
 26 11  1  0
 23 18  1  0
  3 28  1  0
  3 29  1  0
  5 30  1  0
  6 31  1  0
  7 32  1  0
  8 33  1  0
  9 34  1  0
 12 35  1  0
 19 36  1  0
 20 37  1  0
 21 38  1  0
 22 39  1  0
 23 40  1  0
 24 41  1  0
 25 42  1  0
 27 43  1  0
M  CHG  3  10  -1  14  -1  17  -1
M  END
>  <UniqueID>  (51) 
49

>  <SMILES>  (51) 
O=C(Cc1ccccc1)[N-]c1cc([N-]C(=O)[N-]c2ccccc2)ccc1O

>  <Energy>  (51) 
54.427787646704786

>  <Genealogy>  (51) 
O=C(Cc1ccccc1)[N-]c1cc([N-]C(=O)[N-]c2ccccc2)ccc1O (protonated)
O=C(Cc1ccccc1)[N-]c1cc([N-]C(=O)[N-]c2ccccc2)ccc1O (3D coordinates assigned)
O=C(Cc1ccccc1)[N-]c1cc([N-]C(=O)[N-]c2ccccc2)ccc1O (optimized conformer: 54.427787646704786 kcal/mol)

>  <smiles>  (51) 
O=C(Cc1ccccc1)Nc1cc(NC(=O)Nc2ccccc2)ccc1O

>  <score_type>  (51) 
oracle

>  <origin>  (51) 
adg

>  <m_score__min__energy>  (51) 
-12.66

>  <m_primary>  (51) 
energy

$$$$
51:0
     RDKit          3D

 35 36  0  0  0  0  0  0  0  0999 V2000
   55.1510   27.9770   44.9080 H   0  0  0  0  0  0  0  0  0  0  0  0
   55.2020   28.9860   44.8620 O   0  0  0  0  0  0  0  0  0  0  0  0
   56.3650   29.6860   44.5260 C   0  0  0  0  0  0  0  0  0  0  0  0
   56.2550   30.7190   43.5890 C   0  0  0  0  0  0  0  0  0  0  0  0
   55.2749   30.9519   43.1472 H   0  0  0  0  0  0  0  0  0  0  0  0
   57.3760   31.4560   43.2100 C   0  0  0  0  0  0  0  0  0  0  0  0
   57.2785   32.2665   42.4727 H   0  0  0  0  0  0  0  0  0  0  0  0
   58.6200   31.1650   43.7660 C   0  0  0  0  0  0  0  0  0  0  0  0
   59.5040   31.7467   43.4655 H   0  0  0  0  0  0  0  0  0  0  0  0
   58.7490   30.1380   44.7030 C   0  0  0  0  0  0  0  0  0  0  0  0
   59.7360   29.9175   45.1358 H   0  0  0  0  0  0  0  0  0  0  0  0
   57.6250   29.3780   45.1020 C   0  0  0  0  0  0  0  0  0  0  0  0
   57.7280   28.2520   46.1200 C   0  0  0  0  0  0  0  0  0  0  0  0
   56.8331   28.2918   46.7584 H   0  0  0  0  0  0  0  0  0  0  0  0
   58.6715   28.4232   46.6590 H   0  0  0  0  0  0  0  0  0  0  0  0
   57.8310   26.8330   45.5420 C   0  0  0  0  0  0  0  0  0  0  0  0
   58.6758   26.3099   46.0138 H   0  0  0  0  0  0  0  0  0  0  0  0
   57.9878   26.9009   44.4553 H   0  0  0  0  0  0  0  0  0  0  0  0
   56.5700   26.0700   45.8040 C   0  0  0  0  0  0  0  0  0  0  0  0
   55.4980   26.7000   46.0120 O   0  0  0  0  0  0  0  0  0  0  0  0
   56.6250   24.6360   45.8740 N   0  0  0  0  0  0  0  0  0  0  0  0
   56.4760   23.7730   44.9080 C   0  0  0  0  0  0  0  0  0  0  0  0
   57.3640   23.4780   43.8860 C   0  0  0  0  0  0  0  0  0  0  0  0
   58.3480   23.9296   43.6914 H   0  0  0  0  0  0  0  0  0  0  0  0
   56.7250   22.4830   43.1670 C   0  0  0  0  0  0  0  0  0  0  0  0
   57.1312   21.9932   42.2697 H   0  0  0  0  0  0  0  0  0  0  0  0
   55.5310   22.2020   43.7280 N   0  0  0  0  0  0  0  0  0  0  0  0
   55.3830   22.9950   44.7780 N   0  0  0  0  0  0  0  0  0  0  0  0
   54.2250   22.9420   45.6700 C   0  0  0  0  0  0  0  0  0  0  0  0
   53.7939   21.9303   45.6440 H   0  0  0  0  0  0  0  0  0  0  0  0
   54.5508   23.1891   46.6912 H   0  0  0  0  0  0  0  0  0  0  0  0
   53.1670   23.9500   45.2320 C   0  0  0  0  0  0  0  0  0  0  0  0
   53.0749   23.9270   44.1361 H   0  0  0  0  0  0  0  0  0  0  0  0
   52.2052   23.6850   45.6954 H   0  0  0  0  0  0  0  0  0  0  0  0
   53.5260   25.2250   45.6340 F   0  0  0  0  0  0  0  0  0  0  0  0
  1  2  1  0
  2  3  1  0
  3  4  2  0
  4  5  1  0
  4  6  1  0
  6  7  1  0
  6  8  2  0
  8  9  1  0
  8 10  1  0
 10 11  1  0
 10 12  2  0
 12 13  1  0
 13 14  1  0
 13 15  1  0
 13 16  1  0
 16 17  1  0
 16 18  1  0
 16 19  1  0
 19 20  2  0
 19 21  1  0
 21 22  2  0
 22 23  1  0
 23 24  1  0
 23 25  2  0
 25 26  1  0
 25 27  1  0
 27 28  1  0
 28 29  1  0
 29 30  1  0
 29 31  1  0
 29 32  1  0
 32 33  1  0
 32 34  1  0
 32 35  1  0
 12  3  1  0
 28 22  1  0
M  CHG  1  27  -1
M  END
>  <UniqueID>  (52) 
50

>  <SMILES>  (52) 
O=C(CCc1ccccc1O)/N=c1\cc[n-]n1CCF

>  <Energy>  (52) 
68.20126443357464

>  <Genealogy>  (52) 
O=C(CCc1ccccc1O)N=c1cc[n-]n1CCF (protonated)
O=C(CCc1ccccc1O)/N=c1\cc[n-]n1CCF (cis-trans isomerization)
O=C(CCc1ccccc1O)/N=c1\cc[n-]n1CCF (3D coordinates assigned)
O=C(CCc1ccccc1O)/N=c1\cc[n-]n1CCF (optimized conformer: 68.20126443357464 kcal/mol)

>  <smiles>  (52) 
O=C(CCc1ccccc1O)N=c1cc[nH]n1CCF

>  <score_type>  (52) 
oracle

>  <origin>  (52) 
adg

>  <m_score__min__energy>  (52) 
-8.5199999999999996

>  <m_primary>  (52) 
energy

$$$$
52:0
     RDKit          3D

 51 55  0  0  0  0  0  0  0  0999 V2000
   61.0590   30.5142   44.7651 H   0  0  0  0  0  0  0  0  0  0  0  0
   60.3450   29.6910   44.9150 C   0  0  0  0  0  0  0  0  0  0  0  0
   60.0195   29.0825   44.0584 H   0  0  0  0  0  0  0  0  0  0  0  0
   59.8710   29.4290   46.1430 C   0  0  0  0  0  0  0  0  0  0  0  0
   58.9640   28.4220   46.4870 C   0  0  0  0  0  0  0  0  0  0  0  0
   58.4450   27.4800   45.6770 C   0  0  0  0  0  0  0  0  0  0  0  0
   59.0082   27.2110   44.7712 H   0  0  0  0  0  0  0  0  0  0  0  0
   57.1690   26.7870   45.9290 C   0  0  0  0  0  0  0  0  0  0  0  0
   57.0910   25.5030   46.3200 N   0  0  0  0  0  0  0  0  0  0  0  0
   55.7630   25.2610   46.3440 C   0  0  0  0  0  0  0  0  0  0  0  0
   55.2830   24.1480   46.6810 O   0  0  0  0  0  0  0  0  0  0  0  0
   54.9900   26.3020   45.9680 N   0  0  0  0  0  0  0  0  0  0  0  0
   55.8950   27.2570   45.6960 C   0  0  0  0  0  0  0  0  0  0  0  0
   55.5600   28.5110   45.2000 O   0  0  0  0  0  0  0  0  0  0  0  0
   58.7400   28.5500   47.8530 C   0  0  0  0  0  0  0  0  0  0  0  0
   58.0798   27.9249   48.4722 H   0  0  0  0  0  0  0  0  0  0  0  0
   59.5080   29.6150   48.2810 C   0  0  0  0  0  0  0  0  0  0  0  0
   59.5860   30.1030   49.6950 C   0  0  0  0  0  0  0  0  0  0  0  0
   59.4506   29.2557   50.3833 H   0  0  0  0  0  0  0  0  0  0  0  0
   60.5692   30.5641   49.8701 H   0  0  0  0  0  0  0  0  0  0  0  0
   58.7955   30.8476   49.8701 H   0  0  0  0  0  0  0  0  0  0  0  0
   60.1930   30.1480   47.2460 N   0  0  0  0  0  0  0  0  0  0  0  0
   61.1070   31.2560   47.3310 C   0  0  0  0  0  0  0  0  0  0  0  0
   62.4790   31.0240   47.1470 C   0  0  0  0  0  0  0  0  0  0  0  0
   62.8356   30.0095   46.9155 H   0  0  0  0  0  0  0  0  0  0  0  0
   63.3940   32.0730   47.2560 C   0  0  0  0  0  0  0  0  0  0  0  0
   64.4681   31.8828   47.1141 H   0  0  0  0  0  0  0  0  0  0  0  0
   62.9460   33.3630   47.5450 C   0  0  0  0  0  0  0  0  0  0  0  0
   63.6684   34.1879   47.6327 H   0  0  0  0  0  0  0  0  0  0  0  0
   61.5830   33.6090   47.7230 C   0  0  0  0  0  0  0  0  0  0  0  0
   61.2370   34.6292   47.9455 H   0  0  0  0  0  0  0  0  0  0  0  0
   60.6500   32.5630   47.6200 C   0  0  0  0  0  0  0  0  0  0  0  0
   59.2060   32.8570   47.7770 C   0  0  0  0  0  0  0  0  0  0  0  0
   58.6800   32.7450   48.9180 O   0  0  0  0  0  0  0  0  0  0  0  0
   58.3930   33.2550   46.6530 N   0  0  0  0  0  0  0  0  0  0  0  0
   57.3960   32.3350   46.0710 C   0  0  0  0  0  0  0  0  0  0  0  0
   56.3840   32.7284   46.2472 H   0  0  0  0  0  0  0  0  0  0  0  0
   57.4851   31.3446   46.5412 H   0  0  0  0  0  0  0  0  0  0  0  0
   57.6400   32.2200   44.6010 C   0  0  0  0  0  0  0  0  0  0  0  0
   57.1340   31.3380   43.7730 O   0  0  0  0  0  0  0  0  0  0  0  0
   57.6230   31.6200   42.5800 C   0  0  0  0  0  0  0  0  0  0  0  0
   57.3860   31.0517   41.6685 H   0  0  0  0  0  0  0  0  0  0  0  0
   58.4490   32.6890   42.6100 N   0  0  0  0  0  0  0  0  0  0  0  0
   58.9800   33.1090   41.8160 H   0  0  0  0  0  0  0  0  0  0  0  0
   58.4420   33.0740   43.8950 C   0  0  0  0  0  0  0  0  0  0  0  0
   59.2620   34.1620   44.5180 C   0  0  0  0  0  0  0  0  0  0  0  0
   59.2235   35.0592   43.8828 H   0  0  0  0  0  0  0  0  0  0  0  0
   60.3046   33.8249   44.6148 H   0  0  0  0  0  0  0  0  0  0  0  0
   58.7000   34.4960   45.9120 C   0  0  0  0  0  0  0  0  0  0  0  0
   57.7800   35.0884   45.7998 H   0  0  0  0  0  0  0  0  0  0  0  0
   59.4524   35.0701   46.4726 H   0  0  0  0  0  0  0  0  0  0  0  0
  1  2  1  0
  2  3  1  0
  2  4  2  0
  4  5  1  0
  5  6  2  0
  6  7  1  0
  6  8  1  0
  8  9  1  0
  9 10  1  0
 10 11  2  0
 10 12  1  0
 12 13  1  0
 13 14  1  0
  5 15  1  0
 15 16  1  0
 15 17  2  0
 17 18  1  0
 18 19  1  0
 18 20  1  0
 18 21  1  0
 17 22  1  0
 22 23  1  0
 23 24  2  0
 24 25  1  0
 24 26  1  0
 26 27  1  0
 26 28  2  0
 28 29  1  0
 28 30  1  0
 30 31  1  0
 30 32  2  0
 32 33  1  0
 33 34  2  0
 33 35  1  0
 35 36  1  0
 36 37  1  0
 36 38  1  0
 36 39  1  0
 39 40  1  0
 40 41  1  0
 41 42  1  0
 41 43  2  0
 43 44  1  0
 43 45  1  0
 45 46  1  0
 46 47  1  0
 46 48  1  0
 46 49  1  0
 49 50  1  0
 49 51  1  0
 22  4  1  0
 32 23  1  0
 49 35  1  0
 13  8  2  0
 45 39  2  0
M  CHG  4   9  -1  12  -1  14  -1  43   1
M  END
>  <UniqueID>  (53) 
51

>  <SMILES>  (53) 
C=c1/c(=C/c2[n-]c(=O)[n-]c2[O-])cc(C)n1-c1ccccc1C(=O)N1CCc2[nH+]coc2C1

>  <Energy>  (53) 
166.6241929145453

>  <Genealogy>  (53) 
C=c1c(=Cc2[n-]c(=O)[n-]c2[O-])cc(C)n1-c1ccccc1C(=O)N1CCc2[nH+]coc2C1 (protonated)
C=c1/c(=C/c2[n-]c(=O)[n-]c2[O-])cc(C)n1-c1ccccc1C(=O)N1CCc2[nH+]coc2C1 (cis-trans isomerization)
C=c1/c(=C/c2[n-]c(=O)[n-]c2[O-])cc(C)n1-c1ccccc1C(=O)N1CCc2[nH+]coc2C1 (3D coordinates assigned)
C=c1/c(=C/c2[n-]c(=O)[n-]c2[O-])cc(C)n1-c1ccccc1C(=O)N1CCc2[nH+]coc2C1 (nonaromatic ring conformer: 166.6241929145453 kcal/mol)

>  <smiles>  (53) 
C=c1c(=Cc2[nH]c(=O)[nH]c2O)cc(C)n1-c1ccccc1C(=O)N1CCc2ncoc2C1

>  <score_type>  (53) 
oracle

>  <origin>  (53) 
adg

>  <m_score__min__energy>  (53) 
-15.49

>  <m_primary>  (53) 
energy

$$$$
53:0
     RDKit          3D

 62 64  0  0  0  0  0  0  0  0999 V2000
   63.3490   34.6180   51.1490 C   0  0  0  0  0  0  0  0  0  0  0  0
   62.5720   33.5090   50.5890 N   0  0  0  0  0  0  0  0  0  0  0  0
   63.2290   32.5290   49.7130 C   0  0  0  0  0  0  0  0  0  0  0  0
   64.1140   33.2220   48.6720 C   0  0  0  0  0  0  0  0  0  0  0  0
   63.7140   32.8330   47.3130 N   0  0  0  0  0  0  0  0  0  0  0  0
   62.3190   32.3720   47.2750 C   0  0  0  0  0  0  0  0  0  0  0  0
   62.2670   30.8490   47.1240 C   0  0  0  0  0  0  0  0  0  0  0  0
   61.1180   30.2760   47.9090 C   0  0  0  0  0  0  0  0  0  0  0  0
   59.9790   29.7890   47.2480 C   0  0  0  0  0  0  0  0  0  0  0  0
   58.9260   29.2300   47.9790 C   0  0  0  0  0  0  0  0  0  0  0  0
   59.0070   29.1450   49.3720 C   0  0  0  0  0  0  0  0  0  0  0  0
   60.1440   29.6140   50.0360 C   0  0  0  0  0  0  0  0  0  0  0  0
   61.1990   30.1730   49.3090 C   0  0  0  0  0  0  0  0  0  0  0  0
   61.1620   33.4340   50.8660 C   0  0  0  0  0  0  0  0  0  0  0  0
   60.7260   32.6310   51.7370 O   0  0  0  0  0  0  0  0  0  0  0  0
   60.2680   34.2220   50.1290 O   0  0  0  0  0  0  0  0  0  0  0  0
   59.7180   33.8540   48.8940 C   0  0  0  0  0  0  0  0  0  0  0  0
   60.0500   34.6080   47.7660 C   0  0  0  0  0  0  0  0  0  0  0  0
   59.5280   34.2810   46.5120 C   0  0  0  0  0  0  0  0  0  0  0  0
   58.6410   33.2000   46.3680 C   0  0  0  0  0  0  0  0  0  0  0  0
   58.0950   32.8660   45.0280 C   0  0  0  0  0  0  0  0  0  0  0  0
   58.7140   33.2550   43.9990 O   0  0  0  0  0  0  0  0  0  0  0  0
   56.8570   32.0190   44.8650 C   0  0  0  0  0  0  0  0  0  0  0  0
   57.0860   30.8430   43.9470 C   0  0  0  0  0  0  0  0  0  0  0  0
   56.9030   30.9900   42.7080 O   0  0  0  0  0  0  0  0  0  0  0  0
   57.4460   29.5040   44.4760 C   0  0  0  0  0  0  0  0  0  0  0  0
   58.7700   29.0320   44.3760 C   0  0  0  0  0  0  0  0  0  0  0  0
   59.1190   27.7790   44.8890 C   0  0  0  0  0  0  0  0  0  0  0  0
   58.1540   26.9840   45.5100 C   0  0  0  0  0  0  0  0  0  0  0  0
   56.8390   27.4390   45.6210 C   0  0  0  0  0  0  0  0  0  0  0  0
   56.4800   28.6910   45.1090 C   0  0  0  0  0  0  0  0  0  0  0  0
   55.1570   29.1090   45.2190 O   0  0  0  0  0  0  0  0  0  0  0  0
   58.2950   32.4510   47.5070 C   0  0  0  0  0  0  0  0  0  0  0  0
   58.8150   32.7800   48.7670 C   0  0  0  0  0  0  0  0  0  0  0  0
   58.4140   32.0620   49.8940 O   0  0  0  0  0  0  0  0  0  0  0  0
   63.3160   34.5709   52.2475 H   0  0  0  0  0  0  0  0  0  0  0  0
   64.3927   34.5424   50.8099 H   0  0  0  0  0  0  0  0  0  0  0  0
   62.9216   35.5732   50.8099 H   0  0  0  0  0  0  0  0  0  0  0  0
   63.8519   31.8608   50.3258 H   0  0  0  0  0  0  0  0  0  0  0  0
   62.4515   31.9580   49.1844 H   0  0  0  0  0  0  0  0  0  0  0  0
   64.0139   34.3121   48.7804 H   0  0  0  0  0  0  0  0  0  0  0  0
   65.1585   32.9180   48.8353 H   0  0  0  0  0  0  0  0  0  0  0  0
   64.3190   32.0290   47.0240 H   0  0  0  0  0  0  0  0  0  0  0  0
   61.8155   32.6615   48.2092 H   0  0  0  0  0  0  0  0  0  0  0  0
   61.8124   32.8345   46.4151 H   0  0  0  0  0  0  0  0  0  0  0  0
   62.1403   30.5956   46.0611 H   0  0  0  0  0  0  0  0  0  0  0  0
   63.2055   30.4231   47.5084 H   0  0  0  0  0  0  0  0  0  0  0  0
   59.9147   29.8474   46.1514 H   0  0  0  0  0  0  0  0  0  0  0  0
   58.0326   28.8566   47.4571 H   0  0  0  0  0  0  0  0  0  0  0  0
   58.1758   28.7090   49.9456 H   0  0  0  0  0  0  0  0  0  0  0  0
   60.2087   29.5431   51.1318 H   0  0  0  0  0  0  0  0  0  0  0  0
   62.0958   30.5336   49.8340 H   0  0  0  0  0  0  0  0  0  0  0  0
   60.7290   35.4676   47.8660 H   0  0  0  0  0  0  0  0  0  0  0  0
   59.8133   34.8740   45.6306 H   0  0  0  0  0  0  0  0  0  0  0  0
   56.5528   31.6429   45.8529 H   0  0  0  0  0  0  0  0  0  0  0  0
   56.0742   32.6488   44.4172 H   0  0  0  0  0  0  0  0  0  0  0  0
   59.5356   29.6547   43.8901 H   0  0  0  0  0  0  0  0  0  0  0  0
   60.1550   27.4193   44.8032 H   0  0  0  0  0  0  0  0  0  0  0  0
   58.4301   25.9981   45.9122 H   0  0  0  0  0  0  0  0  0  0  0  0
   56.0818   26.8108   46.1130 H   0  0  0  0  0  0  0  0  0  0  0  0
   57.6085   31.5972   47.4083 H   0  0  0  0  0  0  0  0  0  0  0  0
   58.8240   32.2310   50.8050 H   0  0  0  0  0  0  0  0  0  0  0  0
  1  2  1  0
  2  3  1  0
  3  4  1  0
  4  5  1  0
  5  6  1  0
  6  7  1  0
  7  8  1  0
  8  9  2  0
  9 10  1  0
 10 11  2  0
 11 12  1  0
 12 13  2  0
  2 14  1  0
 14 15  2  0
 14 16  1  0
 16 17  1  0
 17 18  2  0
 18 19  1  0
 19 20  2  0
 20 21  1  0
 21 22  2  0
 21 23  1  0
 23 24  1  0
 24 25  2  0
 24 26  1  0
 26 27  2  0
 27 28  1  0
 28 29  2  0
 29 30  1  0
 30 31  2  0
 31 32  1  0
 20 33  1  0
 33 34  2  0
 34 35  1  0
 13  8  1  0
 34 17  1  0
 31 26  1  0
  1 36  1  0
  1 37  1  0
  1 38  1  0
  3 39  1  0
  3 40  1  0
  4 41  1  0
  4 42  1  0
  5 43  1  0
  6 44  1  0
  6 45  1  0
  7 46  1  0
  7 47  1  0
  9 48  1  0
 10 49  1  0
 11 50  1  0
 12 51  1  0
 13 52  1  0
 18 53  1  0
 19 54  1  0
 23 55  1  0
 23 56  1  0
 27 57  1  0
 28 58  1  0
 29 59  1  0
 30 60  1  0
 33 61  1  0
 35 62  1  0
M  CHG  1  32  -1
M  END
>  <UniqueID>  (54) 
52

>  <SMILES>  (54) 
CN(CCNCCc1ccccc1)C(=O)Oc1ccc(C(=O)CC(=O)c2ccccc2[O-])cc1O

>  <Energy>  (54) 
69.33245422841172

>  <Genealogy>  (54) 
CN(CCNCCc1ccccc1)C(=O)Oc1ccc(C(=O)CC(=O)c2ccccc2[O-])cc1O (protonated)
CN(CCNCCc1ccccc1)C(=O)Oc1ccc(C(=O)CC(=O)c2ccccc2[O-])cc1O (3D coordinates assigned)
CN(CCNCCc1ccccc1)C(=O)Oc1ccc(C(=O)CC(=O)c2ccccc2[O-])cc1O (optimized conformer: 69.33245422841172 kcal/mol)

>  <smiles>  (54) 
CN(CCNCCc1ccccc1)C(=O)Oc1ccc(C(=O)CC(=O)c2ccccc2O)cc1O

>  <score_type>  (54) 
oracle

>  <origin>  (54) 
adg

>  <m_score__min__energy>  (54) 
-12.25

>  <m_primary>  (54) 
energy

$$$$
54:0
     RDKit          3D

 58 61  0  0  0  0  0  0  0  0999 V2000
   57.5540   27.5310   47.0000 N   0  0  0  0  0  0  0  0  0  0  0  0
   57.7720   28.9310   46.8110 C   0  0  0  0  0  0  0  0  0  0  0  0
   58.2890   29.6060   47.7410 O   0  0  0  0  0  0  0  0  0  0  0  0
   57.4040   29.5910   45.5340 C   0  0  0  0  0  0  0  0  0  0  0  0
   56.2990   29.1060   44.8080 C   0  0  0  0  0  0  0  0  0  0  0  0
   55.5560   28.0220   45.2660 O   0  0  0  0  0  0  0  0  0  0  0  0
   55.9200   29.7360   43.6250 C   0  0  0  0  0  0  0  0  0  0  0  0
   56.6250   30.8440   43.1720 C   0  0  0  0  0  0  0  0  0  0  0  0
   57.7150   31.3140   43.9040 C   0  0  0  0  0  0  0  0  0  0  0  0
   58.3530   32.3140   43.4700 O   0  0  0  0  0  0  0  0  0  0  0  0
   58.0960   30.6920   45.0690 N   0  0  0  0  0  0  0  0  0  0  0  0
   59.2590   31.1800   45.7690 C   0  0  0  0  0  0  0  0  0  0  0  0
   59.3170   32.5130   46.1990 C   0  0  0  0  0  0  0  0  0  0  0  0
   60.4400   32.9840   46.8840 C   0  0  0  0  0  0  0  0  0  0  0  0
   61.5260   32.1300   47.1360 C   0  0  0  0  0  0  0  0  0  0  0  0
   62.7220   32.6240   47.9080 C   0  0  0  0  0  0  0  0  0  0  0  0
   62.6020   32.3170   49.3800 C   0  0  0  0  0  0  0  0  0  0  0  0
   61.4560   32.2310   49.9030 O   0  0  0  0  0  0  0  0  0  0  0  0
   63.7710   32.1440   50.2050 N   0  0  0  0  0  0  0  0  0  0  0  0
   65.0140   32.8860   49.9450 C   0  0  0  0  0  0  0  0  0  0  0  0
   66.2550   31.9910   50.1500 C   0  0  0  0  0  0  0  0  0  0  0  0
   65.9760   30.8130   51.0010 N   0  0  0  0  0  0  0  0  0  0  0  0
   67.1990   30.1210   51.4660 C   0  0  0  0  0  0  0  0  0  0  0  0
   67.2680   28.6600   51.0710 C   0  0  0  0  0  0  0  0  0  0  0  0
   68.2420   28.2110   50.1610 C   0  0  0  0  0  0  0  0  0  0  0  0
   68.3060   26.8610   49.8020 C   0  0  0  0  0  0  0  0  0  0  0  0
   67.4070   25.9460   50.3550 C   0  0  0  0  0  0  0  0  0  0  0  0
   66.4450   26.3780   51.2720 C   0  0  0  0  0  0  0  0  0  0  0  0
   66.3780   27.7270   51.6330 C   0  0  0  0  0  0  0  0  0  0  0  0
   65.0190   31.1120   52.0790 C   0  0  0  0  0  0  0  0  0  0  0  0
   63.6470   31.3800   51.4560 C   0  0  0  0  0  0  0  0  0  0  0  0
   61.4640   30.7930   46.7110 C   0  0  0  0  0  0  0  0  0  0  0  0
   60.3400   30.3230   46.0250 C   0  0  0  0  0  0  0  0  0  0  0  0
   57.7880   27.0820   47.9130 H   0  0  0  0  0  0  0  0  0  0  0  0
   57.2130   26.9310   46.2170 H   0  0  0  0  0  0  0  0  0  0  0  0
   55.0628   29.3564   43.0496 H   0  0  0  0  0  0  0  0  0  0  0  0
   56.3252   31.3477   42.2412 H   0  0  0  0  0  0  0  0  0  0  0  0
   58.4749   33.1910   45.9963 H   0  0  0  0  0  0  0  0  0  0  0  0
   60.4736   34.0285   47.2275 H   0  0  0  0  0  0  0  0  0  0  0  0
   63.6262   32.1364   47.5148 H   0  0  0  0  0  0  0  0  0  0  0  0
   62.7794   33.7161   47.7892 H   0  0  0  0  0  0  0  0  0  0  0  0
   65.0030   33.2511   48.9074 H   0  0  0  0  0  0  0  0  0  0  0  0
   65.0712   33.7262   50.6527 H   0  0  0  0  0  0  0  0  0  0  0  0
   66.6022   31.6404   49.1669 H   0  0  0  0  0  0  0  0  0  0  0  0
   67.0196   32.5954   50.6600 H   0  0  0  0  0  0  0  0  0  0  0  0
   68.0718   30.6365   51.0387 H   0  0  0  0  0  0  0  0  0  0  0  0
   67.1845   30.1532   52.5654 H   0  0  0  0  0  0  0  0  0  0  0  0
   68.9577   28.9261   49.7291 H   0  0  0  0  0  0  0  0  0  0  0  0
   69.0653   26.5192   49.0832 H   0  0  0  0  0  0  0  0  0  0  0  0
   67.4563   24.8851   50.0686 H   0  0  0  0  0  0  0  0  0  0  0  0
   65.7400   25.6561   51.7101 H   0  0  0  0  0  0  0  0  0  0  0  0
   65.6243   28.0609   52.3613 H   0  0  0  0  0  0  0  0  0  0  0  0
   64.9533   30.2540   52.7643 H   0  0  0  0  0  0  0  0  0  0  0  0
   65.3536   31.9950   52.6433 H   0  0  0  0  0  0  0  0  0  0  0  0
   63.1560   30.4191   51.2425 H   0  0  0  0  0  0  0  0  0  0  0  0
   63.0508   31.9705   52.1672 H   0  0  0  0  0  0  0  0  0  0  0  0
   62.3031   30.1127   46.9186 H   0  0  0  0  0  0  0  0  0  0  0  0
   60.3031   29.2776   45.6848 H   0  0  0  0  0  0  0  0  0  0  0  0
  1  2  1  0
  2  3  2  0
  2  4  1  0
  4  5  2  0
  5  6  1  0
  5  7  1  0
  7  8  2  0
  8  9  1  0
  9 10  2  0
  9 11  1  0
 11 12  1  0
 12 13  2  0
 13 14  1  0
 14 15  2  0
 15 16  1  0
 16 17  1  0
 17 18  2  0
 17 19  1  0
 19 20  1  0
 20 21  1  0
 21 22  1  0
 22 23  1  0
 23 24  1  0
 24 25  2  0
 25 26  1  0
 26 27  2  0
 27 28  1  0
 28 29  2  0
 22 30  1  0
 30 31  1  0
 15 32  1  0
 32 33  2  0
 11  4  1  0
 33 12  1  0
 31 19  1  0
 29 24  1  0
  1 34  1  0
  1 35  1  0
  7 36  1  0
  8 37  1  0
 13 38  1  0
 14 39  1  0
 16 40  1  0
 16 41  1  0
 20 42  1  0
 20 43  1  0
 21 44  1  0
 21 45  1  0
 23 46  1  0
 23 47  1  0
 25 48  1  0
 26 49  1  0
 27 50  1  0
 28 51  1  0
 29 52  1  0
 30 53  1  0
 30 54  1  0
 31 55  1  0
 31 56  1  0
 32 57  1  0
 33 58  1  0
M  CHG  1   6  -1
M  END
>  <UniqueID>  (55) 
53

>  <SMILES>  (55) 
NC(=O)c1c([O-])ccc(=O)n1-c1ccc(CC(=O)N2CCN(Cc3ccccc3)CC2)cc1

>  <Energy>  (55) 
86.67642605489124

>  <Genealogy>  (55) 
NC(=O)c1c([O-])ccc(=O)n1-c1ccc(CC(=O)N2CCN(Cc3ccccc3)CC2)cc1 (protonated)
NC(=O)c1c([O-])ccc(=O)n1-c1ccc(CC(=O)N2CCN(Cc3ccccc3)CC2)cc1 (3D coordinates assigned)
NC(=O)c1c([O-])ccc(=O)n1-c1ccc(CC(=O)N2CCN(Cc3ccccc3)CC2)cc1 (nonaromatic ring conformer: 86.67642605489124 kcal/mol)

>  <smiles>  (55) 
NC(=O)c1c(O)ccc(=O)n1-c1ccc(CC(=O)N2CCN(Cc3ccccc3)CC2)cc1

>  <score_type>  (55) 
oracle

>  <origin>  (55) 
adg

>  <m_score__min__energy>  (55) 
-11.09

>  <m_primary>  (55) 
energy

$$$$
55:0
     RDKit          3D

 53 55  0  0  0  0  0  0  0  0999 V2000
   57.6480   28.1940   43.8170 C   0  0  0  0  0  0  0  0  0  0  0  0
   56.6460   29.6570   43.9450 S   0  0  0  0  0  0  0  0  0  0  0  0
   55.4900   29.3990   44.8690 O   0  0  0  0  0  0  0  0  0  0  0  0
   56.1070   30.0160   42.5870 O   0  0  0  0  0  0  0  0  0  0  0  0
   57.6240   30.9790   44.5700 C   0  0  0  0  0  0  0  0  0  0  0  0
   58.6150   30.7360   45.5300 C   0  0  0  0  0  0  0  0  0  0  0  0
   59.3860   31.7900   46.0290 C   0  0  0  0  0  0  0  0  0  0  0  0
   59.1700   33.1010   45.5780 C   0  0  0  0  0  0  0  0  0  0  0  0
   60.0540   34.2260   46.0540 C   0  0  0  0  0  0  0  0  0  0  0  0
   59.4290   34.9800   47.2360 C   0  0  0  0  0  0  0  0  0  0  0  0
   59.5410   34.1970   48.5110 C   0  0  0  0  0  0  0  0  0  0  0  0
   60.3800   34.5520   49.3840 O   0  0  0  0  0  0  0  0  0  0  0  0
   58.7650   33.0020   48.6890 N   0  0  0  0  0  0  0  0  0  0  0  0
   58.9340   32.1310   49.8170 C   0  0  0  0  0  0  0  0  0  0  0  0
   58.1110   32.3160   50.9380 C   0  0  0  0  0  0  0  0  0  0  0  0
   58.2120   31.4670   52.0410 C   0  0  0  0  0  0  0  0  0  0  0  0
   59.1490   30.4330   52.0420 C   0  0  0  0  0  0  0  0  0  0  0  0
   59.9960   30.2540   50.9460 C   0  0  0  0  0  0  0  0  0  0  0  0
   59.9050   31.0990   49.8250 C   0  0  0  0  0  0  0  0  0  0  0  0
   60.8860   30.9430   48.7270 C   0  0  0  0  0  0  0  0  0  0  0  0
   60.7470   29.9910   47.9110 O   0  0  0  0  0  0  0  0  0  0  0  0
   61.9650   31.8790   48.5450 N   0  0  0  0  0  0  0  0  0  0  0  0
   62.4710   32.1190   47.1870 C   0  0  0  0  0  0  0  0  0  0  0  0
   63.5440   33.2050   47.1940 C   0  0  0  0  0  0  0  0  0  0  0  0
   63.1770   34.2160   48.1080 O   0  0  0  0  0  0  0  0  0  0  0  0
   63.3610   33.7540   49.4350 C   0  0  0  0  0  0  0  0  0  0  0  0
   62.7280   32.3680   49.7050 C   0  0  0  0  0  0  0  0  0  0  0  0
   58.1720   33.3420   44.6190 C   0  0  0  0  0  0  0  0  0  0  0  0
   57.3980   32.2880   44.1240 C   0  0  0  0  0  0  0  0  0  0  0  0
   57.8968   27.8307   44.8250 H   0  0  0  0  0  0  0  0  0  0  0  0
   57.0925   27.4156   43.2734 H   0  0  0  0  0  0  0  0  0  0  0  0
   58.5746   28.4306   43.2734 H   0  0  0  0  0  0  0  0  0  0  0  0
   58.7871   29.7118   45.8926 H   0  0  0  0  0  0  0  0  0  0  0  0
   60.1658   31.5906   46.7788 H   0  0  0  0  0  0  0  0  0  0  0  0
   61.0221   33.8094   46.3691 H   0  0  0  0  0  0  0  0  0  0  0  0
   60.1810   34.9362   45.2237 H   0  0  0  0  0  0  0  0  0  0  0  0
   59.9481   35.9417   47.3608 H   0  0  0  0  0  0  0  0  0  0  0  0
   58.3617   35.1353   47.0198 H   0  0  0  0  0  0  0  0  0  0  0  0
   58.2270   32.6380   47.8710 H   0  0  0  0  0  0  0  0  0  0  0  0
   57.3796   33.1376   50.9476 H   0  0  0  0  0  0  0  0  0  0  0  0
   57.5530   31.6129   52.9096 H   0  0  0  0  0  0  0  0  0  0  0  0
   59.2207   29.7578   52.9074 H   0  0  0  0  0  0  0  0  0  0  0  0
   60.7411   29.4449   50.9595 H   0  0  0  0  0  0  0  0  0  0  0  0
   62.9030   31.1873   46.7929 H   0  0  0  0  0  0  0  0  0  0  0  0
   61.6361   32.4514   46.5526 H   0  0  0  0  0  0  0  0  0  0  0  0
   64.5073   32.7682   47.4962 H   0  0  0  0  0  0  0  0  0  0  0  0
   63.6397   33.6356   46.1863 H   0  0  0  0  0  0  0  0  0  0  0  0
   64.4410   33.6869   49.6327 H   0  0  0  0  0  0  0  0  0  0  0  0
   62.8566   34.4722   50.0981 H   0  0  0  0  0  0  0  0  0  0  0  0
   63.5290   31.6493   49.9327 H   0  0  0  0  0  0  0  0  0  0  0  0
   62.0339   32.4689   50.5524 H   0  0  0  0  0  0  0  0  0  0  0  0
   57.9985   34.3656   44.2555 H   0  0  0  0  0  0  0  0  0  0  0  0
   56.6099   32.4868   43.3828 H   0  0  0  0  0  0  0  0  0  0  0  0
  1  2  1  0
  2  3  2  0
  2  4  2  0
  2  5  1  0
  5  6  2  0
  6  7  1  0
  7  8  2  0
  8  9  1  0
  9 10  1  0
 10 11  1  0
 11 12  2  0
 11 13  1  0
 13 14  1  0
 14 15  2  0
 15 16  1  0
 16 17  2  0
 17 18  1  0
 18 19  2  0
 19 20  1  0
 20 21  2  0
 20 22  1  0
 22 23  1  0
 23 24  1  0
 24 25  1  0
 25 26  1  0
 26 27  1  0
  8 28  1  0
 28 29  2  0
 29  5  1  0
 19 14  1  0
 27 22  1  0
  1 30  1  0
  1 31  1  0
  1 32  1  0
  6 33  1  0
  7 34  1  0
  9 35  1  0
  9 36  1  0
 10 37  1  0
 10 38  1  0
 13 39  1  0
 15 40  1  0
 16 41  1  0
 17 42  1  0
 18 43  1  0
 23 44  1  0
 23 45  1  0
 24 46  1  0
 24 47  1  0
 26 48  1  0
 26 49  1  0
 27 50  1  0
 27 51  1  0
 28 52  1  0
 29 53  1  0
M  END
>  <UniqueID>  (56) 
54

>  <SMILES>  (56) 
CS(=O)(=O)c1ccc(CCC(=O)Nc2ccccc2C(=O)N2CCOCC2)cc1

>  <Energy>  (56) 
62.64081549001979

>  <Genealogy>  (56) 
CS(=O)(=O)c1ccc(CCC(=O)Nc2ccccc2C(=O)N2CCOCC2)cc1 (3D coordinates assigned)
CS(=O)(=O)c1ccc(CCC(=O)Nc2ccccc2C(=O)N2CCOCC2)cc1 (nonaromatic ring conformer: 62.64081549001979 kcal/mol)

>  <smiles>  (56) 
CS(=O)(=O)c1ccc(CCC(=O)Nc2ccccc2C(=O)N2CCOCC2)cc1

>  <score_type>  (56) 
oracle

>  <origin>  (56) 
adg

>  <m_score__min__energy>  (56) 
-9.0700000000000003

>  <m_primary>  (56) 
energy

$$$$
56:0
     RDKit          3D

 56 59  0  0  0  0  0  0  0  0999 V2000
   59.4920   28.7400   43.3680 H   0  0  0  0  0  0  0  0  0  0  0  0
   59.2970   28.2580   44.2370 O   0  0  0  0  0  0  0  0  0  0  0  0
   57.9910   28.1370   44.7040 C   0  0  0  0  0  0  0  0  0  0  0  0
   57.5200   27.0510   45.3380 N   0  0  0  0  0  0  0  0  0  0  0  0
   56.2530   27.4120   45.6380 C   0  0  0  0  0  0  0  0  0  0  0  0
   55.4610   26.6520   46.2550 O   0  0  0  0  0  0  0  0  0  0  0  0
   55.9060   28.6540   45.2370 N   0  0  0  0  0  0  0  0  0  0  0  0
   57.0110   29.1000   44.6150 C   0  0  0  0  0  0  0  0  0  0  0  0
   57.1590   30.4720   44.1060 C   0  0  0  0  0  0  0  0  0  0  0  0
   56.6644   30.7100   43.1528 H   0  0  0  0  0  0  0  0  0  0  0  0
   57.8480   31.4630   44.7060 C   0  0  0  0  0  0  0  0  0  0  0  0
   57.8940   32.7530   44.2030 C   0  0  0  0  0  0  0  0  0  0  0  0
   57.4429   33.1071   43.2643 H   0  0  0  0  0  0  0  0  0  0  0  0
   58.6140   33.5080   45.1050 C   0  0  0  0  0  0  0  0  0  0  0  0
   58.8930   34.9740   44.9540 C   0  0  0  0  0  0  0  0  0  0  0  0
   58.9807   35.4349   45.9489 H   0  0  0  0  0  0  0  0  0  0  0  0
   59.8338   35.1132   44.4012 H   0  0  0  0  0  0  0  0  0  0  0  0
   58.0691   35.4490   44.4012 H   0  0  0  0  0  0  0  0  0  0  0  0
   59.0550   32.7350   46.1210 N   0  0  0  0  0  0  0  0  0  0  0  0
   59.8640   33.1780   47.2260 C   0  0  0  0  0  0  0  0  0  0  0  0
   59.2710   33.8340   48.3120 C   0  0  0  0  0  0  0  0  0  0  0  0
   58.1844   34.0049   48.3225 H   0  0  0  0  0  0  0  0  0  0  0  0
   60.0550   34.2720   49.3820 C   0  0  0  0  0  0  0  0  0  0  0  0
   59.5851   34.7894   50.2314 H   0  0  0  0  0  0  0  0  0  0  0  0
   61.4350   34.0540   49.3750 C   0  0  0  0  0  0  0  0  0  0  0  0
   62.0485   34.4086   50.2164 H   0  0  0  0  0  0  0  0  0  0  0  0
   62.0450   33.3840   48.2990 C   0  0  0  0  0  0  0  0  0  0  0  0
   63.5090   33.1580   48.2810 C   0  0  0  0  0  0  0  0  0  0  0  0
   64.1650   33.4660   47.2480 O   0  0  0  0  0  0  0  0  0  0  0  0
   64.2020   32.6210   49.4220 N   0  0  0  0  0  0  0  0  0  0  0  0
   65.5650   33.0770   49.7110 C   0  0  0  0  0  0  0  0  0  0  0  0
   66.2404   32.7196   48.9197 H   0  0  0  0  0  0  0  0  0  0  0  0
   65.5687   34.1763   49.7493 H   0  0  0  0  0  0  0  0  0  0  0  0
   66.0450   32.5350   51.0660 C   0  0  0  0  0  0  0  0  0  0  0  0
   66.4394   31.5181   50.9229 H   0  0  0  0  0  0  0  0  0  0  0  0
   66.8235   33.2119   51.4478 H   0  0  0  0  0  0  0  0  0  0  0  0
   64.9490   32.4880   52.0610 N   0  0  0  0  0  0  0  0  0  0  0  0
   64.4290   33.8240   52.4380 C   0  0  0  0  0  0  0  0  0  0  0  0
   64.8600   34.1128   53.4080 H   0  0  0  0  0  0  0  0  0  0  0  0
   64.7145   34.5361   51.6498 H   0  0  0  0  0  0  0  0  0  0  0  0
   62.9040   33.8300   52.5530 C   0  0  0  0  0  0  0  0  0  0  0  0
   62.6164   33.8311   53.6147 H   0  0  0  0  0  0  0  0  0  0  0  0
   62.5029   34.7297   52.0635 H   0  0  0  0  0  0  0  0  0  0  0  0
   62.4958   32.9335   52.0635 H   0  0  0  0  0  0  0  0  0  0  0  0
   63.8610   31.5650   51.6420 C   0  0  0  0  0  0  0  0  0  0  0  0
   64.0759   30.5687   52.0557 H   0  0  0  0  0  0  0  0  0  0  0  0
   62.9213   31.9919   52.0226 H   0  0  0  0  0  0  0  0  0  0  0  0
   63.6980   31.4290   50.1130 C   0  0  0  0  0  0  0  0  0  0  0  0
   64.2604   30.5487   49.7683 H   0  0  0  0  0  0  0  0  0  0  0  0
   62.6281   31.3172   49.8834 H   0  0  0  0  0  0  0  0  0  0  0  0
   61.2500   32.9600   47.2210 C   0  0  0  0  0  0  0  0  0  0  0  0
   61.7186   32.4523   46.3650 H   0  0  0  0  0  0  0  0  0  0  0  0
   58.6190   31.4720   45.8800 C   0  0  0  0  0  0  0  0  0  0  0  0
   59.0240   30.4060   46.5900 C   0  0  0  0  0  0  0  0  0  0  0  0
   59.6282   30.5474   47.4983 H   0  0  0  0  0  0  0  0  0  0  0  0
   58.7515   29.3917   46.2631 H   0  0  0  0  0  0  0  0  0  0  0  0
  1  2  1  0
  2  3  1  0
  3  4  1  0
  4  5  1  0
  5  6  2  0
  5  7  1  0
  7  8  1  0
  8  9  1  0
  9 10  1  0
  9 11  2  0
 11 12  1  0
 12 13  1  0
 12 14  2  0
 14 15  1  0
 15 16  1  0
 15 17  1  0
 15 18  1  0
 14 19  1  0
 19 20  1  0
 20 21  2  0
 21 22  1  0
 21 23  1  0
 23 24  1  0
 23 25  2  0
 25 26  1  0
 25 27  1  0
 27 28  1  0
 28 29  2  0
 28 30  1  0
 30 31  1  0
 31 32  1  0
 31 33  1  0
 31 34  1  0
 34 35  1  0
 34 36  1  0
 34 37  1  0
 37 38  1  0
 38 39  1  0
 38 40  1  0
 38 41  1  0
 41 42  1  0
 41 43  1  0
 41 44  1  0
 37 45  1  0
 45 46  1  0
 45 47  1  0
 45 48  1  0
 48 49  1  0
 48 50  1  0
 27 51  2  0
 51 52  1  0
 19 53  1  0
 53 54  2  0
 54 55  1  0
 54 56  1  0
  8  3  2  0
 53 11  1  0
 51 20  1  0
 48 30  1  0
M  CHG  2   4  -1   7  -1
M  END
>  <UniqueID>  (57) 
55

>  <SMILES>  (57) 
C=c1/c(=C\c2[n-]c(=O)[n-]c2O)cc(C)n1-c1cccc(C(=O)N2CCN(CC)CC2)c1

>  <Energy>  (57) 
144.9361898678688

>  <Genealogy>  (57) 
C=c1c(=Cc2[n-]c(=O)[n-]c2O)cc(C)n1-c1cccc(C(=O)N2CCN(CC)CC2)c1 (protonated)
C=c1/c(=C\c2[n-]c(=O)[n-]c2O)cc(C)n1-c1cccc(C(=O)N2CCN(CC)CC2)c1 (cis-trans isomerization)
C=c1/c(=C\c2[n-]c(=O)[n-]c2O)cc(C)n1-c1cccc(C(=O)N2CCN(CC)CC2)c1 (3D coordinates assigned)
C=c1/c(=C\c2[n-]c(=O)[n-]c2O)cc(C)n1-c1cccc(C(=O)N2CCN(CC)CC2)c1 (nonaromatic ring conformer: 144.9361898678688 kcal/mol)

>  <smiles>  (57) 
C=c1c(=Cc2[nH]c(=O)[nH]c2O)cc(C)n1-c1cccc(C(=O)N2CCN(CC)CC2)c1

>  <score_type>  (57) 
oracle

>  <origin>  (57) 
adg

>  <m_score__min__energy>  (57) 
-14.619999999999999

>  <m_primary>  (57) 
energy

$$$$
57:0
     RDKit          3D

 44 46  0  0  0  0  0  0  0  0999 V2000
   58.5145   26.7178   44.9605 H   0  0  0  0  0  0  0  0  0  0  0  0
   58.0330   27.4990   45.5670 C   0  0  0  0  0  0  0  0  0  0  0  0
   56.6850   27.5420   45.5880 C   0  0  0  0  0  0  0  0  0  0  0  0
   55.9070   26.4370   46.1870 C   0  0  0  0  0  0  0  0  0  0  0  0
   56.4600   25.5780   46.9260 O   0  0  0  0  0  0  0  0  0  0  0  0
   54.5450   26.3380   45.9360 O   0  0  0  0  0  0  0  0  0  0  0  0
   55.9610   28.6540   45.0340 N   0  0  0  0  0  0  0  0  0  0  0  0
   54.9430   28.7200   45.2580 H   0  0  0  0  0  0  0  0  0  0  0  0
   56.5820   29.7630   44.3530 C   0  0  0  0  0  0  0  0  0  0  0  0
   56.4040   29.9040   42.9670 C   0  0  0  0  0  0  0  0  0  0  0  0
   55.8093   29.1615   42.4147 H   0  0  0  0  0  0  0  0  0  0  0  0
   56.9770   30.9810   42.2840 C   0  0  0  0  0  0  0  0  0  0  0  0
   56.8268   31.0860   41.1994 H   0  0  0  0  0  0  0  0  0  0  0  0
   57.7400   31.9240   42.9770 C   0  0  0  0  0  0  0  0  0  0  0  0
   58.2003   32.7643   42.4365 H   0  0  0  0  0  0  0  0  0  0  0  0
   57.9180   31.7990   44.3570 C   0  0  0  0  0  0  0  0  0  0  0  0
   58.5183   32.5420   44.9025 H   0  0  0  0  0  0  0  0  0  0  0  0
   57.3350   30.7320   45.0460 C   0  0  0  0  0  0  0  0  0  0  0  0
   57.4645   30.6480   46.1351 H   0  0  0  0  0  0  0  0  0  0  0  0
   58.9040   28.4360   46.3080 C   0  0  0  0  0  0  0  0  0  0  0  0
   60.0030   29.0580   45.6920 C   0  0  0  0  0  0  0  0  0  0  0  0
   60.2134   28.8706   44.6287 H   0  0  0  0  0  0  0  0  0  0  0  0
   60.8300   29.9140   46.4250 C   0  0  0  0  0  0  0  0  0  0  0  0
   61.6878   30.3982   45.9354 H   0  0  0  0  0  0  0  0  0  0  0  0
   60.5710   30.1590   47.7840 C   0  0  0  0  0  0  0  0  0  0  0  0
   61.4330   31.1090   48.5660 C   0  0  0  0  0  0  0  0  0  0  0  0
   62.0858   30.5346   49.2397 H   0  0  0  0  0  0  0  0  0  0  0  0
   62.0390   31.7000   47.8635 H   0  0  0  0  0  0  0  0  0  0  0  0
   60.3990   32.2450   49.5550 S   0  0  0  0  0  0  0  0  0  0  0  0
   59.7700   33.1570   48.1420 C   0  0  0  0  0  0  0  0  0  0  0  0
   58.4010   33.1380   47.8460 C   0  0  0  0  0  0  0  0  0  0  0  0
   57.7075   32.5739   48.4870 H   0  0  0  0  0  0  0  0  0  0  0  0
   57.9160   33.8360   46.7360 C   0  0  0  0  0  0  0  0  0  0  0  0
   56.8424   33.8119   46.4978 H   0  0  0  0  0  0  0  0  0  0  0  0
   58.7950   34.5650   45.9280 C   0  0  0  0  0  0  0  0  0  0  0  0
   58.4123   35.1139   45.0549 H   0  0  0  0  0  0  0  0  0  0  0  0
   60.1600   34.5960   46.2300 C   0  0  0  0  0  0  0  0  0  0  0  0
   60.8505   35.1730   45.5973 H   0  0  0  0  0  0  0  0  0  0  0  0
   60.6470   33.8930   47.3370 C   0  0  0  0  0  0  0  0  0  0  0  0
   61.7206   33.9187   47.5751 H   0  0  0  0  0  0  0  0  0  0  0  0
   59.4780   29.5310   48.3980 C   0  0  0  0  0  0  0  0  0  0  0  0
   59.2626   29.7231   49.4595 H   0  0  0  0  0  0  0  0  0  0  0  0
   58.6610   28.6630   47.6700 C   0  0  0  0  0  0  0  0  0  0  0  0
   57.8222   28.1547   48.1681 H   0  0  0  0  0  0  0  0  0  0  0  0
  1  2  1  0
  2  3  2  0
  3  4  1  0
  4  5  2  0
  4  6  1  0
  3  7  1  0
  7  8  1  0
  7  9  1  0
  9 10  2  0
 10 11  1  0
 10 12  1  0
 12 13  1  0
 12 14  2  0
 14 15  1  0
 14 16  1  0
 16 17  1  0
 16 18  2  0
 18 19  1  0
  2 20  1  0
 20 21  2  0
 21 22  1  0
 21 23  1  0
 23 24  1  0
 23 25  2  0
 25 26  1  0
 26 27  1  0
 26 28  1  0
 26 29  1  0
 29 30  1  0
 30 31  2  0
 31 32  1  0
 31 33  1  0
 33 34  1  0
 33 35  2  0
 35 36  1  0
 35 37  1  0
 37 38  1  0
 37 39  2  0
 39 40  1  0
 25 41  1  0
 41 42  1  0
 41 43  2  0
 43 44  1  0
 18  9  1  0
 43 20  1  0
 39 30  1  0
M  CHG  1   6  -1
M  END
>  <UniqueID>  (58) 
56

>  <SMILES>  (58) 
O=C([O-])/C(=C/c1ccc(CSc2ccccc2)cc1)Nc1ccccc1

>  <Energy>  (58) 
49.54311316770502

>  <Genealogy>  (58) 
O=C([O-])C(=Cc1ccc(CSc2ccccc2)cc1)Nc1ccccc1 (protonated)
O=C([O-])/C(=C/c1ccc(CSc2ccccc2)cc1)Nc1ccccc1 (cis-trans isomerization)
O=C([O-])/C(=C/c1ccc(CSc2ccccc2)cc1)Nc1ccccc1 (3D coordinates assigned)
O=C([O-])/C(=C/c1ccc(CSc2ccccc2)cc1)Nc1ccccc1 (optimized conformer: 49.54311316770502 kcal/mol)

>  <smiles>  (58) 
O=C(O)C(=Cc1ccc(CSc2ccccc2)cc1)Nc1ccccc1

>  <score_type>  (58) 
oracle

>  <origin>  (58) 
adg

>  <m_score__min__energy>  (58) 
-12.16

>  <m_primary>  (58) 
energy

$$$$
58:0
     RDKit          3D

 40 43  0  0  0  0  0  0  0  0999 V2000
   59.0500   32.7970   48.6340 C   0  0  0  0  0  0  0  0  0  0  0  0
   59.1130   33.5160   47.3140 C   0  0  0  0  0  0  0  0  0  0  0  0
   59.7580   34.7610   47.2450 C   0  0  0  0  0  0  0  0  0  0  0  0
   59.8590   35.4400   46.0320 C   0  0  0  0  0  0  0  0  0  0  0  0
   59.3110   34.8920   44.8730 C   0  0  0  0  0  0  0  0  0  0  0  0
   58.6350   33.6620   44.9180 C   0  0  0  0  0  0  0  0  0  0  0  0
   58.0450   33.0910   43.6580 C   0  0  0  0  0  0  0  0  0  0  0  0
   58.5210   32.9740   46.1470 C   0  0  0  0  0  0  0  0  0  0  0  0
   57.8330   31.7140   46.1950 N   0  0  0  0  0  0  0  0  0  0  0  0
   58.4010   30.5170   45.6410 C   0  0  0  0  0  0  0  0  0  0  0  0
   59.5870   30.5250   45.2120 O   0  0  0  0  0  0  0  0  0  0  0  0
   57.6260   29.2670   45.5780 C   0  0  0  0  0  0  0  0  0  0  0  0
   58.0830   27.9940   45.8520 C   0  0  0  0  0  0  0  0  0  0  0  0
   56.9720   27.1900   45.6620 C   0  0  0  0  0  0  0  0  0  0  0  0
   56.8960   25.7180   45.8240 C   0  0  0  0  0  0  0  0  0  0  0  0
   56.5960   24.8990   44.7000 C   0  0  0  0  0  0  0  0  0  0  0  0
   56.5170   23.5000   44.8260 C   0  0  0  0  0  0  0  0  0  0  0  0
   56.7430   22.9500   46.0830 C   0  0  0  0  0  0  0  0  0  0  0  0
   56.7190   21.6530   46.4260 N   0  0  0  0  0  0  0  0  0  0  0  0
   57.0060   21.7060   47.7520 C   0  0  0  0  0  0  0  0  0  0  0  0
   57.0810   20.6740   48.4670 O   0  0  0  0  0  0  0  0  0  0  0  0
   57.2050   22.9530   48.2510 N   0  0  0  0  0  0  0  0  0  0  0  0
   57.0320   23.7210   47.1660 C   0  0  0  0  0  0  0  0  0  0  0  0
   57.1190   25.1080   47.0840 C   0  0  0  0  0  0  0  0  0  0  0  0
   55.9240   27.9580   45.3020 N   0  0  0  0  0  0  0  0  0  0  0  0
   56.3200   29.2200   45.2520 N   0  0  0  0  0  0  0  0  0  0  0  0
   59.1141   33.5282   49.4533 H   0  0  0  0  0  0  0  0  0  0  0  0
   58.1002   32.2469   48.7069 H   0  0  0  0  0  0  0  0  0  0  0  0
   59.8896   32.0901   48.7069 H   0  0  0  0  0  0  0  0  0  0  0  0
   60.1872   35.2043   48.1557 H   0  0  0  0  0  0  0  0  0  0  0  0
   60.3729   36.4116   45.9889 H   0  0  0  0  0  0  0  0  0  0  0  0
   59.4089   35.4268   43.9168 H   0  0  0  0  0  0  0  0  0  0  0  0
   57.2768   32.3475   43.9170 H   0  0  0  0  0  0  0  0  0  0  0  0
   57.5887   33.8993   43.0677 H   0  0  0  0  0  0  0  0  0  0  0  0
   58.8379   32.6085   43.0677 H   0  0  0  0  0  0  0  0  0  0  0  0
   56.9780   31.6470   46.7900 H   0  0  0  0  0  0  0  0  0  0  0  0
   59.0962   27.6886   46.1521 H   0  0  0  0  0  0  0  0  0  0  0  0
   56.4235   25.3660   43.7191 H   0  0  0  0  0  0  0  0  0  0  0  0
   56.2844   22.8631   43.9598 H   0  0  0  0  0  0  0  0  0  0  0  0
   57.3541   25.7134   47.9718 H   0  0  0  0  0  0  0  0  0  0  0  0
  1  2  1  0
  2  3  2  0
  3  4  1  0
  4  5  2  0
  5  6  1  0
  6  7  1  0
  6  8  2  0
  8  9  1  0
  9 10  1  0
 10 11  2  0
 10 12  1  0
 12 13  1  0
 13 14  2  0
 14 15  1  0
 15 16  2  0
 16 17  1  0
 17 18  2  0
 18 19  1  0
 19 20  1  0
 20 21  2  0
 20 22  1  0
 22 23  1  0
 23 24  2  0
 14 25  1  0
 25 26  1  0
  8  2  1  0
 26 12  2  0
 24 15  1  0
 23 18  1  0
  1 27  1  0
  1 28  1  0
  1 29  1  0
  3 30  1  0
  4 31  1  0
  5 32  1  0
  7 33  1  0
  7 34  1  0
  7 35  1  0
  9 36  1  0
 13 37  1  0
 16 38  1  0
 17 39  1  0
 24 40  1  0
M  CHG  3  19  -1  22  -1  25  -1
M  END
>  <UniqueID>  (59) 
57

>  <SMILES>  (59) 
Cc1cccc(C)c1NC(=O)c1cc(-c2ccc3[n-]c(=O)[n-]c3c2)[n-]n1

>  <Energy>  (59) 
115.95888333336576

>  <Genealogy>  (59) 
Cc1cccc(C)c1NC(=O)c1cc(-c2ccc3[n-]c(=O)[n-]c3c2)[n-]n1 (protonated)
Cc1cccc(C)c1NC(=O)c1cc(-c2ccc3[n-]c(=O)[n-]c3c2)[n-]n1 (3D coordinates assigned)
Cc1cccc(C)c1NC(=O)c1cc(-c2ccc3[n-]c(=O)[n-]c3c2)[n-]n1 (optimized conformer: 115.95888333336576 kcal/mol)

>  <smiles>  (59) 
Cc1cccc(C)c1NC(=O)c1cc(-c2ccc3[nH]c(=O)[nH]c3c2)[nH]n1

>  <score_type>  (59) 
oracle

>  <origin>  (59) 
adg

>  <m_score__min__energy>  (59) 
-12.619999999999999

>  <m_primary>  (59) 
energy

$$$$
59:0
     RDKit          3D

 54 57  0  0  0  0  0  0  0  0999 V2000
   59.4280   23.2870   45.9540 O   0  0  0  0  0  0  0  0  0  0  0  0
   58.9240   24.4400   46.0060 C   0  0  0  0  0  0  0  0  0  0  0  0
   59.7510   25.5730   46.3020 N   0  0  0  0  0  0  0  0  0  0  0  0
   59.3140   26.9360   46.4000 C   0  0  0  0  0  0  0  0  0  0  0  0
   59.0860   27.4790   47.6690 C   0  0  0  0  0  0  0  0  0  0  0  0
   58.7240   28.8210   47.8060 C   0  0  0  0  0  0  0  0  0  0  0  0
   58.6150   29.6360   46.6780 C   0  0  0  0  0  0  0  0  0  0  0  0
   58.8660   29.1190   45.4010 C   0  0  0  0  0  0  0  0  0  0  0  0
   58.7940   30.0110   44.2790 N   0  0  0  0  0  0  0  0  0  0  0  0
   57.3980   30.8760   43.7110 S   0  0  0  0  0  0  0  0  0  0  0  0
   56.3240   30.7650   44.7560 O   0  0  0  0  0  0  0  0  0  0  0  0
   56.8790   30.2630   42.4400 O   0  0  0  0  0  0  0  0  0  0  0  0
   57.7660   32.6110   43.4790 C   0  0  0  0  0  0  0  0  0  0  0  0
   58.2370   33.2530   44.7540 C   0  0  0  0  0  0  0  0  0  0  0  0
   57.6300   32.9270   45.9780 C   0  0  0  0  0  0  0  0  0  0  0  0
   58.0390   33.5570   47.1570 C   0  0  0  0  0  0  0  0  0  0  0  0
   59.0520   34.5190   47.1230 C   0  0  0  0  0  0  0  0  0  0  0  0
   59.6610   34.8500   45.9090 C   0  0  0  0  0  0  0  0  0  0  0  0
   59.2580   34.2180   44.7270 C   0  0  0  0  0  0  0  0  0  0  0  0
   59.2040   27.7620   45.2660 C   0  0  0  0  0  0  0  0  0  0  0  0
   57.4910   24.6450   45.7300 C   0  0  0  0  0  0  0  0  0  0  0  0
   56.7330   25.6990   46.2160 C   0  0  0  0  0  0  0  0  0  0  0  0
   55.4530   25.4980   45.7450 C   0  0  0  0  0  0  0  0  0  0  0  0
   54.3760   26.3410   45.9930 O   0  0  0  0  0  0  0  0  0  0  0  0
   55.3770   24.3740   45.0090 N   0  0  0  0  0  0  0  0  0  0  0  0
   54.2010   23.8700   44.3010 C   0  0  0  0  0  0  0  0  0  0  0  0
   53.1680   23.3970   45.2870 C   0  0  0  0  0  0  0  0  0  0  0  0
   53.5590   22.7010   46.4420 C   0  0  0  0  0  0  0  0  0  0  0  0
   52.6000   22.2990   47.3800 C   0  0  0  0  0  0  0  0  0  0  0  0
   51.2510   22.5980   47.1750 C   0  0  0  0  0  0  0  0  0  0  0  0
   50.8570   23.3010   46.0320 C   0  0  0  0  0  0  0  0  0  0  0  0
   51.8120   23.7040   45.0930 C   0  0  0  0  0  0  0  0  0  0  0  0
   56.6190   23.8480   44.9890 C   0  0  0  0  0  0  0  0  0  0  0  0
   56.9300   22.6660   44.3160 O   0  0  0  0  0  0  0  0  0  0  0  0
   59.1923   26.8464   48.5626 H   0  0  0  0  0  0  0  0  0  0  0  0
   58.5244   29.2365   48.8048 H   0  0  0  0  0  0  0  0  0  0  0  0
   58.3298   30.6921   46.7930 H   0  0  0  0  0  0  0  0  0  0  0  0
   58.5536   32.7100   42.7175 H   0  0  0  0  0  0  0  0  0  0  0  0
   56.8438   33.1181   43.1592 H   0  0  0  0  0  0  0  0  0  0  0  0
   56.8297   32.1730   46.0090 H   0  0  0  0  0  0  0  0  0  0  0  0
   57.5626   33.2950   48.1132 H   0  0  0  0  0  0  0  0  0  0  0  0
   59.3702   35.0158   48.0514 H   0  0  0  0  0  0  0  0  0  0  0  0
   60.4578   35.6079   45.8827 H   0  0  0  0  0  0  0  0  0  0  0  0
   59.7421   34.4775   43.7739 H   0  0  0  0  0  0  0  0  0  0  0  0
   59.3841   27.3417   44.2655 H   0  0  0  0  0  0  0  0  0  0  0  0
   57.0821   26.5279   46.8492 H   0  0  0  0  0  0  0  0  0  0  0  0
   53.7743   24.6752   43.6850 H   0  0  0  0  0  0  0  0  0  0  0  0
   54.4999   23.0273   43.6603 H   0  0  0  0  0  0  0  0  0  0  0  0
   54.6214   22.4709   46.6105 H   0  0  0  0  0  0  0  0  0  0  0  0
   52.9095   21.7469   48.2797 H   0  0  0  0  0  0  0  0  0  0  0  0
   50.4989   22.2806   47.9123 H   0  0  0  0  0  0  0  0  0  0  0  0
   49.7948   23.5373   45.8713 H   0  0  0  0  0  0  0  0  0  0  0  0
   51.4994   24.2636   44.1991 H   0  0  0  0  0  0  0  0  0  0  0  0
   57.8210   22.2000   44.4070 H   0  0  0  0  0  0  0  0  0  0  0  0
  1  2  2  0
  2  3  1  0
  3  4  1  0
  4  5  2  0
  5  6  1  0
  6  7  2  0
  7  8  1  0
  8  9  1  0
  9 10  1  0
 10 11  2  0
 10 12  2  0
 10 13  1  0
 13 14  1  0
 14 15  2  0
 15 16  1  0
 16 17  2  0
 17 18  1  0
 18 19  2  0
  8 20  2  0
  2 21  1  0
 21 22  1  0
 22 23  2  0
 23 24  1  0
 23 25  1  0
 25 26  1  0
 26 27  1  0
 27 28  2  0
 28 29  1  0
 29 30  2  0
 30 31  1  0
 31 32  2  0
 25 33  1  0
 33 34  1  0
 20  4  1  0
 33 21  2  0
 19 14  1  0
 32 27  1  0
  5 35  1  0
  6 36  1  0
  7 37  1  0
 13 38  1  0
 13 39  1  0
 15 40  1  0
 16 41  1  0
 17 42  1  0
 18 43  1  0
 19 44  1  0
 20 45  1  0
 22 46  1  0
 26 47  1  0
 26 48  1  0
 28 49  1  0
 29 50  1  0
 30 51  1  0
 31 52  1  0
 32 53  1  0
 34 54  1  0
M  CHG  3   3  -1   9  -1  24  -1
M  END
>  <UniqueID>  (60) 
58

>  <SMILES>  (60) 
O=C([N-]c1cccc([N-]S(=O)(=O)Cc2ccccc2)c1)c1cc([O-])n(Cc2ccccc2)c1O

>  <Energy>  (60) 
83.5499660054402

>  <Genealogy>  (60) 
O=C([N-]c1cccc([N-]S(=O)(=O)Cc2ccccc2)c1)c1cc([O-])n(Cc2ccccc2)c1O (protonated)
O=C([N-]c1cccc([N-]S(=O)(=O)Cc2ccccc2)c1)c1cc([O-])n(Cc2ccccc2)c1O (3D coordinates assigned)
O=C([N-]c1cccc([N-]S(=O)(=O)Cc2ccccc2)c1)c1cc([O-])n(Cc2ccccc2)c1O (optimized conformer: 83.5499660054402 kcal/mol)

>  <smiles>  (60) 
O=C(Nc1cccc(NS(=O)(=O)Cc2ccccc2)c1)c1cc(O)n(Cc2ccccc2)c1O

>  <score_type>  (60) 
oracle

>  <origin>  (60) 
adg

>  <m_score__min__energy>  (60) 
-14.710000000000001

>  <m_primary>  (60) 
energy

$$$$
60:0
     RDKit          3D

 48 50  0  0  0  0  0  0  0  0999 V2000
   61.4160   29.3890   48.7630 O   0  0  0  0  0  0  0  0  0  0  0  0
   60.2560   29.4000   49.2570 C   0  0  0  0  0  0  0  0  0  0  0  0
   59.1780   28.5440   48.6480 C   0  0  0  0  0  0  0  0  0  0  0  0
   59.6870   27.2010   48.3750 N   0  0  0  0  0  0  0  0  0  0  0  0
   59.4810   26.8260   46.6900 S   0  0  0  0  0  0  0  0  0  0  0  0
   60.8300   26.6540   46.0520 O   0  0  0  0  0  0  0  0  0  0  0  0
   58.7220   25.5370   46.5500 O   0  0  0  0  0  0  0  0  0  0  0  0
   58.6160   28.1270   45.8720 C   0  0  0  0  0  0  0  0  0  0  0  0
   59.3160   29.2170   45.3310 C   0  0  0  0  0  0  0  0  0  0  0  0
   58.6280   30.2190   44.6400 C   0  0  0  0  0  0  0  0  0  0  0  0
   57.2390   30.1410   44.4890 C   0  0  0  0  0  0  0  0  0  0  0  0
   56.5380   29.0550   45.0220 C   0  0  0  0  0  0  0  0  0  0  0  0
   55.1590   28.9720   44.8650 O   0  0  0  0  0  0  0  0  0  0  0  0
   57.2260   28.0470   45.7100 C   0  0  0  0  0  0  0  0  0  0  0  0
   59.9860   30.2770   50.3610 N   0  0  0  0  0  0  0  0  0  0  0  0
   58.7890   31.0990   50.5140 C   0  0  0  0  0  0  0  0  0  0  0  0
   58.7650   32.1980   49.4980 C   0  0  0  0  0  0  0  0  0  0  0  0
   58.9090   33.3940   49.8710 O   0  0  0  0  0  0  0  0  0  0  0  0
   58.5090   31.8850   48.1240 N   0  0  0  0  0  0  0  0  0  0  0  0
   58.4960   32.8080   47.0230 C   0  0  0  0  0  0  0  0  0  0  0  0
   57.3000   33.1090   46.3400 C   0  0  0  0  0  0  0  0  0  0  0  0
   57.3010   34.0110   45.2740 C   0  0  0  0  0  0  0  0  0  0  0  0
   58.4900   34.6270   44.8790 C   0  0  0  0  0  0  0  0  0  0  0  0
   59.6790   34.3560   45.5610 C   0  0  0  0  0  0  0  0  0  0  0  0
   59.6930   33.4620   46.6460 C   0  0  0  0  0  0  0  0  0  0  0  0
   60.9680   33.2190   47.3660 C   0  0  0  0  0  0  0  0  0  0  0  0
   61.4170   34.1320   48.3360 C   0  0  0  0  0  0  0  0  0  0  0  0
   62.6210   33.9070   49.0140 C   0  0  0  0  0  0  0  0  0  0  0  0
   63.3790   32.7660   48.7370 C   0  0  0  0  0  0  0  0  0  0  0  0
   62.9350   31.8490   47.7820 C   0  0  0  0  0  0  0  0  0  0  0  0
   61.7320   32.0680   47.1020 C   0  0  0  0  0  0  0  0  0  0  0  0
   58.3314   28.4756   49.3470 H   0  0  0  0  0  0  0  0  0  0  0  0
   58.8514   29.0009   47.7022 H   0  0  0  0  0  0  0  0  0  0  0  0
   60.4075   29.2829   45.4509 H   0  0  0  0  0  0  0  0  0  0  0  0
   59.1796   31.0702   44.2143 H   0  0  0  0  0  0  0  0  0  0  0  0
   56.6987   30.9339   43.9511 H   0  0  0  0  0  0  0  0  0  0  0  0
   56.6739   27.1905   46.1242 H   0  0  0  0  0  0  0  0  0  0  0  0
   57.8984   30.4670   50.3826 H   0  0  0  0  0  0  0  0  0  0  0  0
   58.7956   31.5476   51.5183 H   0  0  0  0  0  0  0  0  0  0  0  0
   56.3593   32.6299   46.6490 H   0  0  0  0  0  0  0  0  0  0  0  0
   56.3635   34.2366   44.7446 H   0  0  0  0  0  0  0  0  0  0  0  0
   58.4907   35.3264   44.0300 H   0  0  0  0  0  0  0  0  0  0  0  0
   60.6121   34.8463   45.2463 H   0  0  0  0  0  0  0  0  0  0  0  0
   60.8196   35.0273   48.5633 H   0  0  0  0  0  0  0  0  0  0  0  0
   62.9710   34.6295   49.7660 H   0  0  0  0  0  0  0  0  0  0  0  0
   64.3246   32.5904   49.2708 H   0  0  0  0  0  0  0  0  0  0  0  0
   63.5328   30.9518   47.5637 H   0  0  0  0  0  0  0  0  0  0  0  0
   61.3823   31.3371   46.3580 H   0  0  0  0  0  0  0  0  0  0  0  0
  1  2  2  0
  2  3  1  0
  3  4  1  0
  4  5  1  0
  5  6  2  0
  5  7  2  0
  5  8  1  0
  8  9  2  0
  9 10  1  0
 10 11  2  0
 11 12  1  0
 12 13  1  0
 12 14  2  0
  2 15  1  0
 15 16  1  0
 16 17  1  0
 17 18  2  0
 17 19  1  0
 19 20  1  0
 20 21  2  0
 21 22  1  0
 22 23  2  0
 23 24  1  0
 24 25  2  0
 25 26  1  0
 26 27  2  0
 27 28  1  0
 28 29  2  0
 29 30  1  0
 30 31  2  0
 14  8  1  0
 25 20  1  0
 31 26  1  0
  3 32  1  0
  3 33  1  0
  9 34  1  0
 10 35  1  0
 11 36  1  0
 14 37  1  0
 16 38  1  0
 16 39  1  0
 21 40  1  0
 22 41  1  0
 23 42  1  0
 24 43  1  0
 27 44  1  0
 28 45  1  0
 29 46  1  0
 30 47  1  0
 31 48  1  0
M  CHG  4   4  -1  13  -1  15  -1  19  -1
M  END
>  <UniqueID>  (61) 
59

>  <SMILES>  (61) 
O=C(C[N-]S(=O)(=O)c1cccc([O-])c1)[N-]CC(=O)[N-]c1ccccc1-c1ccccc1

>  <Energy>  (61) 
55.532717959686636

>  <Genealogy>  (61) 
O=C(C[N-]S(=O)(=O)c1cccc([O-])c1)[N-]CC(=O)[N-]c1ccccc1-c1ccccc1 (protonated)
O=C(C[N-]S(=O)(=O)c1cccc([O-])c1)[N-]CC(=O)[N-]c1ccccc1-c1ccccc1 (3D coordinates assigned)
O=C(C[N-]S(=O)(=O)c1cccc([O-])c1)[N-]CC(=O)[N-]c1ccccc1-c1ccccc1 (optimized conformer: 55.532717959686636 kcal/mol)

>  <smiles>  (61) 
O=C(CNS(=O)(=O)c1cccc(O)c1)NCC(=O)Nc1ccccc1-c1ccccc1

>  <score_type>  (61) 
oracle

>  <origin>  (61) 
adg

>  <m_score__min__energy>  (61) 
-16.079999999999998

>  <m_primary>  (61) 
energy

$$$$
61:0
     RDKit          3D

 47 50  0  0  0  0  0  0  0  0999 V2000
   54.7260   30.5530   51.3570 C   0  0  0  0  0  0  0  0  0  0  0  0
   54.6530   30.5910   52.6970 C   0  0  0  0  0  0  0  0  0  0  0  0
   53.4900   30.5830   53.4850 C   0  0  0  0  0  0  0  0  0  0  0  0
   52.1950   30.7370   53.1520 C   0  0  0  0  0  0  0  0  0  0  0  0
   51.6760   30.8870   51.7820 C   0  0  0  0  0  0  0  0  0  0  0  0
   51.9210   30.0450   50.7630 N   0  0  0  0  0  0  0  0  0  0  0  0
   51.3840   30.6500   49.6860 C   0  0  0  0  0  0  0  0  0  0  0  0
   51.4130   30.1480   48.5320 O   0  0  0  0  0  0  0  0  0  0  0  0
   50.8240   31.8500   49.9500 N   0  0  0  0  0  0  0  0  0  0  0  0
   51.0320   31.9910   51.2730 C   0  0  0  0  0  0  0  0  0  0  0  0
   50.6460   33.1100   52.0010 O   0  0  0  0  0  0  0  0  0  0  0  0
   53.9110   30.3850   54.7910 C   0  0  0  0  0  0  0  0  0  0  0  0
   55.2880   30.3560   54.7690 C   0  0  0  0  0  0  0  0  0  0  0  0
   56.1560   30.1760   55.9790 C   0  0  0  0  0  0  0  0  0  0  0  0
   55.7400   30.4760   53.5010 N   0  0  0  0  0  0  0  0  0  0  0  0
   57.1190   30.4480   53.0940 C   0  0  0  0  0  0  0  0  0  0  0  0
   57.6060   29.3690   52.3510 C   0  0  0  0  0  0  0  0  0  0  0  0
   58.9410   29.3340   51.9450 C   0  0  0  0  0  0  0  0  0  0  0  0
   59.8350   30.3790   52.2790 C   0  0  0  0  0  0  0  0  0  0  0  0
   61.2340   30.3450   51.8550 N   0  0  0  0  0  0  0  0  0  0  0  0
   61.7310   31.3730   50.9150 C   0  0  0  0  0  0  0  0  0  0  0  0
   63.1910   31.1690   50.4990 C   0  0  0  0  0  0  0  0  0  0  0  0
   63.9660   30.7160   51.5830 O   0  0  0  0  0  0  0  0  0  0  0  0
   63.5700   29.4020   51.8920 C   0  0  0  0  0  0  0  0  0  0  0  0
   62.1580   29.3790   52.4870 C   0  0  0  0  0  0  0  0  0  0  0  0
   59.3220   31.4630   53.0300 C   0  0  0  0  0  0  0  0  0  0  0  0
   57.9840   31.4950   53.4340 C   0  0  0  0  0  0  0  0  0  0  0  0
   57.5350   32.5370   54.1770 F   0  0  0  0  0  0  0  0  0  0  0  0
   55.7068   30.5647   50.8591 H   0  0  0  0  0  0  0  0  0  0  0  0
   53.8050   30.5101   50.7570 H   0  0  0  0  0  0  0  0  0  0  0  0
   51.4625   30.7521   53.9725 H   0  0  0  0  0  0  0  0  0  0  0  0
   52.4450   29.1410   50.7890 H   0  0  0  0  0  0  0  0  0  0  0  0
   53.2678   30.2725   55.6763 H   0  0  0  0  0  0  0  0  0  0  0  0
   55.5490   30.3019   56.8877 H   0  0  0  0  0  0  0  0  0  0  0  0
   56.5954   29.1676   55.9683 H   0  0  0  0  0  0  0  0  0  0  0  0
   56.9601   30.9265   55.9683 H   0  0  0  0  0  0  0  0  0  0  0  0
   56.9323   28.5414   52.0843 H   0  0  0  0  0  0  0  0  0  0  0  0
   59.3044   28.4795   51.3553 H   0  0  0  0  0  0  0  0  0  0  0  0
   61.1051   31.3490   50.0107 H   0  0  0  0  0  0  0  0  0  0  0  0
   61.6762   32.3401   51.4362 H   0  0  0  0  0  0  0  0  0  0  0  0
   63.2339   30.4246   49.6903 H   0  0  0  0  0  0  0  0  0  0  0  0
   63.5960   32.1330   50.1575 H   0  0  0  0  0  0  0  0  0  0  0  0
   63.5831   28.7970   50.9734 H   0  0  0  0  0  0  0  0  0  0  0  0
   64.2697   28.9908   52.6345 H   0  0  0  0  0  0  0  0  0  0  0  0
   61.7438   28.3678   52.3608 H   0  0  0  0  0  0  0  0  0  0  0  0
   62.2490   29.6645   53.5454 H   0  0  0  0  0  0  0  0  0  0  0  0
   59.9880   32.2955   53.3008 H   0  0  0  0  0  0  0  0  0  0  0  0
  1  2  2  0
  2  3  1  0
  3  4  2  3
  4  5  1  0
  5  6  1  0
  6  7  1  0
  7  8  2  0
  7  9  1  0
  9 10  1  0
 10 11  1  0
  3 12  1  0
 12 13  2  0
 13 14  1  0
 13 15  1  0
 15 16  1  0
 16 17  2  0
 17 18  1  0
 18 19  2  0
 19 20  1  0
 20 21  1  0
 21 22  1  0
 22 23  1  0
 23 24  1  0
 24 25  1  0
 19 26  1  0
 26 27  2  0
 27 28  1  0
 15  2  1  0
 27 16  1  0
 10  5  2  0
 25 20  1  0
  1 29  1  0
  1 30  1  0
  4 31  1  0
  6 32  1  0
 12 33  1  0
 14 34  1  0
 14 35  1  0
 14 36  1  0
 17 37  1  0
 18 38  1  0
 21 39  1  0
 21 40  1  0
 22 41  1  0
 22 42  1  0
 24 43  1  0
 24 44  1  0
 25 45  1  0
 25 46  1  0
 26 47  1  0
M  CHG  2   9  -1  11  -1
M  END
>  <UniqueID>  (62) 
60

>  <SMILES>  (62) 
C=c1c(=Cc2[nH]c(=O)[n-]c2[O-])cc(C)n1-c1ccc(N2CCOCC2)cc1F

>  <Energy>  (62) 
134.56446367007646

>  <Genealogy>  (62) 
C=c1c(=Cc2[nH]c(=O)[n-]c2[O-])cc(C)n1-c1ccc(N2CCOCC2)cc1F (protonated)
C=c1c(=Cc2[nH]c(=O)[n-]c2[O-])cc(C)n1-c1ccc(N2CCOCC2)cc1F (3D coordinates assigned)
C=c1c(=Cc2[nH]c(=O)[n-]c2[O-])cc(C)n1-c1ccc(N2CCOCC2)cc1F (nonaromatic ring conformer: 134.56446367007646 kcal/mol)

>  <smiles>  (62) 
C=c1c(=Cc2[nH]c(=O)[nH]c2O)cc(C)n1-c1ccc(N2CCOCC2)cc1F

>  <score_type>  (62) 
oracle

>  <origin>  (62) 
adg

>  <m_score__min__energy>  (62) 
-13.140000000000001

>  <m_primary>  (62) 
energy

$$$$
62:0
     RDKit          3D

 60 63  0  0  0  0  0  0  0  0999 V2000
   49.9450   33.7430   51.9970 H   0  0  0  0  0  0  0  0  0  0  0  0
   50.1100   32.7140   52.0360 N   0  0  0  0  0  0  0  0  0  0  0  0
   51.2150   32.1200   51.3590 C   0  0  0  0  0  0  0  0  0  0  0  0
   51.4820   32.4870   50.1830 O   0  0  0  0  0  0  0  0  0  0  0  0
   52.0390   31.0820   52.0240 C   0  0  0  0  0  0  0  0  0  0  0  0
   51.4260   29.9880   52.6600 C   0  0  0  0  0  0  0  0  0  0  0  0
   50.3293   29.9034   52.6648 H   0  0  0  0  0  0  0  0  0  0  0  0
   52.1990   29.0090   53.2850 C   0  0  0  0  0  0  0  0  0  0  0  0
   51.7094   28.1541   53.7742 H   0  0  0  0  0  0  0  0  0  0  0  0
   53.5910   29.1100   53.2920 C   0  0  0  0  0  0  0  0  0  0  0  0
   54.1926   28.3317   53.7843 H   0  0  0  0  0  0  0  0  0  0  0  0
   54.2300   30.2000   52.6740 C   0  0  0  0  0  0  0  0  0  0  0  0
   55.7110   30.3240   52.6650 C   0  0  0  0  0  0  0  0  0  0  0  0
   56.3850   30.1760   51.4970 N   0  0  0  0  0  0  0  0  0  0  0  0
   57.7350   30.2880   51.4080 C   0  0  0  0  0  0  0  0  0  0  0  0
   58.2790   30.1340   50.2300 N   0  0  0  0  0  0  0  0  0  0  0  0
   59.0710   31.0670   49.4800 C   0  0  0  0  0  0  0  0  0  0  0  0
   60.2900   30.6520   48.9320 C   0  0  0  0  0  0  0  0  0  0  0  0
   60.6594   29.6343   49.1266 H   0  0  0  0  0  0  0  0  0  0  0  0
   61.0400   31.5240   48.1390 C   0  0  0  0  0  0  0  0  0  0  0  0
   62.0035   31.1942   47.7232 H   0  0  0  0  0  0  0  0  0  0  0  0
   60.5690   32.8210   47.8700 C   0  0  0  0  0  0  0  0  0  0  0  0
   61.3590   33.7450   46.9810 C   0  0  0  0  0  0  0  0  0  0  0  0
   61.0116   34.7767   47.1386 H   0  0  0  0  0  0  0  0  0  0  0  0
   61.2046   33.4358   45.9367 H   0  0  0  0  0  0  0  0  0  0  0  0
   62.8330   33.6730   47.2830 C   0  0  0  0  0  0  0  0  0  0  0  0
   63.6590   33.6110   46.3320 O   0  0  0  0  0  0  0  0  0  0  0  0
   63.3180   33.6910   48.6400 N   0  0  0  0  0  0  0  0  0  0  0  0
   64.5890   33.0320   48.9560 C   0  0  0  0  0  0  0  0  0  0  0  0
   65.4163   33.6276   48.5427 H   0  0  0  0  0  0  0  0  0  0  0  0
   64.5829   32.0250   48.5135 H   0  0  0  0  0  0  0  0  0  0  0  0
   64.7740   32.9000   50.4770 C   0  0  0  0  0  0  0  0  0  0  0  0
   65.1526   33.8535   50.8739 H   0  0  0  0  0  0  0  0  0  0  0  0
   65.4862   32.0831   50.6655 H   0  0  0  0  0  0  0  0  0  0  0  0
   63.5040   32.5690   51.1570 N   0  0  0  0  0  0  0  0  0  0  0  0
   63.0360   31.2130   50.8180 C   0  0  0  0  0  0  0  0  0  0  0  0
   62.8418   30.6502   51.7430 H   0  0  0  0  0  0  0  0  0  0  0  0
   62.1095   31.2814   50.2290 H   0  0  0  0  0  0  0  0  0  0  0  0
   63.8075   30.6954   50.2290 H   0  0  0  0  0  0  0  0  0  0  0  0
   62.4410   33.5870   50.9480 C   0  0  0  0  0  0  0  0  0  0  0  0
   62.4162   34.2468   51.8278 H   0  0  0  0  0  0  0  0  0  0  0  0
   61.4988   33.0381   50.8034 H   0  0  0  0  0  0  0  0  0  0  0  0
   62.6460   34.4590   49.6940 C   0  0  0  0  0  0  0  0  0  0  0  0
   63.2630   35.3311   49.9561 H   0  0  0  0  0  0  0  0  0  0  0  0
   61.6636   34.7878   49.3241 H   0  0  0  0  0  0  0  0  0  0  0  0
   59.3240   33.2200   48.3830 C   0  0  0  0  0  0  0  0  0  0  0  0
   58.9361   34.2248   48.1596 H   0  0  0  0  0  0  0  0  0  0  0  0
   58.5760   32.3460   49.1760 C   0  0  0  0  0  0  0  0  0  0  0  0
   57.5959   32.6606   49.5637 H   0  0  0  0  0  0  0  0  0  0  0  0
   58.4700   30.5290   52.5960 C   0  0  0  0  0  0  0  0  0  0  0  0
   59.7310   30.5330   52.5900 O   0  0  0  0  0  0  0  0  0  0  0  0
   57.7990   30.7200   53.7780 N   0  0  0  0  0  0  0  0  0  0  0  0
   58.5460   30.9810   55.0150 C   0  0  0  0  0  0  0  0  0  0  0  0
   57.9078   30.7580   55.8827 H   0  0  0  0  0  0  0  0  0  0  0  0
   59.4411   30.3424   55.0445 H   0  0  0  0  0  0  0  0  0  0  0  0
   58.8487   32.0381   55.0445 H   0  0  0  0  0  0  0  0  0  0  0  0
   56.4380   30.6180   53.8260 C   0  0  0  0  0  0  0  0  0  0  0  0
   55.9106   30.7672   54.7797 H   0  0  0  0  0  0  0  0  0  0  0  0
   53.4430   31.1760   52.0330 C   0  0  0  0  0  0  0  0  0  0  0  0
   53.9328   32.0241   51.5321 H   0  0  0  0  0  0  0  0  0  0  0  0
  1  2  1  0
  2  3  1  0
  3  4  2  0
  3  5  1  0
  5  6  2  0
  6  7  1  0
  6  8  1  0
  8  9  1  0
  8 10  2  0
 10 11  1  0
 10 12  1  0
 12 13  1  0
 13 14  1  0
 14 15  1  0
 15 16  2  0
 16 17  1  0
 17 18  2  0
 18 19  1  0
 18 20  1  0
 20 21  1  0
 20 22  2  0
 22 23  1  0
 23 24  1  0
 23 25  1  0
 23 26  1  0
 26 27  2  0
 26 28  1  0
 28 29  1  0
 29 30  1  0
 29 31  1  0
 29 32  1  0
 32 33  1  0
 32 34  1  0
 32 35  1  0
 35 36  1  0
 36 37  1  0
 36 38  1  0
 36 39  1  0
 35 40  1  0
 40 41  1  0
 40 42  1  0
 40 43  1  0
 43 44  1  0
 43 45  1  0
 22 46  1  0
 46 47  1  0
 46 48  2  0
 48 49  1  0
 15 50  1  0
 50 51  2  0
 50 52  1  0
 52 53  1  0
 53 54  1  0
 53 55  1  0
 53 56  1  0
 52 57  1  0
 57 58  1  0
 12 59  2  0
 59 60  1  0
 59  5  1  0
 57 13  2  0
 48 17  1  0
 43 28  1  0
M  CHG  2   2  -1  14  -1
M  END
>  <UniqueID>  (63) 
61

>  <SMILES>  (63) 
CN1CCN(C(=O)Cc2ccc(/N=c3/[n-]c(-c4cccc(C([NH-])=O)c4)cn(C)c3=O)cc2)CC1

>  <Energy>  (63) 
92.13679336999758

>  <Genealogy>  (63) 
CN1CCN(C(=O)Cc2ccc(N=c3[n-]c(-c4cccc(C([NH-])=O)c4)cn(C)c3=O)cc2)CC1 (protonated)
CN1CCN(C(=O)Cc2ccc(/N=c3/[n-]c(-c4cccc(C([NH-])=O)c4)cn(C)c3=O)cc2)CC1 (cis-trans isomerization)
CN1CCN(C(=O)Cc2ccc(/N=c3/[n-]c(-c4cccc(C([NH-])=O)c4)cn(C)c3=O)cc2)CC1 (3D coordinates assigned)
CN1CCN(C(=O)Cc2ccc(/N=c3/[n-]c(-c4cccc(C([NH-])=O)c4)cn(C)c3=O)cc2)CC1 (nonaromatic ring conformer: 92.13679336999758 kcal/mol)

>  <smiles>  (63) 
CN1CCN(C(=O)Cc2ccc(N=c3[nH]c(-c4cccc(C(N)=O)c4)cn(C)c3=O)cc2)CC1

>  <score_type>  (63) 
oracle

>  <origin>  (63) 
adg

>  <m_score__min__energy>  (63) 
-14.09

>  <m_primary>  (63) 
energy

$$$$
63:0
     RDKit          3D

 44 46  0  0  0  0  0  0  0  0999 V2000
   55.6720   28.5990   53.1090 O   0  0  0  0  0  0  0  0  0  0  0  0
   55.1790   29.6490   52.6190 C   0  0  0  0  0  0  0  0  0  0  0  0
   56.0770   30.7180   52.0390 C   0  0  0  0  0  0  0  0  0  0  0  0
   57.5250   30.2610   51.8000 C   0  0  0  0  0  0  0  0  0  0  0  0
   58.1260   30.9260   50.6000 C   0  0  0  0  0  0  0  0  0  0  0  0
   58.4140   30.2730   49.4520 N   0  0  0  0  0  0  0  0  0  0  0  0
   58.9730   31.1000   48.5260 C   0  0  0  0  0  0  0  0  0  0  0  0
   59.3920   30.6040   47.1760 C   0  0  0  0  0  0  0  0  0  0  0  0
   58.5820   29.3990   46.7780 C   0  0  0  0  0  0  0  0  0  0  0  0
   59.0050   28.1120   47.1480 C   0  0  0  0  0  0  0  0  0  0  0  0
   58.2680   26.9880   46.7640 C   0  0  0  0  0  0  0  0  0  0  0  0
   58.6950   25.7210   47.1420 O   0  0  0  0  0  0  0  0  0  0  0  0
   57.1040   27.1360   45.9980 C   0  0  0  0  0  0  0  0  0  0  0  0
   56.3930   26.0010   45.6080 O   0  0  0  0  0  0  0  0  0  0  0  0
   56.6730   28.4220   45.6320 C   0  0  0  0  0  0  0  0  0  0  0  0
   55.5210   28.5910   44.8730 O   0  0  0  0  0  0  0  0  0  0  0  0
   57.4050   29.5460   46.0280 C   0  0  0  0  0  0  0  0  0  0  0  0
   59.1390   32.4230   48.9350 C   0  0  0  0  0  0  0  0  0  0  0  0
   58.5570   32.5500   50.5070 S   0  0  0  0  0  0  0  0  0  0  0  0
   53.7540   29.8090   52.6470 N   0  0  0  0  0  0  0  0  0  0  0  0
   53.0290   31.0170   52.2710 C   0  0  0  0  0  0  0  0  0  0  0  0
   52.3110   30.8310   50.9590 C   0  0  0  0  0  0  0  0  0  0  0  0
   52.6090   29.7260   50.1430 C   0  0  0  0  0  0  0  0  0  0  0  0
   51.9670   29.5620   48.9130 C   0  0  0  0  0  0  0  0  0  0  0  0
   51.0290   30.5020   48.4820 C   0  0  0  0  0  0  0  0  0  0  0  0
   50.7240   31.6040   49.2840 C   0  0  0  0  0  0  0  0  0  0  0  0
   51.3630   31.7760   50.5170 C   0  0  0  0  0  0  0  0  0  0  0  0
   51.0560   32.8880   51.2930 O   0  0  0  0  0  0  0  0  0  0  0  0
   55.6532   31.0399   51.0763 H   0  0  0  0  0  0  0  0  0  0  0  0
   56.1195   31.5313   52.7784 H   0  0  0  0  0  0  0  0  0  0  0  0
   58.1282   30.5109   52.6853 H   0  0  0  0  0  0  0  0  0  0  0  0
   57.5165   29.1756   51.6217 H   0  0  0  0  0  0  0  0  0  0  0  0
   59.2401   31.4023   46.4346 H   0  0  0  0  0  0  0  0  0  0  0  0
   60.4537   30.3191   47.2172 H   0  0  0  0  0  0  0  0  0  0  0  0
   59.9215   27.9877   47.7434 H   0  0  0  0  0  0  0  0  0  0  0  0
   55.8580   25.9710   44.7510 H   0  0  0  0  0  0  0  0  0  0  0  0
   57.0560   30.5514   45.7499 H   0  0  0  0  0  0  0  0  0  0  0  0
   59.5730   33.2374   48.3363 H   0  0  0  0  0  0  0  0  0  0  0  0
   52.2927   31.2526   53.0535 H   0  0  0  0  0  0  0  0  0  0  0  0
   53.7517   31.8390   52.1610 H   0  0  0  0  0  0  0  0  0  0  0  0
   53.3521   28.9859   50.4748 H   0  0  0  0  0  0  0  0  0  0  0  0
   52.2009   28.6910   48.2832 H   0  0  0  0  0  0  0  0  0  0  0  0
   50.5298   30.3746   47.5101 H   0  0  0  0  0  0  0  0  0  0  0  0
   49.9791   32.3391   48.9453 H   0  0  0  0  0  0  0  0  0  0  0  0
  1  2  2  0
  2  3  1  0
  3  4  1  0
  4  5  1  0
  5  6  2  0
  6  7  1  0
  7  8  1  0
  8  9  1  0
  9 10  2  0
 10 11  1  0
 11 12  1  0
 11 13  2  0
 13 14  1  0
 13 15  1  0
 15 16  1  0
 15 17  2  0
  7 18  2  0
 18 19  1  0
  2 20  1  0
 20 21  1  0
 21 22  1  0
 22 23  2  0
 23 24  1  0
 24 25  2  0
 25 26  1  0
 26 27  2  0
 27 28  1  0
 19  5  1  0
 27 22  1  0
 17  9  1  0
  3 29  1  0
  3 30  1  0
  4 31  1  0
  4 32  1  0
  8 33  1  0
  8 34  1  0
 10 35  1  0
 14 36  1  0
 17 37  1  0
 18 38  1  0
 21 39  1  0
 21 40  1  0
 23 41  1  0
 24 42  1  0
 25 43  1  0
 26 44  1  0
M  CHG  4  12  -1  16  -1  20  -1  28  -1
M  END
>  <UniqueID>  (64) 
62

>  <SMILES>  (64) 
O=C(CCc1nc(Cc2cc([O-])c(O)c([O-])c2)cs1)[N-]Cc1ccccc1[O-]

>  <Energy>  (64) 
68.00780864980507

>  <Genealogy>  (64) 
O=C(CCc1nc(Cc2cc([O-])c(O)c([O-])c2)cs1)[N-]Cc1ccccc1[O-] (protonated)
O=C(CCc1nc(Cc2cc([O-])c(O)c([O-])c2)cs1)[N-]Cc1ccccc1[O-] (3D coordinates assigned)
O=C(CCc1nc(Cc2cc([O-])c(O)c([O-])c2)cs1)[N-]Cc1ccccc1[O-] (optimized conformer: 68.00780864980507 kcal/mol)

>  <smiles>  (64) 
O=C(CCc1nc(Cc2cc(O)c(O)c(O)c2)cs1)NCc1ccccc1O

>  <score_type>  (64) 
oracle

>  <origin>  (64) 
adg

>  <m_score__min__energy>  (64) 
-19.539999999999999

>  <m_primary>  (64) 
energy

$$$$
64:0
     RDKit          3D

 82 87  0  0  0  0  0  0  0  0999 V2000
   68.0660   33.2370   50.3160 O   0  0  0  0  0  0  0  0  0  0  0  0
   66.9190   33.2000   50.8470 C   0  0  0  0  0  0  0  0  0  0  0  0
   66.8090   33.1540   52.2740 N   0  0  0  0  0  0  0  0  0  0  0  0
   65.5990   33.3190   53.0210 C   0  0  0  0  0  0  0  0  0  0  0  0
   65.2070   32.3020   53.9020 C   0  0  0  0  0  0  0  0  0  0  0  0
   64.0390   32.4370   54.6560 C   0  0  0  0  0  0  0  0  0  0  0  0
   63.2630   33.5960   54.5710 C   0  0  0  0  0  0  0  0  0  0  0  0
   62.0310   33.7510   55.4240 C   0  0  0  0  0  0  0  0  0  0  0  0
   60.8010   33.7410   54.5980 N   0  0  0  0  0  0  0  0  0  0  0  0
   60.3580   32.5810   54.0170 C   0  0  0  0  0  0  0  0  0  0  0  0
   61.1200   31.4190   54.0510 O   0  0  0  0  0  0  0  0  0  0  0  0
   59.1280   32.5650   53.3270 C   0  0  0  0  0  0  0  0  0  0  0  0
   58.5430   31.2660   52.8230 C   0  0  0  0  0  0  0  0  0  0  0  0
   59.3230   30.8040   51.6260 C   0  0  0  0  0  0  0  0  0  0  0  0
   60.1190   29.6540   51.6920 C   0  0  0  0  0  0  0  0  0  0  0  0
   60.6480   29.1000   50.5330 C   0  0  0  0  0  0  0  0  0  0  0  0
   60.3910   29.6850   49.2930 C   0  0  0  0  0  0  0  0  0  0  0  0
   59.6210   30.8600   49.2020 C   0  0  0  0  0  0  0  0  0  0  0  0
   59.1420   31.4490   47.9090 C   0  0  0  0  0  0  0  0  0  0  0  0
   58.1840   32.2610   47.9650 O   0  0  0  0  0  0  0  0  0  0  0  0
   59.6550   31.0990   46.5910 N   0  0  0  0  0  0  0  0  0  0  0  0
   60.9430   30.4600   46.3450 C   0  0  0  0  0  0  0  0  0  0  0  0
   60.7000   29.0750   45.7070 C   0  0  0  0  0  0  0  0  0  0  0  0
   59.3060   28.9700   45.2530 N   0  0  0  0  0  0  0  0  0  0  0  0
   58.3560   28.2010   46.0190 C   0  0  0  0  0  0  0  0  0  0  0  0
   58.4330   28.1760   47.2650 O   0  0  0  0  0  0  0  0  0  0  0  0
   57.2250   27.4770   45.3350 C   0  0  0  0  0  0  0  0  0  0  0  0
   56.8200   26.2150   46.0650 C   0  0  0  0  0  0  0  0  0  0  0  0
   57.6960   25.2920   46.5170 N   0  0  0  0  0  0  0  0  0  0  0  0
   56.9090   24.3040   47.0140 C   0  0  0  0  0  0  0  0  0  0  0  0
   57.3810   23.2550   47.5470 O   0  0  0  0  0  0  0  0  0  0  0  0
   55.5950   24.5010   46.8640 N   0  0  0  0  0  0  0  0  0  0  0  0
   55.5520   25.7050   46.2550 C   0  0  0  0  0  0  0  0  0  0  0  0
   54.3660   26.3390   45.9380 O   0  0  0  0  0  0  0  0  0  0  0  0
   58.8330   30.1040   44.4790 C   0  0  0  0  0  0  0  0  0  0  0  0
   58.8550   31.3600   45.3860 C   0  0  0  0  0  0  0  0  0  0  0  0
   59.1070   31.4090   50.3870 C   0  0  0  0  0  0  0  0  0  0  0  0
   58.4260   33.7710   53.2070 C   0  0  0  0  0  0  0  0  0  0  0  0
   57.3490   33.8330   52.5610 O   0  0  0  0  0  0  0  0  0  0  0  0
   58.8970   34.8860   53.7980 N   0  0  0  0  0  0  0  0  0  0  0  0
   60.0570   34.8870   54.4970 C   0  0  0  0  0  0  0  0  0  0  0  0
   60.4200   35.9550   55.0520 O   0  0  0  0  0  0  0  0  0  0  0  0
   63.6480   34.6170   53.6750 C   0  0  0  0  0  0  0  0  0  0  0  0
   64.8080   34.4790   52.9020 C   0  0  0  0  0  0  0  0  0  0  0  0
   65.7860   33.3380   50.0450 O   0  0  0  0  0  0  0  0  0  0  0  0
   64.7990   32.3100   49.9610 C   0  0  0  0  0  0  0  0  0  0  0  0
   63.6030   32.8320   49.2260 C   0  0  0  0  0  0  0  0  0  0  0  0
   63.6130   32.9810   47.8160 C   0  0  0  0  0  0  0  0  0  0  0  0
   62.4860   33.4830   47.1520 C   0  0  0  0  0  0  0  0  0  0  0  0
   61.3750   33.9000   47.8890 C   0  0  0  0  0  0  0  0  0  0  0  0
   61.3660   33.7980   49.2820 C   0  0  0  0  0  0  0  0  0  0  0  0
   62.4680   33.2330   49.9400 C   0  0  0  0  0  0  0  0  0  0  0  0
   62.4360   33.0740   51.2910 F   0  0  0  0  0  0  0  0  0  0  0  0
   65.8211   31.3946   54.0000 H   0  0  0  0  0  0  0  0  0  0  0  0
   63.7263   31.6214   55.3246 H   0  0  0  0  0  0  0  0  0  0  0  0
   61.9864   32.9203   56.1437 H   0  0  0  0  0  0  0  0  0  0  0  0
   62.0901   34.7164   55.9480 H   0  0  0  0  0  0  0  0  0  0  0  0
   61.9580   31.3040   53.5030 H   0  0  0  0  0  0  0  0  0  0  0  0
   58.6001   30.5050   53.6153 H   0  0  0  0  0  0  0  0  0  0  0  0
   57.4908   31.4195   52.5413 H   0  0  0  0  0  0  0  0  0  0  0  0
   60.3265   29.1870   52.6661 H   0  0  0  0  0  0  0  0  0  0  0  0
   61.2721   28.1962   50.5934 H   0  0  0  0  0  0  0  0  0  0  0  0
   60.7933   29.2244   48.3787 H   0  0  0  0  0  0  0  0  0  0  0  0
   61.5393   31.0821   45.6613 H   0  0  0  0  0  0  0  0  0  0  0  0
   61.4884   30.3433   47.2931 H   0  0  0  0  0  0  0  0  0  0  0  0
   61.3741   28.9463   44.8473 H   0  0  0  0  0  0  0  0  0  0  0  0
   60.8968   28.2927   46.4548 H   0  0  0  0  0  0  0  0  0  0  0  0
   56.3558   28.1492   45.2833 H   0  0  0  0  0  0  0  0  0  0  0  0
   57.5716   27.1867   44.3322 H   0  0  0  0  0  0  0  0  0  0  0  0
   59.4903   30.2612   43.6111 H   0  0  0  0  0  0  0  0  0  0  0  0
   57.8105   29.9157   44.1198 H   0  0  0  0  0  0  0  0  0  0  0  0
   59.2962   32.2014   44.8316 H   0  0  0  0  0  0  0  0  0  0  0  0
   57.8253   31.6069   45.6840 H   0  0  0  0  0  0  0  0  0  0  0  0
   58.5201   32.3380   50.3381 H   0  0  0  0  0  0  0  0  0  0  0  0
   63.0341   35.5252   53.5835 H   0  0  0  0  0  0  0  0  0  0  0  0
   65.1012   35.2757   52.2025 H   0  0  0  0  0  0  0  0  0  0  0  0
   65.2135   31.4456   49.4216 H   0  0  0  0  0  0  0  0  0  0  0  0
   64.5029   31.9994   50.9738 H   0  0  0  0  0  0  0  0  0  0  0  0
   64.5085   32.7016   47.2416 H   0  0  0  0  0  0  0  0  0  0  0  0
   62.4761   33.5485   46.0540 H   0  0  0  0  0  0  0  0  0  0  0  0
   60.4989   34.3126   47.3673 H   0  0  0  0  0  0  0  0  0  0  0  0
   60.5011   34.1581   49.8585 H   0  0  0  0  0  0  0  0  0  0  0  0
  1  2  2  0
  2  3  1  0
  3  4  1  0
  4  5  2  0
  5  6  1  0
  6  7  2  0
  7  8  1  0
  8  9  1  0
  9 10  1  0
 10 11  1  0
 10 12  2  0
 12 13  1  0
 13 14  1  0
 14 15  2  0
 15 16  1  0
 16 17  2  0
 17 18  1  0
 18 19  1  0
 19 20  2  0
 19 21  1  0
 21 22  1  0
 22 23  1  0
 23 24  1  0
 24 25  1  0
 25 26  2  0
 25 27  1  0
 27 28  1  0
 28 29  1  0
 29 30  1  0
 30 31  2  0
 30 32  1  0
 32 33  1  0
 33 34  1  0
 24 35  1  0
 35 36  1  0
 18 37  2  0
 12 38  1  0
 38 39  2  0
 38 40  1  0
 40 41  1  0
 41 42  2  0
  7 43  1  0
 43 44  2  0
  2 45  1  0
 45 46  1  0
 46 47  1  0
 47 48  2  0
 48 49  1  0
 49 50  2  0
 50 51  1  0
 51 52  2  0
 52 53  1  0
 44  4  1  0
 52 47  1  0
 41  9  1  0
 37 14  1  0
 36 21  1  0
 33 28  2  0
  5 54  1  0
  6 55  1  0
  8 56  1  0
  8 57  1  0
 11 58  1  0
 13 59  1  0
 13 60  1  0
 15 61  1  0
 16 62  1  0
 17 63  1  0
 22 64  1  0
 22 65  1  0
 23 66  1  0
 23 67  1  0
 27 68  1  0
 27 69  1  0
 35 70  1  0
 35 71  1  0
 36 72  1  0
 36 73  1  0
 37 74  1  0
 43 75  1  0
 44 76  1  0
 46 77  1  0
 46 78  1  0
 48 79  1  0
 49 80  1  0
 50 81  1  0
 51 82  1  0
M  CHG  5   3  -1  29  -1  32  -1  34  -1  40  -1
M  END
>  <UniqueID>  (65) 
63

>  <SMILES>  (65) 
O=C([N-]c1ccc(Cn2c(O)c(Cc3cccc(C(=O)N4CCN(C(=O)Cc5[n-]c(=O)[n-]c5[O-])CC4)c3)c(=O)[n-]c2=O)cc1)OCc1ccccc1F

>  <Energy>  (65) 
155.70579337160967

>  <Genealogy>  (65) 
O=C([N-]c1ccc(Cn2c(O)c(Cc3cccc(C(=O)N4CCN(C(=O)Cc5[n-]c(=O)[n-]c5[O-])CC4)c3)c(=O)[n-]c2=O)cc1)OCc1ccccc1F (protonated)
O=C([N-]c1ccc(Cn2c(O)c(Cc3cccc(C(=O)N4CCN(C(=O)Cc5[n-]c(=O)[n-]c5[O-])CC4)c3)c(=O)[n-]c2=O)cc1)OCc1ccccc1F (3D coordinates assigned)
O=C([N-]c1ccc(Cn2c(O)c(Cc3cccc(C(=O)N4CCN(C(=O)Cc5[n-]c(=O)[n-]c5[O-])CC4)c3)c(=O)[n-]c2=O)cc1)OCc1ccccc1F (nonaromatic ring conformer: 155.70579337160967 kcal/mol)

>  <smiles>  (65) 
O=C(Nc1ccc(Cn2c(O)c(Cc3cccc(C(=O)N4CCN(C(=O)Cc5[nH]c(=O)[nH]c5O)CC4)c3)c(=O)[nH]c2=O)cc1)OCc1ccccc1F

>  <score_type>  (65) 
oracle

>  <origin>  (65) 
adg

>  <m_score__min__energy>  (65) 
-21.309999999999999

>  <m_primary>  (65) 
energy

$$$$
65:0
     RDKit          3D

 45 48  0  0  0  0  0  0  0  0999 V2000
   57.4410   34.4890   44.8890 C   0  0  0  0  0  0  0  0  0  0  0  0
   57.0830   33.5040   45.9980 C   0  0  0  0  0  0  0  0  0  0  0  0
   58.1470   32.4940   46.1620 N   0  0  0  0  0  0  0  0  0  0  0  0
   57.9420   31.2750   45.5750 C   0  0  0  0  0  0  0  0  0  0  0  0
   58.8840   30.2460   45.6750 C   0  0  0  0  0  0  0  0  0  0  0  0
   58.6470   28.9540   44.9990 C   0  0  0  0  0  0  0  0  0  0  0  0
   57.7160   28.0620   45.3690 C   0  0  0  0  0  0  0  0  0  0  0  0
   58.1780   26.5130   46.1520 S   0  0  0  0  0  0  0  0  0  0  0  0
   56.4300   26.1110   46.2330 C   0  0  0  0  0  0  0  0  0  0  0  0
   56.0180   25.0180   46.7010 O   0  0  0  0  0  0  0  0  0  0  0  0
   55.5290   27.0930   45.7420 N   0  0  0  0  0  0  0  0  0  0  0  0
   56.2580   28.2100   45.2660 C   0  0  0  0  0  0  0  0  0  0  0  0
   55.6740   29.2420   44.8440 O   0  0  0  0  0  0  0  0  0  0  0  0
   60.0830   30.4830   46.3520 C   0  0  0  0  0  0  0  0  0  0  0  0
   60.9600   29.5760   46.4080 O   0  0  0  0  0  0  0  0  0  0  0  0
   60.2970   31.7200   46.9820 C   0  0  0  0  0  0  0  0  0  0  0  0
   61.4780   31.9620   47.7080 C   0  0  0  0  0  0  0  0  0  0  0  0
   61.6710   33.1760   48.3790 C   0  0  0  0  0  0  0  0  0  0  0  0
   62.8650   33.4080   49.1430 N   0  0  0  0  0  0  0  0  0  0  0  0
   64.1580   32.9790   48.6040 C   0  0  0  0  0  0  0  0  0  0  0  0
   65.1280   32.7080   49.7540 C   0  0  0  0  0  0  0  0  0  0  0  0
   65.1980   33.8240   50.6210 O   0  0  0  0  0  0  0  0  0  0  0  0
   63.9470   34.0160   51.2580 C   0  0  0  0  0  0  0  0  0  0  0  0
   62.8620   34.3820   50.2380 C   0  0  0  0  0  0  0  0  0  0  0  0
   60.6820   34.1590   48.3140 C   0  0  0  0  0  0  0  0  0  0  0  0
   59.5140   33.9470   47.5820 C   0  0  0  0  0  0  0  0  0  0  0  0
   59.2950   32.7280   46.8970 C   0  0  0  0  0  0  0  0  0  0  0  0
   57.7845   35.4341   45.3348 H   0  0  0  0  0  0  0  0  0  0  0  0
   58.2424   34.0647   44.2663 H   0  0  0  0  0  0  0  0  0  0  0  0
   56.5542   34.6783   44.2663 H   0  0  0  0  0  0  0  0  0  0  0  0
   56.9580   34.0536   46.9427 H   0  0  0  0  0  0  0  0  0  0  0  0
   56.1477   32.9919   45.7279 H   0  0  0  0  0  0  0  0  0  0  0  0
   57.0140   31.1002   45.0109 H   0  0  0  0  0  0  0  0  0  0  0  0
   59.2776   28.7063   44.1324 H   0  0  0  0  0  0  0  0  0  0  0  0
   62.2589   31.1884   47.7489 H   0  0  0  0  0  0  0  0  0  0  0  0
   64.0224   32.0599   48.0150 H   0  0  0  0  0  0  0  0  0  0  0  0
   64.5668   33.7717   47.9602 H   0  0  0  0  0  0  0  0  0  0  0  0
   64.7808   31.8314   50.3206 H   0  0  0  0  0  0  0  0  0  0  0  0
   66.1284   32.5202   49.3369 H   0  0  0  0  0  0  0  0  0  0  0  0
   63.6588   33.0873   51.7723 H   0  0  0  0  0  0  0  0  0  0  0  0
   64.0435   34.8413   51.9788 H   0  0  0  0  0  0  0  0  0  0  0  0
   61.8789   34.3746   50.7313 H   0  0  0  0  0  0  0  0  0  0  0  0
   63.0650   35.3849   49.8342 H   0  0  0  0  0  0  0  0  0  0  0  0
   60.8255   35.1111   48.8459 H   0  0  0  0  0  0  0  0  0  0  0  0
   58.7518   34.7388   47.5364 H   0  0  0  0  0  0  0  0  0  0  0  0
  1  2  1  0
  2  3  1  0
  3  4  1  0
  4  5  2  0
  5  6  1  0
  6  7  2  3
  7  8  1  0
  8  9  1  0
  9 10  2  0
  9 11  1  0
 11 12  1  0
 12 13  2  0
  5 14  1  0
 14 15  2  0
 14 16  1  0
 16 17  2  0
 17 18  1  0
 18 19  1  0
 19 20  1  0
 20 21  1  0
 21 22  1  0
 22 23  1  0
 23 24  1  0
 18 25  2  0
 25 26  1  0
 26 27  2  0
 27  3  1  0
 12  7  1  0
 27 16  1  0
 24 19  1  0
  1 28  1  0
  1 29  1  0
  1 30  1  0
  2 31  1  0
  2 32  1  0
  4 33  1  0
  6 34  1  0
 17 35  1  0
 20 36  1  0
 20 37  1  0
 21 38  1  0
 21 39  1  0
 23 40  1  0
 23 41  1  0
 24 42  1  0
 24 43  1  0
 25 44  1  0
 26 45  1  0
M  CHG  1  11  -1
M  END
>  <UniqueID>  (66) 
64

>  <SMILES>  (66) 
CCn1cc(C=C2SC(=O)[N-]C2=O)c(=O)c2cc(N3CCOCC3)ccc21

>  <Energy>  (66) 
87.87042954209718

>  <Genealogy>  (66) 
CCn1cc(C=C2SC(=O)[N-]C2=O)c(=O)c2cc(N3CCOCC3)ccc21 (protonated)
CCn1cc(C=C2SC(=O)[N-]C2=O)c(=O)c2cc(N3CCOCC3)ccc21 (3D coordinates assigned)
CCn1cc(C=C2SC(=O)[N-]C2=O)c(=O)c2cc(N3CCOCC3)ccc21 (nonaromatic ring conformer: 87.87042954209718 kcal/mol)

>  <smiles>  (66) 
CCn1cc(C=C2SC(=O)NC2=O)c(=O)c2cc(N3CCOCC3)ccc21

>  <score_type>  (66) 
oracle

>  <origin>  (66) 
adg

>  <m_score__min__energy>  (66) 
-11.029999999999999

>  <m_primary>  (66) 
energy

$$$$
66:0
     RDKit          3D

 45 48  0  0  0  0  0  0  0  0999 V2000
   56.6978   29.2661   42.7254 H   0  0  0  0  0  0  0  0  0  0  0  0
   56.7250   30.3060   43.0830 C   0  0  0  0  0  0  0  0  0  0  0  0
   56.1300   31.0784   42.5737 H   0  0  0  0  0  0  0  0  0  0  0  0
   57.4880   30.6340   44.1460 C   0  0  0  0  0  0  0  0  0  0  0  0
   58.3150   29.6880   44.8430 C   0  0  0  0  0  0  0  0  0  0  0  0
   58.3240   28.3600   44.5470 C   0  0  0  0  0  0  0  0  0  0  0  0
   58.9185   28.0349   43.6805 H   0  0  0  0  0  0  0  0  0  0  0  0
   57.5910   27.3190   45.3070 C   0  0  0  0  0  0  0  0  0  0  0  0
   56.2300   27.4670   45.6250 C   0  0  0  0  0  0  0  0  0  0  0  0
   55.5230   28.5920   45.2140 O   0  0  0  0  0  0  0  0  0  0  0  0
   55.5950   26.5110   46.3510 N   0  0  0  0  0  0  0  0  0  0  0  0
   56.2580   25.4120   46.7940 C   0  0  0  0  0  0  0  0  0  0  0  0
   55.6490   24.5380   47.4620 O   0  0  0  0  0  0  0  0  0  0  0  0
   57.5790   25.2600   46.5230 N   0  0  0  0  0  0  0  0  0  0  0  0
   58.2590   26.1870   45.8000 C   0  0  0  0  0  0  0  0  0  0  0  0
   59.4860   26.0150   45.5700 O   0  0  0  0  0  0  0  0  0  0  0  0
   59.1100   30.1750   45.9070 C   0  0  0  0  0  0  0  0  0  0  0  0
   59.7584   29.4781   46.4582 H   0  0  0  0  0  0  0  0  0  0  0  0
   59.0880   31.5210   46.2710 C   0  0  0  0  0  0  0  0  0  0  0  0
   59.8790   31.9940   47.3300 C   0  0  0  0  0  0  0  0  0  0  0  0
   60.5293   31.2964   47.8781 H   0  0  0  0  0  0  0  0  0  0  0  0
   59.8480   33.3450   47.6950 C   0  0  0  0  0  0  0  0  0  0  0  0
   60.6640   33.7600   48.7600 O   0  0  0  0  0  0  0  0  0  0  0  0
   62.0200   34.2100   48.6490 C   0  0  1  0  0  0  0  0  0  0  0  0
   62.0293   35.3028   48.7742 H   0  0  0  0  0  0  0  0  0  0  0  0
   62.8140   33.6320   49.6720 O   0  0  0  0  0  0  0  0  0  0  0  0
   62.7750   32.2130   49.6240 C   0  0  0  0  0  0  0  0  0  0  0  0
   61.7755   31.8811   49.9417 H   0  0  0  0  0  0  0  0  0  0  0  0
   63.5682   31.8445   50.2911 H   0  0  0  0  0  0  0  0  0  0  0  0
   63.0580   31.6370   48.2200 C   0  0  0  0  0  0  0  0  0  0  0  0
   62.1270   31.2216   47.8068 H   0  0  0  0  0  0  0  0  0  0  0  0
   63.8226   30.8513   48.3100 H   0  0  0  0  0  0  0  0  0  0  0  0
   63.5810   32.7210   47.2820 C   0  0  0  0  0  0  0  0  0  0  0  0
   63.6855   32.3057   46.2688 H   0  0  0  0  0  0  0  0  0  0  0  0
   64.5582   33.0709   47.6462 H   0  0  0  0  0  0  0  0  0  0  0  0
   62.6070   33.9030   47.2470 C   0  0  0  0  0  0  0  0  0  0  0  0
   61.7816   33.6635   46.5605 H   0  0  0  0  0  0  0  0  0  0  0  0
   63.1603   34.7909   46.9071 H   0  0  0  0  0  0  0  0  0  0  0  0
   59.0080   34.2280   46.9890 C   0  0  0  0  0  0  0  0  0  0  0  0
   58.9745   35.2917   47.2671 H   0  0  0  0  0  0  0  0  0  0  0  0
   58.2170   33.7590   45.9370 C   0  0  0  0  0  0  0  0  0  0  0  0
   57.5634   34.4560   45.3920 H   0  0  0  0  0  0  0  0  0  0  0  0
   58.2510   32.4040   45.5710 C   0  0  0  0  0  0  0  0  0  0  0  0
   57.4820   31.9450   44.5460 N   0  0  0  0  0  0  0  0  0  0  0  0
   56.8750   32.6350   44.0420 H   0  0  0  0  0  0  0  0  0  0  0  0
  1  2  1  0
  2  3  1  0
  2  4  2  0
  4  5  1  0
  5  6  2  0
  6  7  1  0
  6  8  1  0
  8  9  2  0
  9 10  1  0
  9 11  1  0
 11 12  1  0
 12 13  2  0
 12 14  1  0
 14 15  1  0
 15 16  2  0
  5 17  1  0
 17 18  1  0
 17 19  2  0
 19 20  1  0
 20 21  1  0
 20 22  2  0
 22 23  1  0
 23 24  1  0
 24 25  1  1
 24 26  1  0
 26 27  1  0
 27 28  1  0
 27 29  1  0
 27 30  1  0
 30 31  1  0
 30 32  1  0
 30 33  1  0
 33 34  1  0
 33 35  1  0
 33 36  1  0
 36 37  1  0
 36 38  1  0
 22 39  1  0
 39 40  1  0
 39 41  2  0
 41 42  1  0
 41 43  1  0
 43 44  2  0
 44 45  1  0
 44  4  1  0
 15  8  1  0
 43 19  1  0
 36 24  1  0
M  CHG  4  10  -1  11  -1  14  -1  44   1
M  END
>  <UniqueID>  (67) 
65

>  <SMILES>  (67) 
C=c1[nH+]c2ccc(O[C@@H]3CCCCO3)cc2c/c1=C\c1c([O-])[n-]c(=O)[n-]c1=O

>  <Energy>  (67) 
80.08731125444974

>  <Genealogy>  (67) 
C=c1[nH+]c2ccc(OC3CCCCO3)cc2cc1=Cc1c([O-])[n-]c(=O)[n-]c1=O (protonated)
C=c1[nH+]c2ccc(O[C@@H]3CCCCO3)cc2cc1=Cc1c([O-])[n-]c(=O)[n-]c1=O (chirality)
C=c1[nH+]c2ccc(O[C@@H]3CCCCO3)cc2c/c1=C\c1c([O-])[n-]c(=O)[n-]c1=O (cis-trans isomerization)
C=c1[nH+]c2ccc(O[C@@H]3CCCCO3)cc2c/c1=C\c1c([O-])[n-]c(=O)[n-]c1=O (3D coordinates assigned)
C=c1[nH+]c2ccc(O[C@@H]3CCCCO3)cc2c/c1=C\c1c([O-])[n-]c(=O)[n-]c1=O (nonaromatic ring conformer: 80.08731125444974 kcal/mol)

>  <smiles>  (67) 
C=c1nc2ccc(OC3CCCCO3)cc2cc1=Cc1c(O)[nH]c(=O)[nH]c1=O

>  <score_type>  (67) 
oracle

>  <origin>  (67) 
adg

>  <m_score__min__energy>  (67) 
-15.17

>  <m_primary>  (67) 
energy

$$$$
67:0
     RDKit          3D

 76 79  0  0  0  0  0  0  0  0999 V2000
   58.0710   32.6890   43.6990 C   0  0  0  0  0  0  0  0  0  0  0  0
   57.5190   33.5440   44.8340 C   0  0  0  0  0  0  0  0  0  0  0  0
   58.2240   34.7820   44.9250 O   0  0  0  0  0  0  0  0  0  0  0  0
   59.4080   34.9430   45.6510 C   0  0  0  0  0  0  0  0  0  0  0  0
   59.9720   36.0690   45.7150 O   0  0  0  0  0  0  0  0  0  0  0  0
   59.9450   33.8250   46.3650 N   0  0  0  0  0  0  0  0  0  0  0  0
   59.5760   33.4620   47.7010 C   0  0  0  0  0  0  0  0  0  0  0  0
   59.9600   34.2910   48.7550 C   0  0  0  0  0  0  0  0  0  0  0  0
   59.6460   33.9450   50.0670 C   0  0  0  0  0  0  0  0  0  0  0  0
   58.9250   32.7730   50.3180 C   0  0  0  0  0  0  0  0  0  0  0  0
   58.6310   32.3890   51.6740 N   0  0  0  0  0  0  0  0  0  0  0  0
   57.2310   32.1720   52.0610 C   0  0  0  0  0  0  0  0  0  0  0  0
   57.1360   31.1080   53.1570 C   0  0  0  0  0  0  0  0  0  0  0  0
   58.0710   31.4460   54.3290 C   0  0  0  0  0  0  0  0  0  0  0  0
   58.0110   30.4130   55.3130 O   0  0  0  0  0  0  0  0  0  0  0  0
   57.4430   29.1540   55.0800 C   0  0  0  0  0  0  0  0  0  0  0  0
   58.1690   28.1990   54.6860 O   0  0  0  0  0  0  0  0  0  0  0  0
   56.0330   28.9480   55.2800 N   0  0  0  0  0  0  0  0  0  0  0  0
   55.4560   27.6240   55.0030 C   0  0  0  0  0  0  0  0  0  0  0  0
   53.9560   27.6070   55.2910 C   0  0  0  0  0  0  0  0  0  0  0  0
   53.3400   28.7990   54.6830 N   0  0  0  0  0  0  0  0  0  0  0  0
   51.8660   28.7220   54.5840 C   0  0  0  0  0  0  0  0  0  0  0  0
   51.1600   30.0910   54.6630 C   0  0  0  0  0  0  0  0  0  0  0  0
   51.2160   30.7700   53.3570 N   0  0  0  0  0  0  0  0  0  0  0  0
   51.7640   30.1140   52.2910 C   0  0  0  0  0  0  0  0  0  0  0  0
   51.8580   30.7360   51.0400 C   0  0  0  0  0  0  0  0  0  0  0  0
   52.4370   30.0060   49.8600 C   0  0  0  0  0  0  0  0  0  0  0  0
   51.3600   32.0400   50.9150 C   0  0  0  0  0  0  0  0  0  0  0  0
   51.3960   32.6400   49.8070 O   0  0  0  0  0  0  0  0  0  0  0  0
   50.8380   32.6690   51.9960 N   0  0  0  0  0  0  0  0  0  0  0  0
   50.7690   32.0580   53.2070 C   0  0  0  0  0  0  0  0  0  0  0  0
   50.2900   32.6960   54.1850 O   0  0  0  0  0  0  0  0  0  0  0  0
   53.8110   30.0770   55.2680 C   0  0  0  0  0  0  0  0  0  0  0  0
   55.2090   29.9860   55.9140 C   0  0  0  0  0  0  0  0  0  0  0  0
   59.5140   31.5760   53.8250 C   0  0  0  0  0  0  0  0  0  0  0  0
   59.6150   32.6450   52.7320 C   0  0  0  0  0  0  0  0  0  0  0  0
   58.5110   31.9960   49.2730 N   0  0  0  0  0  0  0  0  0  0  0  0
   58.8080   32.3140   47.9750 C   0  0  0  0  0  0  0  0  0  0  0  0
   58.3470   31.5290   46.9070 O   0  0  0  0  0  0  0  0  0  0  0  0
   59.1540   30.6150   46.1730 C   0  0  0  0  0  0  0  0  0  0  0  0
   58.6226   31.8347   44.1184 H   0  0  0  0  0  0  0  0  0  0  0  0
   57.2398   32.3206   43.0798 H   0  0  0  0  0  0  0  0  0  0  0  0
   58.7489   33.2948   43.0798 H   0  0  0  0  0  0  0  0  0  0  0  0
   56.4544   33.7481   44.6469 H   0  0  0  0  0  0  0  0  0  0  0  0
   57.6434   32.9970   45.7802 H   0  0  0  0  0  0  0  0  0  0  0  0
   60.5120   35.2200   48.5495 H   0  0  0  0  0  0  0  0  0  0  0  0
   59.9629   34.5892   50.9004 H   0  0  0  0  0  0  0  0  0  0  0  0
   56.8086   33.1161   52.4355 H   0  0  0  0  0  0  0  0  0  0  0  0
   56.6683   31.8272   51.1810 H   0  0  0  0  0  0  0  0  0  0  0  0
   56.1002   31.0602   53.5243 H   0  0  0  0  0  0  0  0  0  0  0  0
   57.4376   30.1384   52.7339 H   0  0  0  0  0  0  0  0  0  0  0  0
   57.7489   32.3986   54.7750 H   0  0  0  0  0  0  0  0  0  0  0  0
   55.6215   27.3742   53.9446 H   0  0  0  0  0  0  0  0  0  0  0  0
   55.9455   26.8860   55.6554 H   0  0  0  0  0  0  0  0  0  0  0  0
   53.5076   26.6994   54.8606 H   0  0  0  0  0  0  0  0  0  0  0  0
   53.7850   27.6122   56.3776 H   0  0  0  0  0  0  0  0  0  0  0  0
   51.6078   28.2546   53.6223 H   0  0  0  0  0  0  0  0  0  0  0  0
   51.5192   28.1346   55.4469 H   0  0  0  0  0  0  0  0  0  0  0  0
   50.1086   29.9413   54.9496 H   0  0  0  0  0  0  0  0  0  0  0  0
   51.6694   30.7141   55.4129 H   0  0  0  0  0  0  0  0  0  0  0  0
   52.1353   29.0862   52.4169 H   0  0  0  0  0  0  0  0  0  0  0  0
   53.0840   29.1903   50.2149 H   0  0  0  0  0  0  0  0  0  0  0  0
   51.6216   29.5887   49.2509 H   0  0  0  0  0  0  0  0  0  0  0  0
   53.0290   30.7049   49.2509 H   0  0  0  0  0  0  0  0  0  0  0  0
   53.8462   30.8324   54.4692 H   0  0  0  0  0  0  0  0  0  0  0  0
   53.1044   30.3440   56.0676 H   0  0  0  0  0  0  0  0  0  0  0  0
   55.7148   30.9571   55.8080 H   0  0  0  0  0  0  0  0  0  0  0  0
   55.0808   29.7225   56.9743 H   0  0  0  0  0  0  0  0  0  0  0  0
   60.1655   31.8571   54.6655 H   0  0  0  0  0  0  0  0  0  0  0  0
   59.8282   30.6099   53.4031 H   0  0  0  0  0  0  0  0  0  0  0  0
   59.4235   33.6341   53.1735 H   0  0  0  0  0  0  0  0  0  0  0  0
   60.6243   32.6150   52.2956 H   0  0  0  0  0  0  0  0  0  0  0  0
   57.9710   31.1280   49.4840 H   0  0  0  0  0  0  0  0  0  0  0  0
   59.7159   29.9786   46.8724 H   0  0  0  0  0  0  0  0  0  0  0  0
   58.5116   29.9855   45.5396 H   0  0  0  0  0  0  0  0  0  0  0  0
   59.8582   31.1744   45.5396 H   0  0  0  0  0  0  0  0  0  0  0  0
  1  2  1  0
  2  3  1  0
  3  4  1  0
  4  5  2  0
  4  6  1  0
  6  7  1  0
  7  8  2  0
  8  9  1  0
  9 10  2  0
 10 11  1  0
 11 12  1  0
 12 13  1  0
 13 14  1  0
 14 15  1  0
 15 16  1  0
 16 17  2  0
 16 18  1  0
 18 19  1  0
 19 20  1  0
 20 21  1  0
 21 22  1  0
 22 23  1  0
 23 24  1  0
 24 25  1  0
 25 26  2  0
 26 27  1  0
 26 28  1  0
 28 29  2  0
 28 30  1  0
 30 31  1  0
 31 32  2  0
 21 33  1  0
 33 34  1  0
 14 35  1  0
 35 36  1  0
 10 37  1  0
 37 38  2  0
 38 39  1  0
 39 40  1  0
 38  7  1  0
 36 11  1  0
 34 18  1  0
 31 24  1  0
  1 41  1  0
  1 42  1  0
  1 43  1  0
  2 44  1  0
  2 45  1  0
  8 46  1  0
  9 47  1  0
 12 48  1  0
 12 49  1  0
 13 50  1  0
 13 51  1  0
 14 52  1  0
 19 53  1  0
 19 54  1  0
 20 55  1  0
 20 56  1  0
 22 57  1  0
 22 58  1  0
 23 59  1  0
 23 60  1  0
 25 61  1  0
 27 62  1  0
 27 63  1  0
 27 64  1  0
 33 65  1  0
 33 66  1  0
 34 67  1  0
 34 68  1  0
 35 69  1  0
 35 70  1  0
 36 71  1  0
 36 72  1  0
 37 73  1  0
 40 74  1  0
 40 75  1  0
 40 76  1  0
M  CHG  3   6  -1  30  -1  37   1
M  END
>  <UniqueID>  (68) 
66

>  <SMILES>  (68) 
CCOC(=O)[N-]c1ccc(N2CCC(OC(=O)N3CCN(CCn4cc(C)c(=O)[n-]c4=O)CC3)CC2)[nH+]c1OC

>  <Energy>  (68) 
85.3673353453655

>  <Genealogy>  (68) 
CCOC(=O)[N-]c1ccc(N2CCC(OC(=O)N3CCN(CCn4cc(C)c(=O)[n-]c4=O)CC3)CC2)[nH+]c1OC (protonated)
CCOC(=O)[N-]c1ccc(N2CCC(OC(=O)N3CCN(CCn4cc(C)c(=O)[n-]c4=O)CC3)CC2)[nH+]c1OC (3D coordinates assigned)
CCOC(=O)[N-]c1ccc(N2CCC(OC(=O)N3CCN(CCn4cc(C)c(=O)[n-]c4=O)CC3)CC2)[nH+]c1OC (nonaromatic ring conformer: 85.3673353453655 kcal/mol)

>  <smiles>  (68) 
CCOC(=O)Nc1ccc(N2CCC(OC(=O)N3CCN(CCn4cc(C)c(=O)[nH]c4=O)CC3)CC2)nc1OC

>  <score_type>  (68) 
oracle

>  <origin>  (68) 
adg

>  <m_score__min__energy>  (68) 
-10.289999999999999

>  <m_primary>  (68) 
energy

$$$$
68:0
     RDKit          3D

 57 60  0  0  0  0  0  0  0  0999 V2000
   56.9680   34.5690   44.9060 C   0  0  0  0  0  0  0  0  0  0  0  0
   58.3450   33.9850   44.8050 C   0  0  0  0  0  0  0  0  0  0  0  0
   58.8370   33.0350   45.6290 C   0  0  0  0  0  0  0  0  0  0  0  0
   59.8220   33.3210   46.7050 C   0  0  0  0  0  0  0  0  0  0  0  0
   59.7520   34.3860   47.3780 O   0  0  0  0  0  0  0  0  0  0  0  0
   60.8580   32.3760   46.9900 N   0  0  0  0  0  0  0  0  0  0  0  0
   61.9460   32.5980   47.8970 C   0  0  0  0  0  0  0  0  0  0  0  0
   63.1370   33.2020   47.4590 C   0  0  0  0  0  0  0  0  0  0  0  0
   64.1670   33.4650   48.3640 C   0  0  0  0  0  0  0  0  0  0  0  0
   64.0170   33.1290   49.7120 C   0  0  0  0  0  0  0  0  0  0  0  0
   62.8370   32.5260   50.1620 C   0  0  0  0  0  0  0  0  0  0  0  0
   62.7000   32.0890   51.8600 Cl  0  0  0  0  0  0  0  0  0  0  0  0
   61.7930   32.2650   49.2550 C   0  0  0  0  0  0  0  0  0  0  0  0
   60.5970   31.6010   49.6920 N   0  0  0  0  0  0  0  0  0  0  0  0
   59.3900   32.4140   49.8830 C   0  0  0  0  0  0  0  0  0  0  0  0
   58.2840   31.6320   50.5910 C   0  0  0  0  0  0  0  0  0  0  0  0
   58.1860   30.3260   50.0660 O   0  0  0  0  0  0  0  0  0  0  0  0
   59.3290   29.5910   50.4500 C   0  0  0  0  0  0  0  0  0  0  0  0
   60.5940   30.1340   49.7700 C   0  0  0  0  0  0  0  0  0  0  0  0
   58.3090   31.6580   45.5010 C   0  0  0  0  0  0  0  0  0  0  0  0
   57.3640   31.4410   44.6380 N   0  0  0  0  0  0  0  0  0  0  0  0
   56.6270   29.9030   44.3990 S   0  0  0  0  0  0  0  0  0  0  0  0
   55.1490   30.0150   44.6350 O   0  0  0  0  0  0  0  0  0  0  0  0
   56.9000   29.4210   43.0040 O   0  0  0  0  0  0  0  0  0  0  0  0
   57.3240   28.8040   45.5570 C   0  0  0  0  0  0  0  0  0  0  0  0
   56.8560   27.4870   45.6420 C   0  0  0  0  0  0  0  0  0  0  0  0
   57.4020   26.5980   46.5810 C   0  0  0  0  0  0  0  0  0  0  0  0
   56.9020   25.2080   46.6740 C   0  0  0  0  0  0  0  0  0  0  0  0
   57.6970   24.2650   46.9470 O   0  0  0  0  0  0  0  0  0  0  0  0
   55.5470   24.9380   46.4520 O   0  0  0  0  0  0  0  0  0  0  0  0
   55.0800   24.2330   45.3070 C   0  0  0  0  0  0  0  0  0  0  0  0
   58.4280   27.0500   47.4280 C   0  0  0  0  0  0  0  0  0  0  0  0
   58.8980   28.3610   47.3330 C   0  0  0  0  0  0  0  0  0  0  0  0
   58.3460   29.2540   46.4040 C   0  0  0  0  0  0  0  0  0  0  0  0
   58.8420   30.6070   46.3360 N   0  0  0  0  0  0  0  0  0  0  0  0
   56.6955   34.6846   45.9654 H   0  0  0  0  0  0  0  0  0  0  0  0
   56.9497   35.5523   44.4133 H   0  0  0  0  0  0  0  0  0  0  0  0
   56.2484   33.8986   44.4133 H   0  0  0  0  0  0  0  0  0  0  0  0
   59.0005   34.3564   44.0035 H   0  0  0  0  0  0  0  0  0  0  0  0
   63.2582   33.4686   46.3987 H   0  0  0  0  0  0  0  0  0  0  0  0
   65.0974   33.9371   48.0156 H   0  0  0  0  0  0  0  0  0  0  0  0
   64.8299   33.3394   50.4226 H   0  0  0  0  0  0  0  0  0  0  0  0
   59.6467   33.2953   50.4892 H   0  0  0  0  0  0  0  0  0  0  0  0
   59.0175   32.7105   48.8914 H   0  0  0  0  0  0  0  0  0  0  0  0
   58.5132   31.5737   51.6653 H   0  0  0  0  0  0  0  0  0  0  0  0
   57.3266   32.1504   50.4341 H   0  0  0  0  0  0  0  0  0  0  0  0
   59.4503   29.6607   51.5411 H   0  0  0  0  0  0  0  0  0  0  0  0
   59.1897   28.5446   50.1408 H   0  0  0  0  0  0  0  0  0  0  0  0
   61.4730   29.8082   50.3456 H   0  0  0  0  0  0  0  0  0  0  0  0
   60.6196   29.7416   48.7427 H   0  0  0  0  0  0  0  0  0  0  0  0
   56.0554   27.1470   44.9686 H   0  0  0  0  0  0  0  0  0  0  0  0
   54.4990   23.3559   45.6282 H   0  0  0  0  0  0  0  0  0  0  0  0
   54.4413   24.8951   44.7040 H   0  0  0  0  0  0  0  0  0  0  0  0
   55.9388   23.9031   44.7040 H   0  0  0  0  0  0  0  0  0  0  0  0
   58.8639   26.3660   48.1711 H   0  0  0  0  0  0  0  0  0  0  0  0
   59.7103   28.6970   47.9943 H   0  0  0  0  0  0  0  0  0  0  0  0
   59.6700   30.8430   46.9310 H   0  0  0  0  0  0  0  0  0  0  0  0
  1  2  1  0
  2  3  2  3
  3  4  1  0
  4  5  2  0
  4  6  1  0
  6  7  1  0
  7  8  2  0
  8  9  1  0
  9 10  2  0
 10 11  1  0
 11 12  1  0
 11 13  2  0
 13 14  1  0
 14 15  1  0
 15 16  1  0
 16 17  1  0
 17 18  1  0
 18 19  1  0
  3 20  1  0
 20 21  2  0
 21 22  1  0
 22 23  2  0
 22 24  2  0
 22 25  1  0
 25 26  2  0
 26 27  1  0
 27 28  1  0
 28 29  2  0
 28 30  1  0
 30 31  1  0
 27 32  2  0
 32 33  1  0
 33 34  2  0
 34 35  1  0
 13  7  1  0
 19 14  1  0
 35 20  1  0
 34 25  1  0
  1 36  1  0
  1 37  1  0
  1 38  1  0
  2 39  1  0
  8 40  1  0
  9 41  1  0
 10 42  1  0
 15 43  1  0
 15 44  1  0
 16 45  1  0
 16 46  1  0
 18 47  1  0
 18 48  1  0
 19 49  1  0
 19 50  1  0
 26 51  1  0
 31 52  1  0
 31 53  1  0
 31 54  1  0
 32 55  1  0
 33 56  1  0
 35 57  1  0
M  CHG  1   6  -1
M  END
>  <UniqueID>  (69) 
67

>  <SMILES>  (69) 
CC=C(C(=O)[N-]c1cccc(Cl)c1N1CCOCC1)C1=NS(=O)(=O)c2cc(C(=O)OC)ccc2N1

>  <Energy>  (69) 
81.25861144609927

>  <Genealogy>  (69) 
CC=C(C(=O)[N-]c1cccc(Cl)c1N1CCOCC1)C1=NS(=O)(=O)c2cc(C(=O)OC)ccc2N1 (protonated)
CC=C(C(=O)[N-]c1cccc(Cl)c1N1CCOCC1)C1=NS(=O)(=O)c2cc(C(=O)OC)ccc2N1 (3D coordinates assigned)
CC=C(C(=O)[N-]c1cccc(Cl)c1N1CCOCC1)C1=NS(=O)(=O)c2cc(C(=O)OC)ccc2N1 (nonaromatic ring conformer: 81.25861144609927 kcal/mol)

>  <smiles>  (69) 
CC=C(C(=O)Nc1cccc(Cl)c1N1CCOCC1)C1=NS(=O)(=O)c2cc(C(=O)OC)ccc2N1

>  <score_type>  (69) 
oracle

>  <origin>  (69) 
adg

>  <m_score__min__energy>  (69) 
-10.75

>  <m_primary>  (69) 
energy

$$$$
69:0
     RDKit          3D

 59 62  0  0  0  0  0  0  0  0999 V2000
   55.6320   25.8540   46.2840 O   0  0  0  0  0  0  0  0  0  0  0  0
   56.4210   25.3000   47.0930 C   0  0  0  0  0  0  0  0  0  0  0  0
   57.7580   25.9320   47.3760 C   0  0  0  0  0  0  0  0  0  0  0  0
   58.0980   26.9240   46.3500 N   0  0  0  0  0  0  0  0  0  0  0  0
   57.1790   27.8390   46.0220 N   0  0  0  0  0  0  0  0  0  0  0  0
   57.3940   28.7770   45.0630 C   0  0  0  0  0  0  0  0  0  0  0  0
   56.3310   29.7560   44.7550 C   0  0  0  0  0  0  0  0  0  0  0  0
   55.1310   29.3740   44.7520 O   0  0  0  0  0  0  0  0  0  0  0  0
   56.6110   31.1370   44.4930 N   0  0  0  0  0  0  0  0  0  0  0  0
   57.5770   31.9450   45.1810 C   0  0  0  0  0  0  0  0  0  0  0  0
   58.1600   31.4550   46.3560 C   0  0  0  0  0  0  0  0  0  0  0  0
   59.1280   32.2030   47.0300 C   0  0  0  0  0  0  0  0  0  0  0  0
   59.5090   33.4660   46.5490 C   0  0  0  0  0  0  0  0  0  0  0  0
   60.6040   34.2370   47.2420 C   0  0  0  0  0  0  0  0  0  0  0  0
   61.6360   33.3230   47.7760 N   0  0  0  0  0  0  0  0  0  0  0  0
   62.9460   33.5390   47.1180 C   0  0  0  0  0  0  0  0  0  0  0  0
   64.0980   33.0470   48.0060 C   0  0  0  0  0  0  0  0  0  0  0  0
   64.1800   33.7130   49.2570 O   0  0  0  0  0  0  0  0  0  0  0  0
   62.9370   34.2320   49.7120 C   0  0  0  0  0  0  0  0  0  0  0  0
   61.7230   33.4060   49.2530 C   0  0  0  0  0  0  0  0  0  0  0  0
   58.8980   33.9740   45.3920 C   0  0  0  0  0  0  0  0  0  0  0  0
   57.9320   33.2240   44.7170 C   0  0  0  0  0  0  0  0  0  0  0  0
   58.6310   28.8030   44.4100 C   0  0  0  0  0  0  0  0  0  0  0  0
   59.5890   27.8460   44.7270 C   0  0  0  0  0  0  0  0  0  0  0  0
   59.3060   26.8940   45.7050 C   0  0  0  0  0  0  0  0  0  0  0  0
   60.1690   26.0160   45.9860 O   0  0  0  0  0  0  0  0  0  0  0  0
   55.9870   24.1100   47.7650 N   0  0  0  0  0  0  0  0  0  0  0  0
   55.7100   22.8210   47.1370 C   0  0  0  0  0  0  0  0  0  0  0  0
   56.0060   22.8670   45.6590 C   0  0  0  0  0  0  0  0  0  0  0  0
   57.2710   22.4680   45.1900 C   0  0  0  0  0  0  0  0  0  0  0  0
   57.5630   22.4930   43.8250 C   0  0  0  0  0  0  0  0  0  0  0  0
   56.6010   22.9230   42.9120 C   0  0  0  0  0  0  0  0  0  0  0  0
   55.3440   23.3320   43.3610 C   0  0  0  0  0  0  0  0  0  0  0  0
   55.0380   23.3090   44.7270 C   0  0  0  0  0  0  0  0  0  0  0  0
   53.2970   23.9060   45.2710 Br  0  0  0  0  0  0  0  0  0  0  0  0
   57.7212   26.4275   48.3574 H   0  0  0  0  0  0  0  0  0  0  0  0
   58.5261   25.1446   47.3706 H   0  0  0  0  0  0  0  0  0  0  0  0
   57.8538   30.4750   46.7507 H   0  0  0  0  0  0  0  0  0  0  0  0
   59.5940   31.8009   47.9417 H   0  0  0  0  0  0  0  0  0  0  0  0
   61.0705   34.9258   46.5223 H   0  0  0  0  0  0  0  0  0  0  0  0
   60.1633   34.7973   48.0797 H   0  0  0  0  0  0  0  0  0  0  0  0
   62.9653   32.9878   46.1663 H   0  0  0  0  0  0  0  0  0  0  0  0
   63.0756   34.6172   46.9428 H   0  0  0  0  0  0  0  0  0  0  0  0
   63.9571   31.9723   48.1935 H   0  0  0  0  0  0  0  0  0  0  0  0
   65.0327   33.2605   47.4668 H   0  0  0  0  0  0  0  0  0  0  0  0
   62.9493   34.2515   50.8118 H   0  0  0  0  0  0  0  0  0  0  0  0
   62.8275   35.2370   49.2785 H   0  0  0  0  0  0  0  0  0  0  0  0
   61.8105   32.3884   49.6616 H   0  0  0  0  0  0  0  0  0  0  0  0
   60.8137   33.9046   49.6200 H   0  0  0  0  0  0  0  0  0  0  0  0
   59.1813   34.9677   45.0149 H   0  0  0  0  0  0  0  0  0  0  0  0
   57.4473   33.6354   43.8193 H   0  0  0  0  0  0  0  0  0  0  0  0
   58.8437   29.5726   43.6534 H   0  0  0  0  0  0  0  0  0  0  0  0
   60.5605   27.8404   44.2110 H   0  0  0  0  0  0  0  0  0  0  0  0
   56.3383   22.0495   47.6062 H   0  0  0  0  0  0  0  0  0  0  0  0
   54.6444   22.5852   47.2745 H   0  0  0  0  0  0  0  0  0  0  0  0
   58.0368   22.1333   45.9052 H   0  0  0  0  0  0  0  0  0  0  0  0
   58.5535   22.1730   43.4693 H   0  0  0  0  0  0  0  0  0  0  0  0
   56.8327   22.9400   41.8368 H   0  0  0  0  0  0  0  0  0  0  0  0
   54.5896   23.6743   42.6373 H   0  0  0  0  0  0  0  0  0  0  0  0
  1  2  2  0
  2  3  1  0
  3  4  1  0
  4  5  1  0
  5  6  2  0
  6  7  1  0
  7  8  2  0
  7  9  1  0
  9 10  1  0
 10 11  2  0
 11 12  1  0
 12 13  2  0
 13 14  1  0
 14 15  1  0
 15 16  1  0
 16 17  1  0
 17 18  1  0
 18 19  1  0
 19 20  1  0
 13 21  1  0
 21 22  2  0
  6 23  1  0
 23 24  2  0
 24 25  1  0
 25 26  2  0
  2 27  1  0
 27 28  1  0
 28 29  1  0
 29 30  2  0
 30 31  1  0
 31 32  2  0
 32 33  1  0
 33 34  2  0
 34 35  1  0
 25  4  1  0
 34 29  1  0
 22 10  1  0
 20 15  1  0
  3 36  1  0
  3 37  1  0
 11 38  1  0
 12 39  1  0
 14 40  1  0
 14 41  1  0
 16 42  1  0
 16 43  1  0
 17 44  1  0
 17 45  1  0
 19 46  1  0
 19 47  1  0
 20 48  1  0
 20 49  1  0
 21 50  1  0
 22 51  1  0
 23 52  1  0
 24 53  1  0
 28 54  1  0
 28 55  1  0
 30 56  1  0
 31 57  1  0
 32 58  1  0
 33 59  1  0
M  CHG  2   9  -1  27  -1
M  END
>  <UniqueID>  (70) 
68

>  <SMILES>  (70) 
O=C(Cn1nc(C(=O)[N-]c2ccc(CN3CCOCC3)cc2)ccc1=O)[N-]Cc1ccccc1Br

>  <Energy>  (70) 
82.83168372586232

>  <Genealogy>  (70) 
O=C(Cn1nc(C(=O)[N-]c2ccc(CN3CCOCC3)cc2)ccc1=O)[N-]Cc1ccccc1Br (protonated)
O=C(Cn1nc(C(=O)[N-]c2ccc(CN3CCOCC3)cc2)ccc1=O)[N-]Cc1ccccc1Br (3D coordinates assigned)
O=C(Cn1nc(C(=O)[N-]c2ccc(CN3CCOCC3)cc2)ccc1=O)[N-]Cc1ccccc1Br (nonaromatic ring conformer: 82.83168372586232 kcal/mol)

>  <smiles>  (70) 
O=C(Cn1nc(C(=O)Nc2ccc(CN3CCOCC3)cc2)ccc1=O)NCc1ccccc1Br

>  <score_type>  (70) 
oracle

>  <origin>  (70) 
adg

>  <m_score__min__energy>  (70) 
-13.539999999999999

>  <m_primary>  (70) 
energy

$$$$
70:0
     RDKit          3D

 57 59  0  0  0  0  0  0  0  0999 V2000
   58.4830   33.8460   52.6730 C   0  0  0  0  0  0  0  0  0  0  0  0
   57.9290   32.6530   52.1270 O   0  0  0  0  0  0  0  0  0  0  0  0
   58.5670   31.8430   51.1750 C   0  0  0  0  0  0  0  0  0  0  0  0
   59.6540   32.3070   50.4080 C   0  0  0  0  0  0  0  0  0  0  0  0
   60.2590   31.4730   49.4650 C   0  0  0  0  0  0  0  0  0  0  0  0
   59.7890   30.1670   49.2680 C   0  0  0  0  0  0  0  0  0  0  0  0
   60.4620   29.2610   48.2730 C   0  0  0  0  0  0  0  0  0  0  0  0
   60.3490   27.8300   48.7210 C   0  0  0  0  0  0  0  0  0  0  0  0
   60.7900   27.5080   49.8560 O   0  0  0  0  0  0  0  0  0  0  0  0
   59.8800   26.7980   47.8430 N   0  0  0  0  0  0  0  0  0  0  0  0
   58.6450   26.8260   47.1170 C   0  0  0  0  0  0  0  0  0  0  0  0
   58.3410   27.9500   46.3400 C   0  0  0  0  0  0  0  0  0  0  0  0
   57.1450   28.0070   45.6100 C   0  0  0  0  0  0  0  0  0  0  0  0
   56.7620   29.4260   44.6290 S   0  0  0  0  0  0  0  0  0  0  0  0
   55.2700   29.5320   44.4640 O   0  0  0  0  0  0  0  0  0  0  0  0
   57.3700   29.2590   43.2640 O   0  0  0  0  0  0  0  0  0  0  0  0
   57.3730   30.8910   45.3590 N   0  0  0  0  0  0  0  0  0  0  0  0
   57.1720   32.0360   44.4580 C   0  0  0  0  0  0  0  0  0  0  0  0
   57.4450   33.3540   45.2030 C   0  0  0  0  0  0  0  0  0  0  0  0
   58.5050   33.2080   46.3240 C   0  0  0  0  0  0  0  0  0  0  0  0
   57.8540   32.9990   47.7020 C   0  0  0  0  0  0  0  0  0  0  0  0
   59.5000   32.0780   45.9980 C   0  0  0  0  0  0  0  0  0  0  0  0
   58.8000   30.7290   45.7130 C   0  0  0  0  0  0  0  0  0  0  0  0
   56.2580   26.9230   45.6520 C   0  0  0  0  0  0  0  0  0  0  0  0
   56.5750   25.7830   46.3950 C   0  0  0  0  0  0  0  0  0  0  0  0
   57.7710   25.7230   47.1130 C   0  0  0  0  0  0  0  0  0  0  0  0
   58.0950   24.5590   47.8010 O   0  0  0  0  0  0  0  0  0  0  0  0
   58.7170   29.6970   50.0400 C   0  0  0  0  0  0  0  0  0  0  0  0
   58.0980   30.5320   50.9930 C   0  0  0  0  0  0  0  0  0  0  0  0
   57.0160   30.0930   51.7760 O   0  0  0  0  0  0  0  0  0  0  0  0
   55.8120   30.8310   51.9700 C   0  0  0  0  0  0  0  0  0  0  0  0
   58.4582   33.7925   53.7714 H   0  0  0  0  0  0  0  0  0  0  0  0
   59.5240   33.9552   52.3346 H   0  0  0  0  0  0  0  0  0  0  0  0
   57.8948   34.7117   52.3346 H   0  0  0  0  0  0  0  0  0  0  0  0
   60.0281   33.3313   50.5526 H   0  0  0  0  0  0  0  0  0  0  0  0
   61.1093   31.8431   48.8734 H   0  0  0  0  0  0  0  0  0  0  0  0
   59.9782   29.3746   47.2916 H   0  0  0  0  0  0  0  0  0  0  0  0
   61.5253   29.5330   48.1989 H   0  0  0  0  0  0  0  0  0  0  0  0
   59.0451   28.7943   46.3018 H   0  0  0  0  0  0  0  0  0  0  0  0
   57.8609   31.9518   43.6046 H   0  0  0  0  0  0  0  0  0  0  0  0
   56.1310   32.0341   44.1026 H   0  0  0  0  0  0  0  0  0  0  0  0
   57.8028   34.0992   44.4773 H   0  0  0  0  0  0  0  0  0  0  0  0
   56.5031   33.6637   45.6793 H   0  0  0  0  0  0  0  0  0  0  0  0
   59.0670   34.1524   46.3717 H   0  0  0  0  0  0  0  0  0  0  0  0
   58.5834   33.2332   48.4914 H   0  0  0  0  0  0  0  0  0  0  0  0
   56.9820   33.6623   47.8000 H   0  0  0  0  0  0  0  0  0  0  0  0
   57.5311   31.9520   47.8000 H   0  0  0  0  0  0  0  0  0  0  0  0
   60.0818   32.3669   45.1102 H   0  0  0  0  0  0  0  0  0  0  0  0
   60.1437   31.9382   46.8790 H   0  0  0  0  0  0  0  0  0  0  0  0
   59.3161   30.2342   44.8771 H   0  0  0  0  0  0  0  0  0  0  0  0
   58.8483   30.1282   46.6332 H   0  0  0  0  0  0  0  0  0  0  0  0
   55.3088   26.9697   45.0981 H   0  0  0  0  0  0  0  0  0  0  0  0
   55.8803   24.9303   46.4144 H   0  0  0  0  0  0  0  0  0  0  0  0
   58.3555   28.6674   49.9010 H   0  0  0  0  0  0  0  0  0  0  0  0
   55.6226   30.9471   53.0473 H   0  0  0  0  0  0  0  0  0  0  0  0
   55.9115   31.8235   51.5062 H   0  0  0  0  0  0  0  0  0  0  0  0
   54.9728   30.2920   51.5062 H   0  0  0  0  0  0  0  0  0  0  0  0
  1  2  1  0
  2  3  1  0
  3  4  2  0
  4  5  1  0
  5  6  2  0
  6  7  1  0
  7  8  1  0
  8  9  2  0
  8 10  1  0
 10 11  1  0
 11 12  2  0
 12 13  1  0
 13 14  1  0
 14 15  2  0
 14 16  2  0
 14 17  1  0
 17 18  1  0
 18 19  1  0
 19 20  1  0
 20 21  1  0
 20 22  1  0
 22 23  1  0
 13 24  2  0
 24 25  1  0
 25 26  2  0
 26 27  1  0
  6 28  1  0
 28 29  2  0
 29 30  1  0
 30 31  1  0
 29  3  1  0
 26 11  1  0
 23 17  1  0
  1 32  1  0
  1 33  1  0
  1 34  1  0
  4 35  1  0
  5 36  1  0
  7 37  1  0
  7 38  1  0
 12 39  1  0
 18 40  1  0
 18 41  1  0
 19 42  1  0
 19 43  1  0
 20 44  1  0
 21 45  1  0
 21 46  1  0
 21 47  1  0
 22 48  1  0
 22 49  1  0
 23 50  1  0
 23 51  1  0
 24 52  1  0
 25 53  1  0
 28 54  1  0
 31 55  1  0
 31 56  1  0
 31 57  1  0
M  CHG  2  10  -1  27  -1
M  END
>  <UniqueID>  (71) 
69

>  <SMILES>  (71) 
COc1ccc(CC(=O)[N-]c2cc(S(=O)(=O)N3CCC(C)CC3)ccc2[O-])cc1OC

>  <Energy>  (71) 
63.701492598239554

>  <Genealogy>  (71) 
COc1ccc(CC(=O)[N-]c2cc(S(=O)(=O)N3CCC(C)CC3)ccc2[O-])cc1OC (protonated)
COc1ccc(CC(=O)[N-]c2cc(S(=O)(=O)N3CCC(C)CC3)ccc2[O-])cc1OC (3D coordinates assigned)
COc1ccc(CC(=O)[N-]c2cc(S(=O)(=O)N3CCC(C)CC3)ccc2[O-])cc1OC (nonaromatic ring conformer: 63.701492598239554 kcal/mol)

>  <smiles>  (71) 
COc1ccc(CC(=O)Nc2cc(S(=O)(=O)N3CCC(C)CC3)ccc2O)cc1OC

>  <score_type>  (71) 
oracle

>  <origin>  (71) 
adg

>  <m_score__min__energy>  (71) 
-14.359999999999999

>  <m_primary>  (71) 
energy

$$$$
71:0
     RDKit          3D

 58 61  0  0  0  0  0  0  0  0999 V2000
   59.9940   36.1800   46.3620 O   0  0  0  0  0  0  0  0  0  0  0  0
   59.5530   35.0230   46.1370 C   0  0  0  0  0  0  0  0  0  0  0  0
   59.6150   33.9660   47.2000 C   0  0  0  0  0  0  0  0  0  0  0  0
   58.4230   33.0020   47.0790 C   0  0  0  0  0  0  0  0  0  0  0  0
   58.2150   32.5330   45.6590 C   0  0  0  0  0  0  0  0  0  0  0  0
   57.6490   31.2740   45.4020 C   0  0  0  0  0  0  0  0  0  0  0  0
   57.3850   30.8720   44.0860 C   0  0  0  0  0  0  0  0  0  0  0  0
   56.6830   29.2850   43.7810 S   0  0  0  0  0  0  0  0  0  0  0  0
   57.7660   28.3460   43.3250 O   0  0  0  0  0  0  0  0  0  0  0  0
   55.6490   29.3770   42.6940 O   0  0  0  0  0  0  0  0  0  0  0  0
   55.9730   28.6670   45.2410 N   0  0  0  0  0  0  0  0  0  0  0  0
   56.9610   27.8900   45.9840 C   0  0  0  0  0  0  0  0  0  0  0  0
   56.6500   26.4340   45.8360 C   0  0  0  0  0  0  0  0  0  0  0  0
   55.9990   25.8530   46.7460 O   0  0  0  0  0  0  0  0  0  0  0  0
   57.0180   25.7370   44.6360 N   0  0  0  0  0  0  0  0  0  0  0  0
   56.8710   24.3170   44.4450 C   0  0  0  0  0  0  0  0  0  0  0  0
   56.7100   23.8130   43.1450 C   0  0  0  0  0  0  0  0  0  0  0  0
   56.5670   22.4380   42.9320 C   0  0  0  0  0  0  0  0  0  0  0  0
   56.5960   21.5530   44.0120 C   0  0  0  0  0  0  0  0  0  0  0  0
   56.7830   22.0380   45.3140 C   0  0  0  0  0  0  0  0  0  0  0  0
   56.8070   20.9410   46.6920 S   0  0  0  0  0  0  0  0  0  0  0  0
   57.3910   21.6660   47.8760 O   0  0  0  0  0  0  0  0  0  0  0  0
   57.6670   19.7450   46.3810 O   0  0  0  0  0  0  0  0  0  0  0  0
   55.1660   20.4340   47.0360 N   0  0  0  0  0  0  0  0  0  0  0  0
   54.9500   20.1990   48.4870 C   0  0  0  0  0  0  0  0  0  0  0  0
   53.9030   21.1280   49.1260 C   0  0  0  0  0  0  0  0  0  0  0  0
   54.0980   22.5640   48.6490 C   0  0  0  0  0  0  0  0  0  0  0  0
   54.0370   22.6770   47.1140 C   0  0  0  0  0  0  0  0  0  0  0  0
   54.1710   21.3200   46.4000 C   0  0  0  0  0  0  0  0  0  0  0  0
   56.9320   23.4180   45.5270 C   0  0  0  0  0  0  0  0  0  0  0  0
   57.6590   31.7450   43.0250 C   0  0  0  0  0  0  0  0  0  0  0  0
   58.2040   33.0070   43.2730 C   0  0  0  0  0  0  0  0  0  0  0  0
   58.4840   33.4040   44.5850 C   0  0  0  0  0  0  0  0  0  0  0  0
   59.0610   34.6900   44.8350 N   0  0  0  0  0  0  0  0  0  0  0  0
   60.5509   33.3984   47.0905 H   0  0  0  0  0  0  0  0  0  0  0  0
   59.5769   34.4532   48.1855 H   0  0  0  0  0  0  0  0  0  0  0  0
   58.6084   32.1263   47.7184 H   0  0  0  0  0  0  0  0  0  0  0  0
   57.5175   33.5411   47.3942 H   0  0  0  0  0  0  0  0  0  0  0  0
   57.4116   30.5998   46.2381 H   0  0  0  0  0  0  0  0  0  0  0  0
   57.9658   28.0945   45.5858 H   0  0  0  0  0  0  0  0  0  0  0  0
   56.9293   28.1697   47.0474 H   0  0  0  0  0  0  0  0  0  0  0  0
   57.3260   26.3080   43.8150 H   0  0  0  0  0  0  0  0  0  0  0  0
   56.6962   24.5033   42.2887 H   0  0  0  0  0  0  0  0  0  0  0  0
   56.4313   22.0525   41.9107 H   0  0  0  0  0  0  0  0  0  0  0  0
   56.4719   20.4735   43.8408 H   0  0  0  0  0  0  0  0  0  0  0  0
   54.6175   19.1592   48.6226 H   0  0  0  0  0  0  0  0  0  0  0  0
   55.9068   20.4085   48.9876 H   0  0  0  0  0  0  0  0  0  0  0  0
   52.8962   20.7866   48.8435 H   0  0  0  0  0  0  0  0  0  0  0  0
   54.0218   21.0979   50.2192 H   0  0  0  0  0  0  0  0  0  0  0  0
   53.3064   23.1926   49.0828 H   0  0  0  0  0  0  0  0  0  0  0  0
   55.0947   22.8970   48.9742 H   0  0  0  0  0  0  0  0  0  0  0  0
   53.0721   23.1252   46.8346 H   0  0  0  0  0  0  0  0  0  0  0  0
   54.8882   23.2980   46.7980 H   0  0  0  0  0  0  0  0  0  0  0  0
   53.1927   20.8172   46.4145 H   0  0  0  0  0  0  0  0  0  0  0  0
   54.5129   21.5185   45.3735 H   0  0  0  0  0  0  0  0  0  0  0  0
   57.0974   23.7991   46.5455 H   0  0  0  0  0  0  0  0  0  0  0  0
   57.4439   31.4351   41.9917 H   0  0  0  0  0  0  0  0  0  0  0  0
   58.4132   33.6893   42.4359 H   0  0  0  0  0  0  0  0  0  0  0  0
  1  2  2  0
  2  3  1  0
  3  4  1  0
  4  5  1  0
  5  6  2  0
  6  7  1  0
  7  8  1  0
  8  9  2  0
  8 10  2  0
  8 11  1  0
 11 12  1  0
 12 13  1  0
 13 14  2  0
 13 15  1  0
 15 16  1  0
 16 17  2  0
 17 18  1  0
 18 19  2  0
 19 20  1  0
 20 21  1  0
 21 22  2  0
 21 23  2  0
 21 24  1  0
 24 25  1  0
 25 26  1  0
 26 27  1  0
 27 28  1  0
 28 29  1  0
 20 30  2  0
  7 31  2  0
 31 32  1  0
 32 33  2  0
 33 34  1  0
 34  2  1  0
 33  5  1  0
 30 16  1  0
 29 24  1  0
  3 35  1  0
  3 36  1  0
  4 37  1  0
  4 38  1  0
  6 39  1  0
 12 40  1  0
 12 41  1  0
 15 42  1  0
 17 43  1  0
 18 44  1  0
 19 45  1  0
 25 46  1  0
 25 47  1  0
 26 48  1  0
 26 49  1  0
 27 50  1  0
 27 51  1  0
 28 52  1  0
 28 53  1  0
 29 54  1  0
 29 55  1  0
 30 56  1  0
 31 57  1  0
 32 58  1  0
M  CHG  2  11  -1  34  -1
M  END
>  <UniqueID>  (72) 
70

>  <SMILES>  (72) 
O=C1CCc2cc(S(=O)(=O)[N-]CC(=O)Nc3cccc(S(=O)(=O)N4CCCCC4)c3)ccc2[N-]1

>  <Energy>  (72) 
67.97007605835894

>  <Genealogy>  (72) 
O=C1CCc2cc(S(=O)(=O)[N-]CC(=O)Nc3cccc(S(=O)(=O)N4CCCCC4)c3)ccc2[N-]1 (protonated)
O=C1CCc2cc(S(=O)(=O)[N-]CC(=O)Nc3cccc(S(=O)(=O)N4CCCCC4)c3)ccc2[N-]1 (3D coordinates assigned)
O=C1CCc2cc(S(=O)(=O)[N-]CC(=O)Nc3cccc(S(=O)(=O)N4CCCCC4)c3)ccc2[N-]1 (nonaromatic ring conformer: 67.97007605835894 kcal/mol)

>  <smiles>  (72) 
O=C(CNS(=O)(=O)c1ccc2c(c1)CCC(=O)N2)Nc1cccc(S(=O)(=O)N2CCCCC2)c1

>  <score_type>  (72) 
oracle

>  <origin>  (72) 
adg

>  <m_score__min__energy>  (72) 
-13.56

>  <m_primary>  (72) 
energy

$$$$
72:0
     RDKit          3D

 54 57  0  0  0  0  0  0  0  0999 V2000
   59.0366   29.2123   47.3129 H   0  0  0  0  0  0  0  0  0  0  0  0
   58.7290   28.4170   46.6180 C   0  0  0  0  0  0  0  0  0  0  0  0
   58.8415   27.3613   46.9058 H   0  0  0  0  0  0  0  0  0  0  0  0
   58.2160   28.7350   45.4180 C   0  0  0  0  0  0  0  0  0  0  0  0
   57.7820   27.8380   44.4320 C   0  0  0  0  0  0  0  0  0  0  0  0
   57.8060   26.4900   44.4970 C   0  0  0  0  0  0  0  0  0  0  0  0
   58.2681   25.9550   43.6542 H   0  0  0  0  0  0  0  0  0  0  0  0
   57.2650   25.6690   45.6030 C   0  0  0  0  0  0  0  0  0  0  0  0
   57.8830   24.6290   46.1920 N   0  0  0  0  0  0  0  0  0  0  0  0
   57.0160   24.2500   47.1550 C   0  0  0  0  0  0  0  0  0  0  0  0
   57.2440   23.2850   47.9300 O   0  0  0  0  0  0  0  0  0  0  0  0
   55.8880   24.9870   47.2240 N   0  0  0  0  0  0  0  0  0  0  0  0
   56.0640   25.8830   46.2390 C   0  0  0  0  0  0  0  0  0  0  0  0
   55.1440   26.8760   45.9270 O   0  0  0  0  0  0  0  0  0  0  0  0
   57.2960   28.6220   43.3900 C   0  0  0  0  0  0  0  0  0  0  0  0
   56.8619   28.2612   42.4459 H   0  0  0  0  0  0  0  0  0  0  0  0
   57.4630   29.9390   43.7680 C   0  0  0  0  0  0  0  0  0  0  0  0
   57.0520   31.1200   42.9440 C   0  0  0  0  0  0  0  0  0  0  0  0
   56.7638   31.9481   43.6082 H   0  0  0  0  0  0  0  0  0  0  0  0
   57.8934   31.4349   42.3093 H   0  0  0  0  0  0  0  0  0  0  0  0
   56.1969   30.8445   42.3093 H   0  0  0  0  0  0  0  0  0  0  0  0
   58.0150   30.0090   45.0000 N   0  0  0  0  0  0  0  0  0  0  0  0
   58.3300   31.2210   45.7080 C   0  0  0  0  0  0  0  0  0  0  0  0
   57.3920   32.2600   45.7820 C   0  0  0  0  0  0  0  0  0  0  0  0
   56.4095   32.1468   45.3004 H   0  0  0  0  0  0  0  0  0  0  0  0
   57.7010   33.4400   46.4660 C   0  0  0  0  0  0  0  0  0  0  0  0
   56.9590   34.2500   46.5238 H   0  0  0  0  0  0  0  0  0  0  0  0
   58.9540   33.5950   47.0790 C   0  0  0  0  0  0  0  0  0  0  0  0
   59.2860   34.8520   47.8380 C   0  0  0  0  0  0  0  0  0  0  0  0
   59.6513   35.6147   47.1346 H   0  0  0  0  0  0  0  0  0  0  0  0
   58.3800   35.2120   48.3474 H   0  0  0  0  0  0  0  0  0  0  0  0
   60.3180   34.5840   48.8370 N   0  0  0  0  0  0  0  0  0  0  0  0
   61.2920   34.8820   48.6110 H   0  0  0  0  0  0  0  0  0  0  0  0
   60.0440   33.8500   50.0430 C   0  0  0  0  0  0  0  0  0  0  0  0
   58.9160   33.3130   50.2040 O   0  0  0  0  0  0  0  0  0  0  0  0
   61.0580   33.6740   51.1030 C   0  0  0  0  0  0  0  0  0  0  0  0
   60.7839   33.9338   52.1361 H   0  0  0  0  0  0  0  0  0  0  0  0
   62.2970   33.2130   50.8690 C   0  0  0  0  0  0  0  0  0  0  0  0
   62.9656   33.0624   51.7294 H   0  0  0  0  0  0  0  0  0  0  0  0
   62.8160   32.8950   49.5150 C   0  0  0  0  0  0  0  0  0  0  0  0
   63.5980   33.8000   48.7680 C   0  0  0  0  0  0  0  0  0  0  0  0
   63.8522   34.7828   49.1916 H   0  0  0  0  0  0  0  0  0  0  0  0
   64.0520   33.4540   47.4910 C   0  0  0  0  0  0  0  0  0  0  0  0
   64.6677   34.1623   46.9172 H   0  0  0  0  0  0  0  0  0  0  0  0
   63.7260   32.2130   46.9430 C   0  0  0  0  0  0  0  0  0  0  0  0
   64.0893   31.9421   45.9407 H   0  0  0  0  0  0  0  0  0  0  0  0
   62.9390   31.3150   47.6660 C   0  0  0  0  0  0  0  0  0  0  0  0
   62.6787   30.3388   47.2309 H   0  0  0  0  0  0  0  0  0  0  0  0
   62.4810   31.6550   48.9430 C   0  0  0  0  0  0  0  0  0  0  0  0
   61.8538   30.9468   49.5043 H   0  0  0  0  0  0  0  0  0  0  0  0
   59.8930   32.5540   47.0040 C   0  0  0  0  0  0  0  0  0  0  0  0
   60.8758   32.6665   47.4850 H   0  0  0  0  0  0  0  0  0  0  0  0
   59.5830   31.3750   46.3200 C   0  0  0  0  0  0  0  0  0  0  0  0
   60.3245   30.5646   46.2614 H   0  0  0  0  0  0  0  0  0  0  0  0
  1  2  1  0
  2  3  1  0
  2  4  2  0
  4  5  1  0
  5  6  2  0
  6  7  1  0
  6  8  1  0
  8  9  1  0
  9 10  1  0
 10 11  2  0
 10 12  1  0
 12 13  1  0
 13 14  1  0
  5 15  1  0
 15 16  1  0
 15 17  2  0
 17 18  1  0
 18 19  1  0
 18 20  1  0
 18 21  1  0
 17 22  1  0
 22 23  1  0
 23 24  2  0
 24 25  1  0
 24 26  1  0
 26 27  1  0
 26 28  2  0
 28 29  1  0
 29 30  1  0
 29 31  1  0
 29 32  1  0
 32 33  1  0
 32 34  1  0
 34 35  2  0
 34 36  1  0
 36 37  1  0
 36 38  2  0
 38 39  1  0
 38 40  1  0
 40 41  2  0
 41 42  1  0
 41 43  1  0
 43 44  1  0
 43 45  2  0
 45 46  1  0
 45 47  1  0
 47 48  1  0
 47 49  2  0
 49 50  1  0
 28 51  1  0
 51 52  1  0
 51 53  2  0
 53 54  1  0
 22  4  1  0
 53 23  1  0
 13  8  2  0
 49 40  1  0
M  CHG  3   9  -1  12  -1  14  -1
M  END
>  <UniqueID>  (73) 
71

>  <SMILES>  (73) 
C=c1/c(=C/c2[n-]c(=O)[n-]c2[O-])cc(C)n1-c1ccc(CNC(=O)/C=C/c2ccccc2)cc1

>  <Energy>  (73) 
127.52270799072753

>  <Genealogy>  (73) 
C=c1c(=Cc2[n-]c(=O)[n-]c2[O-])cc(C)n1-c1ccc(CNC(=O)C=Cc2ccccc2)cc1 (protonated)
C=c1/c(=C/c2[n-]c(=O)[n-]c2[O-])cc(C)n1-c1ccc(CNC(=O)/C=C/c2ccccc2)cc1 (cis-trans isomerization)
C=c1/c(=C/c2[n-]c(=O)[n-]c2[O-])cc(C)n1-c1ccc(CNC(=O)/C=C/c2ccccc2)cc1 (3D coordinates assigned)
C=c1/c(=C/c2[n-]c(=O)[n-]c2[O-])cc(C)n1-c1ccc(CNC(=O)/C=C/c2ccccc2)cc1 (optimized conformer: 127.52270799072753 kcal/mol)

>  <smiles>  (73) 
C=c1c(=Cc2[nH]c(=O)[nH]c2O)cc(C)n1-c1ccc(CNC(=O)C=Cc2ccccc2)cc1

>  <score_type>  (73) 
oracle

>  <origin>  (73) 
adg

>  <m_score__min__energy>  (73) 
-17.440000000000001

>  <m_primary>  (73) 
energy

$$$$
73:0
     RDKit          3D

 59 62  0  0  0  0  0  0  0  0999 V2000
   57.3410   26.8250   45.0580 C   0  0  0  0  0  0  0  0  0  0  0  0
   57.8410   28.1720   44.7260 N   0  0  0  0  0  0  0  0  0  0  0  0
   57.2950   28.7020   43.4510 C   0  0  0  0  0  0  0  0  0  0  0  0
   56.6630   30.0690   43.5430 C   0  0  0  0  0  0  0  0  0  0  0  0
   56.2500   30.6240   42.4870 O   0  0  0  0  0  0  0  0  0  0  0  0
   56.5770   30.7590   44.7950 N   0  0  0  0  0  0  0  0  0  0  0  0
   57.5110   31.7380   45.2650 C   0  0  0  0  0  0  0  0  0  0  0  0
   57.9070   31.7150   46.6070 C   0  0  0  0  0  0  0  0  0  0  0  0
   58.8570   32.6260   47.0790 C   0  0  0  0  0  0  0  0  0  0  0  0
   59.4570   33.5410   46.2080 C   0  0  0  0  0  0  0  0  0  0  0  0
   60.4110   34.4370   46.7110 O   0  0  0  0  0  0  0  0  0  0  0  0
   61.5530   34.0730   47.4390 C   0  0  0  0  0  0  0  0  0  0  0  0
   62.6780   33.5070   46.8160 C   0  0  0  0  0  0  0  0  0  0  0  0
   63.7860   33.1200   47.5770 C   0  0  0  0  0  0  0  0  0  0  0  0
   63.7890   33.2950   48.9720 C   0  0  0  0  0  0  0  0  0  0  0  0
   64.9300   32.8920   49.7540 N   0  0  0  0  0  0  0  0  0  0  0  0
   65.6950   33.7440   50.2540 O   0  0  0  0  0  0  0  0  0  0  0  0
   65.1790   31.5580   49.9890 O   0  0  0  0  0  0  0  0  0  0  0  0
   62.6590   33.8590   49.5890 C   0  0  0  0  0  0  0  0  0  0  0  0
   61.5490   34.2350   48.8270 C   0  0  0  0  0  0  0  0  0  0  0  0
   59.0610   33.5690   44.8590 C   0  0  0  0  0  0  0  0  0  0  0  0
   58.0960   32.6720   44.3910 C   0  0  0  0  0  0  0  0  0  0  0  0
   59.3120   28.2510   44.8510 C   0  0  0  0  0  0  0  0  0  0  0  0
   59.7130   28.8910   46.1560 C   0  0  0  0  0  0  0  0  0  0  0  0
   59.0410   28.5700   47.3460 C   0  0  0  0  0  0  0  0  0  0  0  0
   59.4170   29.1710   48.5510 C   0  0  0  0  0  0  0  0  0  0  0  0
   60.4750   30.0990   48.5890 C   0  0  0  0  0  0  0  0  0  0  0  0
   60.8670   30.7510   49.8660 C   0  0  0  0  0  0  0  0  0  0  0  0
   60.0010   31.6640   50.4990 C   0  0  0  0  0  0  0  0  0  0  0  0
   60.3660   32.2620   51.7090 C   0  0  0  0  0  0  0  0  0  0  0  0
   61.5960   31.9550   52.3010 C   0  0  0  0  0  0  0  0  0  0  0  0
   62.4630   31.0550   51.6830 C   0  0  0  0  0  0  0  0  0  0  0  0
   62.1050   30.4550   50.4700 C   0  0  0  0  0  0  0  0  0  0  0  0
   61.1480   30.4100   47.3950 C   0  0  0  0  0  0  0  0  0  0  0  0
   60.7690   29.8140   46.1900 C   0  0  0  0  0  0  0  0  0  0  0  0
   57.2979   26.7090   46.1510 H   0  0  0  0  0  0  0  0  0  0  0  0
   56.3340   26.6932   44.6353 H   0  0  0  0  0  0  0  0  0  0  0  0
   58.0181   26.0681   44.6353 H   0  0  0  0  0  0  0  0  0  0  0  0
   58.1188   28.7560   42.7241 H   0  0  0  0  0  0  0  0  0  0  0  0
   56.4911   28.0129   43.1528 H   0  0  0  0  0  0  0  0  0  0  0  0
   57.4686   30.9764   47.2942 H   0  0  0  0  0  0  0  0  0  0  0  0
   59.1345   32.6230   48.1434 H   0  0  0  0  0  0  0  0  0  0  0  0
   62.6875   33.3676   45.7249 H   0  0  0  0  0  0  0  0  0  0  0  0
   64.6612   32.6756   47.0805 H   0  0  0  0  0  0  0  0  0  0  0  0
   62.6481   34.0055   50.6791 H   0  0  0  0  0  0  0  0  0  0  0  0
   60.6653   34.6618   49.3239 H   0  0  0  0  0  0  0  0  0  0  0  0
   59.5117   34.2986   44.1701 H   0  0  0  0  0  0  0  0  0  0  0  0
   57.7927   32.6968   43.3339 H   0  0  0  0  0  0  0  0  0  0  0  0
   59.7314   27.2351   44.8054 H   0  0  0  0  0  0  0  0  0  0  0  0
   59.6998   28.8671   44.0264 H   0  0  0  0  0  0  0  0  0  0  0  0
   58.2156   27.8430   47.3303 H   0  0  0  0  0  0  0  0  0  0  0  0
   58.8815   28.9165   49.4775 H   0  0  0  0  0  0  0  0  0  0  0  0
   59.0321   31.9079   50.0388 H   0  0  0  0  0  0  0  0  0  0  0  0
   59.6849   32.9751   52.1964 H   0  0  0  0  0  0  0  0  0  0  0  0
   61.8792   32.4241   53.2548 H   0  0  0  0  0  0  0  0  0  0  0  0
   63.4301   30.8159   52.1494 H   0  0  0  0  0  0  0  0  0  0  0  0
   62.7945   29.7481   49.9854 H   0  0  0  0  0  0  0  0  0  0  0  0
   61.9804   31.1290   47.4096 H   0  0  0  0  0  0  0  0  0  0  0  0
   61.3016   30.0698   45.2622 H   0  0  0  0  0  0  0  0  0  0  0  0
  1  2  1  0
  2  3  1  0
  3  4  1  0
  4  5  2  0
  4  6  1  0
  6  7  1  0
  7  8  2  0
  8  9  1  0
  9 10  2  0
 10 11  1  0
 11 12  1  0
 12 13  2  0
 13 14  1  0
 14 15  2  0
 15 16  1  0
 16 17  2  0
 16 18  1  0
 15 19  1  0
 19 20  2  0
 10 21  1  0
 21 22  2  0
  2 23  1  0
 23 24  1  0
 24 25  2  0
 25 26  1  0
 26 27  2  0
 27 28  1  0
 28 29  2  0
 29 30  1  0
 30 31  2  0
 31 32  1  0
 32 33  2  0
 27 34  1  0
 34 35  2  0
 22  7  1  0
 35 24  1  0
 20 12  1  0
 33 28  1  0
  1 36  1  0
  1 37  1  0
  1 38  1  0
  3 39  1  0
  3 40  1  0
  8 41  1  0
  9 42  1  0
 13 43  1  0
 14 44  1  0
 19 45  1  0
 20 46  1  0
 21 47  1  0
 22 48  1  0
 23 49  1  0
 23 50  1  0
 25 51  1  0
 26 52  1  0
 29 53  1  0
 30 54  1  0
 31 55  1  0
 32 56  1  0
 33 57  1  0
 34 58  1  0
 35 59  1  0
M  CHG  3   6  -1  16   1  18  -1
M  END
>  <UniqueID>  (74) 
72

>  <SMILES>  (74) 
CN(CC(=O)[N-]c1ccc(Oc2ccc([N+](=O)[O-])cc2)cc1)Cc1ccc(-c2ccccc2)cc1

>  <Energy>  (74) 
85.71438088694899

>  <Genealogy>  (74) 
CN(CC(=O)[N-]c1ccc(Oc2ccc([N+](=O)[O-])cc2)cc1)Cc1ccc(-c2ccccc2)cc1 (protonated)
CN(CC(=O)[N-]c1ccc(Oc2ccc([N+](=O)[O-])cc2)cc1)Cc1ccc(-c2ccccc2)cc1 (3D coordinates assigned)
CN(CC(=O)[N-]c1ccc(Oc2ccc([N+](=O)[O-])cc2)cc1)Cc1ccc(-c2ccccc2)cc1 (optimized conformer: 85.71438088694899 kcal/mol)

>  <smiles>  (74) 
CN(CC(=O)Nc1ccc(Oc2ccc([N+](=O)[O-])cc2)cc1)Cc1ccc(-c2ccccc2)cc1

>  <score_type>  (74) 
oracle

>  <origin>  (74) 
adg

>  <m_score__min__energy>  (74) 
-10.94

>  <m_primary>  (74) 
energy

$$$$
74:0
     RDKit          3D

 27 28  0  0  0  0  0  0  0  0999 V2000
   56.2795   29.2365   43.4330 H   0  0  0  0  0  0  0  0  0  0  0  0
   56.7430   29.6930   44.3200 C   0  0  0  0  0  0  0  0  0  0  0  0
   56.3690   30.8790   44.6850 N   0  0  0  0  0  0  0  0  0  0  0  0
   57.2400   32.0160   44.7350 C   0  0  0  0  0  0  0  0  0  0  0  0
   57.9160   32.5690   43.6350 C   0  0  0  0  0  0  0  0  0  0  0  0
   57.7400   32.2380   42.2520 N   0  0  0  0  0  0  0  0  0  0  0  0
   58.5030   32.7060   41.3840 O   0  0  0  0  0  0  0  0  0  0  0  0
   56.8690   31.2330   41.9020 O   0  0  0  0  0  0  0  0  0  0  0  0
   58.8750   33.8430   44.1820 S   0  0  0  0  0  0  0  0  0  0  0  0
   58.3820   33.6550   45.7770 C   0  0  0  0  0  0  0  0  0  0  0  0
   58.8980   34.5830   47.0190 S   0  0  0  0  0  0  0  0  0  0  0  0
   57.4970   32.6440   45.9140 N   0  0  0  0  0  0  0  0  0  0  0  0
   57.0740   32.3580   46.8260 H   0  0  0  0  0  0  0  0  0  0  0  0
   57.7790   28.9320   45.0640 C   0  0  0  0  0  0  0  0  0  0  0  0
   58.1400   29.4160   46.3340 C   0  0  0  0  0  0  0  0  0  0  0  0
   57.6673   30.3308   46.7207 H   0  0  0  0  0  0  0  0  0  0  0  0
   59.0900   28.7510   47.1100 C   0  0  0  0  0  0  0  0  0  0  0  0
   59.3582   29.1410   48.1030 H   0  0  0  0  0  0  0  0  0  0  0  0
   59.6990   27.5950   46.6300 C   0  0  0  0  0  0  0  0  0  0  0  0
   60.4402   27.0674   47.2483 H   0  0  0  0  0  0  0  0  0  0  0  0
   59.3710   27.1050   45.3670 C   0  0  0  0  0  0  0  0  0  0  0  0
   59.8576   26.1911   44.9954 H   0  0  0  0  0  0  0  0  0  0  0  0
   58.4240   27.7660   44.5610 C   0  0  0  0  0  0  0  0  0  0  0  0
   58.1440   27.2100   43.1890 C   0  0  0  0  0  0  0  0  0  0  0  0
   57.6511   26.2312   43.2836 H   0  0  0  0  0  0  0  0  0  0  0  0
   57.4861   27.9004   42.6408 H   0  0  0  0  0  0  0  0  0  0  0  0
   59.0904   27.0925   42.6408 H   0  0  0  0  0  0  0  0  0  0  0  0
  1  2  1  0
  2  3  2  0
  3  4  1  0
  4  5  2  0
  5  6  1  0
  6  7  2  0
  6  8  1  0
  5  9  1  0
  9 10  1  0
 10 11  2  0
 10 12  1  0
 12 13  1  0
  2 14  1  0
 14 15  2  0
 15 16  1  0
 15 17  1  0
 17 18  1  0
 17 19  2  0
 19 20  1  0
 19 21  1  0
 21 22  1  0
 21 23  2  0
 23 24  1  0
 24 25  1  0
 24 26  1  0
 24 27  1  0
 12  4  1  0
 23 14  1  0
M  CHG  2   6   1   8  -1
M  END
>  <UniqueID>  (75) 
73

>  <SMILES>  (75) 
Cc1ccccc1/C=N/c1[nH]c(=S)sc1[N+](=O)[O-]

>  <Energy>  (75) 
68.5315751743103

>  <Genealogy>  (75) 
Cc1ccccc1/C=N/c1[nH]c(=S)sc1[N+](=O)[O-] (cis-trans isomerization)
Cc1ccccc1/C=N/c1[nH]c(=S)sc1[N+](=O)[O-] (3D coordinates assigned)
Cc1ccccc1/C=N/c1[nH]c(=S)sc1[N+](=O)[O-] (optimized conformer: 68.5315751743103 kcal/mol)

>  <smiles>  (75) 
Cc1ccccc1C=Nc1[nH]c(=S)sc1[N+](=O)[O-]

>  <score_type>  (75) 
oracle

>  <origin>  (75) 
adg

>  <m_score__min__energy>  (75) 
-7.0700000000000003

>  <m_primary>  (75) 
energy

$$$$
75:0
     RDKit          3D

 40 42  0  0  1  0  0  0  0  0999 V2000
   59.5640   35.5050   45.2320 C   0  0  0  0  0  0  0  0  0  0  0  0
   58.8580   34.2290   45.5200 C   0  0  0  0  0  0  0  0  0  0  0  0
   58.3840   33.4350   44.4960 C   0  0  0  0  0  0  0  0  0  0  0  0
   57.7190   32.2420   44.7120 C   0  0  0  0  0  0  0  0  0  0  0  0
   57.2830   31.5110   43.7250 N   0  0  0  0  0  0  0  0  0  0  0  0
   56.8140   30.2100   44.0520 C   0  0  0  0  0  0  0  0  0  0  0  0
   55.8800   30.0600   44.8950 O   0  0  0  0  0  0  0  0  0  0  0  0
   57.3670   28.9780   43.4500 C   0  0  0  0  0  0  0  0  0  0  0  0
   58.6740   28.2170   44.4390 S   0  0  0  0  0  0  0  0  0  0  0  0
   59.1480   29.2630   45.8130 C   0  0  0  0  0  0  0  0  0  0  0  0
   58.4870   29.5030   46.9600 N   0  0  0  0  0  0  0  0  0  0  0  0
   59.2290   30.3530   47.6840 N   0  0  0  0  0  0  0  0  0  0  0  0
   60.3540   30.6560   47.0120 C   0  0  0  0  0  0  0  0  0  0  0  0
   61.4550   31.5390   47.3980 C   0  0  0  0  0  0  0  0  0  0  0  0
   62.3020   31.2110   48.4610 C   0  0  0  0  0  0  0  0  0  0  0  0
   63.3400   32.0420   48.8250 C   0  0  0  0  0  0  0  0  0  0  0  0
   63.5550   33.2160   48.1390 C   0  0  0  0  0  0  0  0  0  0  0  0
   62.7360   33.5770   47.0770 C   0  0  0  0  0  0  0  0  0  0  0  0
   61.7080   32.7090   46.7520 C   0  0  0  0  0  0  0  0  0  0  0  0
   60.3080   29.9760   45.8390 N   0  0  0  0  0  0  0  0  0  0  0  0
   57.5530   31.8780   46.0010 N   0  0  0  0  0  0  0  0  0  0  0  0
   58.0010   32.6270   47.0130 N   0  0  0  0  0  0  0  0  0  0  0  0
   58.6470   33.7870   46.8080 C   0  0  0  0  0  0  0  0  0  0  0  0
   59.1580   34.6450   47.9070 C   0  0  0  0  0  0  0  0  0  0  0  0
   59.8354   35.9956   46.1784 H   0  0  0  0  0  0  0  0  0  0  0  0
   60.4754   35.2970   44.6522 H   0  0  0  0  0  0  0  0  0  0  0  0
   58.9036   36.1667   44.6522 H   0  0  0  0  0  0  0  0  0  0  0  0
   58.5425   33.7665   43.4592 H   0  0  0  0  0  0  0  0  0  0  0  0
   56.5502   28.2505   43.3333 H   0  0  0  0  0  0  0  0  0  0  0  0
   57.8140   29.2613   42.4857 H   0  0  0  0  0  0  0  0  0  0  0  0
   59.0060   30.7470   48.6350 H   0  0  0  0  0  0  0  0  0  0  0  0
   62.1376   30.2753   49.0155 H   0  0  0  0  0  0  0  0  0  0  0  0
   63.9965   31.7670   49.6637 H   0  0  0  0  0  0  0  0  0  0  0  0
   64.3843   33.8752   48.4351 H   0  0  0  0  0  0  0  0  0  0  0  0
   62.8971   34.5112   46.5190 H   0  0  0  0  0  0  0  0  0  0  0  0
   61.0507   32.9842   45.9140 H   0  0  0  0  0  0  0  0  0  0  0  0
   57.0530   30.9800   46.1960 H   0  0  0  0  0  0  0  0  0  0  0  0
   58.8914   34.1974   48.8758 H   0  0  0  0  0  0  0  0  0  0  0  0
   60.2522   34.7270   47.8296 H   0  0  0  0  0  0  0  0  0  0  0  0
   58.7089   35.6462   47.8296 H   0  0  0  0  0  0  0  0  0  0  0  0
  1  2  1  0
  2  3  2  0
  3  4  1  0
  4  5  2  0
  5  6  1  0
  6  7  2  0
  6  8  1  0
  8  9  1  0
  9 10  1  0
 10 11  2  0
 11 12  1  0
 12 13  1  0
 13 14  1  0
 14 15  2  0
 15 16  1  0
 16 17  2  0
 17 18  1  0
 18 19  2  0
 13 20  2  0
  4 21  1  0
 21 22  1  0
 22 23  2  0
 23 24  1  0
 23  2  1  0
 20 10  1  0
 19 14  1  0
  1 25  1  0
  1 26  1  0
  1 27  1  0
  3 28  1  0
  8 29  1  0
  8 30  1  0
 12 31  1  0
 15 32  1  0
 16 33  1  0
 17 34  1  0
 18 35  1  0
 19 36  1  0
 21 37  1  0
 24 38  1  0
 24 39  1  0
 24 40  1  0
M  END
>  <smiles>  (76) 
Cc1cc(=NC(=O)CSc2n[nH]c(-c3ccccc3)n2)[nH]nc1C

>  <score_type>  (76) 
oracle

>  <origin>  (76) 
adg

>  <m_score__min__energy>  (76) 
-9.3399999999999999

>  <m_primary>  (76) 
energy

$$$$
76:0
     RDKit          3D

 65 68  0  0  0  0  0  0  0  0999 V2000
   58.1260   26.6640   47.2890 O   0  0  0  0  0  0  0  0  0  0  0  0
   58.6970   27.6700   46.7940 C   0  0  0  0  0  0  0  0  0  0  0  0
   58.3190   28.1120   45.4050 C   0  0  0  0  0  0  0  0  0  0  0  0
   58.9110   29.4230   45.1080 N   0  0  0  0  0  0  0  0  0  0  0  0
   57.6590   30.5380   44.6480 S   0  0  0  0  0  0  0  0  0  0  0  0
   57.5350   30.5590   43.1510 O   0  0  0  0  0  0  0  0  0  0  0  0
   56.3490   30.0830   45.2300 O   0  0  0  0  0  0  0  0  0  0  0  0
   58.0530   32.1630   45.2130 C   0  0  0  0  0  0  0  0  0  0  0  0
   57.6320   33.2800   44.4770 C   0  0  0  0  0  0  0  0  0  0  0  0
   57.9860   34.5670   44.8900 C   0  0  0  0  0  0  0  0  0  0  0  0
   58.7580   34.7470   46.0410 C   0  0  0  0  0  0  0  0  0  0  0  0
   59.1780   33.6360   46.7940 C   0  0  0  0  0  0  0  0  0  0  0  0
   60.0200   33.8200   47.9970 C   0  0  0  0  0  0  0  0  0  0  0  0
   59.5860   34.5140   48.9590 O   0  0  0  0  0  0  0  0  0  0  0  0
   61.3450   33.2700   48.0690 N   0  0  0  0  0  0  0  0  0  0  0  0
   61.5810   31.8640   47.7010 C   0  0  0  0  0  0  0  0  0  0  0  0
   62.6460   31.2520   48.6180 C   0  0  0  0  0  0  0  0  0  0  0  0
   63.9650   32.0520   48.6090 C   0  0  0  0  0  0  0  0  0  0  0  0
   63.7950   33.5230   48.1840 C   0  0  0  0  0  0  0  0  0  0  0  0
   62.4360   34.0910   48.6080 C   0  0  0  0  0  0  0  0  0  0  0  0
   58.8360   32.3430   46.3600 C   0  0  0  0  0  0  0  0  0  0  0  0
   59.7390   28.3120   47.5440 N   0  0  0  0  0  0  0  0  0  0  0  0
   60.1070   28.0090   48.8980 C   0  0  0  0  0  0  0  0  0  0  0  0
   60.7380   26.7930   49.2060 C   0  0  0  0  0  0  0  0  0  0  0  0
   61.1080   26.5010   50.5200 C   0  0  0  0  0  0  0  0  0  0  0  0
   60.8760   27.4290   51.5350 C   0  0  0  0  0  0  0  0  0  0  0  0
   60.2810   28.6570   51.2360 C   0  0  0  0  0  0  0  0  0  0  0  0
   59.8990   28.9640   49.9180 C   0  0  0  0  0  0  0  0  0  0  0  0
   59.2170   30.2520   49.6420 C   0  0  0  0  0  0  0  0  0  0  0  0
   58.5340   30.3760   48.5870 O   0  0  0  0  0  0  0  0  0  0  0  0
   59.2880   31.3500   50.5710 N   0  0  0  0  0  0  0  0  0  0  0  0
   60.5800   31.7400   51.1480 C   0  0  0  0  0  0  0  0  0  0  0  0
   60.3500   32.4820   52.4680 C   0  0  0  0  0  0  0  0  0  0  0  0
   59.4520   33.5610   52.2850 O   0  0  0  0  0  0  0  0  0  0  0  0
   58.1730   33.0660   51.9360 C   0  0  0  0  0  0  0  0  0  0  0  0
   58.2170   32.3540   50.5790 C   0  0  0  0  0  0  0  0  0  0  0  0
   58.6871   27.3743   44.6768 H   0  0  0  0  0  0  0  0  0  0  0  0
   57.2238   28.1913   45.3406 H   0  0  0  0  0  0  0  0  0  0  0  0
   59.3350   29.8100   45.9810 H   0  0  0  0  0  0  0  0  0  0  0  0
   57.0216   33.1426   43.5723 H   0  0  0  0  0  0  0  0  0  0  0  0
   57.6564   35.4403   44.3080 H   0  0  0  0  0  0  0  0  0  0  0  0
   59.0383   35.7620   46.3593 H   0  0  0  0  0  0  0  0  0  0  0  0
   60.6432   31.2984   47.8042 H   0  0  0  0  0  0  0  0  0  0  0  0
   61.9326   31.8182   46.6597 H   0  0  0  0  0  0  0  0  0  0  0  0
   62.2549   31.2284   49.6459 H   0  0  0  0  0  0  0  0  0  0  0  0
   62.8663   30.2408   48.2453 H   0  0  0  0  0  0  0  0  0  0  0  0
   64.3909   32.0306   49.6230 H   0  0  0  0  0  0  0  0  0  0  0  0
   64.6235   31.5773   47.8667 H   0  0  0  0  0  0  0  0  0  0  0  0
   64.5911   34.1216   48.6508 H   0  0  0  0  0  0  0  0  0  0  0  0
   63.8540   33.5680   47.0865 H   0  0  0  0  0  0  0  0  0  0  0  0
   62.3740   34.0997   49.7062 H   0  0  0  0  0  0  0  0  0  0  0  0
   62.3394   35.1137   48.2147 H   0  0  0  0  0  0  0  0  0  0  0  0
   59.1859   31.4667   46.9254 H   0  0  0  0  0  0  0  0  0  0  0  0
   60.9421   26.0656   48.4065 H   0  0  0  0  0  0  0  0  0  0  0  0
   61.5834   25.5373   50.7553 H   0  0  0  0  0  0  0  0  0  0  0  0
   61.1615   27.1939   52.5710 H   0  0  0  0  0  0  0  0  0  0  0  0
   60.1099   29.3899   52.0382 H   0  0  0  0  0  0  0  0  0  0  0  0
   61.1843   30.8400   51.3344 H   0  0  0  0  0  0  0  0  0  0  0  0
   61.1097   32.4001   50.4453 H   0  0  0  0  0  0  0  0  0  0  0  0
   59.9296   31.7835   53.2065 H   0  0  0  0  0  0  0  0  0  0  0  0
   61.3124   32.8789   52.8232 H   0  0  0  0  0  0  0  0  0  0  0  0
   57.8391   32.3548   52.7059 H   0  0  0  0  0  0  0  0  0  0  0  0
   57.4737   33.9124   51.8678 H   0  0  0  0  0  0  0  0  0  0  0  0
   57.2521   31.8583   50.3967 H   0  0  0  0  0  0  0  0  0  0  0  0
   58.4119   33.0949   49.7897 H   0  0  0  0  0  0  0  0  0  0  0  0
  1  2  2  0
  2  3  1  0
  3  4  1  0
  4  5  1  0
  5  6  2  0
  5  7  2  0
  5  8  1  0
  8  9  2  0
  9 10  1  0
 10 11  2  0
 11 12  1  0
 12 13  1  0
 13 14  2  0
 13 15  1  0
 15 16  1  0
 16 17  1  0
 17 18  1  0
 18 19  1  0
 19 20  1  0
 12 21  2  0
  2 22  1  0
 22 23  1  0
 23 24  2  0
 24 25  1  0
 25 26  2  0
 26 27  1  0
 27 28  2  0
 28 29  1  0
 29 30  2  0
 29 31  1  0
 31 32  1  0
 32 33  1  0
 33 34  1  0
 34 35  1  0
 35 36  1  0
 21  8  1  0
 28 23  1  0
 36 31  1  0
 20 15  1  0
  3 37  1  0
  3 38  1  0
  4 39  1  0
  9 40  1  0
 10 41  1  0
 11 42  1  0
 16 43  1  0
 16 44  1  0
 17 45  1  0
 17 46  1  0
 18 47  1  0
 18 48  1  0
 19 49  1  0
 19 50  1  0
 20 51  1  0
 20 52  1  0
 21 53  1  0
 24 54  1  0
 25 55  1  0
 26 56  1  0
 27 57  1  0
 32 58  1  0
 32 59  1  0
 33 60  1  0
 33 61  1  0
 35 62  1  0
 35 63  1  0
 36 64  1  0
 36 65  1  0
M  CHG  1  22  -1
M  END
>  <UniqueID>  (77) 
74

>  <SMILES>  (77) 
O=C(CNS(=O)(=O)c1cccc(C(=O)N2CCCCC2)c1)[N-]c1ccccc1C(=O)N1CCOCC1

>  <Energy>  (77) 
79.8188711005014

>  <Genealogy>  (77) 
O=C(CNS(=O)(=O)c1cccc(C(=O)N2CCCCC2)c1)[N-]c1ccccc1C(=O)N1CCOCC1 (protonated)
O=C(CNS(=O)(=O)c1cccc(C(=O)N2CCCCC2)c1)[N-]c1ccccc1C(=O)N1CCOCC1 (3D coordinates assigned)
O=C(CNS(=O)(=O)c1cccc(C(=O)N2CCCCC2)c1)[N-]c1ccccc1C(=O)N1CCOCC1 (nonaromatic ring conformer: 79.8188711005014 kcal/mol)

>  <smiles>  (77) 
O=C(CNS(=O)(=O)c1cccc(C(=O)N2CCCCC2)c1)Nc1ccccc1C(=O)N1CCOCC1

>  <score_type>  (77) 
oracle

>  <origin>  (77) 
adg

>  <m_score__min__energy>  (77) 
-13.279999999999999

>  <m_primary>  (77) 
energy

$$$$
77:0
     RDKit          3D

 56 59  0  0  0  0  0  0  0  0999 V2000
   54.7360   27.4640   46.3820 H   0  0  0  0  0  0  0  0  0  0  0  0
   55.1110   26.5330   46.2660 O   0  0  0  0  0  0  0  0  0  0  0  0
   56.4370   26.2780   45.9740 N   0  0  0  0  0  0  0  0  0  0  0  0
   57.2860   27.1270   45.4670 C   0  0  0  0  0  0  0  0  0  0  0  0
   56.7440   28.3540   44.8530 C   0  0  0  0  0  0  0  0  0  0  0  0
   55.6550   28.8460   45.2560 O   0  0  0  0  0  0  0  0  0  0  0  0
   57.4630   28.9700   43.8240 O   0  0  0  0  0  0  0  0  0  0  0  0
   56.9700   30.0700   43.0670 C   0  0  0  0  0  0  0  0  0  0  0  0
   55.8753   29.9988   42.9856 H   0  0  0  0  0  0  0  0  0  0  0  0
   57.4124   30.0521   42.0601 H   0  0  0  0  0  0  0  0  0  0  0  0
   57.3400   31.3540   43.7570 C   0  0  0  0  0  0  0  0  0  0  0  0
   57.9760   32.2340   43.1210 O   0  0  0  0  0  0  0  0  0  0  0  0
   57.0130   31.5870   45.1350 N   0  0  0  0  0  0  0  0  0  0  0  0
   57.7520   32.4580   45.9960 C   0  0  0  0  0  0  0  0  0  0  0  0
   58.0550   33.7880   45.7670 C   0  0  0  0  0  0  0  0  0  0  0  0
   57.6240   34.5930   44.5800 C   0  0  0  0  0  0  0  0  0  0  0  0
   57.1305   35.5148   44.9217 H   0  0  0  0  0  0  0  0  0  0  0  0
   58.5043   34.8517   43.9732 H   0  0  0  0  0  0  0  0  0  0  0  0
   56.9207   34.0038   43.9732 H   0  0  0  0  0  0  0  0  0  0  0  0
   58.9360   34.1960   46.7160 N   0  0  0  0  0  0  0  0  0  0  0  0
   59.5770   35.5120   46.7700 C   0  0  0  0  0  0  0  0  0  0  0  0
   59.7207   35.8070   47.8199 H   0  0  0  0  0  0  0  0  0  0  0  0
   60.5533   35.4653   46.2653 H   0  0  0  0  0  0  0  0  0  0  0  0
   58.9384   36.2519   46.2653 H   0  0  0  0  0  0  0  0  0  0  0  0
   59.1560   33.1870   47.5600 N   0  0  0  0  0  0  0  0  0  0  0  0
   60.0170   33.2130   48.7140 C   0  0  0  0  0  0  0  0  0  0  0  0
   61.4050   33.3730   48.5540 C   0  0  0  0  0  0  0  0  0  0  0  0
   61.8262   33.5279   47.5497 H   0  0  0  0  0  0  0  0  0  0  0  0
   62.2520   33.3360   49.6660 C   0  0  0  0  0  0  0  0  0  0  0  0
   63.3382   33.4472   49.5328 H   0  0  0  0  0  0  0  0  0  0  0  0
   61.7210   33.1580   50.9460 C   0  0  0  0  0  0  0  0  0  0  0  0
   62.3875   33.1415   51.8209 H   0  0  0  0  0  0  0  0  0  0  0  0
   60.3430   33.0010   51.1140 C   0  0  0  0  0  0  0  0  0  0  0  0
   59.9253   32.8645   52.1224 H   0  0  0  0  0  0  0  0  0  0  0  0
   59.4930   33.0170   50.0030 C   0  0  0  0  0  0  0  0  0  0  0  0
   58.4106   32.8756   50.1390 H   0  0  0  0  0  0  0  0  0  0  0  0
   58.4470   32.1220   47.1350 C   0  0  0  0  0  0  0  0  0  0  0  0
   58.4090   31.0070   47.7220 O   0  0  0  0  0  0  0  0  0  0  0  0
   58.7780   26.8780   45.4550 C   0  0  0  0  0  0  0  0  0  0  0  0
   59.0029   26.0135   46.0970 H   0  0  0  0  0  0  0  0  0  0  0  0
   59.0907   26.6825   44.4187 H   0  0  0  0  0  0  0  0  0  0  0  0
   59.5310   28.0740   45.9620 C   0  0  0  0  0  0  0  0  0  0  0  0
   60.0920   29.0930   45.1940 C   0  0  0  0  0  0  0  0  0  0  0  0
   60.0035   29.1741   44.1006 H   0  0  0  0  0  0  0  0  0  0  0  0
   60.7600   29.9680   45.9790 N   0  0  0  0  0  0  0  0  0  0  0  0
   61.2780   30.8180   45.6650 H   0  0  0  0  0  0  0  0  0  0  0  0
   60.6340   29.5110   47.2350 C   0  0  0  0  0  0  0  0  0  0  0  0
   61.1830   30.0640   48.3910 C   0  0  0  0  0  0  0  0  0  0  0  0
   61.7915   30.9794   48.3485 H   0  0  0  0  0  0  0  0  0  0  0  0
   60.9340   29.4140   49.6140 C   0  0  0  0  0  0  0  0  0  0  0  0
   61.3502   29.8247   50.5457 H   0  0  0  0  0  0  0  0  0  0  0  0
   60.1540   28.2390   49.6530 C   0  0  0  0  0  0  0  0  0  0  0  0
   59.9616   27.7428   50.6157 H   0  0  0  0  0  0  0  0  0  0  0  0
   59.6200   27.6970   48.4680 C   0  0  0  0  0  0  0  0  0  0  0  0
   59.0140   26.7792   48.4865 H   0  0  0  0  0  0  0  0  0  0  0  0
   59.8840   28.3610   47.2700 C   0  0  0  0  0  0  0  0  0  0  0  0
  1  2  1  0
  2  3  1  0
  3  4  2  0
  4  5  1  0
  5  6  2  0
  5  7  1  0
  7  8  1  0
  8  9  1  0
  8 10  1  0
  8 11  1  0
 11 12  2  0
 11 13  1  0
 13 14  1  0
 14 15  2  0
 15 16  1  0
 16 17  1  0
 16 18  1  0
 16 19  1  0
 15 20  1  0
 20 21  1  0
 21 22  1  0
 21 23  1  0
 21 24  1  0
 20 25  1  0
 25 26  1  0
 26 27  2  0
 27 28  1  0
 27 29  1  0
 29 30  1  0
 29 31  2  0
 31 32  1  0
 31 33  1  0
 33 34  1  0
 33 35  2  0
 35 36  1  0
 25 37  1  0
 37 38  2  0
  4 39  1  0
 39 40  1  0
 39 41  1  0
 39 42  1  0
 42 43  2  0
 43 44  1  0
 43 45  1  0
 45 46  1  0
 45 47  1  0
 47 48  2  0
 48 49  1  0
 48 50  1  0
 50 51  1  0
 50 52  2  0
 52 53  1  0
 52 54  1  0
 54 55  1  0
 54 56  2  0
 37 14  1  0
 56 42  1  0
 35 26  1  0
 56 47  1  0
M  CHG  1  13  -1
M  END
>  <UniqueID>  (78) 
75

>  <SMILES>  (78) 
Cc1c([N-]C(=O)COC(=O)/C(Cc2c[nH]c3ccccc23)=N/O)c(=O)n(-c2ccccc2)n1C

>  <Energy>  (78) 
129.50810807280044

>  <Genealogy>  (78) 
Cc1c([N-]C(=O)COC(=O)C(Cc2c[nH]c3ccccc23)=NO)c(=O)n(-c2ccccc2)n1C (protonated)
Cc1c([N-]C(=O)COC(=O)/C(Cc2c[nH]c3ccccc23)=N/O)c(=O)n(-c2ccccc2)n1C (cis-trans isomerization)
Cc1c([N-]C(=O)COC(=O)/C(Cc2c[nH]c3ccccc23)=N/O)c(=O)n(-c2ccccc2)n1C (3D coordinates assigned)
Cc1c([N-]C(=O)COC(=O)/C(Cc2c[nH]c3ccccc23)=N/O)c(=O)n(-c2ccccc2)n1C (optimized conformer: 129.50810807280044 kcal/mol)

>  <smiles>  (78) 
Cc1c(NC(=O)COC(=O)C(Cc2c[nH]c3ccccc23)=NO)c(=O)n(-c2ccccc2)n1C

>  <score_type>  (78) 
oracle

>  <origin>  (78) 
adg

>  <m_score__min__energy>  (78) 
-12.6

>  <m_primary>  (78) 
energy

$$$$
78:0
     RDKit          3D

 59 62  0  0  0  0  0  0  0  0999 V2000
   59.4030   34.2500   49.7030 O   0  0  0  0  0  0  0  0  0  0  0  0
   59.3130   33.3540   48.8180 C   0  0  0  0  0  0  0  0  0  0  0  0
   59.3950   31.9750   49.1940 N   0  0  0  0  0  0  0  0  0  0  0  0
   60.5070   31.1170   48.8130 C   0  0  0  0  0  0  0  0  0  0  0  0
   61.7120   31.9630   48.5170 C   0  0  0  0  0  0  0  0  0  0  0  0
   62.5450   32.3990   49.5610 C   0  0  0  0  0  0  0  0  0  0  0  0
   63.6890   33.1540   49.2810 C   0  0  0  0  0  0  0  0  0  0  0  0
   64.0140   33.4690   47.9580 C   0  0  0  0  0  0  0  0  0  0  0  0
   63.1960   33.0280   46.9130 C   0  0  0  0  0  0  0  0  0  0  0  0
   62.0530   32.2710   47.1890 C   0  0  0  0  0  0  0  0  0  0  0  0
   59.1230   33.7310   47.3980 C   0  0  0  0  0  0  0  0  0  0  0  0
   59.6370   34.9430   46.9040 C   0  0  0  0  0  0  0  0  0  0  0  0
   59.4600   35.2940   45.5630 C   0  0  0  0  0  0  0  0  0  0  0  0
   58.7690   34.4420   44.7000 C   0  0  0  0  0  0  0  0  0  0  0  0
   58.2530   33.2260   45.1710 C   0  0  0  0  0  0  0  0  0  0  0  0
   57.4870   32.3210   44.2400 C   0  0  0  0  0  0  0  0  0  0  0  0
   56.9210   31.2190   44.9490 O   0  0  0  0  0  0  0  0  0  0  0  0
   57.6130   30.0570   45.3370 C   0  0  0  0  0  0  0  0  0  0  0  0
   58.9980   30.0490   45.5860 C   0  0  0  0  0  0  0  0  0  0  0  0
   59.6410   28.8670   45.9600 C   0  0  0  0  0  0  0  0  0  0  0  0
   58.9170   27.6710   46.1060 C   0  0  0  0  0  0  0  0  0  0  0  0
   59.6010   26.4240   46.5170 C   0  0  0  0  0  0  0  0  0  0  0  0
   60.8290   26.4420   46.8060 O   0  0  0  0  0  0  0  0  0  0  0  0
   58.8700   25.1960   46.6040 N   0  0  0  0  0  0  0  0  0  0  0  0
   58.5980   24.3570   45.4440 C   0  0  0  0  0  0  0  0  0  0  0  0
   57.1200   24.1140   45.3350 C   0  0  0  0  0  0  0  0  0  0  0  0
   56.6300   22.8670   44.9190 C   0  0  0  0  0  0  0  0  0  0  0  0
   55.2520   22.6510   44.8200 C   0  0  0  0  0  0  0  0  0  0  0  0
   54.3510   23.6770   45.1230 C   0  0  0  0  0  0  0  0  0  0  0  0
   52.9820   23.4340   45.0230 O   0  0  0  0  0  0  0  0  0  0  0  0
   54.8380   24.9330   45.5230 C   0  0  0  0  0  0  0  0  0  0  0  0
   53.9590   25.9690   45.8210 O   0  0  0  0  0  0  0  0  0  0  0  0
   56.2150   25.1490   45.6240 C   0  0  0  0  0  0  0  0  0  0  0  0
   57.5330   27.6840   45.8640 C   0  0  0  0  0  0  0  0  0  0  0  0
   56.8880   28.8660   45.4810 C   0  0  0  0  0  0  0  0  0  0  0  0
   55.5190   28.8550   45.2430 O   0  0  0  0  0  0  0  0  0  0  0  0
   58.4250   32.8790   46.5210 C   0  0  0  0  0  0  0  0  0  0  0  0
   60.7371   30.4266   49.6379 H   0  0  0  0  0  0  0  0  0  0  0  0
   60.2349   30.5394   47.9173 H   0  0  0  0  0  0  0  0  0  0  0  0
   62.2968   32.1458   50.6023 H   0  0  0  0  0  0  0  0  0  0  0  0
   64.3335   33.5002   50.1025 H   0  0  0  0  0  0  0  0  0  0  0  0
   64.9131   34.0637   47.7392 H   0  0  0  0  0  0  0  0  0  0  0  0
   63.4520   33.2769   45.8725 H   0  0  0  0  0  0  0  0  0  0  0  0
   61.4186   31.9154   46.3637 H   0  0  0  0  0  0  0  0  0  0  0  0
   60.1824   35.6198   47.5781 H   0  0  0  0  0  0  0  0  0  0  0  0
   59.8664   36.2443   45.1865 H   0  0  0  0  0  0  0  0  0  0  0  0
   58.6286   34.7254   43.6464 H   0  0  0  0  0  0  0  0  0  0  0  0
   56.6789   32.8956   43.7638 H   0  0  0  0  0  0  0  0  0  0  0  0
   58.1809   31.9304   43.4811 H   0  0  0  0  0  0  0  0  0  0  0  0
   59.5773   30.9787   45.4855 H   0  0  0  0  0  0  0  0  0  0  0  0
   60.7258   28.8720   46.1423 H   0  0  0  0  0  0  0  0  0  0  0  0
   58.9541   24.8629   44.5344 H   0  0  0  0  0  0  0  0  0  0  0  0
   59.1195   23.3952   45.5578 H   0  0  0  0  0  0  0  0  0  0  0  0
   57.3316   22.0571   44.6701 H   0  0  0  0  0  0  0  0  0  0  0  0
   54.8743   21.6681   44.5019 H   0  0  0  0  0  0  0  0  0  0  0  0
   52.2930   24.1590   45.1850 H   0  0  0  0  0  0  0  0  0  0  0  0
   56.5926   26.1353   45.9316 H   0  0  0  0  0  0  0  0  0  0  0  0
   56.9512   26.7573   45.9765 H   0  0  0  0  0  0  0  0  0  0  0  0
   58.0102   31.9321   46.8969 H   0  0  0  0  0  0  0  0  0  0  0  0
  1  2  2  0
  2  3  1  0
  3  4  1  0
  4  5  1  0
  5  6  2  0
  6  7  1  0
  7  8  2  0
  8  9  1  0
  9 10  2  0
  2 11  1  0
 11 12  2  0
 12 13  1  0
 13 14  2  0
 14 15  1  0
 15 16  1  0
 16 17  1  0
 17 18  1  0
 18 19  2  0
 19 20  1  0
 20 21  2  0
 21 22  1  0
 22 23  2  0
 22 24  1  0
 24 25  1  0
 25 26  1  0
 26 27  2  0
 27 28  1  0
 28 29  2  0
 29 30  1  0
 29 31  1  0
 31 32  1  0
 31 33  2  0
 21 34  1  0
 34 35  2  0
 35 36  1  0
 15 37  2  0
 10  5  1  0
 37 11  1  0
 35 18  1  0
 33 26  1  0
  4 38  1  0
  4 39  1  0
  6 40  1  0
  7 41  1  0
  8 42  1  0
  9 43  1  0
 10 44  1  0
 12 45  1  0
 13 46  1  0
 14 47  1  0
 16 48  1  0
 16 49  1  0
 19 50  1  0
 20 51  1  0
 25 52  1  0
 25 53  1  0
 27 54  1  0
 28 55  1  0
 30 56  1  0
 33 57  1  0
 34 58  1  0
 37 59  1  0
M  CHG  4   3  -1  24  -1  32  -1  36  -1
M  END
>  <UniqueID>  (79) 
76

>  <SMILES>  (79) 
O=C([N-]Cc1ccccc1)c1cccc(COc2ccc(C(=O)[N-]Cc3ccc(O)c([O-])c3)cc2[O-])c1

>  <Energy>  (79) 
60.58782379799327

>  <Genealogy>  (79) 
O=C([N-]Cc1ccccc1)c1cccc(COc2ccc(C(=O)[N-]Cc3ccc(O)c([O-])c3)cc2[O-])c1 (protonated)
O=C([N-]Cc1ccccc1)c1cccc(COc2ccc(C(=O)[N-]Cc3ccc(O)c([O-])c3)cc2[O-])c1 (3D coordinates assigned)
O=C([N-]Cc1ccccc1)c1cccc(COc2ccc(C(=O)[N-]Cc3ccc(O)c([O-])c3)cc2[O-])c1 (optimized conformer: 60.58782379799327 kcal/mol)

>  <smiles>  (79) 
O=C(NCc1ccccc1)c1cccc(COc2ccc(C(=O)NCc3ccc(O)c(O)c3)cc2O)c1

>  <score_type>  (79) 
oracle

>  <origin>  (79) 
adg

>  <m_score__min__energy>  (79) 
-19.75

>  <m_primary>  (79) 
energy

$$$$
79:0
     RDKit          3D

 59 63  0  0  0  0  0  0  0  0999 V2000
   56.6860   33.3510   45.1820 O   0  0  0  0  0  0  0  0  0  0  0  0
   57.4860   32.4840   45.6290 C   0  0  0  0  0  0  0  0  0  0  0  0
   57.4470   31.1150   45.0690 C   0  0  0  0  0  0  0  0  0  0  0  0
   57.2530   30.9110   43.6940 C   0  0  0  0  0  0  0  0  0  0  0  0
   57.2210   29.6160   43.1720 C   0  0  0  0  0  0  0  0  0  0  0  0
   57.3860   28.5150   44.0150 C   0  0  0  0  0  0  0  0  0  0  0  0
   57.5810   28.7000   45.3940 C   0  0  0  0  0  0  0  0  0  0  0  0
   57.7880   27.5100   46.2960 C   0  0  0  0  0  0  0  0  0  0  0  0
   56.7730   26.4310   46.0100 C   0  0  0  0  0  0  0  0  0  0  0  0
   55.4590   26.7220   46.2150 N   0  0  0  0  0  0  0  0  0  0  0  0
   54.4880   25.8570   45.9260 N   0  0  0  0  0  0  0  0  0  0  0  0
   54.7550   24.6380   45.3960 C   0  0  0  0  0  0  0  0  0  0  0  0
   53.8020   23.8640   45.1140 O   0  0  0  0  0  0  0  0  0  0  0  0
   56.0860   24.2630   45.1660 C   0  0  0  0  0  0  0  0  0  0  0  0
   57.1160   25.1630   45.4860 C   0  0  0  0  0  0  0  0  0  0  0  0
   58.5350   24.7410   45.1780 C   0  0  0  0  0  0  0  0  0  0  0  0
   58.7740   23.2830   45.6000 C   0  0  0  0  0  0  0  0  0  0  0  0
   57.6610   22.2980   45.1630 C   0  0  0  0  0  0  0  0  0  0  0  0
   56.4460   22.9600   44.4910 C   0  0  0  0  0  0  0  0  0  0  0  0
   57.5840   30.0050   45.9180 C   0  0  0  0  0  0  0  0  0  0  0  0
   58.4090   32.8430   46.6770 N   0  0  0  0  0  0  0  0  0  0  0  0
   58.8220   31.8650   47.6910 C   0  0  0  0  0  0  0  0  0  0  0  0
   58.9330   32.5540   49.0570 C   0  0  0  0  0  0  0  0  0  0  0  0
   59.8590   33.7190   49.0540 N   0  0  0  0  0  0  0  0  0  0  0  0
   61.1460   33.3820   49.7000 C   0  0  0  0  0  0  0  0  0  0  0  0
   62.1890   33.0270   48.6770 C   0  0  0  0  0  0  0  0  0  0  0  0
   62.3040   31.7470   48.1140 C   0  0  0  0  0  0  0  0  0  0  0  0
   63.3540   31.6290   47.2150 C   0  0  0  0  0  0  0  0  0  0  0  0
   64.1400   33.1130   47.1340 S   0  0  0  0  0  0  0  0  0  0  0  0
   63.1570   33.9210   48.2300 C   0  0  0  0  0  0  0  0  0  0  0  0
   60.0710   34.3290   47.7140 C   0  0  0  0  0  0  0  0  0  0  0  0
   58.8240   34.2410   46.8280 C   0  0  0  0  0  0  0  0  0  0  0  0
   57.1256   31.7746   43.0247 H   0  0  0  0  0  0  0  0  0  0  0  0
   57.0654   29.4629   42.0939 H   0  0  0  0  0  0  0  0  0  0  0  0
   57.3632   27.4977   43.5972 H   0  0  0  0  0  0  0  0  0  0  0  0
   58.7980   27.1061   46.1324 H   0  0  0  0  0  0  0  0  0  0  0  0
   57.6675   27.8364   47.3395 H   0  0  0  0  0  0  0  0  0  0  0  0
   58.7134   24.8375   44.0969 H   0  0  0  0  0  0  0  0  0  0  0  0
   59.2252   25.3883   45.7390 H   0  0  0  0  0  0  0  0  0  0  0  0
   59.7232   22.9479   45.1564 H   0  0  0  0  0  0  0  0  0  0  0  0
   58.7867   23.2733   46.6999 H   0  0  0  0  0  0  0  0  0  0  0  0
   58.0975   21.5809   44.4522 H   0  0  0  0  0  0  0  0  0  0  0  0
   57.2877   21.8226   46.0821 H   0  0  0  0  0  0  0  0  0  0  0  0
   56.6841   23.1574   43.4354 H   0  0  0  0  0  0  0  0  0  0  0  0
   55.5880   22.2769   44.5760 H   0  0  0  0  0  0  0  0  0  0  0  0
   57.6946   30.1575   47.0018 H   0  0  0  0  0  0  0  0  0  0  0  0
   58.0756   31.0590   47.7473 H   0  0  0  0  0  0  0  0  0  0  0  0
   59.7997   31.4435   47.4145 H   0  0  0  0  0  0  0  0  0  0  0  0
   57.9332   32.9032   49.3544 H   0  0  0  0  0  0  0  0  0  0  0  0
   59.3404   31.8152   49.7629 H   0  0  0  0  0  0  0  0  0  0  0  0
   61.4937   34.2485   50.2817 H   0  0  0  0  0  0  0  0  0  0  0  0
   60.9904   32.5129   50.3561 H   0  0  0  0  0  0  0  0  0  0  0  0
   61.6265   30.9166   48.3617 H   0  0  0  0  0  0  0  0  0  0  0  0
   63.6249   30.7228   46.6533 H   0  0  0  0  0  0  0  0  0  0  0  0
   63.2602   34.9714   48.5398 H   0  0  0  0  0  0  0  0  0  0  0  0
   60.3364   35.3883   47.8461 H   0  0  0  0  0  0  0  0  0  0  0  0
   60.8768   33.7706   47.2151 H   0  0  0  0  0  0  0  0  0  0  0  0
   58.0077   34.8145   47.2913 H   0  0  0  0  0  0  0  0  0  0  0  0
   59.0578   34.6556   45.8363 H   0  0  0  0  0  0  0  0  0  0  0  0
  1  2  2  0
  2  3  1  0
  3  4  2  0
  4  5  1  0
  5  6  2  0
  6  7  1  0
  7  8  1  0
  8  9  1  0
  9 10  2  0
 10 11  1  0
 11 12  1  0
 12 13  2  0
 12 14  1  0
 14 15  2  0
 15 16  1  0
 16 17  1  0
 17 18  1  0
 18 19  1  0
  7 20  2  0
  2 21  1  0
 21 22  1  0
 22 23  1  0
 23 24  1  0
 24 25  1  0
 25 26  1  0
 26 27  1  0
 27 28  2  0
 28 29  1  0
 29 30  1  0
 24 31  1  0
 31 32  1  0
 20  3  1  0
 32 21  1  0
 15  9  1  0
 30 26  2  0
 19 14  1  0
  4 33  1  0
  5 34  1  0
  6 35  1  0
  8 36  1  0
  8 37  1  0
 16 38  1  0
 16 39  1  0
 17 40  1  0
 17 41  1  0
 18 42  1  0
 18 43  1  0
 19 44  1  0
 19 45  1  0
 20 46  1  0
 22 47  1  0
 22 48  1  0
 23 49  1  0
 23 50  1  0
 25 51  1  0
 25 52  1  0
 27 53  1  0
 28 54  1  0
 30 55  1  0
 31 56  1  0
 31 57  1  0
 32 58  1  0
 32 59  1  0
M  CHG  1  11  -1
M  END
>  <UniqueID>  (80) 
77

>  <SMILES>  (80) 
O=C(c1cccc(Cc2n[n-]c(=O)c3c2CCCC3)c1)N1CCN(Cc2ccsc2)CC1

>  <Energy>  (80) 
107.55531984941668

>  <Genealogy>  (80) 
O=C(c1cccc(Cc2n[n-]c(=O)c3c2CCCC3)c1)N1CCN(Cc2ccsc2)CC1 (protonated)
O=C(c1cccc(Cc2n[n-]c(=O)c3c2CCCC3)c1)N1CCN(Cc2ccsc2)CC1 (3D coordinates assigned)
O=C(c1cccc(Cc2n[n-]c(=O)c3c2CCCC3)c1)N1CCN(Cc2ccsc2)CC1 (nonaromatic ring conformer: 107.55531984941668 kcal/mol)

>  <smiles>  (80) 
O=C(c1cccc(Cc2n[nH]c(=O)c3c2CCCC3)c1)N1CCN(Cc2ccsc2)CC1

>  <score_type>  (80) 
oracle

>  <origin>  (80) 
adg

>  <m_score__min__energy>  (80) 
-13.84

>  <m_primary>  (80) 
energy

$$$$
80:0
     RDKit          3D

 57 60  0  0  0  0  0  0  0  0999 V2000
   58.9430   29.0750   48.7470 C   0  0  0  0  0  0  0  0  0  0  0  0
   59.0760   30.5220   48.9010 N   0  0  0  0  0  0  0  0  0  0  0  0
   59.6160   31.3510   47.9840 C   0  0  0  0  0  0  0  0  0  0  0  0
   59.5600   32.6470   48.4500 C   0  0  0  0  0  0  0  0  0  0  0  0
   60.0550   33.7980   47.7520 N   0  0  0  0  0  0  0  0  0  0  0  0
   59.3870   34.3820   46.5890 C   0  0  0  0  0  0  0  0  0  0  0  0
   58.0980   33.6320   46.2640 C   0  0  0  0  0  0  0  0  0  0  0  0
   58.4100   32.4650   45.4470 N   0  0  0  0  0  0  0  0  0  0  0  0
   57.4810   31.4360   45.0900 C   0  0  0  0  0  0  0  0  0  0  0  0
   56.3010   31.7590   44.7930 O   0  0  0  0  0  0  0  0  0  0  0  0
   57.8770   30.0160   45.0240 C   0  0  0  0  0  0  0  0  0  0  0  0
   59.2370   29.6840   44.8860 C   0  0  0  0  0  0  0  0  0  0  0  0
   59.6370   28.3460   44.8420 C   0  0  0  0  0  0  0  0  0  0  0  0
   58.6890   27.3260   44.9520 C   0  0  0  0  0  0  0  0  0  0  0  0
   57.3360   27.6440   45.0990 C   0  0  0  0  0  0  0  0  0  0  0  0
   56.9180   28.9810   45.1270 C   0  0  0  0  0  0  0  0  0  0  0  0
   55.5500   29.2450   45.2370 O   0  0  0  0  0  0  0  0  0  0  0  0
   58.9510   32.6220   49.6910 C   0  0  0  0  0  0  0  0  0  0  0  0
   58.6670   31.2890   49.9420 C   0  0  0  0  0  0  0  0  0  0  0  0
   58.0410   30.7960   51.1850 C   0  0  0  0  0  0  0  0  0  0  0  0
   58.7650   30.4510   52.1600 O   0  0  0  0  0  0  0  0  0  0  0  0
   56.6060   30.7450   51.2620 N   0  0  0  0  0  0  0  0  0  0  0  0
   55.7490   30.3760   52.3560 C   0  0  0  0  0  0  0  0  0  0  0  0
   56.1860   29.6160   53.4590 C   0  0  0  0  0  0  0  0  0  0  0  0
   55.2970   29.3020   54.4920 C   0  0  0  0  0  0  0  0  0  0  0  0
   53.9720   29.7280   54.4330 C   0  0  0  0  0  0  0  0  0  0  0  0
   53.5140   30.4630   53.3310 C   0  0  0  0  0  0  0  0  0  0  0  0
   52.0880   30.9290   53.2670 C   0  0  0  0  0  0  0  0  0  0  0  0
   51.6650   31.1210   51.8460 C   0  0  0  0  0  0  0  0  0  0  0  0
   51.8830   30.2210   50.8690 N   0  0  0  0  0  0  0  0  0  0  0  0
   51.3820   30.8260   49.7720 C   0  0  0  0  0  0  0  0  0  0  0  0
   51.3970   30.2840   48.6320 O   0  0  0  0  0  0  0  0  0  0  0  0
   50.8680   32.0570   49.9880 N   0  0  0  0  0  0  0  0  0  0  0  0
   51.0580   32.2290   51.3080 C   0  0  0  0  0  0  0  0  0  0  0  0
   50.6970   33.3800   51.9980 O   0  0  0  0  0  0  0  0  0  0  0  0
   54.4100   30.7910   52.3030 C   0  0  0  0  0  0  0  0  0  0  0  0
   58.8996   28.6031   49.7397 H   0  0  0  0  0  0  0  0  0  0  0  0
   58.0203   28.8485   48.1927 H   0  0  0  0  0  0  0  0  0  0  0  0
   59.8090   28.6841   48.1927 H   0  0  0  0  0  0  0  0  0  0  0  0
   60.0355   31.0411   47.0155 H   0  0  0  0  0  0  0  0  0  0  0  0
   60.9830   34.1870   48.0370 H   0  0  0  0  0  0  0  0  0  0  0  0
   59.1468   35.4339   46.8029 H   0  0  0  0  0  0  0  0  0  0  0  0
   60.0624   34.3088   45.7238 H   0  0  0  0  0  0  0  0  0  0  0  0
   57.6164   33.3078   47.1983 H   0  0  0  0  0  0  0  0  0  0  0  0
   57.4158   34.2954   45.7121 H   0  0  0  0  0  0  0  0  0  0  0  0
   59.9900   30.4825   44.8123 H   0  0  0  0  0  0  0  0  0  0  0  0
   60.7011   28.0952   44.7204 H   0  0  0  0  0  0  0  0  0  0  0  0
   59.0071   26.2734   44.9230 H   0  0  0  0  0  0  0  0  0  0  0  0
   56.5933   26.8381   45.1935 H   0  0  0  0  0  0  0  0  0  0  0  0
   55.1880   30.0880   45.6650 H   0  0  0  0  0  0  0  0  0  0  0  0
   58.7365   33.4813   50.3433 H   0  0  0  0  0  0  0  0  0  0  0  0
   57.2287   29.2689   53.5078 H   0  0  0  0  0  0  0  0  0  0  0  0
   55.6457   28.7159   55.3551 H   0  0  0  0  0  0  0  0  0  0  0  0
   53.2821   29.4864   55.2550 H   0  0  0  0  0  0  0  0  0  0  0  0
   51.4394   30.1767   53.7396 H   0  0  0  0  0  0  0  0  0  0  0  0
   52.0025   31.8890   53.7972 H   0  0  0  0  0  0  0  0  0  0  0  0
   54.0582   31.3813   51.4441 H   0  0  0  0  0  0  0  0  0  0  0  0
  1  2  1  0
  2  3  1  0
  3  4  2  0
  4  5  1  0
  5  6  1  0
  6  7  1  0
  7  8  1  0
  8  9  1  0
  9 10  2  0
  9 11  1  0
 11 12  2  0
 12 13  1  0
 13 14  2  0
 14 15  1  0
 15 16  2  0
 16 17  1  0
  4 18  1  0
 18 19  2  0
 19 20  1  0
 20 21  2  0
 20 22  1  0
 22 23  1  0
 23 24  2  0
 24 25  1  0
 25 26  2  0
 26 27  1  0
 27 28  1  0
 28 29  1  0
 29 30  1  0
 30 31  1  0
 31 32  2  0
 31 33  1  0
 33 34  1  0
 34 35  1  0
 27 36  2  0
 19  2  1  0
 36 23  1  0
 16 11  1  0
 34 29  2  0
  1 37  1  0
  1 38  1  0
  1 39  1  0
  3 40  1  0
  5 41  1  0
  6 42  1  0
  6 43  1  0
  7 44  1  0
  7 45  1  0
 12 46  1  0
 13 47  1  0
 14 48  1  0
 15 49  1  0
 17 50  1  0
 18 51  1  0
 24 52  1  0
 25 53  1  0
 26 54  1  0
 28 55  1  0
 28 56  1  0
 36 57  1  0
M  CHG  5   8  -1  22  -1  30  -1  33  -1  35  -1
M  END
>  <UniqueID>  (81) 
78

>  <SMILES>  (81) 
Cn1cc(NCC[N-]C(=O)c2ccccc2O)cc1C(=O)[N-]c1cccc(Cc2[n-]c(=O)[n-]c2[O-])c1

>  <Energy>  (81) 
120.25224169059604

>  <Genealogy>  (81) 
Cn1cc(NCC[N-]C(=O)c2ccccc2O)cc1C(=O)[N-]c1cccc(Cc2[n-]c(=O)[n-]c2[O-])c1 (protonated)
Cn1cc(NCC[N-]C(=O)c2ccccc2O)cc1C(=O)[N-]c1cccc(Cc2[n-]c(=O)[n-]c2[O-])c1 (3D coordinates assigned)
Cn1cc(NCC[N-]C(=O)c2ccccc2O)cc1C(=O)[N-]c1cccc(Cc2[n-]c(=O)[n-]c2[O-])c1 (optimized conformer: 120.25224169059604 kcal/mol)

>  <smiles>  (81) 
Cn1cc(NCCNC(=O)c2ccccc2O)cc1C(=O)Nc1cccc(Cc2[nH]c(=O)[nH]c2O)c1

>  <score_type>  (81) 
oracle

>  <origin>  (81) 
adg

>  <m_score__min__energy>  (81) 
-22.280000000000001

>  <m_primary>  (81) 
energy

$$$$
81:0
     RDKit          3D

 54 56  0  0  0  0  0  0  0  0999 V2000
   60.6210   28.8890   44.7190 C   0  0  0  0  0  0  0  0  0  0  0  0
   60.2500   28.6580   46.1570 C   0  0  0  0  0  0  0  0  0  0  0  0
   60.8740   29.4030   47.1720 C   0  0  0  0  0  0  0  0  0  0  0  0
   60.5400   29.1900   48.5110 C   0  0  0  0  0  0  0  0  0  0  0  0
   59.5860   28.2300   48.8480 C   0  0  0  0  0  0  0  0  0  0  0  0
   58.9620   27.4770   47.8500 C   0  0  0  0  0  0  0  0  0  0  0  0
   59.2890   27.6830   46.4940 C   0  0  0  0  0  0  0  0  0  0  0  0
   58.6880   26.9410   45.4600 O   0  0  0  0  0  0  0  0  0  0  0  0
   57.4810   26.1890   45.5760 C   0  0  0  0  0  0  0  0  0  0  0  0
   56.2930   27.0970   45.6220 C   0  0  0  0  0  0  0  0  0  0  0  0
   55.1830   26.6570   46.0260 O   0  0  0  0  0  0  0  0  0  0  0  0
   56.4360   28.4690   45.2440 N   0  0  0  0  0  0  0  0  0  0  0  0
   57.2430   28.9210   44.1140 C   0  0  0  0  0  0  0  0  0  0  0  0
   56.7830   30.2640   43.6100 C   0  0  0  0  0  0  0  0  0  0  0  0
   56.6010   30.4150   42.3740 O   0  0  0  0  0  0  0  0  0  0  0  0
   56.5090   31.3680   44.4860 N   0  0  0  0  0  0  0  0  0  0  0  0
   57.3900   31.9090   45.4770 C   0  0  0  0  0  0  0  0  0  0  0  0
   58.0430   31.0820   46.4060 C   0  0  0  0  0  0  0  0  0  0  0  0
   58.9080   31.6350   47.3540 C   0  0  0  0  0  0  0  0  0  0  0  0
   59.1490   33.0160   47.3690 C   0  0  0  0  0  0  0  0  0  0  0  0
   60.2220   33.7180   48.5790 S   0  0  0  0  0  0  0  0  0  0  0  0
   59.5870   34.9690   49.1200 O   0  0  0  0  0  0  0  0  0  0  0  0
   60.3640   32.7510   49.7220 O   0  0  0  0  0  0  0  0  0  0  0  0
   61.8110   34.1070   47.9550 N   0  0  0  0  0  0  0  0  0  0  0  0
   62.8500   34.1860   49.0010 C   0  0  0  0  0  0  0  0  0  0  0  0
   63.5680   32.8490   49.2230 C   0  0  0  0  0  0  0  0  0  0  0  0
   64.0570   32.3320   48.0040 O   0  0  0  0  0  0  0  0  0  0  0  0
   62.9650   32.0270   47.1650 C   0  0  0  0  0  0  0  0  0  0  0  0
   62.1980   33.3000   46.7820 C   0  0  0  0  0  0  0  0  0  0  0  0
   58.5060   33.8390   46.4350 C   0  0  0  0  0  0  0  0  0  0  0  0
   57.6430   33.2840   45.4850 C   0  0  0  0  0  0  0  0  0  0  0  0
   61.5538   29.4698   44.6698 H   0  0  0  0  0  0  0  0  0  0  0  0
   60.7651   27.9207   44.2174 H   0  0  0  0  0  0  0  0  0  0  0  0
   59.8156   29.4456   44.2174 H   0  0  0  0  0  0  0  0  0  0  0  0
   61.6298   30.1582   46.9103 H   0  0  0  0  0  0  0  0  0  0  0  0
   61.0294   29.7795   49.3003 H   0  0  0  0  0  0  0  0  0  0  0  0
   59.3238   28.0650   49.9035 H   0  0  0  0  0  0  0  0  0  0  0  0
   58.2122   26.7200   48.1235 H   0  0  0  0  0  0  0  0  0  0  0  0
   57.3891   25.5182   44.7091 H   0  0  0  0  0  0  0  0  0  0  0  0
   57.5163   25.6063   46.5083 H   0  0  0  0  0  0  0  0  0  0  0  0
   58.2928   28.9992   44.4330 H   0  0  0  0  0  0  0  0  0  0  0  0
   57.1352   28.1906   43.2985 H   0  0  0  0  0  0  0  0  0  0  0  0
   57.8728   29.9954   46.3871 H   0  0  0  0  0  0  0  0  0  0  0  0
   59.4015   30.9845   48.0910 H   0  0  0  0  0  0  0  0  0  0  0  0
   63.5936   34.9396   48.7024 H   0  0  0  0  0  0  0  0  0  0  0  0
   62.3527   34.4571   49.9440 H   0  0  0  0  0  0  0  0  0  0  0  0
   64.4108   33.0029   49.9130 H   0  0  0  0  0  0  0  0  0  0  0  0
   62.8508   32.1308   49.6471 H   0  0  0  0  0  0  0  0  0  0  0  0
   63.3375   31.5419   46.2507 H   0  0  0  0  0  0  0  0  0  0  0  0
   62.2829   31.3543   47.7056 H   0  0  0  0  0  0  0  0  0  0  0  0
   62.8369   33.9126   46.1289 H   0  0  0  0  0  0  0  0  0  0  0  0
   61.2736   32.9900   46.2727 H   0  0  0  0  0  0  0  0  0  0  0  0
   58.6806   34.9250   46.4491 H   0  0  0  0  0  0  0  0  0  0  0  0
   57.1603   33.9331   44.7395 H   0  0  0  0  0  0  0  0  0  0  0  0
  1  2  1  0
  2  3  2  0
  3  4  1  0
  4  5  2  0
  5  6  1  0
  6  7  2  0
  7  8  1  0
  8  9  1  0
  9 10  1  0
 10 11  2  0
 10 12  1  0
 12 13  1  0
 13 14  1  0
 14 15  2  0
 14 16  1  0
 16 17  1  0
 17 18  2  0
 18 19  1  0
 19 20  2  0
 20 21  1  0
 21 22  2  0
 21 23  2  0
 21 24  1  0
 24 25  1  0
 25 26  1  0
 26 27  1  0
 27 28  1  0
 28 29  1  0
 20 30  1  0
 30 31  2  0
  7  2  1  0
 31 17  1  0
 29 24  1  0
  1 32  1  0
  1 33  1  0
  1 34  1  0
  3 35  1  0
  4 36  1  0
  5 37  1  0
  6 38  1  0
  9 39  1  0
  9 40  1  0
 13 41  1  0
 13 42  1  0
 18 43  1  0
 19 44  1  0
 25 45  1  0
 25 46  1  0
 26 47  1  0
 26 48  1  0
 28 49  1  0
 28 50  1  0
 29 51  1  0
 29 52  1  0
 30 53  1  0
 31 54  1  0
M  CHG  2  12  -1  16  -1
M  END
>  <UniqueID>  (82) 
79

>  <SMILES>  (82) 
Cc1ccccc1OCC(=O)[N-]CC(=O)[N-]c1ccc(S(=O)(=O)N2CCOCC2)cc1

>  <Energy>  (82) 
61.53330906294435

>  <Genealogy>  (82) 
Cc1ccccc1OCC(=O)[N-]CC(=O)[N-]c1ccc(S(=O)(=O)N2CCOCC2)cc1 (protonated)
Cc1ccccc1OCC(=O)[N-]CC(=O)[N-]c1ccc(S(=O)(=O)N2CCOCC2)cc1 (3D coordinates assigned)
Cc1ccccc1OCC(=O)[N-]CC(=O)[N-]c1ccc(S(=O)(=O)N2CCOCC2)cc1 (nonaromatic ring conformer: 61.53330906294435 kcal/mol)

>  <smiles>  (82) 
Cc1ccccc1OCC(=O)NCC(=O)Nc1ccc(S(=O)(=O)N2CCOCC2)cc1

>  <score_type>  (82) 
oracle

>  <origin>  (82) 
adg

>  <m_score__min__energy>  (82) 
-12.44

>  <m_primary>  (82) 
energy

$$$$
82:0
     RDKit          3D

 38 40  0  0  0  0  0  0  0  0999 V2000
   57.3930   31.9450   42.8470 C   0  0  0  0  0  0  0  0  0  0  0  0
   57.6500   31.8800   44.1700 C   0  0  0  0  0  0  0  0  0  0  0  0
   57.6280   33.0740   44.9430 C   0  0  0  0  0  0  0  0  0  0  0  0
   57.0090   34.2480   44.4990 O   0  0  0  0  0  0  0  0  0  0  0  0
   58.2480   33.1140   46.1960 C   0  0  0  0  0  0  0  0  0  0  0  0
   58.2590   34.3100   46.9090 O   0  0  0  0  0  0  0  0  0  0  0  0
   58.8560   31.9710   46.7290 C   0  0  0  0  0  0  0  0  0  0  0  0
   59.5940   32.0220   48.0440 C   0  0  0  0  0  0  0  0  0  0  0  0
   61.0310   32.4100   47.8210 C   0  0  0  0  0  0  0  0  0  0  0  0
   62.0650   31.6650   48.4130 C   0  0  0  0  0  0  0  0  0  0  0  0
   63.4010   32.0040   48.1780 C   0  0  0  0  0  0  0  0  0  0  0  0
   63.7150   33.0820   47.3460 C   0  0  0  0  0  0  0  0  0  0  0  0
   62.6920   33.8220   46.7460 C   0  0  0  0  0  0  0  0  0  0  0  0
   61.3550   33.4870   46.9780 C   0  0  0  0  0  0  0  0  0  0  0  0
   58.7850   30.7650   46.0240 C   0  0  0  0  0  0  0  0  0  0  0  0
   58.1100   30.6690   44.7910 C   0  0  0  0  0  0  0  0  0  0  0  0
   57.9280   29.4160   44.2930 C   0  0  0  0  0  0  0  0  0  0  0  0
   57.4020   28.2440   45.0330 C   0  0  0  0  0  0  0  0  0  0  0  0
   56.0230   28.1200   45.2590 C   0  0  0  0  0  0  0  0  0  0  0  0
   55.1440   29.1090   44.8320 O   0  0  0  0  0  0  0  0  0  0  0  0
   55.5350   27.0320   45.9090 N   0  0  0  0  0  0  0  0  0  0  0  0
   56.3600   26.0430   46.3380 C   0  0  0  0  0  0  0  0  0  0  0  0
   55.8860   25.0480   46.9430 O   0  0  0  0  0  0  0  0  0  0  0  0
   57.6950   26.1240   46.1050 N   0  0  0  0  0  0  0  0  0  0  0  0
   58.2330   27.1890   45.4580 C   0  0  0  0  0  0  0  0  0  0  0  0
   59.4720   27.2100   45.2310 O   0  0  0  0  0  0  0  0  0  0  0  0
   57.4070   31.0288   42.2383 H   0  0  0  0  0  0  0  0  0  0  0  0
   57.1695   32.9141   42.3771 H   0  0  0  0  0  0  0  0  0  0  0  0
   56.9220   35.0880   45.0570 H   0  0  0  0  0  0  0  0  0  0  0  0
   59.1154   32.7637   48.7003 H   0  0  0  0  0  0  0  0  0  0  0  0
   59.5602   31.0273   48.5124 H   0  0  0  0  0  0  0  0  0  0  0  0
   61.8225   30.8119   49.0637 H   0  0  0  0  0  0  0  0  0  0  0  0
   64.2063   31.4211   48.6489 H   0  0  0  0  0  0  0  0  0  0  0  0
   64.7666   33.3481   47.1633 H   0  0  0  0  0  0  0  0  0  0  0  0
   62.9397   34.6696   46.0900 H   0  0  0  0  0  0  0  0  0  0  0  0
   60.5534   34.0684   46.4991 H   0  0  0  0  0  0  0  0  0  0  0  0
   59.2680   29.8696   46.4424 H   0  0  0  0  0  0  0  0  0  0  0  0
   58.1974   29.2571   43.2384 H   0  0  0  0  0  0  0  0  0  0  0  0
  1  2  2  0
  2  3  1  0
  3  4  1  0
  3  5  2  0
  5  6  1  0
  5  7  1  0
  7  8  1  0
  8  9  1  0
  9 10  2  0
 10 11  1  0
 11 12  2  0
 12 13  1  0
 13 14  2  0
  7 15  2  0
 15 16  1  0
 16 17  2  3
 17 18  1  0
 18 19  2  0
 19 20  1  0
 19 21  1  0
 21 22  1  0
 22 23  2  0
 22 24  1  0
 24 25  1  0
 25 26  2  0
 16  2  1  0
 25 18  1  0
 14  9  1  0
  1 27  1  0
  1 28  1  0
  4 29  1  0
  8 30  1  0
  8 31  1  0
 10 32  1  0
 11 33  1  0
 12 34  1  0
 13 35  1  0
 14 36  1  0
 15 37  1  0
 17 38  1  0
M  CHG  4   6  -1  20  -1  21  -1  24  -1
M  END
>  <UniqueID>  (83) 
80

>  <SMILES>  (83) 
C=c1c(O)c([O-])c(Cc2ccccc2)cc1=Cc1c([O-])[n-]c(=O)[n-]c1=O

>  <Energy>  (83) 
69.88829520149396

>  <Genealogy>  (83) 
C=c1c(O)c([O-])c(Cc2ccccc2)cc1=Cc1c([O-])[n-]c(=O)[n-]c1=O (protonated)
C=c1c(O)c([O-])c(Cc2ccccc2)cc1=Cc1c([O-])[n-]c(=O)[n-]c1=O (3D coordinates assigned)
C=c1c(O)c([O-])c(Cc2ccccc2)cc1=Cc1c([O-])[n-]c(=O)[n-]c1=O (optimized conformer: 69.88829520149396 kcal/mol)

>  <smiles>  (83) 
C=c1c(O)c(O)c(Cc2ccccc2)cc1=Cc1c(O)[nH]c(=O)[nH]c1=O

>  <score_type>  (83) 
oracle

>  <origin>  (83) 
adg

>  <m_score__min__energy>  (83) 
-16.02

>  <m_primary>  (83) 
energy

$$$$
83:0
     RDKit          3D

 39 41  0  0  0  0  0  0  0  0999 V2000
   55.5350   30.7290   44.0930 O   0  0  0  0  0  0  0  0  0  0  0  0
   56.2300   29.9720   44.8180 C   0  0  0  0  0  0  0  0  0  0  0  0
   57.5390   30.4040   45.2170 N   0  0  0  0  0  0  0  0  0  0  0  0
   58.0480   31.7460   45.1720 C   0  0  0  0  0  0  0  0  0  0  0  0
   58.2780   32.3390   43.9270 C   0  0  0  0  0  0  0  0  0  0  0  0
   58.7910   33.6360   43.8460 C   0  0  0  0  0  0  0  0  0  0  0  0
   59.0590   34.3560   45.0120 C   0  0  0  0  0  0  0  0  0  0  0  0
   58.7950   33.7960   46.2670 C   0  0  0  0  0  0  0  0  0  0  0  0
   59.1100   34.5560   47.4440 N   0  0  0  0  0  0  0  0  0  0  0  0
   59.7480   34.0650   48.6310 C   0  0  0  0  0  0  0  0  0  0  0  0
   59.0330   33.8130   49.6380 O   0  0  0  0  0  0  0  0  0  0  0  0
   61.2040   33.7990   48.6900 C   0  0  0  0  0  0  0  0  0  0  0  0
   61.9420   34.1650   49.8310 C   0  0  0  0  0  0  0  0  0  0  0  0
   63.3170   33.9240   49.8890 C   0  0  0  0  0  0  0  0  0  0  0  0
   63.9690   33.3090   48.8160 C   0  0  0  0  0  0  0  0  0  0  0  0
   65.3030   33.0770   48.8750 F   0  0  0  0  0  0  0  0  0  0  0  0
   63.2420   32.9290   47.6850 C   0  0  0  0  0  0  0  0  0  0  0  0
   61.8660   33.1670   47.6220 C   0  0  0  0  0  0  0  0  0  0  0  0
   58.2890   32.4860   46.3430 C   0  0  0  0  0  0  0  0  0  0  0  0
   55.6880   28.7070   45.2200 N   0  0  0  0  0  0  0  0  0  0  0  0
   56.4440   27.5570   45.6290 C   0  0  0  0  0  0  0  0  0  0  0  0
   57.8500   27.5790   45.6610 C   0  0  0  0  0  0  0  0  0  0  0  0
   58.5620   26.4500   46.0760 C   0  0  0  0  0  0  0  0  0  0  0  0
   57.8780   25.2880   46.4460 C   0  0  0  0  0  0  0  0  0  0  0  0
   56.4820   25.2530   46.3950 C   0  0  0  0  0  0  0  0  0  0  0  0
   55.7650   26.3810   45.9830 C   0  0  0  0  0  0  0  0  0  0  0  0
   54.3760   26.3350   45.9420 O   0  0  0  0  0  0  0  0  0  0  0  0
   58.0538   31.7812   43.0058 H   0  0  0  0  0  0  0  0  0  0  0  0
   58.9839   34.0903   42.8630 H   0  0  0  0  0  0  0  0  0  0  0  0
   59.4803   35.3698   44.9436 H   0  0  0  0  0  0  0  0  0  0  0  0
   61.4338   34.6432   50.6814 H   0  0  0  0  0  0  0  0  0  0  0  0
   63.8883   34.2190   50.7815 H   0  0  0  0  0  0  0  0  0  0  0  0
   63.7537   32.4414   46.8421 H   0  0  0  0  0  0  0  0  0  0  0  0
   61.2977   32.8583   46.7322 H   0  0  0  0  0  0  0  0  0  0  0  0
   58.0803   32.0372   47.3254 H   0  0  0  0  0  0  0  0  0  0  0  0
   58.3911   28.4877   45.3584 H   0  0  0  0  0  0  0  0  0  0  0  0
   59.6611   26.4757   46.1115 H   0  0  0  0  0  0  0  0  0  0  0  0
   58.4387   24.4015   46.7772 H   0  0  0  0  0  0  0  0  0  0  0  0
   55.9455   24.3358   46.6796 H   0  0  0  0  0  0  0  0  0  0  0  0
  1  2  2  0
  2  3  1  0
  3  4  1  0
  4  5  2  0
  5  6  1  0
  6  7  2  0
  7  8  1  0
  8  9  1  0
  9 10  1  0
 10 11  2  0
 10 12  1  0
 12 13  2  0
 13 14  1  0
 14 15  2  0
 15 16  1  0
 15 17  1  0
 17 18  2  0
  8 19  2  0
  2 20  1  0
 20 21  1  0
 21 22  2  0
 22 23  1  0
 23 24  2  0
 24 25  1  0
 25 26  2  0
 26 27  1  0
 19  4  1  0
 26 21  1  0
 18 12  1  0
  5 28  1  0
  6 29  1  0
  7 30  1  0
 13 31  1  0
 14 32  1  0
 17 33  1  0
 18 34  1  0
 19 35  1  0
 22 36  1  0
 23 37  1  0
 24 38  1  0
 25 39  1  0
M  CHG  4   3  -1   9  -1  20  -1  27  -1
M  END
>  <UniqueID>  (84) 
81

>  <SMILES>  (84) 
O=C([N-]c1cccc([N-]C(=O)c2ccc(F)cc2)c1)[N-]c1ccccc1[O-]

>  <Energy>  (84) 
55.393858436687935

>  <Genealogy>  (84) 
O=C([N-]c1cccc([N-]C(=O)c2ccc(F)cc2)c1)[N-]c1ccccc1[O-] (protonated)
O=C([N-]c1cccc([N-]C(=O)c2ccc(F)cc2)c1)[N-]c1ccccc1[O-] (3D coordinates assigned)
O=C([N-]c1cccc([N-]C(=O)c2ccc(F)cc2)c1)[N-]c1ccccc1[O-] (optimized conformer: 55.393858436687935 kcal/mol)

>  <smiles>  (84) 
O=C(Nc1cccc(NC(=O)c2ccc(F)cc2)c1)Nc1ccccc1O

>  <score_type>  (84) 
oracle

>  <origin>  (84) 
adg

>  <m_score__min__energy>  (84) 
-16.73

>  <m_primary>  (84) 
energy

$$$$
84:0
     RDKit          3D

 39 41  0  0  0  0  0  0  0  0999 V2000
   59.0560   27.5800   47.9280 C   0  0  0  0  0  0  0  0  0  0  0  0
   58.5570   28.4260   47.0230 C   0  0  0  0  0  0  0  0  0  0  0  0
   58.5300   29.7560   47.2200 N   0  0  0  0  0  0  0  0  0  0  0  0
   57.9810   30.3280   46.1630 N   0  0  0  0  0  0  0  0  0  0  0  0
   57.6620   29.3780   45.2610 C   0  0  0  0  0  0  0  0  0  0  0  0
   56.8570   29.7120   44.0340 C   0  0  0  0  0  0  0  0  0  0  0  0
   56.4150   31.1800   44.0490 C   0  0  0  0  0  0  0  0  0  0  0  0
   57.6050   32.1000   43.9750 C   0  0  0  0  0  0  0  0  0  0  0  0
   58.4110   31.9460   43.0170 O   0  0  0  0  0  0  0  0  0  0  0  0
   57.8830   33.0990   44.9860 N   0  0  0  0  0  0  0  0  0  0  0  0
   57.1420   33.1430   46.2570 C   0  0  0  0  0  0  0  0  0  0  0  0
   58.1050   33.4350   47.4010 C   0  0  0  0  0  0  0  0  0  0  0  0
   58.8420   34.6610   47.1310 N   0  0  0  0  0  0  0  0  0  0  0  0
   59.2390   35.0100   45.8020 C   0  0  0  0  0  0  0  0  0  0  0  0
   60.0090   35.9910   45.6210 O   0  0  0  0  0  0  0  0  0  0  0  0
   58.7240   34.2490   44.6100 C   0  0  0  0  0  0  0  0  0  0  0  0
   58.0150   28.1230   45.7740 C   0  0  0  0  0  0  0  0  0  0  0  0
   57.8440   26.8880   45.2540 C   0  0  0  0  0  0  0  0  0  0  0  0
   57.1760   25.7690   45.9300 C   0  0  0  0  0  0  0  0  0  0  0  0
   57.8170   24.7130   46.4650 N   0  0  0  0  0  0  0  0  0  0  0  0
   56.8290   24.0390   47.0930 C   0  0  0  0  0  0  0  0  0  0  0  0
   57.0320   22.9610   47.7110 O   0  0  0  0  0  0  0  0  0  0  0  0
   55.6110   24.6180   47.0200 N   0  0  0  0  0  0  0  0  0  0  0  0
   55.8540   25.7190   46.2930 C   0  0  0  0  0  0  0  0  0  0  0  0
   54.8870   26.6630   45.9720 O   0  0  0  0  0  0  0  0  0  0  0  0
   59.0589   26.4985   47.7271 H   0  0  0  0  0  0  0  0  0  0  0  0
   59.4641   27.9647   48.8743 H   0  0  0  0  0  0  0  0  0  0  0  0
   57.4719   29.5307   43.1401 H   0  0  0  0  0  0  0  0  0  0  0  0
   55.9595   29.0761   44.0202 H   0  0  0  0  0  0  0  0  0  0  0  0
   55.7602   31.3679   43.1853 H   0  0  0  0  0  0  0  0  0  0  0  0
   55.8772   31.3757   44.9884 H   0  0  0  0  0  0  0  0  0  0  0  0
   56.3799   33.9347   46.2091 H   0  0  0  0  0  0  0  0  0  0  0  0
   56.6545   32.1721   46.4291 H   0  0  0  0  0  0  0  0  0  0  0  0
   57.5362   33.5502   48.3355 H   0  0  0  0  0  0  0  0  0  0  0  0
   58.8152   32.6005   47.4969 H   0  0  0  0  0  0  0  0  0  0  0  0
   59.1560   35.2510   47.9340 H   0  0  0  0  0  0  0  0  0  0  0  0
   58.1272   34.9323   43.9880 H   0  0  0  0  0  0  0  0  0  0  0  0
   59.5958   33.8574   44.0654 H   0  0  0  0  0  0  0  0  0  0  0  0
   58.2369   26.7062   44.2428 H   0  0  0  0  0  0  0  0  0  0  0  0
  1  2  2  0
  2  3  1  0
  3  4  1  0
  4  5  2  0
  5  6  1  0
  6  7  1  0
  7  8  1  0
  8  9  2  0
  8 10  1  0
 10 11  1  0
 11 12  1  0
 12 13  1  0
 13 14  1  0
 14 15  2  0
 14 16  1  0
  5 17  1  0
 17 18  2  3
 18 19  1  0
 19 20  1  0
 20 21  1  0
 21 22  2  0
 21 23  1  0
 23 24  1  0
 24 25  1  0
 17  2  1  0
 24 19  2  0
 16 10  1  0
  1 26  1  0
  1 27  1  0
  6 28  1  0
  6 29  1  0
  7 30  1  0
  7 31  1  0
 11 32  1  0
 11 33  1  0
 12 34  1  0
 12 35  1  0
 13 36  1  0
 16 37  1  0
 16 38  1  0
 18 39  1  0
M  CHG  4   3  -1  20  -1  23  -1  25  -1
M  END
>  <UniqueID>  (85) 
82

>  <SMILES>  (85) 
C=c1[n-]nc(CCC(=O)N2CCNC(=O)C2)c1=Cc1[n-]c(=O)[n-]c1[O-]

>  <Energy>  (85) 
108.60363767621364

>  <Genealogy>  (85) 
C=c1[n-]nc(CCC(=O)N2CCNC(=O)C2)c1=Cc1[n-]c(=O)[n-]c1[O-] (protonated)
C=c1[n-]nc(CCC(=O)N2CCNC(=O)C2)c1=Cc1[n-]c(=O)[n-]c1[O-] (3D coordinates assigned)
C=c1[n-]nc(CCC(=O)N2CCNC(=O)C2)c1=Cc1[n-]c(=O)[n-]c1[O-] (nonaromatic ring conformer: 108.60363767621364 kcal/mol)

>  <smiles>  (85) 
C=c1[nH]nc(CCC(=O)N2CCNC(=O)C2)c1=Cc1[nH]c(=O)[nH]c1O

>  <score_type>  (85) 
oracle

>  <origin>  (85) 
adg

>  <m_score__min__energy>  (85) 
-17.120000000000001

>  <m_primary>  (85) 
energy

$$$$
85:0
     RDKit          3D

 44 46  0  0  0  0  0  0  0  0999 V2000
   56.9920   33.3360   47.0400 O   0  0  0  0  0  0  0  0  0  0  0  0
   57.7160   33.5090   46.0240 C   0  0  0  0  0  0  0  0  0  0  0  0
   58.7180   34.5320   46.0260 N   0  0  0  0  0  0  0  0  0  0  0  0
   60.0720   34.3090   46.5130 C   0  0  0  0  0  0  0  0  0  0  0  0
   60.0210   33.7150   47.9190 C   0  0  0  0  0  0  0  0  0  0  0  0
   59.8820   32.2190   47.8600 C   0  0  0  0  0  0  0  0  0  0  0  0
   59.0780   31.5420   48.7950 C   0  0  0  0  0  0  0  0  0  0  0  0
   58.9250   30.1540   48.7190 C   0  0  0  0  0  0  0  0  0  0  0  0
   59.5660   29.4330   47.7070 C   0  0  0  0  0  0  0  0  0  0  0  0
   59.4180   28.0870   47.6350 F   0  0  0  0  0  0  0  0  0  0  0  0
   60.3570   30.1000   46.7660 C   0  0  0  0  0  0  0  0  0  0  0  0
   60.5100   31.4880   46.8370 C   0  0  0  0  0  0  0  0  0  0  0  0
   57.5260   32.6520   44.8390 C   0  0  0  0  0  0  0  0  0  0  0  0
   58.2520   32.8700   43.6560 C   0  0  0  0  0  0  0  0  0  0  0  0
   58.0420   32.0320   42.5590 C   0  0  0  0  0  0  0  0  0  0  0  0
   57.1210   30.9880   42.6450 C   0  0  0  0  0  0  0  0  0  0  0  0
   56.4180   30.7910   43.8410 C   0  0  0  0  0  0  0  0  0  0  0  0
   55.4020   29.6970   43.9550 C   0  0  0  0  0  0  0  0  0  0  0  0
   55.5510   29.0310   45.2440 N   0  0  0  0  0  0  0  0  0  0  0  0
   56.5750   28.0820   45.5700 C   0  0  0  0  0  0  0  0  0  0  0  0
   57.7790   28.4300   45.4550 O   0  0  0  0  0  0  0  0  0  0  0  0
   56.2720   26.7010   45.9870 C   0  0  0  0  0  0  0  0  0  0  0  0
   57.2170   25.9150   46.6580 C   0  0  0  0  0  0  0  0  0  0  0  0
   56.8750   24.6050   46.9990 C   0  0  0  0  0  0  0  0  0  0  0  0
   57.7000   23.8720   47.6060 O   0  0  0  0  0  0  0  0  0  0  0  0
   55.6530   24.1150   46.6670 N   0  0  0  0  0  0  0  0  0  0  0  0
   54.7540   24.8820   45.9960 C   0  0  0  0  0  0  0  0  0  0  0  0
   53.6290   24.4080   45.6890 O   0  0  0  0  0  0  0  0  0  0  0  0
   55.0690   26.1590   45.6560 N   0  0  0  0  0  0  0  0  0  0  0  0
   56.6310   31.6260   44.8940 N   0  0  0  0  0  0  0  0  0  0  0  0
   60.5926   33.6118   45.8400 H   0  0  0  0  0  0  0  0  0  0  0  0
   60.6118   35.2670   46.5412 H   0  0  0  0  0  0  0  0  0  0  0  0
   60.9483   33.9706   48.4527 H   0  0  0  0  0  0  0  0  0  0  0  0
   59.1497   34.1303   48.4466 H   0  0  0  0  0  0  0  0  0  0  0  0
   58.5676   32.1067   49.5891 H   0  0  0  0  0  0  0  0  0  0  0  0
   58.2997   29.6290   49.4561 H   0  0  0  0  0  0  0  0  0  0  0  0
   60.8593   29.5320   45.9691 H   0  0  0  0  0  0  0  0  0  0  0  0
   61.1246   32.0101   46.0889 H   0  0  0  0  0  0  0  0  0  0  0  0
   58.9791   33.6932   43.5946 H   0  0  0  0  0  0  0  0  0  0  0  0
   58.6029   32.1952   41.6269 H   0  0  0  0  0  0  0  0  0  0  0  0
   56.9484   30.3265   41.7833 H   0  0  0  0  0  0  0  0  0  0  0  0
   54.3916   30.1248   43.8774 H   0  0  0  0  0  0  0  0  0  0  0  0
   55.5535   28.9685   43.1449 H   0  0  0  0  0  0  0  0  0  0  0  0
   58.2075   26.3210   46.9110 H   0  0  0  0  0  0  0  0  0  0  0  0
  1  2  2  0
  2  3  1  0
  3  4  1  0
  4  5  1  0
  5  6  1  0
  6  7  2  0
  7  8  1  0
  8  9  2  0
  9 10  1  0
  9 11  1  0
 11 12  2  0
  2 13  1  0
 13 14  2  0
 14 15  1  0
 15 16  2  0
 16 17  1  0
 17 18  1  0
 18 19  1  0
 19 20  1  0
 20 21  2  0
 20 22  1  0
 22 23  2  0
 23 24  1  0
 24 25  2  0
 24 26  1  0
 26 27  1  0
 27 28  2  0
 27 29  1  0
 17 30  2  0
 12  6  1  0
 30 13  1  0
 29 22  1  0
  4 31  1  0
  4 32  1  0
  5 33  1  0
  5 34  1  0
  7 35  1  0
  8 36  1  0
 11 37  1  0
 12 38  1  0
 14 39  1  0
 15 40  1  0
 16 41  1  0
 18 42  1  0
 18 43  1  0
 23 44  1  0
M  CHG  4   3  -1  19  -1  26  -1  29  -1
M  END
>  <UniqueID>  (86) 
83

>  <SMILES>  (86) 
O=C([N-]CCc1ccc(F)cc1)c1cccc(C[N-]C(=O)c2cc(=O)[n-]c(=O)[n-]2)n1

>  <Energy>  (86) 
45.94193382696681

>  <Genealogy>  (86) 
O=C([N-]CCc1ccc(F)cc1)c1cccc(C[N-]C(=O)c2cc(=O)[n-]c(=O)[n-]2)n1 (protonated)
O=C([N-]CCc1ccc(F)cc1)c1cccc(C[N-]C(=O)c2cc(=O)[n-]c(=O)[n-]2)n1 (3D coordinates assigned)
O=C([N-]CCc1ccc(F)cc1)c1cccc(C[N-]C(=O)c2cc(=O)[n-]c(=O)[n-]2)n1 (optimized conformer: 45.94193382696681 kcal/mol)

>  <smiles>  (86) 
O=C(NCCc1ccc(F)cc1)c1cccc(CNC(=O)c2cc(=O)[nH]c(=O)[nH]2)n1

>  <score_type>  (86) 
oracle

>  <origin>  (86) 
adg

>  <m_score__min__energy>  (86) 
-16.510000000000002

>  <m_primary>  (86) 
energy

$$$$
86:0
     RDKit          3D

 27 28  0  0  0  0  0  0  0  0999 V2000
   57.2040   29.8510   44.5780 H   0  0  0  0  0  0  0  0  0  0  0  0
   56.7890   30.7320   44.8530 O   0  0  0  0  0  0  0  0  0  0  0  0
   57.5440   31.8180   45.3010 C   0  0  0  0  0  0  0  0  0  0  0  0
   56.9840   33.0990   45.2130 C   0  0  0  0  0  0  0  0  0  0  0  0
   55.9886   33.2305   44.7636 H   0  0  0  0  0  0  0  0  0  0  0  0
   57.6810   34.2100   45.6920 C   0  0  0  0  0  0  0  0  0  0  0  0
   57.2383   35.2136   45.6095 H   0  0  0  0  0  0  0  0  0  0  0  0
   58.9380   34.0490   46.2750 C   0  0  0  0  0  0  0  0  0  0  0  0
   59.4777   34.9235   46.6674 H   0  0  0  0  0  0  0  0  0  0  0  0
   59.5120   32.7790   46.3610 C   0  0  0  0  0  0  0  0  0  0  0  0
   60.4974   32.6557   46.8340 H   0  0  0  0  0  0  0  0  0  0  0  0
   58.8400   31.6590   45.8480 C   0  0  0  0  0  0  0  0  0  0  0  0
   59.5140   30.3460   45.9100 C   0  0  0  0  0  0  0  0  0  0  0  0
   60.5866   30.3106   45.6685 H   0  0  0  0  0  0  0  0  0  0  0  0
   58.9110   29.1930   46.2400 C   0  0  0  0  0  0  0  0  0  0  0  0
   58.8009   28.9684   47.3112 H   0  0  0  0  0  0  0  0  0  0  0  0
   58.3820   28.1990   45.2780 C   0  0  0  0  0  0  0  0  0  0  0  0
   58.7190   28.3030   44.0680 O   0  0  0  0  0  0  0  0  0  0  0  0
   57.4400   27.1210   45.6700 C   0  0  0  0  0  0  0  0  0  0  0  0
   56.0510   27.3360   45.6410 C   0  0  0  0  0  0  0  0  0  0  0  0
   55.5300   28.5630   45.2450 O   0  0  0  0  0  0  0  0  0  0  0  0
   55.2020   26.3340   45.9810 N   0  0  0  0  0  0  0  0  0  0  0  0
   55.6660   25.1180   46.3620 C   0  0  0  0  0  0  0  0  0  0  0  0
   54.8590   24.2030   46.6670 O   0  0  0  0  0  0  0  0  0  0  0  0
   57.0030   24.8890   46.4180 N   0  0  0  0  0  0  0  0  0  0  0  0
   57.8970   25.8570   46.0910 C   0  0  0  0  0  0  0  0  0  0  0  0
   59.1290   25.6110   46.1770 O   0  0  0  0  0  0  0  0  0  0  0  0
  1  2  1  0
  2  3  1  0
  3  4  2  0
  4  5  1  0
  4  6  1  0
  6  7  1  0
  6  8  2  0
  8  9  1  0
  8 10  1  0
 10 11  1  0
 10 12  2  0
 12 13  1  0
 13 14  1  0
 13 15  2  0
 15 16  1  0
 15 17  1  0
 17 18  2  0
 17 19  1  0
 19 20  2  0
 20 21  1  0
 20 22  1  0
 22 23  1  0
 23 24  2  0
 23 25  1  0
 25 26  1  0
 26 27  2  0
 12  3  1  0
 26 19  1  0
M  CHG  3  21  -1  22  -1  25  -1
M  END
>  <UniqueID>  (87) 
84

>  <SMILES>  (87) 
O=C(/C=C\c1ccccc1O)c1c([O-])[n-]c(=O)[n-]c1=O

>  <Energy>  (87) 
43.79217031757315

>  <Genealogy>  (87) 
O=C(C=Cc1ccccc1O)c1c([O-])[n-]c(=O)[n-]c1=O (protonated)
O=C(/C=C\c1ccccc1O)c1c([O-])[n-]c(=O)[n-]c1=O (cis-trans isomerization)
O=C(/C=C\c1ccccc1O)c1c([O-])[n-]c(=O)[n-]c1=O (3D coordinates assigned)
O=C(/C=C\c1ccccc1O)c1c([O-])[n-]c(=O)[n-]c1=O (optimized conformer: 43.79217031757315 kcal/mol)

>  <smiles>  (87) 
O=C(C=Cc1ccccc1O)c1c(O)[nH]c(=O)[nH]c1=O

>  <score_type>  (87) 
oracle

>  <origin>  (87) 
adg

>  <m_score__min__energy>  (87) 
-15.06

>  <m_primary>  (87) 
energy

$$$$
87:0
     RDKit          3D

 63 67  0  0  0  0  0  0  0  0999 V2000
   54.1910   27.0920   46.3720 H   0  0  0  0  0  0  0  0  0  0  0  0
   55.0410   26.6270   46.0870 O   0  0  0  0  0  0  0  0  0  0  0  0
   55.0210   25.2940   45.6920 C   0  0  0  0  0  0  0  0  0  0  0  0
   53.9800   24.4660   45.8910 N   0  0  0  0  0  0  0  0  0  0  0  0
   54.3970   23.3160   45.3130 C   0  0  0  0  0  0  0  0  0  0  0  0
   53.6850   22.2740   45.2760 O   0  0  0  0  0  0  0  0  0  0  0  0
   55.6270   23.3740   44.7560 N   0  0  0  0  0  0  0  0  0  0  0  0
   56.0340   24.6310   45.0300 C   0  0  0  0  0  0  0  0  0  0  0  0
   57.2610   25.2220   44.4780 C   0  0  0  0  0  0  0  0  0  0  0  0
   57.7746   24.6575   43.6858 H   0  0  0  0  0  0  0  0  0  0  0  0
   57.8150   26.3920   44.8530 C   0  0  0  0  0  0  0  0  0  0  0  0
   57.9510   27.4660   43.9860 C   0  0  0  0  0  0  0  0  0  0  0  0
   57.6756   27.4870   42.9212 H   0  0  0  0  0  0  0  0  0  0  0  0
   58.4970   28.5020   44.7130 C   0  0  0  0  0  0  0  0  0  0  0  0
   58.8250   29.8550   44.1610 C   0  0  0  0  0  0  0  0  0  0  0  0
   58.9954   30.5577   44.9899 H   0  0  0  0  0  0  0  0  0  0  0  0
   59.7331   29.7889   43.5438 H   0  0  0  0  0  0  0  0  0  0  0  0
   57.9874   30.2121   43.5438 H   0  0  0  0  0  0  0  0  0  0  0  0
   58.7290   28.1140   45.9850 N   0  0  0  0  0  0  0  0  0  0  0  0
   59.3730   28.9130   46.9910 C   0  0  0  0  0  0  0  0  0  0  0  0
   58.7050   29.2220   48.1850 C   0  0  0  0  0  0  0  0  0  0  0  0
   57.6719   28.8773   48.3392 H   0  0  0  0  0  0  0  0  0  0  0  0
   59.3460   29.9660   49.1800 C   0  0  0  0  0  0  0  0  0  0  0  0
   58.8143   30.2039   50.1131 H   0  0  0  0  0  0  0  0  0  0  0  0
   60.6640   30.4110   48.9950 C   0  0  0  0  0  0  0  0  0  0  0  0
   61.3600   31.1560   50.0660 C   0  0  0  0  0  0  0  0  0  0  0  0
   61.2740   30.7550   51.2560 O   0  0  0  0  0  0  0  0  0  0  0  0
   62.0830   32.3640   49.7750 N   0  0  0  0  0  0  0  0  0  0  0  0
   63.4970   32.3570   49.4340 C   0  0  0  0  0  0  0  0  0  0  0  0
   64.0614   31.7390   50.1478 H   0  0  0  0  0  0  0  0  0  0  0  0
   63.6733   31.9339   48.4341 H   0  0  0  0  0  0  0  0  0  0  0  0
   63.9440   33.8110   49.5190 C   0  0  0  0  0  0  0  0  0  0  0  0
   64.4820   33.9921   50.4612 H   0  0  0  0  0  0  0  0  0  0  0  0
   64.6296   34.0729   48.6996 H   0  0  0  0  0  0  0  0  0  0  0  0
   62.6640   34.6420   49.4690 C   0  0  0  0  0  0  0  0  0  0  0  0
   62.7497   35.5195   50.1267 H   0  0  0  0  0  0  0  0  0  0  0  0
   62.4622   35.0188   48.4555 H   0  0  0  0  0  0  0  0  0  0  0  0
   61.5500   33.7110   49.9610 C   0  0  1  0  0  0  0  0  0  0  0  0
   61.2837   33.8937   51.0125 H   0  0  0  0  0  0  0  0  0  0  0  0
   60.2350   33.9420   49.1810 C   0  0  0  0  0  0  0  0  0  0  0  0
   59.6551   33.0074   49.1653 H   0  0  0  0  0  0  0  0  0  0  0  0
   59.6618   34.7372   49.6800 H   0  0  0  0  0  0  0  0  0  0  0  0
   60.5210   34.3610   47.7890 N   0  0  0  0  0  0  0  0  0  0  0  0
   60.8190   33.2010   46.9290 C   0  0  0  0  0  0  0  0  0  0  0  0
   61.5842   33.4742   46.1875 H   0  0  0  0  0  0  0  0  0  0  0  0
   61.1992   32.3662   47.5360 H   0  0  0  0  0  0  0  0  0  0  0  0
   59.5350   32.7920   46.2180 C   0  0  0  0  0  0  0  0  0  0  0  0
   59.7164   32.6680   45.1402 H   0  0  0  0  0  0  0  0  0  0  0  0
   59.1515   31.8319   46.5936 H   0  0  0  0  0  0  0  0  0  0  0  0
   58.5530   33.9200   46.4620 C   0  0  0  0  0  0  0  0  0  0  0  0
   58.1535   34.2964   45.5087 H   0  0  0  0  0  0  0  0  0  0  0  0
   57.6904   33.5913   47.0602 H   0  0  0  0  0  0  0  0  0  0  0  0
   59.3530   35.0000   47.1670 C   0  0  0  0  0  0  0  0  0  0  0  0
   59.6834   35.7559   46.4394 H   0  0  0  0  0  0  0  0  0  0  0  0
   58.7365   35.4984   47.9296 H   0  0  0  0  0  0  0  0  0  0  0  0
   61.3190   30.1260   47.7820 C   0  0  0  0  0  0  0  0  0  0  0  0
   62.3413   30.4951   47.6125 H   0  0  0  0  0  0  0  0  0  0  0  0
   60.6770   29.3760   46.7910 C   0  0  0  0  0  0  0  0  0  0  0  0
   61.2003   29.1495   45.8503 H   0  0  0  0  0  0  0  0  0  0  0  0
   58.3450   26.8140   46.0850 C   0  0  0  0  0  0  0  0  0  0  0  0
   58.5550   26.0650   47.1810 C   0  0  0  0  0  0  0  0  0  0  0  0
   58.9790   26.5227   48.0870 H   0  0  0  0  0  0  0  0  0  0  0  0
   58.3029   24.9943   47.1721 H   0  0  0  0  0  0  0  0  0  0  0  0
  1  2  1  0
  2  3  1  0
  3  4  1  0
  4  5  1  0
  5  6  2  0
  5  7  1  0
  7  8  1  0
  8  9  1  0
  9 10  1  0
  9 11  2  0
 11 12  1  0
 12 13  1  0
 12 14  2  0
 14 15  1  0
 15 16  1  0
 15 17  1  0
 15 18  1  0
 14 19  1  0
 19 20  1  0
 20 21  2  0
 21 22  1  0
 21 23  1  0
 23 24  1  0
 23 25  2  0
 25 26  1  0
 26 27  2  0
 26 28  1  0
 28 29  1  0
 29 30  1  0
 29 31  1  0
 29 32  1  0
 32 33  1  0
 32 34  1  0
 32 35  1  0
 35 36  1  0
 35 37  1  0
 35 38  1  0
 38 39  1  1
 38 40  1  0
 40 41  1  0
 40 42  1  0
 40 43  1  0
 43 44  1  0
 44 45  1  0
 44 46  1  0
 44 47  1  0
 47 48  1  0
 47 49  1  0
 47 50  1  0
 50 51  1  0
 50 52  1  0
 50 53  1  0
 53 54  1  0
 53 55  1  0
 25 56  1  0
 56 57  1  0
 56 58  2  0
 58 59  1  0
 19 60  1  0
 60 61  2  0
 61 62  1  0
 61 63  1  0
  8  3  2  0
 60 11  1  0
 58 20  1  0
 38 28  1  0
 53 43  1  0
M  CHG  2   4  -1   7  -1
M  END
>  <UniqueID>  (88) 
85

>  <SMILES>  (88) 
C=c1/c(=C\c2[n-]c(=O)[n-]c2O)cc(C)n1-c1ccc(C(=O)N2CCC[C@H]2CN2CCCC2)cc1

>  <Energy>  (88) 
152.65909741319757

>  <Genealogy>  (88) 
C=c1c(=Cc2[n-]c(=O)[n-]c2O)cc(C)n1-c1ccc(C(=O)N2CCCC2CN2CCCC2)cc1 (protonated)
C=c1c(=Cc2[n-]c(=O)[n-]c2O)cc(C)n1-c1ccc(C(=O)N2CCC[C@H]2CN2CCCC2)cc1 (chirality)
C=c1/c(=C\c2[n-]c(=O)[n-]c2O)cc(C)n1-c1ccc(C(=O)N2CCC[C@H]2CN2CCCC2)cc1 (cis-trans isomerization)
C=c1/c(=C\c2[n-]c(=O)[n-]c2O)cc(C)n1-c1ccc(C(=O)N2CCC[C@H]2CN2CCCC2)cc1 (3D coordinates assigned)
C=c1/c(=C\c2[n-]c(=O)[n-]c2O)cc(C)n1-c1ccc(C(=O)N2CCC[C@H]2CN2CCCC2)cc1 (nonaromatic ring conformer: 152.65909741319757 kcal/mol)

>  <smiles>  (88) 
C=c1c(=Cc2[nH]c(=O)[nH]c2O)cc(C)n1-c1ccc(C(=O)N2CCCC2CN2CCCC2)cc1

>  <score_type>  (88) 
oracle

>  <origin>  (88) 
adg

>  <m_score__min__energy>  (88) 
-14.380000000000001

>  <m_primary>  (88) 
energy

$$$$
88:0
     RDKit          3D

 54 57  0  0  0  0  0  0  0  0999 V2000
   55.1400   26.4070   45.9900 O   0  0  0  0  0  0  0  0  0  0  0  0
   56.3550   26.1810   45.7480 C   0  0  0  0  0  0  0  0  0  0  0  0
   57.2610   25.6610   46.7860 C   0  0  0  0  0  0  0  0  0  0  0  0
   58.5530   26.0130   46.8490 C   0  0  0  0  0  0  0  0  0  0  0  0
   59.0520   27.1950   47.5940 C   0  0  0  0  0  0  0  0  0  0  0  0
   60.3040   27.1120   48.2240 C   0  0  0  0  0  0  0  0  0  0  0  0
   60.8120   28.1950   48.9470 C   0  0  0  0  0  0  0  0  0  0  0  0
   60.0690   29.3800   49.0650 C   0  0  0  0  0  0  0  0  0  0  0  0
   60.5980   30.5010   49.7960 N   0  0  0  0  0  0  0  0  0  0  0  0
   61.9980   30.5100   50.2350 C   0  0  0  0  0  0  0  0  0  0  0  0
   62.6700   31.7770   49.7110 C   0  0  0  0  0  0  0  0  0  0  0  0
   61.9690   33.0580   50.2350 C   0  0  0  0  0  0  0  0  0  0  0  0
   62.1010   34.2240   49.2320 C   0  0  0  0  0  0  0  0  0  0  0  0
   61.9760   33.7850   47.8770 O   0  0  0  0  0  0  0  0  0  0  0  0
   60.8030   33.3570   47.2320 C   0  0  0  0  0  0  0  0  0  0  0  0
   59.6680   34.1760   47.0650 C   0  0  0  0  0  0  0  0  0  0  0  0
   58.5260   33.6810   46.4300 C   0  0  0  0  0  0  0  0  0  0  0  0
   58.4990   32.3610   45.9440 C   0  0  0  0  0  0  0  0  0  0  0  0
   57.3700   31.8210   45.3030 C   0  0  0  0  0  0  0  0  0  0  0  0
   56.3340   32.5250   45.1510 O   0  0  0  0  0  0  0  0  0  0  0  0
   57.4080   30.4910   44.8340 C   0  0  0  0  0  0  0  0  0  0  0  0
   56.2510   29.8580   44.1480 C   0  0  0  0  0  0  0  0  0  0  0  0
   56.2210   29.7830   42.8900 O   0  0  0  0  0  0  0  0  0  0  0  0
   55.1830   29.3430   44.8720 O   0  0  0  0  0  0  0  0  0  0  0  0
   58.5900   29.7560   45.0360 C   0  0  0  0  0  0  0  0  0  0  0  0
   59.6370   30.2970   45.6470 O   0  0  0  0  0  0  0  0  0  0  0  0
   59.6390   31.5460   46.1000 C   0  0  0  0  0  0  0  0  0  0  0  0
   60.7790   32.0490   46.7350 C   0  0  0  0  0  0  0  0  0  0  0  0
   60.5100   32.8220   50.7130 C   0  0  0  0  0  0  0  0  0  0  0  0
   59.7720   31.7070   49.9500 C   0  0  0  0  0  0  0  0  0  0  0  0
   58.8150   29.4660   48.4450 C   0  0  0  0  0  0  0  0  0  0  0  0
   58.3050   28.3830   47.7220 C   0  0  0  0  0  0  0  0  0  0  0  0
   56.7481   26.3763   44.7394 H   0  0  0  0  0  0  0  0  0  0  0  0
   56.8641   24.9600   47.5350 H   0  0  0  0  0  0  0  0  0  0  0  0
   59.2862   25.3889   46.3171 H   0  0  0  0  0  0  0  0  0  0  0  0
   60.8912   26.1850   48.1478 H   0  0  0  0  0  0  0  0  0  0  0  0
   61.7992   28.1182   49.4260 H   0  0  0  0  0  0  0  0  0  0  0  0
   62.0409   30.4963   51.3341 H   0  0  0  0  0  0  0  0  0  0  0  0
   62.5177   29.6226   49.8447 H   0  0  0  0  0  0  0  0  0  0  0  0
   63.7198   31.7855   50.0395 H   0  0  0  0  0  0  0  0  0  0  0  0
   62.6001   31.7729   48.6132 H   0  0  0  0  0  0  0  0  0  0  0  0
   62.5079   33.3560   51.1465 H   0  0  0  0  0  0  0  0  0  0  0  0
   61.3120   34.9617   49.4400 H   0  0  0  0  0  0  0  0  0  0  0  0
   63.1016   34.6643   49.3544 H   0  0  0  0  0  0  0  0  0  0  0  0
   59.6814   35.2112   47.4368 H   0  0  0  0  0  0  0  0  0  0  0  0
   57.6436   34.3267   46.3095 H   0  0  0  0  0  0  0  0  0  0  0  0
   58.6478   28.7161   44.6820 H   0  0  0  0  0  0  0  0  0  0  0  0
   61.6670   31.4092   46.8451 H   0  0  0  0  0  0  0  0  0  0  0  0
   60.5349   32.5530   51.7793 H   0  0  0  0  0  0  0  0  0  0  0  0
   59.9589   33.7549   50.5234 H   0  0  0  0  0  0  0  0  0  0  0  0
   58.8589   31.4430   50.5037 H   0  0  0  0  0  0  0  0  0  0  0  0
   59.5345   32.0850   48.9447 H   0  0  0  0  0  0  0  0  0  0  0  0
   58.2275   30.3923   48.5277 H   0  0  0  0  0  0  0  0  0  0  0  0
   57.3143   28.4590   47.2501 H   0  0  0  0  0  0  0  0  0  0  0  0
  1  2  2  0
  2  3  1  0
  3  4  2  3
  4  5  1  0
  5  6  2  0
  6  7  1  0
  7  8  2  0
  8  9  1  0
  9 10  1  0
 10 11  1  0
 11 12  1  0
 12 13  1  0
 13 14  1  0
 14 15  1  0
 15 16  2  0
 16 17  1  0
 17 18  2  0
 18 19  1  0
 19 20  2  0
 19 21  1  0
 21 22  1  0
 22 23  2  0
 22 24  1  0
 21 25  2  0
 25 26  1  0
 26 27  1  0
 27 28  2  0
 12 29  1  0
 29 30  1  0
  8 31  1  0
 31 32  2  0
 32  5  1  0
 30  9  1  0
 28 15  1  0
 27 18  1  0
  2 33  1  0
  3 34  1  0
  4 35  1  0
  6 36  1  0
  7 37  1  0
 10 38  1  0
 10 39  1  0
 11 40  1  0
 11 41  1  0
 12 42  1  0
 13 43  1  0
 13 44  1  0
 16 45  1  0
 17 46  1  0
 25 47  1  0
 28 48  1  0
 29 49  1  0
 29 50  1  0
 30 51  1  0
 30 52  1  0
 31 53  1  0
 32 54  1  0
M  CHG  1  24  -1
M  END
>  <UniqueID>  (89) 
86

>  <SMILES>  (89) 
O=CC=Cc1ccc(N2CCC(COc3ccc4c(=O)c(C(=O)[O-])coc4c3)CC2)cc1

>  <Energy>  (89) 
75.2474191148685

>  <Genealogy>  (89) 
O=CC=Cc1ccc(N2CCC(COc3ccc4c(=O)c(C(=O)[O-])coc4c3)CC2)cc1 (protonated)
O=CC=Cc1ccc(N2CCC(COc3ccc4c(=O)c(C(=O)[O-])coc4c3)CC2)cc1 (3D coordinates assigned)
O=CC=Cc1ccc(N2CCC(COc3ccc4c(=O)c(C(=O)[O-])coc4c3)CC2)cc1 (nonaromatic ring conformer: 75.2474191148685 kcal/mol)

>  <smiles>  (89) 
O=CC=Cc1ccc(N2CCC(COc3ccc4c(=O)c(C(=O)O)coc4c3)CC2)cc1

>  <score_type>  (89) 
oracle

>  <origin>  (89) 
adg

>  <m_score__min__energy>  (89) 
-11.550000000000001

>  <m_primary>  (89) 
energy

$$$$
